data_functionalizedCrystal
_audit_creation_method	'MofGen! by Chris Wilmer'
_symmetry_space_group_name_H-M	'P1'
_symmetry_Int_Tables_number	1
_symmetry_cell_setting	triclinic
loop_
_symmetry_equiv_pos_as_xyz
  x,y,z
_cell_length_a	17.038272
_cell_length_b	10.654550
_cell_length_c	16.098538
_cell_angle_alpha	87.242340
_cell_angle_beta	87.061146
_cell_angle_gamma	92.201757
loop_
_atom_site_label
_atom_site_type_symbol
_atom_site_fract_x
_atom_site_fract_y
_atom_site_fract_z
O1	O	1.035417	-0.278097	0.069153
O2	O	1.535417	0.221903	0.569153
O3	O	0.807761	-0.273766	0.069177
O4	O	1.307761	0.226234	0.569177
O5	O	0.926823	-0.093678	0.069159
O6	O	1.426823	0.406322	0.569159
O7	O	0.916354	-0.458185	0.069171
O8	O	1.416354	0.041815	0.569171
O9	O	0.933772	-0.083191	-0.069355
O10	O	1.433772	0.416809	0.430645
O11	O	0.814709	-0.263279	-0.069337
O12	O	1.314709	0.236721	0.430663
O13	O	1.042365	-0.267610	-0.069361
O14	O	1.542365	0.232390	0.430639
Zn15	Zn	0.929640	-0.263779	-0.091341
Zn16	Zn	1.429640	0.236221	0.408659
Zn17	Zn	0.920485	-0.277597	0.091157
Zn18	Zn	1.420485	0.222403	0.591157
O19	O	0.923303	-0.447698	-0.069343
O20	O	1.423303	0.052302	0.430657
C21	C	0.782084	-0.264582	-0.000077
C22	C	1.282084	0.235418	0.499923
C23	C	0.695225	-0.252826	-0.000068
C24	C	1.195225	0.247174	0.499932
N25	N	0.914238	-0.287017	0.215707
N26	N	1.414238	0.212983	0.715707
C27	C	0.929529	-0.041565	-0.000098
C28	C	1.429529	0.458435	0.499902
C29	C	0.927229	0.098092	-0.000096
C30	C	1.427229	0.598092	0.499904
C31	C	0.645714	-0.360770	-0.000065
C32	C	1.145714	0.139230	0.499935
C33	C	0.564102	-0.349714	-0.000077
C34	C	1.064102	0.150286	0.499923
C35	C	0.532003	-0.230714	-0.000085
C36	C	1.032003	0.269286	0.499915
C37	C	0.581521	-0.122761	-0.000091
C38	C	1.081521	0.377239	0.499909
C39	C	0.663132	-0.133817	-0.000085
C40	C	1.163132	0.366183	0.499915
C41	C	0.286028	-0.191654	-0.000109
C42	C	0.786028	0.308346	0.499891
C43	C	0.204411	-0.180606	-0.000112
C44	C	0.704411	0.319394	0.499888
C45	C	0.186998	-0.407561	-0.000100
C46	C	0.686998	0.092439	0.499900
C47	C	0.268611	-0.418607	-0.000089
C48	C	0.768611	0.081393	0.499911
C49	C	0.318122	-0.310654	-0.000099
C50	C	0.818122	0.189346	0.499901
C51	C	0.448583	-0.219411	-0.000095
C52	C	0.948583	0.280589	0.499905
C53	C	0.401541	-0.321957	-0.000095
C54	C	0.901541	0.178043	0.499905
C55	C	1.068041	-0.276794	-0.000106
C56	C	1.568041	0.223206	0.499894
C57	C	1.154900	-0.288551	-0.000110
C58	C	1.654900	0.211449	0.499890
C59	C	0.920597	-0.499811	-0.000085
C60	C	1.420597	0.000189	0.499915
C61	C	0.922896	-0.639468	-0.000081
C62	C	1.422896	-0.139468	0.499919
C63	C	0.997331	0.171069	-0.000103
C64	C	1.497331	0.671069	0.499897
C65	C	0.995165	0.302290	-0.000093
C66	C	1.495165	0.802290	0.499907
C67	C	0.852789	0.287545	-0.000071
C68	C	1.352789	0.787545	0.499929
C69	C	0.854956	0.156326	-0.000076
C70	C	1.354956	0.656326	0.499924
N71	N	0.935894	-0.254349	-0.215891
N72	N	1.435894	0.245651	0.284109
C73	C	0.964871	-0.210748	0.259284
C74	C	1.464871	0.289252	0.759284
C75	C	0.960499	-0.217335	0.346474
C76	C	1.460499	0.282665	0.846474
C77	C	0.905489	-0.300187	0.390085
C78	C	1.405489	0.199813	0.890085
C79	C	0.854853	-0.376465	0.346501
C80	C	1.354853	0.123535	0.846501
C81	C	0.859230	-0.369883	0.259313
C82	C	1.359230	0.130117	0.759313
C83	C	0.889635	-0.324046	0.653337
C84	C	1.389635	0.175954	1.153337
C85	C	0.885261	-0.330619	0.740531
C86	C	1.385261	0.169381	1.240531
C87	C	0.990908	-0.171490	0.740498
C88	C	1.490908	0.328510	1.240498
C89	C	0.995277	-0.164910	0.653308
C90	C	1.495277	0.335090	1.153308
C91	C	0.944644	-0.241193	0.609732
C92	C	1.444644	0.258807	1.109732
C93	C	0.901017	-0.306919	0.479206
C94	C	1.401017	0.193081	0.979206
C95	C	0.949120	-0.234466	0.520612
C96	C	1.449120	0.265534	1.020612
H97	H	0.671842	-0.457673	-0.000057
H98	H	1.171842	0.042327	0.499943
H99	H	0.856225	-0.374376	0.514721
H100	H	1.356225	0.125624	1.014721
F101	F	0.511411	-0.464605	-0.000070
F102	F	1.011411	0.035395	0.499930
H103	H	0.793946	0.334976	-0.000057
H104	H	1.293946	0.834976	0.499943
F105	F	1.007667	-0.146297	0.474198
F106	F	1.507667	0.353703	0.974198
H107	H	1.009663	-0.143276	0.223782
H108	H	1.509663	0.356724	0.723782
F109	F	0.302766	-0.545264	-0.000075
F110	F	0.802766	-0.045264	0.499925
H111	H	0.146678	-0.495449	-0.000094
H112	H	0.646678	0.004551	0.499906
F113	F	0.826706	-0.418805	0.786939
F114	F	1.326706	0.081195	1.286939
H115	H	1.001729	-0.155231	0.381954
H116	H	1.501729	0.344769	0.881954
H117	H	0.178280	-0.083697	-0.000118
H118	H	0.678280	0.416303	0.499882
H119	H	0.326331	-0.103751	-0.000117
H120	H	0.826331	0.396249	0.499883
F121	F	0.414413	-0.092765	-0.000101
F122	F	0.914413	0.407235	0.499899
H123	H	0.555380	-0.025867	-0.000110
H124	H	1.055380	0.474133	0.499890
H125	H	1.052249	0.361702	-0.000097
H126	H	1.552249	0.861702	0.499903
F127	F	1.074251	0.109096	-0.000124
F128	F	1.574251	0.609096	0.499876
F129	F	0.780339	0.078653	-0.000062
F130	F	1.280339	0.578653	0.499938
H131	H	0.817999	-0.431991	0.223833
H132	H	1.317999	0.068009	0.723833
H133	H	1.040070	-0.097446	0.617802
H134	H	1.540070	0.402554	1.117802
F135	F	1.044919	-0.090529	0.786881
F136	F	1.544919	0.409471	1.286881
F137	F	0.715826	-0.018928	-0.000091
F138	F	1.215826	0.481072	0.499909
H139	H	0.427679	-0.418847	-0.000093
H140	H	0.927679	0.081153	0.499907
H141	H	0.848406	-0.386156	0.617864
H142	H	1.348406	0.113844	1.117864
H143	H	0.810065	-0.443931	0.382014
H144	H	1.310065	0.056069	0.882014
