data_functionalizedCrystal
_audit_creation_method	'MofGen! by Chris Wilmer'
_symmetry_space_group_name_H-M	'P1'
_symmetry_Int_Tables_number	1
_symmetry_cell_setting	triclinic
loop_
_symmetry_equiv_pos_as_xyz
  x,y,z
_cell_length_a	23.532407
_cell_length_b	17.699083
_cell_length_c	16.176319
_cell_angle_alpha	89.994260
_cell_angle_beta	89.988536
_cell_angle_gamma	83.065846
loop_
_atom_site_label
_atom_site_type_symbol
_atom_site_fract_x
_atom_site_fract_y
_atom_site_fract_z
O1	O	0.072020	1.003713	-0.068723
O2	O	0.572020	1.503713	0.431277
O3	O	0.081390	0.783287	-0.068732
O4	O	0.581390	1.283287	0.431268
O5	O	-0.006208	0.900147	-0.068712
O6	O	0.493792	1.400147	0.431288
O7	O	0.159618	0.886853	-0.068743
O8	O	0.659618	1.386853	0.431257
O9	O	-0.006213	0.900131	0.068781
O10	O	0.493787	1.400131	0.568781
O11	O	0.081384	0.783271	0.068761
O12	O	0.581384	1.283271	0.568761
O13	O	0.072014	1.003697	0.068771
O14	O	0.572014	1.503697	0.568771
Cu15	Cu	0.076699	0.893483	0.081320
Cu16	Cu	0.576699	1.393483	0.581320
Cu17	Cu	0.076705	0.893502	-0.081282
Cu18	Cu	0.576705	1.393502	0.418718
O19	O	0.159612	0.886837	0.068750
O20	O	0.659612	1.386837	0.568750
C21	C	-0.027427	0.899801	0.000037
C22	C	0.472573	1.399801	0.500037
C23	C	-0.090647	0.898783	0.000043
C24	C	0.409353	1.398783	0.500043
C25	C	0.081051	0.755084	0.000013
C26	C	0.581051	1.255084	0.500013
C27	C	0.080044	0.671071	0.000010
C28	C	0.580044	1.171071	0.500010
C29	C	0.072353	1.031901	0.000023
C30	C	0.572353	1.531901	0.500023
C31	C	0.073360	1.115914	0.000021
C32	C	0.573360	1.615914	0.500021
C33	C	-0.489570	0.961554	0.000000
C34	C	0.010430	1.461554	0.500000
C35	C	-0.548973	0.960609	-0.000006
C36	C	-0.048973	1.460609	0.499994
O37	O	-0.585550	1.018799	-0.000034
O38	O	-0.085550	1.518799	0.499966
N39	N	-0.571799	0.891136	-0.000008
N40	N	-0.071799	1.391136	0.499992
C41	C	-0.535218	0.822604	-0.000013
C42	C	-0.035218	1.322604	0.499987
O43	O	-0.560088	0.763424	-0.000017
O44	O	-0.060088	1.263424	0.499983
C45	C	-0.475816	0.823550	-0.000013
C46	C	0.024184	1.323550	0.499987
C47	C	-0.452994	0.893028	-0.000002
C48	C	0.047006	1.393028	0.499998
C49	C	-0.466747	1.031026	0.000010
C50	C	0.033253	1.531026	0.500010
C51	C	-0.407348	1.031972	0.000018
C52	C	0.092652	1.531972	0.500018
C53	C	-0.370772	0.963445	0.000016
C54	C	0.129228	1.463445	0.500016
C55	C	-0.393595	0.893973	0.000006
C56	C	0.106405	1.393973	0.500006
C57	C	-0.439237	0.755019	-0.000023
C58	C	0.060763	1.255019	0.499977
C59	C	-0.379832	0.755971	-0.000023
C60	C	0.120168	1.255971	0.499977
C61	C	-0.357009	0.825449	-0.000012
C62	C	0.142991	1.325449	0.499988
C63	C	-0.297620	0.826391	0.000012
C64	C	0.202380	1.326391	0.500012
N65	N	-0.274795	0.895864	0.000014
N66	N	0.225205	1.395864	0.500014
C67	C	-0.311371	0.964391	0.000017
C68	C	0.188629	1.464391	0.500017
C69	C	-0.659966	0.820622	-0.000015
C70	C	-0.159966	1.320622	0.499985
C71	C	-0.719367	0.819674	-0.000010
C72	C	-0.219367	1.319674	0.499990
C73	C	-0.733118	0.957680	-0.000004
C74	C	-0.233118	1.457680	0.499996
C75	C	-0.673716	0.958626	-0.000004
C76	C	-0.173716	1.458626	0.499996
C77	C	-0.637141	0.890095	-0.000013
C78	C	-0.137141	1.390095	0.499987
C79	C	-0.186628	0.966371	0.000034
C80	C	0.313372	1.466371	0.500034
C81	C	-0.127223	0.967310	0.000045
C82	C	0.372777	1.467310	0.500045
C83	C	-0.113478	0.829305	0.000035
C84	C	0.386522	1.329305	0.500035
C85	C	-0.172877	0.828365	0.000028
C86	C	0.327123	1.328365	0.500028
C87	C	-0.209452	0.896904	0.000025
C88	C	0.290548	1.396904	0.500025
O89	O	-0.261008	0.768232	0.000036
O90	O	0.238992	1.268232	0.500036
O91	O	-0.286493	1.023560	0.000009
O92	O	0.213507	1.523560	0.500009
C93	C	0.180832	0.887184	-0.000000
C94	C	0.680832	1.387184	0.500000
C95	C	0.244052	0.888202	-0.000012
C96	C	0.744052	1.388202	0.499988
N97	N	0.076694	0.893475	0.195685
N98	N	0.576694	1.393475	0.695685
C99	C	0.021942	1.164795	0.000028
C100	C	0.521942	1.664795	0.500028
C101	C	0.022892	1.243734	0.000030
C102	C	0.522892	1.743734	0.500030
C103	C	0.075260	1.273789	0.000020
C104	C	0.575260	1.773789	0.500020
C105	C	0.126682	1.224901	0.000016
C106	C	0.626682	1.724901	0.500016
C107	C	0.125732	1.145964	0.000019
C108	C	0.625732	1.645964	0.500019
C109	C	0.130516	1.543245	0.000003
C110	C	0.630516	2.043245	0.500003
C111	C	0.131463	1.622188	-0.000003
C112	C	0.631463	2.122188	0.499997
C113	C	0.027676	1.641015	0.000014
C114	C	0.527676	2.141015	0.500014
C115	C	0.026726	1.562078	0.000017
C116	C	0.526726	2.062078	0.500017
C117	C	0.078148	1.513196	0.000018
C118	C	0.578148	2.013196	0.500018
C119	C	0.077117	1.427602	0.000017
C120	C	0.577117	1.927602	0.500017
C121	C	0.076291	1.359381	0.000015
C122	C	0.576291	1.859381	0.500015
N123	N	0.076706	0.893516	-0.195647
N124	N	0.576706	1.393516	0.304353
C125	C	0.037921	0.945236	0.238958
C126	C	0.537921	1.445236	0.738958
C127	C	0.037921	0.945240	0.325505
C128	C	0.537921	1.445240	0.825505
C129	C	0.076696	0.893486	0.368778
C130	C	0.576696	1.393486	0.868778
C131	C	0.115470	0.841719	0.325498
C132	C	0.615470	1.341719	0.825498
C133	C	0.115468	0.841713	0.238953
C134	C	0.615468	1.341713	0.738953
C135	C	0.115481	0.841745	0.674527
C136	C	0.615481	1.341745	1.174527
C137	C	0.115481	0.841758	0.761078
C138	C	0.615481	1.341758	1.261078
C139	C	0.037934	0.945273	0.761079
C140	C	0.537934	1.445273	1.261079
C141	C	0.037932	0.945266	0.674534
C142	C	0.537932	1.445266	1.174534
C143	C	0.076704	0.893497	0.631262
C144	C	0.576704	1.393497	1.131262
C145	C	0.076703	0.893493	0.537418
C146	C	0.576703	1.393493	1.037418
C147	C	0.076700	0.893493	0.462620
C148	C	0.576700	1.393493	0.962620
H149	H	-0.108645	1.023889	0.000056
H150	H	0.391355	1.523889	0.500056
H151	H	0.147040	0.799576	0.360736
H152	H	0.647040	1.299576	0.860736
H153	H	0.147039	0.799563	0.203721
H154	H	0.647039	1.299563	0.703721
H155	H	0.169322	1.249378	0.000013
H156	H	0.669322	1.749378	0.500013
H157	H	0.147058	0.799610	0.796309
H158	H	0.647058	1.299610	1.296309
H159	H	0.174110	1.646655	-0.000007
H160	H	0.674110	2.146655	0.499993
H161	H	0.172387	1.503454	-0.000001
H162	H	0.672387	2.003454	0.499999
H163	H	-0.015918	1.537612	0.000022
H164	H	0.484082	2.037612	0.500022
H165	H	0.167602	1.106164	0.000017
H166	H	0.667602	1.606164	0.500017
H167	H	-0.083687	0.773512	0.000036
H168	H	0.416313	1.273512	0.500036
H169	H	0.147051	0.799595	0.639302
H170	H	0.647051	1.299595	1.139302
H171	H	-0.655139	1.015201	0.000004
H172	H	-0.155139	1.515201	0.500004
H173	H	0.006362	0.987424	0.796320
H174	H	0.506362	1.487424	1.296320
H175	H	0.006349	0.987383	0.203732
H176	H	0.506349	1.487383	0.703732
H177	H	-0.216401	1.022182	0.000028
H178	H	0.283599	1.522182	0.500028
H179	H	0.006359	0.987411	0.639304
H180	H	0.506359	1.487411	1.139304
H181	H	-0.388773	1.088547	0.000024
H182	H	0.111227	1.588547	0.500024
H183	H	-0.496522	1.086833	0.000009
H184	H	0.003478	1.586833	0.500009
H185	H	-0.020702	1.140331	0.000031
H186	H	0.479298	1.640331	0.500031
H187	H	-0.630189	0.764811	-0.000016
H188	H	-0.130189	1.264811	0.499984
H189	H	-0.018978	1.283531	0.000039
H190	H	0.481022	1.783531	0.500039
H191	H	-0.191460	0.771791	0.000042
H192	H	0.308540	1.271791	0.500042
H193	H	-0.014193	1.680824	0.000017
H194	H	0.485807	2.180824	0.500017
H195	H	-0.762909	1.013478	-0.000006
H196	H	-0.262909	1.513478	0.499994
H197	H	-0.737943	0.763099	-0.000004
H198	H	-0.237943	1.263099	0.499996
H199	H	-0.457808	0.698442	-0.000037
H200	H	0.042192	1.198442	0.499963
H201	H	0.006349	0.987387	0.360738
H202	H	0.506349	1.487387	0.860738
H203	H	-0.350054	0.700163	-0.000032
H204	H	0.149946	1.200163	0.499968
