data_functionalizedCrystal
_audit_creation_method	'MofGen! by Chris Wilmer'
_symmetry_space_group_name_H-M	'P1'
_symmetry_Int_Tables_number	1
_symmetry_cell_setting	triclinic
loop_
_symmetry_equiv_pos_as_xyz
  x,y,z
_cell_length_a	19.902436
_cell_length_b	19.379189
_cell_length_c	19.377372
_cell_angle_alpha	62.450289
_cell_angle_beta	89.994412
_cell_angle_gamma	52.463758
loop_
_atom_site_label
_atom_site_type_symbol
_atom_site_fract_x
_atom_site_fract_y
_atom_site_fract_z
Zr1	Zr	0.472548	0.914398	-0.278667
O2	O	0.353391	1.052553	-0.405028
O3	O	0.534924	0.746551	-0.212549
O4	O	0.530831	0.871596	-0.365560
O5	O	0.331310	0.971625	-0.162466
O6	O	0.641397	0.871608	-0.365574
O7	O	0.357484	0.927509	-0.252017
O8	O	0.648718	0.647926	-0.091865
O9	O	0.323989	1.195308	-0.436175
O10	O	0.612812	0.826594	-0.217442
O11	O	0.510765	0.859509	-0.150601
O12	O	0.505946	1.006733	-0.330752
O13	O	0.403899	1.039648	-0.263911
Zr14	Zr	0.607143	0.984777	-0.135866
Zr15	Zr	0.648887	0.914417	-0.278689
Zr16	Zr	0.430804	0.984759	-0.135843
Zr17	Zr	0.425655	1.142074	-0.328343
Zr18	Zr	0.654036	0.757101	-0.086190
O19	O	0.544767	1.152624	-0.201984
O20	O	0.604123	1.052580	-0.405060
O21	O	0.294036	1.152598	-0.201952
O22	O	0.726300	0.846622	-0.009504
O23	O	0.785655	0.746578	-0.212581
O24	O	0.475568	0.846595	-0.009472
O25	O	0.748381	0.927550	-0.252067
O26	O	0.548860	1.027579	-0.048973
O27	O	0.438295	1.027568	-0.048958
O28	O	0.722207	0.971667	-0.162516
O29	O	0.464155	1.195322	-0.436193
O30	O	0.615536	0.703853	0.021661
O31	O	0.755702	0.703868	0.021643
O32	O	0.788884	0.647940	-0.091883
O33	O	0.290808	1.251235	-0.322650
O34	O	0.430974	1.251250	-0.322668
O35	O	0.573745	0.892442	-0.083781
O36	O	0.675792	0.859527	-0.150622
O37	O	0.568926	1.039666	-0.263932
O38	O	0.466879	1.072581	-0.197090
C39	C	0.598502	0.664799	-0.145129
C40	C	0.618409	0.568145	-0.124040
C41	C	0.370522	0.521586	-0.386807
C42	C	0.389252	0.430724	-0.366901
C43	C	0.514607	0.322167	-0.233957
C44	C	0.495884	0.413024	-0.253849
C45	C	0.423841	0.512728	-0.330276
C46	C	0.549203	0.404165	-0.197318
C47	C	0.530484	0.495013	-0.217211
C48	C	0.458447	0.594719	-0.293635
C49	C	0.405122	0.603575	-0.350169
C50	C	0.621250	0.304458	-0.120895
C51	C	0.674569	0.295600	-0.064364
C52	C	0.655846	0.386450	-0.084254
C53	C	0.583809	0.486156	-0.160678
C54	C	0.709171	0.377593	-0.027720
C55	C	0.690452	0.468440	-0.047613
C56	C	0.565090	0.577003	-0.180571
C57	C	0.319272	0.949564	-0.207238
C58	C	0.244412	0.949557	-0.207228
C59	C	-0.027638	0.949598	-0.207279
C60	C	0.068324	0.835864	-0.136002
C61	C	0.146175	0.835896	-0.135747
C62	C	0.107329	0.949577	-0.207254
C63	C	0.030476	1.031470	-0.191071
C64	C	-0.046999	1.030762	-0.190576
C65	C	-0.018372	0.982392	-0.294967
C66	C	0.060993	0.979923	-0.294301
C67	C	0.183603	0.949572	-0.207241
C68	C	-0.103915	0.949609	-0.207290
C69	C	0.760419	0.949611	-0.207295
C70	C	0.835279	0.949619	-0.207304
C71	C	0.592062	0.861577	-0.385916
C72	C	0.609783	0.831707	-0.446549
C73	C	0.481189	1.234376	-0.269404
C74	C	0.461282	1.331030	-0.290493
C75	C	0.389148	1.203611	-0.941686
C76	C	0.405809	1.175518	-0.998644
C77	C	0.517368	0.987467	-0.880348
C78	C	0.500713	1.015544	-0.823379
C79	C	0.436603	1.123617	-0.854055
C80	C	0.548168	0.935550	-0.735747
C81	C	0.531518	0.963625	-0.678784
C82	C	0.467413	1.071693	-0.709451
C83	C	0.419953	1.151692	-0.797091
C84	C	0.612283	0.827477	-0.705073
C85	C	0.659738	0.747483	-0.617441
C86	C	0.643084	0.775558	-0.560476
C87	C	0.578978	0.883626	-0.591144
C88	C	0.690544	0.695559	-0.472836
C89	C	0.673894	0.723633	-0.415872
C90	C	0.562328	0.911700	-0.534180
C91	C	0.487630	1.037598	-0.028616
C92	C	0.469908	1.067468	0.032016
C93	C	0.819075	0.664823	-0.145157
C94	C	0.913843	0.568176	-0.124078
C95	C	0.546286	0.752810	0.033521
C96	C	0.548472	0.686026	0.115242
C97	C	0.766859	0.752833	0.033493
C98	C	0.843906	0.686057	0.115204
C99	C	0.312832	1.146342	-0.448026
C100	C	0.235786	1.213119	-0.529737
C101	C	0.260616	1.234353	-0.269375
C102	C	0.165848	1.330999	-0.290455
C103	C	0.533405	1.146365	-0.448054
C104	C	0.531219	1.213150	-0.529775
C105	C	0.925474	0.505596	-0.149064
C106	C	1.014513	0.414793	-0.129274
C107	C	1.091920	0.386566	-0.084492
C108	C	1.080286	0.449155	-0.059507
C109	C	0.991248	0.539961	-0.079302
C110	C	0.582372	0.671856	0.188505
C111	C	0.584418	0.609121	0.265293
C112	C	0.552570	0.560549	0.268819
C113	C	0.518665	0.574724	0.195547
C114	C	0.516613	0.637465	0.118760
C115	C	0.933362	0.637516	0.118687
C116	C	1.005761	0.574783	0.195455
C117	C	0.988703	0.560584	0.268742
C118	C	0.899236	0.609133	0.265256
C119	C	0.826838	0.671872	0.188488
C120	C	0.146327	1.261670	-0.533222
C121	C	0.073922	1.324432	-0.609996
C122	C	0.090979	1.338635	-0.683284
C123	C	0.180447	1.290080	-0.679797
C124	C	0.252848	1.227326	-0.603025
C125	C	0.154217	1.393585	-0.265476
C126	C	0.065177	1.484407	-0.285288
C127	C	-0.012230	1.512635	-0.330072
C128	C	-0.000596	1.450043	-0.355054
C129	C	0.088443	1.359228	-0.335248
C130	C	0.563075	1.261703	-0.533273
C131	C	0.561038	1.324445	-0.610050
C132	C	0.527139	1.338638	-0.683330
C133	C	0.495284	1.290076	-0.679830
C134	C	0.497327	1.227330	-0.603052
H135	H	0.573266	0.240977	-0.171732
H136	H	0.885360	0.597563	0.324937
C137	C	0.483641	0.521281	0.199441
N138	N	0.457267	0.481019	0.202377
C139	C	0.192399	0.800401	-0.047745
N140	N	0.227215	0.773664	0.018542
H141	H	0.554246	0.509464	0.331350
H142	H	-0.084726	1.586585	-0.346194
H143	H	1.047662	0.509496	0.331246
H144	H	0.055722	1.535357	-0.264938
C145	C	1.104169	0.521377	0.199273
N146	N	1.178289	0.481151	0.202146
C147	C	0.351256	1.173909	-0.599203
N148	N	0.425377	1.133676	-0.596329
H149	H	0.032170	1.061321	-0.349591
H150	H	0.862455	0.528571	-0.185538
C151	C	-0.085755	1.481098	-0.404303
N152	N	-0.149900	1.504484	-0.441389
C153	C	0.641838	0.204524	-0.099014
N154	N	0.657343	0.129255	-0.082533
H155	H	0.132422	1.250110	-0.473554
C156	C	0.630599	0.796597	-0.767737
N157	N	0.644393	0.773340	-0.814937
H158	H	1.143323	0.426159	-0.023044
H159	H	0.608306	0.711400	0.185650
H160	H	0.346437	0.684770	-0.412389
H161	H	0.471382	1.187803	-0.600215
C162	C	0.239354	1.362558	-0.216217
N163	N	0.303475	1.339198	-0.179118
C164	C	0.753812	0.185919	0.019704
N165	N	0.813496	0.103308	0.083027
H166	H	0.001080	1.363956	-0.612818
H167	H	0.032017	1.389736	-0.745791
C168	C	0.199198	1.305703	-0.760421
N169	N	0.213320	1.317464	-0.821147
H170	H	1.023968	0.363842	-0.149624
C171	C	0.730254	0.628606	-0.583708
N172	N	0.783363	0.539066	-0.558298
H173	H	1.164416	0.312622	-0.068378
H174	H	0.202375	0.773382	-0.144958
C175	C	0.485835	0.686687	-0.264642
N176	N	0.426144	0.769298	-0.327962
C177	C	0.621729	0.593530	0.345884
N178	N	0.649835	0.581786	0.406583
C179	C	0.291266	0.631270	-0.470877
N180	N	0.231575	0.713881	-0.534197
H181	H	0.443210	0.668690	-0.309832
C182	C	0.978469	0.608783	-0.051800
N183	N	0.968850	0.660616	-0.031081
H184	H	0.742749	0.607566	-0.447871
C185	C	0.726094	0.635636	-0.319473
N186	N	0.765414	0.569354	-0.246863
H187	H	0.097901	1.308272	-0.355588
C188	C	-0.054662	1.002285	-0.104303
N189	N	-0.060427	0.980831	-0.039318
H190	H	0.489012	0.648989	0.059111
C191	C	0.600375	1.246098	-0.452672
N192	N	0.628478	1.234344	-0.391964
H193	H	0.947269	0.649064	0.059021
H194	H	0.345830	0.437948	-0.412943
H195	H	0.586977	1.363981	-0.612885
H196	H	0.525480	1.389733	-0.745843
C197	C	0.458040	1.305656	-0.760438
N198	N	0.430000	1.317380	-0.821152
H199	H	0.767833	0.296401	0.034502
H200	H	0.754001	0.711386	0.185664
H201	H	0.733869	0.461225	-0.001579
C202	C	0.093397	0.750933	-0.148162
N203	N	0.112276	0.686961	-0.157321
H204	H	0.064299	0.809642	-0.071231
C205	C	-0.012247	1.145670	-0.259498
N206	N	-0.044423	1.231685	-0.311039
C207	C	-0.140207	1.144958	-0.258245
N208	N	-0.210409	1.230971	-0.309206
H209	H	0.367738	1.239696	-0.822073
C210	C	0.073041	1.004118	-0.105800
N211	N	0.105104	0.983509	-0.041571
C212	C	0.134026	0.898885	-0.310985
N213	N	0.189040	0.837844	-0.323548
H214	H	-0.086357	1.065931	-0.347974
C215	C	-0.000290	0.907184	-0.316982
N216	N	0.013335	0.850527	-0.333553
H217	H	0.453859	1.094549	-0.663065
C218	C	0.318618	1.322498	-0.975430
N219	N	0.265499	1.412039	-1.000843
H220	H	0.367160	1.240667	-1.070002
H221	H	0.510113	0.999705	-0.559161
H222	H	0.569570	0.899474	-0.855381
