data_functionalizedCrystal
_audit_creation_method	'MofGen! by Chris Wilmer'
_symmetry_space_group_name_H-M	'P1'
_symmetry_Int_Tables_number	1
_symmetry_cell_setting	triclinic
loop_
_symmetry_equiv_pos_as_xyz
  x,y,z
_cell_length_a	21.295418
_cell_length_b	19.805405
_cell_length_c	19.805407
_cell_angle_alpha	90.015038
_cell_angle_beta	90.027474
_cell_angle_gamma	90.042223
loop_
_atom_site_label
_atom_site_type_symbol
_atom_site_fract_x
_atom_site_fract_y
_atom_site_fract_z
Zn1	Zn	0.962273	-0.269289	0.383041
Zn2	Zn	1.462273	0.230711	0.883041
Zn3	Zn	0.962212	-0.382449	0.269849
Zn4	Zn	1.462212	0.117551	0.769849
Zn5	Zn	0.857026	-0.269310	0.269830
Zn6	Zn	1.357026	0.230690	0.769830
Zn7	Zn	0.856973	-0.382472	0.382960
Zn8	Zn	1.356973	0.117528	0.882960
O9	O	0.909621	-0.325880	0.326420
O10	O	1.409621	0.174120	0.826420
O11	O	1.050354	-0.284281	0.368068
O12	O	1.550354	0.215719	0.868068
O13	O	0.948256	-0.367440	0.175130
O14	O	1.448256	0.132560	0.675130
O15	O	0.871034	-0.174591	0.284873
O16	O	1.371034	0.325409	0.784873
O17	O	1.050310	-0.367419	0.284907
O18	O	1.550310	0.132581	0.784907
O19	O	0.948359	-0.174575	0.368049
O20	O	1.448359	0.325425	0.868049
O21	O	0.870976	-0.284318	0.175116
O22	O	1.370976	0.215682	0.675116
O23	O	0.768929	-0.284340	0.284794
O24	O	1.268929	0.215660	0.784794
O25	O	0.870944	-0.367459	0.477687
O26	O	1.370944	0.132541	0.977687
O27	O	0.768890	-0.367480	0.367911
O28	O	1.268890	0.132520	0.867911
O29	O	0.948307	-0.284303	0.477747
O30	O	1.448307	0.215697	0.977747
O31	O	0.948205	-0.477168	0.284828
O32	O	1.448205	0.022832	0.784828
O33	O	0.870886	-0.477186	0.367930
O34	O	1.370886	0.022814	0.867930
C35	C	0.909550	-0.501736	0.326387
C36	C	1.409550	-0.001736	0.826387
C37	C	0.909577	-0.576968	0.326396
C38	C	1.409577	-0.076968	0.826396
C39	C	0.746069	-0.325916	0.326342
C40	C	1.246069	0.174084	0.826342
C41	C	0.676101	-0.325947	0.326325
C42	C	1.176101	0.174053	0.826325
C43	C	0.949876	-0.612281	0.283170
C44	C	1.449876	-0.112281	0.783170
C45	C	0.949903	-0.682969	0.283185
C46	C	1.449903	-0.182969	0.783185
C47	C	0.909627	-0.718344	0.326423
C48	C	1.409627	-0.218344	0.826423
C49	C	0.869326	-0.683026	0.369654
C50	C	1.369326	-0.183026	0.869654
C51	C	0.869303	-0.612339	0.369641
C52	C	1.369303	-0.112339	0.869641
C53	C	0.869419	-0.968099	0.369704
C54	C	1.369419	-0.468099	0.869704
C55	C	0.869444	-1.038791	0.369711
C56	C	1.369444	-0.538791	0.869711
C57	C	0.950019	-1.038729	0.283247
C58	C	1.450019	-0.538729	0.783247
C59	C	0.949996	-0.968042	0.283235
C60	C	1.449996	-0.468042	0.783235
C61	C	0.909698	-0.932731	0.326468
C62	C	1.409698	-0.432731	0.826468
C63	C	0.909670	-0.856082	0.326452
C64	C	1.409670	-0.356082	0.826452
C65	C	0.909651	-0.794991	0.326436
C66	C	1.409651	-0.294991	0.826436
C67	C	0.643231	-0.369295	0.369539
C68	C	1.143231	0.130705	0.869539
C69	C	0.577488	-0.369278	0.369569
C70	C	1.077488	0.130722	0.869569
C71	C	0.544619	-0.325921	0.326374
C72	C	1.044619	0.174079	0.826374
C73	C	0.577497	-0.282564	0.283156
C74	C	1.077497	0.217436	0.783156
C75	C	0.643238	-0.282577	0.283132
C76	C	1.143238	0.217423	0.783132
N77	N	0.441358	-0.320618	0.267174
N78	N	0.941358	0.179382	0.767174
N79	N	0.378906	-0.320609	0.267199
N80	N	0.878906	0.179391	0.767199
C81	C	0.346544	-0.325878	0.326445
C82	C	0.846544	0.174122	0.826445
N83	N	0.378992	-0.331168	0.385667
N84	N	0.878992	0.168832	0.885667
N85	N	0.441449	-0.331180	0.385641
N86	N	0.941449	0.168820	0.885641
C87	C	0.473333	-0.325901	0.326395
C88	C	0.973333	0.174099	0.826395
C89	C	0.242388	-0.369210	0.369696
C90	C	0.742388	0.130790	0.869696
C91	C	0.176644	-0.369189	0.369728
C92	C	0.676644	0.130811	0.869728
C93	C	0.176654	-0.282478	0.283309
C94	C	0.676654	0.217522	0.783309
C95	C	0.242397	-0.282496	0.283283
C96	C	0.742397	0.217504	0.783283
C97	C	0.275260	-0.325865	0.326476
C98	C	0.775260	0.174135	0.826476
C99	C	1.073811	-0.325845	0.326499
C100	C	1.573811	0.174155	0.826499
C101	C	1.143779	-0.325830	0.326532
C102	C	1.643779	0.174170	0.826532
C103	C	0.909626	-0.325881	0.502963
C104	C	1.409626	0.174119	1.002963
C105	C	0.909629	-0.325882	0.578195
C106	C	1.409629	0.174118	1.078195
C107	C	0.909709	-0.149337	0.326468
C108	C	1.409709	0.350663	0.826468
C109	C	0.909747	-0.074105	0.326488
C110	C	1.409747	0.425895	0.826488
C111	C	0.949907	-0.282589	0.613571
C112	C	1.449907	0.217411	1.113571
C113	C	0.949901	-0.282587	0.684259
C114	C	1.449901	0.217413	1.184259
C115	C	0.909621	-0.325882	0.719570
C116	C	1.409621	0.174118	1.219570
C117	C	0.869338	-0.369176	0.684189
C118	C	1.369338	0.130824	1.184189
C119	C	0.869341	-0.369174	0.613502
C120	C	1.369341	0.130826	1.113502
C121	C	0.869326	-0.369184	0.969262
C122	C	1.369326	0.130816	1.469262
C123	C	0.869328	-0.369184	1.039955
C124	C	1.369328	0.130816	1.539955
C125	C	0.949886	-0.282597	1.040020
C126	C	1.449886	0.217403	1.540020
C127	C	0.949889	-0.282595	0.969333
C128	C	1.449889	0.217405	1.469333
C129	C	0.909605	-0.325887	0.933958
C130	C	1.409605	0.174113	1.433958
C131	C	0.909610	-0.325888	0.857309
C132	C	1.409610	0.174112	1.357309
C133	C	0.909618	-0.325885	0.796217
C134	C	1.409618	0.174115	1.296217
C135	C	0.909609	-0.325892	1.150564
C136	C	1.409609	0.174108	1.650564
C137	C	0.909603	-0.325888	1.075332
C138	C	1.409603	0.174112	1.575332
H139	H	0.982718	-0.711718	0.247986
H140	H	1.482718	-0.211718	0.747986
O141	O	0.675122	-0.411346	0.411598
O142	O	1.175122	0.088654	0.911598
C143	C	0.659105	-0.396667	0.479088
C144	C	1.159105	0.103333	0.979088
H145	H	0.641083	-0.342596	0.482609
H146	H	1.141083	0.157404	0.982609
H147	H	0.702357	-0.402560	0.512505
H148	H	1.202357	0.097440	1.012505
H149	H	0.620925	-0.432974	0.496724
H150	H	1.120925	0.067026	0.996724
H151	H	0.836533	-0.404444	0.940469
H152	H	1.336533	0.095556	1.440469
H153	H	0.836536	-0.404420	0.584700
H154	H	1.336536	0.095580	1.084700
O155	O	0.989105	-0.240609	1.074354
O156	O	1.489105	0.259391	1.574354
C157	C	1.051836	-0.255379	1.057101
C158	C	1.551836	0.244621	1.557101
H159	H	1.054987	-0.309451	1.037658
H160	H	1.554987	0.190549	1.537658
H161	H	1.082937	-0.249541	1.103606
H162	H	1.582937	0.250459	1.603606
H163	H	1.068311	-0.219089	1.016087
H164	H	1.568311	0.280911	1.516087
O165	O	0.830189	-0.578106	0.411725
O166	O	1.330189	-0.078106	0.911725
C167	C	0.843918	-0.595323	0.479206
C168	C	1.343918	-0.095323	0.979206
H169	H	0.868128	-0.646620	0.480647
H170	H	1.368128	-0.146620	0.980647
H171	H	0.798468	-0.597778	0.509499
H172	H	1.298468	-0.097778	1.009499
H173	H	0.876257	-0.555495	0.502037
H174	H	1.376257	-0.055495	1.002037
H175	H	0.836535	-0.711833	0.404861
H176	H	1.336535	-0.211833	0.904861
H177	H	0.836523	-0.404441	1.068703
H178	H	1.336523	0.095559	1.568703
O179	O	0.274399	-0.240487	0.241264
O180	O	0.774399	0.259513	0.741264
C181	C	0.312347	-0.278964	0.197453
C182	C	0.812347	0.221036	0.697453
H183	H	0.322170	-0.330296	0.221228
H184	H	0.822170	0.169704	0.721228
H185	H	0.358593	-0.251390	0.188413
H186	H	0.858593	0.248610	0.688413
H187	H	0.286965	-0.286318	0.147290
H188	H	0.786965	0.213682	0.647290
H189	H	0.550720	-0.404577	0.404762
H190	H	1.050720	0.095423	0.904762
H191	H	0.550730	-0.247261	0.247987
H192	H	1.050730	0.252739	0.747987
O193	O	0.989105	-1.073008	0.241163
O194	O	1.489105	-0.573008	0.741163
C195	C	0.975404	-1.055776	0.173680
C196	C	1.475404	-0.555776	0.673680
H197	H	0.925111	-1.036404	0.170187
H198	H	1.425111	-0.536404	0.670187
H199	H	0.980866	-1.102275	0.140262
H200	H	1.480866	-0.602275	0.640262
H201	H	1.009153	-1.014716	0.156022
H202	H	1.509153	-0.514716	0.656022
O203	O	0.830267	-0.411209	0.718593
O204	O	1.330267	0.088791	1.218593
C205	C	0.838890	-0.401918	0.788569
C206	C	1.338890	0.098082	1.288569
H207	H	0.887481	-0.379742	0.798257
H208	H	1.387481	0.120258	1.298257
H209	H	0.834592	-0.452619	0.815417
H210	H	1.334592	0.047381	1.315417
H211	H	0.801570	-0.365881	0.808619
H212	H	1.301570	0.134119	1.308619
H213	H	0.670001	-0.247276	0.247942
H214	H	1.170001	0.252724	0.747942
H215	H	0.982790	-0.939243	0.248025
H216	H	1.482790	-0.439243	0.748025
O217	O	0.989059	-0.578026	0.241145
O218	O	1.489059	-0.078026	0.741145
C219	C	1.024622	-0.624355	0.202984
C220	C	1.524622	-0.124355	0.702984
H221	H	1.026799	-0.674728	0.230721
H222	H	1.526799	-0.174728	0.730721
H223	H	1.074218	-0.603877	0.195826
H224	H	1.574218	-0.103877	0.695826
H225	H	1.001609	-0.631924	0.151550
H226	H	1.501609	-0.131924	0.651550
H227	H	0.836647	-1.067591	0.404926
H228	H	1.336647	-0.567591	0.904926
H229	H	0.149893	-0.247172	0.248141
H230	H	0.649893	0.252828	0.748141
H231	H	0.269146	-0.404521	0.404870
H232	H	0.769146	0.095479	0.904870
O233	O	0.988969	-0.240435	0.579304
O234	O	1.488969	0.259565	1.079304
C235	C	0.975253	-0.172981	0.596605
C236	C	1.475253	0.327019	1.096605
H237	H	0.924964	-0.169577	0.616007
H238	H	1.424964	0.330423	1.116007
H239	H	0.980694	-0.139537	0.550132
H240	H	1.480694	0.360463	1.050132
H241	H	1.009007	-0.155283	0.637662
H242	H	1.509007	0.344717	1.137662
O243	O	0.830206	-0.933908	0.411710
O244	O	1.330206	-0.433908	0.911710
C245	C	0.794671	-0.980291	0.449879
C246	C	1.294671	-0.480291	0.949879
H247	H	0.792537	-1.030694	0.422161
H248	H	1.292537	-0.530694	0.922161
H249	H	0.745058	-0.959928	0.457019
H250	H	1.245058	-0.459928	0.957019
H251	H	0.817680	-0.987758	0.501322
H252	H	1.317680	-0.487758	1.001322
H253	H	0.982701	-0.247336	0.713060
H254	H	1.482701	0.252664	1.213060
H255	H	0.149882	-0.404486	0.404922
H256	H	0.649882	0.095514	0.904922
O257	O	0.988950	-0.240437	0.935068
O258	O	1.488950	0.259563	1.435068
C259	C	0.975229	-0.172986	0.952372
C260	C	1.475229	0.327014	1.452372
H261	H	0.924941	-0.169587	0.971775
H262	H	1.424941	0.330413	1.471775
H263	H	0.980669	-0.139538	0.905902
H264	H	1.480669	0.360462	1.405902
H265	H	1.008983	-0.155288	0.993430
H266	H	1.508983	0.344712	1.493430
