data_functionalizedCrystal
_audit_creation_method	'MofGen! by Chris Wilmer'
_symmetry_space_group_name_H-M	'P1'
_symmetry_Int_Tables_number	1
_symmetry_cell_setting	triclinic
loop_
_symmetry_equiv_pos_as_xyz
  x,y,z
_cell_length_a	12.759401
_cell_length_b	18.101389
_cell_length_c	12.759400
_cell_angle_alpha	89.981094
_cell_angle_beta	89.987402
_cell_angle_gamma	90.014686
loop_
_atom_site_label
_atom_site_type_symbol
_atom_site_fract_x
_atom_site_fract_y
_atom_site_fract_z
Zn1	Zn	-1.606207	-0.418705	-0.418394
Zn2	Zn	-1.106207	0.081295	0.081606
Zn3	Zn	-1.606116	-0.294871	-0.594074
Zn4	Zn	-1.106116	0.205129	-0.094074
Zn5	Zn	-1.430524	-0.294882	-0.418403
Zn6	Zn	-0.930524	0.205118	0.081597
Zn7	Zn	-1.430498	-0.418676	-0.594025
Zn8	Zn	-0.930498	0.081324	-0.094025
O9	O	-1.518336	-0.356783	-0.506224
O10	O	-1.018336	0.143217	-0.006224
O11	O	-1.753216	-0.402285	-0.441715
O12	O	-1.253216	0.097715	0.058285
O13	O	-1.582796	-0.191239	-0.570795
O14	O	-1.082796	0.308761	-0.070795
O15	O	-1.453877	-0.311325	-0.271381
O16	O	-0.953877	0.188675	0.228619
O17	O	-1.753149	-0.311305	-0.570786
O18	O	-1.253149	0.188695	-0.070786
O19	O	-1.582951	-0.402296	-0.271374
O20	O	-1.082951	0.097704	0.228626
O21	O	-1.453789	-0.191248	-0.441731
O22	O	-0.953789	0.308752	0.058269
O23	O	-1.283499	-0.311297	-0.441683
O24	O	-0.783499	0.188703	0.058317
O25	O	-1.453834	-0.522313	-0.570703
O26	O	-0.953834	-0.022313	-0.070703
O27	O	-1.283480	-0.402247	-0.570712
O28	O	-0.783480	0.097753	-0.070712
O29	O	-1.582927	-0.522334	-0.441668
O30	O	-1.082927	-0.022334	0.058332
O31	O	-1.582771	-0.311277	-0.741089
O32	O	-1.082771	0.188723	-0.241089
O33	O	-1.453745	-0.402236	-0.741053
O34	O	-0.953745	0.097764	-0.241053
C35	C	-1.245369	-0.356771	-0.506194
C36	C	-0.745369	0.143229	-0.006194
C37	C	-1.128592	-0.356783	-0.506207
C38	C	-0.628592	0.143217	-0.006207
C39	C	-1.073748	-0.404062	-0.573497
C40	C	-0.573748	0.095938	-0.073497
C41	C	-0.964024	-0.404069	-0.573506
C42	C	-0.464024	0.095931	-0.073506
C43	C	-0.963998	-0.309511	-0.438931
C44	C	-0.463998	0.190489	0.061069
C45	C	-1.073720	-0.309508	-0.438918
C46	C	-0.573720	0.190492	0.061082
C47	C	-1.128620	-0.451336	-0.640786
C48	C	-0.628620	0.048664	-0.140786
C49	C	-1.073776	-0.498618	-0.708083
C50	C	-0.573776	0.001382	-0.208083
C51	C	-0.964052	-0.498625	-0.708092
C52	C	-0.464052	0.001375	-0.208092
C53	C	-0.909172	-0.451350	-0.640804
C54	C	-0.409172	0.048650	-0.140804
C55	C	-1.518388	-0.549945	-0.506179
C56	C	-1.018388	-0.049945	-0.006179
C57	C	-1.518410	-0.632259	-0.506159
C58	C	-1.018410	-0.132259	-0.006159
C59	C	-1.518274	-0.356768	-0.779192
C60	C	-1.018274	0.143232	-0.279192
C61	C	-1.518343	-0.356786	-0.895968
C62	C	-1.018343	0.143214	-0.395968
C63	C	-0.792370	-0.356794	-0.506245
C64	C	-0.292370	0.143206	-0.006245
C65	C	-0.909146	-0.356792	-0.506229
C66	C	-0.409146	0.143208	-0.006229
C67	C	-1.518449	-0.782968	-0.506078
C68	C	-1.018449	-0.282968	-0.006078
C69	C	-1.437240	-0.814308	-0.587247
C70	C	-0.937240	-0.314308	-0.087247
C71	C	-1.436945	-0.899927	-0.586962
C72	C	-0.936945	-0.399927	-0.086962
C73	C	-1.518488	-0.931351	-0.505999
C74	C	-1.018488	-0.431351	-0.005999
C75	C	-1.488824	-0.900265	-0.395207
C76	C	-0.988824	-0.400265	0.104793
C77	C	-1.488212	-0.814619	-0.395722
C78	C	-0.988212	-0.314619	0.104278
C79	C	-1.629534	-0.814534	-0.534715
C80	C	-1.129534	-0.314534	-0.034715
C81	C	-1.628961	-0.900184	-0.537112
C82	C	-1.128961	-0.400184	-0.037112
C83	C	-1.518511	-1.015210	-0.505948
C84	C	-1.018511	-0.515210	-0.005948
C85	C	-1.518423	-0.699108	-0.506121
C86	C	-1.018423	-0.199108	-0.006121
C87	C	-1.518346	-0.164373	-0.506194
C88	C	-1.018346	0.335627	-0.006194
C89	C	-1.518527	-0.082059	-0.505917
C90	C	-1.018527	0.417941	-0.005917
C91	C	-1.585602	-0.309476	-0.950814
C92	C	-1.085602	0.190524	-0.450814
C93	C	-1.585666	-0.309499	-1.060538
C94	C	-1.085666	0.190501	-0.560538
C95	C	-1.451205	-0.404144	-1.060561
C96	C	-0.951205	0.095856	-0.560561
C97	C	-1.451147	-0.404124	-0.950839
C98	C	-0.951147	0.095876	-0.450839
C99	C	-1.652798	-0.262138	-0.895944
C100	C	-1.152798	0.237862	-0.395944
C101	C	-1.720061	-0.214823	-0.950790
C102	C	-1.220061	0.285177	-0.450790
C103	C	-1.720126	-0.214846	-1.060514
C104	C	-1.220126	0.285154	-0.560514
C105	C	-1.652927	-0.262184	-1.115392
C106	C	-1.152927	0.237816	-0.615392
C107	C	-1.518427	-0.356815	-0.232191
C108	C	-1.018427	0.143185	0.267809
C109	C	-1.518466	-0.356829	-0.115414
C110	C	-1.018466	0.143171	0.384586
H111	H	-1.118375	-0.271015	-0.384116
H112	H	-0.618375	0.228985	0.115884
O113	O	-1.380671	-0.788158	-0.363624
O114	O	-0.880671	-0.288158	0.136376
H115	H	-1.346316	-0.754522	-0.427763
H116	H	-0.846316	-0.254522	0.072237
O117	O	-0.904799	-0.258509	-0.366391
O118	O	-0.404799	0.241491	0.133609
H119	H	-0.854809	-0.291712	-0.313017
H120	H	-0.354809	0.208288	0.186983
O121	O	-1.652991	-0.262210	-1.233738
O122	O	-1.152991	0.237790	-0.733738
H123	H	-1.711046	-0.221357	-1.262660
H124	H	-1.211046	0.278643	-0.762660
O125	O	-1.132956	-0.549613	-0.780649
O126	O	-0.632956	-0.049613	-0.280649
H127	H	-1.111924	-0.607755	-0.762732
H128	H	-0.611924	-0.107755	-0.262732
O129	O	-1.792668	-0.163818	-1.119675
O130	O	-1.292668	0.336182	-0.619675
H131	H	-1.839374	-0.130896	-1.063083
H132	H	-1.339374	0.369104	-0.563083
O133	O	-1.652731	-0.262118	-0.777599
O134	O	-1.152731	0.237882	-0.277599
H135	H	-1.710760	-0.221259	-0.748656
H136	H	-1.210760	0.278741	-0.248656
H137	H	-1.355397	-0.792786	-0.568495
H138	H	-0.855397	-0.292786	-0.068495
H139	H	-1.455465	-0.920945	-0.669105
H140	H	-0.955465	-0.420945	-0.169105
H141	H	-1.408539	-0.921715	-0.370537
H142	H	-0.908539	-0.421715	0.129463
H143	H	-1.396495	-0.442683	-1.105251
H144	H	-0.896495	0.057317	-0.605251
O145	O	-0.904836	-0.549588	-0.780667
O146	O	-0.404836	-0.049588	-0.280667
H147	H	-0.854831	-0.516335	-0.834009
H148	H	-0.354831	-0.016335	-0.334009
H149	H	-1.455531	-0.793715	-0.669669
H150	H	-0.955531	-0.293715	-0.169669
O151	O	-1.792557	-0.163781	-0.891610
O152	O	-1.292557	0.336219	-0.391610
H153	H	-1.781214	-0.171711	-0.806098
H154	H	-1.281214	0.328289	-0.306098
O155	O	-1.709684	-0.787677	-0.456423
O156	O	-1.209684	-0.287677	0.043577
H157	H	-1.687468	-0.806734	-0.376779
H158	H	-1.187468	-0.306734	0.123221
H159	H	-1.396380	-0.442649	-0.906183
H160	H	-0.896380	0.057351	-0.406183
H161	H	-1.544809	-0.793887	-0.333160
H162	H	-1.044809	-0.293887	0.166840
H163	H	-1.217963	-0.451334	-0.640788
H164	H	-0.717963	0.048666	-0.140788
O165	O	-0.790826	-0.451346	-0.640820
O166	O	-0.290826	0.048654	-0.140820
H167	H	-0.761905	-0.492160	-0.698924
H168	H	-0.261905	0.007840	-0.198924
H169	H	-1.354644	-0.920416	-0.567957
H170	H	-0.854644	-0.420416	-0.067957
O171	O	-1.564779	-0.927219	-0.312866
O172	O	-1.064779	-0.427219	0.187134
H173	H	-1.624616	-0.963148	-0.350123
H174	H	-1.124616	-0.463148	0.149877
H175	H	-1.651334	-0.920499	-0.618651
H176	H	-1.151334	-0.420499	-0.118651
O177	O	-1.665384	-0.785935	-0.639950
O178	O	-1.165384	-0.285935	-0.139950
H179	H	-1.604418	-0.748899	-0.673018
H180	H	-1.104418	-0.248899	-0.173018
O181	O	-1.713370	-0.928503	-0.464505
O182	O	-1.213370	-0.428503	0.035495
H183	H	-1.716149	-0.989722	-0.468578
H184	H	-1.216149	-0.489722	0.031422
