data_functionalizedCrystal
_audit_creation_method	'MofGen! by Chris Wilmer'
_symmetry_space_group_name_H-M	'P1'
_symmetry_Int_Tables_number	1
_symmetry_cell_setting	triclinic
loop_
_symmetry_equiv_pos_as_xyz
  x,y,z
_cell_length_a	10.723023
_cell_length_b	10.723024
_cell_length_c	7.540329
_cell_angle_alpha	89.997572
_cell_angle_beta	89.997501
_cell_angle_gamma	84.467709
loop_
_atom_site_label
_atom_site_type_symbol
_atom_site_fract_x
_atom_site_fract_y
_atom_site_fract_z
O1	O	1.657186	0.175021	-0.147459
O2	O	2.157186	0.675021	0.352541
O3	O	1.294034	0.191775	-0.147466
O4	O	1.794034	0.691775	0.352534
O5	O	1.483987	0.001822	-0.147456
O6	O	1.983987	0.501822	0.352544
O7	O	1.467234	0.364974	-0.147470
O8	O	1.967234	0.864974	0.352530
O9	O	1.483975	0.001819	0.147509
O10	O	1.983975	0.501819	0.647509
O11	O	1.294023	0.191773	0.147499
O12	O	1.794023	0.691773	0.647499
O13	O	1.657175	0.175018	0.147506
O14	O	2.157175	0.675018	0.647506
Cu15	Cu	1.475598	0.183395	0.174435
Cu16	Cu	1.975598	0.683395	0.674435
Cu17	Cu	1.475611	0.183398	-0.174396
Cu18	Cu	1.975611	0.683398	0.325604
O19	O	1.467222	0.364972	0.147495
O20	O	1.967222	0.864972	0.647495
C21	C	1.247529	0.190555	0.000015
C22	C	1.747529	0.690555	0.500015
C23	C	1.108974	0.186908	0.000012
C24	C	1.608974	0.686908	0.500012
C25	C	0.904013	0.181513	-0.152788
C26	C	1.404013	0.681513	0.347212
C27	C	1.047216	0.185283	-0.152789
C28	C	1.547216	0.685283	0.347211
C29	C	1.482762	-0.044679	0.000024
C30	C	1.982762	0.455321	0.500024
C31	C	1.479114	-0.183233	0.000018
C32	C	1.979114	0.316767	0.500018
C33	C	1.585402	-0.258216	0.000017
C34	C	2.085402	0.241784	0.500017
C35	C	1.581634	-0.401420	0.000011
C36	C	2.081634	0.098580	0.500011
C37	C	1.703680	0.176239	0.000020
C38	C	2.203680	0.676239	0.500020
C39	C	1.842235	0.179886	0.000011
C40	C	2.342235	0.679886	0.500011
C41	C	1.468447	0.411473	0.000011
C42	C	1.968447	0.911473	0.500011
C43	C	1.472095	0.550027	0.000006
C44	C	1.972095	1.050027	0.500006
N45	N	1.475597	0.183393	0.419783
N46	N	1.975597	0.683393	0.919783
N47	N	1.475621	0.183391	-0.419744
N48	N	1.975621	0.683391	0.080256
H49	H	1.055854	0.185515	0.130836
H50	H	1.555854	0.685515	0.630836
H51	H	1.672625	-0.465852	0.000018
H52	H	2.172625	0.034148	0.500018
H53	H	0.895362	0.181278	0.130828
H54	H	1.395362	0.681278	0.630828
H55	H	0.850887	0.180108	-0.283605
H56	H	1.350887	0.680108	0.216395
H57	H	1.679188	-0.216394	0.000030
H58	H	2.179188	0.283606	0.500030
H59	H	1.381099	-0.385548	0.000018
H60	H	1.881099	0.114452	0.500018
H61	H	1.385328	-0.225055	0.000004
H62	H	1.885328	0.274945	0.500004
H63	H	1.100342	0.186690	-0.283606
H64	H	1.600342	0.686690	0.216394
