data_functionalizedCrystal
_audit_creation_method	'MofGen! by Chris Wilmer'
_symmetry_space_group_name_H-M	'P1'
_symmetry_Int_Tables_number	1
_symmetry_cell_setting	triclinic
loop_
_symmetry_equiv_pos_as_xyz
  x,y,z
_cell_length_a	10.723022
_cell_length_b	10.723023
_cell_length_c	16.776229
_cell_angle_alpha	89.994384
_cell_angle_beta	89.993181
_cell_angle_gamma	84.467387
loop_
_atom_site_label
_atom_site_type_symbol
_atom_site_fract_x
_atom_site_fract_y
_atom_site_fract_z
O1	O	1.657194	0.175021	-0.066281
O2	O	2.157194	0.675021	0.433719
O3	O	1.294041	0.191776	-0.066284
O4	O	1.794041	0.691776	0.433716
O5	O	1.483994	0.001822	-0.066279
O6	O	1.983994	0.501822	0.433721
O7	O	1.467240	0.364975	-0.066286
O8	O	1.967240	0.864975	0.433714
O9	O	1.483969	0.001810	0.066297
O10	O	1.983969	0.501810	0.566297
O11	O	1.294015	0.191764	0.066293
O12	O	1.794015	0.691764	0.566293
O13	O	1.657168	0.175009	0.066295
O14	O	2.157168	0.675009	0.566295
Zn15	Zn	1.475588	0.183385	0.087343
Zn16	Zn	1.975588	0.683385	0.587343
Zn17	Zn	1.475621	0.183401	-0.087332
Zn18	Zn	1.975621	0.683401	0.412668
O19	O	1.467215	0.364963	0.066291
O20	O	1.967215	0.864963	0.566291
C21	C	1.247529	0.190551	0.000004
C22	C	1.747529	0.690551	0.500004
C23	C	1.108974	0.186904	0.000003
C24	C	1.608974	0.686904	0.500003
C25	C	1.482763	-0.044683	0.000008
C26	C	1.982763	0.455317	0.500008
C27	C	1.479115	-0.183238	0.000006
C28	C	1.979115	0.316762	0.500006
C29	C	0.890796	0.289421	-0.000000
C30	C	1.390796	0.789421	0.500000
C31	C	1.033998	0.293192	0.000001
C32	C	1.533998	0.793192	0.500001
C33	C	1.473706	-0.388218	0.068679
C34	C	1.973706	0.111782	0.568679
C35	C	1.477476	-0.245015	0.068683
C36	C	1.977476	0.254985	0.568683
C37	C	1.703681	0.176234	0.000006
C38	C	2.203681	0.676234	0.500006
C39	C	1.842235	0.179881	0.000001
C40	C	2.342235	0.679881	0.500001
C41	C	1.468446	0.411469	0.000002
C42	C	1.968446	0.911469	0.500002
C43	C	1.472094	0.550023	-0.000001
C44	C	1.972094	1.050023	0.499999
N45	N	1.475574	0.183373	0.206555
N46	N	1.975574	0.683373	0.706555
N47	N	1.475645	0.183402	-0.206543
N48	N	1.975645	0.683402	0.293457
C49	C	1.559711	0.099297	0.248274
C50	C	2.059711	0.599297	0.748274
C51	C	1.559718	0.099296	0.331726
C52	C	2.059718	0.599296	0.831726
C53	C	1.475593	0.183378	0.373458
C54	C	1.975593	0.683378	0.873458
C55	C	1.391446	0.267459	0.331733
C56	C	1.891446	0.767459	0.831733
C57	C	1.391434	0.267453	0.248282
C58	C	1.891434	0.767453	0.748282
C59	C	1.391491	0.267484	0.668280
C60	C	1.891491	0.767484	1.168280
C61	C	1.391512	0.267486	0.751736
C62	C	1.891512	0.767486	1.251736
C63	C	1.559776	0.099327	0.751724
C64	C	2.059776	0.599327	1.251724
C65	C	1.559764	0.099321	0.668273
C66	C	2.059764	0.599321	1.168273
C67	C	1.475613	0.183396	0.626556
C68	C	1.975613	0.683396	1.126556
C69	C	1.475605	0.183395	0.536067
C70	C	1.975605	0.683395	1.036067
C71	C	1.475606	0.183387	0.463944
C72	C	1.975606	0.683387	0.963944
H73	H	1.075810	0.386980	0.000004
H74	H	1.575810	0.886980	0.500004
H75	H	1.477735	-0.236342	-0.058797
H76	H	1.977735	0.263658	0.441203
H77	H	1.473494	-0.396833	-0.058797
H78	H	1.973494	0.103167	0.441203
H79	H	1.067171	0.093113	-0.000016
H80	H	1.567171	0.593113	0.499984
H81	H	0.826353	0.380409	-0.000007
H82	H	1.326353	0.880409	0.499993
C83	C	1.652332	0.006829	0.797612
C84	C	2.152332	0.506829	1.297612
H85	H	1.702439	-0.043237	0.760805
H86	H	2.202439	0.456763	1.260805
H87	H	1.607010	-0.045532	0.830176
H88	H	2.107010	0.454468	1.330176
H89	H	1.704667	0.052204	0.830155
H90	H	2.204667	0.552204	1.330155
H91	H	1.628229	0.030833	0.365693
H92	H	2.128229	0.530833	0.865693
H93	H	0.906677	0.088892	-0.000002
H94	H	1.406677	0.588892	0.499998
H95	H	1.628221	0.030832	0.214301
H96	H	2.128221	0.530832	0.714301
C97	C	1.298965	0.359992	0.622397
C98	C	1.798965	0.859992	1.122397
H99	H	1.310999	0.347951	0.566720
H100	H	1.810999	0.847951	1.066720
H101	H	1.313252	0.443394	0.636073
H102	H	1.813252	0.943394	1.136073
H103	H	1.215558	0.345695	0.636081
H104	H	1.715558	0.845695	1.136081
C105	C	1.471806	-0.459997	0.148110
C106	C	1.971806	0.040003	0.648110
H107	H	1.469532	-0.546831	0.137687
H108	H	1.969532	-0.046831	0.637687
H109	H	1.399719	-0.429835	0.177826
H110	H	1.899719	0.070165	0.677826
H111	H	1.545017	-0.447623	0.177819
H112	H	2.045017	0.052377	0.677819
H113	H	1.478870	-0.191904	0.127482
H114	H	1.978870	0.308096	0.627482
H115	H	1.323003	0.335958	0.785713
H116	H	1.823003	0.835958	1.285713
H117	H	1.628271	0.030857	0.634298
H118	H	2.128271	0.530857	1.134298
H119	H	1.322919	0.335915	0.214315
H120	H	1.822919	0.835915	0.714315
C121	C	1.298912	0.359950	0.377635
C122	C	1.798912	0.859950	0.877635
H123	H	1.310977	0.347923	0.433311
H124	H	1.810977	0.847923	0.933311
H125	H	1.215512	0.345638	0.363974
H126	H	1.715512	0.845638	0.863974
H127	H	1.313180	0.443363	0.363946
H128	H	1.813180	0.943363	0.863946
