data_functionalizedCrystal
_audit_creation_method	'MofGen! by Chris Wilmer'
_symmetry_space_group_name_H-M	'P1'
_symmetry_Int_Tables_number	1
_symmetry_cell_setting	triclinic
loop_
_symmetry_equiv_pos_as_xyz
  x,y,z
_cell_length_a	23.532361
_cell_length_b	23.532357
_cell_length_c	14.472310
_cell_angle_alpha	89.993352
_cell_angle_beta	89.991282
_cell_angle_gamma	82.828980
loop_
_atom_site_label
_atom_site_type_symbol
_atom_site_fract_x
_atom_site_fract_y
_atom_site_fract_z
O1	O	0.755272	0.069006	-0.076759
O2	O	0.589403	0.079037	-0.076783
O3	O	0.677354	-0.008913	-0.076751
O4	O	0.667321	0.156956	-0.076791
O5	O	0.677331	-0.008907	0.076931
O6	O	0.589380	0.079043	0.076899
O7	O	0.755249	0.069011	0.076923
Cu8	Cu	0.672313	0.074028	0.090943
Cu9	Cu	0.672339	0.074021	-0.090804
O10	O	0.667298	0.156962	0.076891
C11	C	0.568175	0.078789	0.000055
C12	C	0.504957	0.078034	0.000047
C13	C	0.231726	0.074727	-0.083719
C14	C	0.291126	0.075442	-0.083721
O15	O	0.321862	0.075790	-0.154965
N16	N	0.320819	0.075806	0.000051
C17	C	0.291110	0.075449	0.083831
O18	O	0.321821	0.075824	0.155086
C19	C	0.231712	0.074730	0.083833
C20	C	0.202021	0.074372	0.000055
C21	C	0.202035	0.074368	-0.167490
C22	C	0.142639	0.073655	-0.167487
C23	C	0.112935	0.073300	-0.083713
C24	C	0.142626	0.073658	0.000058
C25	C	0.202005	0.074369	0.167612
C26	C	0.142603	0.073650	0.167606
C27	C	0.112912	0.073292	0.083829
C28	C	0.053525	0.072589	0.083834
N29	N	0.023832	0.072225	0.000062
C30	C	0.053537	0.072581	-0.083712
C31	C	0.415850	0.076958	0.083822
C32	C	0.475247	0.077681	0.083821
C33	C	0.475258	0.077673	-0.083732
C34	C	0.415860	0.076954	-0.083730
C35	C	0.386157	0.076594	0.000050
C36	C	-0.071199	0.071082	-0.083700
C37	C	-0.130600	0.070370	-0.083689
C38	C	-0.130606	0.070376	0.083863
C39	C	-0.071210	0.071090	0.083853
C40	C	-0.041508	0.071441	0.000065
O41	O	0.022752	0.072239	0.155041
O42	O	0.022820	0.072198	-0.154954
C43	C	0.677092	-0.030127	0.000092
C44	C	0.676337	-0.093345	0.000101
C45	C	0.671613	-0.485358	-0.083722
C46	C	0.670895	-0.544758	-0.083727
O47	O	0.670516	-0.575476	-0.154972
N48	N	0.670527	-0.574466	0.000044
C49	C	0.670871	-0.544771	0.083826
O50	O	0.670492	-0.575495	0.155079
C51	C	0.671584	-0.485372	0.083830
C52	C	0.671958	-0.455668	0.000054
C53	C	0.671986	-0.455654	-0.167491
C54	C	0.672704	-0.396259	-0.167485
C55	C	0.673049	-0.366568	-0.083710
C56	C	0.672676	-0.396273	0.000059
C57	C	0.671924	-0.455678	0.167611
C58	C	0.672636	-0.396275	0.167608
C59	C	0.673010	-0.366571	0.083832
C60	C	0.673740	-0.307187	0.083840
N61	N	0.674108	-0.277479	0.000069
C62	C	0.673762	-0.307169	-0.083706
C63	C	0.669372	-0.669512	0.083810
C64	C	0.668663	-0.728911	0.083806
C65	C	0.668687	-0.728893	-0.083746
C66	C	0.669400	-0.669494	-0.083742
C67	C	0.669740	-0.639804	0.000039
C68	C	0.675271	-0.182436	-0.083687
C69	C	0.675992	-0.123036	-0.083674
C70	C	0.675966	-0.123058	0.083878
C71	C	0.675248	-0.182453	0.083865
C72	C	0.674899	-0.212140	0.000075
O73	O	0.674118	-0.276431	0.155049
O74	O	0.674134	-0.276438	-0.154947
C75	C	0.776477	0.069260	0.000082
C76	C	0.839695	0.070015	0.000085
C77	C	0.667560	0.178176	0.000045
C78	C	0.668315	0.241394	0.000031
N79	N	0.672298	0.074031	0.218774
N80	N	0.672359	0.074013	-0.218634
C81	C	0.672339	0.074019	0.592865
C82	C	0.625122	0.120923	0.553683
C83	C	0.625229	0.121093	0.446594
C84	C	0.672318	0.074025	0.407274
C85	C	0.731668	0.086659	0.446116
C86	C	0.731402	0.086992	0.553238
C87	C	0.660737	0.014340	0.553407
C88	C	0.659372	0.014746	0.446279
C89	C	0.672310	0.074028	0.302386
C90	C	0.672350	0.074018	0.697753
H91	H	0.499454	0.077962	-0.151945
O92	O	0.671728	-0.484563	-0.248819
C93	C	0.720658	-0.525649	-0.253842
H94	H	0.736983	-0.536809	-0.181105
H95	H	0.709071	-0.565896	-0.289320
H96	H	0.755484	-0.507466	-0.295162
H97	H	0.742199	0.129673	0.419270
H98	H	0.632390	0.164968	0.580583
H99	H	0.676249	-0.098874	0.152086
H100	H	0.674984	-0.206599	-0.151917
H101	H	0.632602	0.165387	0.420951
O102	O	0.113749	0.073223	-0.248809
C103	C	0.086149	0.023468	-0.253820
H104	H	0.079486	0.006920	-0.181079
H105	H	0.042869	0.034054	-0.289289
H106	H	0.113771	-0.010803	-0.295144
H107	H	0.118422	0.073362	0.235832
O108	O	0.673044	-0.367386	0.248940
C109	C	0.722796	-0.339783	0.253991
H110	H	0.739365	-0.333119	0.181263
H111	H	0.712197	-0.296503	0.289458
H112	H	0.757056	-0.367403	0.295335
O113	O	0.230793	0.074740	-0.248957
C114	C	0.191840	0.074253	-0.322883
H115	H	0.147034	0.091771	-0.298308
H116	H	0.205216	0.102117	-0.381484
H117	H	0.191772	0.028480	-0.348634
O118	O	0.610267	-0.000347	0.585608
C119	C	0.601170	-0.053977	0.548935
H120	H	0.643997	-0.078667	0.527919
H121	H	0.580031	-0.079350	0.603418
H122	H	0.572125	-0.047281	0.485816
H123	H	0.615715	0.005151	0.420893
O124	O	0.697829	-0.028746	0.414310
C125	C	0.737453	-0.006425	0.355653
H126	H	0.738983	0.040638	0.372812
H127	H	0.781729	-0.031346	0.366046
H128	H	0.723690	-0.010519	0.280670
O129	O	0.673034	-0.367492	-0.248949
C130	C	0.672588	-0.406446	-0.322882
H131	H	0.654044	-0.446324	-0.298314
H132	H	0.645145	-0.385507	-0.381478
H133	H	0.718212	-0.419007	-0.348639
H134	H	0.674949	-0.206641	0.152083
H135	H	0.671620	-0.479853	0.235830
H136	H	0.391669	0.076673	0.152050
O137	O	0.230754	0.074688	0.249078
C138	C	0.191785	0.074231	0.323007
H139	H	0.151913	0.055689	0.298435
H140	H	0.212714	0.046781	0.381605
H141	H	0.179218	0.119851	0.348761
O142	O	0.669733	-0.640766	0.165284
C143	C	0.669240	-0.679728	0.239212
H144	H	0.686769	-0.724529	0.214641
H145	H	0.697092	-0.666354	0.297813
H146	H	0.623463	-0.679806	0.264961
O147	O	0.669732	-0.640726	-0.165204
C148	C	0.669292	-0.679678	-0.239141
H149	H	0.650748	-0.719557	-0.214579
H150	H	0.641851	-0.658738	-0.297739
H151	H	0.714917	-0.692237	-0.264891
H152	H	0.767629	0.053390	0.420645
H153	H	0.581102	0.113617	0.420334
H154	H	0.695174	-0.020561	0.578746
H155	H	-0.154772	0.070080	-0.151914
O156	O	0.572350	0.112098	0.584564
C157	C	0.577325	0.063348	0.642037
H158	H	0.622635	0.055345	0.671128
H159	H	0.545343	0.070743	0.701306
H160	H	0.568022	0.024534	0.600152
H161	H	-0.047036	0.071393	0.152072
H162	H	-0.047022	0.071369	-0.151928
H163	H	0.767616	0.054157	0.579156
O164	O	0.668400	-0.757805	0.165160
C165	C	0.717304	-0.798922	0.170182
H166	H	0.752015	-0.785736	0.122659
H167	H	0.733836	-0.801866	0.244284
H168	H	0.705608	-0.842411	0.147668
H169	H	0.391689	0.076663	-0.151949
O170	O	0.743760	0.138857	0.583072
C171	C	0.793906	0.131327	0.637300
H172	H	0.820310	0.088957	0.618500
H173	H	0.820181	0.168015	0.623705
H174	H	0.781779	0.130919	0.713545
O175	O	0.504000	0.078009	0.165286
C176	C	0.465035	0.077558	0.239220
H177	H	0.425161	0.059015	0.214659
H178	H	0.485966	0.050113	0.297822
H179	H	0.452469	0.123181	0.264966
O180	O	0.668245	-0.757751	-0.165106
C181	C	0.618506	-0.785377	-0.170108
H182	H	0.584237	-0.762764	-0.122573
H183	H	0.601947	-0.783787	-0.244204
H184	H	0.629113	-0.831919	-0.147596
H185	H	0.676298	-0.098853	-0.151898
H186	H	-0.154802	0.070089	0.152070
