data_functionalizedCrystal
_audit_creation_method	'MofGen! by Chris Wilmer'
_symmetry_space_group_name_H-M	'P1'
_symmetry_Int_Tables_number	1
_symmetry_cell_setting	triclinic
loop_
_symmetry_equiv_pos_as_xyz
  x,y,z
_cell_length_a	9.065215
_cell_length_b	9.065218
_cell_length_c	8.140239
_cell_angle_alpha	90.003526
_cell_angle_beta	89.999640
_cell_angle_gamma	85.015325
loop_
_atom_site_label
_atom_site_type_symbol
_atom_site_fract_x
_atom_site_fract_y
_atom_site_fract_z
O1	O	-1.960395	-0.216340	-0.136579
O2	O	-1.460395	0.283660	0.363421
O3	O	-1.531110	-0.234090	-0.136588
O4	O	-1.031110	0.265910	0.363412
O5	O	-1.754625	-0.010573	-0.136580
O6	O	-1.254625	0.489427	0.363420
O7	O	-1.736879	-0.439858	-0.136587
O8	O	-1.236879	0.060142	0.363413
O9	O	-1.754624	-0.010561	0.136647
O10	O	-1.254624	0.489439	0.636647
O11	O	-1.531108	-0.234079	0.136639
O12	O	-1.031108	0.265921	0.636639
O13	O	-1.960393	-0.216328	0.136648
O14	O	-1.460393	0.283672	0.636648
Zn15	Zn	-1.745750	-0.225202	0.180024
Zn16	Zn	-1.245750	0.274798	0.680024
Zn17	Zn	-1.745752	-0.225217	-0.179964
Zn18	Zn	-1.245752	0.274783	0.320036
O19	O	-1.736877	-0.439846	0.136640
O20	O	-1.236877	0.060154	0.636640
C21	C	-1.476122	-0.232380	0.000025
C22	C	-0.976122	0.267620	0.500025
C23	C	-1.312279	-0.227282	0.000021
C24	C	-0.812279	0.272718	0.500021
N25	N	-1.745755	-0.225216	-0.425647
N26	N	-1.245755	0.274784	0.074353
C27	C	-1.752919	0.044420	0.000031
C28	C	-1.252919	0.544420	0.500031
C29	C	-1.747819	0.208263	0.000023
C30	C	-1.247819	0.708263	0.500023
C31	C	-1.015381	-0.218039	0.000031
C32	C	-0.515381	0.281961	0.500031
C33	C	-1.179224	-0.223136	0.000021
C34	C	-0.679224	0.276864	0.500021
C35	C	-1.738584	-0.494838	0.000026
C36	C	-1.238584	0.005162	0.500026
C37	C	-1.743683	-0.658681	0.000023
C38	C	-1.243683	-0.158681	0.500023
N39	N	-1.745759	-0.225191	0.425707
N40	N	-1.245759	0.274809	0.925707
