data_functionalizedCrystal
_audit_creation_method	'MofGen! by Chris Wilmer'
_symmetry_space_group_name_H-M	'P1'
_symmetry_Int_Tables_number	1
_symmetry_cell_setting	triclinic
loop_
_symmetry_equiv_pos_as_xyz
  x,y,z
_cell_length_a	11.792241
_cell_length_b	11.026607
_cell_length_c	10.268362
_cell_angle_alpha	89.999104
_cell_angle_beta	90.000426
_cell_angle_gamma	96.389716
loop_
_atom_site_label
_atom_site_type_symbol
_atom_site_fract_x
_atom_site_fract_y
_atom_site_fract_z
O1	O	1.539979	0.166545	0.108167
O2	O	1.873313	0.499878	0.441500
O3	O	2.206646	0.833211	0.774834
O4	O	1.213047	0.183709	0.108197
O5	O	1.546380	0.517043	0.441530
O6	O	1.879713	0.850376	0.774863
O7	O	1.349417	-0.001704	0.108180
O8	O	1.682750	0.331629	0.441513
O9	O	2.016084	0.664962	0.774846
O10	O	1.403609	0.351958	0.108184
O11	O	1.736942	0.685292	0.441518
O12	O	2.070275	1.018625	0.774851
O13	O	1.349402	-0.001698	-0.108421
O14	O	1.682735	0.331635	0.224912
O15	O	2.016068	0.664969	0.558246
O16	O	1.213031	0.183716	-0.108404
O17	O	1.546364	0.517049	0.224930
O18	O	1.879698	0.850382	0.558263
O19	O	1.539964	0.166551	-0.108433
O20	O	1.873297	0.499884	0.224900
O21	O	2.206631	0.833218	0.558233
Cu22	Cu	1.376496	0.175134	-0.128196
Cu23	Cu	1.709829	0.508467	0.205137
Cu24	Cu	2.043163	0.841801	0.538471
Cu25	Cu	1.376514	0.175126	0.127959
Cu26	Cu	1.709848	0.508460	0.461293
Cu27	Cu	2.043181	0.841793	0.794626
O28	O	1.403593	0.351965	-0.108416
O29	O	1.736927	0.685298	0.224917
O30	O	2.070260	1.018631	0.558250
C31	C	1.170534	0.182634	-0.000100
C32	C	1.503867	0.515968	0.333234
C33	C	1.837200	0.849301	0.666567
C34	C	1.043879	0.179407	-0.000088
C35	C	1.377213	0.512740	0.333245
C36	C	1.710546	0.846074	0.666579
C37	C	1.339412	-0.046978	-0.000118
C38	C	1.672745	0.286356	0.333215
C39	C	2.006079	0.619689	0.666549
C40	C	1.309609	-0.181888	-0.000111
C41	C	1.642943	0.151445	0.333223
C42	C	1.976276	0.484779	0.666556
C43	C	1.391899	-0.255152	-0.000116
C44	C	1.725233	0.078181	0.333217
C45	C	2.058566	0.411515	0.666550
C46	C	1.361099	-0.394589	-0.000109
C47	C	1.694432	-0.061256	0.333225
C48	C	2.027766	0.272078	0.666558
C49	C	0.811989	0.173473	-0.000126
C50	C	1.145322	0.506806	0.333208
C51	C	1.478655	0.840140	0.666541
C52	C	0.941029	0.176770	-0.000105
C53	C	1.274362	0.510103	0.333228
C54	C	1.607695	0.843437	0.666562
C55	C	1.582477	0.167626	-0.000134
C56	C	1.915810	0.500959	0.333199
C57	C	2.249143	0.834293	0.666532
C58	C	1.709131	0.170853	-0.000137
C59	C	2.042464	0.504187	0.333196
C60	C	2.375798	0.837520	0.666530
C61	C	1.413598	0.397238	-0.000116
C62	C	1.746932	0.730571	0.333218
C63	C	2.080265	1.063905	0.666551
C64	C	1.443401	0.532148	-0.000114
C65	C	1.776735	0.865482	0.333219
C66	C	2.110068	1.198815	0.666552
N67	N	1.376491	0.175138	-0.308362
N68	N	1.709825	0.508472	0.024971
N69	N	2.043158	0.841805	0.358305
C70	C	1.376500	0.175139	-0.426204
C71	C	1.709833	0.508472	-0.092871
C72	C	2.043166	0.841806	0.240462
C73	C	1.376512	0.175128	-0.574042
C74	C	1.709845	0.508461	-0.240709
C75	C	2.043179	0.841795	0.092625
N76	N	1.376526	0.175112	0.308125
N77	N	1.709859	0.508446	0.641459
N78	N	2.043193	0.841779	0.974792
H79	H	1.267839	-0.435088	-0.000092
H80	H	1.601172	-0.101755	0.333241
H81	H	1.934506	0.231578	0.666575
N82	N	1.560392	-0.417040	-0.000118
N83	N	1.893725	-0.083707	0.333216
N84	N	2.227059	0.249626	0.666549
N85	N	1.585250	-0.303843	-0.000121
N86	N	1.918583	0.029490	0.333213
N87	N	2.251917	0.362823	0.666546
H88	H	1.667874	-0.267955	-0.000123
H89	H	2.001207	0.065378	0.333210
H90	H	2.334540	0.398712	0.666544
N91	N	1.508883	-0.204329	-0.000142
N92	N	1.842216	0.129004	0.333191
N93	N	2.175549	0.462337	0.666525
N94	N	1.546858	-0.136630	-0.091450
N95	N	1.880192	0.196704	0.241883
N96	N	2.213525	0.530037	0.575216
H97	H	1.629480	-0.100735	-0.091470
H98	H	1.962814	0.232598	0.241864
H99	H	2.296147	0.565931	0.575197
N100	N	1.192626	-0.232710	-0.000112
N101	N	1.525959	0.100624	0.333222
N102	N	1.859292	0.433957	0.666555
N103	N	1.154635	-0.300413	-0.091409
N104	N	1.487969	0.032921	0.241924
N105	N	1.821302	0.366254	0.575258
H106	H	1.072013	-0.336306	-0.091412
H107	H	1.405346	-0.002972	0.241922
H108	H	1.738680	0.330361	0.575255
