data_functionalizedCrystal
_audit_creation_method	'MofGen! by Chris Wilmer'
_symmetry_space_group_name_H-M	'P1'
_symmetry_Int_Tables_number	1
_symmetry_cell_setting	triclinic
loop_
_symmetry_equiv_pos_as_xyz
  x,y,z
_cell_length_a	6.817900
_cell_length_b	12.200863
_cell_length_c	14.125286
_cell_angle_alpha	95.007101
_cell_angle_beta	100.396688
_cell_angle_gamma	107.143441
loop_
_atom_site_label
_atom_site_type_symbol
_atom_site_fract_x
_atom_site_fract_y
_atom_site_fract_z
V1	V	-4.009747	-0.157826	-0.300088
O2	O	-3.978538	0.008496	-0.294275
O3	O	-3.979698	-0.313820	-0.298132
O4	O	-3.945568	-0.154999	-0.430922
O5	O	-4.012904	-0.151425	-0.160565
V6	V	-4.493041	-0.137980	-0.283388
O7	O	-4.271506	-0.201362	-0.336720
O8	O	-4.681479	-0.094444	-0.246756
O9	O	-4.299884	0.018014	-0.285344
O10	O	-4.641647	-0.304302	-0.289201
O11	O	-4.607281	-0.144381	-0.422910
O12	O	-4.334013	-0.140807	-0.152554
C13	C	-3.829673	-0.351860	-0.293423
C14	C	-3.886286	-0.479384	-0.292696
C15	C	-3.989898	-0.712865	-0.291373
C16	C	-3.932233	-0.582940	-0.292109
C17	C	-3.786137	-0.149267	-0.462809
C18	C	-3.815069	-0.147987	-0.569767
C19	C	-4.054112	-0.150312	-0.817891
C20	C	-3.868057	-0.145492	-0.765573
C21	C	-3.838575	-0.146880	-0.656617
C22	C	-4.083601	-0.148924	-0.926857
C23	C	-4.113251	0.056048	-0.290050
C24	C	-4.035876	0.183571	-0.290783
C25	C	-4.156788	-0.146543	-0.120662
C26	C	-4.107094	-0.147817	-0.013702
H27	H	-4.191245	-0.155481	-0.780854
H28	H	-3.730911	-0.140321	-0.802611
