data_functionalizedCrystal
_audit_creation_method	'MofGen! by Chris Wilmer'
_symmetry_space_group_name_H-M	'P1'
_symmetry_Int_Tables_number	1
_symmetry_cell_setting	triclinic
loop_
_symmetry_equiv_pos_as_xyz
  x,y,z
_cell_length_a	19.288864
_cell_length_b	11.792241
_cell_length_c	17.766277
_cell_angle_alpha	89.993523
_cell_angle_beta	89.976791
_cell_angle_gamma	83.664831
loop_
_atom_site_label
_atom_site_type_symbol
_atom_site_fract_x
_atom_site_fract_y
_atom_site_fract_z
O1	O	0.922157	0.141582	-0.062836
O2	O	1.422157	0.641582	0.437164
O3	O	0.720005	0.160681	-0.062785
O4	O	1.220005	0.660681	0.437215
O5	O	0.825987	-0.014113	-0.062806
O6	O	1.325987	0.485887	0.437194
O7	O	0.816176	0.316377	-0.062814
O8	O	1.316176	0.816377	0.437186
O9	O	0.825968	-0.014122	0.062382
O10	O	1.325968	0.485878	0.562382
O11	O	0.719986	0.160673	0.062404
O12	O	1.219986	0.660673	0.562404
O13	O	0.922139	0.141573	0.062352
O14	O	1.422139	0.641573	0.562352
Cu15	Cu	0.821061	0.151122	0.073809
Cu16	Cu	1.321061	0.651122	0.573809
Cu17	Cu	0.821083	0.151133	-0.074241
Cu18	Cu	1.321083	0.651133	0.425759
O19	O	0.816157	0.316368	0.062374
O20	O	1.316157	0.816368	0.562374
C21	C	0.694116	0.160063	-0.000184
C22	C	1.194116	0.660063	0.499816
C23	C	0.617002	0.158218	-0.000164
C24	C	1.117002	0.658218	0.499836
C25	C	0.572888	0.260779	-0.000178
C26	C	1.072888	0.760779	0.499822
C27	C	0.500431	0.259046	-0.000187
C28	C	1.000431	0.759046	0.499813
C29	C	0.472091	0.154746	-0.000196
C30	C	0.972091	0.654746	0.499804
C31	C	0.516215	0.052171	-0.000177
C32	C	1.016215	0.552171	0.499823
C33	C	0.588670	0.053907	-0.000161
C34	C	1.088670	0.553907	0.499839
C35	C	0.363370	0.072757	-0.044078
C36	C	0.863370	0.572757	0.455922
C37	C	0.290916	0.071025	-0.044099
C38	C	0.790916	0.571025	0.455901
C39	C	0.248615	0.149387	-0.000241
C40	C	0.748615	0.649387	0.499759
C41	C	0.278776	0.229499	0.043627
C42	C	0.778776	0.729499	0.543627
C43	C	0.351232	0.231235	0.043643
C44	C	0.851232	0.731235	0.543643
C45	C	0.393526	0.152852	-0.000212
C46	C	0.893526	0.652852	0.499788
C47	C	0.125935	0.250076	-0.000263
C48	C	0.625935	0.750076	0.499737
C49	C	0.053477	0.248339	-0.000267
C50	C	0.553477	0.748339	0.499733
C51	C	0.069262	0.041460	-0.000265
C52	C	0.569262	0.541460	0.499735
C53	C	0.141718	0.043201	-0.000254
C54	C	0.641718	0.543201	0.499746
C55	C	0.170050	0.147512	-0.000257
C56	C	0.670050	0.647512	0.499743
C57	C	0.825361	-0.056399	-0.000212
C58	C	1.325361	0.443601	0.499788
C59	C	0.823517	-0.182385	-0.000212
C60	C	1.323517	0.317615	0.499788
C61	C	0.820125	-0.413045	-0.000224
C62	C	1.320125	0.086955	0.499776
C63	C	0.822009	-0.284689	-0.000218
C64	C	1.322009	0.215311	0.499782
C65	C	0.948028	0.142192	-0.000250
C66	C	1.448028	0.642192	0.499750
C67	C	1.025142	0.144037	-0.000275
C68	C	1.525142	0.644037	0.499725
C69	C	0.816783	0.358654	-0.000222
C70	C	1.316783	0.858654	0.499778
C71	C	0.818627	0.484640	-0.000226
C72	C	1.318627	0.984640	0.499774
N73	N	0.821050	0.151114	0.177939
N74	N	1.321050	0.651114	0.677939
N75	N	0.821099	0.151132	-0.178371
N76	N	1.321099	0.651132	0.321629
C77	C	0.867994	0.073753	0.217316
C78	C	1.367994	0.573753	0.717316
C79	C	0.867998	0.073748	0.296118
C80	C	1.367998	0.573748	0.796118
C81	C	0.821065	0.151123	0.335540
C82	C	1.321065	0.651123	0.835540
C83	C	0.774112	0.228490	0.296153
C84	C	1.274112	0.728490	0.796153
C85	C	0.774105	0.228486	0.217353
C86	C	1.274105	0.728486	0.717353
C87	C	0.812354	0.254534	0.460377
C88	C	1.312354	0.754534	0.960377
C89	C	0.812366	0.254540	0.539175
C90	C	1.312366	0.754540	1.039175
C91	C	0.821084	0.151137	0.578586
C92	C	1.321084	0.651137	1.078586
C93	C	0.829804	0.047723	0.539188
C94	C	1.329804	0.547723	1.039188
C95	C	0.829797	0.047719	0.460388
C96	C	1.329797	0.547719	0.960388
C97	C	0.821067	0.151136	0.420985
C98	C	1.321067	0.651136	0.920985
C99	C	0.868035	0.073764	0.703409
C100	C	1.368035	0.573764	1.203409
C101	C	0.868034	0.073757	0.782213
C102	C	1.368034	0.573757	1.282213
C103	C	0.774151	0.228509	0.782246
C104	C	1.274151	0.728509	1.282246
C105	C	0.774148	0.228506	0.703444
C106	C	1.274148	0.728506	1.203444
C107	C	0.821094	0.151135	0.664030
C108	C	1.321094	0.651135	1.164030
H109	H	0.177637	-0.040316	-0.000246
H110	H	0.677637	0.459684	0.499754
N111	N	0.726200	0.307556	0.663230
N112	N	1.226200	0.807556	1.163230
N113	N	0.727546	0.412458	0.672023
N114	N	1.227546	0.912458	1.172023
H115	H	0.693679	0.468291	0.643624
H116	H	1.193679	0.968291	1.143624
N117	N	0.633745	-0.050852	-0.000144
N118	N	1.133745	0.449148	0.499856
N119	N	0.675911	-0.072959	0.052634
N120	N	1.175911	0.427041	0.552634
H121	H	0.707748	-0.146945	0.052646
H122	H	1.207748	0.353055	0.552646
N123	N	0.726164	0.307520	0.177114
N124	N	1.226164	0.807520	0.677114
N125	N	0.726170	0.307513	0.106757
N126	N	1.226170	0.807513	0.606757
H127	H	0.692313	0.363334	0.078336
H128	H	1.192313	0.863334	0.578336
N129	N	0.260100	-0.010808	-0.088892
N130	N	0.760100	0.489192	0.411108
N131	N	0.195408	-0.012352	-0.088899
N132	N	0.695408	0.487648	0.411101
H133	H	0.173644	-0.070152	-0.120533
H134	H	0.673644	0.429848	0.379467
H135	H	0.375786	0.296462	0.079364
H136	H	0.875786	0.796462	0.579364
H137	H	0.836895	-0.036484	0.428313
H138	H	1.336895	0.463516	0.928313
N139	N	0.915931	-0.005288	0.177046
N140	N	1.415931	0.494712	0.677046
N141	N	0.915917	-0.005290	0.106690
N142	N	1.415917	0.494710	0.606690
H143	H	0.949770	-0.061116	0.078246
H144	H	1.449770	0.438884	0.578246
N145	N	0.487270	-0.054370	-0.000171
N146	N	0.987270	0.445630	0.499829
N147	N	0.448571	-0.078419	0.052592
N148	N	0.948571	0.421581	0.552592
H149	H	0.428130	-0.153667	0.052601
H150	H	0.928130	0.346333	0.552601
H151	H	0.397806	0.008943	-0.079797
H152	H	0.897806	0.508943	0.420203
N153	N	0.803468	0.360162	0.420119
N154	N	1.303468	0.860162	0.920119
N155	N	0.849963	0.385430	0.376122
N156	N	1.349963	0.885430	0.876122
H157	H	0.843689	0.460025	0.347687
H158	H	1.343689	0.960025	0.847687
H159	H	0.906227	0.010749	0.328185
H160	H	1.406227	0.510749	0.828185
N161	N	0.838699	-0.057901	0.579445
N162	N	1.338699	0.442099	1.079445
N163	N	0.838692	-0.057888	0.649802
N164	N	1.338692	0.442112	1.149802
H165	H	0.844971	-0.132481	0.678238
H166	H	1.344971	0.367519	1.178238
N167	N	0.040320	-0.065080	-0.000288
N168	N	0.540320	0.434920	0.499712
N169	N	0.053721	-0.134138	-0.053058
N170	N	0.553721	0.365862	0.446942
H171	H	0.033278	-0.209385	-0.053073
H172	H	0.533278	0.290615	0.446927
N173	N	0.915903	-0.005414	0.663156
N174	N	1.415903	0.494586	1.163156
N175	N	0.957753	-0.074586	0.698328
N176	N	1.457753	0.425414	1.198328
H177	H	0.991528	-0.130560	0.669901
H178	H	1.491528	0.369440	1.169901
H179	H	0.735897	0.291489	0.328254
H180	H	1.235897	0.791489	0.828254
N181	N	0.803468	0.360179	0.579404
N182	N	1.303468	0.860179	1.079404
N183	N	0.795677	0.452495	0.544210
N184	N	1.295677	0.952495	1.044210
H185	H	0.789394	0.527107	0.572619
H186	H	1.289394	1.027107	1.072619
H187	H	0.906259	0.010754	0.814274
H188	H	1.406259	0.510754	1.314274
N189	N	0.601839	0.367317	-0.000160
N190	N	1.101839	0.867317	0.499840
N191	N	0.666531	0.368858	-0.000139
N192	N	1.166531	0.868858	0.499861
H193	H	0.686980	0.444100	-0.000122
H194	H	1.186980	0.944100	0.499878
N195	N	0.726197	0.307531	0.822502
N196	N	1.226197	0.807531	1.322502
N197	N	0.682952	0.271697	0.866496
N198	N	1.182952	0.771697	1.366496
H199	H	0.649080	0.327505	0.894930
H200	H	1.149080	0.827505	1.394930
N201	N	0.455369	0.363825	-0.000197
N202	N	0.955369	0.863825	0.499803
N203	N	0.480675	0.456948	-0.000195
N204	N	0.980675	0.956948	0.499805
H205	H	0.448852	0.530950	-0.000203
H206	H	0.948852	1.030950	0.499797
N207	N	0.008406	0.353102	-0.000265
N208	N	0.508406	0.853102	0.499735
N209	N	-0.033807	0.375208	0.052504
N210	N	0.466193	0.875208	0.552504
H211	H	-0.065639	0.449199	0.052509
H212	H	0.434361	0.949199	0.552509
N213	N	0.235565	0.309571	0.088404
N214	N	0.735565	0.809571	0.588404
N215	N	0.170873	0.308025	0.088377
N216	N	0.670873	0.808025	0.588377
H217	H	0.140351	0.364584	0.119991
H218	H	0.640351	0.864584	0.619991
N219	N	0.154869	0.356631	-0.000262
N220	N	0.654869	0.856631	0.499738
N221	N	0.115470	0.448200	-0.000265
N222	N	0.615470	0.948200	0.499735
H223	H	0.135902	0.523457	-0.000263
H224	H	0.635902	1.023457	0.499737
