data_functionalizedCrystal
_audit_creation_method	'MofGen! by Chris Wilmer'
_symmetry_space_group_name_H-M	'P1'
_symmetry_Int_Tables_number	1
_symmetry_cell_setting	triclinic
loop_
_symmetry_equiv_pos_as_xyz
  x,y,z
_cell_length_a	17.699083
_cell_length_b	10.489741
_cell_length_c	16.776229
_cell_angle_alpha	90.006341
_cell_angle_beta	89.993572
_cell_angle_gamma	96.089072
loop_
_atom_site_label
_atom_site_type_symbol
_atom_site_fract_x
_atom_site_fract_y
_atom_site_fract_z
O1	O	-1.005134	0.161291	0.066274
O2	O	-0.784893	0.182277	0.066279
O3	O	-0.900025	-0.013907	0.066272
O4	O	-0.890002	0.357475	0.066281
O5	O	-0.900009	-0.013919	-0.066305
O6	O	-0.784877	0.182265	-0.066298
O7	O	-1.005119	0.161279	-0.066302
Zn8	Zn	-0.894995	0.171770	-0.087349
Zn9	Zn	-0.895016	0.171786	0.087326
O10	O	-0.889986	0.357463	-0.066295
C11	C	-0.756683	0.181519	-0.000009
C12	C	-0.672650	0.179263	-0.000007
C13	C	-0.633168	0.178194	-0.072276
C14	C	-0.554211	0.176055	-0.072276
C15	C	-0.514738	0.174994	-0.000008
C16	C	-0.554227	0.176059	0.072266
C17	C	-0.633182	0.178189	0.072266
C18	C	-0.235808	0.167466	0.072268
C19	C	-0.156847	0.165339	0.072263
C20	C	-0.156837	0.165331	-0.072274
C21	C	-0.235793	0.167461	-0.072274
C22	C	-0.275275	0.168520	-0.000001
C23	C	-0.360888	0.170838	-0.000001
C24	C	-0.429126	0.172685	-0.000007
C25	C	-0.899260	-0.061431	-0.000016
C26	C	-0.896995	-0.203018	-0.000015
C27	C	-0.823740	-0.269797	-0.000007
C28	C	-0.858338	-0.362568	-0.065375
C29	C	-0.858370	-0.362532	0.065335
C30	C	-0.931623	-0.293925	-0.065436
C31	C	-0.931645	-0.293878	0.065332
C32	C	-0.966296	-0.386623	-0.000051
C33	C	-0.033329	0.162029	-0.000012
C34	C	-0.117363	0.164261	-0.000006
C35	C	-0.890751	0.404986	-0.000006
C36	C	-0.893016	0.546574	-0.000002
N37	N	-0.894987	0.171758	-0.206561
C38	C	-0.945983	0.084923	-0.248281
C39	C	-0.945988	0.084922	-0.331733
C40	C	-0.894999	0.171763	-0.373463
C41	C	-0.843997	0.258602	-0.331737
C42	C	-0.843989	0.258596	-0.248287
C43	C	-0.844024	0.258627	-0.668285
C44	C	-0.844037	0.258629	-0.751741
C45	C	-0.946022	0.084953	-0.751731
C46	C	-0.946015	0.084947	-0.668280
C47	C	-0.895011	0.171781	-0.626561
C48	C	-0.895006	0.171780	-0.536073
C49	C	-0.895006	0.171772	-0.463950
N50	N	-0.895030	0.171787	0.206537
H51	H	-0.665300	0.179069	-0.131125
H52	H	-0.267927	0.168332	-0.131122
Br53	Br	-0.806698	-0.413211	0.157438
Br54	Br	-0.289381	0.168901	0.170353
Br55	Br	-0.103276	0.163901	0.170348
H56	H	-1.026580	-0.437168	-0.000089
Br57	Br	-1.015220	-0.032904	-0.611648
Br58	Br	-0.806669	-0.413304	-0.157485
Br59	Br	-0.774772	0.376440	-0.191666
Br60	Br	-1.015243	-0.032897	-0.808353
Br61	Br	-0.983277	-0.243083	0.157446
Br62	Br	-1.015193	-0.032930	-0.191655
H63	H	-0.987512	0.014214	-0.365701
H64	H	-0.962585	-0.263673	-0.120762
Br65	Br	-0.500629	0.174625	-0.170359
H66	H	-0.802513	0.329348	-0.785717
Br67	Br	-0.774790	0.376451	-0.388368
Br68	Br	-0.103250	0.163892	-0.170361
Br69	Br	-0.500662	0.174563	0.170346
H70	H	-0.665328	0.179063	0.131114
Br71	Br	-0.774808	0.376471	-0.611671
H72	H	-0.763510	-0.219026	-0.000072
