data_functionalizedCrystal
_audit_creation_method	'MofGen! by Chris Wilmer'
_symmetry_space_group_name_H-M	'P1'
_symmetry_Int_Tables_number	1
_symmetry_cell_setting	triclinic
loop_
_symmetry_equiv_pos_as_xyz
  x,y,z
_cell_length_a	14.519709
_cell_length_b	16.974800
_cell_length_c	16.053810
_cell_angle_alpha	88.912688
_cell_angle_beta	87.418242
_cell_angle_gamma	83.534829
loop_
_atom_site_label
_atom_site_type_symbol
_atom_site_fract_x
_atom_site_fract_y
_atom_site_fract_z
O1	O	0.117559	1.049243	-0.001491
O2	O	0.450892	1.382577	0.331843
O3	O	0.784226	1.715910	0.665176
O4	O	0.131673	0.819799	0.014020
O5	O	0.465007	1.153132	0.347353
O6	O	0.798340	1.486465	0.680687
O7	O	-0.009619	0.940604	0.005846
O8	O	0.323715	1.273937	0.339179
O9	O	0.657048	1.607271	0.672513
O10	O	0.258851	0.928438	0.006683
O11	O	0.592184	1.261771	0.340017
O12	O	0.925518	1.595105	0.673350
O13	O	-0.001844	0.933982	-0.132565
O14	O	0.331489	1.267315	0.200769
O15	O	0.664823	1.600648	0.534102
O16	O	0.139448	0.813176	-0.124391
O17	O	0.472781	1.146510	0.208943
O18	O	0.806115	1.479843	0.542276
O19	O	0.125334	1.042621	-0.139901
O20	O	0.458667	1.375954	0.193432
O21	O	0.792000	1.709288	0.526765
Zn22	Zn	0.133625	0.926847	-0.154122
Zn23	Zn	0.466959	1.260181	0.179212
Zn24	Zn	0.800292	1.593514	0.512545
Zn25	Zn	0.123382	0.935572	0.028240
Zn26	Zn	0.456715	1.268906	0.361574
Zn27	Zn	0.790048	1.602239	0.694907
O28	O	0.266626	0.921816	-0.131727
O29	O	0.599959	1.255149	0.201606
O30	O	0.933292	1.588482	0.534939
C31	C	0.134881	0.787123	-0.053200
C32	C	0.468215	1.120456	0.280133
C33	C	0.801548	1.453790	0.613466
C34	C	0.132847	0.699626	-0.047286
C35	C	0.466180	1.032960	0.286048
C36	C	0.799513	1.366293	0.619381
C37	C	0.136126	0.654915	-0.119956
C38	C	0.469460	0.988249	0.213377
C39	C	0.802793	1.321582	0.546710
C40	C	0.134200	0.572704	-0.114401
C41	C	0.467533	0.906038	0.218932
C42	C	0.800866	1.239371	0.552265
C43	C	0.129000	0.535205	-0.036175
C44	C	0.462333	0.868539	0.297159
C45	C	0.795667	1.201872	0.630492
C46	C	0.125717	0.579923	0.036502
C47	C	0.459051	0.913256	0.369835
C48	C	0.792384	1.246590	0.703168
C49	C	0.127637	0.662133	0.030946
C50	C	0.460970	0.995466	0.364279
C51	C	0.794304	1.328800	0.697612
C52	C	0.122797	0.289721	-0.011468
C53	C	0.456130	0.623055	0.321865
C54	C	0.789464	0.956388	0.655199
C55	C	0.120880	0.207505	-0.005918
C56	C	0.454214	0.540838	0.327416
C57	C	0.787547	0.874172	0.660749
C58	C	0.129361	0.200292	-0.156821
C59	C	0.462695	0.533625	0.176512
C60	C	0.796028	0.866959	0.509845
C61	C	0.131286	0.282503	-0.162370
C62	C	0.464620	0.615837	0.170963
C63	C	0.797953	0.949170	0.504296
C64	C	0.127999	0.327214	-0.089694
C65	C	0.461332	0.660548	0.243639
C66	C	0.794665	0.993881	0.576973
N67	N	0.127034	0.451172	-0.030495
N68	N	0.460367	0.784506	0.302839
N69	N	0.793700	1.117839	0.636172
N70	N	0.129958	0.411247	-0.095375
N71	N	0.463292	0.744580	0.237958
N72	N	0.796625	1.077913	0.571292
C73	C	-0.040091	0.936726	-0.063321
C74	C	0.293242	1.270059	0.270012
C75	C	0.626575	1.603392	0.603345
C76	C	-0.142474	0.935027	-0.063207
C77	C	0.190860	1.268360	0.270127
C78	C	0.524193	1.601693	0.603460
C79	C	-0.517374	0.928772	-0.062762
C80	C	-0.184041	1.262106	0.270571
C81	C	0.149293	1.595439	0.603904
C82	C	-0.413065	0.930509	-0.062886
C83	C	-0.079731	1.263842	0.270447
C84	C	0.253602	1.597176	0.603781
C85	C	-0.329927	0.931899	-0.062985
C86	C	0.003406	1.265233	0.270348
C87	C	0.336740	1.598566	0.603681
C88	C	-0.225611	0.933637	-0.063108
C89	C	0.107722	1.266970	0.270226
C90	C	0.441055	1.600303	0.603559
C91	C	0.297098	0.925694	-0.062558
C92	C	0.630432	1.259027	0.270775
C93	C	0.963765	1.592361	0.604108
C94	C	0.399480	0.927393	-0.062667
C95	C	0.732813	1.260727	0.270666
C96	C	1.066147	1.594060	0.603999
C97	C	0.122125	1.075297	-0.072679
C98	C	0.455459	1.408630	0.260654
C99	C	0.788792	1.741963	0.593987
C100	C	0.124160	1.162794	-0.078588
C101	C	0.457493	1.496127	0.254745
C102	C	0.790827	1.829460	0.588078
N103	N	0.140616	0.920898	-0.278579
N104	N	0.473949	1.254232	0.054754
N105	N	0.807282	1.587565	0.388087
C106	C	0.176489	0.890112	-0.800128
C107	C	0.509823	1.223446	-0.466795
C108	C	0.843156	1.556779	-0.133462
C109	C	0.171617	0.894291	-0.713004
C110	C	0.504950	1.227624	-0.379671
C111	C	0.838284	1.560957	-0.046338
C112	C	0.106643	0.949889	-0.673056
C113	C	0.439977	1.283222	-0.339723
C114	C	0.773310	1.616556	-0.006390
C115	C	0.046532	1.001306	-0.720237
C116	C	0.379865	1.334640	-0.386904
C117	C	0.713198	1.667973	-0.053570
C118	C	0.051400	0.997124	-0.807359
C119	C	0.384734	1.330457	-0.474026
C120	C	0.718067	1.663790	-0.140692
C121	C	0.085372	0.968133	-0.412882
C122	C	0.418706	1.301466	-0.079548
C123	C	0.752039	1.634800	0.253785
C124	C	0.080510	0.972314	-0.325753
C125	C	0.413844	1.305647	0.007580
C126	C	0.747177	1.638980	0.340913
C127	C	0.205595	0.865297	-0.318527
C128	C	0.538928	1.198630	0.014806
C129	C	0.872262	1.531963	0.348140
C130	C	0.210462	0.861122	-0.405651
C131	C	0.543795	1.194455	-0.072318
C132	C	0.877128	1.527788	0.261015
C133	C	0.150347	0.912536	-0.452824
C134	C	0.483680	1.245870	-0.119490
C135	C	0.817013	1.579203	0.213843
N136	N	0.101663	0.954163	-0.584002
N137	N	0.434997	1.287496	-0.250669
N138	N	0.768330	1.620830	0.082665
N139	N	0.155323	0.908258	-0.541876
N140	N	0.488656	1.241591	-0.208543
N141	N	0.821990	1.574925	0.124790
N142	N	0.116384	0.941528	0.152698
N143	N	0.449717	1.274861	0.486031
N144	N	0.783051	1.608194	0.819364
H145	H	0.120117	0.326116	0.047710
H146	H	0.453450	0.659449	0.381044
H147	H	0.786784	0.992782	0.714377
H148	H	0.263368	0.815849	-0.438175
H149	H	0.596702	1.149183	-0.104841
H150	H	0.930035	1.482516	0.228492
H151	H	0.036426	1.009998	-0.451283
H152	H	0.369759	1.343332	-0.117950
H153	H	0.703093	1.676665	0.215384
N154	N	0.115271	0.167049	0.078455
N155	N	0.448604	0.500382	0.411788
N156	N	0.781938	0.833716	0.745122
H157	H	0.170866	0.176622	0.110909
H158	H	0.504199	0.509955	0.444243
H159	H	0.837532	0.843288	0.777576
H160	H	0.056598	0.189255	0.109977
H161	H	0.389931	0.522588	0.443311
H162	H	0.723265	0.855921	0.776644
H163	H	0.254537	0.823436	-0.280111
H164	H	0.587870	1.156770	0.053222
H165	H	0.921204	1.490103	0.386556
H166	H	0.140368	0.685440	-0.183657
H167	H	0.473701	1.018773	0.149676
H168	H	0.807035	1.352106	0.483010
N169	N	0.132893	0.152076	-0.235207
N170	N	0.466227	0.485409	0.098126
N171	N	0.799560	0.818742	0.431459
H172	H	0.191597	0.159347	-0.269281
H173	H	0.524930	0.492680	0.064052
H174	H	0.858263	0.826014	0.397386
H175	H	0.132121	0.094194	-0.219755
H176	H	0.465454	0.427527	0.113579
H177	H	0.798788	0.760860	0.446912
N178	N	0.136881	0.322956	-0.246739
N179	N	0.470214	0.656290	0.086594
N180	N	0.803547	0.989623	0.419927
H181	H	0.194983	0.350593	-0.251976
H182	H	0.528316	0.683927	0.081357
H183	H	0.861649	1.017260	0.414691
H184	H	0.138625	0.282119	-0.291890
H185	H	0.471958	0.615453	0.041444
H186	H	0.805291	0.948786	0.374777
H187	H	0.121477	0.549386	0.100195
H188	H	0.454810	0.882719	0.433529
H189	H	0.788144	1.216052	0.766862
H190	H	0.124968	0.698536	0.090122
H191	H	0.458301	1.031869	0.423456
H192	H	0.791635	1.365203	0.756789
H193	H	0.229402	0.844842	-0.832648
H194	H	0.562735	1.178175	-0.499315
H195	H	0.896068	1.511508	-0.165981
N196	N	0.010431	1.032285	-0.282664
N197	N	0.343765	1.365619	0.050669
N198	N	0.677098	1.698952	0.384003
H199	H	-0.026914	1.064222	-0.325767
H200	H	0.306419	1.397555	0.007567
H201	H	0.639753	1.730888	0.340900
H202	H	-0.032452	1.003795	-0.244454
H203	H	0.300881	1.337128	0.088879
H204	H	0.634214	1.670461	0.422213
N205	N	-0.023571	1.061255	-0.677154
N206	N	0.309762	1.394588	-0.343820
N207	N	0.643095	1.727922	-0.010487
H208	H	-0.017540	1.056101	-0.614803
H209	H	0.315793	1.389434	-0.281470
H210	H	0.649126	1.722767	0.051863
H211	H	-0.011907	1.116453	-0.696169
H212	H	0.321427	1.449786	-0.362836
H213	H	0.654760	1.783120	-0.029503
H214	H	0.002455	1.038990	-0.845768
H215	H	0.335788	1.372324	-0.512434
H216	H	0.669122	1.705657	-0.179101
N217	N	0.137734	0.524477	-0.192780
N218	N	0.471067	0.857811	0.140553
N219	N	0.804400	1.191144	0.473887
H220	H	0.140670	0.560775	-0.243184
H221	H	0.474003	0.894108	0.090149
H222	H	0.807337	1.227441	0.423483
H223	H	0.194587	0.484265	-0.193609
H224	H	0.527921	0.817598	0.139724
H225	H	0.861254	1.150932	0.473057
N226	N	0.236436	0.838829	-0.662122
N227	N	0.569770	1.172163	-0.328789
N228	N	0.903103	1.505496	0.004544
H229	H	0.278337	0.802975	-0.700649
H230	H	0.611670	1.136309	-0.367316
H231	H	0.945004	1.469642	-0.033982
H232	H	0.275286	0.870784	-0.628026
H233	H	0.608619	1.204117	-0.294693
H234	H	0.941952	1.537451	0.038640
