data_functionalizedCrystal
_audit_creation_method	'MofGen! by Chris Wilmer'
_symmetry_space_group_name_H-M	'P1'
_symmetry_Int_Tables_number	1
_symmetry_cell_setting	triclinic
loop_
_symmetry_equiv_pos_as_xyz
  x,y,z
_cell_length_a	8.634740
_cell_length_b	7.088929
_cell_length_c	8.559649
_cell_angle_alpha	84.654717
_cell_angle_beta	94.825514
_cell_angle_gamma	82.825047
loop_
_atom_site_label
_atom_site_type_symbol
_atom_site_fract_x
_atom_site_fract_y
_atom_site_fract_z
O1	O	1.968016	0.158976	-0.525367
O2	O	2.468016	0.658976	-0.025367
O3	O	1.524144	0.158981	-0.482465
O4	O	2.024144	0.658981	0.017535
O5	O	1.785186	0.158970	-0.277334
O6	O	2.285186	0.658970	0.222666
O7	O	1.706973	0.158986	-0.730499
O8	O	2.206973	0.658986	-0.230499
O9	O	1.820080	-0.159006	-0.249848
O10	O	2.320080	0.340994	0.250152
O11	O	1.559038	-0.158996	-0.454979
O12	O	2.059038	0.341004	0.045021
O13	O	2.002910	-0.159001	-0.497881
O14	O	2.502910	0.340999	0.002119
Cu15	Cu	1.784160	-0.188032	-0.473920
Cu16	Cu	2.284160	0.311968	0.026080
Cu17	Cu	1.742894	0.188012	-0.506426
Cu18	Cu	2.242894	0.688012	-0.006426
O19	O	1.741868	-0.158990	-0.703012
O20	O	2.241868	0.341010	-0.203012
C21	C	1.485292	-0.000007	-0.459003
C22	C	1.985292	0.499993	0.040997
C23	C	1.317540	-0.000005	-0.430025
C24	C	1.817540	0.499995	0.069975
N25	N	1.813196	-0.452521	-0.451058
N26	N	2.313196	0.047479	0.048942
C27	C	2.041762	-0.000009	-0.521343
C28	C	2.541762	0.499991	-0.021343
C29	C	2.209512	0.000002	-0.550322
C30	C	2.709512	0.500002	-0.050322
C31	C	1.808560	-0.000016	-0.204974
C32	C	2.308560	0.499984	0.295026
C33	C	1.826202	-0.000010	-0.030310
C34	C	2.326202	0.499990	0.469690
N35	N	1.713871	0.452501	-0.529278
N36	N	2.213871	0.952501	-0.029278
C37	C	1.718494	-0.000003	0.224627
C38	C	2.218494	0.499997	0.724627
C39	C	1.700851	-0.000006	0.049964
C40	C	2.200851	0.499994	0.549964
H41	H	1.245367	-0.000007	-0.675490
H42	H	1.745367	0.499993	-0.175490
Cl43	Cl	1.972150	-0.578588	-0.325921
Cl44	Cl	2.472150	-0.078588	0.174079
H45	H	1.580030	-0.000019	-0.014940
H46	H	2.080030	0.499981	0.485060
Cl47	Cl	1.554938	-0.421440	-0.654427
Cl48	Cl	2.054938	0.078560	-0.154427
H49	H	1.947018	-0.000019	0.034587
H50	H	2.447018	0.499981	0.534587
H51	H	1.281687	0.000041	-0.304869
H52	H	1.781687	0.500041	0.195131
