data_functionalizedCrystal
_audit_creation_method	'MofGen! by Chris Wilmer'
_symmetry_space_group_name_H-M	'P1'
_symmetry_Int_Tables_number	1
_symmetry_cell_setting	triclinic
loop_
_symmetry_equiv_pos_as_xyz
  x,y,z
_cell_length_a	10.654559
_cell_length_b	13.262508
_cell_length_c	9.130313
_cell_angle_alpha	105.917062
_cell_angle_beta	89.999532
_cell_angle_gamma	84.461097
loop_
_atom_site_label
_atom_site_type_symbol
_atom_site_fract_x
_atom_site_fract_y
_atom_site_fract_z
O1	O	1.667062	0.147466	-0.063058
O2	O	1.301512	0.161501	-0.057468
O3	O	1.493483	0.001760	-0.121097
O4	O	1.475091	0.307206	0.000571
O5	O	1.493480	0.001765	0.122504
O6	O	1.301509	0.161505	0.186133
O7	O	1.667059	0.147470	0.180543
Cu8	Cu	1.484284	0.154488	0.205580
Cu9	Cu	1.484287	0.154483	-0.082505
O10	O	1.475088	0.307211	0.244172
C11	C	1.254718	0.160471	0.063921
C12	C	1.115291	0.157381	0.062690
C13	C	1.064255	0.060425	0.024073
C14	C	0.933248	0.057528	0.022909
C15	C	0.904324	0.248554	0.098987
C16	C	1.035329	0.251449	0.100141
C17	C	1.144218	-0.033643	-0.013378
C18	C	1.093183	-0.130607	-0.051996
C19	C	0.962175	-0.133504	-0.053161
C20	C	0.882204	-0.039436	-0.015707
C21	C	1.492451	-0.037349	-0.014879
C22	C	1.489364	-0.153888	-0.061309
C23	C	1.480651	-0.482395	0.338974
C24	C	1.483542	-0.372900	0.382600
C25	C	1.484998	-0.318142	0.271626
C26	C	1.483562	-0.372889	0.117020
C27	C	1.480662	-0.482394	0.073390
C28	C	1.485008	-0.318140	0.006042
C29	C	1.483573	-0.372887	-0.148564
C30	C	1.480674	-0.482382	-0.192186
C31	C	1.479218	-0.537140	-0.081213
C32	C	1.487909	-0.208635	0.049672
C33	C	1.487920	-0.208634	-0.215912
C34	C	1.485029	-0.318129	-0.259538
C35	C	1.713853	0.148500	0.059150
C36	C	1.853279	0.151590	0.060372
C37	C	1.476120	0.346320	0.137951
C38	C	1.479207	0.462858	0.184372
N39	N	1.484291	0.154491	0.408204
N40	N	1.484290	0.154472	-0.285133
C41	C	1.569318	0.083782	0.456691
C42	C	1.569314	0.083769	0.610023
C43	C	1.399254	0.225184	0.666372
C44	C	1.399252	0.225191	0.513040
C45	C	1.654357	0.013082	0.351855
C46	C	1.739391	-0.057631	0.400339
C47	C	1.739388	-0.057644	0.553671
C48	C	1.654350	0.013057	0.658518
H49	H	0.839201	0.325139	0.129483
Br50	Br	1.483089	-0.392442	-0.469356
Br51	Br	1.489855	-0.134349	0.259487
H52	H	1.489096	-0.164049	-0.306276
Br53	Br	0.704407	-0.043369	-0.017306
H54	H	1.654370	0.013088	0.227003
Br55	Br	1.654337	0.013024	0.866607
Br56	Br	1.485461	-0.298604	0.592414
H57	H	1.330021	0.282747	0.751747
H58	H	1.808619	-0.115200	0.314964
H59	H	1.476871	-0.626301	-0.116725
H60	H	0.920627	-0.212456	-0.084620
Br61	Br	1.322013	-0.029717	-0.011831
Br62	Br	1.854774	-0.153621	0.619469
H63	H	1.479456	-0.526989	0.429313
Br64	Br	1.478701	-0.556678	-0.402008
H65	H	1.330015	0.282767	0.473564
H66	H	1.076882	0.330399	0.131600
Br67	Br	1.201710	-0.258264	-0.102847
H68	H	1.487349	-0.228985	0.307156
