data_functionalizedCrystal
_audit_creation_method	'MofGen! by Chris Wilmer'
_symmetry_space_group_name_H-M	'P1'
_symmetry_Int_Tables_number	1
_symmetry_cell_setting	triclinic
loop_
_symmetry_equiv_pos_as_xyz
  x,y,z
_cell_length_a	14.044191
_cell_length_b	14.044220
_cell_length_c	13.101039
_cell_angle_alpha	93.667477
_cell_angle_beta	86.337551
_cell_angle_gamma	93.190327
loop_
_atom_site_label
_atom_site_type_symbol
_atom_site_fract_x
_atom_site_fract_y
_atom_site_fract_z
O1	O	1.281976	0.225377	-0.085169
O2	O	1.005305	0.217064	-0.085182
O3	O	1.139487	0.082885	-0.085166
O4	O	1.147794	0.359556	-0.085186
O5	O	1.129861	0.092530	0.085263
O6	O	0.995679	0.226708	0.085247
O7	O	1.272350	0.235022	0.085259
Zn8	Zn	1.132486	0.232396	0.112312
Zn9	Zn	1.145169	0.219689	-0.112235
O10	O	1.138168	0.369200	0.085243
C11	C	0.964870	0.218250	0.000031
C12	C	0.858727	0.207402	0.000026
C13	C	1.131038	0.052086	0.000049
C14	C	1.120194	-0.054057	0.000050
C15	C	0.613268	0.264503	0.000032
C16	C	0.664393	0.187587	0.000036
C17	C	0.772531	0.198615	0.000031
C18	C	0.505121	0.253476	0.000038
C19	C	1.100368	-0.248396	0.000034
C20	C	1.177283	-0.299524	0.000034
C21	C	1.166252	-0.407661	0.000026
C22	C	1.111398	-0.140250	0.000043
C23	C	1.312785	0.233836	0.000044
C24	C	1.418929	0.244683	0.000042
C25	C	1.146617	0.400000	0.000026
C26	C	1.157462	0.506143	0.000019
N27	N	1.123838	0.241069	0.265560
N28	N	1.153824	0.211010	-0.265482
C29	C	1.112072	0.252876	0.474601
C30	C	1.165588	0.199205	0.525483
C31	C	1.159041	0.205775	0.641801
C32	C	1.118617	0.246308	0.358273
H33	H	0.626954	0.113451	-0.000031
O34	O	1.011873	-0.292938	0.000168
C35	C	0.856790	-0.311873	0.088499
C36	C	0.956966	-0.261333	0.088458
H37	H	0.812376	-0.286355	0.159884
H38	H	0.820296	-0.294352	0.017226
H39	H	0.863564	-0.392391	0.088445
H40	H	0.950277	-0.180804	0.088548
H41	H	0.993423	-0.278932	0.159724
O42	O	0.657985	0.352907	-0.000165
C43	C	0.771115	0.459046	-0.088457
C44	C	0.720510	0.358904	-0.088368
H45	H	0.821692	0.463921	-0.159751
H46	H	0.715613	0.515266	-0.088529
H47	H	0.813552	0.472067	-0.017106
H48	H	0.678074	0.345791	-0.159708
H49	H	0.776057	0.302737	-0.088243
H50	H	1.216322	0.148323	0.481687
H51	H	1.251420	-0.262087	-0.000031
O52	O	1.051636	0.313564	0.526998
C53	C	0.989868	0.375457	0.692400
C54	C	1.058362	0.306703	0.633173
H55	H	0.995269	0.369919	0.778253
H56	H	1.010071	0.451816	0.671451
H57	H	0.913499	0.355486	0.671331
H58	H	1.134753	0.326587	0.654210
H59	H	1.038077	0.230363	0.654127
