data_functionalizedCrystal
_audit_creation_method	'MofGen! by Chris Wilmer'
_symmetry_space_group_name_H-M	'P1'
_symmetry_Int_Tables_number	1
_symmetry_cell_setting	triclinic
loop_
_symmetry_equiv_pos_as_xyz
  x,y,z
_cell_length_a	6.817900
_cell_length_b	12.200875
_cell_length_c	12.200722
_cell_angle_alpha	93.008822
_cell_angle_beta	107.140920
_cell_angle_gamma	107.143593
loop_
_atom_site_label
_atom_site_type_symbol
_atom_site_fract_x
_atom_site_fract_y
_atom_site_fract_z
V1	V	-4.086871	-0.357783	-0.158974
V2	V	-3.836871	-0.107783	0.091026
V3	V	-3.586871	0.142217	0.341026
V4	V	-3.336871	0.392217	0.591026
O5	O	-4.054179	-0.350847	0.007371
O6	O	-3.804179	-0.100847	0.257371
O7	O	-3.554179	0.149153	0.507371
O8	O	-3.304179	0.399153	0.757371
O9	O	-4.056310	-0.355457	-0.314960
O10	O	-3.806310	-0.105457	-0.064960
O11	O	-3.556310	0.144543	0.185040
O12	O	-3.306310	0.394543	0.435040
O13	O	-4.056323	-0.513769	-0.156646
O14	O	-3.806323	-0.263769	0.093354
O15	O	-3.556323	-0.013769	0.343354
O16	O	-3.306323	0.236231	0.593354
O17	O	-4.054166	-0.191438	-0.152039
O18	O	-3.804166	0.058562	0.097961
O19	O	-3.554166	0.308562	0.347961
O20	O	-3.304166	0.558562	0.597961
V21	V	-4.565875	-0.337872	-0.139063
V22	V	-4.315875	-0.087872	0.110937
V23	V	-4.065875	0.162128	0.360937
V24	V	-3.815875	0.412128	0.610937
O25	O	-4.358044	-0.401459	-0.202649
O26	O	-4.108044	-0.151459	0.047351
O27	O	-3.858044	0.098541	0.297351
O28	O	-3.608044	0.348541	0.547351
O29	O	-4.744899	-0.294196	-0.095387
O30	O	-4.494899	-0.044196	0.154613
O31	O	-4.244899	0.205804	0.404613
O32	O	-3.994899	0.455804	0.654613
O33	O	-4.373230	-0.340199	0.016924
O34	O	-4.123230	-0.090199	0.266924
O35	O	-3.873230	0.159801	0.516924
O36	O	-3.623230	0.409801	0.766924
O37	O	-4.715964	-0.344808	-0.305408
O38	O	-4.465964	-0.094808	-0.055408
O39	O	-4.215964	0.155192	0.194592
O40	O	-3.965964	0.405192	0.444592
O41	O	-4.715977	-0.504217	-0.145998
O42	O	-4.465977	-0.254217	0.104002
O43	O	-4.215977	-0.004217	0.354002
O44	O	-3.965977	0.245783	0.604002
O45	O	-4.373217	-0.181886	-0.141391
O46	O	-4.123217	0.068114	0.108609
O47	O	-3.873217	0.318114	0.358609
O48	O	-3.623217	0.568114	0.608609
C49	C	-3.905073	-0.349844	-0.352982
C50	C	-3.655073	-0.099844	-0.102982
C51	C	-3.405073	0.150156	0.147018
C52	C	-3.155073	0.400156	0.397018
C53	C	-3.961491	-0.348981	-0.480504
C54	C	-3.711491	-0.098981	-0.230504
C55	C	-3.461491	0.151019	0.019496
C56	C	-3.211491	0.401019	0.269496
C57	C	-4.007301	-0.348270	-0.584064
C58	C	-3.757301	-0.098270	-0.334064
C59	C	-3.507301	0.151730	-0.084064
C60	C	-3.257301	0.401730	0.165936
C61	C	-4.064792	-0.347384	-0.713986
C62	C	-3.814792	-0.097384	-0.463986
C63	C	-3.564792	0.152616	-0.213986
C64	C	-3.314792	0.402616	0.036014
C65	C	-3.905088	-0.551786	-0.151036
C66	C	-3.655088	-0.301786	0.098964
C67	C	-3.405088	-0.051786	0.348964
C68	C	-3.155088	0.198214	0.598964
C69	C	-3.961513	-0.679306	-0.150165
C70	C	-3.711513	-0.429306	0.099835
C71	C	-3.461513	-0.179306	0.349835
C72	C	-3.211513	0.070694	0.599835
C73	C	-4.064778	-0.912780	-0.148571
C74	C	-3.814778	-0.662780	0.101429
C75	C	-3.564778	-0.412780	0.351429
C76	C	-3.314778	-0.162780	0.601429
C77	C	-4.007305	-0.782858	-0.149457
C78	C	-3.757305	-0.532858	0.100543
C79	C	-3.507305	-0.282858	0.350543
C80	C	-3.257305	-0.032858	0.600543
C81	C	-4.187809	-0.345808	0.054940
C82	C	-3.937809	-0.095808	0.304940
C83	C	-3.687809	0.154192	0.554940
C84	C	-3.437809	0.404192	0.804940
C85	C	-4.110630	-0.346678	0.182460
C86	C	-3.860630	-0.096678	0.432460
C87	C	-3.610630	0.153322	0.682460
C88	C	-3.360630	0.403322	0.932460
C89	C	-4.187793	-0.143863	-0.147005
C90	C	-3.937793	0.106137	0.102995
C91	C	-3.687793	0.356137	0.352995
C92	C	-3.437793	0.606137	0.602995
C93	C	-4.110606	-0.016342	-0.147870
C94	C	-3.860606	0.233658	0.102130
C95	C	-3.610606	0.483658	0.352130
C96	C	-3.360606	0.733658	0.602130
