data_functionalizedCrystal
_audit_creation_method	'MofGen! by Chris Wilmer'
_symmetry_space_group_name_H-M	'P1'
_symmetry_Int_Tables_number	1
_symmetry_cell_setting	triclinic
loop_
_symmetry_equiv_pos_as_xyz
  x,y,z
_cell_length_a	19.288864
_cell_length_b	14.048226
_cell_length_c	14.971486
_cell_angle_alpha	89.993360
_cell_angle_beta	83.375187
_cell_angle_gamma	89.979690
loop_
_atom_site_label
_atom_site_type_symbol
_atom_site_fract_x
_atom_site_fract_y
_atom_site_fract_z
O1	O	0.921714	-0.079466	0.111581
O2	O	1.421714	0.420534	0.611581
O3	O	0.719502	-0.079401	0.126633
O4	O	1.219502	0.420599	0.626633
O5	O	0.826028	-0.079429	-0.011122
O6	O	1.326028	0.420571	0.488878
O7	O	0.815188	-0.079439	0.249337
O8	O	1.315188	0.420561	0.749337
O9	O	0.826015	0.078892	-0.011130
O10	O	1.326015	0.578892	0.488870
O11	O	0.719489	0.078920	0.126625
O12	O	1.219489	0.578920	0.626625
O13	O	0.921701	0.078855	0.111573
O14	O	1.421701	0.578855	0.611573
Zn15	Zn	0.820593	0.104024	0.119098
Zn16	Zn	1.320593	0.604024	0.619098
Zn17	Zn	0.820610	-0.104571	0.119109
Zn18	Zn	1.320610	0.395429	0.619109
O19	O	0.815175	0.078882	0.249329
O20	O	1.315175	0.578882	0.749329
C21	C	0.693618	-0.000232	0.126145
C22	C	1.193618	0.499768	0.626145
C23	C	0.616510	-0.000207	0.124691
C24	C	1.116510	0.499793	0.624691
N25	N	0.820587	0.246385	0.119090
N26	N	1.320587	0.746385	0.619090
C27	C	0.825537	-0.000268	-0.044448
C28	C	1.325537	0.499732	0.455552
C29	C	0.824084	-0.000269	-0.143737
C30	C	1.324084	0.499731	0.356263
C31	C	0.572077	-0.000226	0.205520
C32	C	1.072077	0.499774	0.705520
C33	C	0.499625	-0.000236	0.204154
C34	C	0.999625	0.499764	0.704154
C35	C	0.471610	-0.000247	0.121955
C36	C	0.971610	0.499753	0.621955
C37	C	0.516052	-0.000224	0.041116
C38	C	1.016052	0.499776	0.541116
C39	C	0.588502	-0.000204	0.042484
C40	C	1.088502	0.499796	0.542484
C41	C	0.363142	-0.055744	0.057340
C42	C	0.863142	0.444256	0.557340
C43	C	0.290693	-0.055770	0.055975
C44	C	0.790693	0.444230	0.555975
C45	C	0.248150	-0.000305	0.117732
C46	C	0.748150	0.499695	0.617732
C47	C	0.278064	0.055174	0.180868
C48	C	0.778064	0.555174	0.680868
C49	C	0.350514	0.055194	0.182236
C50	C	0.850514	0.555194	0.682236
C51	C	0.393051	-0.000269	0.120462
C52	C	0.893051	0.499731	0.620462
C53	C	0.125157	-0.000333	0.197085
C54	C	0.625157	0.499667	0.697085
C55	C	0.052704	-0.000338	0.195715
C56	C	0.552704	0.499662	0.695715
C57	C	0.069133	-0.000335	0.032675
C58	C	0.569133	0.499665	0.532675
C59	C	0.141584	-0.000321	0.034046
C60	C	0.641584	0.499679	0.534046
C61	C	0.169591	-0.000324	0.116254
C62	C	0.669591	0.499676	0.616254
C63	C	0.947586	-0.000316	0.112062
C64	C	1.447586	0.499684	0.612062
C65	C	1.024694	-0.000347	0.113516
C66	C	1.524694	0.499653	0.613516
N67	N	0.820622	-0.246932	0.119109
N68	N	1.320622	0.253068	0.619109
C69	C	0.867771	0.296191	0.058117
C70	C	1.367771	0.796191	0.558117
C71	C	0.867776	0.395849	0.058117
C72	C	1.367776	0.895849	0.558117
C73	C	0.820599	0.445698	0.119094
C74	C	1.320599	0.945698	0.619094
C75	C	0.773410	0.395886	0.180070
C76	C	1.273410	0.895886	0.680070
C77	C	0.773402	0.296230	0.180066
C78	C	1.273402	0.796230	0.680066
C79	C	0.773430	0.603600	0.180077
C80	C	1.273430	1.103600	0.680077
C81	C	0.773438	0.703263	0.180082
C82	C	1.273438	1.203263	0.680082
C83	C	0.867803	0.703219	0.058128
C84	C	1.367803	1.203219	0.558128
C85	C	0.867796	0.603563	0.058123
C86	C	1.367796	1.103563	0.558123
C87	C	0.820607	0.553757	0.119101
C88	C	1.320607	1.053757	0.619101
C89	C	0.886665	-0.000288	-0.201301
C90	C	1.386665	0.499712	0.298699
C91	C	0.885296	-0.000297	-0.294593
C92	C	1.385296	0.499703	0.205407
C93	C	0.821345	-0.000280	-0.330320
C94	C	1.321345	0.499720	0.169680
C95	C	0.758759	-0.000264	-0.272749
C96	C	1.258759	0.499736	0.227251
C97	C	0.760129	-0.000261	-0.179458
C98	C	1.260129	0.499739	0.320542
C99	C	0.755909	-0.000266	-0.467196
C100	C	1.255909	0.499734	0.032804
C101	C	0.754538	-0.000267	-0.560492
C102	C	1.254538	0.499733	-0.060492
C103	C	0.881075	-0.000302	-0.582330
C104	C	1.381075	0.499698	-0.082330
C105	C	0.882445	-0.000300	-0.489040
C106	C	1.382445	0.499700	0.010960
C107	C	0.819859	-0.000281	-0.431475
C108	C	1.319859	0.499719	0.068525
C109	C	0.815667	-0.000280	0.282655
C110	C	1.315667	0.499720	0.782655
C111	C	0.817119	-0.000286	0.381944
C112	C	1.317119	0.499714	0.881944
H113	H	0.594875	-0.000230	0.272460
H114	H	1.094875	0.499770	0.772460
H115	H	0.906226	0.743776	0.008478
H116	H	1.406226	1.243776	0.508478
Br117	Br	0.709409	0.770909	0.262841
Br118	Br	1.209409	1.270909	0.762841
H119	H	0.906214	0.562975	0.008475
H120	H	1.406214	1.062975	0.508475
H121	H	0.906191	0.255610	0.008466
H122	H	1.406191	0.755610	0.508466
H123	H	0.177762	-0.000311	-0.031773
H124	H	0.677762	0.499689	0.468227
H125	H	0.938741	-0.000296	-0.172220
H126	H	1.438741	0.499704	0.327780
Br127	Br	0.667747	-0.000239	-0.608978
Br128	Br	1.167747	0.499761	-0.108978
H129	H	0.735001	0.563051	0.229728
H130	H	1.235001	1.063051	0.729728
H131	H	0.397774	-0.100916	0.007049
H132	H	0.897774	0.399084	0.507049
Br133	Br	0.439312	-0.000255	0.313858
Br134	Br	0.939312	0.499745	0.813858
Br135	Br	0.970231	-0.000324	-0.372713
Br136	Br	1.470231	0.499676	0.127287
Br137	Br	0.709377	0.463535	0.262821
Br138	Br	1.209377	0.963535	0.762821
H139	H	0.704944	-0.000254	-0.420328
H140	H	1.204944	0.499746	0.079672
Br141	Br	0.671968	-0.000256	-0.321233
Br142	Br	1.171968	0.499744	0.178767
H143	H	0.934519	-0.000307	-0.459955
H144	H	1.434519	0.499693	0.040045
H145	H	0.243428	0.100339	0.231155
H146	H	0.743428	0.600339	0.731155
H147	H	0.709169	-0.000246	-0.132590
H148	H	1.209169	0.499754	0.367410
Br149	Br	0.478033	-0.000230	-0.070441
Br150	Br	0.978033	0.499770	0.429559
Br151	Br	0.709359	0.228636	0.262813
Br152	Br	1.209359	0.728636	0.762813
H153	H	0.374867	0.100369	0.233641
H154	H	0.874867	0.600369	0.733641
Br155	Br	0.163171	-0.000331	0.308649
Br156	Br	0.663171	0.499669	0.808649
Br157	Br	0.648808	-0.000177	-0.067221
Br158	Br	1.148808	0.499823	0.432779
H159	H	0.932035	-0.000320	-0.629204
H160	H	1.432035	0.499680	-0.129204
H161	H	0.016527	-0.000347	0.261539
H162	H	0.516527	0.499653	0.761539
H163	H	0.046324	-0.000404	-0.034253
H164	H	0.546324	0.499596	0.465747
Br165	Br	0.931810	0.463446	-0.024637
Br166	Br	1.431810	0.963446	0.475363
Br167	Br	0.250101	-0.131074	-0.029697
Br168	Br	0.750101	0.368926	0.470303
