data_functionalizedCrystal
_audit_creation_method	'MofGen! by Chris Wilmer'
_symmetry_space_group_name_H-M	'P1'
_symmetry_Int_Tables_number	1
_symmetry_cell_setting	triclinic
loop_
_symmetry_equiv_pos_as_xyz
  x,y,z
_cell_length_a	19.902436
_cell_length_b	23.196402
_cell_length_c	23.196401
_cell_angle_alpha	59.999265
_cell_angle_beta	90.006949
_cell_angle_gamma	59.997492
loop_
_atom_site_label
_atom_site_type_symbol
_atom_site_fract_x
_atom_site_fract_y
_atom_site_fract_z
Zr1	Zr	0.647324	0.630945	-0.075588
O2	O	0.540016	0.751237	-0.167649
O3	O	0.680217	0.510672	-0.047370
O4	O	0.680195	0.630958	-0.167645
O5	O	0.540059	0.630935	0.047504
O6	O	0.790774	0.630947	-0.167637
O7	O	0.540038	0.630951	-0.047375
O8	O	0.790814	0.415777	0.047512
O9	O	0.540019	0.846105	-0.167645
O10	O	0.776773	0.560127	-0.035325
O11	O	0.694264	0.560123	0.035476
O12	O	0.694238	0.701744	-0.106132
O13	O	0.611730	0.701740	-0.035331
Zr14	Zr	0.823717	0.630901	0.075745
Zr15	Zr	0.823685	0.630928	-0.075576
Zr16	Zr	0.647357	0.630919	0.075733
Zr17	Zr	0.647329	0.782248	-0.075582
Zr18	Zr	0.823713	0.479599	0.075738
O19	O	0.790824	0.751175	0.047527
O20	O	0.790778	0.751212	-0.167632
O21	O	0.540063	0.751200	0.047509
O22	O	0.931026	0.510610	0.167806
O23	O	0.930979	0.510647	-0.047353
O24	O	0.680264	0.510635	0.167789
O25	O	0.930983	0.630912	-0.047347
O26	O	0.790846	0.630889	0.167801
O27	O	0.680268	0.630900	0.167794
O28	O	0.931004	0.630895	0.047531
O29	O	0.680202	0.846090	-0.167635
O30	O	0.790840	0.415756	0.167792
O31	O	0.931023	0.415742	0.167802
O32	O	0.930997	0.415763	0.047522
O33	O	0.540045	0.846084	-0.047365
O34	O	0.680228	0.846070	-0.047356
O35	O	0.776803	0.560103	0.106289
O36	O	0.859312	0.560106	0.035487
O37	O	0.776777	0.701724	-0.035319
O38	O	0.694269	0.701720	0.035482
C39	C	0.735515	0.441667	0.000070
C40	C	0.735513	0.377435	0.000067
C41	C	0.514921	0.630946	0.000063
C42	C	0.440051	0.630953	0.000058
C43	C	0.778576	0.347267	-0.036893
C44	C	0.778584	0.286906	-0.036887
C45	C	0.735513	0.256727	0.000069
C46	C	0.692448	0.286900	0.037038
C47	C	0.692448	0.347254	0.037037
C48	C	0.663357	0.194706	-0.005211
C49	C	0.663355	0.134357	-0.005215
C50	C	0.735514	0.070572	0.000076
C51	C	0.807674	0.067152	0.005357
C52	C	0.807674	0.127506	0.005356
C53	C	0.735508	0.191283	0.000075
C54	C	0.778589	-0.025047	-0.036879
C55	C	0.778599	-0.085413	-0.036868
C56	C	0.692456	-0.085412	0.037051
C57	C	0.692453	-0.025054	0.037045
C58	C	0.735518	0.005128	0.000076
C59	C	0.168049	0.630913	0.000085
C60	C	0.144476	0.720248	-0.044367
C61	C	0.222313	0.720304	-0.044614
C62	C	0.302992	0.630934	0.000072
C63	C	0.300573	0.586577	-0.032503
C64	C	0.222345	0.587149	-0.032831
C65	C	0.223356	0.585295	0.077132
C66	C	0.300277	0.586974	0.077013
C67	C	0.379259	0.630940	0.000064
C68	C	0.091784	0.630904	0.000090
C69	C	0.956121	0.630901	0.000094
C70	C	1.030991	0.630894	0.000099
C71	C	0.735480	0.630956	-0.189201
C72	C	0.735466	0.630967	-0.253440
C73	C	0.735527	0.820180	0.000086
C74	C	0.735529	0.884412	0.000089
C75	C	0.796387	0.630962	-0.283599
C76	C	0.796405	0.630946	-0.343946
C77	C	0.735490	0.630951	-0.374140
C78	C	0.674564	0.630951	-0.343971
C79	C	0.674552	0.630959	-0.283622
C80	C	0.661148	0.678453	-0.493524
C81	C	0.661159	0.678450	-0.553875
C82	C	0.735526	0.630922	-0.560276
C83	C	0.809887	0.583407	-0.506323
C84	C	0.809875	0.583415	-0.445974
C85	C	0.735496	0.630941	-0.439578
C86	C	0.796472	0.630898	-0.655869
C87	C	0.796491	0.630877	-0.716214
C88	C	0.674643	0.630889	-0.716242
C89	C	0.674631	0.630903	-0.655894
C90	C	0.735545	0.630911	-0.625713
C91	C	0.735562	0.630891	0.189358
C92	C	0.735576	0.630880	0.253597
C93	C	0.956115	0.441645	0.000086
C94	C	1.030982	0.377405	0.000088
C95	C	0.735556	0.441635	0.189349
C96	C	0.735567	0.377392	0.253586
C97	C	0.956156	0.441612	0.189365
C98	C	1.031037	0.377362	0.253607
C99	C	0.514886	0.820235	-0.189208
C100	C	0.440005	0.884485	-0.253450
C101	C	0.514927	0.820202	0.000071
C102	C	0.440059	0.884441	0.000069
C103	C	0.735486	0.820212	-0.189193
C104	C	0.735474	0.884455	-0.253430
C105	C	1.023057	0.347249	-0.036881
C106	C	1.093396	0.286897	-0.036892
C107	C	1.171660	0.256700	0.000069
C108	C	1.179585	0.286862	0.037039
C109	C	1.109246	0.347217	0.037046
C110	C	0.778657	0.347212	0.320722
C111	C	0.778665	0.286857	0.381086
C112	C	0.735588	0.256680	0.374311
C113	C	0.692492	0.286865	0.307168
C114	C	0.692480	0.347223	0.246806
C115	C	1.109278	0.347191	0.246818
C116	C	1.179644	0.286829	0.307175
C117	C	1.171767	0.256635	0.374319
C118	C	1.093518	0.286812	0.381107
C119	C	1.023154	0.347177	0.320751
C120	C	0.361764	0.914663	-0.246661
C121	C	0.291398	0.975043	-0.307018
C122	C	0.299275	1.005241	-0.374162
C123	C	0.377524	0.975060	-0.380950
C124	C	0.447888	0.914685	-0.320594
C125	C	0.447985	0.914604	0.037031
C126	C	0.377646	0.974973	0.037026
C127	C	0.299382	1.005172	0.000063
C128	C	0.291457	0.975007	-0.036904
C129	C	0.361796	0.914644	-0.036903
C130	C	0.778561	0.914614	-0.246632
C131	C	0.778566	0.974969	-0.306984
C132	C	0.735479	1.005168	-0.374132
C133	C	0.692392	0.975004	-0.380928
C134	C	0.692392	0.914646	-0.320577
H135	H	0.813644	0.371837	-0.066993
N136	N	0.735618	0.191572	0.439423
H137	H	0.760138	0.141485	0.439456
H138	H	0.677264	0.212642	0.439421
N139	N	0.885504	0.123809	0.011061
H140	H	0.901632	0.120119	0.054684
H141	H	0.875751	0.174593	-0.032122
H142	H	0.813737	0.371776	0.326252
H143	H	0.657420	0.262286	0.301662
N144	N	1.247524	0.191596	0.000067
H145	H	1.281383	0.212595	-0.020967
H146	H	1.230555	0.177100	-0.028950
N147	N	0.223516	1.070274	0.000065
H148	H	0.223487	1.120354	-0.020965
H149	H	0.223548	1.049184	0.050142
N150	N	0.885508	-0.001637	0.011063
H151	H	0.901644	-0.055411	0.054688
H152	H	0.931164	0.005430	0.014377
N153	N	0.825161	0.254294	0.453499
H154	H	0.785667	0.264801	0.480194
H155	H	0.852454	0.282579	0.448569
H156	H	0.357391	0.520867	-0.001683
N157	N	0.645953	0.379813	0.174396
H158	H	0.618653	0.351546	0.179271
H159	H	0.685457	0.369336	0.147706
H160	H	1.115711	0.371763	0.067155
H161	H	0.355331	0.890087	-0.067000
N162	N	0.585541	0.138022	-0.010873
H163	H	0.539835	0.187571	-0.014202
H164	H	0.595357	0.087195	0.032302
N165	N	1.117786	0.379743	0.174403
H166	H	1.178034	0.351464	0.179271
H167	H	1.090468	0.440336	0.147745
N168	N	1.264034	0.254288	0.299845
H169	H	1.258340	0.282572	0.248150
H170	H	1.295106	0.193696	0.323279
H171	H	0.187051	0.613875	0.104342
N172	N	0.825034	0.882050	-0.174213
H173	H	0.852329	0.910318	-0.179076
H174	H	0.868342	0.821457	-0.147560
H175	H	0.384114	0.999523	0.067132
N176	N	0.207042	1.007569	-0.076757
H177	H	0.163692	1.050378	-0.071137
H178	H	0.200536	0.961468	-0.057337
N179	N	1.247663	0.191528	0.439414
H180	H	1.298421	0.176999	0.424919
H181	H	1.247634	0.141482	0.468438
N182	N	0.645990	0.007501	0.076897
H183	H	0.652524	0.050315	0.071288
H184	H	0.668616	-0.038599	0.128587
H185	H	0.657379	0.371817	0.067134
H186	H	1.086928	0.262346	-0.066998
N187	N	0.585521	0.263503	-0.010922
H188	H	0.596470	0.301217	-0.010119
H189	H	0.566925	0.240392	0.030156
H190	H	0.625020	0.630911	-0.631339
H191	H	0.813651	0.999522	-0.301437
N192	N	0.735473	1.070279	-0.439220
H193	H	0.701639	1.084840	-0.482793
H194	H	0.793840	1.049218	-0.439174
H195	H	0.813671	-0.109980	-0.066963
H196	H	0.600584	0.717148	-0.488317
H197	H	0.657312	0.999601	-0.435608
H198	H	0.959336	0.371835	-0.066988
H199	H	1.243317	0.262267	0.067131
H200	H	1.087116	0.262219	0.435784
N201	N	0.862199	0.630878	-0.748747
H202	H	0.852967	0.630868	-0.791557
H203	H	0.918102	0.580608	-0.713049
H204	H	0.959449	0.371734	0.326288
N205	N	0.608945	0.630885	-0.748794
H206	H	0.618197	0.630877	-0.791601
H207	H	0.553038	0.681162	-0.763397
N208	N	0.223373	1.070352	-0.439253
H209	H	0.223326	1.049355	-0.468306
H210	H	0.223367	1.120422	-0.468253
N211	N	0.353256	0.882097	-0.174246
H212	H	0.293008	0.910386	-0.179115
H213	H	0.380578	0.892587	-0.147588
N214	N	0.645916	0.882122	-0.327913
H215	H	0.618623	0.910417	-0.379611
H216	H	0.602608	0.892632	-0.304490
H217	H	0.185791	0.618683	-0.089527
H218	H	0.657380	0.262323	0.067128
N219	N	0.386007	1.007633	-0.453374
H220	H	0.417071	0.961591	-0.459036
H221	H	0.417058	1.032685	-0.458992
N222	N	0.207009	1.007571	-0.299685
H223	H	0.163623	1.050402	-0.348105
H224	H	0.200505	1.032546	-0.272981
H225	H	0.511594	0.890114	-0.326130
H226	H	0.221041	0.755283	-0.022934
N227	N	0.532393	0.882040	0.076901
H228	H	0.526729	0.910319	0.100310
H229	H	0.563448	0.892545	0.042964
H230	H	0.813652	0.262338	-0.066985
N231	N	0.890105	0.532143	-0.513215
H232	H	0.878833	0.539342	-0.559630
H233	H	0.918392	0.472883	-0.473026
N234	N	0.219992	0.766668	-0.119886
H235	H	0.220311	0.814488	-0.130850
H236	H	0.168336	0.787106	-0.153004
H237	H	0.624967	0.630953	-0.368557
N238	N	0.580961	0.729690	-0.612061
H239	H	0.533847	0.759789	-0.598845
H240	H	0.573555	0.693236	-0.618874
N241	N	0.825038	0.007507	-0.076749
H242	H	0.868390	-0.002995	-0.042853
H243	H	0.785460	0.068088	-0.113945
N244	N	0.646007	-0.117960	0.076919
H245	H	0.652542	-0.160774	0.071314
H246	H	0.585761	-0.071860	0.057511
H247	H	0.104553	0.755146	-0.100859
N248	N	0.092602	0.766694	-0.015579
H249	H	0.083874	0.730281	0.026556
H250	H	0.037593	0.816027	-0.053354
N251	N	0.247957	0.500338	0.007274
H252	H	0.283357	0.468715	0.057498
H253	H	0.280257	0.474167	-0.016235
N254	N	0.302610	0.627395	-0.106889
H255	H	0.305099	0.674609	-0.119607
H256	H	0.251340	0.648102	-0.140702
H257	H	0.299906	0.619315	0.101348
H258	H	0.357743	0.521772	0.112922
H259	H	0.845988	0.630966	-0.259026
N260	N	0.249757	0.498121	0.121210
H261	H	0.199502	0.497337	0.123099
H262	H	0.285290	0.469167	0.170625
N263	N	0.862117	0.630938	-0.376483
H264	H	0.900704	0.630942	-0.348205
H265	H	0.835470	0.681209	-0.426666
H266	H	0.870422	0.544726	-0.402046
H267	H	0.846074	0.630901	-0.631293
H268	H	0.624942	0.630963	-0.259065
