data_functionalizedCrystal
_audit_creation_method	'MofGen! by Chris Wilmer'
_symmetry_space_group_name_H-M	'P1'
_symmetry_Int_Tables_number	1
_symmetry_cell_setting	triclinic
loop_
_symmetry_equiv_pos_as_xyz
  x,y,z
_cell_length_a	12.784905
_cell_length_b	12.811442
_cell_length_c	11.892095
_cell_angle_alpha	88.493659
_cell_angle_beta	86.511728
_cell_angle_gamma	78.602255
loop_
_atom_site_label
_atom_site_type_symbol
_atom_site_fract_x
_atom_site_fract_y
_atom_site_fract_z
O1	O	1.417102	-0.000749	-0.093933
O2	O	1.108177	0.043827	-0.098502
O3	O	1.269291	-0.130745	-0.080603
O4	O	1.255988	0.173823	-0.111832
O5	O	1.255857	-0.116210	0.105914
O6	O	1.094743	0.058362	0.088015
O7	O	1.403669	0.013786	0.092584
Zn8	Zn	1.247073	0.038382	0.119913
Zn9	Zn	1.264772	0.019231	-0.125831
O10	O	1.242555	0.188358	0.074685
C11	C	1.061895	0.053993	-0.005541
C12	C	0.944003	0.062619	-0.006425
C13	C	0.745535	-0.113123	0.011574
C14	C	0.634766	-0.105023	0.010744
C15	C	0.611696	0.086917	-0.008924
C16	C	0.722464	0.078817	-0.008094
C17	C	0.789380	-0.021206	0.002158
C18	C	0.900151	-0.029304	0.002996
C19	C	0.877079	0.162634	-0.016680
C20	C	0.766310	0.170734	-0.017510
C21	C	1.261415	-0.162193	0.016622
C22	C	1.257950	-0.277550	0.028443
C23	C	1.449951	0.003620	-0.000380
C24	C	1.567843	-0.005007	0.000497
C25	C	1.245747	-0.432222	0.146773
C26	C	1.248999	-0.323833	0.135669
C27	C	1.263645	-0.339665	-0.067684
C28	C	1.260393	-0.448055	-0.056580
C29	C	1.251446	-0.494330	0.050652
C30	C	1.248201	-0.602723	0.061756
C31	C	1.262839	-0.618551	-0.141596
C32	C	1.266091	-0.510162	-0.152700
N33	N	1.235001	0.051450	0.287627
C34	C	1.250430	0.219805	-0.022543
C35	C	1.253897	0.335162	-0.034372
N36	N	1.276852	0.006154	-0.293545
C37	C	1.360852	-0.084841	0.538249
C38	C	1.352421	-0.075699	0.655654
C39	C	1.209706	0.078869	0.639844
C40	C	1.218137	0.069728	0.522439
C41	C	1.293713	-0.012129	0.471646
C42	C	1.302147	-0.021265	0.354239
C43	C	1.159428	0.133298	0.338432
C44	C	1.150998	0.142440	0.455836
H45	H	0.912789	0.237480	-0.024342
O46	O	1.434292	-0.164438	0.489086
C47	C	1.575012	-0.316736	0.517148
C48	C	1.491870	-0.226658	0.572970
H49	H	1.621602	-0.367052	0.584941
H50	H	1.532559	-0.368962	0.467139
H51	H	1.632481	-0.280827	0.458018
H52	H	1.434378	-0.262476	0.632151
H53	H	1.534394	-0.174444	0.622909
O54	O	1.136146	0.158273	0.689161
C55	C	0.949674	0.238700	0.717136
C56	C	1.032870	0.148713	0.661237
H57	H	0.866160	0.231015	0.694561
H58	H	0.955093	0.232736	0.812501
H59	H	0.966196	0.319022	0.685666
H60	H	1.016404	0.068349	0.692617
H61	H	1.027433	0.154771	0.565878
H62	H	1.363688	-0.087915	0.312884
H63	H	1.407091	-0.134910	0.709879
H64	H	1.089462	0.209084	0.497206
O65	O	1.094151	0.204053	0.273895
C66	C	0.951667	0.358293	0.270612
C67	C	1.025535	0.278251	0.343830
H68	H	0.896156	0.418288	0.327126
H69	H	1.002016	0.401962	0.210756
H70	H	0.902091	0.313829	0.219743
H71	H	1.075125	0.322632	0.394769
H72	H	0.975124	0.234583	0.403616
O73	O	0.965006	-0.126549	0.012907
C74	C	0.976188	-0.316067	0.032378
C75	C	0.902623	-0.206004	0.021140
H76	H	0.925779	-0.380335	0.039061
H77	H	1.034225	-0.330803	-0.044812
H78	H	1.023028	-0.318532	0.111291
H79	H	0.855713	-0.203460	-0.057728
H80	H	0.844654	-0.191314	0.098387
O81	O	1.243495	-0.263663	0.229157
C82	C	1.228542	-0.259385	0.432026
C83	C	1.234798	-0.327656	0.326240
H84	H	1.221487	-0.311089	0.510543
H85	H	1.303850	-0.224515	0.433665
H86	H	1.155574	-0.191977	0.430174
H87	H	1.307720	-0.395114	0.328022
H88	H	1.159439	-0.362445	0.324641
O89	O	1.272276	-0.294525	-0.171760
C90	C	1.192828	-0.161165	-0.304406
C91	C	1.182875	-0.212189	-0.186518
H92	H	1.120548	-0.094601	-0.316385
H93	H	1.268839	-0.127020	-0.312912
H94	H	1.196438	-0.224162	-0.371234
H95	H	1.179221	-0.149253	-0.119619
H96	H	1.106877	-0.246359	-0.178108
O97	O	0.546787	0.184142	-0.018748
C98	C	0.486157	0.358180	0.060835
C99	C	0.559732	0.248124	0.072086
H100	H	0.496581	0.409932	0.134275
H101	H	0.507886	0.397903	-0.021864
H102	H	0.399469	0.348149	0.061799
H103	H	0.646443	0.258060	0.071171
H104	H	0.537912	0.208438	0.154774
H105	H	0.800018	-0.194565	0.019929
H106	H	1.273373	-0.472469	-0.240006
H107	H	0.599072	-0.179872	0.018410
H108	H	1.240917	-0.640398	0.149070
O109	O	0.701461	0.267969	-0.027525
C110	C	0.690266	0.457498	-0.046870
C111	C	0.763828	0.347442	-0.035564
H112	H	0.740658	0.521783	-0.053349
H113	H	0.643476	0.460082	-0.125836
H114	H	0.632185	0.472107	0.030293
H115	H	0.821971	0.332762	-0.112667
H116	H	0.810543	0.344911	0.043448
O117	O	1.237114	-0.477361	0.250849
C118	C	1.225563	-0.637316	0.358074
C119	C	1.235364	-0.586340	0.240141
H120	H	1.224122	-0.725428	0.349456
H121	H	1.296756	-0.628433	0.407711
H122	H	1.148470	-0.595796	0.404368
H123	H	1.312414	-0.627824	0.193752
H124	H	1.164116	-0.595210	0.190589
O125	O	1.268255	-0.678741	-0.235066
C126	C	1.187997	-0.705363	-0.407524
C127	C	1.181734	-0.637096	-0.301735
H128	H	1.118042	-0.671733	-0.461444
H129	H	1.266353	-0.704163	-0.458245
H130	H	1.184196	-0.790791	-0.381154
H131	H	1.185491	-0.551639	-0.328006
H132	H	1.103384	-0.638386	-0.251040
