data_functionalizedCrystal
_audit_creation_method	'MofGen! by Chris Wilmer'
_symmetry_space_group_name_H-M	'P1'
_symmetry_Int_Tables_number	1
_symmetry_cell_setting	triclinic
loop_
_symmetry_equiv_pos_as_xyz
  x,y,z
_cell_length_a	11.892095
_cell_length_b	12.784902
_cell_length_c	12.811415
_cell_angle_alpha	101.399422
_cell_angle_beta	99.324738
_cell_angle_gamma	93.491356
loop_
_atom_site_label
_atom_site_type_symbol
_atom_site_fract_x
_atom_site_fract_y
_atom_site_fract_z
O1	O	0.095454	-1.403456	0.014009
O2	O	0.100096	-1.093865	0.059302
O3	O	0.081907	-1.257585	-0.118083
O4	O	0.113642	-1.239736	0.191394
O5	O	-0.107614	-1.271246	-0.132843
O6	O	-0.089425	-1.107526	0.044542
O7	O	-0.094067	-1.417117	-0.000751
Zn8	Zn	-0.121837	-1.264490	0.019552
Zn9	Zn	0.127865	-1.246492	0.038999
O10	O	-0.075879	-1.253397	0.176634
C11	C	0.005637	-1.061087	0.054867
C12	C	0.006535	-0.943067	0.063632
N13	N	-0.292252	-1.276781	0.006278
C14	C	-0.011758	-0.747219	-0.114940
C15	C	-0.010915	-0.636329	-0.106710
C16	C	0.009072	-0.610396	0.088321
C17	C	0.008229	-0.721286	0.080091
C18	C	-0.002188	-0.789694	-0.021543
C19	C	-0.003039	-0.900586	-0.029772
C20	C	0.016956	-0.874650	0.165258
C21	C	0.017799	-0.763760	0.173488
N22	N	0.298280	-1.234209	0.052263
C23	C	0.520748	-1.362308	-0.086028
C24	C	0.640039	-1.353716	-0.076763
C25	C	0.656158	-1.208437	0.080062
C26	C	0.536866	-1.217029	0.070797
C27	C	0.469165	-1.293967	-0.012252
C28	C	0.349870	-1.302554	-0.021521
C29	C	0.365991	-1.157281	0.135309
C30	C	0.485283	-1.148688	0.144574
C31	C	-0.016885	-1.263834	-0.164801
C32	C	-0.028897	-1.262090	-0.282017
C33	C	0.000393	-0.449895	0.003683
C34	C	-0.000502	-0.567915	-0.005083
C35	C	0.155169	-1.243898	-0.486170
C36	C	0.143888	-1.242258	-0.596304
C37	C	-0.062741	-1.257163	-0.612418
C38	C	-0.051459	-1.258802	-0.502284
C39	C	0.057499	-1.252171	-0.439164
C40	C	0.068780	-1.253819	-0.329030
C41	C	-0.137848	-1.268716	-0.345145
C42	C	-0.149129	-1.267076	-0.455279
C43	C	0.022916	-1.247147	0.223352
C44	C	0.034936	-1.248892	0.340568
H45	H	-0.011523	-0.956283	-0.112528
Br46	Br	-0.210600	-1.266123	-0.698090
Br47	Br	0.303035	-1.234920	-0.400507
Br48	Br	0.428863	-1.466706	-0.198748
H49	H	0.682034	-1.409367	-0.136838
H50	H	-0.237840	-1.272471	-0.506685
H51	H	0.017568	-0.554679	0.171067
Br52	Br	-0.025915	-0.840065	-0.252868
Br53	Br	0.276445	-1.231022	-0.660093
Br54	Br	-0.023894	-0.578687	-0.233467
Br55	Br	0.029919	-0.932300	0.292017
H56	H	0.540419	-1.086049	0.212194
Br57	Br	0.295975	-1.064518	0.235430
H58	H	-0.217378	-1.275457	-0.306863
Br59	Br	0.748049	-1.104041	0.192779
H60	H	0.026285	-0.708047	0.256236
Br61	Br	0.257991	-1.406962	-0.134233
Br62	Br	0.216649	-1.244826	-0.243369
