data_functionalizedCrystal
_audit_creation_method	'MofGen! by Chris Wilmer'
_symmetry_space_group_name_H-M	'P1'
_symmetry_Int_Tables_number	1
_symmetry_cell_setting	triclinic
loop_
_symmetry_equiv_pos_as_xyz
  x,y,z
_cell_length_a	17.699083
_cell_length_b	10.489741
_cell_length_c	16.176319
_cell_angle_alpha	89.993511
_cell_angle_beta	89.998611
_cell_angle_gamma	83.911094
loop_
_atom_site_label
_atom_site_type_symbol
_atom_site_fract_x
_atom_site_fract_y
_atom_site_fract_z
O1	O	1.005134	0.161296	-0.068630
O2	O	1.505134	0.661296	0.431370
O3	O	0.784893	0.182281	-0.068657
O4	O	1.284893	0.682281	0.431343
O5	O	0.900025	-0.013903	-0.068638
O6	O	1.400025	0.486097	0.431362
O7	O	0.890002	0.357479	-0.068649
O8	O	1.390002	0.857479	0.431351
O9	O	0.900009	-0.013915	0.068855
O10	O	1.400009	0.486085	0.568855
O11	O	0.784877	0.182268	0.068836
O12	O	1.284877	0.682268	0.568836
O13	O	1.005118	0.161283	0.068863
O14	O	1.505118	0.661283	0.568863
Cu15	Cu	0.894996	0.171775	0.081404
Cu16	Cu	1.394996	0.671775	0.581404
Cu17	Cu	0.895015	0.171789	-0.081198
Cu18	Cu	1.395015	0.671789	0.418802
O19	O	0.889986	0.357467	0.068844
O20	O	1.389986	0.857467	0.568844
C21	C	0.756683	0.181523	0.000086
C22	C	1.256683	0.681523	0.500086
C23	C	0.672650	0.179267	0.000076
C24	C	1.172650	0.679267	0.500076
C25	C	0.624782	0.294422	0.000073
C26	C	1.124782	0.794422	0.500073
C27	C	0.545825	0.292295	0.000083
C28	C	1.045825	0.792295	0.500083
C29	C	0.514737	0.175011	0.000091
C30	C	1.014737	0.675011	0.500091
C31	C	0.562611	0.059847	0.000097
C32	C	1.062611	0.559847	0.500097
C33	C	0.641567	0.061975	0.000092
C34	C	1.141567	0.561975	0.500092
C35	C	0.244192	0.051260	0.000118
C36	C	0.744192	0.551260	0.500118
C37	C	0.165230	0.049140	0.000120
C38	C	0.665230	0.549140	0.500120
C39	C	0.148450	0.281580	0.000109
C40	C	0.648450	0.781580	0.500109
C41	C	0.227406	0.283709	0.000104
C42	C	0.727406	0.783709	0.500104
C43	C	0.275273	0.168545	0.000114
C44	C	0.775273	0.668545	0.500114
C45	C	0.360887	0.170853	0.000104
C46	C	0.860887	0.670853	0.500104
C47	C	0.429124	0.172702	0.000096
C48	C	0.929124	0.672702	0.500096
C49	C	0.899260	-0.061427	0.000108
C50	C	1.399260	0.438573	0.500108
C51	C	0.896995	-0.203014	0.000106
C52	C	1.396995	0.296986	0.500106
C53	C	0.823740	-0.269793	0.000091
C54	C	1.323740	0.230207	0.500091
C55	C	0.858337	-0.362565	0.067887
C56	C	1.358337	0.137435	0.567887
C57	C	0.858370	-0.362527	-0.067671
C58	C	1.358370	0.137473	0.432329
C59	C	0.931622	-0.293921	0.067958
C60	C	1.431622	0.206079	0.567958
C61	C	0.931645	-0.293874	-0.067661
C62	C	1.431645	0.206126	0.432339
C63	C	0.966296	-0.386619	0.000151
C64	C	1.466296	0.113381	0.500151
C65	C	1.033328	0.162042	0.000118
C66	C	1.533328	0.662042	0.500118
C67	C	1.117361	0.164297	0.000123
C68	C	1.617361	0.664297	0.500123
C69	C	0.890751	0.404991	0.000096
C70	C	1.390751	0.904991	0.500096
C71	C	0.893016	0.546578	0.000093
C72	C	1.393016	1.046578	0.500093
N73	N	0.894988	0.171764	0.195769
N74	N	1.394988	0.671764	0.695769
N75	N	0.895029	0.171790	-0.195563
N76	N	1.395029	0.671790	0.304437
C77	C	0.945984	0.084929	0.239042
C78	C	1.445984	0.584929	0.739042
C79	C	0.945988	0.084928	0.325589
C80	C	1.445988	0.584928	0.825589
C81	C	0.894999	0.171768	0.368862
C82	C	1.394999	0.671768	0.868862
C83	C	0.843997	0.258607	0.325583
C84	C	1.343997	0.758607	0.825583
C85	C	0.843990	0.258601	0.239037
C86	C	1.343990	0.758601	0.739037
C87	C	0.844023	0.258631	0.674611
C88	C	1.344023	0.758631	1.174611
C89	C	0.844036	0.258632	0.761163
C90	C	1.344036	0.758632	1.261163
C91	C	0.946021	0.084957	0.761162
C92	C	1.446021	0.584957	1.261162
C93	C	0.946014	0.084951	0.674617
C94	C	1.446014	0.584951	1.174617
C95	C	0.895010	0.171785	0.631346
C96	C	1.395010	0.671785	1.131346
C97	C	0.895006	0.171784	0.537502
C98	C	1.395006	0.671784	1.037502
C99	C	0.895006	0.171776	0.462704
C100	C	1.395006	0.671776	0.962704
H101	H	0.109467	0.375352	0.000105
H102	H	0.609467	0.875352	0.500105
N103	N	0.819481	-0.400687	-0.139565
N104	N	1.319481	0.099313	0.360435
N105	N	0.761207	-0.457385	-0.132040
N106	N	1.261207	0.042615	0.367960
H107	H	0.733736	-0.484334	-0.182812
H108	H	1.233736	0.015666	0.317188
H109	H	0.283156	-0.042514	0.000127
H110	H	0.783156	0.457486	0.500127
N111	N	0.748180	-0.206113	0.000169
N112	N	1.248180	0.293887	0.500169
N113	N	0.703962	-0.223982	0.058284
N114	N	1.203962	0.276018	0.558284
H115	H	0.650599	-0.179008	0.058343
H116	H	1.150599	0.320992	0.558343
N117	N	0.998113	-0.003745	0.630429
N118	N	1.498113	0.496255	1.130429
N119	N	1.043646	-0.081267	0.669076
N120	N	1.543646	0.418733	1.169076
H121	H	1.080444	-0.143911	0.637870
H122	H	1.580444	0.356089	1.137870
N123	N	0.998024	-0.003835	0.194829
N124	N	1.498024	0.496165	0.694829
N125	N	0.996294	-0.121714	0.204512
N126	N	1.496294	0.378286	0.704512
H127	H	1.033030	-0.184425	0.173279
H128	H	1.533030	0.315575	0.673279
N129	N	0.970501	-0.255652	-0.139563
N130	N	1.470501	0.244348	0.360437
N131	N	0.945548	-0.277245	-0.209906
N132	N	1.445548	0.222755	0.290094
H133	H	0.972986	-0.250250	-0.260694
H134	H	1.472986	0.249750	0.239306
N135	N	0.791918	0.347329	0.630431
N136	N	1.291918	0.847329	1.130431
N137	N	0.746397	0.424855	0.669081
N138	N	1.246397	0.924855	1.169081
H139	H	0.709594	0.487503	0.637876
H140	H	1.209594	0.987503	1.137876
N141	N	0.998104	-0.003759	0.805376
N142	N	1.498104	0.496241	1.305376
N143	N	0.973665	-0.082884	0.853676
N144	N	1.473665	0.417116	1.353676
H145	H	1.010448	-0.145538	0.884900
H146	H	1.510448	0.354462	1.384900
N147	N	0.998082	-0.003786	0.369777
N148	N	1.498082	0.496214	0.869777
N149	N	1.043606	-0.081311	0.331132
N150	N	1.543606	0.418689	0.831132
H151	H	1.080399	-0.143972	0.362339
H152	H	1.580399	0.356028	0.862339
N153	N	0.791933	0.347334	0.805354
N154	N	1.291933	0.847334	1.305354
N155	N	0.721971	0.345716	0.795700
N156	N	1.221971	0.845716	1.295700
H157	H	0.685174	0.408358	0.826909
H158	H	1.185174	0.908358	1.326909
H159	H	0.802477	0.329310	0.360821
H160	H	1.302477	0.829310	0.860821
H161	H	0.802463	0.329309	0.203806
H162	H	1.302463	0.829309	0.703806
H163	H	0.506854	0.386067	0.000080
H164	H	1.006854	0.886067	0.500080
N165	N	0.656522	0.414239	0.000057
N166	N	1.156522	0.914239	0.500057
N167	N	0.613770	0.517047	0.000056
N168	N	1.113770	1.017047	0.500056
H169	H	0.636183	0.601672	0.000047
H170	H	1.136183	1.101672	0.500047
H171	H	0.252713	0.379213	0.000094
H172	H	0.752713	0.879213	0.500094
H173	H	0.139922	-0.046372	0.000128
H174	H	0.639922	0.453628	0.500128
H175	H	0.827334	-0.393005	0.125195
H176	H	1.327334	0.106995	0.625195
H177	H	0.537293	-0.035648	0.000115
H178	H	1.037293	0.464352	0.500115
N179	N	0.970457	-0.256003	0.139953
N180	N	1.470457	0.243997	0.639953
N181	N	0.996408	-0.338454	0.191224
N182	N	1.496408	0.161546	0.691224
H183	H	1.023832	-0.311673	0.242072
H184	H	1.523832	0.188327	0.742072
N185	N	0.690477	-0.055640	0.000102
N186	N	1.190477	0.444360	0.500102
N187	N	0.736408	-0.080380	0.058060
N188	N	1.236408	0.419620	0.558060
H189	H	0.770953	-0.163448	0.058071
H190	H	1.270953	0.336552	0.558071
N191	N	1.041923	-0.450015	0.000211
N192	N	1.541923	0.049985	0.500211
N193	N	1.086022	-0.432374	0.058475
N194	N	1.586022	0.067626	0.558475
H195	H	1.139434	-0.477148	0.058521
H196	H	1.639434	0.022852	0.558521
