data_functionalizedCrystal
_audit_creation_method	'MofGen! by Chris Wilmer'
_symmetry_space_group_name_H-M	'P1'
_symmetry_Int_Tables_number	1
_symmetry_cell_setting	triclinic
loop_
_symmetry_equiv_pos_as_xyz
  x,y,z
_cell_length_a	17.699077
_cell_length_b	15.944545
_cell_length_c	16.176319
_cell_angle_alpha	89.991096
_cell_angle_beta	89.993140
_cell_angle_gamma	83.388374
loop_
_atom_site_label
_atom_site_type_symbol
_atom_site_fract_x
_atom_site_fract_y
_atom_site_fract_z
O1	O	1.004261	0.106198	-0.068739
O2	O	0.783905	0.120023	-0.068744
O3	O	0.900103	-0.009177	-0.068732
O4	O	0.888063	0.235399	-0.068752
O5	O	0.900087	-0.009185	0.068761
O6	O	0.783889	0.120015	0.068749
O7	O	1.004245	0.106190	0.068754
Cu8	Cu	0.894066	0.113102	0.081306
Cu9	Cu	0.894084	0.113112	-0.081296
O10	O	0.888047	0.235391	0.068742
C11	C	0.755699	0.119525	0.000002
C12	C	0.671678	0.118041	0.000001
C13	C	0.632201	0.117338	0.074949
C14	C	0.553256	0.115930	0.074950
C15	C	0.513789	0.115232	0.000002
C16	C	0.553272	0.115934	-0.074952
C17	C	0.632217	0.117335	-0.074953
C18	C	0.234900	0.110281	-0.074953
C19	C	0.155950	0.108882	-0.074948
C20	C	0.155939	0.108876	0.074949
C21	C	0.234883	0.110278	0.074949
C22	C	0.274360	0.110974	-0.000005
C23	C	0.359961	0.112499	-0.000005
C24	C	0.428189	0.113714	0.000001
C25	C	0.899596	-0.040474	0.000016
C26	C	0.898100	-0.133717	0.000018
C27	C	0.821605	-0.404187	-0.000000
C28	C	0.858493	-0.353676	-0.067791
C29	C	0.892765	-0.469350	-0.000006
C30	C	0.858496	-0.353712	0.067766
C31	C	0.895382	-0.304442	0.000007
C32	C	0.929634	-0.420067	-0.067853
C33	C	0.929626	-0.420106	0.067766
C34	C	0.966566	-0.369627	-0.000042
C35	C	0.891255	-0.564349	-0.000014
C36	C	0.896898	-0.209446	0.000010
C37	C	1.032451	0.106689	0.000006
C38	C	1.116472	0.108172	0.000002
C39	C	0.888554	0.266688	-0.000008
C40	C	0.890050	0.359931	-0.000015
N41	N	0.894058	0.113095	0.195671
N42	N	0.894098	0.113112	-0.195661
C43	C	0.945526	0.055908	0.238941
C44	C	0.945529	0.055907	0.325488
C45	C	0.894068	0.113097	0.368764
C46	C	0.842595	0.170287	0.325488
C47	C	0.842588	0.170283	0.238942
C48	C	0.842621	0.170303	0.674516
C49	C	0.842633	0.170304	0.761068
C50	C	0.945562	0.055927	0.761061
C51	C	0.945555	0.055923	0.674516
C52	C	0.894080	0.113109	0.631248
C53	C	0.894075	0.113108	0.537404
C54	C	0.894076	0.113103	0.462606
H55	H	0.664358	0.117909	-0.135983
N56	N	0.967298	-0.456271	-0.139841
N57	N	0.943341	-0.434212	-0.210143
H58	H	0.969938	-0.459784	-0.260986
N59	N	0.998060	-0.002524	0.194712
N60	N	0.974005	-0.054609	0.146438
H61	H	1.011097	-0.095882	0.115192
N62	N	0.512972	0.115227	-0.151519
N63	N	0.548231	0.115855	-0.218432
H64	H	0.519771	0.115357	-0.272510
N65	N	0.115637	0.108143	-0.151510
N66	N	0.078567	0.048173	-0.168216
H67	H	0.050096	0.047649	-0.222285
N68	N	0.672525	0.118041	0.151501
N69	N	0.743010	0.119290	0.151494
H70	H	0.771489	0.119783	0.205561
N71	N	0.998128	-0.002510	0.805259
N72	N	0.997090	-0.080148	0.795602
H73	H	1.034215	-0.121418	0.826814
H74	H	0.800677	0.216849	0.203713
N75	N	0.744734	-0.423684	-0.000090
N76	N	0.731265	-0.498936	0.000487
H77	H	0.676976	-0.512708	0.000420
H78	H	0.828447	-0.324674	-0.125105
N79	N	0.275208	0.110997	0.151500
N80	N	0.312281	0.170963	0.168216
H81	H	0.340761	0.171469	0.222281
H82	H	1.027897	-0.354267	-0.000079
N83	N	0.967281	-0.456503	0.139673
N84	N	0.942995	-0.435064	0.210012
H85	H	0.969582	-0.460770	0.260804
H86	H	0.828424	-0.324737	0.125076
H87	H	0.800725	0.216877	0.796301
N88	N	0.998105	-0.002517	0.369673
N89	N	1.044050	-0.053573	0.331025
H90	H	1.081184	-0.094839	0.362230
H91	H	0.987462	0.009356	0.639283
H92	H	0.800709	0.216867	0.639294
N93	N	0.790028	0.228694	0.369703
N94	N	0.790040	0.228691	0.446975
H95	H	0.752914	0.269944	0.478202
N96	N	0.512944	0.115205	0.151516
N97	N	0.548191	0.115831	0.218428
H98	H	0.519721	0.115316	0.272507
N99	N	0.275206	0.110992	-0.151521
N100	N	0.239955	0.110371	-0.218431
H101	H	0.268423	0.110874	-0.272512
N102	N	0.115602	0.108166	0.151508
N103	N	0.045116	0.106915	0.151503
H104	H	0.016628	0.106417	0.205571
