data_functionalizedCrystal
_audit_creation_method	'MofGen! by Chris Wilmer'
_symmetry_space_group_name_H-M	'P1'
_symmetry_Int_Tables_number	1
_symmetry_cell_setting	triclinic
loop_
_symmetry_equiv_pos_as_xyz
  x,y,z
_cell_length_a	19.805405
_cell_length_b	19.805407
_cell_length_c	11.169409
_cell_angle_alpha	89.974391
_cell_angle_beta	90.039857
_cell_angle_gamma	89.974605
loop_
_atom_site_label
_atom_site_type_symbol
_atom_site_fract_x
_atom_site_fract_y
_atom_site_fract_z
Zn1	Zn	-0.269427	-1.034766	0.678665
Zn2	Zn	-0.382636	-1.034672	0.477956
Zn3	Zn	-0.269464	-0.921572	0.477979
Zn4	Zn	-0.382577	-0.921544	0.678580
O5	O	-0.326026	-0.978138	0.578295
O6	O	-0.284453	-1.129470	0.652066
O7	O	-0.367664	-1.019641	0.310009
O8	O	-0.174743	-0.936638	0.504646
O9	O	-0.367627	-1.129401	0.504606
O10	O	-0.174715	-1.019801	0.652089
O11	O	-0.284517	-0.936547	0.310026
O12	O	-0.284460	-0.826852	0.504564
O13	O	-0.367527	-0.936591	0.846541
O14	O	-0.367563	-0.826831	0.651945
O15	O	-0.284396	-1.019775	0.846604
O16	O	-0.477345	-1.019614	0.504524
O17	O	-0.477301	-0.936500	0.651922
C18	C	-0.326010	-0.802282	0.578248
C19	C	-0.326019	-0.727050	0.578257
C20	C	-0.369356	-0.691713	0.654872
C21	C	-0.369356	-0.621025	0.654886
C22	C	-0.326022	-0.585675	0.578277
C23	C	-0.282681	-0.621017	0.501658
C24	C	-0.282678	-0.691704	0.501652
C25	C	-0.282691	-0.335944	0.501685
C26	C	-0.282698	-0.265251	0.501695
C27	C	-0.369369	-0.265265	0.654919
C28	C	-0.369366	-0.335952	0.654912
C29	C	-0.326022	-0.371288	0.578298
C30	C	-0.326022	-0.447936	0.578286
C31	C	-0.326025	-0.509028	0.578282
C32	C	-0.501882	-0.978062	0.578237
C33	C	-0.577114	-0.978092	0.578252
C34	C	-0.612458	-1.021411	0.501583
C35	C	-0.683147	-1.021440	0.501609
C36	C	-0.718490	-0.978145	0.578300
C37	C	-0.683140	-0.934824	0.654979
C38	C	-0.612453	-0.934799	0.654957
C39	C	-0.968214	-0.934923	0.655067
C40	C	-1.038906	-0.934950	0.655080
C41	C	-1.038907	-1.021565	0.501719
C42	C	-0.968220	-1.021540	0.501698
C43	C	-0.932877	-0.978221	0.578380
C44	C	-0.856228	-0.978191	0.578352
C45	C	-0.795137	-0.978171	0.578323
C46	C	-0.149483	-0.978233	0.578380
C47	C	-0.074251	-0.978274	0.578416
C48	C	-0.325951	-0.978190	0.891338
C49	C	-0.325919	-0.978213	1.024738
C50	C	-0.326038	-0.154681	0.578331
C51	C	-0.326032	-0.229913	0.578317
C52	C	-0.326052	-0.978126	0.266470
C53	C	-0.325893	-0.978235	0.133071
H54	H	-0.404655	-0.364730	0.717291
H55	H	-0.404645	-0.592257	0.717272
H56	H	-0.404658	-0.236486	0.717306
H57	H	-0.404646	-0.720491	0.717252
H58	H	-0.247407	-0.236471	0.439311
H59	H	-0.583687	-1.056664	0.439127
H60	H	-0.711921	-1.056715	0.439176
H61	H	-0.939446	-1.056792	0.439245
H62	H	-0.247385	-0.720474	0.439270
H63	H	-0.247395	-0.592229	0.439288
H64	H	-1.067692	-1.056840	0.439286
H65	H	-1.067680	-0.899695	0.717541
H66	H	-0.247403	-0.364705	0.439292
H67	H	-0.939443	-0.899651	0.717502
H68	H	-0.711922	-0.899575	0.717427
H69	H	-0.583677	-0.899524	0.717391
