data_functionalizedCrystal
_audit_creation_method	'MofGen! by Chris Wilmer'
_symmetry_space_group_name_H-M	'P1'
_symmetry_Int_Tables_number	1
_symmetry_cell_setting	triclinic
loop_
_symmetry_equiv_pos_as_xyz
  x,y,z
_cell_length_a	23.532407
_cell_length_b	23.532355
_cell_length_c	22.610064
_cell_angle_alpha	89.997644
_cell_angle_beta	89.988412
_cell_angle_gamma	97.161913
loop_
_atom_site_label
_atom_site_type_symbol
_atom_site_fract_x
_atom_site_fract_y
_atom_site_fract_z
O1	O	-0.068986	0.755283	-0.049095
O2	O	0.431014	1.255283	0.450905
O3	O	-0.079020	0.589415	-0.049112
O4	O	0.420980	1.089415	0.450888
O5	O	0.008929	0.677351	-0.049110
O6	O	0.508929	1.177351	0.450890
O7	O	-0.156936	0.667347	-0.049097
O8	O	0.343064	1.167347	0.450903
O9	O	0.008916	0.677335	0.049259
O10	O	0.508916	1.177335	0.549259
O11	O	-0.079033	0.589400	0.049257
O12	O	0.420967	1.089400	0.549257
O13	O	-0.068999	0.755267	0.049274
O14	O	0.431001	1.255267	0.549274
Zn15	Zn	-0.074018	0.672331	0.064884
Zn16	Zn	0.425982	1.172331	0.564884
Zn17	Zn	-0.074001	0.672351	-0.064722
Zn18	Zn	0.425999	1.172351	0.435278
O19	O	-0.156949	0.667332	0.049273
O20	O	0.343051	1.167332	0.549273
C21	C	-0.078776	0.568191	0.000070
C22	C	0.421224	1.068191	0.500070
C23	C	-0.078022	0.504972	0.000063
C24	C	0.421978	1.004972	0.500063
C25	C	-0.073291	0.112950	0.053708
C26	C	0.426709	0.612950	0.553708
C27	C	-0.072573	0.053550	0.053710
C28	C	0.427427	0.553550	0.553710
O29	O	-0.072189	0.022825	0.099312
O30	O	0.427811	0.522825	0.599312
N31	N	-0.072211	0.023850	0.000090
N32	N	0.427789	0.523850	0.500090
C33	C	-0.072560	0.053554	-0.053537
C34	C	0.427440	0.553554	0.446463
O35	O	-0.072185	0.022837	-0.099146
O36	O	0.427815	0.522837	0.400854
C37	C	-0.073273	0.112953	-0.053539
C38	C	0.426727	0.612953	0.446461
C39	C	-0.073641	0.142649	0.000086
C40	C	0.426359	0.642649	0.500086
C41	C	-0.073659	0.142646	0.107328
C42	C	0.426341	0.642646	0.607328
C43	C	-0.074377	0.202041	0.107326
C44	C	0.425623	0.702041	0.607326
C45	C	-0.074728	0.231740	0.053703
C46	C	0.425272	0.731740	0.553703
C47	C	-0.074360	0.202044	0.000083
C48	C	0.425640	0.702044	0.500083
C49	C	-0.073618	0.142655	-0.107165
C50	C	0.426382	0.642655	0.392835
C51	C	-0.074331	0.202058	-0.107162
C52	C	0.425669	0.702058	0.392838
C53	C	-0.074699	0.231754	-0.053537
C54	C	0.425301	0.731754	0.446463
C55	C	-0.075429	0.291138	-0.053542
C56	C	0.424571	0.791138	0.446458
N57	N	-0.075792	0.320838	0.000079
N58	N	0.424208	0.820838	0.500079
C59	C	-0.075441	0.291139	0.053702
C60	C	0.424559	0.791139	0.553702
C61	C	-0.071061	-0.071188	-0.053530
C62	C	0.428939	0.428812	0.446470
C63	C	-0.070351	-0.130586	-0.053529
C64	C	0.429649	0.369414	0.446471
C65	C	-0.070364	-0.130585	0.053719
C66	C	0.429636	0.369415	0.553719
C67	C	-0.071077	-0.071186	0.053717
C68	C	0.428923	0.428814	0.553717
C69	C	-0.071423	-0.041488	0.000091
C70	C	0.428577	0.458512	0.500091
C71	C	-0.076951	0.415873	0.053692
C72	C	0.423049	0.915873	0.553692
C73	C	-0.077671	0.475273	0.053685
C74	C	0.422329	0.975273	0.553685
C75	C	-0.077656	0.475267	-0.053562
C76	C	0.422344	0.975267	0.446438
C77	C	-0.076938	0.415872	-0.053555
C78	C	0.423062	0.915872	0.446445
C79	C	-0.076583	0.386177	0.000077
C80	C	0.423417	0.886177	0.500077
O81	O	-0.075812	0.321902	-0.099120
O82	O	0.424188	0.821902	0.400880
O83	O	-0.075809	0.321864	0.099303
O84	O	0.424191	0.821864	0.599303
C85	C	-0.178158	0.667594	0.000090
C86	C	0.321842	1.167594	0.500090
C87	C	-0.241375	0.668360	0.000096
C88	C	0.258625	1.168360	0.500096
C89	C	-0.640487	0.621125	0.000060
C90	C	-0.140487	1.121125	0.500060
C91	C	-0.699887	0.621837	0.000056
C92	C	-0.199887	1.121837	0.500056
O93	O	-0.736640	0.578050	0.000030
O94	O	-0.236640	1.078050	0.500030
N95	N	-0.722504	0.674114	0.000063
N96	N	-0.222504	1.174114	0.500063
C97	C	-0.685717	0.725684	0.000067
C98	C	-0.185717	1.225684	0.500067
O99	O	-0.710408	0.770216	0.000071
O100	O	-0.210408	1.270216	0.500071
C101	C	-0.626318	0.724972	0.000067
C102	C	-0.126318	1.224972	0.500067
C103	C	-0.603705	0.672691	0.000066
C104	C	-0.103705	1.172691	0.500066
C105	C	-0.617874	0.568849	0.000059
C106	C	-0.117874	1.068849	0.500059
C107	C	-0.558478	0.568137	0.000065
C108	C	-0.058478	1.068137	0.500065
C109	C	-0.521695	0.619703	0.000071
C110	C	-0.021695	1.119703	0.500071
C111	C	-0.544309	0.671980	0.000072
C112	C	-0.044309	1.171980	0.500072
C113	C	-0.589532	0.776541	0.000067
C114	C	-0.089532	1.276541	0.500067
C115	C	-0.530129	0.775824	0.000066
C116	C	-0.030129	1.275824	0.500066
C117	C	-0.507516	0.723543	0.000066
C118	C	-0.007516	1.223543	0.500066
C119	C	-0.448130	0.722834	0.000083
C120	C	0.051870	1.222834	0.500083
N121	N	-0.425514	0.670556	0.000077
N122	N	0.074486	1.170556	0.500077
C123	C	-0.462296	0.618991	0.000071
C124	C	0.037704	1.118991	0.500071
C125	C	-0.810459	0.727175	0.000066
C126	C	-0.310459	1.227175	0.500066
C127	C	-0.869857	0.727888	0.000071
C128	C	-0.369857	1.227888	0.500071
C129	C	-0.884023	0.624041	0.000059
C130	C	-0.384023	1.124041	0.500059
C131	C	-0.824624	0.623329	0.000059
C132	C	-0.324624	1.123329	0.500059
C133	C	-0.787842	0.674898	0.000060
C134	C	-0.287842	1.174898	0.500060
C135	C	-0.337560	0.617501	0.000082
C136	C	0.162440	1.117501	0.500082
C137	C	-0.278158	0.616794	0.000090
C138	C	0.221842	1.116794	0.500090
C139	C	-0.263996	0.720642	0.000098
C140	C	0.236004	1.220642	0.500098
C141	C	-0.323393	0.721349	0.000094
C142	C	0.176607	1.221349	0.500094
C143	C	-0.360174	0.669774	0.000083
C144	C	0.139826	1.169774	0.500083
O145	O	-0.411343	0.766598	0.000107
O146	O	0.088657	1.266598	0.500107
O147	O	-0.437597	0.574467	0.000058
O148	O	0.062403	1.074467	0.500058
C149	C	0.030139	0.677088	0.000071
C150	C	0.530139	1.177088	0.500071
C151	C	0.093356	0.676322	0.000061
C152	C	0.593356	1.176322	0.500061
C153	C	-0.069244	0.776491	0.000091
C154	C	0.430756	1.276491	0.500091
C155	C	-0.069998	0.839710	0.000094
C156	C	0.430002	1.339710	0.500094
N157	N	-0.074029	0.672321	0.153336
N158	N	0.425971	1.172321	0.653336
N159	N	-0.073986	0.672366	-0.153174
N160	N	0.426014	1.172366	0.346826
C161	C	-0.035063	0.711291	0.561979
C162	C	0.464937	1.211291	1.061979
C163	C	-0.035059	0.711294	0.623898
C164	C	0.464941	1.211294	1.123898
O165	O	-0.001937	0.744403	0.655918
O166	O	0.498063	1.244403	1.155918
N167	N	-0.073990	0.672351	0.654874
N168	N	0.426010	1.172351	1.154874
C169	C	-0.112923	0.633399	0.623925
C170	C	0.387077	1.133399	1.123925
O171	O	-0.146036	0.600275	0.655958
O172	O	0.353964	1.100275	1.155958
C173	C	-0.112924	0.633394	0.562007
C174	C	0.387076	1.133394	1.062007
C175	C	-0.073995	0.672343	0.531035
C176	C	0.426005	1.172343	1.031035
C177	C	0.003863	0.750237	0.531007
C178	C	0.503863	1.250237	1.031007
C179	C	0.003858	0.750234	0.469091
C180	C	0.503858	1.250234	0.969091
C181	C	-0.035073	0.711286	0.438147
C182	C	0.464927	1.211286	0.938147
C183	C	-0.074000	0.672340	0.469119
C184	C	0.426000	1.172340	0.969119
C185	C	-0.151854	0.594439	0.531060
C186	C	0.348146	1.094439	1.031060
C187	C	-0.151851	0.594437	0.469137
C188	C	0.348149	1.094437	0.969137
C189	C	-0.112922	0.633386	0.438165
C190	C	0.387078	1.133386	0.938165
C191	C	-0.112936	0.633390	0.376260
C192	C	0.387064	1.133390	0.876260
N193	N	-0.074006	0.672333	0.345285
N194	N	0.425994	1.172333	0.845285
C195	C	-0.035074	0.711281	0.376228
C196	C	0.464926	1.211281	0.876228
C197	C	-0.112917	0.633412	0.753959
C198	C	0.387083	1.133412	1.253959
C199	C	-0.112919	0.633419	0.815877
C200	C	0.387081	1.133419	1.315877
C201	C	-0.035055	0.711314	0.815845
C202	C	0.464945	1.211314	1.315845
C203	C	-0.035056	0.711309	0.753927
C204	C	0.464944	1.211309	1.253927
C205	C	-0.073987	0.672355	0.722984
C206	C	0.426013	1.172355	1.222984
C207	C	-0.035088	0.711273	0.246201
C208	C	0.464912	1.211273	0.746201
C209	C	-0.035098	0.711269	0.184280
C210	C	0.464902	1.211269	0.684280
C211	C	-0.112960	0.633373	0.184317
C212	C	0.387040	1.133373	0.684317
C213	C	-0.112953	0.633379	0.246232
C214	C	0.387047	1.133379	0.746232
C215	C	-0.074012	0.672331	0.277173
C216	C	0.425988	1.172331	0.777173
O217	O	-0.146040	0.600296	0.344201
O218	O	0.353960	1.100296	0.844201
O219	O	-0.001962	0.744395	0.344189
O220	O	0.498038	1.244395	0.844189
H221	H	-0.076667	0.391701	0.097365
H222	H	0.423333	0.891701	0.597365
H223	H	-0.003354	0.743027	0.841051
H224	H	0.496646	1.243027	1.341051
H225	H	-0.074674	0.226215	0.150992
H226	H	0.425326	0.726215	0.650992
C227	C	-0.078075	0.507939	0.112673
C228	C	0.421925	1.007939	0.612673
H229	H	-0.078558	0.547568	0.104995
H230	H	0.421442	1.047568	0.604995
H231	H	-0.044745	0.502739	0.134703
H232	H	0.455255	1.002739	0.634703
H233	H	-0.111181	0.493665	0.134706
H234	H	0.388819	0.993665	0.634706
C235	C	-0.253284	0.559285	0.000087
C236	C	0.246716	1.059285	0.500087
H237	H	-0.212640	0.566243	0.000095
H238	H	0.287360	1.066243	0.500095
H239	H	-0.265921	0.538073	-0.034220
H240	H	0.234079	1.038073	0.465780
H241	H	-0.265941	0.538063	0.034392
H242	H	0.234059	1.038063	0.534392
C243	C	-0.924492	0.567319	0.000042
C244	C	-0.424492	1.067319	0.500042
H245	H	-0.963105	0.575235	0.000035
H246	H	-0.463105	1.075235	0.500035
H247	H	-0.917683	0.545856	0.034341
H248	H	-0.417683	1.045856	0.534341
H249	H	-0.917659	0.545879	-0.034270
H250	H	-0.417659	1.045879	0.465730
H251	H	-0.070060	-0.154761	-0.097195
H252	H	0.429940	0.345239	0.402805
C253	C	-0.155778	0.590529	0.150271
C254	C	0.344222	1.090529	0.650271
H255	H	-0.150196	0.596104	0.108959
H256	H	0.349804	1.096104	0.608959
H257	H	-0.193759	0.596489	0.160422
H258	H	0.306241	1.096489	0.660422
H259	H	-0.149782	0.552557	0.160420
H260	H	0.350218	1.052557	0.660420
C261	C	-0.155742	0.590576	0.849939
C262	C	0.344258	1.090576	1.349939
H263	H	-0.178923	0.567378	0.822637
H264	H	0.321077	1.067378	1.322637
H265	H	-0.179344	0.610921	0.874102
H266	H	0.320656	1.110921	1.374102
H267	H	-0.135372	0.566984	0.874086
H268	H	0.364628	1.066984	1.374086
H269	H	-0.073317	0.118487	-0.150832
H270	H	0.426683	0.618487	0.349168
H271	H	-0.183553	0.562714	0.443946
H272	H	0.316447	1.062714	0.943946
C273	C	-0.155752	0.590568	0.719927
C274	C	0.344248	1.090568	1.219927
H275	H	-0.178938	0.567382	0.747247
H276	H	0.321062	1.067382	1.247247
H277	H	-0.135396	0.566972	0.695769
H278	H	0.364604	1.066972	1.195769
H279	H	-0.179356	0.610921	0.695779
H280	H	0.320644	1.110921	1.195779
H281	H	-0.074613	0.226236	-0.150832
H282	H	0.425387	0.726236	0.349168
C283	C	-0.076551	0.383203	-0.112540
C284	C	0.423449	0.883203	0.387460
H285	H	-0.076865	0.409399	-0.144475
H286	H	0.423135	0.909399	0.355525
H287	H	-0.109488	0.355497	-0.114759
H288	H	0.390512	0.855497	0.385241
H289	H	-0.043052	0.364567	-0.114780
H290	H	0.456948	0.864567	0.385220
H291	H	-0.003378	0.742991	0.271386
H292	H	0.496622	1.242991	0.771386
C293	C	-0.078036	0.507944	-0.112542
C294	C	0.421964	1.007944	0.387458
H295	H	-0.078509	0.547573	-0.104859
H296	H	0.421491	1.047573	0.395141
H297	H	-0.111128	0.493681	-0.134580
H298	H	0.388872	0.993681	0.365420
H299	H	-0.044692	0.502747	-0.134571
H300	H	0.455308	1.002747	0.365429
H301	H	-0.341805	0.763920	0.000102
H302	H	0.158195	1.263920	0.500102
H303	H	0.035569	0.781953	0.556196
H304	H	0.535569	1.281953	1.056196
H305	H	-0.073372	0.118472	0.150996
H306	H	0.426628	0.618472	0.650996
C307	C	0.007717	0.754121	0.150212
C308	C	0.507717	1.254121	0.650212
H309	H	0.002136	0.748550	0.108902
H310	H	0.502136	1.248550	0.608902
H311	H	0.045699	0.748163	0.160345
H312	H	0.545699	1.248163	0.660345
H313	H	0.001719	0.792092	0.160365
H314	H	0.501719	1.292092	0.660365
C315	C	-0.378010	0.560770	0.000075
C316	C	0.121990	1.060770	0.500075
H317	H	-0.356028	0.529538	0.000081
H318	H	0.143972	1.029538	0.500081
H319	H	-0.401469	0.558887	-0.034228
H320	H	0.098531	1.058887	0.465772
H321	H	-0.401483	0.558883	0.034383
H322	H	0.098517	1.058883	0.534383
C323	C	-0.155752	0.590515	0.280303
C324	C	0.344248	1.090515	0.780303
H325	H	-0.178930	0.567310	0.253003
H326	H	0.321070	1.067310	0.753003
H327	H	-0.179360	0.610838	0.304481
H328	H	0.320640	1.110838	0.804481
H329	H	-0.135357	0.566933	0.304434
H330	H	0.364643	1.066933	0.804434
H331	H	-0.071378	-0.047012	0.097383
H332	H	0.428622	0.452988	0.597383
C333	C	-0.533611	0.510628	0.000056
C334	C	-0.033611	1.010628	0.500056
H335	H	-0.564031	0.480024	0.000046
H336	H	-0.064031	0.980024	0.500046
H337	H	-0.510742	0.508178	0.034358
H338	H	-0.010742	1.008178	0.534358
H339	H	-0.510729	0.508197	-0.034253
H340	H	-0.010729	1.008197	0.465747
H341	H	0.035559	0.781948	0.443877
H342	H	0.535559	1.281948	0.943877
H343	H	-0.806218	0.580757	0.000061
H344	H	-0.306218	1.080757	0.500061
C345	C	0.007770	0.754148	0.719863
C346	C	0.507770	1.254148	1.219863
H347	H	0.030956	0.777341	0.747166
H348	H	0.530956	1.277341	1.247166
H349	H	-0.012589	0.777737	0.695707
H350	H	0.487411	1.277737	1.195707
H351	H	0.031375	0.733792	0.695710
H352	H	0.531375	1.233792	1.195710
C353	C	-0.658326	0.512121	0.000057
C354	C	-0.158326	1.012121	0.500057
H355	H	-0.636342	0.480890	0.000061
H356	H	-0.136342	0.980890	0.500061
H357	H	-0.681789	0.510236	-0.034244
H358	H	-0.181789	1.010236	0.465756
H359	H	-0.681796	0.510235	0.034368
H360	H	-0.181796	1.010235	0.534368
H361	H	-0.183553	0.562723	0.556268
H362	H	0.316447	1.062723	1.056268
C363	C	-0.070141	-0.163284	0.112703
C364	C	0.429859	0.336716	0.612703
H365	H	-0.069708	-0.202918	0.105020
H366	H	0.430292	0.297082	0.605020
H367	H	-0.103527	-0.158033	0.134631
H368	H	0.396473	0.341967	0.634631
H369	H	-0.037090	-0.149085	0.134843
H370	H	0.462910	0.350915	0.634843
H371	H	-0.888262	0.770461	0.000080
H372	H	-0.388262	1.270461	0.500080
C373	C	-0.614393	0.834051	0.000059
C374	C	-0.114393	1.334051	0.500059
H375	H	-0.583972	0.864654	0.000053
H376	H	-0.083972	1.364654	0.500053
H377	H	-0.637280	0.836495	0.034358
H378	H	-0.137280	1.336495	0.534358
H379	H	-0.637257	0.836489	-0.034253
H380	H	-0.137257	1.336489	0.465747
C381	C	-0.770003	0.783905	0.000079
C382	C	-0.270003	1.283905	0.500079
H383	H	-0.791984	0.815138	0.000088
H384	H	-0.291984	1.315138	0.500088
H385	H	-0.746527	0.785799	-0.034223
H386	H	-0.246527	1.285799	0.465777
H387	H	-0.746547	0.785781	0.034389
H388	H	-0.246547	1.285781	0.534389
C389	C	-0.071453	-0.038526	-0.112522
C390	C	0.428547	0.461474	0.387478
H391	H	-0.071140	-0.064726	-0.144453
H392	H	0.428860	0.435274	0.355547
H393	H	-0.038517	-0.010819	-0.114763
H394	H	0.461483	0.489181	0.385237
H395	H	-0.104953	-0.019892	-0.114749
H396	H	0.395047	0.480108	0.385251
C397	C	-0.489672	0.832552	0.000070
C398	C	0.010328	1.332552	0.500070
H399	H	-0.511651	0.863787	0.000075
H400	H	-0.011651	1.363787	0.500075
H401	H	-0.466195	0.834439	-0.034231
H402	H	0.033805	1.334439	0.465769
H403	H	-0.466217	0.834430	0.034381
H404	H	0.033783	1.334430	0.534381
H405	H	-0.234038	0.762625	0.000106
H406	H	0.265962	1.262625	0.500106
