data_functionalizedCrystal
_audit_creation_method	'MofGen! by Chris Wilmer'
_symmetry_space_group_name_H-M	'P1'
_symmetry_Int_Tables_number	1
_symmetry_cell_setting	triclinic
loop_
_symmetry_equiv_pos_as_xyz
  x,y,z
_cell_length_a	13.897449
_cell_length_b	16.120484
_cell_length_c	13.897441
_cell_angle_alpha	92.866498
_cell_angle_beta	89.978743
_cell_angle_gamma	92.926462
loop_
_atom_site_label
_atom_site_type_symbol
_atom_site_fract_x
_atom_site_fract_y
_atom_site_fract_z
Zn1	Zn	1.455160	-0.331870	-0.564892
Zn2	Zn	1.446858	-0.471299	-0.411762
Zn3	Zn	1.293853	-0.331906	-0.403605
Zn4	Zn	1.285632	-0.471246	-0.573004
O5	O	1.370376	-0.401580	-0.488316
O6	O	1.589040	-0.350373	-0.544598
O7	O	1.426528	-0.452846	-0.275701
O8	O	1.322166	-0.215236	-0.418192
O9	O	1.582941	-0.452811	-0.432094
O10	O	1.440677	-0.215209	-0.536689
O11	O	1.314116	-0.350435	-0.269708
O12	O	1.157781	-0.350383	-0.426058
O13	O	1.308154	-0.452720	-0.706907
O14	O	1.151741	-0.452755	-0.550514
O15	O	1.432706	-0.350321	-0.700948
O16	O	1.418556	-0.587958	-0.439960
O17	O	1.300104	-0.587918	-0.558423
C18	C	1.119762	-0.401567	-0.488282
C19	C	1.012547	-0.401582	-0.488291
C20	C	1.357563	-0.618188	-0.500978
C21	C	1.352170	-0.710854	-0.506427
C22	C	0.925477	-0.401585	-0.488307
C23	C	0.816245	-0.401591	-0.488337
C24	C	1.342330	-0.880515	-0.516396
C25	C	1.398594	-0.921805	-0.460252
C26	C	1.393119	-1.016210	-0.465799
C27	C	1.347804	-0.786101	-0.510850
C28	C	1.621968	-0.401594	-0.488351
C29	C	1.729182	-0.401600	-0.488366
C30	C	1.370439	-0.401510	-0.739905
C31	C	1.370466	-0.401480	-0.847117
C32	C	1.383264	-0.184127	-0.475626
C33	C	1.388757	-0.091461	-0.470218
C34	C	1.370487	-0.401457	-0.934186
C35	C	1.370517	-0.401419	-1.043416
C36	C	1.370372	-0.401590	-0.237702
C37	C	1.370546	-0.401385	-0.130477
H38	H	1.450875	-0.886252	-0.408020
O39	O	1.279979	-0.923049	-0.578616
C40	C	1.217675	-1.057300	-0.640996
C41	C	1.288316	-1.009221	-0.570479
H42	H	1.224406	-1.126978	-0.634456
H43	H	1.140848	-1.040376	-0.622999
H44	H	1.235523	-1.040130	-0.717795
H45	H	1.270556	-1.026366	-0.493656
H46	H	1.365122	-1.026149	-0.588559
