data_functionalizedCrystal
_audit_creation_method	'MofGen! by Chris Wilmer'
_symmetry_space_group_name_H-M	'P1'
_symmetry_Int_Tables_number	1
_symmetry_cell_setting	triclinic
loop_
_symmetry_equiv_pos_as_xyz
  x,y,z
_cell_length_a	15.944493
_cell_length_b	19.188924
_cell_length_c	15.021413
_cell_angle_alpha	90.001940
_cell_angle_beta	89.993251
_cell_angle_gamma	83.308504
loop_
_atom_site_label
_atom_site_type_symbol
_atom_site_fract_x
_atom_site_fract_y
_atom_site_fract_z
O1	O	1.114220	0.089846	-0.074024
O2	O	1.614220	0.589846	0.425976
O3	O	0.869622	0.100990	-0.074029
O4	O	1.369622	0.600990	0.425971
O5	O	0.998983	-0.006221	-0.074016
O6	O	1.498983	0.493779	0.425984
O7	O	0.984860	0.197057	-0.074037
O8	O	1.484860	0.697057	0.425963
O9	O	0.998962	-0.006205	0.074048
O10	O	1.498962	0.493795	0.574048
O11	O	0.869601	0.101006	0.074035
O12	O	1.369601	0.601006	0.574035
O13	O	1.114200	0.089861	0.074040
O14	O	1.614200	0.589861	0.574040
Zn15	Zn	0.991897	0.095436	0.097546
Zn16	Zn	1.491897	0.595436	0.597546
Zn17	Zn	0.991924	0.095416	-0.097535
Zn18	Zn	1.491924	0.595416	0.402465
O19	O	0.984839	0.197073	0.074027
O20	O	1.484839	0.697073	0.574027
C21	C	0.838319	0.100543	0.000002
C22	C	1.338319	0.600543	0.500002
C23	C	0.745075	0.099177	0.000001
C24	C	1.245075	0.599177	0.500001
C25	C	0.509077	0.162284	-0.000006
C26	C	1.009077	0.662284	0.499994
C27	C	0.458637	0.128260	0.073004
C28	C	0.958637	0.628260	0.573004
C29	C	0.574364	0.096647	0.000003
C30	C	1.074364	0.596647	0.500003
C31	C	0.458662	0.128230	-0.072975
C32	C	0.958662	0.628230	0.427025
C33	C	0.409463	0.094207	0.000001
C34	C	0.909463	0.594207	0.500001
C35	C	0.525152	0.062641	0.073074
C36	C	1.025152	0.562641	0.573074
C37	C	0.525180	0.062620	-0.072971
C38	C	1.025180	0.562620	0.427029
C39	C	0.474773	0.028548	0.000057
C40	C	0.974773	0.528548	0.500057
C41	C	0.669358	0.098054	0.000005
C42	C	1.169358	0.598054	0.500005
C43	C	0.314472	0.092795	0.000005
C44	C	0.814472	0.592795	0.500005
C45	C	0.998516	-0.032225	0.000017
C46	C	1.498516	0.467775	0.500017
C47	C	0.997146	-0.109733	0.000019
C48	C	1.497146	0.390267	0.500019
C49	C	0.996518	-0.146142	-0.080691
C50	C	1.496518	0.353858	0.419309
C51	C	0.995219	-0.218968	-0.080698
C52	C	1.495219	0.281032	0.419302
C53	C	0.994565	-0.255384	0.000010
C54	C	1.494565	0.244616	0.500010
C55	C	0.995188	-0.218966	0.080731
C56	C	1.495188	0.281034	0.580731
C57	C	0.996479	-0.146141	0.080735
C58	C	1.496479	0.353859	0.580735
N59	N	1.040330	-0.374931	0.060080
N60	N	1.540330	0.125069	0.560080
N61	N	1.039106	-0.444112	0.060070
N62	N	1.539106	0.055888	0.560070
C63	C	0.990674	-0.474803	0.000001
C64	C	1.490674	0.025197	0.500001
N65	N	0.943523	-0.433700	-0.060071
N66	N	1.443523	0.066300	0.439929
N67	N	0.944751	-0.364512	-0.060064
N68	N	1.444751	0.135488	0.439936
C69	C	0.993164	-0.334351	0.000014
C70	C	1.493164	0.165649	0.500014
C71	C	0.988636	-0.590177	-0.080721
C72	C	1.488636	-0.090177	0.419279
C73	C	0.987331	-0.663004	-0.080725
C74	C	1.487331	-0.163004	0.419275
C75	C	0.987309	-0.663001	0.080706
C76	C	1.487309	-0.163001	0.580706
C77	C	0.988605	-0.590175	0.080707
C78	C	1.488605	-0.090175	0.580707
C79	C	0.989272	-0.553768	-0.000009
C80	C	1.489272	-0.053768	0.499991
C81	C	1.145503	0.090309	0.000006
C82	C	1.645503	0.590309	0.500006
C83	C	1.238747	0.091675	0.000002
C84	C	1.738747	0.591675	0.500002
C85	C	0.985306	0.223077	-0.000008
C86	C	1.485306	0.723077	0.499992
C87	C	0.986676	0.300585	-0.000016
C88	C	1.486676	0.800585	0.499984
N89	N	0.991885	0.095449	0.230683
N90	N	1.491885	0.595449	0.730683
N91	N	0.991944	0.095397	-0.230673
N92	N	1.491944	0.595397	0.269327
C93	C	0.932059	0.145000	0.470361
C94	C	1.432059	0.645000	0.970361
C95	C	1.007911	0.158542	0.529695
C96	C	1.507911	0.658542	1.029695
C97	C	0.991907	0.095432	0.412290
C98	C	1.491907	0.595432	0.912290
C99	C	0.916076	0.081906	0.529698
C100	C	1.416076	0.581906	1.029698
C101	C	0.991921	0.095417	0.587714
C102	C	1.491921	0.595417	1.087714
C103	C	1.067796	0.109005	0.470318
C104	C	1.567796	0.609005	0.970318
C105	C	0.975911	0.032341	0.470316
C106	C	1.475911	0.532341	0.970316
C107	C	1.051817	0.045856	0.529623
C108	C	1.551817	0.545856	1.029623
C109	C	0.991897	0.095442	0.311233
C110	C	1.491897	0.595442	0.811233
C111	C	0.991939	0.095406	0.688770
C112	C	1.491939	0.595406	1.188770
H113	H	0.554075	0.034944	0.134860
H114	H	1.054075	0.534944	0.634860
O115	O	0.420155	0.164984	0.154758
O116	O	0.920155	0.664984	0.654758
H117	H	0.387916	0.127469	0.194884
H118	H	0.887916	0.627469	0.694884
O119	O	1.152770	0.124239	0.435927
O120	O	1.652770	0.624239	0.935927
H121	H	1.152086	0.124154	0.362040
H122	H	1.652086	0.624154	0.862040
H123	H	0.996987	-0.116497	0.146461
H124	H	1.496987	0.383503	0.646461
O125	O	0.529515	0.237169	0.000078
O126	O	1.029515	0.737169	0.500078
H127	H	0.469950	0.273419	0.000752
H128	H	0.969950	0.773419	0.500752
O129	O	0.865083	0.200565	0.435888
O130	O	1.365083	0.700565	0.935888
H131	H	0.865269	0.199750	0.362005
H132	H	1.365269	0.699750	0.862005
H133	H	0.459520	-0.028034	0.000105
H134	H	0.959520	0.471966	0.500105
O135	O	1.118930	-0.009679	0.563894
O136	O	1.618930	0.490321	1.063894
H137	H	1.181780	0.001713	0.539985
H138	H	1.681780	0.501713	1.039985
H139	H	0.429628	0.155956	-0.134691
H140	H	0.929628	0.655956	0.365309
H141	H	0.554239	0.034915	-0.134693
H142	H	1.054239	0.534915	0.365307
O143	O	1.025825	0.229196	0.564300
O144	O	1.525825	0.729196	1.064300
H145	H	0.976048	0.270259	0.540590
H146	H	1.476048	0.770259	1.040590
H147	H	0.997059	-0.116503	-0.146416
H148	H	1.497059	0.383497	0.353584
H149	H	0.962345	-0.020989	0.444213
H150	H	1.462345	0.479011	0.944213
O151	O	0.994543	-0.258252	-0.167752
O152	O	1.494543	0.241748	0.332248
H153	H	0.995227	-0.220701	-0.223877
H154	H	1.495227	0.279299	0.276123
H155	H	0.851941	0.070472	0.555783
H156	H	1.351941	0.570472	1.055783
H157	H	0.994653	-0.248620	0.146444
H158	H	1.494653	0.251380	0.646444
O159	O	0.989339	-0.550899	-0.167773
O160	O	1.489339	-0.050899	0.332227
H161	H	0.988668	-0.588453	-0.223899
H162	H	1.488668	-0.088453	0.276101
H163	H	0.986815	-0.692646	-0.146451
H164	H	1.486815	-0.192646	0.353549
O165	O	0.986610	-0.702267	0.167760
O166	O	1.486610	-0.202267	0.667760
H167	H	0.985613	-0.759026	0.154199
H168	H	1.485613	-0.259026	0.654199
H169	H	0.989124	-0.560532	0.146430
H170	H	1.489124	-0.060532	0.646430
