data_functionalizedCrystal
_audit_creation_method	'MofGen! by Chris Wilmer'
_symmetry_space_group_name_H-M	'P1'
_symmetry_Int_Tables_number	1
_symmetry_cell_setting	triclinic
loop_
_symmetry_equiv_pos_as_xyz
  x,y,z
_cell_length_a	12.759401
_cell_length_b	12.759400
_cell_length_c	12.759393
_cell_angle_alpha	90.029805
_cell_angle_beta	90.019596
_cell_angle_gamma	90.014922
loop_
_atom_site_label
_atom_site_type_symbol
_atom_site_fract_x
_atom_site_fract_y
_atom_site_fract_z
Zn1	Zn	1.606267	-0.418208	0.593988
Zn2	Zn	1.606158	-0.593923	0.418310
Zn3	Zn	1.430565	-0.418260	0.418327
Zn4	Zn	1.430558	-0.593846	0.593951
O5	O	1.518387	-0.506059	0.506144
O6	O	1.753273	-0.441527	0.570692
O7	O	1.582823	-0.570675	0.271291
O8	O	1.453921	-0.271232	0.441651
O9	O	1.753193	-0.570625	0.441622
O10	O	1.583008	-0.271194	0.570708
O11	O	1.453816	-0.441616	0.271303
O12	O	1.283543	-0.441541	0.441616
O13	O	1.453908	-0.570493	0.740977
O14	O	1.283538	-0.570544	0.570646
O15	O	1.583001	-0.441452	0.741004
O16	O	1.582815	-0.740934	0.441587
O17	O	1.453802	-0.740877	0.570630
C18	C	1.245420	-0.506040	0.506129
C19	C	1.128643	-0.506058	0.506148
C20	C	0.964074	-0.573347	0.573236
C21	C	1.073798	-0.573336	0.573225
C22	C	1.073758	-0.438794	0.439070
C23	C	0.964036	-0.438812	0.439077
C24	C	1.518325	-0.779027	0.506125
C25	C	1.518394	-0.895803	0.506152
C26	C	1.585581	-0.950555	0.573410
C27	C	1.585640	-1.060279	0.573438
C28	C	1.451323	-1.060489	0.438943
C29	C	1.451260	-0.950767	0.438921
C30	C	1.792420	-0.506079	0.506159
C31	C	1.909197	-0.506087	0.506165
C32	C	1.518466	-0.505958	0.780177
C33	C	1.518499	-0.505915	0.896954
C34	C	1.518478	-0.232026	0.506186
C35	C	1.518517	-0.115249	0.506203
C36	C	1.518369	-0.506084	0.233176
C37	C	1.518539	-0.505831	0.116400
C38	C	1.585723	-0.438713	0.951832
C39	C	1.585740	-0.438668	1.061556
C40	C	1.451308	-0.573036	1.061515
C41	C	1.451286	-0.573075	0.951793
H42	H	1.118421	-0.384020	0.384451
H43	H	1.396588	-0.627718	1.106178
H44	H	1.640449	-0.384024	0.907185
O45	O	1.378771	-0.645561	0.892600
H46	H	1.390039	-0.634294	0.807091
O47	O	1.658101	-1.119334	0.645985
H48	H	1.711599	-1.169325	0.599022
H49	H	1.396666	-1.105255	0.384204
O50	O	0.904969	-0.645950	0.645584
H51	H	0.855005	-0.599041	0.699156
H52	H	1.396543	-0.906185	0.384152
O53	O	1.132992	-0.645872	0.645572
H54	H	1.076422	-0.692646	0.692227
H55	H	1.640244	-0.905806	0.628155
H56	H	0.919353	-0.384039	0.384455
H57	H	1.640479	-0.383943	1.106232
