data_functionalizedCrystal
_audit_creation_method	'MofGen! by Chris Wilmer'
_symmetry_space_group_name_H-M	'P1'
_symmetry_Int_Tables_number	1
_symmetry_cell_setting	triclinic
loop_
_symmetry_equiv_pos_as_xyz
  x,y,z
_cell_length_a	6.817900
_cell_length_b	14.858565
_cell_length_c	14.858340
_cell_angle_alpha	94.732201
_cell_angle_beta	104.519754
_cell_angle_gamma	104.523916
loop_
_atom_site_label
_atom_site_type_symbol
_atom_site_fract_x
_atom_site_fract_y
_atom_site_fract_z
V1	V	-4.043518	-0.129264	-0.290221
O2	O	-4.025342	0.005601	-0.284429
O3	O	-4.000085	-0.255721	-0.288493
O4	O	-4.000069	-0.127543	-0.416679
O5	O	-4.025358	-0.123464	-0.155355
V6	V	-4.525861	-0.113101	-0.274059
O7	O	-4.307365	-0.164719	-0.325674
O8	O	-4.712211	-0.077646	-0.238606
O9	O	-4.346087	0.013357	-0.275787
O10	O	-4.661433	-0.247965	-0.279850
O11	O	-4.661417	-0.118900	-0.408924
O12	O	-4.346103	-0.114821	-0.147600
C13	C	-3.846134	-0.286540	-0.283980
C14	C	-3.891942	-0.389923	-0.283410
C15	C	-3.846113	-0.123035	-0.447494
C16	C	-3.891905	-0.122465	-0.550876
C17	C	-3.929091	-0.122001	-0.634833
C18	C	-3.975757	-0.121415	-0.740161
C19	C	-4.012967	-0.120948	-0.824112
C20	C	-4.059638	-0.120364	-0.929447
C21	C	-4.059607	-0.768489	-0.281336
C22	C	-4.012949	-0.663160	-0.281912
C23	C	-3.975775	-0.579209	-0.282372
C24	C	-3.929116	-0.473874	-0.282951
C25	C	-4.163380	0.044171	-0.280297
C26	C	-4.096810	0.147553	-0.280873
C27	C	-4.163402	-0.119332	-0.116781
C28	C	-4.096848	-0.119897	-0.013398
