data_functionalizedCrystal
_audit_creation_method	'MofGen! by Chris Wilmer'
_symmetry_space_group_name_H-M	'P1'
_symmetry_Int_Tables_number	1
_symmetry_cell_setting	triclinic
loop_
_symmetry_equiv_pos_as_xyz
  x,y,z
_cell_length_a	14.519709
_cell_length_b	10.654550
_cell_length_c	9.730223
_cell_angle_alpha	89.999758
_cell_angle_beta	90.003922
_cell_angle_gamma	95.917462
loop_
_atom_site_label
_atom_site_type_symbol
_atom_site_fract_x
_atom_site_fract_y
_atom_site_fract_z
O1	O	0.129530	-1.666594	0.114191
O2	O	0.141871	-1.300997	0.114216
O3	O	0.001513	-1.493489	0.114190
O4	O	0.269889	-1.474102	0.114216
O5	O	0.001513	-1.493475	-0.114390
O6	O	0.141871	-1.300983	-0.114364
O7	O	0.129530	-1.666581	-0.114389
Zn8	Zn	0.135701	-1.483780	-0.150669
Zn9	Zn	0.135701	-1.483798	0.150495
O10	O	0.269889	-1.474089	-0.114363
C11	C	0.140965	-1.254201	-0.000071
C12	C	0.138254	-1.114784	-0.000061
C13	C	-0.032852	-1.492579	-0.000100
C14	C	-0.135247	-1.489871	-0.000100
N15	N	0.135700	-1.483777	-0.356205
C16	C	-0.510195	-1.479904	-0.000064
C17	C	-0.405872	-1.482672	-0.000075
C18	C	-0.322724	-1.484887	-0.000083
C19	C	-0.218395	-1.487656	-0.000091
C20	C	0.304253	-1.474999	-0.000070
C21	C	0.406649	-1.477706	-0.000061
C22	C	0.130436	-1.713377	-0.000099
C23	C	0.133147	-1.852794	-0.000100
C24	C	0.220895	-1.034504	-0.000057
C25	C	0.218342	-0.903507	-0.000081
C26	C	0.050500	-0.933084	-0.000108
C27	C	0.053054	-1.064078	-0.000094
C28	C	0.192156	-1.560065	-0.428126
C29	C	0.192151	-1.560086	-0.572009
C30	C	0.079232	-1.407519	-0.572037
C31	C	0.079233	-1.407506	-0.428157
N32	N	0.135694	-1.483811	0.356032
H33	H	0.290270	-1.075783	-0.000041
H34	H	-0.018867	-0.891783	-0.000143
H35	H	0.238121	-1.622210	-0.630560
H36	H	0.033259	-1.345421	-0.630638
O37	O	0.247131	-1.634088	-0.358382
C38	C	0.340506	-1.599480	-0.393512
H39	H	0.344130	-1.550792	-0.497983
H40	H	0.378876	-1.687486	-0.398424
H41	H	0.374016	-1.532179	-0.312539
O42	O	0.298706	-0.825703	-0.000012
C43	C	0.374448	-0.898553	-0.000017
H44	H	0.351663	-0.996260	0.043268
H45	H	0.432401	-0.850357	0.066351
H46	H	0.400528	-0.907952	-0.109671
O47	O	-0.027315	-1.141892	-0.000035
C48	C	-0.103062	-1.069052	-0.000089
H49	H	-0.080287	-0.971335	0.043182
H50	H	-0.161018	-1.117244	0.066267
H51	H	-0.129134	-1.059676	-0.109756
O52	O	0.024364	-1.333276	-0.358497
C53	C	-0.025487	-1.265976	-0.452853
H54	H	0.012639	-1.258732	-0.555414
H55	H	-0.031885	-1.167215	-0.411286
H56	H	-0.097525	-1.317558	-0.468157
