data_functionalizedCrystal
_audit_creation_method	'MofGen! by Chris Wilmer'
_symmetry_space_group_name_H-M	'P1'
_symmetry_Int_Tables_number	1
_symmetry_cell_setting	triclinic
loop_
_symmetry_equiv_pos_as_xyz
  x,y,z
_cell_length_a	12.827893
_cell_length_b	19.121063
_cell_length_c	19.121595
_cell_angle_alpha	90.075983
_cell_angle_beta	87.545467
_cell_angle_gamma	92.468878
loop_
_atom_site_label
_atom_site_type_symbol
_atom_site_fract_x
_atom_site_fract_y
_atom_site_fract_z
Zn1	Zn	1.606808	-0.262217	-0.408258
Zn2	Zn	1.591793	-0.384457	-0.296015
Zn3	Zn	1.424303	-0.267236	-0.291039
Zn4	Zn	1.424873	-0.379421	-0.413216
O5	O	1.511944	-0.323333	-0.352132
O6	O	1.751052	-0.278440	-0.393377
O7	O	1.563053	-0.373116	-0.197249
O8	O	1.454558	-0.168463	-0.302431
O9	O	1.740021	-0.368249	-0.310912
O10	O	1.588644	-0.164776	-0.388552
O11	O	1.439999	-0.286994	-0.193593
O12	O	1.278142	-0.282111	-0.307238
O13	O	1.455529	-0.359665	-0.510664
O14	O	1.278561	-0.364532	-0.397001
O15	O	1.589196	-0.273556	-0.507022
O16	O	1.563606	-0.481897	-0.315719
O17	O	1.440970	-0.478196	-0.401826
C18	C	1.240434	-0.323320	-0.352118
C19	C	1.124281	-0.323331	-0.352130
C20	C	1.072723	-0.364185	-0.396484
C21	C	0.952673	-0.364197	-0.396497
C22	C	1.500750	-0.505484	-0.359866
C23	C	1.496058	-0.583408	-0.363198
C24	C	1.557758	-0.621918	-0.319969
C25	C	1.553351	-0.695136	-0.323107
C26	C	1.487239	-0.729842	-0.369471
C27	C	1.425536	-0.691326	-0.412704
C28	C	1.429949	-0.618110	-0.409569
C29	C	1.470724	-0.950812	-0.381180
C30	C	1.466314	-1.024034	-0.384310
C31	C	1.594131	-1.027839	-0.294713
C32	C	1.598533	-0.954621	-0.291580
C33	C	1.536834	-0.916112	-0.334816
C34	C	1.482731	-0.804682	-0.372678
C35	C	1.541349	-0.841273	-0.331612
C36	C	1.784514	-0.323346	-0.352146
C37	C	1.900668	-0.323352	-0.352153
C38	C	1.524101	-0.315489	-0.534992
C39	C	1.529281	-0.312146	-0.612916
C40	C	1.523212	-0.140470	-0.344383
C41	C	1.528014	-0.062545	-0.341081
C42	C	1.462123	-0.355405	-0.651422
C43	C	1.466999	-0.352264	-0.724640
C44	C	1.539029	-0.305861	-0.759350
C45	C	1.606195	-0.262600	-0.720839
C46	C	1.601323	-0.265745	-0.647622
C47	C	1.557226	-0.294126	-0.980322
C48	C	1.562090	-0.290982	-1.053543
C49	C	1.422896	-0.380647	-1.057339
C50	C	1.418026	-0.383785	-0.984121
C51	C	1.485195	-0.340528	-0.945616
C52	C	1.544013	-0.302647	-0.834191
C53	C	1.480216	-0.343745	-0.870778
C54	C	1.499898	-0.331096	-0.169981
C55	C	1.494932	-0.334241	-0.092049
H56	H	1.611589	-0.593666	-0.282212
H57	H	0.908332	-0.399175	-0.434469
Br58	Br	0.974555	-0.265056	-0.288849
H59	H	1.611920	-0.258902	-0.948980
H60	H	1.079546	-0.288360	-0.314168
H61	H	1.603594	-0.726488	-0.287905
H62	H	1.428900	-0.832948	-0.410426
H63	H	1.421573	-0.381529	-0.842514
Br64	Br	1.688275	-0.907525	-0.228664
H65	H	1.644364	-1.059201	-0.259514
Br66	Br	1.331746	-0.439353	-1.109599
H67	H	1.602659	-0.264865	-0.862460
H68	H	1.412490	-1.052289	-0.422077
H69	H	1.420484	-0.919464	-0.416383
Br70	Br	1.335820	-0.738425	-0.475633
Br71	Br	1.659801	-0.227967	-1.100648
H72	H	1.595182	-0.813013	-0.293865
H73	H	1.379708	-0.586755	-0.444772
H74	H	1.664847	-0.224821	-0.749106
H75	H	1.117459	-0.399150	-0.434451
Br76	Br	1.375864	-0.410983	-0.776897
H77	H	1.403457	-0.393183	-0.623166
H78	H	1.359388	-0.421583	-0.955866
H79	H	1.656010	-0.230519	-0.616271
