data_functionalizedCrystal
_audit_creation_method	'MofGen! by Chris Wilmer'
_symmetry_space_group_name_H-M	'P1'
_symmetry_Int_Tables_number	1
_symmetry_cell_setting	triclinic
loop_
_symmetry_equiv_pos_as_xyz
  x,y,z
_cell_length_a	6.817900
_cell_length_b	19.551823
_cell_length_c	16.305550
_cell_angle_alpha	95.888693
_cell_angle_beta	103.455250
_cell_angle_gamma	101.663376
loop_
_atom_site_label
_atom_site_type_symbol
_atom_site_fract_x
_atom_site_fract_y
_atom_site_fract_z
V1	V	-4.017281	-0.097265	-0.263428
O2	O	-4.014216	0.004067	-0.258008
O3	O	-3.959975	-0.192277	-0.262017
O4	O	-3.968800	-0.096036	-0.378140
O5	O	-4.005329	-0.092841	-0.141081
V6	V	-4.502073	-0.085113	-0.248747
O7	O	-4.275755	-0.123922	-0.295633
O8	O	-4.693797	-0.058457	-0.216543
O9	O	-4.336173	0.009899	-0.250158
O10	O	-4.622535	-0.186446	-0.254168
O11	O	-4.631422	-0.089538	-0.371095
O12	O	-4.327347	-0.086343	-0.134035
C13	C	-3.802811	-0.215431	-0.257962
C14	C	-3.837243	-0.293106	-0.257573
C15	C	-4.035182	-0.333161	-0.261608
C16	C	-4.067539	-0.406146	-0.261251
C17	C	-3.901937	-0.439072	-0.256841
C18	C	-3.703973	-0.399008	-0.252810
C19	C	-3.671626	-0.326026	-0.253175
C20	C	-3.788746	-0.545440	-0.203346
C21	C	-3.821097	-0.618420	-0.202975
C22	C	-4.001700	-0.664175	-0.255717
C23	C	-4.149976	-0.636939	-0.308819
C24	C	-4.117629	-0.563956	-0.309185
C25	C	-3.936992	-0.518209	-0.256445
C26	C	-4.234737	-0.783369	-0.259367
C27	C	-4.267089	-0.856357	-0.259015
C28	C	-3.903513	-0.849216	-0.250564
C29	C	-3.871171	-0.776231	-0.250925
C30	C	-4.036788	-0.743312	-0.255322
C31	C	-3.814068	-0.092664	-0.406088
C32	C	-3.855655	-0.092287	-0.499868
C33	C	-4.006876	-0.090827	-0.840607
C34	C	-3.771228	-0.086491	-0.799661
C35	C	-3.727972	-0.087172	-0.702169
C36	C	-3.931852	-0.091551	-0.671563
C37	C	-4.092525	-0.160559	-0.722471
C38	C	-4.134424	-0.160169	-0.820019
C39	C	-4.067542	-0.026706	-0.794503
C40	C	-4.019662	-0.026160	-0.696658
C41	C	-3.889464	-0.091963	-0.576026
C42	C	-4.049273	-0.090420	-0.936145
C43	C	-4.156678	0.033048	-0.254211
C44	C	-4.101484	0.110723	-0.254606
C45	C	-4.145421	-0.089717	-0.106083
C46	C	-4.083073	-0.090090	-0.012302
H47	H	-4.369592	-0.756565	-0.262946
H48	H	-3.569142	-0.425821	-0.249221
C49	C	-3.563240	-0.020152	-0.654578
H50	H	-3.522207	0.007736	-0.694791
H51	H	-3.619811	0.006416	-0.617828
H52	H	-3.446037	-0.033264	-0.621767
H53	H	-3.510438	-0.293413	-0.249890
H54	H	-4.245155	-0.166259	-0.703581
C55	C	-3.721346	-0.885424	-0.245704
H56	H	-3.768953	-0.934626	-0.246057
H57	H	-3.666395	-0.878491	-0.293474
H58	H	-3.616308	-0.865499	-0.194568
C59	C	-4.348647	-0.687257	-0.366840
H60	H	-4.432321	-0.660583	-0.398511
H61	H	-4.312558	-0.719618	-0.405045
H62	H	-4.423654	-0.712605	-0.332748
C63	C	-4.285279	-0.450214	-0.265684
H64	H	-4.379276	-0.420155	-0.268350
H65	H	-4.330528	-0.485331	-0.315164
H66	H	-4.280362	-0.472334	-0.216257
H67	H	-3.641663	-0.508191	-0.160400
H68	H	-3.980959	0.025581	-0.807657
C69	C	-3.634036	-0.019153	-0.816096
H70	H	-3.719233	0.006920	-0.848081
H71	H	-3.556484	0.009072	-0.763100
H72	H	-3.541772	-0.031912	-0.847269
H73	H	-4.032616	-0.209113	-0.705856
C74	C	-3.704569	-0.148725	-0.842477
H75	H	-3.819726	-0.177341	-0.885195
H76	H	-3.596524	-0.130988	-0.867866
H77	H	-3.656367	-0.176251	-0.800780
C78	C	-3.653428	-0.732167	-0.246472
H79	H	-3.559428	-0.762226	-0.243787
H80	H	-3.658305	-0.710040	-0.295887
H81	H	-3.608197	-0.697056	-0.196981
C82	C	-3.658027	-0.648376	-0.144555
H83	H	-3.703172	-0.698393	-0.151879
H84	H	-3.529605	-0.636124	-0.159010
H85	H	-3.640732	-0.629098	-0.086725
H86	H	-3.903320	0.024883	-0.662071
C87	C	-3.632444	-0.150125	-0.680409
H88	H	-3.619972	-0.175386	-0.731188
H89	H	-3.499136	-0.133189	-0.641715
H90	H	-3.719327	-0.180650	-0.654911
H91	H	-4.170046	-0.306364	-0.265195
H92	H	-4.093806	-0.208710	-0.850598
H93	H	-4.167029	-0.025301	-0.675306
H94	H	-4.428281	-0.888969	-0.262307
C95	C	-4.368496	-0.168339	-0.857874
H96	H	-4.395662	-0.168152	-0.917691
H97	H	-4.442766	-0.211726	-0.847329
H98	H	-4.411454	-0.130169	-0.831962
C99	C	-4.280703	-0.533995	-0.367594
H100	H	-4.235571	-0.483977	-0.360251
H101	H	-4.298023	-0.553266	-0.425425
H102	H	-4.409121	-0.546250	-0.353129
C103	C	-4.299657	-0.030161	-0.830744
H104	H	-4.359373	-0.070460	-0.873762
H105	H	-4.367815	-0.033530	-0.786199
H106	H	-4.314973	0.011370	-0.854650
