data_functionalizedCrystal
_audit_creation_method	'MofGen! by Chris Wilmer'
_symmetry_space_group_name_H-M	'P1'
_symmetry_Int_Tables_number	1
_symmetry_cell_setting	triclinic
loop_
_symmetry_equiv_pos_as_xyz
  x,y,z
_cell_length_a	14.395555
_cell_length_b	20.875641
_cell_length_c	20.875641
_cell_angle_alpha	89.846015
_cell_angle_beta	57.591180
_cell_angle_gamma	57.589249
loop_
_atom_site_label
_atom_site_type_symbol
_atom_site_fract_x
_atom_site_fract_y
_atom_site_fract_z
Zr1	Zr	0.955569	-0.063061	0.639093
O2	O	1.172861	-0.173595	0.528562
O3	O	0.754571	-0.029175	0.672974
O4	O	0.963716	-0.168296	0.667677
O5	O	0.951608	0.075266	0.538041
O6	O	0.951609	-0.164118	0.777416
O7	O	0.963716	-0.034474	0.533860
O8	O	0.577486	0.084745	0.786892
O9	O	1.325730	-0.173597	0.528565
O10	O	0.822174	-0.011606	0.769325
O11	O	0.822174	0.067173	0.690548
O12	O	1.068416	-0.096624	0.684312
O13	O	1.068415	-0.017845	0.605535
Zr14	Zr	0.916949	0.118625	0.820785
Zr15	Zr	0.936259	-0.056397	0.814115
Zr16	Zr	0.936259	0.111961	0.645763
Zr17	Zr	1.199378	-0.063063	0.639099
Zr18	Zr	0.673140	0.118628	0.820780
O19	O	1.117947	0.084739	0.786904
O20	O	1.145404	-0.164120	0.777421
O21	O	1.145403	0.075264	0.538046
O22	O	0.699657	0.229160	0.931316
O23	O	0.727115	-0.019699	0.921833
O24	O	0.727114	0.219684	0.682458
O25	O	0.920910	-0.019701	0.921837
O26	O	0.908802	0.223861	0.792201
O27	O	0.920909	0.219682	0.682462
O28	O	0.908802	0.090038	0.926019
O29	O	1.310381	-0.168300	0.667684
O30	O	0.562137	0.223864	0.792194
O31	O	0.546788	0.229161	0.931313
O32	O	0.562137	0.090042	0.926011
O33	O	1.310381	-0.034477	0.533867
O34	O	1.295032	-0.029180	0.672986
O35	O	0.804102	0.152189	0.775567
O36	O	0.804103	0.073410	0.854343
O37	O	1.050344	-0.011609	0.769330
O38	O	1.050344	0.067171	0.690553
C39	C	0.631291	0.027785	0.729933
C40	C	0.527788	0.027786	0.729930
C41	C	0.960413	0.019446	0.511014
C42	C	0.968611	0.016617	0.436712
C43	C	0.912104	0.246708	0.738282
C44	C	0.903906	0.321010	0.741113
C45	C	0.467195	0.070743	0.686981
C46	C	0.493519	-0.007499	0.651684
C47	C	0.317073	0.106005	0.765207
C48	C	0.555548	-0.050503	0.694587
C49	C	0.379029	0.063058	0.808154
C50	C	0.405402	-0.015230	0.772875
C51	C	1.241227	0.027779	0.729946
C52	C	1.344730	0.027778	0.729948
C53	C	0.960414	-0.191144	0.721596
C54	C	0.968612	-0.265446	0.718765
C55	C	1.028587	0.311541	0.698069
C56	C	1.020876	0.381357	0.700726
C57	C	0.888483	0.460643	0.746432
C58	C	0.763794	0.470111	0.789478
C59	C	0.771506	0.400295	0.786816
C60	C	0.851635	0.674206	0.759148
C61	C	0.843931	0.744024	0.761809
C62	C	1.101015	0.655265	0.673056
C63	C	1.108715	0.585452	0.670402
C64	C	0.984026	0.594925	0.713443
N65	N	0.880598	0.532008	0.749151
N66	N	0.991913	0.523561	0.710719
C67	C	0.843930	0.059663	0.446179
C68	C	0.851641	0.057002	0.376362
C69	C	0.984034	0.011292	0.297079
C70	C	1.108724	-0.031755	0.287614
C71	C	1.101011	-0.029089	0.357430
C72	C	1.020884	-0.001434	0.083517
C73	C	1.028588	-0.004098	0.013699
C74	C	0.771504	0.084661	0.102452
C75	C	0.763803	0.087318	0.172266
C76	C	0.888492	0.044275	0.162795
N77	N	0.991920	0.008570	0.225714
N78	N	0.880605	0.047003	0.234159
C79	C	0.912105	0.036118	0.948865
C80	C	0.903907	0.038947	1.023166
C81	C	0.607137	0.036121	0.948858
C82	C	0.495436	0.038951	1.023157
C83	C	0.607136	0.246711	0.738275
C84	C	0.495435	0.321014	0.741105
C85	C	0.582982	0.255047	0.957201
C86	C	0.463084	0.332179	1.034331
C87	C	1.289536	-0.199483	0.502677
C88	C	1.409435	-0.276615	0.425547
C89	C	1.265381	0.019443	0.511020
C90	C	1.377082	0.016613	0.436721
C91	C	1.265382	-0.191147	0.721603
C92	C	1.377083	-0.265450	0.718774
C93	C	0.452414	-0.004104	1.013670
C94	C	0.347475	-0.001462	1.083475
C95	C	0.285553	0.044242	1.162766
C96	C	0.328585	0.087299	1.172251
C97	C	0.433529	0.084651	1.102447
C98	C	0.433545	0.400292	0.786812
C99	C	0.328603	0.470114	0.789468
C100	C	0.285546	0.460656	0.746420
C101	C	0.347447	0.381369	0.700707
C102	C	0.452394	0.311549	0.698047
C103	C	0.406777	0.327279	1.111680
C104	C	0.294133	0.399746	1.184159
C105	C	0.237791	0.477112	1.179287
C106	C	0.294108	0.482010	1.101930
C107	C	0.406756	0.409544	1.029453
C108	C	1.465753	-0.271715	0.348198
C109	C	1.578427	-0.344182	0.275719
C110	C	1.634775	-0.421548	0.280591
C111	C	1.578451	-0.426446	0.357949
C112	C	1.465786	-0.353979	0.430426
C113	C	1.420115	0.059662	0.446208
C114	C	1.525082	0.057000	0.376403
C115	C	1.587009	0.011294	0.297111
C116	C	1.543972	-0.031760	0.287626
C117	C	1.439013	-0.029102	0.357430
C118	C	1.420105	-0.255965	0.761831
C119	C	1.525045	-0.325773	0.759189
C120	C	1.586968	-0.405065	0.713484
C121	C	1.543936	-0.414548	0.670426
C122	C	1.438991	-0.344740	0.673073
H123	H	0.494432	0.107011	0.650606
H124	H	1.672471	0.009137	0.240279
H125	H	1.216521	-0.068969	0.223055
Br126	Br	1.787680	-0.519888	0.182220
H127	H	0.248217	0.545011	1.097975
H128	H	0.657326	-0.116688	0.664683
H129	H	0.278152	0.124509	1.236820
Br130	Br	1.628025	-0.093784	0.180010
H131	H	1.560104	0.092063	0.384142
H132	H	0.468589	0.408009	0.821867
Br133	Br	0.217724	0.393079	1.289133
H134	H	0.502773	0.247000	0.660829
H135	H	0.736116	0.808584	0.799028
H136	H	1.594369	-0.479116	0.633214
Br137	Br	0.244614	0.577706	0.851512
H138	H	0.146065	0.536112	1.238309
H139	H	0.452635	0.264291	1.115663
H140	H	0.452587	0.413545	0.966475
Br141	Br	1.654839	-0.337515	0.170746
Br142	Br	0.289096	-0.059899	1.070582
Br143	Br	1.389361	-0.360644	0.535396
H144	H	1.202538	-0.064131	0.349717
H145	H	1.216524	0.520897	0.633184
H146	H	0.378466	-0.051613	0.809193
Br147	Br	0.491894	0.143095	1.115338
H148	H	1.403980	-0.064156	0.349694
Br149	Br	0.143129	0.047827	1.257492
Br150	Br	0.602292	0.143075	0.115300
H151	H	0.331660	0.092917	0.874287
H152	H	1.419882	-0.208726	0.344215
H153	H	1.369702	-0.191408	0.799048
Br154	Br	1.336098	0.121695	0.553809
Br155	Br	1.380628	-0.357628	0.614625
H156	H	1.122416	-0.036497	0.075794
Br157	Br	1.583428	-0.312884	0.817626
H158	H	1.672420	-0.461899	0.711335
Br159	Br	0.584116	0.577713	0.851501
Br160	Br	1.270227	0.642415	0.614643
Br161	Br	1.654936	-0.531449	0.364547
Br162	Br	0.147383	0.216260	0.814920
H163	H	1.136395	0.246986	0.660853
Br164	Br	0.572501	-0.057238	0.541436
H165	H	0.502832	-0.041331	0.949113
H166	H	1.122404	0.373640	0.665676
H167	H	0.750104	0.681931	0.794199
H168	H	0.655996	0.124524	0.236818
H169	H	0.736121	0.096889	0.510732
Br170	Br	0.602291	0.413147	0.845229
Br171	Br	0.143115	0.555422	0.750038
H172	H	1.136404	-0.041325	-0.050859
Br173	Br	0.682423	0.115436	0.389216
Br174	Br	0.288996	0.368548	0.642289
