data_functionalizedCrystal
_audit_creation_method	'MofGen! by Chris Wilmer'
_symmetry_space_group_name_H-M	'P1'
_symmetry_Int_Tables_number	1
_symmetry_cell_setting	triclinic
loop_
_symmetry_equiv_pos_as_xyz
  x,y,z
_cell_length_a	9.065218
_cell_length_b	9.065218
_cell_length_c	8.140239
_cell_angle_alpha	89.997198
_cell_angle_beta	89.998314
_cell_angle_gamma	85.015885
loop_
_atom_site_label
_atom_site_type_symbol
_atom_site_fract_x
_atom_site_fract_y
_atom_site_fract_z
O1	O	-0.216355	-1.960398	0.136610
O2	O	0.116979	-1.627065	0.469944
O3	O	0.450312	-1.293731	0.803277
O4	O	-0.234101	-1.531113	0.136612
O5	O	0.099232	-1.197780	0.469945
O6	O	0.432566	-0.864446	0.803279
O7	O	-0.010585	-1.754629	0.136608
O8	O	0.322748	-1.421295	0.469941
O9	O	0.656081	-1.087962	0.803274
O10	O	-0.439870	-1.736882	0.136615
O11	O	-0.106537	-1.403549	0.469948
O12	O	0.226796	-1.070216	0.803281
O13	O	-0.010583	-1.754616	-0.136619
O14	O	0.322751	-1.421283	0.196714
O15	O	0.656084	-1.087950	0.530047
O16	O	-0.234098	-1.531101	-0.136615
O17	O	0.099235	-1.197767	0.196718
O18	O	0.432568	-0.864434	0.530052
O19	O	-0.216352	-1.960385	-0.136617
O20	O	0.116981	-1.627052	0.196717
O21	O	0.450315	-1.293719	0.530050
Zn22	Zn	-0.225225	-1.745741	-0.179997
Zn23	Zn	0.108109	-1.412408	0.153337
Zn24	Zn	0.441442	-1.079074	0.486670
Zn25	Zn	-0.225228	-1.745758	0.179992
Zn26	Zn	0.108105	-1.412424	0.513325
Zn27	Zn	0.441438	-1.079091	0.846659
O28	O	-0.439868	-1.736870	-0.136613
O29	O	-0.106534	-1.403536	0.196721
O30	O	0.226799	-1.070203	0.530054
C31	C	-0.232394	-1.476120	-0.000001
C32	C	0.100939	-1.142787	0.333332
C33	C	0.434273	-0.809454	0.666665
C34	C	-0.227294	-1.312277	-0.000000
C35	C	0.106039	-0.978944	0.333333
C36	C	0.439372	-0.645611	0.666666
C37	C	0.044403	-1.752917	-0.000003
C38	C	0.377736	-1.419584	0.333330
C39	C	0.711069	-1.086250	0.666664
C40	C	0.208245	-1.747817	0.000005
C41	C	0.541579	-1.414484	0.333338
C42	C	0.874912	-1.081151	0.666671
C43	C	-0.218059	-2.015378	0.000000
C44	C	0.115275	-1.682045	0.333333
C45	C	0.448608	-1.348712	0.666667
C46	C	-0.223158	-2.179221	0.000010
C47	C	0.110175	-1.845888	0.333343
C48	C	0.443508	-1.512555	0.666677
C49	C	-0.494855	-1.738582	0.000002
C50	C	-0.161522	-1.405248	0.333335
C51	C	0.171811	-1.071915	0.666669
C52	C	-0.658698	-1.743681	0.000005
C53	C	-0.325365	-1.410348	0.333338
C54	C	0.007968	-1.077015	0.666672
N55	N	-0.225221	-1.745741	-0.425679
N56	N	0.108112	-1.412407	-0.092346
N57	N	0.441445	-1.079074	0.240988
N58	N	-0.225220	-1.745770	0.425674
N59	N	0.108113	-1.412436	0.759008
N60	N	0.441447	-1.079103	1.092341
