data_functionalizedCrystal
_audit_creation_method	'MofGen! by Chris Wilmer'
_symmetry_space_group_name_H-M	'P1'
_symmetry_Int_Tables_number	1
_symmetry_cell_setting	triclinic
loop_
_symmetry_equiv_pos_as_xyz
  x,y,z
_cell_length_a	16.120507
_cell_length_b	12.759401
_cell_length_c	12.759393
_cell_angle_alpha	90.018496
_cell_angle_beta	87.139282
_cell_angle_gamma	92.933899
loop_
_atom_site_label
_atom_site_type_symbol
_atom_site_fract_x
_atom_site_fract_y
_atom_site_fract_z
Zn1	Zn	0.331854	-1.584911	-0.615130
Zn2	Zn	0.471293	-1.575836	-0.448336
Zn3	Zn	0.331898	-1.409210	-0.439472
Zn4	Zn	0.471229	-1.400237	-0.623974
O5	O	0.401568	-1.492549	-0.531728
O6	O	0.350360	-1.730727	-0.593013
O7	O	0.452847	-1.553691	-0.300142
O8	O	0.215227	-1.440070	-0.455363
O9	O	0.452804	-1.724061	-0.470470
O10	O	0.215194	-1.569156	-0.584418
O11	O	0.350434	-1.431271	-0.293630
O12	O	0.350372	-1.260999	-0.463938
O13	O	0.452695	-1.424777	-0.769819
O14	O	0.452737	-1.254407	-0.599491
O15	O	0.350298	-1.560456	-0.763321
O16	O	0.587950	-1.544990	-0.479046
O17	O	0.587903	-1.415978	-0.608086
C18	C	0.618176	-1.478554	-0.545510
C19	C	0.710842	-1.472663	-0.551441
C20	C	0.401553	-1.219582	-0.531713
C21	C	0.401567	-1.102805	-0.531732
C22	C	0.921787	-1.523203	-0.501122
C23	C	0.880498	-1.461928	-0.562281
C24	C	0.786093	-1.467903	-0.556248
C25	C	1.016201	-1.517229	-0.507154
C26	C	1.184115	-1.506586	-0.517899
C27	C	1.091449	-1.512464	-0.511965
C28	C	0.401484	-1.492627	-0.805756
C29	C	0.401448	-1.492661	-0.922531
C30	C	0.401584	-1.766581	-0.531744
C31	C	0.401591	-1.883357	-0.531751
C32	C	0.454954	-1.044532	-0.602209
C33	C	0.454964	-0.934807	-0.602221
C34	C	0.348198	-0.941638	-0.461271
C35	C	0.348184	-1.051361	-0.461265
C36	C	0.508336	-1.095976	-0.672677
C37	C	0.561728	-1.037703	-0.743158
C38	C	0.561739	-0.927978	-0.743170
C39	C	0.508357	-0.876526	-0.672701
C40	C	0.348125	-1.563319	-0.974011
C41	C	0.348095	-1.563346	-1.083733
C42	C	0.454719	-1.422054	-1.090486
C43	C	0.454744	-1.422023	-0.980765
C44	C	0.294829	-1.633957	-0.915776
C45	C	0.241502	-1.704621	-0.967256
C46	C	0.241472	-1.704648	-1.076979
C47	C	0.294769	-1.634011	-1.135221
C48	C	0.401592	-1.492534	-0.258762
C49	C	0.401393	-1.492719	-0.141973
H50	H	0.916051	-1.404980	-0.619173
H51	H	0.886239	-1.580146	-0.444233
H52	H	0.508335	-1.185319	-0.672673
F53	F	0.291391	-0.886875	-0.386277
F54	F	0.508365	-0.759747	-0.672725
H55	H	0.304706	-1.098808	-0.403884
H56	H	0.294730	-1.634027	-1.224563
F57	F	0.511439	-1.346885	-1.152474
F58	F	0.618533	-1.092463	-0.818157
F59	F	0.618555	-0.865963	-0.818189
H60	H	0.498152	-1.364472	-0.938848
H61	H	0.294850	-1.633945	-0.826435
H62	H	0.198104	-1.762125	-0.919828
H63	H	0.198044	-1.762179	-1.118890
