data_functionalizedCrystal
_audit_creation_method	'MofGen! by Chris Wilmer'
_symmetry_space_group_name_H-M	'P1'
_symmetry_Int_Tables_number	1
_symmetry_cell_setting	triclinic
loop_
_symmetry_equiv_pos_as_xyz
  x,y,z
_cell_length_a	18.426585
_cell_length_b	31.640172
_cell_length_c	18.426585
_cell_angle_alpha	59.997901
_cell_angle_beta	90.001513
_cell_angle_gamma	60.007886
loop_
_atom_site_label
_atom_site_type_symbol
_atom_site_fract_x
_atom_site_fract_y
_atom_site_fract_z
Zr1	Zr	0.699215	0.462606	-0.095248
O2	O	0.583353	0.550773	-0.211125
O3	O	0.734718	0.374439	-0.059727
O4	O	0.734731	0.462610	-0.211130
O5	O	0.583347	0.462599	0.059710
O6	O	0.854157	0.462612	-0.211133
O7	O	0.583340	0.462602	-0.059721
O8	O	0.854134	0.304892	0.059700
O9	O	0.583370	0.620320	-0.211123
O10	O	0.839004	0.410705	-0.044578
O11	O	0.749882	0.410701	0.044554
O12	O	0.749897	0.514510	-0.133704
O13	O	0.660776	0.514506	-0.044572
Zr14	Zr	0.889695	0.462606	0.095226
Zr15	Zr	0.889685	0.462610	-0.095253
Zr16	Zr	0.699225	0.462601	0.095230
Zr17	Zr	0.699241	0.573526	-0.095246
Zr18	Zr	0.889669	0.351686	0.095223
O19	O	0.854192	0.550773	0.059704
O20	O	0.854178	0.550779	-0.211132
O21	O	0.583367	0.550766	0.059711
O22	O	1.005557	0.374439	0.211102
O23	O	1.005543	0.374446	-0.059734
O24	O	0.734732	0.374432	0.211109
O25	O	1.005563	0.462612	-0.059732
O26	O	0.854179	0.462602	0.211108
O27	O	0.734753	0.462599	0.211111
O28	O	1.005570	0.462610	0.059699
O29	O	0.734768	0.620324	-0.211127
O30	O	0.854142	0.304888	0.211105
O31	O	1.005540	0.304892	0.211101
O32	O	1.005533	0.304895	0.059696
O33	O	0.583378	0.620316	-0.059718
O34	O	0.734776	0.620320	-0.059722
O35	O	0.839013	0.410701	0.133682
O36	O	0.928134	0.410705	0.044549
O37	O	0.839028	0.514510	-0.044576
O38	O	0.749906	0.514506	0.044556
C39	C	0.556205	0.462600	-0.000005
C40	C	0.475346	0.462598	-0.000003
C41	C	0.794422	0.323861	-0.000014
C42	C	0.794411	0.276773	-0.000015
C43	C	0.179231	0.462616	-0.000019
C44	C	0.261617	0.462613	-0.000017
C45	C	0.327286	0.462607	-0.000012
C46	C	0.409677	0.462604	-0.000008
C47	C	0.840993	-0.015267	-0.046529
C48	C	0.841012	-0.192262	-0.046529
O49	O	0.880608	-0.215165	-0.086065
N50	N	0.794490	-0.214394	-0.000004
C51	C	0.747965	-0.192276	0.046528
O52	O	0.708404	-0.215166	0.086107
C53	C	0.747953	-0.015284	0.046532
C54	C	0.794470	0.006849	-0.000003
C55	C	0.887508	0.006866	-0.093059
C56	C	0.887499	0.051115	-0.093063
C57	C	0.840975	0.073230	-0.046536
C58	C	0.794461	0.051098	-0.000006
C59	C	0.701434	0.006829	0.093069
C60	C	0.701437	0.051079	0.093068
C61	C	0.747954	0.073212	0.046533
C62	C	0.747929	0.117462	0.046517
N63	N	0.794450	0.139593	-0.000008
C64	C	0.840974	0.117477	-0.046534
C65	C	0.747974	-0.285199	0.046521
C66	C	0.747975	-0.329446	0.046519
C67	C	0.841023	-0.329430	-0.046537
C68	C	0.841016	-0.285179	-0.046539
C69	C	0.794495	-0.263067	-0.000003
C70	C	0.840951	0.210403	-0.046539
C71	C	0.840935	0.254657	-0.046541
C72	C	0.747891	0.254635	0.046518
C73	C	0.747903	0.210387	0.046517
C74	C	0.794439	0.188271	-0.000013
O75	O	0.708361	0.140387	0.086041
O76	O	0.880546	0.140365	-0.086091
C77	C	0.841002	-0.059515	-0.046526
C78	C	0.794488	-0.081648	0.000005
C79	C	0.747965	-0.059533	0.046531
C80	C	0.794490	-0.125895	0.000002
C81	C	0.841013	-0.148011	-0.046524
C82	C	0.887535	-0.125880	-0.093048
C83	C	0.887526	-0.081631	-0.093052
C84	C	0.701443	-0.081664	0.093055
C85	C	0.701455	-0.125912	0.093054
C86	C	0.747978	-0.148028	0.046528
C87	C	1.032705	0.462612	-0.000017
C88	C	1.113564	0.462614	-0.000019
C89	C	0.794443	0.462612	-0.238271
C90	C	0.794438	0.462614	-0.319134
C91	C	0.794488	0.601350	-0.000009
C92	C	0.794499	0.648439	-0.000008
C93	C	0.794472	0.462596	-0.615218
C94	C	0.794465	0.462598	-0.532836
C95	C	0.794455	0.462605	-0.467179
C96	C	0.794448	0.462607	-0.384792
C97	C	0.794467	0.462600	0.238248
C98	C	0.794472	0.462598	0.319112
C99	C	1.032672	0.323867	-0.000020
C100	C	1.113520	0.276781	-0.000023
C101	C	0.794435	0.323856	0.238246
C102	C	0.794428	0.276765	0.319108
C103	C	1.032684	0.323861	0.238240
C104	C	1.113537	0.276773	0.319100
C105	C	0.556226	0.601350	-0.238262
C106	C	0.475373	0.648439	-0.319122
C107	C	0.556238	0.601344	-0.000003
C108	C	0.475390	0.648431	0.000000
C109	C	0.794475	0.601356	-0.238268
C110	C	0.794482	0.648446	-0.319130
C111	C	1.104962	0.254668	-0.046556
C112	C	1.180921	0.210432	-0.046577
C113	C	1.265437	0.188305	-0.000058
C114	C	1.273993	0.210422	0.046476
C115	C	1.198035	0.254661	0.046491
C116	C	0.840950	0.254651	0.403613
C117	C	0.840940	0.210411	0.479599
C118	C	0.794413	0.188282	0.471078
C119	C	0.747885	0.210401	0.386563
C120	C	0.747890	0.254643	0.310579
C121	C	1.198035	0.254662	0.310547
C122	C	1.274012	0.210423	0.386516
C123	C	1.265489	0.188294	0.471038
C124	C	1.180982	0.210409	0.479589
C125	C	1.105007	0.254650	0.403621
C126	C	0.390875	0.670555	-0.310569
C127	C	0.314898	0.714807	-0.386538
C128	C	0.323421	0.736939	-0.471060
C129	C	0.407928	0.714821	-0.479612
C130	C	0.483903	0.670573	-0.403643
C131	C	0.483948	0.670548	0.046526
C132	C	0.407989	0.714797	0.046525
C133	C	0.323473	0.736925	0.000004
C134	C	0.314917	0.714806	-0.046527
C135	C	0.390875	0.670561	-0.046531
C136	C	0.841019	0.670561	-0.310580
C137	C	0.841043	0.714801	-0.386552
C138	C	0.794524	0.736930	-0.471072
C139	C	0.747986	0.714811	-0.479621
C140	C	0.747968	0.670568	-0.403650
H141	H	0.878846	0.192400	-0.084427
O142	O	0.794380	0.779967	-0.544931
C143	C	0.706365	0.831162	-0.595824
H144	H	0.658347	0.817807	-0.579226
H145	H	0.697562	0.852583	-0.669527
H146	H	0.692015	0.864495	-0.579876
H147	H	0.710003	0.192377	0.379638
O148	O	0.566061	0.648965	0.091831
C149	C	0.612792	0.586966	0.157119
H150	H	0.563495	0.574853	0.174419
H151	H	0.654803	0.574249	0.219246
H152	H	0.657864	0.561664	0.130487
O153	O	0.382626	0.648972	-0.228452
C154	C	0.423782	0.586974	-0.181706
H155	H	0.427280	0.574861	-0.230999
H156	H	0.383485	0.574261	-0.139697
H157	H	0.493858	0.561669	-0.136620
O158	O	0.382507	0.649018	-0.091603
C159	C	0.335603	0.623448	-0.057395
H160	H	0.341955	0.610167	0.013522
H161	H	0.364433	0.582134	-0.057515
H162	H	0.262497	0.657366	-0.100529
O163	O	0.886290	0.649116	-0.228550
C164	C	0.927348	0.678138	-0.237313
H165	H	0.936558	0.696370	-0.305114
H166	H	0.994927	0.644946	-0.182825
H167	H	0.883764	0.716564	-0.231085
H168	H	0.878938	0.732806	-0.379574
H169	H	0.246094	0.732829	-0.084403
H170	H	0.878832	0.192407	0.548407
O171	O	0.932716	-0.014527	-0.138340
C172	C	0.973783	0.014494	-0.179381
H173	H	0.937288	0.059334	-0.188576
H174	H	0.971276	0.022130	-0.246973
H175	H	1.045989	-0.014516	-0.135786
H176	H	0.710009	0.272643	0.241774
H177	H	0.663552	0.069081	0.130962
H178	H	0.710113	0.732835	-0.548447
H179	H	0.246097	0.732808	-0.379558
H180	H	1.173937	0.192430	-0.084470
H181	H	0.710069	0.652568	-0.410624
O182	O	1.022861	0.276206	0.411778
C183	C	0.957620	0.319988	0.326610
H184	H	0.987207	0.339353	0.276231
H185	H	0.899040	0.357199	0.327466
H186	H	0.933856	0.298815	0.307263
O187	O	0.416471	0.736189	0.091812
C188	C	0.507356	0.707171	0.132860
H189	H	0.547845	0.662329	0.142060
H190	H	0.517954	0.699539	0.200450
H191	H	0.529761	0.736181	0.089266
O192	O	0.886351	-0.263778	-0.091621
C193	C	0.977153	-0.310994	-0.057428
H194	H	0.993618	-0.348601	0.013488
H195	H	1.019242	-0.294115	-0.057550
H196	H	0.992025	-0.328444	-0.100572
H197	H	1.327360	0.152270	0.532889
H198	H	0.878903	-0.347443	-0.084422
O199	O	0.794539	0.145284	0.544985
C200	C	0.845565	0.130524	0.621395
H201	H	0.894755	0.142723	0.603938
H202	H	0.883436	0.080518	0.675059
H203	H	0.799768	0.156396	0.646976
O204	O	1.206485	0.276064	0.228514
C205	C	1.297364	0.247022	0.237274
H206	H	1.337880	0.228843	0.305033
H207	H	1.307961	0.280185	0.182721
H208	H	1.319737	0.208556	0.231150
O209	O	0.656252	-0.147364	0.138341
C210	C	0.615176	-0.118340	0.179387
H211	H	0.651657	-0.100096	0.188580
H212	H	0.617690	-0.151535	0.246979
H213	H	0.542966	-0.079923	0.135794
H214	H	0.710010	0.272651	0.084395
O215	O	0.416255	0.736194	-0.561695
C216	C	0.463038	0.688954	-0.571389
H217	H	0.505033	0.644713	-0.502981
H218	H	0.508128	0.695626	-0.611462
H219	H	0.413786	0.688323	-0.607561
O220	O	0.886204	0.276071	-0.091759
C221	C	0.927252	0.247068	-0.132837
H222	H	0.936465	0.202218	-0.096341
H223	H	0.994827	0.239452	-0.130337
H224	H	0.883657	0.276079	-0.205049
O225	O	1.206246	0.276119	0.091775
C226	C	1.165118	0.265279	0.157100
H227	H	1.113324	0.259785	0.137536
H228	H	1.131414	0.304564	0.162764
H229	H	1.217357	0.222724	0.223820
H230	H	1.174056	0.192384	0.548417
H231	H	0.261631	0.772952	0.000015
O232	O	0.932763	0.072594	-0.138126
C233	C	0.998070	0.061770	-0.078391
H234	H	0.978508	0.056269	-0.017161
H235	H	1.003719	0.101067	-0.112144
H236	H	1.064792	0.019224	-0.057566
O237	O	0.249522	0.779901	-0.544761
C238	C	0.173119	0.794680	-0.519075
H239	H	0.190568	0.755870	-0.448943
H240	H	0.119455	0.803872	-0.567066
H241	H	0.147550	0.836249	-0.520448
H242	H	1.342814	0.192422	0.379537
H243	H	0.552703	0.652566	-0.410618
O244	O	0.702905	-0.351001	0.091862
C245	C	0.737106	-0.376579	0.182674
H246	H	0.808012	-0.389847	0.199129
H247	H	0.736998	-0.417904	0.224769
H248	H	0.693967	-0.342672	0.197556
H249	H	0.710090	-0.267200	0.084419
H250	H	0.663555	-0.011185	0.130964
H251	H	0.710013	0.192372	0.084397
H252	H	0.925412	-0.143891	-0.130936
O253	O	0.932796	-0.060221	-0.138265
C254	C	0.973837	-0.089227	-0.179342
H255	H	0.983042	-0.134074	-0.142844
H256	H	1.041416	-0.096847	-0.176841
H257	H	0.930241	-0.060215	-0.251554
O258	O	0.886024	0.276204	0.411946
C259	C	0.851820	0.301786	0.458827
H260	H	0.780911	0.315059	0.452487
H261	H	0.851936	0.343107	0.429962
H262	H	0.894952	0.267879	0.531940
O263	O	0.656178	-0.060079	0.138119
C264	C	0.590864	0.001911	0.078384
H265	H	0.610422	0.020684	0.017151
H266	H	0.585211	0.024841	0.112135
H267	H	0.524146	0.010337	0.057563
H268	H	1.036152	0.272683	-0.084448
O269	O	1.339310	0.145345	-0.000008
C270	C	1.415748	0.130539	0.051050
H271	H	1.398342	0.169337	0.054551
H272	H	1.469394	0.121342	0.018828
H273	H	1.441317	0.088966	0.121056
O274	O	1.356049	0.188908	0.091801
C275	C	1.365798	0.163289	0.182625
H276	H	1.297414	0.183284	0.190242
H277	H	1.405791	0.172968	0.211146
H278	H	1.402073	0.112900	0.219930
