data_functionalizedCrystal
_audit_creation_method	'MofGen! by Chris Wilmer'
_symmetry_space_group_name_H-M	'P1'
_symmetry_Int_Tables_number	1
_symmetry_cell_setting	triclinic
loop_
_symmetry_equiv_pos_as_xyz
  x,y,z
_cell_length_a	17.699083
_cell_length_b	9.198806
_cell_length_c	17.699092
_cell_angle_alpha	90.001497
_cell_angle_beta	83.284691
_cell_angle_gamma	89.997911
loop_
_atom_site_label
_atom_site_type_symbol
_atom_site_fract_x
_atom_site_fract_y
_atom_site_fract_z
O1	O	1.004078	0.120683	0.095709
O2	O	0.783700	0.120730	0.108162
O3	O	0.900112	0.120702	-0.008253
O4	O	0.887666	0.120711	0.212124
O5	O	0.900103	-0.121083	-0.008254
O6	O	0.783691	-0.121055	0.108161
O7	O	1.004069	-0.121102	0.095709
Cu8	Cu	0.893879	-0.143155	0.101935
Cu9	Cu	0.893890	0.142784	0.101935
O10	O	0.887657	-0.121074	0.212124
C11	C	0.755499	-0.000156	0.107715
C12	C	0.671480	-0.000138	0.106377
N13	N	0.893877	-0.344269	0.101934
C14	C	0.622862	-0.000136	0.174710
C15	C	0.543918	-0.000155	0.173448
C16	C	0.513595	-0.000166	0.103851
C17	C	0.562220	-0.000172	0.035513
C18	C	0.641162	-0.000164	0.036776
C19	C	0.243857	-0.000209	0.030418
C20	C	0.164909	-0.000213	0.029160
C21	C	0.146613	-0.000199	0.167089
C22	C	0.225555	-0.000191	0.168352
C23	C	0.274173	-0.000205	0.100014
C24	C	0.359772	-0.000188	0.101384
C25	C	0.427998	-0.000173	0.102481
C26	C	0.942757	-0.416478	0.052842
C27	C	0.942769	-0.583890	0.052839
C28	C	1.032271	-0.000212	0.096155
C29	C	1.116289	-0.000221	0.097494
C30	C	0.899661	-0.000188	-0.036450
C31	C	0.898319	-0.000181	-0.120468
N32	N	0.893898	0.343898	0.101930
C33	C	0.897696	0.131618	-0.159935
C34	C	0.896431	0.131620	-0.238878
C35	C	0.895795	-0.000179	-0.278353
C36	C	0.896416	-0.131988	-0.238880
C37	C	0.897676	-0.131988	-0.159938
C38	C	0.891336	-0.131989	-0.557245
C39	C	0.890078	-0.131978	-0.636193
C40	C	0.890091	0.131619	-0.636186
C41	C	0.891351	0.131619	-0.557243
C42	C	0.891968	-0.000189	-0.517777
C43	C	0.893338	-0.000190	-0.432178
C44	C	0.894430	-0.000180	-0.363952
C45	C	0.888109	-0.000180	0.240321
C46	C	0.889450	-0.000178	0.324339
H47	H	0.647544	-0.000126	0.231383
H48	H	0.504335	-0.000151	0.229091
F49	F	0.891983	-0.272271	-0.515251
F50	F	0.839199	-0.574951	0.156874
H51	H	0.283433	-0.000222	-0.025227
F52	F	0.889432	0.271903	-0.678195
H53	H	0.537525	-0.000202	-0.021154
H54	H	0.895893	-0.239300	-0.271026
H55	H	0.107018	-0.000195	0.222733
F56	F	0.257822	-0.000170	0.242426
F57	F	0.132640	-0.000225	-0.044918
H58	H	0.898172	-0.239312	-0.127803
F59	F	0.839184	-0.425456	0.156866
H60	H	0.895927	0.238943	-0.271010
F61	F	0.692906	-0.000172	-0.035954
H62	H	0.891873	0.238942	-0.525107
F63	F	0.997473	-0.665051	-0.002096
H64	H	0.898218	0.238943	-0.127801
F65	F	0.889400	-0.272263	-0.678204
H66	H	0.984595	-0.354362	0.010810
