data_functionalizedCrystal
_audit_creation_method	'MofGen! by Chris Wilmer'
_symmetry_space_group_name_H-M	'P1'
_symmetry_Int_Tables_number	1
_symmetry_cell_setting	triclinic
loop_
_symmetry_equiv_pos_as_xyz
  x,y,z
_cell_length_a	12.759399
_cell_length_b	21.395364
_cell_length_c	21.395356
_cell_angle_alpha	90.017236
_cell_angle_beta	89.976068
_cell_angle_gamma	89.968183
loop_
_atom_site_label
_atom_site_type_symbol
_atom_site_fract_x
_atom_site_fract_y
_atom_site_fract_z
Zn1	Zn	-0.417820	-0.957877	-0.354292
Zn2	Zn	0.082180	-0.457877	0.145708
Zn3	Zn	-0.593514	-0.957823	-0.249523
Zn4	Zn	-0.093514	-0.457823	0.250477
Zn5	Zn	-0.417901	-0.853107	-0.249528
Zn6	Zn	0.082099	-0.353107	0.250472
Zn7	Zn	-0.593508	-0.853090	-0.354262
Zn8	Zn	-0.093508	-0.353090	0.145738
O9	O	-0.505686	-0.905474	-0.301901
O10	O	-0.005686	-0.405474	0.198099
O11	O	-0.441094	-1.045548	-0.340405
O12	O	0.058906	-0.545548	0.159595
O13	O	-0.570255	-0.943917	-0.161846
O14	O	-0.070255	-0.443917	0.338154
O15	O	-0.270869	-0.867035	-0.263440
O16	O	0.229131	-0.367035	0.236560
O17	O	-0.570176	-1.045508	-0.263432
O18	O	-0.070176	-0.545508	0.236568
O19	O	-0.270809	-0.944009	-0.340410
O20	O	0.229191	-0.444009	0.159590
O21	O	-0.441232	-0.866982	-0.161849
O22	O	0.058768	-0.366982	0.338151
O23	O	-0.441227	-0.765427	-0.263410
O24	O	0.058773	-0.265427	0.236590
O25	O	-0.570167	-0.867006	-0.441944
O26	O	-0.070167	-0.367006	0.058056
O27	O	-0.570245	-0.765414	-0.340358
O28	O	-0.070245	-0.265414	0.159642
O29	O	-0.441089	-0.943993	-0.441966
O30	O	0.058911	-0.443993	0.058034
O31	O	-0.740534	-0.943900	-0.263402
O32	O	-0.240534	-0.443900	0.236598
O33	O	-0.740530	-0.866953	-0.340353
O34	O	-0.240530	-0.366953	0.159647
C35	C	-0.505745	-0.742687	-0.301881
C36	C	-0.005745	-0.242687	0.198119
C37	C	-0.505796	-0.673045	-0.301888
C38	C	-0.005796	-0.173045	0.198112
C39	C	-0.438695	-0.640375	-0.342030
C40	C	0.061305	-0.140375	0.157970
C41	C	-0.438670	-0.574940	-0.342031
C42	C	0.061330	-0.074940	0.157969
C43	C	-0.505765	-0.542177	-0.301898
C44	C	-0.005765	-0.042177	0.198102
C45	C	-0.572871	-0.574855	-0.261748
C46	C	-0.072871	-0.074855	0.238252
C47	C	-0.572886	-0.640289	-0.261743
C48	C	-0.072886	-0.140289	0.238257
C49	C	-0.600387	-0.438469	-0.296863
C50	C	-0.100387	0.061531	0.203137
C51	C	-0.600373	-0.373036	-0.296872
C52	C	-0.100373	0.126964	0.203128
C53	C	-0.505718	-0.340356	-0.301909
C54	C	-0.005718	0.159644	0.198091
C55	C	-0.411073	-0.373118	-0.306950
C56	C	0.088927	0.126882	0.193050
C57	C	-0.411088	-0.438552	-0.306945
C58	C	0.088912	0.061448	0.193055
C59	C	-0.505756	-0.471225	-0.301898
C60	C	-0.005756	0.028775	0.198102
C61	C	-0.438584	-0.236734	-0.342055
C62	C	0.061416	0.263266	0.157945
C63	C	-0.438558	-0.171297	-0.342052
C64	C	0.061442	0.328703	0.157948
C65	C	-0.572769	-0.171213	-0.261772
C66	C	-0.072769	0.328787	0.238228
C67	C	-0.572786	-0.236649	-0.261771
C68	C	-0.072786	0.263351	0.238229
C69	C	-0.505695	-0.269405	-0.301916
C70	C	-0.005695	0.230595	0.198084
C71	C	-0.778653	-0.905436	-0.301887
C72	C	-0.278653	-0.405436	0.198113
C73	C	-0.895430	-0.905477	-0.301902
C74	C	-0.395430	-0.405477	0.198098
C75	C	-0.950259	-0.945589	-0.261879
C76	C	-0.450259	-0.445589	0.238121
C77	C	-1.059983	-0.945629	-0.261900
C78	C	-0.559983	-0.445629	0.238100
C79	C	-1.060039	-0.865440	-0.341968
C80	C	-0.560039	-0.365440	0.158032
C81	C	-0.950317	-0.865403	-0.341950
C82	C	-0.450317	-0.365403	0.158050
C83	C	-1.209821	-1.019585	-0.239607
C84	C	-0.709821	-0.519585	0.260393
C85	C	-1.264654	-1.059692	-0.199574
C86	C	-0.764654	-0.559692	0.300426
C87	C	-1.229096	-1.069338	-0.138441
C88	C	-0.729096	-0.569338	0.361559
C89	C	-1.138708	-1.038867	-0.117329
C90	C	-0.638708	-0.538867	0.382671
C91	C	-1.083881	-0.998756	-0.157358
C92	C	-0.583881	-0.498756	0.342642
C93	C	-1.119436	-0.989123	-0.218499
C94	C	-0.619436	-0.489123	0.281501
C95	C	-0.800477	-0.791446	-0.364237
C96	C	-0.300477	-0.291446	0.135763
C97	C	-0.745648	-0.751331	-0.404264
C98	C	-0.245648	-0.251331	0.095736
C99	C	-0.781203	-0.741679	-0.465397
C100	C	-0.281203	-0.241679	0.034603
C101	C	-0.871595	-0.772138	-0.486508
C102	C	-0.371595	-0.272138	0.013492
C103	C	-0.926424	-0.812253	-0.446481
C104	C	-0.426424	-0.312253	0.053519
C105	C	-0.890861	-0.821906	-0.385348
C106	C	-0.390861	-0.321906	0.114652
C107	C	-0.231652	-0.905530	-0.301929
C108	C	0.268348	-0.405530	0.198071
C109	C	-0.114876	-0.905554	-0.301941
C110	C	0.385124	-0.405554	0.198059
C111	C	-0.505618	-0.905503	-0.465325
C112	C	-0.005618	-0.405503	0.034675
C113	C	-0.505589	-0.905516	-0.534966
C114	C	-0.005589	-0.405516	-0.034966
C115	C	-0.505639	-0.068898	-0.301918
C116	C	-0.005639	0.431102	0.198082
C117	C	-0.505653	-0.138539	-0.301917
C118	C	-0.005653	0.361461	0.198083
C119	C	-0.438211	-0.945662	-1.036775
C120	C	0.061789	-0.445662	-0.536775
C121	C	-0.438236	-0.945657	-0.971340
C122	C	0.061764	-0.445657	-0.471340
C123	C	-0.505449	-0.905569	-0.938604
C124	C	-0.005449	-0.405569	-0.438604
C125	C	-0.572661	-0.865495	-0.971310
C126	C	-0.072661	-0.365495	-0.471310
C127	C	-0.572641	-0.865506	-1.036744
C128	C	-0.072641	-0.365506	-0.536744
C129	C	-0.513797	-0.849102	-0.834928
C130	C	-0.013797	-0.349102	-0.334928
C131	C	-0.513810	-0.849090	-0.769495
C132	C	-0.013810	-0.349090	-0.269495
C133	C	-0.505517	-0.905537	-0.736783
C134	C	-0.005517	-0.405537	-0.236783
C135	C	-0.497189	-0.961998	-0.769513
C136	C	0.002811	-0.461998	-0.269513
C137	C	-0.497169	-0.962008	-0.834947
C138	C	0.002831	-0.462008	-0.334947
C139	C	-0.505479	-0.905554	-0.867652
C140	C	-0.005479	-0.405554	-0.367652
C141	C	-0.438342	-0.945607	-0.633133
C142	C	0.061658	-0.445607	-0.133133
C143	C	-0.438374	-0.945603	-0.567697
C144	C	0.061626	-0.445603	-0.067697
C145	C	-0.572794	-0.865436	-0.567668
C146	C	-0.072794	-0.365436	-0.067668
C147	C	-0.572766	-0.865445	-0.633104
C148	C	-0.072766	-0.365445	-0.133104
C149	C	-0.505535	-0.905530	-0.665832
C150	C	-0.005535	-0.405530	-0.165832
C151	C	-0.505677	-0.905481	-0.139114
C152	C	-0.005677	-0.405481	0.360886
C153	C	-0.505410	-0.905590	-0.069473
C154	C	-0.005410	-0.405590	0.430527
H155	H	-0.627530	-0.666889	-0.229054
H156	H	-0.127530	-0.166889	0.270946
N157	N	-0.986387	-0.965892	-0.134612
N158	N	-0.486387	-0.465892	0.365388
H159	H	-1.004419	-0.938699	-0.097536
H160	H	-0.504419	-0.438699	0.402464
H161	H	-0.932398	-0.997970	-0.121840
H162	H	-0.432398	-0.497970	0.378160
H163	H	-0.383471	-0.978304	-1.063419
H164	H	0.116529	-0.478304	-0.563419
H165	H	-0.334025	-0.465224	-0.311047
H166	H	0.165975	0.034776	0.188953
N167	N	-0.365757	-0.988878	-0.936062
N168	N	0.134243	-0.488878	-0.436062
H169	H	-0.323165	-1.014274	-0.966725
H170	H	0.176835	-0.514274	-0.466725
H171	H	-0.317162	-0.963373	-0.908917
H172	H	0.182838	-0.463373	-0.408917
N173	N	-0.366224	-0.272070	-0.385349
N174	N	0.133776	0.227930	0.114651
H175	H	-0.323704	-0.241441	-0.410776
H176	H	0.176296	0.258559	0.089224
H177	H	-0.317557	-0.299232	-0.359893
H178	H	0.182443	0.200768	0.140107
N179	N	-1.288228	-1.112601	-0.095266
N180	N	-0.788228	-0.612601	0.404734
H181	H	-1.251989	-1.114088	-0.053333
H182	H	-0.751989	-0.614088	0.446667
H183	H	-1.362194	-1.096713	-0.089686
H184	H	-0.862194	-0.596713	0.410314
N185	N	-0.308971	-0.337882	-0.312388
N186	N	0.191029	0.162118	0.187612
H187	H	-0.323317	-0.291458	-0.311623
H188	H	0.176683	0.208542	0.188377
H189	H	-0.261922	-0.349328	-0.276204
H190	H	0.238078	0.150672	0.223796
N191	N	-0.365894	-0.988830	-0.532432
N192	N	0.134106	-0.488830	-0.032432
H193	H	-0.290829	-0.979109	-0.543827
H194	H	0.209171	-0.479109	-0.043827
H195	H	-0.376196	-0.982727	-0.486024
H196	H	0.123804	-0.482727	0.013976
H197	H	-0.383597	-0.978245	-0.659782
H198	H	0.116403	-0.478245	-0.159782
H199	H	-0.672041	-0.726533	-0.387072
H200	H	-0.172041	-0.226533	0.112928
H201	H	-0.520552	-0.803132	-0.861556
H202	H	-0.020552	-0.303132	-0.361556
H203	H	-0.627524	-0.832798	-0.541016
H204	H	-0.127524	-0.332798	-0.041016
N205	N	-0.366162	-0.136057	-0.385338
N206	N	0.133838	0.363943	0.114662
H207	H	-0.323663	-0.166739	-0.410765
H208	H	0.176337	0.333261	0.089235
H209	H	-0.408975	-0.108894	-0.414291
H210	H	0.091025	0.391106	0.085709
N211	N	-0.366334	-0.675705	-0.385325
N212	N	0.133666	-0.175705	0.114675
H213	H	-0.323821	-0.645076	-0.410755
H214	H	0.176179	-0.145076	0.089245
H215	H	-0.317661	-0.702864	-0.359871
H216	H	0.182339	-0.202864	0.140129
H217	H	-0.736551	-0.709012	-0.497986
H218	H	-0.236551	-0.209012	0.002014
N219	N	-0.645241	-0.822223	-0.668375
N220	N	-0.145241	-0.322223	-0.168375
H221	H	-0.687825	-0.796826	-0.637711
H222	H	-0.187825	-0.296826	-0.137711
H223	H	-0.602478	-0.793240	-0.695526
H224	H	-0.102478	-0.293240	-0.195526
H225	H	-0.520590	-0.803117	-0.742852
H226	H	-0.020590	-0.303117	-0.242852
N227	N	-0.645161	-0.822261	-0.936007
N228	N	-0.145161	-0.322261	-0.436007
H229	H	-0.634975	-0.828333	-0.889593
H230	H	-0.134975	-0.328333	-0.389593
H231	H	-0.628828	-0.777517	-0.947442
H232	H	-0.128828	-0.277517	-0.447442
N233	N	-0.488199	-1.022899	-0.870250
N234	N	0.011801	-0.522899	-0.370250
H235	H	-0.482949	-1.058660	-0.839603
H236	H	0.017051	-0.558660	-0.339603
H237	H	-0.552205	-1.028704	-0.897388
H238	H	-0.052205	-0.528704	-0.397388
N239	N	-0.645129	-0.135886	-0.218478
N240	N	-0.145129	0.364114	0.281522
H241	H	-0.634937	-0.089476	-0.224570
H242	H	-0.134937	0.410524	0.275430
H243	H	-0.720189	-0.147294	-0.228151
H244	H	-0.220189	0.352706	0.271849
N245	N	-0.645161	-0.271891	-0.218476
N246	N	-0.145161	0.228109	0.281524
H247	H	-0.687662	-0.241208	-0.193050
H248	H	-0.187662	0.258792	0.306950
H249	H	-0.693844	-0.299030	-0.243926
H250	H	-0.193844	0.200970	0.256074
N251	N	-0.702486	-0.473713	-0.291430
N252	N	-0.202486	0.026287	0.208570
H253	H	-0.700995	-0.500845	-0.252818
H254	H	-0.200995	-0.000845	0.247182
H255	H	-0.762381	-0.442991	-0.288269
H256	H	-0.262381	0.057009	0.211731
H257	H	-0.627500	-0.548175	-0.229070
H258	H	-0.127500	-0.048175	0.270930
H259	H	-0.627364	-0.832874	-1.063366
H260	H	-0.127364	-0.332874	-0.563366
H261	H	-0.771513	-0.799306	-0.314458
H262	H	-0.271513	-0.299306	0.185542
H263	H	-0.384023	-0.548335	-0.374718
H264	H	0.115977	-0.048335	0.125282
N265	N	-0.702446	-0.337702	-0.291433
N266	N	-0.202446	0.162298	0.208567
H267	H	-0.749556	-0.349085	-0.327608
H268	H	-0.249556	0.150915	0.172392
H269	H	-0.738011	-0.349073	-0.250822
H270	H	-0.238011	0.150927	0.249178
N271	N	-0.891056	-0.988811	-0.218689
N272	N	-0.391056	-0.488811	0.281311
H273	H	-0.942444	-1.014229	-0.193340
H274	H	-0.442444	-0.514229	0.306660
H275	H	-0.845448	-1.017775	-0.244214
H276	H	-0.345448	-0.517775	0.255786
H277	H	-0.490432	-1.007962	-0.742881
H278	H	0.009568	-0.507962	-0.242881
N279	N	-1.100357	-1.049264	-0.051389
N280	N	-0.600357	-0.549264	0.448611
H281	H	-1.156342	-1.035831	-0.020813
H282	H	-0.656342	-0.535831	0.479187
H283	H	-1.084240	-1.095058	-0.045139
H284	H	-0.584240	-0.595058	0.454861
N285	N	-1.362144	-1.092553	-0.222341
N286	N	-0.862144	-0.592553	0.277659
H287	H	-1.376347	-1.080363	-0.267146
H288	H	-0.876347	-0.580363	0.232854
H289	H	-1.351596	-1.139262	-0.219652
H290	H	-0.851596	-0.639262	0.280348
N291	N	-1.248165	-1.009185	-0.305547
N292	N	-0.748165	-0.509185	0.194453
H293	H	-1.249201	-1.050329	-0.328692
H294	H	-0.749201	-0.550329	0.171308
H295	H	-1.321257	-0.991081	-0.304370
H296	H	-0.821257	-0.491081	0.195630
H297	H	-1.104741	-0.832813	-0.374573
H298	H	-0.604741	-0.332813	0.125427
H299	H	-1.000023	-0.837057	-0.463675
H300	H	-0.500023	-0.337057	0.036325
N301	N	-0.909958	-0.761728	-0.552444
N302	N	-0.409958	-0.261728	-0.052444
H303	H	-0.861508	-0.731695	-0.574597
H304	H	-0.361508	-0.231695	-0.074597
H305	H	-0.911005	-0.802895	-0.575545
H306	H	-0.411005	-0.302895	-0.075545
