data_functionalizedCrystal
_audit_creation_method	'MofGen! by Chris Wilmer'
_symmetry_space_group_name_H-M	'P1'
_symmetry_Int_Tables_number	1
_symmetry_cell_setting	triclinic
loop_
_symmetry_equiv_pos_as_xyz
  x,y,z
_cell_length_a	16.109301
_cell_length_b	14.853567
_cell_length_c	14.586319
_cell_angle_alpha	90.000002
_cell_angle_beta	89.999213
_cell_angle_gamma	83.548205
loop_
_atom_site_label
_atom_site_type_symbol
_atom_site_fract_x
_atom_site_fract_y
_atom_site_fract_z
O1	O	1.103294	0.115881	-0.076175
O2	O	0.861252	0.130302	-0.076188
O3	O	0.988738	-0.008149	-0.076184
O4	O	0.975807	0.254332	-0.076179
O5	O	0.988729	-0.008151	0.076297
O6	O	0.861243	0.130300	0.076293
O7	O	1.103285	0.115879	0.076306
Cu8	Cu	0.982263	0.123089	0.090222
Cu9	Cu	0.982274	0.123091	-0.090104
O10	O	0.975799	0.254330	0.076302
C11	C	0.830272	0.129717	0.000050
C12	C	0.737974	0.127965	0.000045
C13	C	0.988148	-0.041738	0.000054
C14	C	0.986392	-0.141819	0.000046
C15	C	0.515811	0.206047	0.000057
C16	C	0.429089	0.204395	0.000063
C17	C	0.448732	0.040127	0.000056
C18	C	0.535453	0.041781	0.000057
C19	C	0.568990	0.124743	0.000052
C20	C	0.395546	0.121437	0.000058
C21	C	0.301518	0.119645	0.000064
C22	C	0.663025	0.126536	0.000048
C23	C	0.903241	-0.554215	0.000059
C24	C	1.054697	-0.575746	0.000067
C25	C	1.056348	-0.481715	0.000062
C26	C	0.981444	-0.423930	0.000056
C27	C	0.904889	-0.460175	0.000056
C28	C	1.132901	-0.445463	0.000071
C29	C	1.134555	-0.351426	0.000067
C30	C	1.059650	-0.293639	0.000055
C31	C	0.983093	-0.329890	0.000054
C32	C	0.908189	-0.272104	0.000048
C33	C	0.831630	-0.308353	0.000040
C34	C	0.829984	-0.402388	0.000044
C35	C	1.061296	-0.199604	0.000051
C36	C	0.909837	-0.178064	0.000046
C37	C	1.134265	0.116464	0.000066
C38	C	1.226563	0.118215	0.000065
C39	C	0.976389	0.287918	0.000062
C40	C	0.978145	0.387999	0.000064
N41	N	0.982262	0.123087	0.217054
N42	N	0.982281	0.123087	-0.216936
C43	C	1.038731	0.061801	0.452062
C44	C	1.038734	0.061799	0.548044
C45	C	0.925806	0.184375	0.548049
C46	C	0.925800	0.184372	0.452070
C47	C	0.982268	0.123086	0.404079
C48	C	0.982276	0.123087	0.596039
C49	C	0.982278	0.123085	0.700107
C50	C	0.982265	0.123087	0.300005
H51	H	0.543114	0.273601	0.000060
H52	H	0.879816	0.234278	0.412999
H53	H	1.193884	-0.492518	0.000084
H54	H	1.084711	0.011894	0.587109
H55	H	1.196894	-0.321921	0.000072
H56	H	0.840908	-0.583733	0.000049
O57	O	1.135675	-0.164432	-0.000106
C58	C	1.181358	-0.193986	-0.079059
H59	H	1.136601	-0.213544	-0.134257
H60	H	1.216793	-0.137030	-0.105569
H61	H	1.227620	-0.255279	-0.061195
H62	H	1.084709	0.011897	0.412990
O63	O	0.870927	0.243786	0.594773
C64	C	0.819574	0.195490	0.650283
H65	H	0.852606	0.124953	0.664659
H66	H	0.806473	0.233117	0.717777
H67	H	0.758120	0.189346	0.613302
O68	O	0.377550	0.283457	0.000023
C69	C	0.425751	0.357031	0.000045
H70	H	0.490447	0.334130	-0.028826
H71	H	0.393825	0.413997	-0.044223
H72	H	0.431956	0.382459	0.073197
H73	H	0.421415	-0.027418	0.000065
H74	H	0.848840	-0.131020	0.000037
O75	O	0.586999	-0.037286	0.000010
C76	C	0.538804	-0.110866	0.000029
H77	H	0.474107	-0.087970	-0.028840
H78	H	0.570735	-0.167828	-0.044241
H79	H	0.532600	-0.136298	0.073181
H80	H	0.770643	-0.261292	0.000042
H81	H	1.115680	-0.622800	0.000079
H82	H	0.767654	-0.431911	0.000039
