data_functionalizedCrystal
_audit_creation_method	'MofGen! by Chris Wilmer'
_symmetry_space_group_name_H-M	'P1'
_symmetry_Int_Tables_number	1
_symmetry_cell_setting	triclinic
loop_
_symmetry_equiv_pos_as_xyz
  x,y,z
_cell_length_a	10.723024
_cell_length_b	17.038272
_cell_length_c	9.198806
_cell_angle_alpha	89.996565
_cell_angle_beta	89.996352
_cell_angle_gamma	87.789713
loop_
_atom_site_label
_atom_site_type_symbol
_atom_site_fract_x
_atom_site_fract_y
_atom_site_fract_z
O1	O	1.667337	0.109720	-0.120885
O2	O	1.305156	0.120222	-0.120890
O3	O	1.484094	0.001144	-0.120876
O4	O	1.488399	0.228799	-0.120899
O5	O	1.484079	0.001144	0.120909
O6	O	1.305141	0.120222	0.120895
O7	O	1.667322	0.109720	0.120900
Cu8	Cu	1.486230	0.114971	0.142975
Cu9	Cu	1.486248	0.114971	-0.142964
O10	O	1.488384	0.228798	0.120886
C11	C	1.258578	0.119458	0.000002
C12	C	1.119813	0.117171	0.000000
C13	C	1.050993	0.183801	-0.000007
C14	C	0.907571	0.181440	-0.000009
C15	C	1.480171	-0.028006	0.000016
C16	C	1.468489	-0.114864	0.000016
C17	C	1.575744	-0.164385	0.000019
C18	C	1.564760	-0.245996	0.000005
C19	C	1.446520	-0.278084	-0.000002
C20	C	1.339256	-0.228557	-0.000009
C21	C	1.350241	-0.146947	-0.000006
C22	C	1.407711	-0.524057	-0.000022
C23	C	1.396734	-0.605673	-0.000021
C24	C	1.622239	-0.623107	-0.000010
C25	C	1.633214	-0.541495	0.000002
C26	C	1.525950	-0.491974	-0.000013
C27	C	1.435289	-0.361504	-0.000011
C28	C	1.537182	-0.408556	-0.000014
C29	C	1.713900	0.110484	0.000005
C30	C	1.852666	0.112771	-0.000003
C31	C	1.492307	0.257948	-0.000009
C32	C	1.503989	0.344806	-0.000018
N33	N	1.486226	0.114970	0.344089
N34	N	1.486261	0.114966	-0.344078
C35	C	1.561337	0.064752	0.416291
C36	C	1.561356	0.064749	0.583704
H37	H	0.848415	0.238480	-0.000021
H38	H	1.098254	0.242594	-0.000005
C39	C	1.648197	0.006669	0.332385
C40	C	1.647931	0.006678	0.164979
C41	C	1.734794	-0.051408	0.081078
C42	C	1.821923	-0.109503	0.164583
C43	C	1.822192	-0.109515	0.331997
C44	C	1.735329	-0.051429	0.415898
H45	H	1.583430	0.049686	0.103156
H46	H	1.734595	-0.051399	-0.042854
H47	H	1.886224	-0.152502	0.102474
H48	H	1.886693	-0.152523	0.393821
H49	H	1.735528	-0.051438	0.539830
H50	H	1.072552	0.058378	-0.000031
C51	C	0.932563	0.035704	0.000006
C52	C	1.024234	0.017674	0.125562
C53	C	1.104142	-0.059393	0.125570
C54	C	1.092379	-0.118429	0.000024
C55	C	1.000704	-0.100401	-0.125541
C56	C	0.920796	-0.023334	-0.125550
H57	H	1.032945	0.061377	0.218507
H58	H	1.172006	-0.072739	0.218523
H59	H	1.151532	-0.175479	0.000031
H60	H	0.991993	-0.144104	-0.218486
H61	H	0.852932	-0.009988	-0.218502
C62	C	1.399380	0.173054	0.572061
C63	C	1.301241	0.142074	0.466534
C64	C	1.214360	0.200162	0.382661
C65	C	1.225618	0.289229	0.404315
C66	C	1.323760	0.320213	0.509848
C67	C	1.410641	0.262126	0.593721
H68	H	1.292904	0.076137	0.450499
H69	H	1.141709	0.177225	0.304538
H70	H	1.161303	0.332229	0.342227
H71	H	1.332098	0.386150	0.525882
H72	H	1.483293	0.285063	0.671843
H73	H	1.421931	0.157959	0.406212
C74	C	1.289719	-0.469595	-0.000012
C75	C	1.195188	-0.473625	-0.125554
C76	C	1.077187	-0.419161	-0.125536
C77	C	1.053719	-0.360667	0.000023
C78	C	1.148253	-0.356634	0.125574
C79	C	1.266253	-0.411099	0.125556
H80	H	1.212558	-0.516928	-0.218508
H81	H	1.007207	-0.422146	-0.218478
H82	H	0.966368	-0.320349	0.000036
H83	H	1.130882	-0.313331	0.218528
H84	H	1.336233	-0.408113	0.218498
H85	H	1.300443	-0.631796	-0.000003
C86	C	1.682747	-0.300467	0.000013
C87	C	1.777258	-0.296443	0.125576
C88	C	1.895253	-0.350912	0.125581
C89	C	1.918737	-0.409405	0.000022
C90	C	1.824223	-0.413430	-0.125551
C91	C	1.706228	-0.358961	-0.125556
H92	H	1.759876	-0.253142	0.218531
H93	H	1.965218	-0.347932	0.218539
H94	H	2.006083	-0.449726	0.000026
H95	H	1.841605	-0.456732	-0.218506
H96	H	1.636264	-0.361941	-0.218514
H97	H	1.672028	-0.138265	0.000033
H98	H	1.625666	0.021758	0.645795
H99	H	1.729498	-0.515375	0.000008
H100	H	1.709567	-0.663435	-0.000001
H101	H	1.262902	-0.106627	-0.000008
H102	H	1.242982	-0.254689	-0.000024
H103	H	1.633453	-0.382426	-0.000040
H104	H	1.339017	-0.387640	-0.000014
