data_functionalizedCrystal
_audit_creation_method	'MofGen! by Chris Wilmer'
_symmetry_space_group_name_H-M	'P1'
_symmetry_Int_Tables_number	1
_symmetry_cell_setting	triclinic
loop_
_symmetry_equiv_pos_as_xyz
  x,y,z
_cell_length_a	10.723024
_cell_length_b	12.837942
_cell_length_c	9.198806
_cell_angle_alpha	89.997396
_cell_angle_beta	89.996352
_cell_angle_gamma	89.648405
loop_
_atom_site_label
_atom_site_type_symbol
_atom_site_fract_x
_atom_site_fract_y
_atom_site_fract_z
O1	O	1.672992	0.145513	-0.120882
O2	O	1.311352	0.159441	-0.120887
O3	O	1.484153	0.001517	-0.120876
O4	O	1.500191	0.303437	-0.120894
O5	O	1.484138	0.001517	0.120909
O6	O	1.311337	0.159441	0.120898
O7	O	1.672977	0.145512	0.120903
Cu8	Cu	1.492155	0.152477	0.142977
Cu9	Cu	1.492173	0.152477	-0.142962
O10	O	1.500176	0.303436	0.120892
C11	C	1.264735	0.158427	0.000005
C12	C	1.125851	0.155395	0.000003
C13	C	1.060466	0.243761	-0.000003
C14	C	0.916922	0.240629	-0.000005
C15	C	1.478728	-0.037142	0.000016
C16	C	1.462569	-0.152334	0.000013
C17	C	1.656825	-0.391911	-0.000015
C18	C	1.641648	-0.500145	-0.000017
C19	C	1.417040	-0.477037	-0.000005
C20	C	1.432217	-0.368804	-0.000002
C21	C	1.552113	-0.326245	-0.000005
C22	C	1.567289	-0.218009	0.000008
C23	C	1.342681	-0.194904	0.000010
C24	C	1.327505	-0.303137	0.000007
C25	C	1.719594	0.146526	0.000008
C26	C	1.858478	0.149559	-0.000000
C27	C	1.505601	0.342096	-0.000003
C28	C	1.521760	0.457288	-0.000010
N29	N	1.492152	0.152476	0.344091
N30	N	1.492186	0.152470	-0.344076
C31	C	1.564674	0.085875	0.416293
C32	C	1.564693	0.085872	0.583705
H33	H	0.860706	0.316277	-0.000016
H34	H	1.626788	0.028856	0.645796
C35	C	1.788703	-0.345086	-0.000004
C36	C	1.879252	-0.369503	0.125554
C37	C	2.011132	-0.322678	0.125567
C38	C	2.052462	-0.251437	0.000023
C39	C	1.961911	-0.227017	-0.125544
C40	C	1.830031	-0.273841	-0.125558
H41	H	1.848659	-0.422243	0.218497
H42	H	2.078164	-0.340756	0.218521
H43	H	2.150087	-0.216775	0.000033
H44	H	1.992504	-0.174277	-0.218488
H45	H	1.762999	-0.255763	-0.218512
H46	H	1.626745	0.028855	0.354171
C47	C	1.057926	0.050052	0.000008
C48	C	1.078749	-0.027465	0.125566
C49	C	1.010827	-0.132812	0.125571
C50	C	0.922083	-0.160640	0.000019
C51	C	0.901256	-0.083120	-0.125548
C52	C	0.969178	0.022226	-0.125553
H53	H	1.144446	-0.006867	0.218515
H54	H	1.026245	-0.190197	0.218524
H55	H	0.871804	-0.238623	0.000023
H56	H	0.835559	-0.103718	-0.218497
H57	H	0.953760	0.079611	-0.218506
C58	C	1.195627	-0.349962	0.000005
C59	C	1.154305	-0.421204	0.125552
C60	C	1.022425	-0.468027	0.125551
C61	C	0.931866	-0.443608	0.000003
C62	C	0.973186	-0.372363	-0.125553
C63	C	1.105066	-0.325540	-0.125552
H64	H	1.221344	-0.439283	0.218499
H65	H	0.991838	-0.520768	0.218497
H66	H	0.834241	-0.478270	0.000003
H67	H	0.906147	-0.354283	-0.218500
H68	H	1.135653	-0.272799	-0.218498
H69	H	1.430098	0.209496	0.593843
C70	C	1.408287	0.229506	0.428003
C71	C	1.466871	0.309013	0.532663
C72	C	1.383003	0.386046	0.616570
C73	C	1.240551	0.383572	0.595817
C74	C	1.181959	0.304062	0.491152
C75	C	1.265827	0.227029	0.407245
H76	H	1.572329	0.310847	0.548029
H77	H	1.426377	0.444905	0.694049
H78	H	1.178467	0.440597	0.657930
H79	H	1.076501	0.302228	0.475785
H80	H	1.222453	0.168171	0.329765
H81	H	0.914686	0.073907	-0.000004
H82	H	1.110757	0.321733	0.000001
H83	H	1.664914	-0.183360	0.000011
H84	H	1.726916	-0.553607	-0.000030
H85	H	1.257417	-0.141426	0.000029
H86	H	1.319426	-0.511708	-0.000019
