data_functionalizedCrystal
_audit_creation_method	'MofGen! by Chris Wilmer'
_symmetry_space_group_name_H-M	'P1'
_symmetry_Int_Tables_number	1
_symmetry_cell_setting	triclinic
loop_
_symmetry_equiv_pos_as_xyz
  x,y,z
_cell_length_a	18.050591
_cell_length_b	18.050589
_cell_length_c	18.050582
_cell_angle_alpha	90.018205
_cell_angle_beta	90.020922
_cell_angle_gamma	90.024227
loop_
_atom_site_label
_atom_site_type_symbol
_atom_site_fract_x
_atom_site_fract_y
_atom_site_fract_z
Zn1	Zn	-1.135293	0.295786	-0.420054
Zn2	Zn	-1.135203	0.419969	-0.295873
Zn3	Zn	-1.011112	0.295789	-0.295865
Zn4	Zn	-1.011060	0.419930	-0.420009
O5	O	-1.073167	0.357868	-0.357950
O6	O	-1.239205	0.312274	-0.403603
O7	O	-1.118727	0.403514	-0.191948
O8	O	-1.027644	0.191864	-0.312354
O9	O	-1.239140	0.403511	-0.312369
O10	O	-1.118879	0.191862	-0.403595
O11	O	-1.027557	0.312279	-0.191942
O12	O	-0.907180	0.312241	-0.312311
O13	O	-1.027555	0.403444	-0.523940
O14	O	-0.907142	0.403447	-0.403519
O15	O	-1.118828	0.312236	-0.523973
O16	O	-1.118676	0.523888	-0.312325
O17	O	-1.027468	0.523860	-0.403527
C18	C	-0.880215	0.357841	-0.357909
C19	C	-0.797669	0.357847	-0.357909
C20	C	-1.073077	0.550820	-0.357938
C21	C	-1.073107	0.633366	-0.357958
C22	C	-1.073196	0.357835	-0.551656
C23	C	-1.073208	0.357821	-0.634202
C24	C	-1.266872	0.357897	-0.357992
C25	C	-1.349418	0.357909	-0.358010
C26	C	-0.598217	0.308191	-0.308425
C27	C	-0.548798	0.375927	-0.290154
C28	C	-0.646539	0.357869	-0.357943
C29	C	-0.548877	0.290157	-0.376212
C30	C	-0.500553	0.357885	-0.357974
C31	C	-0.598206	0.425641	-0.339637
C32	C	-0.598289	0.339825	-0.425726
C33	C	-0.548892	0.407607	-0.407481
C34	C	-0.730637	0.357859	-0.357923
C35	C	-0.416457	0.357903	-0.357994
C36	C	-1.073277	0.164163	-0.357979
C37	C	-1.073324	0.081617	-0.357991
C38	C	-1.023557	0.832828	-0.407536
C39	C	-1.005459	0.882261	-0.339767
C40	C	-1.073180	0.784497	-0.357967
C41	C	-1.091314	0.882146	-0.425744
C42	C	-1.073249	0.930482	-0.357983
C43	C	-1.055046	0.832842	-0.290162
C44	C	-1.140933	0.832722	-0.376186
C45	C	-1.122861	0.882133	-0.308370
C46	C	-1.073138	0.700398	-0.357959
C47	C	-1.073291	1.014578	-0.357983
C48	C	-1.023612	0.407353	-0.833635
C49	C	-1.091367	0.425511	-0.883034
C50	C	-1.073245	0.357765	-0.785332
C51	C	-1.005527	0.339586	-0.883014
C52	C	-1.073274	0.357711	-0.931317
C53	C	-1.141036	0.375958	-0.833645
C54	C	-1.055150	0.290002	-0.833620
C55	C	-1.122952	0.308134	-0.882998
C56	C	-1.073227	0.357797	-0.701234
C57	C	-1.073300	0.357679	-1.015414
C58	C	-1.073181	0.357848	-0.164998
C59	C	-1.073312	0.357652	-0.082453
H60	H	-0.619875	0.266226	-0.266503
H61	H	-0.948195	0.904037	-0.324371
C62	C	-0.670586	0.530862	-0.376740
C63	C	-0.627330	0.502976	-0.318700
H64	H	-0.688570	0.578601	-0.363810
H65	H	-0.641313	0.534351	-0.420315
H66	H	-0.711220	0.498547	-0.385447
H67	H	-0.586692	0.535287	-0.309997
H68	H	-0.656604	0.499491	-0.275112
H69	H	-0.981531	0.811178	-0.449395
H70	H	-1.106690	0.482794	-0.904739
H71	H	-0.620045	0.324530	-0.483019
H72	H	-1.039669	0.811275	-0.232834
H73	H	-0.527169	0.232894	-0.391625
H74	H	-0.948246	0.324232	-0.904701
C75	C	-1.160420	0.886161	-0.180843
C76	C	-1.179550	0.911184	-0.251729
H77	H	-1.195413	0.904102	-0.145875
H78	H	-1.160417	0.833545	-0.180251
H79	H	-1.112458	0.903878	-0.168324
H80	H	-1.227509	0.893463	-0.264250
H81	H	-1.179561	0.963812	-0.252323
C82	C	-1.237063	0.828160	-0.468038
C83	C	-1.218218	0.803318	-0.397011
H84	H	-1.284774	0.810001	-0.480901
H85	H	-1.237542	0.880774	-0.468638
H86	H	-1.201659	0.810540	-0.502746
H87	H	-1.253619	0.820943	-0.362303
H88	H	-1.217745	0.750693	-0.396406
C89	C	-1.178820	0.251479	-0.989645
C90	C	-1.179684	0.251484	-0.912077
H91	H	-1.213841	0.216502	-1.007595
H92	H	-1.191287	0.299442	-1.007312
H93	H	-1.130747	0.238479	-1.006632
H94	H	-1.227756	0.264490	-0.895089
H95	H	-1.167222	0.203510	-0.894402
H96	H	-0.981678	0.449342	-0.811961
C97	C	-1.217658	0.396657	-0.726929
C98	C	-1.218384	0.396784	-0.804499
H99	H	-1.265407	0.409520	-0.708937
H100	H	-1.204721	0.348694	-0.709604
H101	H	-1.182360	0.431680	-0.709641
H102	H	-1.253678	0.361756	-0.821787
H103	H	-1.231330	0.444754	-0.821831
H104	H	-1.039807	0.232736	-0.811899
H105	H	-1.106625	0.903802	-0.483056
H106	H	-0.527370	0.449673	-0.449370
C107	C	-0.544336	0.344447	-0.161004
C108	C	-0.519444	0.396547	-0.212791
H109	H	-0.526211	0.357172	-0.113245
H110	H	-0.596951	0.344151	-0.160322
H111	H	-0.526716	0.296683	-0.174320
H112	H	-0.537069	0.444310	-0.199479
H113	H	-0.466818	0.396850	-0.213472
