data_functionalizedCrystal
_audit_creation_method	'MofGen! by Chris Wilmer'
_symmetry_space_group_name_H-M	'P1'
_symmetry_Int_Tables_number	1
_symmetry_cell_setting	triclinic
loop_
_symmetry_equiv_pos_as_xyz
  x,y,z
_cell_length_a	18.050591
_cell_length_b	12.759399
_cell_length_c	12.759393
_cell_angle_alpha	90.030270
_cell_angle_beta	89.971724
_cell_angle_gamma	89.988878
loop_
_atom_site_label
_atom_site_type_symbol
_atom_site_fract_x
_atom_site_fract_y
_atom_site_fract_z
Zn1	Zn	1.135414	0.418334	-0.594236
Zn2	Zn	1.135337	0.594048	-0.418555
Zn3	Zn	1.011217	0.418371	-0.418547
Zn4	Zn	1.011210	0.593959	-0.594168
O5	O	1.073295	0.506178	-0.506377
O6	O	1.239328	0.441664	-0.570963
O7	O	1.118844	0.570796	-0.271533
O8	O	1.027728	0.271345	-0.441878
O9	O	1.239272	0.570760	-0.441891
O10	O	1.118975	0.271318	-0.570956
O11	O	1.027653	0.441727	-0.271527
O12	O	0.907292	0.441642	-0.441812
O13	O	1.027715	0.570610	-0.741198
O14	O	0.907286	0.570646	-0.570840
O15	O	1.118967	0.441578	-0.741248
O16	O	1.118836	0.741057	-0.441825
O17	O	1.027640	0.740992	-0.570848
C18	C	0.880342	0.506139	-0.506319
C19	C	0.797797	0.506147	-0.506319
C20	C	1.073249	0.779145	-0.506353
C21	C	1.073298	0.895922	-0.506378
C22	C	1.073349	0.506080	-0.780410
C23	C	1.073372	0.506038	-0.897187
C24	C	0.598328	0.435914	-0.436315
C25	C	0.548921	0.531744	-0.410465
C26	C	0.646666	0.506179	-0.506366
C27	C	0.548991	0.410382	-0.532213
C28	C	0.500681	0.506202	-0.506410
C29	C	0.598347	0.602060	-0.480466
C30	C	0.598422	0.480634	-0.602259
C31	C	0.549037	0.576530	-0.576446
C32	C	0.730765	0.506165	-0.506338
C33	C	0.416585	0.506227	-0.506438
C34	C	1.267000	0.506218	-0.506436
C35	C	1.349546	0.506235	-0.506461
C36	C	1.073361	0.232145	-0.506424
C37	C	1.073389	0.115368	-0.506444
C38	C	1.120837	0.950783	-0.439272
C39	C	1.120885	1.060507	-0.439307
C40	C	1.025847	1.060499	-0.573557
C41	C	1.025803	0.950777	-0.573526
C42	C	1.120874	0.573167	-1.061787
C43	C	1.120856	0.573216	-0.952063
C44	C	1.025897	0.438814	-0.952041
C45	C	1.025912	0.438771	-1.061763
C46	C	1.073284	0.506200	-0.233409
C47	C	1.073404	0.505945	-0.116633
H48	H	0.619970	0.376556	-0.377011
H49	H	0.527179	0.553367	-0.329389
F50	F	0.975376	0.367233	-1.120137
H51	H	1.159545	0.627866	-1.106460
F52	F	0.626563	0.707994	-0.451793
H53	H	0.987177	1.105176	-0.628225
F54	F	1.171378	0.644764	-0.893697
F55	F	0.520925	0.654297	-0.653903
H56	H	0.987231	0.384122	-0.907352
H57	H	0.620181	0.458981	-0.683311
F58	F	0.520649	0.304481	-0.560763
F59	F	1.171386	0.892405	-0.367809
H60	H	1.159598	1.105170	-0.384665
H61	H	0.987090	0.906107	-0.628176
