data_functionalizedCrystal
_audit_creation_method	'MofGen! by Chris Wilmer'
_symmetry_space_group_name_H-M	'P1'
_symmetry_Int_Tables_number	1
_symmetry_cell_setting	triclinic
loop_
_symmetry_equiv_pos_as_xyz
  x,y,z
_cell_length_a	6.817900
_cell_length_b	15.866870
_cell_length_c	15.301140
_cell_angle_alpha	112.221816
_cell_angle_beta	75.822261
_cell_angle_gamma	77.344085
loop_
_atom_site_label
_atom_site_type_symbol
_atom_site_fract_x
_atom_site_fract_y
_atom_site_fract_z
V1	V	4.061222	-0.133387	-0.325480
O2	O	4.020620	0.005742	-0.273885
O3	O	4.038914	-0.263840	-0.366918
O4	O	4.015802	-0.131628	-0.447513
O5	O	4.043891	-0.127386	-0.192732
V6	V	4.541083	-0.116711	-0.304298
O7	O	4.330514	-0.169967	-0.371945
O8	O	4.721989	-0.080130	-0.257834
O9	O	4.340186	0.013743	-0.262861
O10	O	4.699083	-0.255839	-0.355894
O11	O	4.675812	-0.122711	-0.437047
O12	O	4.363297	-0.118469	-0.182266
C13	C	3.890166	-0.295633	-0.373050
C14	C	3.953232	-0.402283	-0.407744
C15	C	3.934275	-0.683624	-0.085929
C16	C	3.993546	-0.783842	-0.118559
C17	C	4.084096	-0.811597	-0.292931
C18	C	4.024821	-0.711379	-0.260315
C19	C	3.949916	-0.647400	-0.156813
C20	C	4.040462	-0.675155	-0.331199
C21	C	3.981203	-0.574946	-0.298585
C22	C	3.906304	-0.510961	-0.195088
C23	C	3.890657	-0.547191	-0.124199
C24	C	4.115383	-0.739137	-0.434701
C25	C	4.131024	-0.702912	-0.505585
C26	C	4.071750	-0.602701	-0.472971
C27	C	3.996850	-0.538716	-0.369474
C28	C	4.087397	-0.566471	-0.543860
C29	C	4.028138	-0.466262	-0.511246
C30	C	3.937591	-0.438507	-0.336860
C31	C	3.860683	-0.126982	-0.475855
C32	C	3.905003	-0.126407	-0.575904
C33	C	4.152277	0.045531	-0.256728
C34	C	4.068449	0.152180	-0.222040
C35	C	4.109027	-0.130941	-0.629098
C36	C	4.150658	-0.130400	-0.723104
C37	C	3.988268	-0.125333	-0.763918
C38	C	3.784226	-0.120796	-0.710716
C39	C	3.742593	-0.121330	-0.616709
C40	C	3.871017	-0.119687	-0.906660
C41	C	3.912653	-0.119155	-1.000675
C42	C	4.279082	-0.128757	-1.013055
C43	C	4.237449	-0.129290	-0.919047
C44	C	4.033410	-0.124756	-0.865853
C45	C	4.181759	-0.123118	-0.153920
C46	C	4.116676	-0.123688	-0.053868
H47	H	4.192027	-0.755018	-0.589857
H48	H	3.576443	-0.117615	-0.573388
Br49	Br	4.189096	-0.653311	-0.684323
Br50	Br	3.692262	-0.112274	-1.056064
H51	H	4.145098	-0.863703	-0.377203
H52	H	4.445220	-0.132451	-1.056371
Br53	Br	3.594094	-0.113517	-0.834460
H54	H	3.652004	-0.116665	-0.743952
H55	H	3.876563	-0.386410	-0.252578
H56	H	4.163634	-0.820732	-0.461251
Br57	Br	3.825908	-0.374961	-0.150823
Br58	Br	4.427564	-0.136564	-0.795298
H59	H	4.241274	-0.135073	-0.595877
H60	H	4.369689	-0.133423	-0.885823
Br61	Br	3.832570	-0.596784	0.054541
Br62	Br	3.788953	-0.460351	0.016271
Br63	Br	4.049385	-0.417095	-0.607446
Br64	Br	3.972312	-0.833000	-0.022348
