data_functionalizedCrystal
_audit_creation_method	'MofGen! by Chris Wilmer'
_symmetry_space_group_name_H-M	'P1'
_symmetry_Int_Tables_number	1
_symmetry_cell_setting	triclinic
loop_
_symmetry_equiv_pos_as_xyz
  x,y,z
_cell_length_a	9.065218
_cell_length_b	17.038272
_cell_length_c	7.540329
_cell_angle_alpha	89.996089
_cell_angle_beta	89.996962
_cell_angle_gamma	88.063721
loop_
_atom_site_label
_atom_site_type_symbol
_atom_site_fract_x
_atom_site_fract_y
_atom_site_fract_z
O1	O	1.971909	0.114742	-0.147490
O2	O	1.543568	0.124154	-0.147492
O3	O	1.755192	0.005614	-0.147477
O4	O	1.760284	0.233281	-0.147505
O5	O	1.755179	0.005612	0.147488
O6	O	1.543554	0.124152	0.147473
O7	O	1.971895	0.114740	0.147476
Cu8	Cu	1.757723	0.119446	0.174407
Cu9	Cu	1.757739	0.119448	-0.174424
O10	O	1.760270	0.233280	0.147460
C11	C	1.488484	0.123248	-0.000010
C12	C	1.324369	0.120544	-0.000011
C13	C	1.750555	-0.023549	0.000005
C14	C	1.736739	-0.110441	0.000005
C15	C	1.863587	-0.159639	0.000008
C16	C	1.850596	-0.241284	-0.000009
C17	C	1.710756	-0.273728	-0.000016
C18	C	1.583899	-0.224524	-0.000024
C19	C	1.596891	-0.142881	-0.000020
C20	C	1.664859	-0.519818	-0.000041
C21	C	1.651876	-0.601467	-0.000040
C22	C	1.918575	-0.618221	-0.000028
C23	C	1.931554	-0.536576	-0.000013
C24	C	1.804697	-0.487379	-0.000031
C25	C	1.697475	-0.357182	-0.000028
C26	C	1.817980	-0.403927	-0.000032
C27	C	2.026979	0.115646	-0.000011
C28	C	2.191093	0.118350	-0.000022
C29	C	1.764908	0.262442	-0.000026
C30	C	1.778724	0.349335	-0.000037
N31	N	1.757723	0.119444	0.419755
N32	N	1.757751	0.119443	-0.419772
H33	H	1.953890	-0.281338	-0.000003
C34	C	2.015548	-0.124569	-0.000082
C35	C	2.123853	-0.185133	-0.000136
C36	C	2.263859	-0.152859	-0.000251
H37	H	2.026372	-0.093082	0.102750
H38	H	2.026237	-0.093087	-0.102985
H39	H	2.113169	-0.216602	0.102757
H40	H	2.113078	-0.216625	-0.102960
H41	H	2.274549	-0.121378	-0.103154
H42	H	2.274668	-0.121373	0.102583
H43	H	2.337361	-0.193947	-0.000304
C44	C	1.545745	-0.392519	-0.000294
C45	C	1.530523	-0.438910	-0.152028
C46	C	1.390780	-0.471487	-0.152325
H47	H	1.471909	-0.351612	-0.000377
H48	H	1.535125	-0.424070	0.102511
H49	H	1.541128	-0.407361	-0.254807
H50	H	1.604326	-0.479830	-0.151977
H51	H	1.380160	-0.503038	-0.049519
H52	H	1.316955	-0.430575	-0.152403
H53	H	1.380438	-0.502973	-0.255265
C54	C	2.083341	-0.501305	0.000346
C55	C	2.098590	-0.454944	0.152124
C56	C	2.238401	-0.422446	0.152533
H57	H	2.094103	-0.469745	-0.102392
H58	H	2.157082	-0.542274	0.000439
H59	H	2.024870	-0.413980	0.152016
H60	H	2.087856	-0.486487	0.254887
H61	H	2.312142	-0.463416	0.152625
H62	H	2.249151	-0.390890	0.049788
H63	H	2.248771	-0.390993	0.255519
H64	H	1.470038	-0.250946	-0.000041
C65	C	1.459221	-0.089423	-0.000385
C66	C	1.458883	-0.042073	-0.152162
C67	C	1.332072	0.007173	-0.152580
H68	H	1.458605	-0.057155	0.102354
H69	H	1.374036	-0.120410	-0.000483
H70	H	1.544045	-0.011090	-0.152048
H71	H	1.459476	-0.074320	-0.254926
H72	H	1.246887	-0.023813	-0.152678
H73	H	1.331467	0.039436	-0.049835
H74	H	1.331819	0.039301	-0.255566
H75	H	1.561561	-0.479770	-0.000054
H76	H	1.931837	-0.377507	-0.000065
H77	H	1.537996	-0.627879	-0.000017
C78	C	2.056247	-0.671675	-0.000395
C79	C	2.056604	-0.719014	-0.152176
C80	C	2.183419	-0.768257	-0.152594
H81	H	2.056856	-0.703950	0.102341
H82	H	2.141429	-0.640686	-0.000490
H83	H	1.971445	-0.750000	-0.152065
H84	H	2.056018	-0.686760	-0.254937
H85	H	2.268601	-0.737269	-0.152689
H86	H	2.184017	-0.800527	-0.049851
H87	H	2.183686	-0.800377	-0.255583
