data_functionalizedCrystal
_audit_creation_method	'MofGen! by Chris Wilmer'
_symmetry_space_group_name_H-M	'P1'
_symmetry_Int_Tables_number	1
_symmetry_cell_setting	triclinic
loop_
_symmetry_equiv_pos_as_xyz
  x,y,z
_cell_length_a	19.805407
_cell_length_b	16.959454
_cell_length_c	19.805399
_cell_angle_alpha	89.978568
_cell_angle_beta	90.017803
_cell_angle_gamma	89.979748
loop_
_atom_site_label
_atom_site_type_symbol
_atom_site_fract_x
_atom_site_fract_y
_atom_site_fract_z
Zn1	Zn	1.034752	0.314756	0.382717
Zn2	Zn	1.034674	0.446939	0.269540
Zn3	Zn	0.921567	0.314772	0.269545
Zn4	Zn	0.921537	0.446891	0.382691
O5	O	0.978132	0.380840	0.326123
O6	O	1.129458	0.332304	0.367713
O7	O	1.019649	0.429433	0.174824
O8	O	0.936626	0.204159	0.284570
O9	O	1.129401	0.429418	0.284563
O10	O	1.019783	0.204148	0.367717
O11	O	0.936550	0.332331	0.174828
O12	O	0.826846	0.332284	0.284545
O13	O	0.936576	0.429336	0.477411
O14	O	0.826824	0.429351	0.367673
O15	O	1.019754	0.332258	0.477430
O16	O	1.019621	0.557543	0.284538
O17	O	0.936500	0.557508	0.367669
C18	C	0.802276	0.380815	0.326107
C19	C	0.727044	0.380823	0.326116
C20	C	0.691731	0.330345	0.369478
C21	C	0.621042	0.330350	0.369480
C22	C	0.585669	0.380836	0.326124
C23	C	0.620987	0.431316	0.282757
C24	C	0.691674	0.431307	0.282751
C25	C	0.335914	0.431352	0.282778
C26	C	0.265222	0.431358	0.282788
C27	C	0.265282	0.330394	0.369507
C28	C	0.335969	0.330385	0.369501
C29	C	0.371281	0.380862	0.326132
C30	C	0.447930	0.380856	0.326129
C31	C	0.509022	0.380847	0.326130
C32	C	0.978067	0.586206	0.326115
C33	C	0.978101	0.674062	0.326133
C34	C	0.934886	1.045549	0.369414
C35	C	1.021511	1.045526	0.282920
C36	C	1.021491	0.962981	0.282912
C37	C	0.978167	0.921715	0.326156
C38	C	0.934863	0.962996	0.369407
C39	C	1.064789	0.921694	0.239658
C40	C	1.064770	0.839143	0.239648
C41	C	1.021449	0.797876	0.282895
C42	C	0.978144	0.839162	0.326148
C43	C	0.934820	0.797897	0.369392
C44	C	0.891518	0.839181	0.412649
C45	C	0.891542	0.921729	0.412654
C46	C	1.021425	0.715328	0.282890
C47	C	0.934797	0.715343	0.369384
C48	C	1.154675	0.380865	0.326140
C49	C	1.229907	0.380876	0.326147
C50	C	0.978170	0.380790	0.502666
C51	C	0.978186	0.380769	0.577898
C52	C	0.978206	1.174671	0.326150
C53	C	0.978210	1.086815	0.326171
C54	C	0.978133	0.380832	0.150267
C55	C	0.978248	0.380631	0.075036
C56	C	1.021499	0.330217	0.613253
C57	C	1.021505	0.330194	0.683942
C58	C	0.978203	0.380727	0.719274
C59	C	0.934886	0.431281	0.683913
C60	C	0.934877	0.431299	0.613226
C61	C	0.934925	0.431207	0.968987
C62	C	0.934939	0.431186	1.039679
C63	C	1.021554	0.330102	1.039702
C64	C	1.021544	0.330121	0.969015
C65	C	0.978225	0.380671	0.933661
C66	C	0.978217	0.380694	0.857013
C67	C	0.978214	0.380709	0.795921
H68	H	0.364657	0.472454	0.247465
H69	H	1.100056	0.955298	0.204446
H70	H	0.899627	0.472423	0.712686
H71	H	1.056779	1.079129	0.247709
H72	H	1.100029	0.805534	0.204427
H73	H	0.592180	0.472419	0.247452
F74	F	1.067656	0.276299	1.077334
F75	F	1.067500	0.671394	0.236850
H76	H	1.056762	0.289070	0.584491
F77	F	0.729257	0.485033	0.236600
F78	F	0.888688	0.671432	0.415415
F79	F	1.067627	0.276418	0.721566
F80	F	1.067634	0.276340	0.931416
F81	F	0.888805	1.089486	0.415452
H82	H	0.236423	0.472472	0.247479
H83	H	0.856240	0.805573	0.447855
H84	H	0.856287	0.955350	0.447871
H85	H	0.364767	0.289277	0.404809
H86	H	0.236522	0.289290	0.404817
H87	H	0.899675	0.472338	1.068444
H88	H	0.899601	0.472455	0.584441
F89	F	0.729372	0.276614	0.415628
F90	F	0.583462	0.276626	0.415634
H91	H	0.899662	0.472380	0.940210
