data_functionalizedCrystal
_audit_creation_method	'MofGen! by Chris Wilmer'
_symmetry_space_group_name_H-M	'P1'
_symmetry_Int_Tables_number	1
_symmetry_cell_setting	triclinic
loop_
_symmetry_equiv_pos_as_xyz
  x,y,z
_cell_length_a	23.532355
_cell_length_b	23.532357
_cell_length_c	22.610064
_cell_angle_alpha	89.998517
_cell_angle_beta	89.997644
_cell_angle_gamma	82.827896
loop_
_atom_site_label
_atom_site_type_symbol
_atom_site_fract_x
_atom_site_fract_y
_atom_site_fract_z
O1	O	0.755270	0.068988	-0.049111
O2	O	0.589401	0.079022	-0.049131
O3	O	0.677352	-0.008929	-0.049108
O4	O	0.667319	0.156940	-0.049134
O5	O	0.677337	-0.008917	0.049261
O6	O	0.589385	0.079035	0.049238
O7	O	0.755255	0.069001	0.049258
Zn8	Zn	0.672318	0.074020	0.064866
Zn9	Zn	0.672338	0.074003	-0.064739
O10	O	0.667303	0.156953	0.049235
C11	C	0.568177	0.078778	0.000051
C12	C	0.504958	0.078024	0.000044
C13	C	0.677094	-0.030140	0.000078
C14	C	0.676339	-0.093358	0.000084
C15	C	0.671611	-0.485375	-0.053570
C16	C	0.670893	-0.544775	-0.053573
O17	O	0.670510	-0.575497	-0.099176
N18	N	0.670529	-0.574479	0.000047
C19	C	0.670877	-0.544780	0.053674
O20	O	0.670500	-0.575500	0.099282
C21	C	0.671590	-0.485381	0.053677
C22	C	0.671960	-0.455681	0.000053
C23	C	0.671980	-0.455675	-0.107189
C24	C	0.672698	-0.396280	-0.107186
C25	C	0.673047	-0.366585	-0.053563
C26	C	0.672678	-0.396286	0.000057
C27	C	0.671933	-0.455682	0.107303
C28	C	0.672646	-0.396280	0.107302
C29	C	0.673016	-0.366579	0.053678
C30	C	0.673745	-0.307196	0.053684
N31	N	0.674109	-0.277492	0.000063
C32	C	0.673760	-0.307186	-0.053560
C33	C	0.669378	-0.669521	0.053664
C34	C	0.668669	-0.728919	0.053662
C35	C	0.668685	-0.728910	-0.053586
C36	C	0.669398	-0.669511	-0.053583
C37	C	0.669742	-0.639817	0.000044
C38	C	0.675269	-0.182453	-0.053548
C39	C	0.675990	-0.123053	-0.053540
C40	C	0.675971	-0.123067	0.053708
C41	C	0.675253	-0.182462	0.053700
C42	C	0.674901	-0.212153	0.000067
O43	O	0.674126	-0.276436	0.099263
O44	O	0.674129	-0.276458	-0.099160
C45	C	0.112937	0.073293	0.053691
C46	C	0.053537	0.072575	0.053693
O47	O	0.022812	0.072191	0.099295
N48	N	0.023837	0.072212	0.000072
C49	C	0.053541	0.072561	-0.053554
O50	O	0.022824	0.072186	-0.099163
C51	C	0.112939	0.073275	-0.053556
C52	C	0.142636	0.073643	0.000068
C53	C	0.142633	0.073661	0.107311
C54	C	0.202028	0.074379	0.107308
C55	C	0.231727	0.074730	0.053686
C56	C	0.202031	0.074362	0.000066
C57	C	0.142642	0.073620	-0.107182
C58	C	0.202045	0.074333	-0.107179
C59	C	0.231741	0.074701	-0.053555
C60	C	0.291124	0.075431	-0.053560
N61	N	0.320824	0.075794	0.000061
C62	C	0.291126	0.075443	0.053684
C63	C	-0.071201	0.071062	-0.053546
C64	C	-0.130599	0.070353	-0.053545
C65	C	-0.130598	0.070366	0.053702
C66	C	-0.071199	0.071079	0.053701
C67	C	-0.041501	0.071425	0.000074
C68	C	0.415859	0.076952	0.053674
C69	C	0.475259	0.077673	0.053667
C70	C	0.475254	0.077657	-0.053581
C71	C	0.415858	0.076940	-0.053574
C72	C	0.386163	0.076585	0.000059
O73	O	0.321888	0.075813	-0.099138
O74	O	0.321850	0.075811	0.099285
C75	C	0.776479	0.069245	0.000074
C76	C	0.839698	0.069999	0.000078
C77	C	0.667562	0.178163	0.000048
C78	C	0.668317	0.241381	0.000038
N79	N	0.672308	0.074031	0.153319
N80	N	0.672352	0.073987	-0.153192
C81	C	0.711285	0.035064	0.561970
C82	C	0.711288	0.035060	0.623890
O83	O	0.744403	0.001937	0.655917
N84	N	0.672338	0.073991	0.654856
C85	C	0.633378	0.112926	0.623899
O86	O	0.600249	0.146039	0.655923
C87	C	0.633373	0.112927	0.561980
C88	C	0.672330	0.073996	0.531017
C89	C	0.750237	-0.003863	0.531008
C90	C	0.750235	-0.003858	0.469092
C91	C	0.711280	0.035074	0.438139
C92	C	0.672327	0.074001	0.469102
C93	C	0.594412	0.151858	0.531024
C94	C	0.594410	0.151855	0.469101
C95	C	0.633366	0.112925	0.438138
C96	C	0.633370	0.112939	0.376233
N97	N	0.672320	0.074007	0.345267
C98	C	0.711275	0.035075	0.376220
C99	C	0.633392	0.112920	0.753932
C100	C	0.633399	0.112922	0.815850
C101	C	0.711308	0.035056	0.815837
C102	C	0.711302	0.035057	0.753918
C103	C	0.672342	0.073989	0.722966
C104	C	0.711267	0.035089	0.246193
C105	C	0.711263	0.035099	0.184272
C106	C	0.633353	0.112963	0.184290
C107	C	0.633359	0.112955	0.246206
C108	C	0.672318	0.074013	0.277156
O109	O	0.600270	0.146043	0.344166
O110	O	0.744394	0.001962	0.344188
H111	H	0.676292	-0.098873	-0.097208
H112	H	0.674979	-0.206620	-0.097221
H113	H	0.671694	-0.479846	-0.150858
C114	C	0.788857	0.022307	0.315807
C115	C	0.754093	-0.007715	0.280207
H116	H	0.815295	-0.004118	0.336808
H117	H	0.809196	0.045907	0.291651
H118	H	0.765656	0.045484	0.343115
H119	H	0.777294	-0.030889	0.252897
H120	H	0.733753	-0.031325	0.304365
C121	C	0.667552	-0.819970	0.101288
C122	C	0.668259	-0.761562	0.112606
H123	H	0.667296	-0.840119	0.137680
H124	H	0.634226	-0.825157	0.079249
H125	H	0.700660	-0.834246	0.079267
H126	H	0.635148	-0.747285	0.134624
H127	H	0.701588	-0.756371	0.134655
C128	C	0.002284	0.022897	-0.115778
C129	C	-0.038561	0.071452	-0.112499
H130	H	0.022428	0.023137	-0.152174
H131	H	0.028474	0.023219	-0.083852
H132	H	-0.016354	-0.010595	-0.113540
H133	H	-0.019922	0.104944	-0.114731
H134	H	-0.064755	0.071135	-0.144433
H135	H	0.118459	0.073374	0.150979
H136	H	0.226202	0.074676	0.150975
C137	C	0.784852	-0.038453	0.625914
C138	C	0.793062	-0.046662	0.565025
H139	H	0.811293	-0.064878	0.646911
H140	H	0.790815	-0.000480	0.636061
H141	H	0.746882	-0.044444	0.636067
H142	H	0.831031	-0.040666	0.554871
H143	H	0.787105	-0.084644	0.554875
H144	H	0.391688	0.076669	0.097347
H145	H	0.672997	-0.372103	-0.150852
H146	H	0.601683	0.144629	0.841055
H147	H	0.669698	-0.645333	-0.097248
H148	H	0.671633	-0.479854	0.150970
C149	C	0.669296	-0.675507	0.159674
C150	C	0.669765	-0.636885	0.112616
H151	H	0.669537	-0.655360	0.196068
H152	H	0.635803	-0.694133	0.157436
H153	H	0.702237	-0.703215	0.157438
H154	H	0.636822	-0.609179	0.114850
H155	H	0.703261	-0.618249	0.114856
C156	C	0.788320	-0.041917	0.809620
C157	C	0.754127	-0.007744	0.849868
H158	H	0.814755	-0.068334	0.830632
H159	H	0.764735	-0.062279	0.785473
H160	H	0.808666	-0.018313	0.785467
H161	H	0.733777	-0.031348	0.874019
H162	H	0.777715	0.012619	0.874026
C163	C	0.516819	0.164630	0.399481
C164	C	0.551582	0.194653	0.435080
H165	H	0.490378	0.191053	0.378483
H166	H	0.540016	0.141454	0.372178
H167	H	0.496478	0.141028	0.423643
H168	H	0.571926	0.218253	0.410918
H169	H	0.528382	0.217839	0.462386
H170	H	-0.047025	0.071380	0.097366
H171	H	0.601666	0.144628	0.728734
H172	H	0.226222	0.074614	-0.150849
C173	C	0.672541	-0.402257	0.213313
C174	C	0.673019	-0.363640	0.166252
H175	H	0.672774	-0.382107	0.249704
H176	H	0.639050	-0.420885	0.211068
H177	H	0.705483	-0.429965	0.211085
H178	H	0.640075	-0.335935	0.168476
H179	H	0.706514	-0.345003	0.168498
H180	H	0.674958	-0.206646	0.097365
H181	H	0.781955	-0.035560	0.443886
H182	H	0.743024	0.003356	0.728712
H183	H	-0.154789	0.070079	0.097365
C184	C	0.559805	0.186434	0.625935
C185	C	0.551586	0.194648	0.565048
H186	H	0.533365	0.212855	0.646938
H187	H	0.553848	0.148459	0.636082
H188	H	0.597775	0.192429	0.636079
H189	H	0.513616	0.188649	0.554902
H190	H	0.557538	0.232632	0.554897
H191	H	0.601642	0.144661	0.271416
C192	C	0.667585	-0.819964	-0.101203
C193	C	0.668294	-0.761557	-0.112531
H194	H	0.667340	-0.840118	-0.137592
H195	H	0.700680	-0.834235	-0.079173
H196	H	0.634247	-0.825148	-0.079170
H197	H	0.701634	-0.756372	-0.134561
H198	H	0.635195	-0.747282	-0.134571
H199	H	0.601637	0.144663	0.159078
C200	C	-0.124619	0.070412	-0.159553
C201	C	-0.163237	0.069954	-0.112491
H202	H	-0.144767	0.070160	-0.195944
H203	H	-0.105995	0.103907	-0.157326
H204	H	-0.096908	0.037474	-0.157310
H205	H	-0.190946	0.102894	-0.114731
H206	H	-0.181870	0.036455	-0.114719
C207	C	0.421826	0.077008	-0.159583
C208	C	0.383212	0.076544	-0.112517
H209	H	0.401673	0.076758	-0.195972
H210	H	0.440449	0.110504	-0.157355
H211	H	0.449537	0.044070	-0.157346
H212	H	0.355502	0.109484	-0.114752
H213	H	0.364579	0.043045	-0.114746
H214	H	0.676258	-0.098879	0.097366
H215	H	0.499435	0.077975	0.097336
H216	H	0.118474	0.073319	-0.150849
H217	H	0.499445	0.077945	-0.097239
C218	C	0.788272	-0.041874	0.190488
C219	C	0.754084	-0.007699	0.150239
H220	H	0.814703	-0.068297	0.169478
H221	H	0.808618	-0.018275	0.214636
H222	H	0.764679	-0.062234	0.214641
H223	H	0.777676	0.012665	0.126088
H224	H	0.733737	-0.031301	0.126080
