data_functionalizedCrystal
_audit_creation_method	'MofGen! by Chris Wilmer'
_symmetry_space_group_name_H-M	'P1'
_symmetry_Int_Tables_number	1
_symmetry_cell_setting	triclinic
loop_
_symmetry_equiv_pos_as_xyz
  x,y,z
_cell_length_a	11.792241
_cell_length_b	11.792241
_cell_length_c	10.868271
_cell_angle_alpha	89.994719
_cell_angle_beta	89.999893
_cell_angle_gamma	84.193416
loop_
_atom_site_label
_atom_site_type_symbol
_atom_site_fract_x
_atom_site_fract_y
_atom_site_fract_z
O1	O	1.506908	0.155568	-0.102203
O2	O	2.006908	0.655568	0.397797
O3	O	1.176567	0.171601	-0.102232
O4	O	1.676567	0.671601	0.397768
O5	O	1.349754	-0.001586	-0.102208
O6	O	1.849754	0.498414	0.397792
O7	O	1.333721	0.328755	-0.102227
O8	O	1.833721	0.828755	0.397773
O9	O	1.349740	-0.001592	0.102436
O10	O	1.849740	0.498408	0.602436
O11	O	1.176553	0.171595	0.102413
O12	O	1.676553	0.671595	0.602413
O13	O	1.506894	0.155562	0.102441
O14	O	2.006894	0.655562	0.602441
Zn15	Zn	1.341721	0.163577	0.134919
Zn16	Zn	1.841721	0.663577	0.634919
Zn17	Zn	1.341740	0.163586	-0.134709
Zn18	Zn	1.841740	0.663586	0.365291
O19	O	1.333707	0.328749	0.102418
O20	O	1.833707	0.828749	0.602418
C21	C	1.134269	0.170591	0.000087
C22	C	1.634269	0.670591	0.500087
C23	C	1.008255	0.167576	0.000076
C24	C	1.508255	0.667576	0.500076
C25	C	1.348740	-0.043880	0.000114
C26	C	1.848740	0.456120	0.500114
C27	C	1.345726	-0.169894	0.000112
C28	C	1.845726	0.330106	0.500112
C29	C	1.340183	-0.400606	0.000091
C30	C	1.840183	0.099394	0.500091
C31	C	1.343262	-0.272221	0.000102
C32	C	1.843262	0.227779	0.500102
C33	C	0.777543	0.162034	0.000112
C34	C	1.277543	0.662034	0.500112
C35	C	0.905928	0.165113	0.000092
C36	C	1.405928	0.665113	0.500092
C37	C	1.549192	0.156572	0.000120
C38	C	2.049192	0.656572	0.500120
C39	C	1.675206	0.159587	0.000123
C40	C	2.175206	0.659587	0.500123
C41	C	1.334721	0.371043	0.000093
C42	C	1.834721	0.871043	0.500093
C43	C	1.337736	0.497057	0.000087
C44	C	1.837736	0.997057	0.500087
N45	N	1.341717	0.163570	0.318933
N46	N	1.841717	0.663570	0.818933
N47	N	1.341754	0.163584	-0.318723
N48	N	1.841754	0.663584	0.181277
C49	C	1.341734	0.163584	0.569939
C50	C	1.841734	0.663584	1.069939
C51	C	1.341721	0.163580	0.430261
C52	C	1.841721	0.663580	0.930261
