data_functionalizedCrystal
_audit_creation_method	'MofGen! by Chris Wilmer'
_symmetry_space_group_name_H-M	'P1'
_symmetry_Int_Tables_number	1
_symmetry_cell_setting	triclinic
loop_
_symmetry_equiv_pos_as_xyz
  x,y,z
_cell_length_a	14.044191
_cell_length_b	14.044220
_cell_length_c	13.101039
_cell_angle_alpha	93.667477
_cell_angle_beta	86.337551
_cell_angle_gamma	93.190327
loop_
_atom_site_label
_atom_site_type_symbol
_atom_site_fract_x
_atom_site_fract_y
_atom_site_fract_z
O1	O	1.281976	0.225377	-0.085169
O2	O	1.615310	0.558711	0.248164
O3	O	1.948643	0.892044	0.581497
O4	O	1.005305	0.217064	-0.085182
O5	O	1.338638	0.550397	0.248151
O6	O	1.671971	0.883731	0.581485
O7	O	1.139487	0.082885	-0.085166
O8	O	1.472820	0.416219	0.248168
O9	O	1.806154	0.749552	0.581501
O10	O	1.147794	0.359556	-0.085186
O11	O	1.481127	0.692889	0.248148
O12	O	1.814461	1.026223	0.581481
O13	O	1.129861	0.092530	0.085263
O14	O	1.463194	0.425863	0.418596
O15	O	1.796528	0.759197	0.751930
O16	O	0.995679	0.226708	0.085247
O17	O	1.329012	0.560042	0.418580
O18	O	1.662345	0.893375	0.751913
O19	O	1.272350	0.235022	0.085259
O20	O	1.605684	0.568355	0.418593
O21	O	1.939017	0.901689	0.751926
Zn22	Zn	1.132486	0.232396	0.112312
Zn23	Zn	1.465820	0.565730	0.445646
Zn24	Zn	1.799153	0.899063	0.778979
Zn25	Zn	1.145169	0.219689	-0.112235
Zn26	Zn	1.478502	0.553023	0.221098
Zn27	Zn	1.811836	0.886356	0.554432
O28	O	1.138168	0.369200	0.085243
O29	O	1.471501	0.702534	0.418576
O30	O	1.804835	1.035867	0.751910
C31	C	0.964870	0.218250	0.000031
C32	C	1.298203	0.551583	0.333364
C33	C	1.631536	0.884916	0.666697
C34	C	0.858727	0.207402	0.000026
C35	C	1.192060	0.540735	0.333359
C36	C	1.525394	0.874069	0.666693
C37	C	0.613268	0.264503	0.000032
C38	C	0.946601	0.597836	0.333366
C39	C	1.279935	0.931169	0.666699
C40	C	0.664393	0.187587	0.000036
C41	C	0.997727	0.520920	0.333369
C42	C	1.331060	0.854253	0.666703
C43	C	0.772531	0.198615	0.000031
C44	C	1.105864	0.531948	0.333364
C45	C	1.439197	0.865281	0.666697
C46	C	0.505121	0.253476	0.000038
C47	C	0.838454	0.586810	0.333371
C48	C	1.171788	0.920143	0.666704
C49	C	1.131038	0.052086	0.000049
C50	C	1.464372	0.385419	0.333382
C51	C	1.797705	0.718752	0.666715
C52	C	1.120194	-0.054057	0.000050
C53	C	1.453527	0.279276	0.333383
C54	C	1.786860	0.612609	0.666716
C55	C	1.100368	-0.248396	0.000034
C56	C	1.433702	0.084937	0.333367
C57	C	1.767035	0.418270	0.666701
C58	C	1.177283	-0.299524	0.000034
C59	C	1.510616	0.033809	0.333368
C60	C	1.843950	0.367142	0.666701
C61	C	1.166252	-0.407661	0.000026
C62	C	1.499585	-0.074328	0.333359
C63	C	1.832919	0.259005	0.666692
C64	C	1.111398	-0.140250	0.000043
C65	C	1.444731	0.193084	0.333376
C66	C	1.778065	0.526417	0.666709
C67	C	1.312785	0.233836	0.000044
C68	C	1.646119	0.567169	0.333378
C69	C	1.979452	0.900503	0.666711
C70	C	1.418929	0.244683	0.000042
C71	C	1.752262	0.578017	0.333375
C72	C	2.085595	0.911350	0.666709
C73	C	1.146617	0.400000	0.000026
C74	C	1.479950	0.733333	0.333360
C75	C	1.813283	1.066667	0.666693
C76	C	1.157462	0.506143	0.000019
C77	C	1.490795	0.839476	0.333352
C78	C	1.824128	1.172809	0.666685
N79	N	1.123838	0.241069	0.265560
N80	N	1.457171	0.574402	0.598893
N81	N	1.790504	0.907735	0.932226
N82	N	1.153824	0.211010	-0.265482
N83	N	1.487158	0.544343	0.067851
N84	N	1.820491	0.877677	0.401184
C85	C	1.112072	0.252876	0.474601
C86	C	1.445405	0.586210	0.807934
C87	C	1.778738	0.919543	1.141267
C88	C	1.165588	0.199205	0.525483
C89	C	1.498921	0.532539	0.858816
C90	C	1.832254	0.865872	1.192150
C91	C	1.159041	0.205775	0.641801
C92	C	1.492374	0.539109	0.975134
C93	C	1.825708	0.872442	1.308467
C94	C	1.118617	0.246308	0.358273
C95	C	1.451951	0.579641	0.691606
C96	C	1.785284	0.912974	1.024939
H97	H	0.650710	0.338629	0.000024
H98	H	0.984043	0.671962	0.333357
H99	H	1.317377	1.005296	0.666691
C100	C	1.209133	0.036732	0.492488
C101	C	1.542466	0.370066	0.825822
C102	C	1.875800	0.703399	1.159155
C103	C	1.234066	0.130421	0.466495
C104	C	1.567399	0.463754	0.799829
C105	C	1.900732	0.797087	1.133162
H106	H	1.251401	-0.005756	0.456101
H107	H	1.584734	0.327577	0.789434
H108	H	1.918067	0.660910	1.122768
H109	H	1.213596	0.032302	0.564050
H110	H	1.546930	0.365636	0.897383
H111	H	1.880263	0.698969	1.230716
H112	H	1.145495	0.020108	0.474925
H113	H	1.478829	0.353442	0.808259
H114	H	1.812162	0.686775	1.141592
H115	H	1.297701	0.147047	0.484065
H116	H	1.631035	0.480381	0.817399
H117	H	1.964368	0.813714	1.150732
H118	H	1.229611	0.134854	0.394918
H119	H	1.562945	0.468188	0.728251
H120	H	1.896278	0.801521	1.061585
H121	H	1.061342	0.303757	0.518392
H122	H	1.394675	0.637091	0.851725
H123	H	1.728009	0.970424	1.185058
H124	H	1.026241	-0.285836	0.000028
H125	H	1.359574	0.047498	0.333361
H126	H	1.692908	0.380831	0.666695
C127	C	0.514959	0.095808	0.000022
C128	C	0.848292	0.429141	0.333355
C129	C	1.181626	0.762474	0.666689
C130	C	0.613854	0.087507	0.000027
C131	C	0.947187	0.420841	0.333361
C132	C	1.280521	0.754174	0.666694
H133	H	0.483758	0.034024	0.000005
H134	H	0.817092	0.367357	0.333339
H135	H	1.150425	0.700690	0.666672
H136	H	0.493667	0.132856	0.059455
H137	H	0.827000	0.466189	0.392788
H138	H	1.160333	0.799522	0.726122
H139	H	0.500384	0.126160	-0.059410
H140	H	0.833717	0.459493	0.273923
H141	H	1.167050	0.792826	0.607257
H142	H	0.628430	0.057161	0.059464
H143	H	0.961764	0.390495	0.392797
H144	H	1.295097	0.723828	0.726130
H145	H	0.635154	0.050445	-0.059412
H146	H	0.968488	0.383778	0.273922
H147	H	1.301821	0.717111	0.607255
C148	C	1.269064	-0.150090	0.000067
C149	C	1.602398	0.183243	0.333400
C150	C	1.935731	0.516576	0.666734
C151	C	1.277362	-0.248986	0.000055
C152	C	1.610696	0.084347	0.333388
C153	C	1.944029	0.417680	0.666721
H154	H	1.330847	-0.118889	0.000089
H155	H	1.664180	0.214444	0.333422
H156	H	1.997514	0.547777	0.666755
H157	H	1.238733	-0.135507	-0.059366
H158	H	1.572067	0.197826	0.273968
H159	H	1.905400	0.531160	0.607301
H160	H	1.231996	-0.128804	0.059499
H161	H	1.565330	0.204530	0.392833
H162	H	1.898663	0.537863	0.726166
H163	H	1.314425	-0.270274	-0.059382
H164	H	1.647758	0.063059	0.273952
H165	H	1.981091	0.396392	0.607285
H166	H	1.307707	-0.263577	0.059494
H167	H	1.641041	0.069756	0.392827
H168	H	1.974374	0.403090	0.726160
