data_functionalizedCrystal
_audit_creation_method	'MofGen! by Chris Wilmer'
_symmetry_space_group_name_H-M	'P1'
_symmetry_Int_Tables_number	1
_symmetry_cell_setting	triclinic
loop_
_symmetry_equiv_pos_as_xyz
  x,y,z
_cell_length_a	21.295412
_cell_length_b	16.120530
_cell_length_c	21.295417
_cell_angle_alpha	92.874222
_cell_angle_beta	89.968813
_cell_angle_gamma	92.913341
loop_
_atom_site_label
_atom_site_type_symbol
_atom_site_fract_x
_atom_site_fract_y
_atom_site_fract_z
Zn1	Zn	-0.404643	-1.274467	-0.299484
Zn2	Zn	0.095357	-0.774467	0.200516
Zn3	Zn	-0.299365	-1.274358	-0.404750
Zn4	Zn	0.200635	-0.774358	0.095250
Zn5	Zn	-0.294058	-1.135059	-0.294157
Zn6	Zn	0.205942	-0.635059	0.205843
Zn7	Zn	-0.399268	-1.134999	-0.399372
Zn8	Zn	0.100732	-0.634999	0.100628
O9	O	-0.349333	-1.204721	-0.349441
O10	O	0.150667	-0.704721	0.150559
O11	O	-0.395148	-1.391117	-0.317928
O12	O	0.104852	-0.891117	0.182072
O13	O	-0.210570	-1.255859	-0.390100
O14	O	0.289430	-0.755859	0.109900
O15	O	-0.308756	-1.153623	-0.206777
O16	O	0.191244	-0.653623	0.293223
O17	O	-0.317801	-1.391037	-0.395265
O18	O	0.182199	-0.891037	0.104735
O19	O	-0.390003	-1.256046	-0.210691
O20	O	0.109997	-0.756046	0.289309
O21	O	-0.206672	-1.153517	-0.308849
O22	O	0.293328	-0.653517	0.191151
O23	O	-0.303543	-1.018387	-0.303635
O24	O	0.196457	-0.518387	0.196365
O25	O	-0.488071	-1.153521	-0.386101
O26	O	0.011929	-0.653521	0.113899
O27	O	-0.380841	-1.018342	-0.380936
O28	O	0.119159	-0.518342	0.119064
O29	O	-0.492020	-1.255987	-0.312714
O30	O	0.007980	-0.755987	0.187286
O31	O	-0.312588	-1.255800	-0.492123
O32	O	0.187412	-0.755800	0.007877
O33	O	-0.385986	-1.153414	-0.488172
O34	O	0.114014	-0.653414	0.011828
C35	C	-0.341033	-0.988115	-0.341124
C36	C	0.158967	-0.488115	0.158876
C37	C	-0.337497	-0.895450	-0.337582
C38	C	0.162503	-0.395450	0.162418
C39	C	-0.349294	-1.204612	-0.512988
C40	C	0.150706	-0.704612	-0.012988
C41	C	-0.349302	-1.204641	-0.582958
C42	C	0.150698	-0.704641	-0.082958
C43	C	-0.513525	-1.204759	-0.349402
C44	C	-0.013525	-0.704759	0.150598
C45	C	-0.583494	-1.204776	-0.349385
C46	C	-0.083494	-0.704776	0.150615
C47	C	-1.085013	-1.258209	-0.311076
C48	C	-0.585013	-0.758209	0.188924
C49	C	-1.019270	-1.258203	-0.311091
C50	C	-0.519270	-0.758203	0.188909
C51	C	-0.984336	-1.204848	-0.349305
C52	C	-0.484336	-0.704848	0.150695
C53	C	-1.015151	-1.151511	-0.387519
C54	C	-0.515151	-0.651511	0.112481
C55	C	-1.080893	-1.151525	-0.387507
C56	C	-0.580893	-0.651525	0.112493
N57	N	-0.878316	-1.131846	-0.351350
N58	N	-0.378316	-0.631846	0.148650
N59	N	-0.815864	-1.131835	-0.351357
N60	N	-0.315864	-0.631835	0.148643
C61	C	-0.786260	-1.204804	-0.349342
C62	C	-0.286260	-0.704804	0.150658
N63	N	-0.821466	-1.277786	-0.347308
N64	N	-0.321466	-0.777786	0.152692
N65	N	-0.883924	-1.277796	-0.347298
N66	N	-0.383924	-0.777796	0.152702
C67	C	-0.913050	-1.204827	-0.349322
C68	C	-0.413050	-0.704827	0.150678
C69	C	-0.684167	-1.258135	-0.311150
C70	C	-0.184167	-0.758135	0.188850
C71	C	-0.618423	-1.258130	-0.311170
C72	C	-0.118423	-0.758130	0.188830
C73	C	-0.614305	-1.151431	-0.387594
C74	C	-0.114305	-0.651431	0.112406
C75	C	-0.680048	-1.151443	-0.387578
C76	C	-0.180048	-0.651443	0.112422
C77	C	-0.714975	-1.204794	-0.349353
C78	C	-0.214975	-0.704794	0.150647
C79	C	-0.185782	-1.204731	-0.349436
C80	C	0.314218	-0.704731	0.150564
C81	C	-0.115820	-1.204876	-0.349282
C82	C	0.384180	-0.704876	0.150718
C83	C	-0.357666	-1.422173	-0.357791
C84	C	0.142334	-0.922173	0.142209
C85	C	-0.361217	-1.514838	-0.361349
C86	C	0.138783	-1.014838	0.138651
C87	C	-0.331047	-0.725790	-0.331099
C88	C	0.168953	-0.225790	0.168901
C89	C	-0.367665	-0.684493	-0.367830
C90	C	0.132335	-0.184493	0.132170
C91	C	-0.364076	-0.590088	-0.364222
C92	C	0.135924	-0.090088	0.135778
C93	C	-0.334635	-0.820203	-0.334705
C94	C	0.165365	-0.320203	0.165295
C95	C	-0.311126	-1.258001	-0.617862
C96	C	0.188874	-0.758001	-0.117862
C97	C	-0.311142	-1.258040	-0.683606
C98	C	0.188858	-0.758040	-0.183606
C99	C	-0.349326	-1.204704	-0.714443
C100	C	0.150674	-0.704704	-0.214443
C101	C	-0.387509	-1.151341	-0.679530
C102	C	0.112491	-0.651341	-0.179530
C103	C	-0.387497	-1.151309	-0.613787
C104	C	0.112503	-0.651309	-0.113787
N105	N	-0.351330	-1.131773	-0.814912
N106	N	0.148670	-0.631773	-0.314912
N107	N	-0.351338	-1.131806	-0.877365
N108	N	0.148662	-0.631806	-0.377365
C109	C	-0.349365	-1.204798	-0.912521
C110	C	0.150635	-0.704798	-0.412521
N111	N	-0.347372	-1.277758	-0.882865
N112	N	0.152628	-0.777758	-0.382865
N113	N	-0.347361	-1.277724	-0.820406
N114	N	0.152639	-0.777724	-0.320406
C115	C	-0.349343	-1.204733	-0.785729
C116	C	0.150657	-0.704733	-0.285729
C117	C	-0.311205	-1.258204	-1.018713
C118	C	0.188795	-0.758204	-0.518713
C119	C	-0.311225	-1.258245	-1.084458
C120	C	0.188775	-0.758245	-0.584458
C121	C	-0.387588	-1.151538	-1.080380
C122	C	0.112412	-0.651538	-0.580380
C123	C	-0.387572	-1.151505	-1.014636
C124	C	0.112428	-0.651505	-0.514636
C125	C	-0.349377	-1.204837	-0.983807
C126	C	0.150623	-0.704837	-0.483807
C127	C	-0.349387	-1.204853	-0.185256
C128	C	0.150613	-0.704853	0.314744
C129	C	-0.349410	-1.204910	-0.115290
C130	C	0.150590	-0.704910	0.384710
H131	H	-1.113446	-1.301655	-0.279952
H132	H	-0.613446	-0.801655	0.220048
H133	H	-0.280106	-1.301633	-0.993610
H134	H	0.219894	-0.801633	-0.493610
H135	H	-0.418655	-1.108051	-0.986215
H136	H	0.081345	-0.608051	-0.486215
C137	C	-0.269226	-1.316948	-1.122853
C138	C	0.230774	-0.816948	-0.622853
N139	N	-0.237590	-1.361162	-1.151773
N140	N	0.262410	-0.861162	-0.651773
H141	H	-0.994182	-1.301633	-0.279976
H142	H	-0.494182	-0.801633	0.220024
H143	H	-0.712606	-1.301576	-0.280025
H144	H	-0.212606	-0.801576	0.219975
H145	H	-0.401711	-0.720038	-0.401984
H146	H	0.098289	-0.220038	0.098016
C147	C	-0.584535	-1.316802	-0.269136
C148	C	-0.084535	-0.816802	0.230864
N149	N	-0.559010	-1.360993	-0.237474
N150	N	-0.059010	-0.860993	0.262526
H151	H	-0.986704	-1.108071	-0.418634
H152	H	-0.486704	-0.608071	0.081366
H153	H	-0.297004	-0.690247	-0.296947
H154	H	0.202996	-0.190247	0.203053
H155	H	-1.105976	-1.108093	-0.418620
H156	H	-0.605976	-0.608093	0.081380
C157	C	-0.575882	-1.092741	-0.429632
C158	C	-0.075882	-0.592741	0.070368
N159	N	-0.546939	-1.048535	-0.461296
N160	N	-0.046939	-0.548535	0.038704
H161	H	-0.705132	-1.108010	-0.418687
H162	H	-0.205132	-0.608010	0.081313
C163	C	-0.269103	-1.316659	-0.583953
C164	C	0.230897	-0.816659	-0.083953
N165	N	-0.237448	-1.360837	-0.558411
N166	N	0.262552	-0.860837	-0.058411
C167	C	-0.269141	-1.316738	-0.722009
C168	C	0.230859	-0.816738	-0.222009
N169	N	-0.237504	-1.360947	-0.750931
N170	N	0.262496	-0.860947	-0.250931
C171	C	-0.429509	-1.092669	-0.713451
C172	C	0.070491	-0.592669	-0.213451
N173	N	-0.461145	-1.048475	-0.739000
N174	N	0.038855	-0.548475	-0.239000
C175	C	-0.429503	-1.092617	-0.575391
C176	C	0.070497	-0.592617	-0.075391
N177	N	-0.461145	-1.048412	-0.546471
N178	N	0.038855	-0.548412	-0.046471
H179	H	-0.418681	-1.108115	-1.105486
H180	H	0.081319	-0.608115	-0.605486
