data_functionalizedCrystal
_audit_creation_method	'MofGen! by Chris Wilmer'
_symmetry_space_group_name_H-M	'P1'
_symmetry_Int_Tables_number	1
_symmetry_cell_setting	triclinic
loop_
_symmetry_equiv_pos_as_xyz
  x,y,z
_cell_length_a	10.654562
_cell_length_b	10.654550
_cell_length_c	9.730223
_cell_angle_alpha	90.000193
_cell_angle_beta	90.003039
_cell_angle_gamma	84.487503
loop_
_atom_site_label
_atom_site_type_symbol
_atom_site_fract_x
_atom_site_fract_y
_atom_site_fract_z
O1	O	-1.667825	-0.176469	-0.114377
O2	O	-1.302348	-0.193259	-0.114359
O3	O	-1.493489	-0.002125	-0.114363
O4	O	-1.476683	-0.367603	-0.114373
O5	O	-1.493487	-0.002130	0.114217
O6	O	-1.302346	-0.193264	0.114221
O7	O	-1.667822	-0.176474	0.114203
Zn8	Zn	-1.485084	-0.184870	0.150504
Zn9	Zn	-1.485087	-0.184863	-0.150660
O10	O	-1.476681	-0.367608	0.114207
C11	C	-1.255549	-0.192025	-0.000067
C12	C	-1.116107	-0.188327	-0.000060
C13	C	-1.492254	0.044671	-0.000075
C14	C	-1.488563	0.184114	-0.000079
C15	C	-1.714621	-0.177708	-0.000092
C16	C	-1.854064	-0.181406	-0.000108
C17	C	-1.050575	-0.186604	0.124528
C18	C	-0.919553	-0.183139	0.124505
C19	C	-0.919605	-0.183125	-0.124705
C20	C	-1.050626	-0.186581	-0.124681
C21	C	-1.116056	-0.188351	0.249149
C22	C	-1.050524	-0.186630	0.373747
C23	C	-0.919501	-0.183165	0.373724
C24	C	-0.854011	-0.181421	0.249103
C25	C	-1.477916	-0.414403	-0.000084
C26	C	-1.481608	-0.553847	-0.000088
N27	N	-1.485091	-0.184873	0.356040
C28	C	-1.601103	0.263595	-0.000081
C29	C	-1.597627	0.394615	-0.000090
C30	C	-1.369059	0.366662	-0.000091
C31	C	-1.372537	0.235644	-0.000092
C32	C	-1.717129	0.212064	-0.000068
C33	C	-1.829680	0.291546	-0.000068
C34	C	-1.826203	0.422567	-0.000077
C35	C	-1.710176	0.474106	-0.000087
N36	N	-1.485089	-0.184850	-0.356196
C37	C	-1.569750	-0.100268	0.427965
C38	C	-1.569747	-0.100253	0.571848
C39	C	-1.400421	-0.269459	0.571869
C40	C	-1.400419	-0.269467	0.427989
C41	C	-1.654422	-0.015674	0.356016
C42	C	-1.739089	0.068937	0.427940
C43	C	-1.739086	0.068952	0.571823
C44	C	-1.654415	-0.015644	0.643782
H45	H	-1.222740	-0.191176	0.249181
O46	O	-1.251154	0.149910	-0.000085
H47	H	-1.247279	0.089544	0.093075
H48	H	-1.917847	0.487279	-0.000091
H49	H	-1.331487	-0.338334	0.630467
O50	O	-1.243927	0.422256	-0.000079
H51	H	-1.189794	0.390424	-0.093247
H52	H	-1.719973	0.105382	-0.000056
O53	O	-0.712702	-0.177607	0.249034
H54	H	-0.667690	-0.262111	0.195212
H55	H	-1.103855	-0.188040	0.475209
O56	O	-1.954820	0.235969	-0.000062
H57	H	-1.938334	0.131511	-0.000043
H58	H	-0.866272	-0.181708	-0.226166
O59	O	-1.309119	-0.360723	0.350397
H60	H	-1.250256	-0.419560	0.424597
O61	O	-1.654418	-0.015674	0.200829
H62	H	-1.748407	-0.036640	0.162885
H63	H	-0.866150	-0.181753	0.475178
O64	O	-1.121321	-0.188449	-0.259054
H65	H	-1.053776	-0.186676	-0.345714
O66	O	-1.706419	0.615422	-0.000095
H67	H	-1.804169	0.662036	-0.000088
O68	O	-1.830380	0.160207	0.350341
H69	H	-1.816160	0.145988	0.238208
O70	O	-1.830407	0.160195	0.649407
H71	H	-1.889290	0.219002	0.575199
H72	H	-1.654411	-0.015616	0.760941
