data_functionalizedCrystal
_audit_creation_method	'MofGen! by Chris Wilmer'
_symmetry_space_group_name_H-M	'P1'
_symmetry_Int_Tables_number	1
_symmetry_cell_setting	triclinic
loop_
_symmetry_equiv_pos_as_xyz
  x,y,z
_cell_length_a	16.625548
_cell_length_b	18.215405
_cell_length_c	18.215399
_cell_angle_alpha	89.969449
_cell_angle_beta	90.019669
_cell_angle_gamma	89.974047
loop_
_atom_site_label
_atom_site_type_symbol
_atom_site_fract_x
_atom_site_fract_y
_atom_site_fract_z
Zn1	Zn	1.232660	0.292971	0.416099
Zn2	Zn	1.232559	0.416042	0.293027
Zn3	Zn	1.097824	0.292996	0.293047
Zn4	Zn	1.097786	0.416002	0.416053
O5	O	1.165207	0.354503	0.354557
O6	O	1.345479	0.309302	0.399785
O7	O	1.214660	0.399747	0.190046
O8	O	1.115768	0.190009	0.309398
O9	O	1.345405	0.399722	0.309365
O10	O	1.214831	0.189990	0.399804
O11	O	1.115670	0.309346	0.190060
O12	O	0.984986	0.309307	0.309353
O13	O	1.115704	0.399655	0.519043
O14	O	0.984959	0.399679	0.399724
O15	O	1.214795	0.309264	0.519077
O16	O	1.214624	0.519021	0.309319
O17	O	1.115607	0.518992	0.399705
C18	C	0.955716	0.354492	0.354536
C19	C	0.866095	0.354506	0.354545
C20	C	1.165122	0.545709	0.354521
C21	C	1.165159	0.627508	0.354531
C22	C	1.165256	0.354452	0.546510
C23	C	1.165277	0.354431	0.628309
C24	C	0.537920	0.354510	0.354576
C25	C	0.629228	0.354507	0.354565
C26	C	0.702005	0.354508	0.354560
C27	C	0.793319	0.354504	0.354550
C28	C	1.375516	0.354514	0.354578
C29	C	1.465137	0.354519	0.354587
C30	C	1.165315	0.162550	0.354608
C31	C	1.165361	0.080751	0.354630
C32	C	1.216839	0.815693	0.307553
C33	C	1.216875	0.892551	0.307571
C34	C	1.113679	0.892561	0.401613
C35	C	1.113648	0.815704	0.401598
C36	C	1.165226	0.777272	0.354564
C37	C	1.165294	0.930988	0.354597
C38	C	1.165332	1.014321	0.354616
C39	C	1.165189	0.693933	0.354545
C40	C	1.165205	0.354500	0.163350
C41	C	1.165340	0.354315	0.081552
C42	C	1.216893	0.307320	0.816522
C43	C	1.216902	0.307299	0.893380
C44	C	1.113719	0.401427	0.893334
C45	C	1.113706	0.401444	0.816476
C46	C	1.165297	0.354392	0.778072
C47	C	1.165320	0.354353	0.931788
C48	C	1.165330	0.354330	1.015122
C49	C	1.165286	0.354414	0.694733
H50	H	1.258904	0.923831	0.269291
H51	H	1.071684	0.923862	0.439905
H52	H	1.071685	0.439775	0.785170
O53	O	1.266971	0.261677	0.779102
C54	C	1.255883	0.271769	0.703020
H55	H	1.229452	0.328568	0.692498
H56	H	1.212958	0.228125	0.681218
C57	C	1.369924	0.195263	0.676499
C58	C	1.337467	0.265027	0.663575
H59	H	1.420248	0.191101	0.652166
H60	H	1.377393	0.188461	0.727756
H61	H	1.334145	0.158901	0.658330
H62	H	1.373241	0.301387	0.681752
H63	H	1.330006	0.271835	0.612319
H64	H	1.258839	0.784403	0.269256
H65	H	1.071618	0.784419	0.439884
H66	H	1.258915	0.268967	0.924683
H67	H	1.071717	0.439737	0.924611
