data_functionalizedCrystal
_audit_creation_method	'MofGen! by Chris Wilmer'
_symmetry_space_group_name_H-M	'P1'
_symmetry_Int_Tables_number	1
_symmetry_cell_setting	triclinic
loop_
_symmetry_equiv_pos_as_xyz
  x,y,z
_cell_length_a	16.992694
_cell_length_b	16.992695
_cell_length_c	16.053802
_cell_angle_alpha	92.741074
_cell_angle_beta	87.249047
_cell_angle_gamma	90.668223
loop_
_atom_site_label
_atom_site_type_symbol
_atom_site_fract_x
_atom_site_fract_y
_atom_site_fract_z
O1	O	1.053959	0.163815	-0.069325
O2	O	0.825560	0.161983	-0.069350
O3	O	0.938844	0.048699	-0.069331
O4	O	0.940676	0.277099	-0.069344
O5	O	0.932607	0.054907	0.069527
O6	O	0.819323	0.168191	0.069508
O7	O	1.047722	0.170023	0.069533
Zn8	Zn	0.932532	0.170093	0.091567
Zn9	Zn	0.940750	0.161913	-0.091384
O10	O	0.934438	0.283307	0.069514
C11	C	0.793082	0.162731	0.000076
C12	C	0.705597	0.155702	0.000067
C13	C	0.659607	0.223520	0.000064
C14	C	0.577405	0.216911	0.000076
C15	C	0.541197	0.142484	0.000085
C16	C	0.587193	0.074661	0.000091
C17	C	0.669393	0.081270	0.000085
C18	C	0.295881	0.115090	0.000109
C19	C	0.213676	0.108486	0.000112
C20	C	0.203893	0.250737	0.000099
C21	C	0.286095	0.257339	0.000088
C22	C	0.332084	0.189517	0.000098
N23	N	0.457174	0.135727	0.000094
N24	N	0.416105	0.196275	0.000094
C25	C	0.933370	0.022443	0.000098
C26	C	0.926341	-0.065042	0.000097
C27	C	0.994158	-0.111032	0.000105
C28	C	0.987550	-0.193233	0.000096
C29	C	0.913123	-0.229442	0.000086
C30	C	0.845300	-0.183446	0.000075
C31	C	0.851910	-0.101246	0.000078
C32	C	0.885729	-0.474757	0.000071
C33	C	0.879124	-0.556962	0.000071
C34	C	1.021375	-0.566745	0.000091
C35	C	1.027978	-0.484543	0.000099
C36	C	0.960155	-0.438554	0.000083
N37	N	0.906366	-0.313465	0.000079
N38	N	0.966913	-0.354533	0.000084
C39	C	1.080201	0.169275	0.000105
C40	C	1.167685	0.176304	0.000109
C41	C	0.939913	0.309563	0.000084
C42	C	0.946942	0.397047	0.000079
N43	N	0.926930	0.175675	0.216427
N44	N	0.946358	0.156325	-0.216243
C45	C	0.975152	0.127492	0.260129
C46	C	0.971241	0.131404	0.347535
C47	C	0.919110	0.183504	0.391237
C48	C	0.870883	0.231689	0.347529
C49	C	0.874791	0.227772	0.260125
C50	C	0.902039	0.200593	0.652644
C51	C	0.898136	0.204508	0.740055
C52	C	0.998493	0.104222	0.740054
C53	C	1.002400	0.100313	0.652648
C54	C	0.954169	0.148494	0.608948
N55	N	0.915113	0.187507	0.480580
N56	N	0.958163	0.144487	0.519606
H57	H	0.166440	0.305954	0.000092
H58	H	1.037759	0.064994	0.775643
H59	H	0.689081	0.284126	0.000056
H60	H	0.706838	0.026046	0.000087
H61	H	0.862769	0.239826	0.617070
C62	C	0.526819	0.291515	0.000073
C63	C	0.537311	0.347872	-0.072040
C64	C	0.486726	0.422481	-0.072040
C65	C	0.425650	0.440732	0.000073
C66	C	0.415156	0.384373	0.072191
C67	C	0.465740	0.309764	0.072191
H68	H	0.582526	0.334363	-0.125427
H69	H	0.494495	0.464202	-0.125427
H70	H	0.388204	0.495962	0.000073
H71	H	0.369941	0.397882	0.125578
H72	H	0.457971	0.268044	0.125578
H73	H	0.828433	0.274107	0.383117
H74	H	1.042774	-0.230676	0.000105
C75	C	0.346460	0.040484	0.000108
C76	C	0.335958	-0.015882	0.072212
C77	C	0.386539	-0.090493	0.072209
C78	C	0.447621	-0.108739	0.000100
C79	C	0.458126	-0.052372	-0.072009
C80	C	0.407545	0.022240	-0.072006
H81	H	0.290738	-0.002376	0.125596
H82	H	0.378762	-0.132220	0.125590
H83	H	0.485064	-0.163971	0.000098
H84	H	0.503345	-0.065877	-0.125393
H85	H	0.415321	0.063966	-0.125387
C86	C	1.059739	0.043000	0.604572
C87	C	1.112786	-0.010007	0.652635
C88	C	1.170127	-0.067317	0.604556
C89	C	1.174422	-0.071620	0.508415
C90	C	1.121373	-0.018611	0.460347
C91	C	1.064032	0.038699	0.508425
H92	H	1.109609	-0.006824	0.723810
H93	H	1.209397	-0.106558	0.640140
H94	H	1.216869	-0.114044	0.472824
H95	H	1.124550	-0.021795	0.389172
H96	H	1.024761	0.077940	0.472841
C97	C	0.811128	-0.424172	0.000064
C98	C	0.792874	-0.363095	0.072167
C99	C	0.718271	-0.312503	0.072161
C100	C	0.661921	-0.322988	0.000052
C101	C	0.680174	-0.384068	-0.072056
C102	C	0.754777	-0.434660	-0.072050
H103	H	0.834589	-0.355330	0.125551
H104	H	0.704759	-0.267288	0.125541
H105	H	0.606695	-0.285537	0.000048
H106	H	0.638459	-0.391832	-0.125440
H107	H	0.768288	-0.479875	-0.125430
C108	C	1.032497	0.070180	0.212060
C109	C	1.085536	0.017176	0.260137
C110	C	1.142880	-0.040139	0.212071
C111	C	1.147186	-0.044452	0.115930
C112	C	1.094144	0.008553	0.067848
C113	C	1.036800	0.065869	0.115913
H114	H	1.082351	0.020367	0.331311
H115	H	1.182145	-0.079377	0.247665
H116	H	1.189635	-0.086881	0.080349
H117	H	1.097330	0.005362	-0.003327
H118	H	0.997536	0.105107	0.080320
H119	H	1.054765	-0.081557	0.000119
C120	C	0.821747	0.280776	0.212050
C121	C	0.764434	0.338114	0.260118
C122	C	0.711385	0.391117	0.212045
C123	C	0.715649	0.386781	0.115903
C124	C	0.772964	0.329440	0.067830
C125	C	0.826013	0.276438	0.115903
H126	H	0.761275	0.341326	0.331293
H127	H	0.668956	0.433565	0.247632
H128	H	0.676379	0.426017	0.080316
H129	H	0.776123	0.326229	-0.003345
H130	H	0.868442	0.233990	0.080315
H131	H	0.855683	0.246937	0.775633
H132	H	0.315571	0.317945	0.000071
C133	C	1.109850	-0.444716	0.000094
C134	C	1.184451	-0.495305	0.000091
C135	C	1.266324	-0.455479	0.000085
C136	C	1.273596	-0.365063	0.000082
C137	C	1.198992	-0.314469	0.000085
C138	C	1.117119	-0.354296	0.000091
H139	H	1.179070	-0.562241	0.000094
H140	H	1.321550	-0.492932	0.000083
H141	H	1.334203	-0.335581	0.000077
H142	H	1.204373	-0.247533	0.000082
H143	H	1.061893	-0.316842	0.000093
H144	H	1.010506	0.092170	0.383116
H145	H	0.184198	0.047875	0.000119
H146	H	0.796685	-0.063801	0.000071
H147	H	0.557705	0.014061	0.000110
H148	H	1.076592	-0.604198	0.000102
H149	H	0.818513	-0.586440	0.000076
H150	H	0.784700	-0.212933	0.000061
