data_functionalizedCrystal
_audit_creation_method	'MofGen! by Chris Wilmer'
_symmetry_space_group_name_H-M	'P1'
_symmetry_Int_Tables_number	1
_symmetry_cell_setting	triclinic
loop_
_symmetry_equiv_pos_as_xyz
  x,y,z
_cell_length_a	14.971486
_cell_length_b	11.026607
_cell_length_c	13.448316
_cell_angle_alpha	89.996104
_cell_angle_beta	89.998199
_cell_angle_gamma	96.100073
loop_
_atom_site_label
_atom_site_type_symbol
_atom_site_fract_x
_atom_site_fract_y
_atom_site_fract_z
O1	O	1.212292	0.158181	-0.082572
O2	O	0.954927	0.177123	-0.082599
O3	O	1.062279	-0.009032	-0.082584
O4	O	1.104940	0.344336	-0.082587
O5	O	1.062260	-0.009044	0.082800
O6	O	0.954908	0.177112	0.082785
O7	O	1.212273	0.158169	0.082812
Cu8	Cu	1.083589	0.167639	0.097899
Cu9	Cu	1.083611	0.167653	-0.097686
O10	O	1.104921	0.344324	0.082797
C11	C	0.921457	0.176270	0.000090
C12	C	0.821753	0.173732	0.000079
C13	C	0.782051	0.283093	0.000080
C14	C	0.688368	0.280700	0.000095
C15	C	0.634389	0.168945	0.000102
C16	C	0.674098	0.059576	0.000105
C17	C	0.767779	0.061969	0.000097
C18	C	0.478837	0.054594	0.000118
C19	C	0.385150	0.052200	0.000124
C20	C	0.399426	0.273325	0.000116
C21	C	0.493107	0.275718	0.000109
C22	C	0.532809	0.166348	0.000109
C23	C	1.054400	-0.054260	0.000106
C24	C	1.030939	-0.189008	0.000100
C25	C	1.095719	-0.262720	0.000105
C26	C	1.071472	-0.401989	0.000099
C27	C	1.245743	0.159022	0.000121
C28	C	1.345447	0.161561	0.000125
C29	C	1.112800	0.389552	0.000105
C30	C	1.136261	0.524300	0.000104
N31	N	1.083579	0.167629	0.235463
N32	N	1.083626	0.167654	-0.235251
C33	C	1.131139	0.085233	0.287510
C34	C	1.131145	0.085232	0.391614
C35	C	1.083595	0.167634	0.443668
C36	C	1.036029	0.250033	0.391614
C37	C	1.036019	0.250028	0.287513
C38	C	1.036055	0.250042	0.608594
C39	C	1.036066	0.250049	0.712703
C40	C	1.131181	0.085246	0.712695
C41	C	1.131171	0.085241	0.608594
C42	C	1.083606	0.167642	0.556547
H43	H	0.341202	-0.038801	0.000131
C44	C	0.929719	-0.416747	-0.084940
C45	C	0.972362	-0.455967	0.000083
H46	H	0.868537	-0.450079	-0.084951
H47	H	0.933011	-0.330248	-0.084927
H48	H	0.958685	-0.443335	-0.142603
H49	H	0.943401	-0.429372	0.057747
H50	H	0.969066	-0.542485	0.000080
H51	H	1.169129	-0.222722	0.000119
H52	H	1.209677	-0.435709	0.000037
H53	H	0.957528	-0.229006	0.000086
C54	C	1.225147	-0.077674	0.297970
C55	C	1.183406	-0.005349	0.230297
H56	H	1.257409	-0.133604	0.262649
H57	H	1.265468	-0.027075	0.338560
H58	H	1.180868	-0.121411	0.338586
H59	H	1.227686	0.038395	0.189686
H60	H	1.143082	-0.055955	0.189690
H61	H	1.169871	0.018139	0.433990
H62	H	0.997345	0.317148	0.755080
H63	H	1.169895	0.018149	0.566211
C64	C	0.302354	0.398922	-0.084893
C65	C	0.355790	0.393549	0.000117
H66	H	0.275410	0.473138	-0.084892
H67	H	0.338601	0.395259	-0.142558
H68	H	0.256802	0.332019	-0.084871
H69	H	0.401347	0.460447	0.000092
H70	H	0.319542	0.397224	0.057798
H71	H	1.169909	0.018152	0.755078
C72	C	0.942049	0.412961	0.619053
C73	C	0.983777	0.340624	0.551382
H74	H	0.909785	0.468888	0.583730
H75	H	0.901733	0.362368	0.659661
H76	H	0.986336	0.456699	0.659650
H77	H	0.939490	0.296878	0.510789
H78	H	1.024097	0.391224	0.510756
H79	H	0.511159	-0.034467	0.000120
H80	H	0.997308	0.317122	0.434003
H81	H	0.630141	-0.031417	0.000125
C82	C	0.744264	-0.156842	0.000088
C83	C	0.811424	-0.058244	0.000087
H84	H	0.771210	-0.231057	0.000078
H85	H	0.708026	-0.153183	0.057761
H86	H	0.708018	-0.153162	-0.057586
H87	H	0.847666	-0.061919	0.057765
H88	H	0.847677	-0.061904	-0.057592
H89	H	0.997290	0.317121	0.245137
H90	H	0.825994	0.374096	0.000073
H91	H	0.656047	0.369753	0.000094
H92	H	0.537055	0.366719	0.000093
