data_functionalizedCrystal
_audit_creation_method	'MofGen! by Chris Wilmer'
_symmetry_space_group_name_H-M	'P1'
_symmetry_Int_Tables_number	1
_symmetry_cell_setting	triclinic
loop_
_symmetry_equiv_pos_as_xyz
  x,y,z
_cell_length_a	12.376457
_cell_length_b	13.339070
_cell_length_c	13.339070
_cell_angle_alpha	115.629294
_cell_angle_beta	104.398083
_cell_angle_gamma	75.589755
loop_
_atom_site_label
_atom_site_type_symbol
_atom_site_fract_x
_atom_site_fract_y
_atom_site_fract_z
O1	O	0.094035	-1.511964	-0.535384
O2	O	0.094030	-1.197153	-0.463125
O3	O	0.094029	-1.318428	-0.341851
O4	O	0.094037	-1.390689	-0.656659
O5	O	-0.093983	-1.288108	-0.372116
O6	O	-0.093982	-1.166834	-0.493391
O7	O	-0.093976	-1.481644	-0.565650
Zn8	Zn	-0.123830	-1.319425	-0.534326
Zn9	Zn	0.123884	-1.359372	-0.494450
O10	O	-0.093975	-1.360369	-0.686924
C11	C	0.000024	-1.140878	-0.466052
C12	C	0.000022	-1.018364	-0.429669
C13	C	0.000024	-1.291062	-0.315868
C14	C	0.000028	-1.254679	-0.193353
N15	N	-0.292888	-1.292170	-0.561541
C16	C	-0.647875	-1.449896	-0.404029
C17	C	-0.529535	-1.468966	-0.384979
C18	C	-0.470367	-1.424768	-0.429117
C19	C	-0.529551	-1.361498	-0.492310
C20	C	-0.647902	-1.342434	-0.511370
C21	C	-0.470395	-1.317306	-0.536458
C22	C	-0.529579	-1.254035	-0.599651
C23	C	-0.647918	-1.234974	-0.618707
C24	C	-0.707086	-1.279171	-0.574568
C25	C	-0.352044	-1.336370	-0.517399
C26	C	-0.352071	-1.228907	-0.624740
C27	C	-0.470411	-1.209837	-0.643790
N28	N	0.292942	-1.386634	-0.467227
C29	C	0.000033	-1.537920	-0.562723
C30	C	0.000042	-1.660435	-0.599105
C31	C	0.000047	-0.732980	-0.712564
C32	C	0.000052	-0.848090	-0.746750
C33	C	0.000044	-0.890664	-0.667483
C34	C	0.000031	-0.818117	-0.554023
C35	C	0.000035	-0.702998	-0.519831
C36	C	0.000032	-0.860682	-0.474751
C37	C	0.000020	-0.788135	-0.361291
C38	C	0.000022	-0.673027	-0.327105
C39	C	0.000030	-0.630453	-0.406372
C40	C	0.000029	-0.975801	-0.508942
C41	C	0.000017	-0.945819	-0.316210
C42	C	0.000012	-0.830709	-0.282023
C43	C	0.000032	-1.387736	-0.712907
C44	C	0.000035	-1.424120	-0.835420
C45	C	0.000032	-1.537579	0.092035
C46	C	0.000022	-1.571765	-0.023075
C47	C	0.000024	-1.492496	-0.065651
C48	C	0.000035	-1.379036	0.006896
C49	C	0.000037	-1.344845	0.122016
C50	C	0.000028	-1.299763	-0.035669
C51	C	0.000040	-1.186303	0.036877
C52	C	0.000042	-1.152118	0.151986
C53	C	0.000040	-1.231386	0.194561
C54	C	0.000027	-1.333954	-0.150790
C55	C	0.000031	-1.141220	-0.120808
C56	C	0.000042	-1.107034	-0.005698
H57	H	-0.303867	-1.387885	-0.465947
C58	C	0.096711	-0.636493	-0.770335
C59	C	0.000059	-0.686176	-0.799680
H60	H	0.096714	-0.607592	-0.824119
H61	H	0.162259	-0.691355	-0.769124
H62	H	0.096697	-0.576821	-0.697865
H63	H	0.000077	-0.745853	-0.872147
H64	H	-0.065506	-0.631309	-0.800903
C65	C	0.096660	-0.971302	-0.146901
C66	C	0.000009	-0.992604	-0.229069
H67	H	0.096659	-1.000199	-0.093114
H68	H	0.096654	-0.892372	-0.110305
H69	H	0.162216	-1.006908	-0.181560
H70	H	-0.065547	-0.956992	-0.194410
H71	H	0.000005	-1.071550	-0.265668
H72	H	0.000050	-1.014653	0.053385
H73	H	0.000011	-0.771627	-0.189640
H74	H	0.000018	-1.426333	-0.209846
H75	H	0.000071	-0.907151	-0.839128
H76	H	-0.374010	-1.440298	-0.413604
H77	H	0.000051	-0.984393	-0.695324
H78	H	0.000025	-0.536722	-0.378543
H79	H	0.000025	-0.613963	-0.234717
H80	H	-0.696057	-1.485884	-0.368104
C81	C	0.000017	-1.758832	-0.041138
C82	C	0.000014	-1.696474	-0.102813
H83	H	0.000018	-1.835827	-0.090368
H84	H	-0.065540	-1.730912	-0.006167
H85	H	0.065588	-1.752060	0.014937
H86	H	-0.065562	-1.703239	-0.158883
H87	H	0.065577	-1.724402	-0.137803
C88	C	0.096713	-1.145550	0.383169
C89	C	0.000058	-1.193815	0.321097
H90	H	0.096727	-1.122366	0.461286
H91	H	0.096697	-1.082102	0.368206
H92	H	0.162266	-1.199459	0.362121
H93	H	-0.065496	-1.139903	0.342138
H94	H	0.000063	-1.257271	0.336067
H95	H	-0.803448	-1.263641	-0.590075
H96	H	0.000042	-1.059730	0.211050
H97	H	-0.481352	-1.520481	-0.333529
C98	C	0.096694	-1.083437	-0.217301
C99	C	0.000041	-1.054076	-0.167589
H100	H	0.096699	-1.029637	-0.246180
H101	H	0.096684	-1.155891	-0.276975
H102	H	0.162248	-1.084677	-0.162452
H103	H	-0.065514	-1.052844	-0.222440
H104	H	0.000040	-0.981603	-0.107909
H105	H	-0.696106	-1.183466	-0.670173
H106	H	0.000021	-1.602105	0.126710
H107	H	-0.518613	-1.158322	-0.695244
H108	H	0.000016	-1.520338	-0.159380
H109	H	0.000035	-1.034857	-0.601322
C110	C	-0.218982	-1.268446	-0.746051
C111	C	-0.287046	-1.180320	-0.673264
H112	H	-0.178830	-1.238453	-0.776002
H113	H	-0.265139	-1.317800	-0.805836
H114	H	-0.166803	-1.308840	-0.705670
H115	H	-0.339231	-1.139932	-0.713648
H116	H	-0.240886	-1.130947	-0.613470
