data_functionalizedCrystal
_audit_creation_method	'MofGen! by Chris Wilmer'
_symmetry_space_group_name_H-M	'P1'
_symmetry_Int_Tables_number	1
_symmetry_cell_setting	triclinic
loop_
_symmetry_equiv_pos_as_xyz
  x,y,z
_cell_length_a	10.654550
_cell_length_b	17.019448
_cell_length_c	9.130313
_cell_angle_alpha	93.870325
_cell_angle_beta	89.999724
_cell_angle_gamma	83.942428
loop_
_atom_site_label
_atom_site_type_symbol
_atom_site_fract_x
_atom_site_fract_y
_atom_site_fract_z
O1	O	1.666117	0.110791	-0.107734
O2	O	1.300474	0.121346	-0.106431
O3	O	1.493483	0.001295	-0.121530
O4	O	1.473108	0.230842	-0.092635
O5	O	1.493470	0.001292	0.122068
O6	O	1.300461	0.121343	0.137167
O7	O	1.666104	0.110788	0.135864
Cu8	Cu	1.483281	0.116065	0.158758
Cu9	Cu	1.483297	0.116069	-0.129325
O10	O	1.473095	0.230839	0.150963
C11	C	1.253682	0.120570	0.015267
C12	C	1.114274	0.118251	0.014965
C13	C	1.492700	-0.028099	-0.003434
C14	C	1.490369	-0.115679	-0.014468
C15	C	1.033690	0.188935	0.023867
C16	C	0.902703	0.186752	0.023617
C17	C	0.932898	0.043194	0.005557
C18	C	1.063883	0.045378	0.005817
C19	C	1.477305	-0.611024	-0.083697
C20	C	1.479482	-0.528732	-0.073299
C21	C	1.480554	-0.487604	0.064686
C22	C	1.479461	-0.528773	0.192281
C23	C	1.477293	-0.611064	0.181881
C24	C	1.487108	-0.239139	0.102727
C25	C	1.489273	-0.156842	0.113117
C26	C	1.489296	-0.156807	-0.152464
C27	C	1.487121	-0.239099	-0.162851
C28	C	1.486034	-0.280262	-0.035256
C29	C	1.482775	-0.403488	0.075317
C30	C	1.483822	-0.364377	-0.045889
C31	C	1.712896	0.111564	0.014163
C32	C	1.852303	0.113883	0.014455
C33	C	1.473878	0.260233	0.032864
C34	C	1.476208	0.347813	0.043889
N35	N	1.483279	0.116062	0.361380
N36	N	1.483308	0.116066	-0.331948
C37	C	1.568772	0.062925	0.431349
C38	C	1.568784	0.062926	0.584686
C39	C	1.397806	0.169205	0.598073
C40	C	1.397789	0.169200	0.444738
H41	H	1.074714	0.248273	0.031326
H42	H	1.483645	-0.369992	0.187665
O43	O	1.651887	0.011419	0.652829
C44	C	1.729308	0.054120	0.746856
H45	H	1.679182	0.115552	0.777562
H46	H	1.822099	0.060024	0.688492
C47	C	1.817809	-0.065649	0.849216
C48	C	1.756239	0.009801	0.886939
H49	H	1.834428	-0.092988	0.935623
H50	H	1.765653	-0.094418	0.785864
H51	H	1.895129	-0.060718	0.800577
H52	H	1.678914	0.004869	0.935561
H53	H	1.808383	0.038568	0.950303
H54	H	1.476399	-0.644577	0.285775
H55	H	1.328204	0.212470	0.665957
H56	H	0.837095	0.244310	0.030869
O57	O	1.142224	-0.023267	-0.002573
C58	C	1.218925	-0.026287	0.123182
H59	H	1.170887	0.013784	0.216409
H60	H	1.314134	-0.005343	0.097284
C61	C	1.297990	-0.161224	0.055098
C62	C	1.238983	-0.112013	0.169605
H63	H	1.310369	-0.214104	0.083731
H64	H	1.246319	-0.159189	-0.029629
H65	H	1.377325	-0.143761	0.033527
H66	H	1.159644	-0.129470	0.191161
H67	H	1.290642	-0.114053	0.254337
H68	H	0.891853	-0.016137	-0.001881
H69	H	1.638382	0.019656	0.363483
H70	H	1.486257	-0.272581	-0.275213
O71	O	1.480261	-0.488812	-0.197337
C72	C	1.371009	-0.500667	-0.279525
H73	H	1.294479	-0.517448	-0.203854
H74	H	1.394311	-0.550351	-0.368510
C75	C	1.417563	-0.403222	-0.444261
C76	C	1.323564	-0.423826	-0.351317
H77	H	1.388299	-0.355825	-0.488552
H78	H	1.491171	-0.395236	-0.388893
H79	H	1.436973	-0.444631	-0.518402
H80	H	1.304167	-0.382421	-0.277168
H81	H	1.249952	-0.431802	-0.406674
H82	H	1.328165	0.212470	0.387766
H83	H	1.476421	-0.644504	-0.196059
H84	H	1.490108	-0.123355	0.225487
O85	O	1.490190	-0.116725	-0.276299
C86	C	1.382718	-0.060812	-0.277219
H87	H	1.346790	-0.045720	-0.160026
H88	H	1.305767	-0.086690	-0.346024
C89	C	1.461928	-0.003701	-0.487526
C90	C	1.417807	0.014841	-0.343586
H91	H	1.483569	0.042964	-0.528471
H92	H	1.534332	-0.041372	-0.486911
H93	H	1.397794	-0.025267	-0.544846
H94	H	1.481945	0.036397	-0.286266
H95	H	1.345414	0.052518	-0.344194
H96	H	1.480341	-0.495280	0.304631
H97	H	1.486225	-0.272644	0.206625
H98	H	1.482956	-0.397867	-0.158235
