data_functionalizedCrystal
_audit_creation_method	'MofGen! by Chris Wilmer'
_symmetry_space_group_name_H-M	'P1'
_symmetry_Int_Tables_number	1
_symmetry_cell_setting	triclinic
loop_
_symmetry_equiv_pos_as_xyz
  x,y,z
_cell_length_a	10.685976
_cell_length_b	10.685194
_cell_length_c	10.686551
_cell_angle_alpha	81.584560
_cell_angle_beta	89.651515
_cell_angle_gamma	90.347622
loop_
_atom_site_label
_atom_site_type_symbol
_atom_site_fract_x
_atom_site_fract_y
_atom_site_fract_z
Zn1	Zn	1.922252	-0.609709	-0.518955
Zn2	Zn	2.422252	-0.109709	-0.018955
Zn3	Zn	1.887530	-0.835439	-0.293307
Zn4	Zn	2.387530	-0.335439	0.206693
Zn5	Zn	1.696574	-0.607341	-0.325497
Zn6	Zn	2.196574	-0.107341	0.174503
Zn7	Zn	1.696608	-0.803214	-0.521403
Zn8	Zn	2.196608	-0.303214	-0.021403
O9	O	1.800741	-0.713926	-0.414791
O10	O	2.300741	-0.213926	0.085209
O11	O	2.091995	-0.654130	-0.474526
O12	O	2.591995	-0.154130	0.025474
O13	O	1.847653	-0.817677	-0.121156
O14	O	2.347653	-0.317677	0.378844
O15	O	1.741028	-0.431213	-0.363606
O16	O	2.241028	0.068787	0.136394
O17	O	2.066484	-0.819973	-0.308744
O18	O	2.566484	-0.319973	0.191256
O19	O	1.906833	-0.432952	-0.505739
O20	O	2.406833	0.067048	-0.005739
O21	O	1.707359	-0.650094	-0.144805
O22	O	2.207359	-0.150094	0.355195
O23	O	1.522230	-0.618847	-0.365980
O24	O	2.022230	-0.118847	0.134020
O25	O	1.741086	-0.765050	-0.697500
O26	O	2.241086	-0.265050	-0.197500
O27	O	1.522255	-0.762754	-0.509912
O28	O	2.022255	-0.262754	-0.009912
O29	O	1.906866	-0.622882	-0.695701
O30	O	2.406866	-0.122882	-0.195701
O31	O	1.847686	-1.007607	-0.311118
O32	O	2.347686	-0.507607	0.188882
O33	O	1.707417	-0.983931	-0.478699
O34	O	2.207417	-0.483931	0.021301
C35	C	1.477036	-0.687047	-0.441705
C36	C	1.977036	-0.187047	0.058295
C37	C	1.338554	-0.675577	-0.453248
C38	C	1.838554	-0.175577	0.046752
C39	C	1.773824	-1.041520	-0.391706
C40	C	2.273824	-0.541520	0.108294
C41	C	1.762426	-1.181672	-0.381863
C42	C	2.262426	-0.681672	0.118137
C43	C	2.125710	-0.740910	-0.387771
C44	C	2.625710	-0.240910	0.112229
C45	C	2.264193	-0.752409	-0.376257
C46	C	2.764193	-0.252409	0.123743
C47	C	1.827853	-0.690636	-0.743624
C48	C	2.327853	-0.190636	-0.243624
C49	C	1.839406	-0.680711	-0.883753
C50	C	2.339406	-0.180711	-0.383753
C51	C	1.827800	-0.385054	-0.437990
C52	C	2.327800	0.114946	0.062010
C53	C	1.839331	-0.244908	-0.447876
C54	C	2.339331	0.255092	0.052124
C55	C	1.773814	-0.737041	-0.087237
C56	C	2.273814	-0.237041	0.412763
C57	C	1.762531	-0.746630	0.052887
C58	C	2.262531	-0.246630	0.552887
H59	H	1.306477	-0.826978	-0.301511
H60	H	1.806477	-0.326978	0.198489
H61	H	1.914071	-0.616683	-0.936717
H62	H	2.414071	-0.116683	-0.436717
O63	O	1.928169	-1.181623	-0.524475
O64	O	2.428169	-0.681623	-0.024475
C65	C	1.908636	-1.202552	-0.650146
C66	C	2.408636	-0.702552	-0.150146
H67	H	1.806691	-1.230215	-0.662178
H68	H	2.306691	-0.730215	-0.162178
H69	H	1.931423	-1.112326	-0.717571
H70	H	2.431423	-0.612326	-0.217571
H71	H	1.971996	-1.282033	-0.672309
H72	H	2.471996	-0.782033	-0.172309
H73	H	1.687847	-1.234759	-0.317819
H74	H	2.187847	-0.734759	0.182181
H75	H	1.296275	-0.601024	-0.528000
H76	H	1.796275	-0.101024	-0.028000
H77	H	1.687879	-0.810664	-0.894154
H78	H	2.187879	-0.310664	-0.394154
