data_functionalizedCrystal
_audit_creation_method	'MofGen! by Chris Wilmer'
_symmetry_space_group_name_H-M	'P1'
_symmetry_Int_Tables_number	1
_symmetry_cell_setting	triclinic
loop_
_symmetry_equiv_pos_as_xyz
  x,y,z
_cell_length_a	16.974829
_cell_length_b	10.540510
_cell_length_c	16.053802
_cell_angle_alpha	92.593693
_cell_angle_beta	83.771117
_cell_angle_gamma	83.954751
loop_
_atom_site_label
_atom_site_type_symbol
_atom_site_fract_x
_atom_site_fract_y
_atom_site_fract_z
O1	O	1.056754	0.150981	-0.140825
O2	O	0.825920	0.172779	-0.125230
O3	O	0.946616	-0.022942	-0.133384
O4	O	0.936059	0.346702	-0.132671
O5	O	0.939972	-0.012213	0.005924
O6	O	0.819277	0.183508	0.014078
O7	O	1.050110	0.161710	-0.001517
Zn8	Zn	0.933639	0.174313	0.028399
Zn9	Zn	0.942392	0.160177	-0.155145
O10	O	0.929415	0.357431	0.006637
C11	C	0.793041	0.177513	-0.053579
C12	C	0.704968	0.175616	-0.047629
C13	C	0.208817	0.165612	-0.005984
C14	C	0.291571	0.167394	-0.011577
C15	C	0.336571	0.162426	-0.090311
C16	C	0.298811	0.155690	-0.163457
C17	C	0.216058	0.153918	-0.157864
C18	C	0.584455	0.167108	-0.115182
C19	C	0.667214	0.168877	-0.120770
C20	C	0.659968	0.180583	0.031112
C21	C	0.577214	0.178802	0.036698
C22	C	0.539461	0.172073	-0.036448
N23	N	0.421159	0.164243	-0.096029
N24	N	0.454874	0.170265	-0.030729
C25	C	0.942507	-0.064864	-0.063678
C26	C	0.940154	-0.205764	-0.063524
C27	C	1.023985	-0.424990	-0.068870
C28	C	1.026511	-0.278473	-0.069358
C29	C	0.899741	-0.255703	-0.140087
C30	C	0.897845	-0.402428	-0.140021
C31	C	0.888491	-0.389997	0.018519
C32	C	0.892537	-0.243663	0.019289
C33	C	1.082990	0.156977	-0.073170
C34	C	1.171063	0.158873	-0.079125
C35	C	0.933523	0.399353	-0.063070
C36	C	0.935877	0.540253	-0.063230
N37	N	0.927671	0.183959	0.153662
N38	N	0.948366	0.150520	-0.280409
C39	C	0.979046	0.100709	0.193885
C40	C	0.974878	0.107469	0.281574
C41	C	0.919339	0.197486	0.329037
C42	C	0.867959	0.280739	0.288808
C43	C	0.872123	0.273973	0.201122
C44	C	0.901150	0.227008	0.591675
C45	C	0.896991	0.233771	0.679368
C46	C	1.003911	0.060497	0.672127
C47	C	1.008073	0.053744	0.584439
C48	C	0.956689	0.136993	0.544218
N49	N	0.915080	0.204400	0.418668
N50	N	0.960945	0.130072	0.454588
H51	H	0.690715	0.186064	0.090663
H52	H	0.540583	0.182819	0.100812
H53	H	1.016712	0.039679	0.314323
H54	H	0.322307	0.172878	0.047983
Br55	Br	0.359880	0.148954	-0.270313
H56	H	0.823628	-0.410718	0.023435
Br57	Br	1.054430	-0.021455	0.129479
Br58	Br	0.728285	0.162131	-0.227631
H59	H	0.851762	0.307079	0.718009
Br60	Br	0.792576	0.402899	0.353220
Br61	Br	0.533229	0.157970	-0.214453
Br62	Br	0.147756	0.172337	0.100875
Br63	Br	0.164818	0.144784	-0.257131
Br64	Br	1.083451	-0.068418	0.520023
Br65	Br	0.802391	0.386952	0.146533
H66	H	1.058381	-0.245478	-0.014671
Br67	Br	1.075532	-0.488790	0.022430
Br68	Br	1.084252	-0.505975	-0.167183
H69	H	0.859313	0.294795	0.558934
H70	H	0.930892	-0.447870	-0.201527
H71	H	1.045744	-0.007282	0.704883
H72	H	1.064025	-0.255211	-0.128831
Br73	Br	0.794014	-0.174829	-0.137868
Br74	Br	0.790481	-0.438923	-0.138771
Br75	Br	0.955614	-0.212977	-0.242220
Br76	Br	0.929128	-0.454077	0.115947
Br77	Br	0.787068	-0.159020	0.034399
Br78	Br	0.941465	-0.189559	0.113760
