data_functionalizedCrystal
_audit_creation_method	'MofGen! by Chris Wilmer'
_symmetry_space_group_name_H-M	'P1'
_symmetry_Int_Tables_number	1
_symmetry_cell_setting	triclinic
loop_
_symmetry_equiv_pos_as_xyz
  x,y,z
_cell_length_a	17.038272
_cell_length_b	14.044220
_cell_length_c	13.101039
_cell_angle_alpha	93.667477
_cell_angle_beta	86.404528
_cell_angle_gamma	92.150217
loop_
_atom_site_label
_atom_site_type_symbol
_atom_site_fract_x
_atom_site_fract_y
_atom_site_fract_z
O1	O	1.055801	0.202095	-0.085089
O2	O	1.555801	0.702095	0.414911
O3	O	0.827941	0.198806	-0.085119
O4	O	1.327941	0.698806	0.414881
O5	O	0.938450	0.062191	-0.085095
O6	O	1.438450	0.562191	0.414905
O7	O	0.945292	0.338710	-0.085114
O8	O	1.445292	0.838710	0.414886
O9	O	0.930523	0.072010	0.085333
O10	O	1.430523	0.572010	0.585333
O11	O	0.820014	0.208625	0.085309
O12	O	1.320014	0.708625	0.585309
O13	O	1.047873	0.211914	0.085339
O14	O	1.547873	0.711914	0.585339
Zn15	Zn	0.932685	0.211829	0.112383
Zn16	Zn	1.432685	0.711829	0.612383
Zn17	Zn	0.943130	0.198891	-0.112163
Zn18	Zn	1.443130	0.698891	0.387837
O19	O	0.937364	0.348530	0.085314
O20	O	1.437364	0.848530	0.585314
C21	C	0.931492	0.031544	0.000119
C22	C	1.431492	0.531544	0.500119
C23	C	0.922561	-0.074402	0.000119
C24	C	1.422561	0.425598	0.500119
C25	C	0.794640	0.200726	0.000091
C26	C	1.294640	0.700726	0.500091
C27	C	0.707224	0.191806	0.000080
C28	C	1.207224	0.691806	0.500080
C29	C	0.906233	-0.268381	0.000103
C30	C	1.406233	0.231619	0.500103
C31	C	0.969578	-0.320905	0.000108
C32	C	1.469578	0.179095	0.500108
C33	C	0.960493	-0.428842	0.000098
C34	C	1.460493	0.071158	0.500098
C35	C	0.915317	-0.160434	0.000112
C36	C	1.415317	0.339566	0.500112
C37	C	0.662839	0.273694	0.000075
C38	C	1.162839	0.773694	0.500075
C39	C	0.580701	0.265309	0.000090
C40	C	1.080701	0.765309	0.500090
C41	C	0.542950	0.175034	0.000102
C42	C	1.042950	0.675034	0.500102
C43	C	0.587341	0.093140	0.000110
C44	C	1.087341	0.593140	0.500110
C45	C	0.669477	0.101527	0.000102
C46	C	1.169477	0.601527	0.500102
C47	C	0.295118	0.145406	0.000131
C48	C	0.795118	0.645406	0.500131
C49	C	0.212976	0.137025	0.000136
C50	C	0.712976	0.637025	0.500136
C51	C	0.206341	0.309195	0.000117
C52	C	0.706341	0.809195	0.500117
C53	C	0.288480	0.317573	0.000104
C54	C	0.788480	0.817573	0.500104
C55	C	0.332863	0.235680	0.000117
C56	C	0.832863	0.735680	0.500117
C57	C	0.458992	0.166461	0.000114
C58	C	0.958992	0.666461	0.500114
C59	C	0.416819	0.244254	0.000113
C60	C	0.916819	0.744254	0.500113
C61	C	1.081174	0.209994	0.000126
C62	C	1.581174	0.709994	0.500126
C63	C	1.168591	0.218913	0.000131
C64	C	1.668591	0.718913	0.500131
C65	C	0.944322	0.379176	0.000098
C66	C	1.444322	0.879176	0.500098
C67	C	0.953254	0.485121	0.000091
C68	C	1.453254	0.985121	0.500091
N69	N	0.925562	0.220658	0.265630
N70	N	1.425562	0.720658	0.765630
N71	N	0.950258	0.190055	-0.265410
N72	N	1.450258	0.690055	0.234590
C73	C	0.915872	0.232680	0.474670
C74	C	1.415872	0.732680	0.974670
C75	C	0.959946	0.178037	0.525556
C76	C	1.459946	0.678037	1.025556
C77	C	0.954554	0.184725	0.641873
C78	C	1.454554	0.684725	1.141873
C79	C	0.921263	0.225992	0.358342
C80	C	1.421263	0.725992	0.858342
H81	H	1.030636	-0.284815	0.000047
H82	H	1.530636	0.215185	0.500047
C83	C	0.859438	0.302667	0.533823
C84	C	1.359438	0.802667	1.033823
H85	H	0.863181	0.298044	0.605373
H86	H	1.363181	0.798044	1.105373
H87	H	0.807019	0.287177	0.516310
H88	H	1.307019	0.787177	1.016310
H89	H	0.873313	0.365969	0.516297
H90	H	1.373313	0.865969	1.016297
H91	H	0.693569	0.347205	0.000064
H92	H	1.193569	0.847205	0.500064
C93	C	0.823759	-0.317135	0.000100
C94	C	1.323759	0.182865	0.500100
H95	H	0.828396	-0.384335	0.000106
H96	H	1.328396	0.115665	0.500106
H97	H	0.798759	-0.302002	-0.059329
H98	H	1.298759	0.197998	0.440671
H99	H	0.793245	-0.295162	0.059543
H100	H	1.293245	0.204838	0.559543
C101	C	0.531881	0.355386	0.000081
C102	C	1.031881	0.855386	0.500081
H103	H	0.566128	0.410350	0.000060
H104	H	1.066128	0.910350	0.500060
H105	H	0.496945	0.359124	0.059516
H106	H	0.996945	0.859124	0.559516
H107	H	0.502458	0.352264	-0.059355
H108	H	1.002458	0.852264	0.440645
H109	H	1.001729	0.126232	0.481763
H110	H	1.501729	0.626232	0.981763
H111	H	0.319211	0.391084	0.000082
H112	H	0.819211	0.891084	0.500082
C113	C	0.157518	0.399270	0.000116
C114	C	0.657518	0.899270	0.500116
H115	H	0.103193	0.381350	0.000131
H116	H	0.603193	0.881350	0.500131
H117	H	0.172371	0.432594	-0.059318
H118	H	0.672371	0.932594	0.440682
H119	H	0.166860	0.439434	0.059554
H120	H	0.666860	0.939434	0.559554
H121	H	0.182242	0.063509	0.000145
H122	H	0.682242	0.563509	0.500145
H123	H	0.556597	0.019637	0.000135
H124	H	1.056597	0.519637	0.500135
C125	C	0.343930	0.055326	0.000139
C126	C	0.843930	0.555326	0.500139
H127	H	0.309681	0.000363	0.000136
H128	H	0.809681	0.500363	0.500136
H129	H	0.373351	0.058440	0.059570
H130	H	0.873351	0.558440	0.559570
H131	H	0.378867	0.051591	-0.059302
H132	H	0.878867	0.551591	0.440698
C133	C	0.718301	0.011450	0.000098
C134	C	1.218301	0.511450	0.500098
H135	H	0.684057	-0.043517	0.000095
H136	H	1.184057	0.456483	0.500095
H137	H	0.747726	0.014564	0.059525
H138	H	1.247726	0.514564	0.559525
H139	H	0.753236	0.007721	-0.059346
H140	H	1.253236	0.507721	0.440654
H141	H	0.447559	0.317756	0.000108
H142	H	0.947559	0.817756	0.500108
H143	H	0.428245	0.092960	0.000153
H144	H	0.928245	0.592960	0.500153
