data_functionalizedCrystal
_audit_creation_method	'MofGen! by Chris Wilmer'
_symmetry_space_group_name_H-M	'P1'
_symmetry_Int_Tables_number	1
_symmetry_cell_setting	triclinic
loop_
_symmetry_equiv_pos_as_xyz
  x,y,z
_cell_length_a	38.077524
_cell_length_b	38.067025
_cell_length_c	38.067077
_cell_angle_alpha	90.002614
_cell_angle_beta	59.997489
_cell_angle_gamma	119.999940
loop_
_atom_site_label
_atom_site_type_symbol
_atom_site_fract_x
_atom_site_fract_y
_atom_site_fract_z
O1	O	0.309780	-0.240984	-0.010456
O2	O	0.237864	-0.189900	0.010396
O3	O	0.309777	-0.189899	-0.061538
O4	O	0.237867	-0.240984	0.061479
O5	O	0.251367	-0.248326	-0.061538
O6	O	0.179454	-0.248327	0.010397
O7	O	0.251369	-0.299410	-0.010456
Zn8	Zn	0.206137	-0.283145	-0.000029
Zn9	Zn	0.283096	-0.206165	-0.000030
O10	O	0.179456	-0.299411	0.061479
C11	C	0.057328	-0.025601	0.031596
C12	C	0.014766	-0.046936	0.031892
C13	C	0.057326	-0.089215	0.031599
C14	C	0.014764	-0.110454	0.031895
C15	C	-0.006267	-0.089214	0.031596
C16	C	0.078263	-0.046938	0.031895
C17	C	0.171856	0.127801	0.020077
C18	C	0.195271	0.171243	0.016820
C19	C	0.175176	0.193036	0.015183
C20	C	0.200566	0.240142	0.011643
C21	C	0.131663	0.171384	0.016807
C22	C	0.108249	0.127943	0.020070
C23	C	0.128347	0.106152	0.021705
C24	C	-0.148109	-0.128057	0.020073
C25	C	-0.188282	-0.148079	0.016815
C26	C	-0.208435	-0.189972	0.015180
C27	C	-0.251989	-0.211683	0.011642
C28	C	-0.188415	-0.211846	0.016807
C29	C	-0.148248	-0.191827	0.020072
C30	C	-0.128095	-0.149928	0.021702
C31	C	0.171847	-0.128064	0.020090
C32	C	0.195263	-0.148085	0.016831
C33	C	0.175166	-0.189980	0.015197
C34	C	0.200554	-0.211690	0.011661
C35	C	0.131657	-0.211850	0.016819
C36	C	0.108245	-0.191827	0.020077
C37	C	0.128342	-0.149934	0.021716
C38	C	0.102957	0.059049	0.025239
C39	C	0.082719	0.021502	0.028058
C40	C	0.082714	-0.110924	0.028065
C41	C	0.102951	-0.128227	0.025249
C42	C	-0.049820	-0.110921	0.028058
C43	C	-0.084538	-0.128224	0.025239
O44	O	-0.266240	-0.189892	-0.061564
O45	O	-0.368390	-0.240971	0.061454
O46	O	-0.368385	-0.240974	-0.010479
O47	O	-0.266245	-0.189890	0.010369
O48	O	-0.368388	-0.299402	-0.010477
O49	O	-0.368393	-0.299399	0.061457
O50	O	-0.266243	-0.248321	-0.061561
Zn51	Zn	-0.317319	-0.283137	-0.000052
Zn52	Zn	-0.317315	-0.206155	-0.000056
O53	O	-0.266248	-0.248318	0.010372
C54	C	0.431913	-0.088947	-0.406425
C55	C	0.474476	-0.046670	-0.427664
C56	C	0.431913	-0.088947	-0.342812
C57	C	0.474476	-0.046670	-0.364148
C58	C	0.495509	-0.025334	-0.406425
C59	C	0.410978	-0.110186	-0.364148
C60	C	0.317388	-0.191987	-0.445270
C61	C	0.293974	-0.212151	-0.465293
C62	C	0.314071	-0.190414	-0.507187
C63	C	0.288682	-0.212272	-0.528896
C64	C	0.357584	-0.148514	-0.529059
C65	C	0.380998	-0.128356	-0.509039
C66	C	0.360897	-0.150095	-0.467143
C67	C	0.637354	0.128067	-0.509463
C68	C	0.677528	0.171509	-0.529626
C69	C	0.697680	0.193303	-0.507891
C70	C	0.741234	0.240406	-0.529746
C71	C	0.677658	0.171650	-0.465991
C72	C	0.637491	0.128208	-0.445832
C73	C	0.617339	0.106419	-0.467573
C74	C	0.317388	-0.191987	-0.189411
C75	C	0.293971	-0.212149	-0.145967
C76	C	0.314067	-0.190412	-0.124174
C77	C	0.288678	-0.212270	-0.077069
C78	C	0.357577	-0.148514	-0.145825
C79	C	0.380990	-0.128354	-0.189267
C80	C	0.360894	-0.150097	-0.211058
C81	C	0.386286	-0.128232	-0.445435
C82	C	0.406524	-0.110806	-0.428132
C83	C	0.406524	-0.110806	-0.295709
C84	C	0.386286	-0.128232	-0.258163
C85	C	0.539063	0.021769	-0.428283
C86	C	0.573781	0.059315	-0.445708
C87	C	0.449896	-0.361072	-0.025334
C88	C	0.428864	-0.403349	-0.025632
C89	C	0.386298	-0.361074	-0.025330
C90	C	0.365363	-0.403351	-0.025628
C91	C	0.386301	-0.424686	-0.025334
C92	C	0.428862	-0.339834	-0.025628
C93	C	0.513469	-0.297316	-0.020172
C94	C	0.553645	-0.277154	-0.016915
C95	C	0.573796	-0.298890	-0.015283
C96	C	0.617355	-0.277031	-0.011750
C97	C	0.553778	-0.340788	-0.016912
C98	C	0.513606	-0.360948	-0.020170
C99	C	0.493452	-0.339212	-0.021799
C100	C	0.381308	-0.493437	-0.020175
C101	C	0.358033	-0.536880	-0.016918
C102	C	0.314519	-0.558670	-0.015282
C103	C	0.289279	-0.605775	-0.011748
C104	C	0.294275	-0.537020	-0.016907
C105	C	0.317550	-0.493578	-0.020166
C106	C	0.361065	-0.471788	-0.021798
C107	C	0.381299	-0.297319	-0.020164
C108	C	0.358018	-0.277161	-0.016897
C109	C	0.314503	-0.298898	-0.015261
C110	C	0.289261	-0.277042	-0.011724
C111	C	0.294263	-0.340794	-0.016888
C112	C	0.317541	-0.360955	-0.020152
C113	C	0.361059	-0.339216	-0.021790
O114	O	0.251386	0.378692	-0.010478
O115	O	0.179471	0.255675	0.010370
O116	O	0.251388	0.327603	-0.061563
O117	O	0.179470	0.306764	0.061455
O118	O	0.309796	0.327601	-0.061560
O119	O	0.237880	0.255674	0.010374
O120	O	0.309795	0.378690	-0.010475
Zn121	Zn	0.283111	0.317182	-0.000050
Zn122	Zn	0.206155	0.317184	-0.000054
O123	O	0.237878	0.306763	0.061458
O124	O	0.857634	0.378953	-0.558454
O125	O	0.755492	0.255938	-0.507373
O126	O	0.755489	0.327867	-0.507367
O127	O	0.857637	0.307024	-0.558460
O128	O	0.755490	0.327869	-0.565795
O129	O	0.755493	0.255939	-0.565801
O130	O	0.857635	0.378955	-0.616882
Zn131	Zn	0.806564	0.317447	-0.600618
Zn132	Zn	0.806563	0.317445	-0.523637
O133	O	0.857638	0.307025	-0.616887
O134	O	0.237863	-0.240988	-0.616613
O135	O	0.309777	-0.189900	-0.565530
O136	O	0.237862	-0.189902	-0.565525
O137	O	0.309778	-0.240986	-0.616618
O138	O	0.179453	-0.248328	-0.507099
O139	O	0.251367	-0.248326	-0.507104
O140	O	0.179453	-0.299414	-0.558186
Zn141	Zn	0.206137	-0.283146	-0.523369
Zn142	Zn	0.283094	-0.206168	-0.600348
O143	O	0.251368	-0.299412	-0.558191
C144	C	0.039350	-0.424693	0.321716
C145	C	0.060383	-0.403358	0.342955
C146	C	0.102946	-0.361080	0.258104
C147	C	0.123881	-0.339841	0.279440
C148	C	0.102945	-0.361081	0.321717
C149	C	0.060383	-0.403357	0.279439
C150	C	-0.024222	-0.493445	0.321549
C151	C	-0.064396	-0.536888	0.341572
C152	C	-0.084545	-0.558677	0.383463
C153	C	-0.128103	-0.605782	0.405174
C154	C	-0.064527	-0.537027	0.405337
C155	C	-0.024356	-0.493585	0.385316
C156	C	-0.004204	-0.471796	0.343422
C157	C	0.107940	-0.361246	0.385473
C158	C	0.131216	-0.341223	0.405635
C159	C	0.174729	-0.299332	0.383899
C160	C	0.199969	-0.277620	0.405757
C161	C	0.194971	-0.277457	0.342001
C162	C	0.171695	-0.297479	0.321841
C163	C	0.128182	-0.339374	0.343577
C164	C	0.107942	-0.361245	0.189350
C165	C	0.131222	-0.341222	0.145905
C166	C	0.174735	-0.299331	0.124117
C167	C	0.199976	-0.277618	0.077012
C168	C	0.194976	-0.277459	0.145767
C169	C	0.171700	-0.297480	0.189211
C170	C	0.128183	-0.339373	0.211001
C171	C	-0.613712	-0.361056	0.321694
C172	C	-0.634650	-0.403333	0.342934
C173	C	-0.550114	-0.361059	0.258082
C174	C	-0.571149	-0.403336	0.279418
C175	C	-0.613714	-0.424670	0.321696
C176	C	-0.571147	-0.339819	0.279417
C177	C	-0.618706	-0.297299	0.321527
C178	C	-0.641982	-0.277136	0.341551
C179	C	-0.685497	-0.298871	0.383442
C180	C	-0.710738	-0.277012	0.405154
C181	C	-0.705741	-0.340769	0.405317
C182	C	-0.682465	-0.360930	0.385295
C183	C	-0.638949	-0.339195	0.343401
C184	C	-0.682617	-0.493421	0.385453
C185	C	-0.706032	-0.536864	0.405615
C186	C	-0.685935	-0.558654	0.383879
C187	C	-0.711322	-0.605759	0.405737
C188	C	-0.642419	-0.537004	0.341980
C189	C	-0.619004	-0.493563	0.321820
C190	C	-0.639105	-0.471773	0.343556
C191	C	-0.486537	-0.297305	0.189328
C192	C	-0.446364	-0.277147	0.145882
C193	C	-0.426215	-0.298885	0.124094
C194	C	-0.382654	-0.277030	0.076988
C195	C	-0.446235	-0.340782	0.145744
C196	C	-0.486409	-0.360942	0.189188
C197	C	-0.506557	-0.339202	0.210978
C198	C	0.102964	0.291944	0.321690
C199	C	0.060403	0.291651	0.342927
C200	C	0.102964	0.291934	0.258078
C201	C	0.060403	0.291641	0.279411
C202	C	0.039371	0.291946	0.321687
C203	C	0.123899	0.291640	0.279414
C204	C	0.171861	0.297104	0.321528
C205	C	0.195274	0.300365	0.341553
C206	C	0.175178	0.302007	0.383442
C207	C	0.200563	0.305544	0.405156
C208	C	0.131667	0.300384	0.405314
C209	C	0.108254	0.297122	0.385291
C210	C	0.128353	0.295483	0.343398
C211	C	-0.024198	0.297120	0.385438
C212	C	-0.064370	0.300383	0.405597
C213	C	-0.084518	0.302015	0.383859
C214	C	-0.128074	0.305554	0.405713
C215	C	-0.064501	0.300380	0.341962
C216	C	-0.024332	0.297116	0.321805
C217	C	-0.004181	0.295488	0.343543
C218	C	0.171860	0.297084	0.189328
C219	C	0.195276	0.300340	0.145883
C220	C	0.175180	0.301972	0.124093
C221	C	0.200565	0.305499	0.076989
C222	C	0.131672	0.300351	0.145741
C223	C	0.108256	0.297097	0.189184
C224	C	0.128352	0.295463	0.210976
C225	C	0.057358	-0.025617	-0.406453
C226	C	0.078294	-0.046955	-0.427691
C227	C	-0.006241	-0.089228	-0.342839
C228	C	0.014791	-0.110469	-0.364174
C229	C	0.057356	-0.089232	-0.406451
C230	C	0.014793	-0.046951	-0.364176
C231	C	0.107712	0.127785	-0.445302
C232	C	0.130986	0.171227	-0.465326
C233	C	0.174505	0.193017	-0.507221
C234	C	0.199748	0.240122	-0.528931
C235	C	0.194747	0.171362	-0.529092
C236	C	0.171469	0.127923	-0.509070
C237	C	0.127950	0.106134	-0.467174
C238	C	0.171883	-0.128083	-0.509489
C239	C	0.195296	-0.148107	-0.529651
C240	C	0.175201	-0.190000	-0.507915
C241	C	0.200586	-0.211712	-0.529770
C242	C	0.131686	-0.211870	-0.466015
C243	C	0.108269	-0.191850	-0.445856
C244	C	0.128375	-0.149952	-0.467598
C245	C	-0.148094	-0.128065	-0.189437
C246	C	-0.188268	-0.148083	-0.145993
C247	C	-0.208422	-0.189978	-0.124199
C248	C	-0.251979	-0.211684	-0.077094
C249	C	-0.188400	-0.211850	-0.145849
C250	C	-0.148227	-0.191830	-0.189292
C251	C	-0.128080	-0.149937	-0.211084
C252	C	0.102714	0.059031	-0.445466
C253	C	0.082597	0.021485	-0.428162
C254	C	-0.049798	-0.110933	-0.295736
C255	C	-0.084519	-0.128234	-0.258189
C256	C	0.082745	-0.110940	-0.428310
C257	C	0.102982	-0.128245	-0.445734
O258	O	-0.762148	-0.744311	0.434458
O259	O	-0.690230	-0.621295	0.383368
O260	O	-0.762142	-0.693225	0.383368
O261	O	-0.690236	-0.672381	0.434458
O262	O	-0.820554	-0.693221	0.441793
O263	O	-0.748642	-0.621291	0.441793
O264	O	-0.820560	-0.744306	0.492883
Zn265	Zn	-0.793875	-0.682798	0.476615
Zn266	Zn	-0.716915	-0.682804	0.399636
O267	O	-0.748648	-0.672376	0.492883
C268	C	0.495245	0.348761	-0.406439
C269	C	0.474213	0.349055	-0.427679
C270	C	0.431653	0.348772	-0.342830
C271	C	0.410717	0.349066	-0.364166
C272	C	0.431652	0.348762	-0.406442
C273	C	0.474214	0.349065	-0.364163
C274	C	0.637085	0.337234	-0.445274
C275	C	0.677258	0.333974	-0.465293
C276	C	0.697409	0.332332	-0.507187
C277	C	0.740961	0.328789	-0.528892
C278	C	0.677387	0.333954	-0.529060
C279	C	0.637222	0.337220	-0.509043
C280	C	0.617071	0.338860	-0.467148
C281	C	0.381304	0.337229	-0.509483
C282	C	0.358032	0.333970	-0.529648
C283	C	0.314517	0.332338	-0.507915
C284	C	0.289276	0.328798	-0.529771
C285	C	0.294276	0.333970	-0.466016
C286	C	0.317552	0.337237	-0.445856
C287	C	0.361068	0.338863	-0.467594
C288	C	0.381307	0.337280	-0.189429
C289	C	0.358032	0.334026	-0.145986
C290	C	0.314516	0.332395	-0.124196
C291	C	0.289277	0.328864	-0.077092
C292	C	0.294276	0.334016	-0.145848
C293	C	0.317551	0.337268	-0.189289
C294	C	0.361070	0.338904	-0.211078
C295	C	0.573515	0.342398	-0.445443
C296	C	0.538798	0.345219	-0.428143
C297	C	0.406417	0.345243	-0.295727
C298	C	0.386302	0.342431	-0.258182
C299	C	0.406416	0.345222	-0.428302
C300	C	0.386301	0.342401	-0.445728
H301	H	-0.002837	-0.145191	0.032374
H302	H	-0.002819	-0.145207	-0.347044
H303	H	0.188184	-0.279669	0.206837
H304	H	0.072830	0.295777	0.206808
C305	C	0.615468	0.104392	-0.399746
C306	C	0.571281	0.056608	-0.377571
C307	C	0.549257	0.032792	-0.331484
C308	C	0.571419	0.056760	-0.307571
C309	C	0.615608	0.104545	-0.329745
C310	C	0.637632	0.128362	-0.375833
H311	H	0.554874	0.038864	-0.395273
H312	H	0.516545	-0.002582	-0.315069
H313	H	0.555115	0.039129	-0.273454
H314	H	0.632015	0.122290	-0.312044
H315	H	0.670344	0.163736	-0.392247
C316	C	0.498269	-0.023526	-0.474594
C317	C	0.517185	-0.042088	-0.509983
C318	C	0.540984	-0.018944	-0.556912
C319	C	0.545866	0.022763	-0.568452
C320	C	0.526949	0.041327	-0.533062
C321	C	0.503151	0.018183	-0.486133
H322	H	0.513571	-0.072964	-0.501441
H323	H	0.554987	-0.032686	-0.583110
H324	H	0.563483	0.039896	-0.603191
H325	H	0.530563	0.072203	-0.541603
H326	H	0.489148	0.031926	-0.459935
C327	C	0.242846	-0.231376	0.121800
C328	C	0.291050	-0.222461	0.082096
C329	C	0.338918	-0.176378	0.058129
C330	C	0.338581	-0.139209	0.073866
C331	C	0.290374	-0.148123	0.113572
C332	C	0.242507	-0.194206	0.137539
H333	H	0.291302	-0.249977	0.070445
H334	H	0.374604	-0.169780	0.028736
H335	H	0.374015	-0.105096	0.056124
H336	H	0.290123	-0.120607	0.125223
H337	H	0.206821	-0.200804	0.166932
C338	C	0.243134	0.302151	0.317495
C339	C	0.291409	0.341448	0.308872
C340	C	0.339269	0.343232	0.284814
C341	C	0.338853	0.305718	0.269380
C342	C	0.290576	0.266417	0.278003
C343	C	0.242716	0.264634	0.302060
H344	H	0.291719	0.369221	0.320297
H345	H	0.375007	0.372325	0.278432
H346	H	0.374282	0.307038	0.251571
H347	H	0.290266	0.238645	0.266577
H348	H	0.206977	0.235541	0.308443
H349	H	0.230700	0.301658	0.128262
H350	H	-0.430063	-0.243033	0.128259
H351	H	0.374514	0.332703	-0.128358
C352	C	0.615199	0.339004	-0.533101
C353	C	0.637360	0.337197	-0.579180
C354	C	0.615336	0.338979	-0.603238
C355	C	0.571151	0.342568	-0.581217
C356	C	0.548988	0.344375	-0.535136
C357	C	0.571012	0.342593	-0.511078
H358	H	0.670070	0.334540	-0.595483
H359	H	0.631743	0.337641	-0.637351
H360	H	0.554848	0.343887	-0.599026
H361	H	0.516277	0.347032	-0.518832
H362	H	0.554605	0.343931	-0.476965
H363	H	-0.008035	0.295785	0.287693
H364	H	0.114728	-0.359037	0.439749
H365	H	0.072824	0.295797	0.403102
H366	H	0.230404	-0.243344	0.324305
C367	C	0.295290	0.339033	-0.399771
C368	C	0.320892	0.342621	-0.377596
C369	C	0.298628	0.344416	-0.331510
C370	C	0.250764	0.342622	-0.307600
C371	C	0.225160	0.339033	-0.329776
C372	C	0.247423	0.337239	-0.375861
H373	H	0.356326	0.343949	-0.395295
H374	H	0.317583	0.347072	-0.315094
H375	H	0.234284	0.343950	-0.273485
H376	H	0.189725	0.337705	-0.312076
H377	H	0.228469	0.334582	-0.392277
H378	H	0.188174	-0.279667	0.287729
H379	H	0.374503	-0.243048	-0.015574
C380	C	0.036626	0.291032	0.389846
C381	C	0.066791	0.327884	0.401359
C382	C	0.043015	0.327274	0.448273
C383	C	-0.010926	0.289812	0.483675
C384	C	-0.041094	0.252958	0.472163
C385	C	-0.017318	0.253568	0.425249
H386	H	0.106724	0.355618	0.375152
H387	H	0.065348	0.354556	0.456795
H388	H	-0.028526	0.289361	0.518403
H389	H	-0.081027	0.225224	0.498370
H390	H	-0.039651	0.226285	0.416727
H391	H	-0.008062	-0.475956	0.403130
C392	C	-0.125946	-0.081974	0.021873
C393	C	-0.147968	-0.057917	0.020088
C394	C	-0.125804	-0.011834	0.021888
C395	C	-0.081618	0.010191	0.025474
C396	C	-0.059594	-0.013866	0.027259
C397	C	-0.081758	-0.059949	0.025459
H398	H	-0.180680	-0.074221	0.017433
H399	H	-0.142109	0.005975	0.020566
H400	H	-0.065211	0.044304	0.026806
H401	H	-0.026883	0.002438	0.029914
H402	H	-0.065454	-0.077758	0.026781
C403	C	-0.126227	-0.215885	0.021862
C404	C	-0.082041	-0.193861	0.025448
C405	C	-0.060017	-0.217919	0.027235
C406	C	-0.082180	-0.264000	0.025437
C407	C	-0.126368	-0.286026	0.021851
C408	C	-0.148392	-0.261969	0.020063
H409	H	-0.065632	-0.159747	0.026779
H410	H	-0.027306	-0.201613	0.029890
H411	H	-0.065877	-0.281809	0.026760
H412	H	-0.142777	-0.320141	0.020520
H413	H	-0.181103	-0.278274	0.017409
C414	C	0.452636	-0.292908	-0.026273
C415	C	0.471548	-0.257521	-0.063753
C416	C	0.495319	-0.210597	-0.064398
C417	C	0.500179	-0.199059	-0.027563
C418	C	0.481267	-0.234448	0.009919
C419	C	0.457496	-0.281372	0.010564
H420	H	0.467951	-0.266061	-0.091022
H421	H	0.509319	-0.184400	-0.092144
H422	H	0.517776	-0.164323	-0.028041
H423	H	0.484864	-0.225908	0.037188
H424	H	0.443496	-0.307568	0.038310
H425	H	0.373937	-0.130814	-0.128078
H426	H	0.570191	-0.358484	-0.015582
H427	H	-0.502710	-0.395056	0.206815
H428	H	-0.204565	-0.130270	-0.128367
C429	C	-0.547373	-0.426482	0.256283
C430	C	-0.542511	-0.433159	0.214587
C431	C	-0.518738	-0.456306	0.191454
C432	C	-0.499827	-0.472776	0.210018
C433	C	-0.504689	-0.466100	0.251717
C434	C	-0.528462	-0.442953	0.274849
H435	H	-0.556510	-0.420966	0.200843
H436	H	-0.515139	-0.461248	0.160586
H437	H	-0.482229	-0.489911	0.192895
H438	H	-0.490690	-0.478292	0.265461
H439	H	-0.532060	-0.438010	0.305717
H440	H	-0.583572	-0.475936	0.287707
C441	C	-0.424072	-0.364698	0.121777
C442	C	-0.456775	-0.407341	0.117874
C443	C	-0.434609	-0.431254	0.093907
C444	C	-0.379740	-0.412525	0.073843
C445	C	-0.347033	-0.369880	0.077746
C446	C	-0.369199	-0.345967	0.101713
H447	H	-0.497396	-0.421207	0.132728
H448	H	-0.458821	-0.462823	0.091019
H449	H	-0.363331	-0.430227	0.056102
H450	H	-0.306413	-0.356014	0.062893
H451	H	-0.344987	-0.314398	0.104601
H452	H	0.569939	-0.243042	-0.015589
H453	H	0.072815	-0.209639	0.021404
H454	H	0.115311	0.301683	0.127995
H455	H	-0.698952	-0.395046	0.403105
C456	C	0.246111	-0.258235	-0.122151
C457	C	0.199658	-0.268095	-0.118363
C458	C	0.151799	-0.314183	-0.094548
C459	C	0.150393	-0.350411	-0.074521
C460	C	0.196847	-0.340552	-0.078309
C461	C	0.244706	-0.294464	-0.102124
H462	H	0.200697	-0.241276	-0.133189
H463	H	0.117410	-0.321481	-0.091744
H464	H	0.114964	-0.384528	-0.056892
H465	H	0.195808	-0.367371	-0.063483
H466	H	0.279095	-0.287166	-0.104927
H467	H	0.072276	0.110048	-0.411189
H468	H	0.258840	0.332686	-0.128103
C469	C	-0.086386	0.302180	0.451681
C470	C	-0.053573	0.338795	0.461530
C471	C	-0.075592	0.340592	0.507615
C472	C	-0.130426	0.305775	0.543850
C473	C	-0.163243	0.269157	0.534002
C474	C	-0.141223	0.267360	0.487917
H475	H	-0.012978	0.364572	0.434706
H476	H	-0.051299	0.367699	0.514905
H477	H	-0.146727	0.307105	0.577964
H478	H	-0.203837	0.243381	0.560826
H479	H	-0.165517	0.240253	0.480627
C480	C	0.699552	0.332148	-0.575140
C481	C	0.721323	0.369649	-0.612316
C482	C	0.743486	0.367843	-0.658397
C483	C	0.743878	0.328535	-0.667302
C484	C	0.722107	0.291031	-0.630125
C485	C	0.699943	0.292838	-0.584044
H486	H	0.721033	0.398750	-0.605725
H487	H	0.759602	0.395606	-0.685918
H488	H	0.760284	0.327197	-0.701414
H489	H	0.722396	0.261930	-0.636716
H490	H	0.683827	0.265075	-0.556523
C491	C	0.295271	-0.215896	-0.213377
C492	C	0.247403	-0.261975	-0.189560
C493	C	0.225283	-0.285878	-0.213526
C494	C	0.251032	-0.263701	-0.261308
C495	C	0.298902	-0.217619	-0.285127
C496	C	0.321022	-0.193716	-0.261161
H497	H	0.228340	-0.278394	-0.154187
H498	H	0.189846	-0.319990	-0.195893
H499	H	0.234658	-0.281395	-0.279048
H500	H	0.317965	-0.201200	-0.320500
H501	H	0.356459	-0.159603	-0.278794
H502	H	0.115293	-0.245964	0.015489
H503	H	0.497309	-0.395061	-0.021497
C504	C	0.429178	-0.469467	-0.021977
C505	C	0.475714	-0.465560	-0.058597
C506	C	0.523581	-0.441591	-0.060394
C507	C	0.524913	-0.421530	-0.025572
C508	C	0.478376	-0.425437	0.011051
C509	C	0.430508	-0.449405	0.012849
H510	H	0.474729	-0.480411	-0.084377
H511	H	0.558031	-0.438699	-0.087505
H512	H	0.560348	-0.403787	-0.026902
H513	H	0.479361	-0.410586	0.036832
H514	H	0.396058	-0.452297	0.039960
H515	H	0.072838	-0.209660	-0.411743
C516	C	0.699276	0.332184	-0.441232
C517	C	0.666458	0.295577	-0.398554
C518	C	0.688475	0.293786	-0.374492
C519	C	0.743310	0.328602	-0.393109
C520	C	0.776131	0.365212	-0.435789
C521	C	0.754114	0.367003	-0.459851
H522	H	0.625863	0.269802	-0.384772
H523	H	0.664178	0.266685	-0.342898
H524	H	0.759608	0.327276	-0.375296
H525	H	0.816725	0.390987	-0.449572
H526	H	0.778410	0.394104	-0.491446
C527	C	0.246110	-0.258235	-0.441233
C528	C	0.199660	-0.268085	-0.398557
C529	C	0.151794	-0.314169	-0.374497
C530	C	0.150379	-0.350403	-0.393112
C531	C	0.196831	-0.340554	-0.435791
C532	C	0.244697	-0.294470	-0.459851
H533	H	0.200706	-0.241261	-0.384775
H534	H	0.117407	-0.321459	-0.342904
H535	H	0.114946	-0.384517	-0.375301
H536	H	0.195785	-0.367378	-0.449573
H537	H	0.279084	-0.287179	-0.491444
H538	H	0.042803	0.291163	0.262279
H539	H	0.416745	0.338615	-0.207168
H540	H	0.187951	0.110294	-0.526881
C541	C	-0.086665	0.302177	0.318048
C542	C	-0.141537	0.267363	0.336781
C543	C	-0.163699	0.269159	0.312866
C544	C	-0.130989	0.305768	0.270218
C545	C	-0.076114	0.340585	0.251482
C546	C	-0.053952	0.338789	0.275398
H547	H	-0.165753	0.240261	0.368354
H548	H	-0.204321	0.243386	0.326735
H549	H	-0.147395	0.307098	0.252514
H550	H	-0.051897	0.367687	0.219910
H551	H	-0.013330	0.364563	0.261529
C552	C	0.319095	-0.426496	-0.026274
C553	C	0.270735	-0.433174	0.010562
C554	C	0.224469	-0.456320	0.009916
C555	C	0.226563	-0.472790	-0.027566
C556	C	0.274925	-0.466113	-0.064405
C557	C	0.321191	-0.442966	-0.063759
H558	H	0.269183	-0.420981	0.038311
H559	H	0.188668	-0.461263	0.037186
H560	H	0.192314	-0.489924	-0.028044
H561	H	0.276476	-0.478305	-0.092154
H562	H	0.356991	-0.438024	-0.091029
C563	C	0.193966	0.103834	0.021877
C564	C	0.210056	0.083770	-0.012944
C565	C	0.232165	0.059802	-0.011146
C566	C	0.238186	0.055899	0.025473
C567	C	0.222096	0.075963	0.060296
C568	C	0.199986	0.099931	0.058498
H569	H	0.205599	0.086659	-0.040053
H570	H	0.244076	0.044949	-0.036925
H571	H	0.254552	0.038156	0.026803
H572	H	0.226552	0.073074	0.087405
H573	H	0.188076	0.114784	0.084277
H574	H	-0.080939	-0.554774	0.439450
H575	H	-0.080692	-0.554512	0.323759
C576	C	0.246393	-0.364710	-0.015088
C577	C	0.198188	-0.373225	0.024216
C578	C	0.150320	-0.397138	0.026014
C579	C	0.150657	-0.412536	-0.011492
C580	C	0.198863	-0.404022	-0.050800
C581	C	0.246731	-0.380108	-0.052597
H582	H	0.197937	-0.361826	0.051984
H583	H	0.114634	-0.403441	0.055112
H584	H	0.115222	-0.430238	-0.010161
H585	H	0.199114	-0.415420	-0.078567
H586	H	0.282417	-0.373805	-0.081696
C587	C	0.380301	-0.560693	-0.015130
C588	C	0.433236	-0.544843	-0.052641
C589	C	0.455501	-0.568660	-0.050854
C590	C	0.424830	-0.608325	-0.011555
C591	C	0.371891	-0.624177	0.025959
C592	C	0.349627	-0.600361	0.024171
H593	H	0.455944	-0.515479	-0.081735
H594	H	0.494690	-0.556925	-0.078624
H595	H	0.441311	-0.625955	-0.010232
H596	H	0.349184	-0.653542	0.055053
H597	H	0.310438	-0.612095	0.051942
C598	C	0.124563	-0.023819	-0.474619
C599	C	0.147704	0.022784	-0.498085
C600	C	0.193971	0.045917	-0.545010
C601	C	0.217097	0.022447	-0.568470
C602	C	0.193956	-0.024159	-0.545004
C603	C	0.147689	-0.047292	-0.498079
H604	H	0.130585	0.040161	-0.480718
H605	H	0.211102	0.080418	-0.562381
H606	H	0.251346	0.039572	-0.603207
H607	H	0.211074	-0.041536	-0.562371
H608	H	0.130558	-0.081793	-0.480708
C609	C	0.108724	0.195045	-0.441266
C610	C	0.092525	0.215074	-0.459882
C611	C	0.070262	0.238892	-0.435821
C612	C	0.064198	0.242680	-0.393146
C613	C	0.080397	0.222651	-0.374528
C614	C	0.102660	0.198833	-0.398589
H615	H	0.097013	0.212270	-0.491475
H616	H	0.058270	0.253719	-0.449603
H617	H	0.047718	0.260312	-0.375335
H618	H	0.075909	0.225455	-0.342935
H619	H	0.114652	0.184006	-0.384806
H620	H	0.374514	0.332640	-0.563760
H621	H	0.230179	0.189107	-0.563203
C622	C	0.379688	-0.124605	-0.575140
C623	C	0.395770	-0.143336	-0.611296
C624	C	0.417875	-0.119425	-0.657378
C625	C	0.423898	-0.076783	-0.667304
C626	C	0.407815	-0.058050	-0.631147
C627	C	0.385710	-0.081962	-0.585065
H628	H	0.391312	-0.174904	-0.603950
H629	H	0.429780	-0.133292	-0.684144
H630	H	0.440261	-0.059082	-0.701417
H631	H	0.412274	-0.026482	-0.638493
H632	H	0.373805	-0.068094	-0.558299
C633	C	0.170152	-0.292916	0.256304
C634	C	0.218509	-0.281384	0.214608
C635	C	0.264779	-0.234462	0.191475
C636	C	0.262692	-0.199071	0.210037
C637	C	0.214333	-0.210603	0.251735
C638	C	0.168063	-0.257525	0.274869
H639	H	0.220056	-0.307583	0.200865
H640	H	0.300577	-0.225926	0.160607
H641	H	0.296943	-0.164337	0.192913
H642	H	0.212786	-0.184404	0.265478
H643	H	0.132264	-0.266061	0.305736
H644	H	0.416417	-0.094240	-0.206893
H645	H	0.301018	-0.209693	-0.411158
C646	C	0.246404	-0.560991	-0.015106
C647	C	0.198201	-0.600691	0.024199
C648	C	0.150331	-0.624659	0.025999
C649	C	0.150666	-0.608928	-0.011506
C650	C	0.198872	-0.569226	-0.050814
C651	C	0.246741	-0.545258	-0.052614
H652	H	0.197951	-0.612338	0.051966
H653	H	0.114646	-0.654049	0.055098
H654	H	0.115230	-0.626671	-0.010174
H655	H	0.199121	-0.557579	-0.078580
H656	H	0.282426	-0.515868	-0.081712
H657	H	0.376720	-0.144918	-0.347017
C658	C	0.193965	0.295296	0.275448
C659	C	0.210058	0.330113	0.239288
C660	C	0.232165	0.328308	0.193207
C661	C	0.238180	0.291686	0.183284
C662	C	0.222088	0.256866	0.219445
C663	C	0.199980	0.258671	0.265527
H664	H	0.205605	0.357226	0.246633
H665	H	0.244077	0.354085	0.166438
H666	H	0.254545	0.290350	0.149172
H667	H	0.226540	0.229754	0.212100
H668	H	0.188068	0.232894	0.292295
H669	H	0.446470	-0.420476	-0.026112
H670	H	-0.131701	-0.093958	-0.207181
C671	C	0.109562	0.302193	0.451396
C672	C	0.140346	0.341501	0.460302
C673	C	0.118239	0.343309	0.506383
C674	C	0.065349	0.305809	0.543557
C675	C	0.034562	0.266497	0.534652
C676	C	0.056669	0.264690	0.488571
H677	H	0.179501	0.369264	0.432782
H678	H	0.141029	0.372410	0.512975
H679	H	0.048984	0.307147	0.577669
H680	H	-0.004593	0.238735	0.562172
H681	H	0.033879	0.235589	0.481979
C682	C	0.036602	-0.426498	0.389882
C683	C	0.017683	-0.407940	0.425275
C684	C	-0.006097	-0.431078	0.472200
C685	C	-0.010958	-0.472775	0.483732
C686	C	0.007962	-0.491335	0.448339
C687	C	0.031742	-0.468196	0.401414
H688	H	0.021281	-0.377072	0.416739
H689	H	-0.020103	-0.417339	0.498400
H690	H	-0.028561	-0.489903	0.518469
H691	H	0.004364	-0.522203	0.456875
H692	H	0.045747	-0.481936	0.375213
H693	H	0.188255	-0.093971	-0.527195
H694	H	0.416737	0.338556	-0.527187
C695	C	0.699825	0.195618	-0.442080
C696	C	0.721595	0.179888	-0.426685
C697	C	0.743760	0.203858	-0.402774
C698	C	0.744156	0.243559	-0.394257
C699	C	0.722386	0.259291	-0.409652
C700	C	0.700220	0.235321	-0.433564
H701	H	0.721302	0.150497	-0.432990
H702	H	0.759876	0.192211	-0.391378
H703	H	0.760564	0.261303	-0.376556
H704	H	0.722678	0.288682	-0.403348
H705	H	0.684104	0.246968	-0.444960
H706	H	0.258847	0.332646	-0.448322
H707	H	0.491820	0.349532	-0.462416
C708	C	-0.680920	-0.426477	0.389861
C709	C	-0.678841	-0.407918	0.425255
C710	C	-0.725110	-0.431063	0.472180
C711	C	-0.773458	-0.472766	0.483710
C712	C	-0.775538	-0.491327	0.448315
C713	C	-0.729270	-0.468182	0.401390
H714	H	-0.643050	-0.377045	0.416721
H715	H	-0.723570	-0.417324	0.498382
H716	H	-0.807708	-0.489900	0.518447
H717	H	-0.811330	-0.522200	0.456849
H718	H	-0.730810	-0.481922	0.375188
C719	C	-0.547356	-0.292892	0.256270
C720	C	-0.577499	-0.281348	0.249589
C721	C	-0.553705	-0.234423	0.226440
C722	C	-0.499768	-0.199040	0.209972
C723	C	-0.469623	-0.210583	0.216653
C724	C	-0.493417	-0.257508	0.239802
H725	H	-0.617429	-0.307541	0.261779
H726	H	-0.576021	-0.225879	0.221494
H727	H	-0.482154	-0.164303	0.192836
H728	H	-0.429693	-0.184390	0.204462
H729	H	-0.471100	-0.266052	0.244747
C730	C	-0.753896	-0.560676	0.451701
C731	C	-0.755310	-0.580700	0.487935
C732	C	-0.803175	-0.604516	0.534021
C733	C	-0.849627	-0.608307	0.543873
C734	C	-0.848215	-0.588282	0.507637
C735	C	-0.800350	-0.564466	0.461551
H736	H	-0.720922	-0.577894	0.480644
H737	H	-0.804220	-0.619340	0.560845
H738	H	-0.885059	-0.625936	0.577988
H739	H	-0.882603	-0.591087	0.514929
H740	H	-0.799305	-0.549642	0.434727
C741	C	-0.620312	-0.560977	0.318069
C742	C	-0.614282	-0.564877	0.275424
C743	C	-0.592172	-0.588846	0.251510
C744	C	-0.576093	-0.608915	0.270242
C745	C	-0.582123	-0.605016	0.312890
C746	C	-0.604233	-0.581047	0.336803
H747	H	-0.626185	-0.550020	0.261555
H748	H	-0.587709	-0.591732	0.219940
H749	H	-0.559726	-0.626658	0.252540
H750	H	-0.570220	-0.619873	0.326758
H751	H	-0.608697	-0.578160	0.368374
H752	H	0.072507	-0.395358	0.403176
H753	H	-0.002836	-0.029806	0.032372
C754	C	-0.008972	-0.023802	-0.341026
C755	C	0.014177	0.022808	-0.364479
C756	C	-0.009580	0.045959	-0.341325
C757	C	-0.056485	0.022499	-0.294717
C758	C	-0.079637	-0.024114	-0.271261
C759	C	-0.055880	-0.047265	-0.294416
H760	H	0.048902	0.040176	-0.398983
H761	H	0.007559	0.080465	-0.358688
H762	H	-0.074071	0.039637	-0.277577
H763	H	-0.114361	-0.041482	-0.236757
H764	H	-0.073019	-0.081771	-0.277052
H765	H	0.042778	-0.420487	0.262311
C766	C	0.108952	-0.365286	0.122096
C767	C	0.092755	-0.346672	0.102063
C768	C	0.070485	-0.370738	0.078253
C769	C	0.064413	-0.413419	0.074476
C770	C	0.080610	-0.432035	0.094509
C771	C	0.102879	-0.407968	0.118319
H772	H	0.097250	-0.315075	0.104859
H773	H	0.058495	-0.356957	0.063423
H774	H	0.047927	-0.431234	0.056850
H775	H	0.076115	-0.463632	0.091714
H776	H	0.114870	-0.421749	0.133149
H777	H	0.230728	-0.130296	-0.563765
C778	C	-0.619718	-0.231053	0.317490
C779	C	-0.650389	-0.222066	0.308871
C780	C	-0.628124	-0.175980	0.284812
C781	C	-0.575189	-0.138882	0.269372
C782	C	-0.544515	-0.147868	0.277991
C783	C	-0.566779	-0.193954	0.302050
H784	H	-0.689577	-0.249529	0.320301
H785	H	-0.650831	-0.169328	0.278432
H786	H	-0.558708	-0.104766	0.251562
H787	H	-0.505326	-0.120405	0.266561
H788	H	-0.544072	-0.200606	0.308430
C789	C	0.060075	-0.407327	0.213318
C790	C	0.013541	-0.417262	0.217222
C791	C	-0.034324	-0.463347	0.241188
C792	C	-0.035653	-0.499498	0.261250
C793	C	0.010883	-0.489564	0.257347
C794	C	0.058747	-0.443479	0.233381
H795	H	0.014523	-0.390500	0.202370
H796	H	-0.068773	-0.470700	0.244077
H797	H	-0.071085	-0.533613	0.278991
H798	H	0.009901	-0.516326	0.272198
H799	H	0.093197	-0.436126	0.230492
H800	H	0.188224	0.295751	0.207070
C801	C	0.109575	-0.257953	-0.442103
C802	C	0.093494	-0.294107	-0.460834
C803	C	0.071385	-0.340190	-0.436922
C804	C	0.065357	-0.350118	-0.394277
C805	C	0.081438	-0.313962	-0.375544
C806	C	0.103547	-0.267880	-0.399456
H807	H	0.097957	-0.286759	-0.492404
H808	H	0.059481	-0.366954	-0.450790
H809	H	0.048991	-0.384231	-0.376576
H810	H	0.076976	-0.321310	-0.343974
H811	H	0.115451	-0.241115	-0.385588
C812	C	-0.753613	-0.364680	0.451400
C813	C	-0.753283	-0.380077	0.488573
C814	C	-0.801154	-0.403990	0.534656
C815	C	-0.849357	-0.412505	0.543565
C816	C	-0.849689	-0.397108	0.506391
C817	C	-0.801818	-0.373196	0.460309
H818	H	-0.717599	-0.373773	0.481979
H819	H	-0.800908	-0.415387	0.562174
H820	H	-0.884794	-0.430207	0.577678
H821	H	-0.885373	-0.403412	0.512986
H822	H	-0.802064	-0.361798	0.432790
H823	H	-0.131927	-0.209642	-0.206917
H824	H	0.301065	0.338586	-0.206916
C825	C	-0.210568	-0.257935	-0.121880
C826	C	-0.265437	-0.294089	-0.101818
C827	C	-0.287603	-0.340172	-0.077851
C828	C	-0.254900	-0.350102	-0.073946
C829	C	-0.200028	-0.313948	-0.094009
C830	C	-0.177862	-0.267864	-0.117977
H831	H	-0.289648	-0.286739	-0.104708
H832	H	-0.328223	-0.366936	-0.062999
H833	H	-0.271309	-0.384216	-0.056204
H834	H	-0.175816	-0.321297	-0.091120
H835	H	-0.137242	-0.241100	-0.132829
H836	H	-0.007797	0.295788	0.403144
C837	C	0.243134	0.195060	0.015027
C838	C	0.289584	0.198846	-0.021584
C839	C	0.337449	0.222663	-0.023378
C840	C	0.338865	0.242695	0.011440
C841	C	0.292413	0.238910	0.048054
C842	C	0.244548	0.215093	0.049848
H843	H	0.288538	0.184016	-0.047361
H844	H	0.371836	0.225465	-0.050483
H845	H	0.374297	0.260326	0.010112
H846	H	0.293459	0.253740	0.073831
H847	H	0.210162	0.212292	0.076953
H848	H	0.376467	0.349544	-0.347036
C849	C	0.497983	0.349702	-0.341015
C850	C	0.544884	0.350006	-0.364468
C851	C	0.568647	0.350637	-0.341318
C852	C	0.545509	0.350964	-0.294716
C853	C	0.498604	0.350660	-0.271260
C854	C	0.474842	0.350029	-0.294410
H855	H	0.562015	0.349764	-0.398968
H856	H	0.603369	0.350862	-0.358681
H857	H	0.563099	0.351431	-0.277579
H858	H	0.481474	0.350902	-0.236760
H859	H	0.440120	0.349804	-0.277047
H860	H	0.301065	-0.475952	-0.021486
H861	H	0.620683	0.338571	-0.411162
H862	H	0.112510	-0.029808	0.032376
H863	H	0.230690	-0.130274	0.015509
H864	H	-0.502939	-0.279600	0.207068
C865	C	0.109560	0.195355	0.015007
C866	C	0.140344	0.235055	-0.024299
C867	C	0.118239	0.259026	-0.026099
C868	C	0.065349	0.243297	0.011405
C869	C	0.034562	0.203595	0.050714
C870	C	0.056667	0.179624	0.052514
H871	H	0.179498	0.246700	-0.052065
H872	H	0.141030	0.288416	-0.055198
H873	H	0.048986	0.261042	0.010072
H874	H	-0.004592	0.191950	0.078480
H875	H	0.033876	0.150234	0.081613
H876	H	0.620951	0.110328	-0.527169
H877	H	0.188215	-0.093952	0.021424
H878	H	0.072820	0.110317	0.021394
H879	H	0.301057	-0.395070	-0.021474
C880	C	-0.210299	-0.124018	0.015019
C881	C	-0.177480	-0.081346	-0.021595
C882	C	-0.199496	-0.057284	-0.023392
C883	C	-0.254330	-0.075895	0.011425
C884	C	-0.287151	-0.118569	0.048042
C885	C	-0.265136	-0.142631	0.049839
H886	H	-0.136886	-0.067567	-0.047371
H887	H	-0.175199	-0.025693	-0.050498
H888	H	-0.270627	-0.058083	0.010095
H889	H	-0.327746	-0.132348	0.073818
H890	H	-0.289433	-0.174222	0.076946
H891	H	0.693825	0.189135	-0.563739
H892	H	-0.583270	-0.279597	0.287416
H893	H	-0.204829	-0.245959	0.015482
H894	H	0.492073	-0.029540	-0.347014
H895	H	0.416736	-0.279615	-0.021500
H896	H	-0.698985	-0.475680	0.403155
H897	H	0.497064	-0.279614	-0.021501
H898	H	0.416426	-0.094243	-0.526850
H899	H	-0.007818	-0.475705	0.287437
H900	H	0.158154	0.291168	0.262285
