data_functionalizedCrystal
_audit_creation_method	'MofGen! by Chris Wilmer'
_symmetry_space_group_name_H-M	'P1'
_symmetry_Int_Tables_number	1
_symmetry_cell_setting	triclinic
loop_
_symmetry_equiv_pos_as_xyz
  x,y,z
_cell_length_a	21.395362
_cell_length_b	29.839131
_cell_length_c	29.839125
_cell_angle_alpha	89.982291
_cell_angle_beta	89.968353
_cell_angle_gamma	90.057297
loop_
_atom_site_label
_atom_site_type_symbol
_atom_site_fract_x
_atom_site_fract_y
_atom_site_fract_z
Zn1	Zn	0.957737	-0.178726	-0.254241
Zn2	Zn	0.957642	-0.253838	-0.179111
Zn3	Zn	0.852974	-0.178744	-0.179098
Zn4	Zn	0.852901	-0.253851	-0.254187
O5	O	0.905314	-0.216290	-0.216659
O6	O	1.045402	-0.188677	-0.244303
O7	O	0.943749	-0.243879	-0.116242
O8	O	0.866941	-0.115874	-0.189083
O9	O	1.045333	-0.243862	-0.189105
O10	O	0.943910	-0.115861	-0.244290
O11	O	0.866850	-0.188707	-0.116232
O12	O	0.765287	-0.188719	-0.189030
O13	O	0.866817	-0.243883	-0.317061
O14	O	0.765233	-0.243900	-0.244198
O15	O	0.943839	-0.188689	-0.317101
O16	O	0.943678	-0.316707	-0.189053
O17	O	0.866725	-0.316716	-0.244210
C18	C	0.742526	-0.216313	-0.216607
C19	C	0.672885	-0.216334	-0.216595
C20	C	0.640160	-0.245105	-0.245278
C21	C	0.574725	-0.245094	-0.245298
C22	C	0.542016	-0.216317	-0.216627
C23	C	0.574749	-0.187541	-0.187943
C24	C	0.640183	-0.187549	-0.187927
C25	C	0.438305	-0.212696	-0.176184
C26	C	0.372872	-0.212691	-0.176199
C27	C	0.340196	-0.216288	-0.216677
C28	C	0.372961	-0.219900	-0.257141
C29	C	0.438395	-0.219908	-0.257125
C30	C	0.471064	-0.216304	-0.216642
C31	C	0.236519	-0.245048	-0.245384
C32	C	0.171082	-0.245034	-0.245404
C33	C	0.171107	-0.187483	-0.188045
C34	C	0.236543	-0.187495	-0.188028
C35	C	0.269244	-0.216280	-0.216697
C36	C	0.905201	-0.333012	-0.216637
C37	C	0.905209	-0.382947	-0.216642
C38	C	0.945456	-0.692572	-0.187980
C39	C	0.945533	-0.880245	-0.187998
O40	O	0.979662	-0.904495	-0.163611
N41	N	0.905444	-0.903732	-0.216693
C42	C	0.865335	-0.880296	-0.245388
O43	O	0.831243	-0.904579	-0.269799
C44	C	0.865261	-0.692624	-0.245372
C45	C	0.905349	-0.669141	-0.216672
C46	C	0.985541	-0.669089	-0.159283
C47	C	0.985518	-0.622173	-0.159277
C48	C	0.945411	-0.598742	-0.187969
C49	C	0.905327	-0.622225	-0.216666
C50	C	0.825156	-0.669190	-0.274069
C51	C	0.825142	-0.622269	-0.274064
C52	C	0.865230	-0.598785	-0.245363
C53	C	0.865197	-0.551878	-0.245352
N54	N	0.905287	-0.528392	-0.216657
C55	C	0.945394	-0.551824	-0.187965
C56	C	0.865375	-0.978827	-0.245393
C57	C	0.865393	-1.025745	-0.245397
C58	C	0.945592	-1.025691	-0.188007
C59	C	0.945571	-0.978772	-0.188002
C60	C	0.905465	-0.955341	-0.216698
C61	C	0.945344	-0.453298	-0.187955
C62	C	0.945316	-0.406378	-0.187951
C63	C	0.865120	-0.406437	-0.245342
C64	C	0.865145	-0.453352	-0.245345
C65	C	0.905262	-0.476782	-0.216650
O66	O	0.831091	-0.527599	-0.269730
O67	O	0.979491	-0.527533	-0.163565
C68	C	0.945478	-0.739488	-0.187986
C69	C	0.905393	-0.762972	-0.216684
C70	C	0.865286	-0.739540	-0.245375
C71	C	0.905411	-0.809889	-0.216687
C72	C	0.945518	-0.833321	-0.187995
C73	C	0.985607	-0.809835	-0.159300
C74	C	0.985585	-0.762920	-0.159294
C75	C	0.825196	-0.763026	-0.274071
C76	C	0.825221	-0.809941	-0.274074
C77	C	0.865328	-0.833373	-0.245382
C78	C	1.068737	-0.216266	-0.216712
C79	C	1.138378	-0.216256	-0.216734
C80	C	0.905331	-0.216285	-0.333837
C81	C	0.905338	-0.216284	-0.383772
C82	C	0.905444	-0.099111	-0.216691
C83	C	0.905500	-0.049177	-0.216705
C84	C	0.945485	-0.187469	-0.693439
C85	C	0.945517	-0.187431	-0.881112
O86	O	0.979605	-0.162974	-0.905397
N87	N	0.905421	-0.216163	-0.904557
C88	C	0.865312	-0.244906	-0.881081
O89	O	0.831204	-0.269340	-0.905328
C90	C	0.865278	-0.244941	-0.693409
C91	C	0.905381	-0.216210	-0.669966
C92	C	0.985584	-0.158740	-0.669997
C93	C	0.985579	-0.158752	-0.623081
C94	C	0.945474	-0.187492	-0.599608
C95	C	0.905375	-0.216222	-0.623051
C96	C	0.825166	-0.273681	-0.669933
C97	C	0.825160	-0.273686	-0.623012
C98	C	0.865263	-0.244955	-0.599570
C99	C	0.865264	-0.244974	-0.552662
N100	N	0.905360	-0.216241	-0.529217
C101	C	0.945465	-0.187501	-0.552690
C102	C	0.865333	-0.244885	-0.979612
C103	C	0.865342	-0.244877	-1.026529
C104	C	0.945546	-0.187402	-1.026558
C105	C	0.945540	-0.187413	-0.979639
C106	C	0.905429	-0.216153	-0.956167
C107	C	0.945450	-0.187527	-0.454165
C108	C	0.945443	-0.187543	-0.407245
C109	C	0.865236	-0.245016	-0.407221
C110	C	0.865246	-0.245003	-0.454136
C111	C	0.905355	-0.216255	-0.477607
O112	O	0.831189	-0.269414	-0.528348
O113	O	0.979558	-0.163063	-0.528435
C114	C	0.945491	-0.187458	-0.740355
C115	C	0.905392	-0.216187	-0.763797
C116	C	0.865288	-0.244928	-0.740324
C117	C	0.905401	-0.216179	-0.810715
C118	C	0.945506	-0.187438	-0.834188
C119	C	0.985602	-0.158705	-0.810743
C120	C	0.985596	-0.158717	-0.763828
C121	C	0.825192	-0.273660	-0.763769
C122	C	0.825201	-0.273647	-0.810685
C123	C	0.865306	-0.244906	-0.834158
C124	C	0.905333	-0.216261	-0.099937
C125	C	0.905447	-0.216136	-0.050002
H126	H	0.548114	-0.164110	-0.164600
C127	C	0.781042	-0.305305	-0.597192
C128	C	0.731868	-0.285856	-0.564921
C129	C	0.687753	-0.317476	-0.539101
C130	C	0.692813	-0.368545	-0.545552
C131	C	0.741989	-0.387997	-0.577824
C132	C	0.786104	-0.356377	-0.603644
H133	H	0.728120	-0.248049	-0.560145
H134	H	0.651350	-0.303076	-0.515211
H135	H	0.660157	-0.391952	-0.526438
H136	H	0.745737	-0.425803	-0.582600
H137	H	0.822507	-0.370776	-0.627534
C138	C	1.029685	-0.737091	-0.127726
C139	C	1.078847	-0.704783	-0.147230
C140	C	1.122950	-0.678958	-0.115660
C141	C	1.117891	-0.685440	-0.064585
C142	C	1.068727	-0.717749	-0.045078
C143	C	1.024624	-0.743575	-0.076648
H144	H	1.082593	-0.699984	-0.185041
H145	H	1.159344	-0.655041	-0.130101
H146	H	1.150538	-0.666323	-0.041215
H147	H	1.064980	-0.722549	-0.007267
H148	H	0.988230	-0.767492	-0.062207
C149	C	0.989416	-0.380547	-0.156380
C150	C	1.038573	-0.348236	-0.175885
C151	C	1.082672	-0.322406	-0.144316
C152	C	1.077614	-0.328886	-0.093241
C153	C	1.028455	-0.361199	-0.073733
C154	C	0.984356	-0.387029	-0.105302
H155	H	1.042319	-0.343437	-0.213697
H156	H	1.119063	-0.298486	-0.158758
H157	H	1.110259	-0.309765	-0.069872
H158	H	1.024709	-0.365997	-0.035921
H159	H	0.947966	-0.410948	-0.090860
C160	C	0.821290	-1.051574	-0.276963
C161	C	0.821300	-1.103182	-0.276972
C162	C	0.777197	-1.129008	-0.308542
C163	C	0.733085	-1.103228	-0.340101
C164	C	0.733073	-1.051617	-0.340093
C165	C	0.777175	-1.025790	-0.308524
H166	H	0.853956	-1.122269	-0.253609
H167	H	0.777207	-1.167214	-0.308547
H168	H	0.700437	-1.122346	-0.363471
H169	H	0.700416	-1.032530	-0.363457
H170	H	0.777166	-0.987584	-0.308518
C171	C	0.989672	-0.952942	-0.156435
C172	C	0.962551	-0.920725	-0.121135
C173	C	1.006656	-0.894898	-0.089567
C174	C	1.077881	-0.901288	-0.093300
C175	C	1.105005	-0.933506	-0.128601
C176	C	1.060901	-0.959333	-0.160169
H177	H	0.909823	-0.915994	-0.118370
H178	H	0.986576	-0.871048	-0.063435
H179	H	1.110529	-0.882169	-0.069931
H180	H	1.157733	-0.938237	-0.131365
H181	H	1.080980	-0.983183	-0.186301
C182	C	0.781120	-0.835769	-0.305646
C183	C	0.731957	-0.868079	-0.286147
C184	C	0.687861	-0.893905	-0.317721
C185	C	0.692927	-0.887421	-0.368796
C186	C	0.742092	-0.855110	-0.388298
C187	C	0.786188	-0.829284	-0.356723
H188	H	0.728204	-0.872880	-0.248336
H189	H	0.651465	-0.917824	-0.303284
H190	H	0.660285	-0.906539	-0.392169
H191	H	0.745845	-0.850309	-0.426109
H192	H	0.822583	-0.805365	-0.371160
C193	C	1.029684	-0.127141	-0.597297
C194	C	1.078854	-0.146597	-0.565055
C195	C	1.122958	-0.114983	-0.539273
C196	C	1.117891	-0.063912	-0.545735
C197	C	1.068719	-0.044453	-0.577978
C198	C	1.024615	-0.076067	-0.603760
H199	H	1.082606	-0.184405	-0.560270
H200	H	1.159358	-0.129388	-0.515404
H201	H	1.150540	-0.040509	-0.526650
H202	H	1.064967	-0.006645	-0.582763
H203	H	0.988215	-0.061662	-0.627629
C204	C	0.821132	-0.276633	-0.381390
C205	C	0.771967	-0.257179	-0.349116
C206	C	0.727863	-0.288796	-0.323282
C207	C	0.732925	-0.339866	-0.329722
C208	C	0.782092	-0.359322	-0.361998
C209	C	0.826196	-0.327706	-0.387832
H210	H	0.768218	-0.219372	-0.344347
H211	H	0.691466	-0.274392	-0.299389
H212	H	0.700277	-0.363270	-0.310598
H213	H	0.785841	-0.397130	-0.366767
H214	H	0.862593	-0.342109	-0.411725
C215	C	0.989658	-0.155783	-1.052384
C216	C	0.984591	-0.104714	-1.045941
C217	C	1.028696	-0.073094	-1.071770
C218	C	1.077868	-0.092545	-1.104042
C219	C	1.082937	-0.143617	-1.110486
C220	C	1.038832	-0.175236	-1.084657
H221	H	0.948190	-0.090313	-1.022050
H222	H	1.024944	-0.035287	-1.066999
H223	H	1.110517	-0.069138	-1.123162
H224	H	1.119339	-0.158017	-1.134377
H225	H	1.042585	-0.213043	-1.089428
H226	H	0.263188	-0.164069	-0.164670
C227	C	0.336834	-0.208722	-0.131690
C228	C	0.372772	-0.204759	-0.087165
C229	C	0.336736	-0.200791	-0.042655
C230	C	0.264761	-0.200787	-0.042669
C231	C	0.228818	-0.204751	-0.087196
C232	C	0.264855	-0.208718	-0.131706
H233	H	0.426056	-0.204761	-0.087153
H234	H	0.363343	-0.197857	-0.009693
H235	H	0.238084	-0.197851	-0.009720
H236	H	0.175534	-0.204748	-0.087208
H237	H	0.238247	-0.211652	-0.164667
H238	H	0.832597	-0.268402	-0.473224
H239	H	0.832504	-0.472473	-0.268716
C240	C	0.474248	-0.208737	-0.131655
C241	C	0.465283	-0.167211	-0.101714
C242	C	0.501226	-0.163250	-0.057188
C243	C	0.546134	-0.200816	-0.042604
C244	C	0.555101	-0.242346	-0.072546
C245	C	0.519157	-0.246307	-0.117071
H246	H	0.432038	-0.139399	-0.112509
H247	H	0.494588	-0.132507	-0.035023
H248	H	0.572741	-0.197885	-0.009643
H249	H	0.588346	-0.270158	-0.061750
H250	H	0.525795	-0.277050	-0.139236
H251	H	0.666827	-0.164119	-0.164570
C252	C	0.781060	-0.695012	-0.305644
C253	C	0.709835	-0.688620	-0.301920
C254	C	0.665737	-0.714440	-0.333498
C255	C	0.692864	-0.746651	-0.368801
C256	C	0.764094	-0.753044	-0.372527
C257	C	0.808192	-0.727224	-0.340948
H258	H	0.689750	-0.664775	-0.275786
H259	H	0.613008	-0.709708	-0.330740
H260	H	0.660221	-0.765764	-0.392177
H261	H	0.784179	-0.776890	-0.398661
H262	H	0.860920	-0.731957	-0.343706
C263	C	0.781021	-0.596495	-0.305629
C264	C	0.709801	-0.603017	-0.301900
C265	C	0.665679	-0.577244	-0.333463
C266	C	0.692777	-0.544949	-0.368756
C267	C	0.764001	-0.538426	-0.372487
C268	C	0.808123	-0.564199	-0.340923
H269	H	0.689737	-0.626925	-0.275772
H270	H	0.612954	-0.582073	-0.330701
H271	H	0.660115	-0.525871	-0.392121
H272	H	0.784064	-0.514518	-0.398614
H273	H	0.860848	-0.559370	-0.343685
H274	H	0.792534	-0.297066	-0.744662
H275	H	0.548075	-0.268522	-0.268657
C276	C	0.989468	-0.479066	-0.156388
C277	C	0.984394	-0.472636	-0.105313
C278	C	1.028514	-0.498404	-0.073744
C279	C	1.077708	-0.530602	-0.093250
C280	C	1.082784	-0.537034	-0.144329
C281	C	1.038664	-0.511266	-0.175898
H282	H	0.947976	-0.448799	-0.090870
H283	H	1.024756	-0.493642	-0.035932
H284	H	1.110368	-0.549678	-0.069881
H285	H	1.119202	-0.560871	-0.158771
H286	H	1.042422	-0.516028	-0.213710
H287	H	0.832715	-0.959753	-0.268762
C288	C	0.781030	-0.305277	-0.695705
C289	C	0.786053	-0.356350	-0.689245
C290	C	0.741904	-0.387943	-0.715012
C291	C	0.692733	-0.368464	-0.747240
C292	C	0.687708	-0.317388	-0.753701
C293	C	0.731857	-0.285794	-0.727934
H294	H	0.822454	-0.370772	-0.665386
H295	H	0.745624	-0.425753	-0.710228
H296	H	0.660052	-0.391851	-0.766314
H297	H	0.651307	-0.302966	-0.777559
H298	H	0.728137	-0.247985	-0.732717
H299	H	1.018163	-0.603056	-0.135908
H300	H	1.018262	-0.828922	-0.135937
C301	C	1.029707	-0.127109	-0.738046
C302	C	1.024648	-0.076037	-0.744506
C303	C	1.068760	-0.044427	-0.718728
C304	C	1.117932	-0.063887	-0.686489
C305	C	1.122992	-0.114961	-0.680027
C306	C	1.078880	-0.146572	-0.705805
H307	H	0.988246	-0.061629	-0.768373
H308	H	1.065014	-0.006618	-0.723512
H309	H	1.150586	-0.040487	-0.667406
H310	H	1.159394	-0.129369	-0.656160
H311	H	1.082627	-0.184380	-0.701021
C312	C	0.989556	-0.155935	-0.381459
C313	C	0.984499	-0.104863	-0.387914
C314	C	1.028610	-0.073256	-0.362130
C315	C	1.077779	-0.092721	-0.329892
C316	C	1.082839	-0.143795	-0.323436
C317	C	1.038727	-0.175403	-0.349220
H318	H	0.948099	-0.090452	-0.411780
H319	H	1.024864	-0.035447	-0.366910
H320	H	1.110433	-0.069323	-0.310805
H321	H	1.119238	-0.158207	-0.299570
H322	H	1.042473	-0.213212	-0.344440
C323	C	0.989649	-0.155805	-0.953854
C324	C	0.984593	-0.104734	-0.960315
C325	C	1.028703	-0.073124	-0.934533
C326	C	1.077869	-0.092586	-0.902291
C327	C	1.082927	-0.143660	-0.895828
C328	C	1.038817	-0.175269	-0.921610
H329	H	0.948196	-0.090325	-0.984184
H330	H	1.024958	-0.035316	-0.939317
H331	H	1.110521	-0.069186	-0.883205
H332	H	1.119324	-0.158069	-0.871959
H333	H	1.042561	-0.213078	-0.916826
C334	C	0.781079	-0.305251	-0.836466
C335	C	0.786118	-0.356324	-0.830011
C336	C	0.741989	-0.387924	-0.855789
C337	C	0.692821	-0.368450	-0.888022
C338	C	0.687779	-0.317374	-0.894478
C339	C	0.731908	-0.285775	-0.868700
H340	H	0.822518	-0.370743	-0.806148
H341	H	0.745722	-0.425733	-0.851009
H342	H	0.660154	-0.391841	-0.907104
H343	H	0.651380	-0.302956	-0.918341
H344	H	0.728175	-0.247965	-0.873480
H345	H	0.666782	-0.268543	-0.268623
H346	H	0.978108	-0.164117	-0.473269
C347	C	0.821230	-0.276484	-1.052311
C348	C	0.826277	-0.327556	-1.045852
C349	C	0.782157	-0.359161	-1.071631
C350	C	0.732991	-0.339694	-1.103870
C351	C	0.727942	-0.288620	-1.110331
C352	C	0.772061	-0.257014	-1.084552
H353	H	0.862675	-0.341969	-1.021985
H354	H	0.785895	-0.396970	-1.066847
H355	H	0.700331	-0.363090	-1.122953
H356	H	0.691544	-0.274207	-1.134197
H357	H	0.768323	-0.219206	-1.089335
C358	C	0.474437	-0.223875	-0.301633
C359	C	0.438504	-0.227831	-0.346160
C360	C	0.474546	-0.231796	-0.390669
C361	C	0.546521	-0.231804	-0.390649
C362	C	0.582458	-0.227847	-0.346120
C363	C	0.546416	-0.223883	-0.301611
H364	H	0.385220	-0.227825	-0.346176
H365	H	0.447943	-0.234724	-0.423632
H366	H	0.573202	-0.234738	-0.423597
H367	H	0.635742	-0.227853	-0.346104
H368	H	0.573019	-0.220955	-0.268648
H369	H	0.832463	-0.387351	-0.268701
H370	H	0.346357	-0.222828	-0.290102
H371	H	0.792537	-0.743951	-0.297436
H372	H	1.018204	-0.688162	-0.135918
H373	H	0.263146	-0.268484	-0.268730
H374	H	0.144439	-0.268461	-0.268764
H375	H	1.018258	-0.135305	-0.829863
H376	H	1.018243	-0.135333	-0.689104
H377	H	0.144477	-0.164050	-0.164703
H378	H	0.832670	-0.268292	-0.960505
H379	H	0.978249	-1.044777	-0.164645
