data_functionalizedCrystal
_audit_creation_method	'MofGen! by Chris Wilmer'
_symmetry_space_group_name_H-M	'P1'
_symmetry_Int_Tables_number	1
_symmetry_cell_setting	triclinic
loop_
_symmetry_equiv_pos_as_xyz
  x,y,z
_cell_length_a	16.625547
_cell_length_b	16.625545
_cell_length_c	18.215399
_cell_angle_alpha	89.973113
_cell_angle_beta	89.976077
_cell_angle_gamma	90.025495
loop_
_atom_site_label
_atom_site_type_symbol
_atom_site_fract_x
_atom_site_fract_y
_atom_site_fract_z
Zn1	Zn	1.232656	-0.321011	-0.416202
Zn2	Zn	1.565989	0.012322	-0.082868
Zn3	Zn	1.899323	0.345655	0.250465
Zn4	Zn	1.232554	-0.455851	-0.293138
Zn5	Zn	1.565887	-0.122518	0.040196
Zn6	Zn	1.899221	0.210815	0.373529
Zn7	Zn	1.097820	-0.321036	-0.293140
Zn8	Zn	1.431153	0.012297	0.040193
Zn9	Zn	1.764487	0.345630	0.373526
Zn10	Zn	1.097781	-0.455805	-0.416154
Zn11	Zn	1.431114	-0.122472	-0.082820
Zn12	Zn	1.764448	0.210861	0.250513
O13	O	1.165203	-0.388426	-0.354658
O14	O	1.498536	-0.055093	-0.021325
O15	O	1.831869	0.278241	0.312008
O16	O	1.345475	-0.338907	-0.399896
O17	O	1.678808	-0.005573	-0.066563
O18	O	2.012142	0.327760	0.266771
O19	O	1.214655	-0.437998	-0.190154
O20	O	1.547988	-0.104664	0.143180
O21	O	1.881322	0.228669	0.476513
O22	O	1.115765	-0.208201	-0.309486
O23	O	1.449099	0.125133	0.023848
O24	O	1.782432	0.458466	0.357181
O25	O	1.345400	-0.437973	-0.309481
O26	O	1.678733	-0.104640	0.023852
O27	O	2.012067	0.228693	0.357185
O28	O	1.214829	-0.208182	-0.399898
O29	O	1.548162	0.125151	-0.066565
O30	O	1.881495	0.458485	0.266768
O31	O	1.115666	-0.338950	-0.190156
O32	O	1.449000	-0.005616	0.143178
O33	O	1.782333	0.327717	0.476511
O34	O	0.984982	-0.338905	-0.309439
O35	O	1.318316	-0.005572	0.023894
O36	O	1.651649	0.327762	0.357227
O37	O	1.115699	-0.437895	-0.519144
O38	O	1.449032	-0.104561	-0.185811
O39	O	1.782365	0.228772	0.147522
O40	O	0.984954	-0.437919	-0.399817
O41	O	1.318287	-0.104586	-0.066483
O42	O	1.651620	0.228747	0.266850
O43	O	1.214791	-0.338862	-0.519180
O44	O	1.548124	-0.005529	-0.185846
O45	O	1.881458	0.327805	0.147487
O46	O	1.214617	-0.568678	-0.309435
O47	O	1.547951	-0.235344	0.023899
O48	O	1.881284	0.097989	0.357232
O49	O	1.115600	-0.568644	-0.399814
O50	O	1.448933	-0.235311	-0.066481
O51	O	1.782267	0.098023	0.266852
C52	C	0.955712	-0.388410	-0.354624
C53	C	1.289045	-0.055077	-0.021290
C54	C	1.622379	0.278256	0.312043
C55	C	0.866091	-0.388423	-0.354626
C56	C	1.199424	-0.055090	-0.021293
C57	C	1.532757	0.278243	0.312041
C58	C	0.793308	-0.388425	-0.354635
C59	C	1.126642	-0.055091	-0.021302
C60	C	1.459975	0.278242	0.312031
C61	C	0.702000	-0.388429	-0.354654
C62	C	1.035333	-0.055096	-0.021320
C63	C	1.368667	0.278238	0.312013
C64	C	0.629223	-0.388436	-0.354672
C65	C	0.962557	-0.055103	-0.021339
C66	C	1.295890	0.278230	0.311994
C67	C	0.537909	-0.388442	-0.354690
C68	C	0.871243	-0.055109	-0.021357
C69	C	1.204576	0.278225	0.311977
C70	C	1.165115	-0.597917	-0.354635
C71	C	1.498449	-0.264584	-0.021302
C72	C	1.831782	0.068750	0.312032
C73	C	1.165151	-0.687538	-0.354650
C74	C	1.498485	-0.354205	-0.021316
C75	C	1.831818	-0.020871	0.312017
C76	C	1.165183	-0.760321	-0.354664
C77	C	1.498516	-0.426987	-0.021331
C78	C	1.831849	-0.093654	0.312002
C79	C	1.165230	-0.851629	-0.354681
C80	C	1.498563	-0.518296	-0.021347
C81	C	1.831896	-0.184962	0.311986
C82	C	1.165272	-0.924405	-0.354690
C83	C	1.498605	-0.591072	-0.021357
C84	C	1.831938	-0.257739	0.311977
C85	C	1.165318	-1.015720	-0.354705
C86	C	1.498651	-0.682386	-0.021372
C87	C	1.831984	-0.349053	0.311962
C88	C	1.375512	-0.388442	-0.354694
C89	C	1.708845	-0.055109	-0.021360
C90	C	2.042178	0.278224	0.311973
C91	C	1.465133	-0.388449	-0.354709
C92	C	1.798466	-0.055116	-0.021375
C93	C	2.131799	0.278217	0.311958
C94	C	1.165252	-0.388371	-0.546611
C95	C	1.498585	-0.055037	-0.213278
C96	C	1.831919	0.278296	0.120055
C97	C	1.165273	-0.388347	-0.628410
C98	C	1.498606	-0.055014	-0.295077
C99	C	1.831939	0.278320	0.038256
C100	C	1.165313	-0.178117	-0.354698
C101	C	1.498646	0.155216	-0.021364
C102	C	1.831979	0.488549	0.311969
C103	C	1.165360	-0.088496	-0.354714
C104	C	1.498693	0.244837	-0.021381
C105	C	1.832026	0.578171	0.311952
C106	C	1.216889	-0.336732	-0.816624
C107	C	1.550222	-0.003399	-0.483290
C108	C	1.883555	0.329934	-0.149957
C109	C	1.216898	-0.336709	-0.893483
C110	C	1.550232	-0.003375	-0.560149
C111	C	1.883565	0.329958	-0.226816
C112	C	1.113714	-0.439837	-0.893435
C113	C	1.447047	-0.106503	-0.560101
C114	C	1.780381	0.226830	-0.226768
C115	C	1.113701	-0.439856	-0.816577
C116	C	1.447034	-0.106522	-0.483244
C117	C	1.780368	0.226811	-0.149911
C118	C	1.165293	-0.388305	-0.778174
C119	C	1.498626	-0.054971	-0.444840
C120	C	1.831960	0.278362	-0.111507
C121	C	1.165316	-0.388262	-0.931890
C122	C	1.498649	-0.054929	-0.598557
C123	C	1.831982	0.278404	-0.265223
C124	C	1.165326	-0.388237	-1.015224
C125	C	1.498659	-0.054904	-0.681890
C126	C	1.831992	0.278430	-0.348557
C127	C	1.165282	-0.388328	-0.694835
C128	C	1.498615	-0.054995	-0.361501
C129	C	1.831949	0.278338	-0.028168
C130	C	1.165200	-0.388423	-0.163452
C131	C	1.498534	-0.055090	0.169881
C132	C	1.831867	0.278243	0.503215
C133	C	1.165336	-0.388220	-0.081654
C134	C	1.498669	-0.054887	0.251680
C135	C	1.832002	0.278447	0.585013
H136	H	1.258896	-0.294754	-0.785358
H137	H	1.592229	0.038579	-0.452025
H138	H	1.925563	0.371913	-0.118691
C139	C	1.273660	-0.279977	-0.935774
C140	C	1.606993	0.053356	-0.602441
C141	C	1.940326	0.386690	-0.269107
N142	N	1.316415	-0.237244	-0.967627
N143	N	1.649748	0.096089	-0.634294
N144	N	1.983082	0.429423	-0.300961
C145	C	1.056936	-0.496589	-0.774280
C146	C	1.390269	-0.163256	-0.440946
C147	C	1.723603	0.170077	-0.107613
N148	N	1.014180	-0.539318	-0.742421
N149	N	1.347514	-0.205984	-0.409088
N150	N	1.680847	0.127349	-0.075755
H151	H	1.071712	-0.481809	-0.924712
H152	H	1.405045	-0.148476	-0.591379
H153	H	1.738378	0.184857	-0.258045
