data_functionalizedCrystal
_audit_creation_method	'MofGen! by Chris Wilmer'
_symmetry_space_group_name_H-M	'P1'
_symmetry_Int_Tables_number	1
_symmetry_cell_setting	triclinic
loop_
_symmetry_equiv_pos_as_xyz
  x,y,z
_cell_length_a	23.532407
_cell_length_b	23.532407
_cell_length_c	22.610064
_cell_angle_alpha	90.000603
_cell_angle_beta	89.997161
_cell_angle_gamma	97.151322
loop_
_atom_site_label
_atom_site_type_symbol
_atom_site_fract_x
_atom_site_fract_y
_atom_site_fract_z
O1	O	0.755263	-0.069127	-0.049117
O2	O	0.589400	-0.079130	-0.049135
O3	O	0.677333	0.008803	-0.049114
O4	O	0.667330	-0.157060	-0.049137
O5	O	0.677318	0.008790	0.049255
O6	O	0.589385	-0.079143	0.049234
O7	O	0.755248	-0.069140	0.049252
Zn8	Zn	0.672314	-0.074144	0.064862
Zn9	Zn	0.672334	-0.074127	-0.064744
O10	O	0.667315	-0.157073	0.049232
C11	C	0.568176	-0.078882	0.000048
C12	C	0.504959	-0.078116	0.000041
C13	C	0.105856	-0.125350	0.000061
C14	C	0.046456	-0.124638	0.000065
O15	O	0.009711	-0.168424	0.000081
N16	N	0.023830	-0.072362	0.000071
C17	C	0.060607	-0.020794	0.000080
O18	O	0.035908	0.023737	0.000086
C19	C	0.120006	-0.021506	0.000080
C20	C	0.142629	-0.073785	0.000068
C21	C	0.128479	-0.177625	0.000050
C22	C	0.187876	-0.178336	0.000045
C23	C	0.224649	-0.126772	0.000052
C24	C	0.202025	-0.074497	0.000063
C25	C	0.156783	0.030062	0.000093
C26	C	0.216185	0.029345	0.000094
C27	C	0.238808	-0.022934	0.000082
C28	C	0.298194	-0.023643	0.000065
N29	N	0.320820	-0.075920	0.000059
C30	C	0.284048	-0.127484	0.000052
C31	C	-0.064135	-0.019302	0.000080
C32	C	-0.123533	-0.018589	0.000075
C33	C	-0.137680	-0.122434	0.000061
C34	C	-0.078281	-0.123146	0.000062
C35	C	-0.041509	-0.071578	0.000074
C36	C	0.408784	-0.128974	0.000042
C37	C	0.468186	-0.129680	0.000034
C38	C	0.482329	-0.025836	0.000051
C39	C	0.422932	-0.025129	0.000055
C40	C	0.386160	-0.076702	0.000052
O41	O	0.334974	0.020119	0.000052
O42	O	0.308755	-0.172007	0.000054
C43	C	0.677071	0.030013	0.000072
C44	C	0.676305	0.093230	0.000076
C45	C	0.776472	-0.069388	0.000069
C46	C	0.839689	-0.070154	0.000071
C47	C	0.667577	-0.178283	0.000045
C48	C	0.668343	-0.241500	0.000036
N49	N	0.672304	-0.074155	0.153314
C50	C	0.723539	0.492333	0.000049
C51	C	0.722827	0.551733	0.000044
O52	O	0.766613	0.588478	0.000027
N53	N	0.670551	0.574359	0.000039
C54	C	0.618983	0.537582	0.000032
O55	O	0.574452	0.562281	0.000027
C56	C	0.619695	0.478182	0.000033
C57	C	0.671974	0.455560	0.000044
C58	C	0.775814	0.469710	0.000060
C59	C	0.776525	0.410313	0.000065
C60	C	0.724961	0.373540	0.000060
C61	C	0.672685	0.396164	0.000050
C62	C	0.568127	0.441406	0.000022
C63	C	0.568844	0.382004	0.000021
C64	C	0.621123	0.359381	0.000033
C65	C	0.621832	0.299995	0.000050
N66	N	0.674109	0.277368	0.000056
C67	C	0.725673	0.314141	0.000061
C68	C	0.617491	0.662324	0.000031
C69	C	0.616778	0.721722	0.000034
C70	C	0.720623	0.735869	0.000045
C71	C	0.721335	0.676470	0.000046
C72	C	0.669767	0.639698	0.000036
C73	C	0.727163	0.189405	0.000073
C74	C	0.727869	0.130003	0.000081
C75	C	0.624025	0.115860	0.000067
C76	C	0.623318	0.175257	0.000062
C77	C	0.674891	0.212029	0.000063
O78	O	0.578070	0.263215	0.000065
O79	O	0.770196	0.289433	0.000058
N80	N	0.672349	-0.074111	-0.153196
C81	C	0.711273	-0.035196	0.561965
C82	C	0.711276	-0.035192	0.623884
O83	O	0.744384	-0.002076	0.655911
N84	N	0.672334	-0.074115	0.654851
C85	C	0.633383	-0.113041	0.623895
O86	O	0.600259	-0.146147	0.655920
C87	C	0.633377	-0.113042	0.561976
C88	C	0.672326	-0.074120	0.531013
C89	C	0.750218	0.003724	0.531001
C90	C	0.750215	0.003719	0.469085
C91	C	0.711268	-0.035206	0.438133
C92	C	0.672323	-0.074125	0.469097
C93	C	0.594424	-0.151965	0.531021
C94	C	0.594422	-0.151962	0.469098
C95	C	0.633370	-0.113040	0.438134
C96	C	0.633374	-0.113054	0.376229
N97	N	0.672316	-0.074131	0.345262
C98	C	0.711263	-0.035207	0.376214
C99	C	0.633396	-0.113035	0.753928
C100	C	0.633403	-0.113037	0.815846
C101	C	0.711296	-0.035187	0.815831
C102	C	0.711291	-0.035188	0.753913
C103	C	0.672338	-0.074112	0.722962
C104	C	0.711255	-0.035220	0.246187
C105	C	0.711251	-0.035230	0.184266
C106	C	0.633357	-0.113078	0.184286
C107	C	0.633363	-0.113071	0.246202
C108	C	0.672314	-0.074137	0.277151
O109	O	0.600281	-0.146152	0.344163
O110	O	0.744376	-0.002101	0.344182
H111	H	0.770443	0.111587	0.000092
O112	O	0.827325	0.388371	-0.000035
C113	C	0.916322	0.382339	-0.050974
C114	C	0.858802	0.407209	-0.050939
H115	H	0.941792	0.397570	-0.092120
H116	H	0.908019	0.333566	-0.051012
H117	H	0.941755	0.397503	-0.009787
H118	H	0.833339	0.392089	-0.092119
H119	H	0.867145	0.455980	-0.050871
H120	H	0.763906	0.658056	0.000054
O121	O	0.825856	0.505507	0.000039
C122	C	0.870803	0.603278	0.000085
C123	C	0.814085	0.562809	0.000090
H124	H	0.861306	0.649615	0.000139
H125	H	0.896561	0.595128	-0.041087
H126	H	0.896536	0.595046	0.041248
H127	H	0.788306	0.571017	-0.041045
H128	H	0.788370	0.570968	0.041290
O129	O	0.777223	0.225176	0.000155
C130	C	0.836703	0.300420	0.051143
C131	C	0.779984	0.259952	0.051112
H132	H	0.838960	0.328538	0.092343
H133	H	0.838989	0.328621	0.010003
H134	H	0.874174	0.274026	0.051124
H135	H	0.742482	0.286300	0.051152
H136	H	0.777749	0.231749	0.092249
O137	O	0.518033	0.024266	-0.000047
C138	C	0.548296	0.112826	-0.050971
C139	C	0.507835	0.056102	-0.050946
H140	H	0.540057	0.138587	-0.092112
H141	H	0.594645	0.103364	-0.051012
H142	H	0.540112	0.138539	-0.009779
H143	H	0.515968	0.030361	-0.092131
H144	H	0.461499	0.065604	-0.050874
O145	O	0.595474	-0.150900	0.276192
C146	C	0.518229	-0.228130	0.269664
C147	C	0.561105	-0.185317	0.235633
H148	H	0.490438	-0.255975	0.236887
H149	H	0.489881	-0.203706	0.298630
H150	H	0.542657	-0.256430	0.298675
H151	H	0.536723	-0.157006	0.206589
H152	H	0.589451	-0.209777	0.206704
H153	H	0.762610	0.765821	0.000047
O154	O	0.565944	0.743599	0.000004
C155	C	0.463020	0.723281	0.000028
C156	C	0.520552	0.698433	0.000053
H157	H	0.426306	0.686777	0.000081
H158	H	0.460055	0.750712	-0.041152
H159	H	0.460113	0.750759	0.041183
H160	H	0.523498	0.670930	-0.041074
H161	H	0.523493	0.671035	0.041260
H162	H	0.743005	-0.003494	0.728706
O163	O	0.567409	0.626582	-0.000075
C164	C	0.507956	0.551289	-0.051021
C165	C	0.564687	0.591738	-0.050980
H166	H	0.505742	0.523099	-0.092166
H167	H	0.470453	0.577640	-0.051062
H168	H	0.505692	0.523153	-0.009834
H169	H	0.567007	0.619882	-0.092160
H170	H	0.602164	0.565352	-0.050908
H171	H	0.525555	0.459814	0.000009
H172	H	0.526850	0.352066	0.000013
O173	O	0.787882	0.041618	0.438920
C174	C	0.822051	0.076486	0.343536
C175	C	0.779464	0.033428	0.377618
H176	H	0.815251	0.069888	0.293967
H177	H	0.867722	0.069512	0.355544
H178	H	0.814680	0.121969	0.355871
H179	H	0.786783	-0.012071	0.365300
H180	H	0.733808	0.040453	0.365606
H181	H	0.378851	-0.170970	0.000041
O182	O	0.572571	0.197306	-0.000023
C183	C	0.511496	0.256121	-0.051023
C184	C	0.568992	0.231205	-0.050987
H185	H	0.508578	0.283525	-0.092230
H186	H	0.508551	0.283621	-0.009889
H187	H	0.474773	0.219625	-0.050994
H188	H	0.605748	0.267665	-0.051037
H189	H	0.571887	0.203691	-0.092117
O190	O	0.573922	0.080158	0.000163
C191	C	0.485355	0.049902	0.051081
C192	C	0.542081	0.090359	0.051060
H193	H	0.459590	0.058143	0.092221
H194	H	0.494813	0.003552	0.051121
H195	H	0.459647	0.058087	0.009888
H196	H	0.567817	0.082225	0.092247
H197	H	0.532582	0.136696	0.050990
O198	O	0.209752	-0.229171	0.000067
C199	C	0.189428	-0.332094	0.000026
C200	C	0.164583	-0.274561	0.000012
H201	H	0.152922	-0.368807	-0.000030
H202	H	0.216859	-0.335069	0.041204
H203	H	0.216906	-0.334996	-0.041131
H204	H	0.137080	-0.271621	0.041141
H205	H	0.137186	-0.271611	-0.041193
H206	H	0.601677	-0.144736	0.728731
H207	H	0.486602	-0.172255	0.000024
O208	O	0.749108	0.002637	0.154280
C209	C	0.826389	0.079830	0.160812
C210	C	0.783542	0.036987	0.194841
H211	H	0.854248	0.107606	0.193591
H212	H	0.801994	0.108196	0.131840
H213	H	0.854673	0.055374	0.131807
H214	H	0.755247	0.061397	0.223879
H215	H	0.807972	0.008622	0.223776
H216	H	0.742973	-0.003516	0.271379
H217	H	0.601694	-0.144737	0.841052
H218	H	0.781933	0.035423	0.556197
H219	H	0.404512	0.017441	0.000056
H220	H	0.098544	-0.219617	0.000046
O221	O	0.556533	-0.189795	0.560997
C222	C	0.479290	-0.267026	0.554450
C223	C	0.522165	-0.224203	0.520430
H224	H	0.451501	-0.294864	0.521666
H225	H	0.450941	-0.242610	0.583424
H226	H	0.503720	-0.295333	0.583453
H227	H	0.497782	-0.195885	0.491394
H228	H	0.550513	-0.248654	0.491493
H229	H	0.562700	-0.183658	0.443901
H230	H	0.743008	-0.003492	0.841044
H231	H	0.138375	0.072634	0.000103
H232	H	-0.059867	-0.165717	0.000055
H233	H	0.601648	-0.144772	0.159075
O234	O	0.251824	0.079493	0.000076
C235	C	0.259582	0.182567	0.000128
C236	C	0.219158	0.125819	0.000138
H237	H	0.233188	0.220037	0.000191
H238	H	0.287734	0.184878	-0.041051
H239	H	0.287757	0.184794	0.041284
H240	H	0.190947	0.123554	-0.040990
H241	H	0.191045	0.123532	0.041344
O242	O	-0.173384	-0.172541	-0.000045
C243	C	-0.203639	-0.261089	-0.050995
C244	C	-0.163181	-0.204363	-0.050954
H245	H	-0.195396	-0.286837	-0.092144
H246	H	-0.249989	-0.251629	-0.051028
H247	H	-0.195455	-0.286813	-0.009811
H248	H	-0.171313	-0.178610	-0.092131
H249	H	-0.116845	-0.213862	-0.050890
H250	H	-0.034198	0.022693	0.000084
O251	O	-0.145410	0.032245	0.000106
C252	C	-0.125092	0.135169	0.000083
C253	C	-0.100244	0.077637	0.000058
H254	H	-0.088588	0.171883	0.000032
H255	H	-0.152526	0.138136	0.041262
H256	H	-0.152567	0.138075	-0.041072
H257	H	-0.072744	0.074692	0.041185
H258	H	-0.072843	0.074695	-0.041149
