data_functionalizedCrystal
_audit_creation_method	'MofGen! by Chris Wilmer'
_symmetry_space_group_name_H-M	'P1'
_symmetry_Int_Tables_number	1
_symmetry_cell_setting	triclinic
loop_
_symmetry_equiv_pos_as_xyz
  x,y,z
_cell_length_a	12.827893
_cell_length_b	21.295417
_cell_length_c	12.827893
_cell_angle_alpha	90.014534
_cell_angle_beta	90.003786
_cell_angle_gamma	90.029863
loop_
_atom_site_label
_atom_site_type_symbol
_atom_site_fract_x
_atom_site_fract_y
_atom_site_fract_z
Zn1	Zn	1.597406	-0.250716	0.590795
Zn2	Zn	1.597304	-0.355957	0.416034
Zn3	Zn	1.422695	-0.250706	0.416069
Zn4	Zn	1.422589	-0.355952	0.590733
O5	O	1.509998	-0.303332	0.503408
O6	O	1.743628	-0.264683	0.567624
O7	O	1.574143	-0.341993	0.269802
O8	O	1.445957	-0.162618	0.439288
O9	O	1.743553	-0.342003	0.439227
O10	O	1.574317	-0.162625	0.567658
O11	O	1.445858	-0.264665	0.269828
O12	O	1.276445	-0.264660	0.439228
O13	O	1.445777	-0.341994	0.736978
O14	O	1.276367	-0.341984	0.567553
O15	O	1.574215	-0.264678	0.737023
O16	O	1.574040	-0.444045	0.439167
O17	O	1.445678	-0.444042	0.567518
C18	C	1.238488	-0.303321	0.503388
C19	C	1.122335	-0.303331	0.503404
C20	C	1.070587	-0.265139	0.567038
C21	C	0.950537	-0.265148	0.567056
C22	C	1.509865	-0.466884	0.503355
C23	C	1.509904	-0.536852	0.503367
C24	C	1.576702	-0.569666	0.570258
C25	C	1.576739	-0.635408	0.570283
C26	C	1.509988	-0.668335	0.503400
C27	C	1.443177	-0.635513	0.436505
C28	C	1.443134	-0.569772	0.436489
N29	N	1.502117	-0.771581	0.411945
N30	N	1.502164	-0.834033	0.411963
C31	C	1.510110	-0.866409	0.503447
N32	N	1.518030	-0.833975	0.594914
N33	N	1.517989	-0.771518	0.594894
C34	C	1.510026	-0.739620	0.503411
C35	C	1.576953	-0.970508	0.570371
C36	C	1.576982	-1.036252	0.570399
C37	C	1.443425	-1.036356	0.436611
C38	C	1.443390	-0.970613	0.436593
C39	C	1.510159	-0.937694	0.503472
C40	C	1.782568	-0.303345	0.503428
C41	C	1.898721	-0.303350	0.503437
C42	C	1.509996	-0.303337	0.775978
C43	C	1.509995	-0.303338	0.892131
C44	C	1.510160	-0.139142	0.503484
C45	C	1.510229	-0.069174	0.503516
C46	C	1.573542	-0.265085	0.943938
C47	C	1.573543	-0.265086	1.063989
C48	C	1.509993	-0.303342	1.231898
C49	C	1.509994	-0.303341	1.115745
H50	H	0.943217	-0.336053	0.448961
H51	H	1.115161	-0.232431	0.621500
H52	H	1.388738	-0.543055	0.382018
O53	O	1.641686	-0.667357	0.635121
C54	C	1.709271	-0.705349	0.575690
H55	H	1.672481	-0.715240	0.496469
H56	H	1.723278	-0.751559	0.618282
H57	H	1.786704	-0.679971	0.564264
H58	H	1.455583	-0.336085	0.936654
O59	O	0.897341	-0.226226	0.632105
C60	C	0.834219	-0.262170	0.699462
H61	H	0.817936	-0.309850	0.662449
H62	H	0.757441	-0.236591	0.713488
H63	H	0.876233	-0.269133	0.776915
O64	O	1.069285	-0.342438	0.438475
C65	C	1.095823	-0.405212	0.461115
H66	H	1.175105	-0.406592	0.501199
H67	H	1.099412	-0.433370	0.385607
H68	H	1.034414	-0.426436	0.514842
O69	O	1.641589	-0.537786	0.635324
C70	C	1.700576	-0.580851	0.694349
H71	H	1.657798	-0.627736	0.697943
H72	H	1.711650	-0.561831	0.776690
H73	H	1.779975	-0.587809	0.656147
H74	H	1.388826	-0.662326	0.382051
H75	H	1.631317	-0.943704	0.624831
O76	O	1.445199	-0.342508	1.062653
C77	C	1.467939	-0.405261	1.089244
H78	H	1.551391	-0.408456	1.119327
H79	H	1.458982	-0.436321	1.017402
H80	H	1.411835	-0.421750	1.152502
O81	O	1.641976	-1.068032	0.635411
C82	C	1.700878	-1.024875	0.694446
H83	H	1.704496	-0.978021	0.651633
H84	H	1.783218	-1.043823	0.705658
H85	H	1.662554	-1.017884	0.773783
H86	H	1.389069	-1.063164	0.382160
O87	O	1.378478	-0.938832	0.371506
C88	C	1.319550	-0.981989	0.312495
H89	H	1.362384	-1.028829	0.308929
H90	H	1.308462	-0.963020	0.230144
H91	H	1.240155	-0.989013	0.350692
O92	O	1.638308	-0.225982	0.890716
C93	C	1.578797	-0.185344	0.827613
H94	H	1.499563	-0.207548	0.811356
H95	H	1.621300	-0.176955	0.750822
H96	H	1.567406	-0.138670	0.869631
H97	H	1.627952	-0.232337	1.108542
