data_functionalizedCrystal
_audit_creation_method	'MofGen! by Chris Wilmer'
_symmetry_space_group_name_H-M	'P1'
_symmetry_Int_Tables_number	1
_symmetry_cell_setting	triclinic
loop_
_symmetry_equiv_pos_as_xyz
  x,y,z
_cell_length_a	14.519709
_cell_length_b	23.532407
_cell_length_c	13.596369
_cell_angle_alpha	89.989360
_cell_angle_beta	90.000291
_cell_angle_gamma	83.264412
loop_
_atom_site_label
_atom_site_type_symbol
_atom_site_fract_x
_atom_site_fract_y
_atom_site_fract_z
O1	O	1.222985	0.074654	-0.081674
O2	O	0.954404	0.083445	-0.081705
O3	O	1.096794	-0.003846	-0.081671
O4	O	1.080596	0.161945	-0.081708
O5	O	1.096780	-0.003850	0.081912
O6	O	0.954390	0.083441	0.081878
O7	O	1.222971	0.074649	0.081909
Zn8	Zn	1.088678	0.079044	0.107866
Zn9	Zn	1.088697	0.079050	-0.107662
O10	O	1.080582	0.161940	0.081874
C11	C	0.920042	0.083033	0.000083
C12	C	0.817676	0.081805	0.000071
C13	C	0.442833	0.077286	0.000117
C14	C	0.547126	0.078541	0.000104
C15	C	0.630251	0.079545	0.000093
C16	C	0.734551	0.080801	0.000082
C17	C	1.096374	-0.025066	0.000123
C18	C	1.095134	-0.088288	0.000131
C19	C	1.171619	-0.487046	0.000086
C20	C	1.170467	-0.546452	0.000078
O21	O	1.241369	-0.582876	0.000050
N22	N	1.085816	-0.569460	0.000069
C23	C	1.002312	-0.533059	0.000057
O24	O	0.930205	-0.558084	0.000048
C25	C	1.003465	-0.473655	0.000058
C26	C	1.088121	-0.450650	0.000077
C27	C	1.256268	-0.464041	0.000104
C28	C	1.257420	-0.404640	0.000113
C29	C	1.173922	-0.368244	0.000105
C30	C	1.089273	-0.391249	0.000087
C31	C	0.919962	-0.437255	0.000039
C32	C	0.921123	-0.377847	0.000039
C33	C	1.005779	-0.354843	0.000058
C34	C	1.006927	-0.295451	0.000087
N35	N	1.091578	-0.272443	0.000097
C36	C	1.175075	-0.308839	0.000105
C37	C	0.999897	-0.657813	0.000055
C38	C	0.998743	-0.717216	0.000061
C39	C	1.166898	-0.730604	0.000080
C40	C	1.168051	-0.671200	0.000080
C41	C	1.084548	-0.634804	0.000064
C42	C	1.177487	-0.184092	0.000126
C43	C	1.178632	-0.124685	0.000139
C44	C	1.010477	-0.111301	0.000115
C45	C	1.009332	-0.170703	0.000107
C46	C	1.092845	-0.207098	0.000109
O47	O	0.936062	-0.258992	0.000111
O48	O	1.247171	-0.283806	0.000102
C49	C	1.257333	0.075061	0.000119
C50	C	1.359700	0.076289	0.000124
C51	C	1.081001	0.183160	0.000078
C52	C	1.082241	0.246383	0.000064
N53	N	1.088673	0.079040	0.254958
N54	N	1.088710	0.079050	-0.254754
C55	C	1.088696	0.079051	0.656248
C56	C	1.088686	0.079050	0.544597
C57	C	1.088685	0.079046	0.455607
C58	C	1.088674	0.079044	0.343948
H59	H	1.247572	-0.105958	0.000158
H60	H	0.851027	-0.455975	0.000018
H61	H	1.236985	-0.652474	0.000095
H62	H	1.234886	-0.760249	0.000083
H63	H	0.940399	-0.189434	0.000119
C64	C	1.423512	-0.423859	0.000121
C65	C	1.350477	-0.379359	0.000121
H66	H	1.480963	-0.408253	0.000118
H67	H	1.419557	-0.446754	0.057162
H68	H	1.419552	-0.446744	-0.056928
H69	H	1.354433	-0.356476	0.057175
H70	H	1.354433	-0.356454	-0.056926
C71	C	1.352561	-0.538598	-0.083977
C72	C	1.348061	-0.504041	0.000114
H73	H	1.409238	-0.563286	-0.083967
H74	H	1.301999	-0.560808	-0.083978
H75	H	1.349514	-0.515134	-0.141016
H76	H	1.351102	-0.527505	0.057154
H77	H	1.398637	-0.481828	0.000124
H78	H	1.245491	-0.213718	0.000124
C79	C	0.832649	-0.698000	0.000040
C80	C	0.905687	-0.742498	0.000048
H81	H	0.775199	-0.713608	0.000022
H82	H	0.836593	-0.675120	0.057086
H83	H	0.836614	-0.675100	-0.057004
H84	H	0.901726	-0.765396	0.057096
H85	H	0.901740	-0.765388	-0.057004
C86	C	0.903622	-0.583235	-0.084042
C87	C	0.908101	-0.617809	0.000050
H88	H	0.846948	-0.558544	-0.084048
H89	H	0.954188	-0.561028	-0.084029
H90	H	0.906677	-0.606688	-0.141081
H91	H	0.905052	-0.594357	0.057089
H92	H	0.857521	-0.640018	0.000046
C93	C	0.937599	-0.014290	0.000103
C94	C	0.918700	-0.071287	0.000100
H95	H	0.880937	0.010413	0.000081
H96	H	0.972316	-0.007317	0.057153
H97	H	0.972348	-0.007309	-0.056937
H98	H	0.883956	-0.078268	0.057143
H99	H	0.883967	-0.078262	-0.056957
H100	H	0.853122	-0.348216	0.000024
