data_functionalizedCrystal
_audit_creation_method	'MofGen! by Chris Wilmer'
_symmetry_space_group_name_H-M	'P1'
_symmetry_Int_Tables_number	1
_symmetry_cell_setting	triclinic
loop_
_symmetry_equiv_pos_as_xyz
  x,y,z
_cell_length_a	14.519709
_cell_length_b	17.038272
_cell_length_c	13.596369
_cell_angle_alpha	89.993837
_cell_angle_beta	90.000291
_cell_angle_gamma	87.395851
loop_
_atom_site_label
_atom_site_type_symbol
_atom_site_fract_x
_atom_site_fract_y
_atom_site_fract_z
O1	O	1.231711	0.102502	-0.081664
O2	O	1.731711	0.602502	0.418336
O3	O	0.964158	0.114573	-0.081694
O4	O	1.464158	0.614573	0.418306
O5	O	1.096344	-0.005280	-0.081671
O6	O	1.596344	0.494720	0.418329
O7	O	1.099525	0.222356	-0.081686
O8	O	1.599525	0.722356	0.418314
O9	O	1.096330	-0.005286	0.081912
O10	O	1.596330	0.494714	0.581912
O11	O	0.964143	0.114567	0.081889
O12	O	1.464143	0.614567	0.581889
O13	O	1.231696	0.102496	0.081919
O14	O	1.731696	0.602496	0.581919
Zn15	Zn	1.097918	0.108530	0.107877
Zn16	Zn	1.597918	0.608530	0.607877
Zn17	Zn	1.097937	0.108539	-0.107651
Zn18	Zn	1.597937	0.608539	0.392349
O19	O	1.099510	0.222349	0.081897
O20	O	1.599510	0.722349	0.581897
C21	C	0.929748	0.114008	0.000094
C22	C	1.429748	0.614008	0.500094
C23	C	0.827237	0.112322	0.000083
C24	C	1.327237	0.612322	0.500083
C25	C	0.451867	0.106116	0.000128
C26	C	0.951867	0.606116	0.500128
C27	C	0.556307	0.107839	0.000115
C28	C	1.056307	0.607839	0.500115
C29	C	0.639549	0.109219	0.000104
C30	C	1.139549	0.609219	0.500104
C31	C	0.743995	0.110942	0.000093
C32	C	1.243995	0.610942	0.500093
C33	C	1.093444	-0.034416	0.000120
C34	C	1.593444	0.465584	0.500120
C35	C	1.084814	-0.121223	0.000119
C36	C	1.584814	0.378777	0.500119
C37	C	1.164047	-0.171209	0.000129
C38	C	1.664047	0.328791	0.500129
C39	C	1.155933	-0.252773	0.000118
C40	C	1.655933	0.247227	0.500118
C41	C	1.068585	-0.284349	0.000105
C42	C	1.568585	0.215651	0.500105
C43	C	0.989347	-0.234357	0.000092
C44	C	1.489347	0.265643	0.500092
C45	C	0.997462	-0.152795	0.000096
C46	C	1.497462	0.347205	0.500096
C47	C	1.039916	-0.530153	0.000089
C48	C	1.539916	-0.030153	0.500089
C49	C	1.031807	-0.611722	0.000088
C50	C	1.531807	-0.111722	0.500088
C51	C	1.198394	-0.630132	0.000112
C52	C	1.698394	-0.130132	0.500112
C53	C	1.206502	-0.548568	0.000122
C54	C	1.706502	-0.048568	0.500122
C55	C	1.127263	-0.498583	0.000104
C56	C	1.627263	0.001417	0.500104
C57	C	1.060289	-0.367720	0.000098
C58	C	1.560289	0.132280	0.500098
C59	C	1.135560	-0.415213	0.000104
C60	C	1.635560	0.084787	0.500104
C61	C	1.266107	0.103062	0.000129
C62	C	1.766107	0.603062	0.500129
C63	C	1.368617	0.104748	0.000134
C64	C	1.868617	0.604748	0.500134
C65	C	1.102410	0.251486	0.000103
C66	C	1.602410	0.751486	0.500103
C67	C	1.111040	0.338292	0.000098
C68	C	1.611040	0.838292	0.500098
N69	N	1.097911	0.108524	0.254968
N70	N	1.597911	0.608524	0.754968
N71	N	1.097950	0.108539	-0.254743
N72	N	1.597950	0.608539	0.245257
C73	C	1.097936	0.108540	0.656259
C74	C	1.597936	0.608540	1.156259
C75	C	1.097926	0.108538	0.544608
C76	C	1.597926	0.608538	1.044608
C77	C	1.097924	0.108533	0.455617
C78	C	1.597924	0.608533	0.955617
C79	C	1.097913	0.108530	0.343959
C80	C	1.597913	0.608530	0.843959
H81	H	1.235175	-0.145506	0.000145
H82	H	1.735175	0.354494	0.500145
C83	C	0.936944	-0.645965	-0.000139
C84	C	1.436944	-0.145965	0.499861
C85	C	0.888691	-0.620588	-0.084324
C86	C	1.388691	-0.120588	0.415676
C87	C	0.801312	-0.652128	-0.084572
C88	C	1.301312	-0.152128	0.415428
H89	H	0.903923	-0.628845	0.056831
H90	H	1.403923	-0.128845	0.556831
H91	H	0.943428	-0.701703	-0.000188
H92	H	1.443428	-0.201703	0.499812
H93	H	0.882203	-0.564862	-0.084265
H94	H	1.382203	-0.064862	0.415735
H95	H	0.921685	-0.637707	-0.141307
H96	H	1.421685	-0.137707	0.358693
H97	H	0.807796	-0.707865	-0.084622
H98	H	1.307796	-0.207865	0.415378
H99	H	0.768299	-0.635004	-0.027600
H100	H	1.268299	-0.135004	0.472400
H101	H	0.768564	-0.634919	-0.141695
H102	H	1.268564	-0.134919	0.358305
H103	H	0.975394	-0.489465	0.000074
H104	H	1.475394	0.010535	0.500074
H105	H	1.262906	-0.670838	0.000125
H106	H	1.762906	-0.170838	0.500125
H107	H	0.932942	-0.112096	0.000087
H108	H	1.432942	0.387904	0.500087
C109	C	0.894592	-0.268788	0.000128
C110	C	1.394592	0.231212	0.500128
C111	C	0.904441	-0.350916	0.000157
C112	C	1.404441	0.149084	0.500157
C113	C	0.817172	-0.382658	0.000207
C114	C	1.317172	0.117342	0.500207
H115	H	0.861626	-0.251721	-0.056905
H116	H	1.361626	0.248279	0.443095
H117	H	0.861682	-0.251686	0.057193
H118	H	1.361682	0.248314	0.557193
H119	H	0.937337	-0.368011	-0.056901
H120	H	1.437337	0.131989	0.443099
H121	H	0.937391	-0.368005	0.057186
H122	H	1.437391	0.131995	0.557186
H123	H	0.784262	-0.365556	0.057271
H124	H	1.284262	0.134444	0.557271
H125	H	0.784212	-0.365585	-0.056827
H126	H	1.284212	0.134415	0.443173
H127	H	0.823842	-0.438385	0.000236
H128	H	1.323842	0.061615	0.500236
H129	H	1.206678	-0.389500	0.000093
H130	H	1.706678	0.110500	0.500093
H131	H	1.220453	-0.293468	0.000129
H132	H	1.720453	0.206532	0.500129
H133	H	1.277629	-0.522865	0.000132
H134	H	1.777629	-0.022865	0.500132
H135	H	0.989170	-0.393438	0.000089
H136	H	1.489170	0.106562	0.500089
