data_functionalizedCrystal
_audit_creation_method	'MofGen! by Chris Wilmer'
_symmetry_space_group_name_H-M	'P1'
_symmetry_Int_Tables_number	1
_symmetry_cell_setting	triclinic
loop_
_symmetry_equiv_pos_as_xyz
  x,y,z
_cell_length_a	12.759395
_cell_length_b	12.759394
_cell_length_c	12.759393
_cell_angle_alpha	90.032607
_cell_angle_beta	90.018759
_cell_angle_gamma	90.015525
loop_
_atom_site_label
_atom_site_type_symbol
_atom_site_fract_x
_atom_site_fract_y
_atom_site_fract_z
Zn1	Zn	1.606240	-0.418182	0.594024
Zn2	Zn	1.606138	-0.593902	0.418342
Zn3	Zn	1.430546	-0.418240	0.418358
Zn4	Zn	1.430530	-0.593822	0.593978
O5	O	1.518364	-0.506036	0.506176
O6	O	1.753248	-0.441501	0.570732
O7	O	1.582810	-0.570658	0.271323
O8	O	1.453902	-0.271211	0.441687
O9	O	1.753173	-0.570602	0.441659
O10	O	1.582983	-0.271169	0.570748
O11	O	1.453803	-0.441599	0.271335
O12	O	1.283523	-0.441521	0.441642
O13	O	1.453874	-0.570465	0.741006
O14	O	1.283511	-0.570521	0.570670
O15	O	1.582967	-0.441423	0.741039
O16	O	1.582794	-0.740912	0.441615
O17	O	1.453776	-0.740853	0.570654
C18	C	1.245396	-0.506019	0.506153
C19	C	1.128620	-0.506038	0.506169
C20	C	1.518301	-0.779004	0.506150
C21	C	1.518370	-0.895780	0.506175
C22	C	0.909222	-0.640606	0.640347
C23	C	0.964107	-0.707868	0.707412
C24	C	1.073829	-0.707855	0.707398
C25	C	1.128668	-0.640575	0.640311
C26	C	1.073783	-0.573313	0.573247
C27	C	0.964059	-0.573331	0.573270
C28	C	1.073735	-0.438775	0.439104
C29	C	0.964013	-0.438781	0.439121
C30	C	1.128574	-0.371495	0.372017
C31	C	1.073689	-0.304226	0.304956
C32	C	0.963961	-0.304240	0.304973
C33	C	0.909128	-0.371519	0.372057
C34	C	1.652818	-0.895788	0.371907
C35	C	1.720069	-0.950653	0.304785
C36	C	1.720131	-1.060375	0.304814
C37	C	1.652936	-1.115234	0.371973
C38	C	1.585685	-1.060369	0.439095
C39	C	1.585628	-0.950645	0.439057
C40	C	1.451244	-1.060361	0.573366
C41	C	1.451175	-0.950640	0.573334
C42	C	1.384049	-1.115221	0.640526
C43	C	1.316791	-1.060356	0.707644
C44	C	1.316731	-0.950628	0.707612
C45	C	1.383924	-0.895775	0.640456
C46	C	1.792397	-0.506054	0.506199
C47	C	1.909174	-0.506061	0.506209
C48	C	1.518430	-0.505929	0.780209
C49	C	1.518459	-0.505883	0.896986
C50	C	1.518456	-0.232003	0.506224
C51	C	1.518495	-0.115226	0.506245
C52	C	1.518358	-0.506068	0.233208
C53	C	1.518533	-0.505817	0.116432
C54	C	1.451305	-0.573020	1.061557
C55	C	1.451265	-0.573051	0.951833
C56	C	1.585689	-0.438673	0.951869
C57	C	1.585723	-0.438638	1.061591
C58	C	1.373700	-0.650606	1.061535
C59	C	1.373660	-0.650636	0.951811
H60	H	0.919445	-0.762649	0.762030
H61	H	1.118516	-0.762629	0.762005
H62	H	1.261971	-0.905962	0.762274
H63	H	1.653001	-1.204575	0.372000
H64	H	1.218009	-0.640580	0.640297
H65	H	1.774781	-0.905977	0.250106
C66	C	1.249264	-0.371476	0.371996
H67	H	1.274061	-0.321781	0.322433
H68	H	1.274122	-0.353384	0.439821
H69	H	1.274069	-0.439253	0.353700
H70	H	1.640392	-0.383976	0.907204
H71	H	1.296359	-0.621502	0.917788
C72	C	1.134011	-0.230227	0.231172
H73	H	1.207217	-0.239852	0.240770
H74	H	1.115991	-0.245513	0.160556
H75	H	1.116054	-0.159652	0.246687
C76	C	1.794102	-1.120733	0.230985
H77	H	1.784515	-1.193935	0.240629
H78	H	1.778754	-1.102827	0.160376
H79	H	1.864681	-1.102686	0.246419
C80	C	1.383861	-0.775085	0.640425
H81	H	1.334184	-0.750262	0.690014
H82	H	1.451640	-0.750198	0.658636
H83	H	1.365704	-0.750335	0.572602
C84	C	0.903595	-0.230248	0.231203
H85	H	0.951973	-0.190177	0.191256
H86	H	0.860760	-0.270385	0.185363
H87	H	0.860824	-0.184517	0.271486
H88	H	1.292346	-0.628801	1.091315
C89	C	0.788438	-0.371534	0.372076
H90	H	0.763601	-0.321836	0.322532
H91	H	0.763599	-0.439315	0.353797
H92	H	0.763654	-0.353441	0.439914
C93	C	1.384113	-1.235911	0.640556
H94	H	1.433780	-1.260732	0.590956
H95	H	1.402261	-1.260665	0.708374
H96	H	1.316330	-1.260795	0.622335
H97	H	1.652761	-0.806447	0.371863
H98	H	1.262091	-1.105031	0.762324
H99	H	1.402833	-0.727889	1.095549
C100	C	1.659667	-0.364708	1.121951
H101	H	1.699682	-0.324713	1.073572
H102	H	1.619503	-0.318920	1.164765
H103	H	1.705452	-0.404889	1.164742
C104	C	1.403058	-0.760565	0.911541
H105	H	1.403018	-0.760583	0.837084
H106	H	1.470861	-0.778736	0.936343
H107	H	1.353411	-0.810192	0.936342
C108	C	0.788532	-0.640598	0.640391
H109	H	0.763733	-0.690295	0.689950
H110	H	0.763751	-0.572817	0.658684
H111	H	0.763653	-0.658692	0.572568
