data_functionalizedCrystal
_audit_creation_method	'MofGen! by Chris Wilmer'
_symmetry_space_group_name_H-M	'P1'
_symmetry_Int_Tables_number	1
_symmetry_cell_setting	triclinic
loop_
_symmetry_equiv_pos_as_xyz
  x,y,z
_cell_length_a	10.654558
_cell_length_b	14.853568
_cell_length_c	9.730223
_cell_angle_alpha	90.001820
_cell_angle_beta	90.002363
_cell_angle_gamma	95.938248
loop_
_atom_site_label
_atom_site_type_symbol
_atom_site_fract_x
_atom_site_fract_y
_atom_site_fract_z
O1	O	1.666517	-0.126659	0.114255
O2	O	1.300915	-0.138716	0.114261
O3	O	1.493481	-0.001510	0.114265
O4	O	1.473951	-0.263865	0.114251
O5	O	1.493470	-0.001511	-0.114315
O6	O	1.300903	-0.138716	-0.114319
O7	O	1.666505	-0.126660	-0.114325
Zn8	Zn	1.483702	-0.132688	-0.150614
Zn9	Zn	1.483718	-0.132687	0.150550
O10	O	1.473939	-0.263865	-0.114329
C11	C	1.254120	-0.137829	-0.000028
C12	C	1.114705	-0.135176	-0.000025
C13	C	0.918212	-0.131446	0.124574
C14	C	1.049209	-0.133931	0.124575
C15	C	1.049200	-0.133926	-0.124635
C16	C	0.918206	-0.131435	-0.124635
C17	C	0.852721	-0.130210	0.249183
C18	C	0.918217	-0.131458	0.373793
C19	C	1.049214	-0.133943	0.373794
C20	C	1.114714	-0.135180	0.249185
C21	C	1.492590	0.032083	-0.000020
C22	C	1.489938	0.132181	-0.000006
C23	C	1.364337	0.545390	-0.000022
C24	C	1.593111	0.565441	-0.000025
C25	C	1.595605	0.471394	-0.000019
C26	C	1.482463	0.414340	-0.000016
C27	C	1.366828	0.451334	-0.000020
C28	C	1.711239	0.434393	-0.000029
C29	C	1.713737	0.340341	-0.000025
C30	C	1.600594	0.283285	-0.000012
C31	C	1.484954	0.320284	-0.000014
C32	C	1.371812	0.263230	-0.000012
C33	C	1.256170	0.300227	-0.000004
C34	C	1.253685	0.394278	-0.000008
C35	C	1.603080	0.189235	-0.000009
C36	C	1.374303	0.169174	-0.000010
C37	C	1.713300	-0.127546	-0.000033
C38	C	1.852715	-0.130200	-0.000026
C39	C	1.474829	0.702542	-0.000035
C40	C	1.477479	0.602443	-0.000024
N41	N	1.483701	-0.132688	-0.356150
C42	C	1.569006	-0.071948	-0.571958
C43	C	1.568996	-0.071954	-0.428076
C44	C	1.398420	-0.193427	-0.428115
C45	C	1.398437	-0.193425	-0.571996
C46	C	1.654298	-0.011204	-0.643876
C47	C	1.739581	0.049534	-0.571921
C48	C	1.739571	0.049529	-0.428038
C49	C	1.654277	-0.011215	-0.356110
N50	N	1.483729	-0.132680	0.356086
H51	H	0.864875	-0.130437	-0.226095
O52	O	1.146233	0.244840	-0.000244
C53	C	1.076006	0.261732	-0.118603
H54	H	1.142237	0.293459	-0.201349
H55	H	1.025764	0.195328	-0.158341
H56	H	1.003231	0.310065	-0.091828
H57	H	1.221382	-0.137199	0.249196
H58	H	1.159535	0.424410	-0.000003
H59	H	1.328998	-0.242879	-0.630582
O60	O	1.826097	0.304450	0.000222
C61	C	1.895091	0.333562	0.118587
H62	H	1.827478	0.353554	0.201326
H63	H	1.948619	0.276264	0.158333
H64	H	1.964965	0.394407	0.091816
H65	H	1.102540	-0.134950	0.475258
O66	O	1.112982	-0.135018	-0.245584
C67	C	1.202818	-0.058507	-0.253052
H68	H	1.227139	-0.032894	-0.144866
H69	H	1.291764	-0.077791	-0.305784
H70	H	1.162198	-0.002969	-0.314543
H71	H	0.746056	-0.128190	0.249196
H72	H	1.328976	-0.242881	-0.369542
O73	O	1.264310	0.113847	0.000177
C74	C	1.194140	0.130715	0.118584
H75	H	1.224862	0.201853	0.158054
H76	H	1.089409	0.124760	0.091965
H77	H	1.211405	0.079172	0.201476
O78	O	1.822460	0.108609	-0.358352
C79	C	1.897762	0.162204	-0.452688
H80	H	1.846282	0.163567	-0.555258
H81	H	1.916791	0.234074	-0.411108
H82	H	1.991101	0.132309	-0.467980
H83	H	1.654284	-0.011220	-0.238951
O84	O	0.854798	-0.130220	0.494954
C85	C	0.940698	-0.131875	0.604930
H86	H	1.039219	-0.105151	0.568405
H87	H	0.910742	-0.087469	0.692084
H88	H	0.941595	-0.204340	0.643232
H89	H	1.685226	0.611899	-0.000038
O90	O	1.252117	0.581472	-0.000077
C91	C	1.274170	0.676718	-0.000037
H92	H	1.372132	0.698185	-0.043313
H93	H	1.200164	0.706055	-0.066396
H94	H	1.268046	0.702932	0.109626
H95	H	1.803352	0.480853	-0.000044
O96	O	1.715429	0.153336	0.000230
C97	C	1.784432	0.182444	0.118590
H98	H	1.716827	0.202441	0.201334
H99	H	1.837956	0.125143	0.158332
H100	H	1.854311	0.243286	0.091815
O101	O	1.654517	-0.011105	-0.783642
C102	C	1.748057	0.055546	-0.831694
H103	H	1.822832	0.070772	-0.748769
H104	H	1.793861	0.029849	-0.927949
H105	H	1.703121	0.119913	-0.857219
H106	H	1.809032	0.098985	-0.630492
