data_functionalizedCrystal
_audit_creation_method	'MofGen! by Chris Wilmer'
_symmetry_space_group_name_H-M	'P1'
_symmetry_Int_Tables_number	1
_symmetry_cell_setting	triclinic
loop_
_symmetry_equiv_pos_as_xyz
  x,y,z
_cell_length_a	16.120484
_cell_length_b	12.759395
_cell_length_c	12.759387
_cell_angle_alpha	90.020837
_cell_angle_beta	92.863831
_cell_angle_gamma	87.073908
loop_
_atom_site_label
_atom_site_type_symbol
_atom_site_fract_x
_atom_site_fract_y
_atom_site_fract_z
Zn1	Zn	-0.331852	-1.584970	-0.615217
Zn2	Zn	0.168148	-1.084970	-0.115217
Zn3	Zn	-0.471288	-1.575922	-0.448429
Zn4	Zn	0.028712	-1.075922	0.051571
Zn5	Zn	-0.331895	-1.409270	-0.439551
Zn6	Zn	0.168105	-0.909270	0.060449
Zn7	Zn	-0.471227	-1.400322	-0.624059
Zn8	Zn	0.028773	-0.900322	-0.124059
O9	O	-0.401565	-1.492621	-0.531814
O10	O	0.098435	-0.992621	-0.031814
O11	O	-0.350357	-1.730791	-0.593107
O12	O	0.149643	-1.230791	-0.093107
O13	O	-0.452840	-1.553774	-0.300233
O14	O	0.047160	-1.053774	0.199767
O15	O	-0.215224	-1.440108	-0.455438
O16	O	0.284776	-0.940108	0.044562
O17	O	-0.452799	-1.724143	-0.470569
O18	O	0.047201	-1.224143	0.029431
O19	O	-0.215193	-1.569195	-0.584499
O20	O	0.284807	-1.069195	-0.084499
O21	O	-0.350429	-1.431335	-0.293710
O22	O	0.149571	-0.931335	0.206290
O23	O	-0.350370	-1.261062	-0.464011
O24	O	0.149630	-0.761062	0.035989
O25	O	-0.452695	-1.424857	-0.769905
O26	O	0.047305	-0.924857	-0.269905
O27	O	-0.452736	-1.254488	-0.599569
O28	O	0.047264	-0.754488	-0.099569
O29	O	-0.350298	-1.560518	-0.763408
O30	O	0.149702	-1.060518	-0.263408
O31	O	-0.587945	-1.545097	-0.479143
O32	O	-0.087945	-1.045097	0.020857
O33	O	-0.587900	-1.416084	-0.608177
O34	O	-0.087900	-0.916084	-0.108177
C35	C	-0.401552	-1.219654	-0.531787
C36	C	0.098448	-0.719654	-0.031787
C37	C	-0.401566	-1.102877	-0.531801
C38	C	0.098434	-0.602877	-0.031801
C39	C	-0.618173	-1.478666	-0.545606
C40	C	-0.118173	-0.978666	-0.045606
C41	C	-0.710838	-1.472793	-0.551541
C42	C	-0.210838	-0.972793	-0.051541
C43	C	-0.508333	-1.096059	-0.672751
C44	C	-0.008333	-0.596059	-0.172751
C45	C	-0.561722	-1.037788	-0.743227
C46	C	-0.061722	-0.537788	-0.243227
C47	C	-0.561731	-0.928066	-0.743237
C48	C	-0.061731	-0.428066	-0.243237
C49	C	-0.508343	-0.876612	-0.672765
C50	C	-0.008343	-0.376612	-0.172765
C51	C	-0.454953	-0.934883	-0.602289
C52	C	0.045047	-0.434883	-0.102289
C53	C	-0.454952	-1.044607	-0.602284
C54	C	0.045048	-0.544607	-0.102284
C55	C	-0.348183	-0.941701	-0.461346
C56	C	0.151817	-0.441701	0.038654
C57	C	-0.348178	-1.051423	-0.461329
C58	C	0.151822	-0.551423	0.038671
C59	C	-0.294795	-0.890247	-0.390874
C60	C	0.205205	-0.390247	0.109126
C61	C	-0.241409	-0.948517	-0.320391
C62	C	0.258591	-0.448517	0.179609
C63	C	-0.241403	-1.058246	-0.320383
C64	C	0.258597	-0.558246	0.179617
C65	C	-0.294788	-1.109693	-0.390853
C66	C	0.205212	-0.609693	0.109147
C67	C	-0.880499	-1.462075	-0.562399
C68	C	-0.380499	-0.962075	-0.062399
C69	C	-0.921791	-1.523356	-0.501246
C70	C	-0.421791	-1.023356	-0.001246
C71	C	-1.016196	-1.517392	-0.507288
C72	C	-0.516196	-1.017392	-0.007288
C73	C	-0.786086	-1.468037	-0.556359
C74	C	-0.286086	-0.968037	-0.056359
C75	C	-0.184112	-1.506659	-0.517991
C76	C	0.315888	-1.006659	-0.017991
C77	C	-0.091447	-1.512641	-0.512101
C78	C	0.408553	-1.012641	-0.012101
C79	C	-0.401485	-1.492699	-0.805843
C80	C	0.098515	-0.992699	-0.305843
C81	C	-0.401451	-1.492732	-0.922617
C82	C	0.098549	-0.992732	-0.422617
C83	C	-0.401577	-0.766654	-0.531834
C84	C	0.098423	-0.266654	-0.031834
C85	C	-0.401573	-0.883431	-0.531823
C86	C	0.098427	-0.383431	-0.031823
C87	C	-0.294765	-1.634065	-1.135292
C88	C	0.205235	-1.134065	-0.635292
C89	C	-0.241467	-1.704682	-1.077049
C90	C	0.258533	-1.204682	-0.577049
C91	C	-0.241495	-1.704651	-0.967329
C92	C	0.258505	-1.204651	-0.467329
C93	C	-0.294828	-1.633997	-0.915850
C94	C	0.205172	-1.133997	-0.415850
C95	C	-0.348125	-1.563380	-0.974094
C96	C	0.151875	-1.063380	-0.474094
C97	C	-0.348090	-1.563417	-1.083816
C98	C	0.151910	-1.063417	-0.583816
C99	C	-0.454748	-1.422115	-0.980860
C100	C	0.045252	-0.922115	-0.480860
C101	C	-0.454718	-1.422140	-1.090580
C102	C	0.045282	-0.922140	-0.590580
C103	C	-0.508081	-1.351461	-0.929382
C104	C	-0.008081	-0.851461	-0.429382
C105	C	-0.561376	-1.280837	-0.987625
C106	C	-0.061376	-0.780837	-0.487625
C107	C	-0.561345	-1.280871	-1.097351
C108	C	-0.061345	-0.780871	-0.597351
C109	C	-0.508015	-1.351523	-1.148824
C110	C	-0.008015	-0.851523	-0.648824
C111	C	-0.401585	-1.492608	-0.258848
C112	C	0.098415	-0.992608	0.241152
C113	C	-0.401385	-1.492794	-0.142059
C114	C	0.098615	-0.992794	0.357941
H115	H	-0.508337	-1.185399	-0.672742
H116	H	-0.008337	-0.685399	-0.172742
H117	H	-0.294726	-1.634085	-1.224631
H118	H	0.205274	-1.134085	-0.724631
H119	H	-0.605189	-1.079694	-0.800605
H120	H	-0.105189	-0.579694	-0.300605
N121	N	-0.183949	-1.780889	-1.132570
N122	N	0.316051	-1.280889	-0.632570
H123	H	-0.192014	-1.770195	-1.210916
H124	H	0.307986	-1.270195	-0.710916
H125	H	-0.124412	-1.768375	-1.109606
H126	H	0.375588	-1.268375	-0.609606
N127	N	-0.618886	-1.204641	-0.932092
N128	N	-0.118886	-0.704641	-0.432092
H129	H	-0.605922	-1.130416	-0.950350
H130	H	-0.105922	-0.630416	-0.450350
H131	H	-0.678429	-1.217197	-0.954993
H132	H	-0.178429	-0.717197	-0.454993
H133	H	-0.604750	-1.223370	-1.144767
H134	H	-0.104750	-0.723370	-0.644767
H135	H	-0.605201	-0.880623	-0.800630
H136	H	-0.105201	-0.380623	-0.300630
H137	H	-0.198097	-1.762155	-0.919907
H138	H	0.301903	-1.262155	-0.419907
H139	H	-0.508347	-0.787271	-0.672788
H140	H	-0.008347	-0.287271	-0.172788
N141	N	-0.874711	-1.598785	-0.425883
N142	N	-0.374711	-1.098785	0.074117
H143	H	-0.812967	-1.592406	-0.432192
H144	H	-0.312967	-1.092406	0.067808
H145	H	-0.889940	-1.581524	-0.351791
H146	H	-0.389940	-1.081524	0.148209
H147	H	-0.197940	-0.906615	-0.263024
H148	H	0.302060	-0.406615	0.236976
N149	N	-0.294806	-0.771905	-0.390874
N150	N	0.205194	-0.271905	0.109126
H151	H	-0.336733	-0.742796	-0.446206
H152	H	0.163267	-0.242796	0.053794
H153	H	-0.310034	-0.744564	-0.319698
H154	H	0.189966	-0.244564	0.180302
H155	H	-0.916047	-1.405136	-0.619286
H156	H	-0.416047	-0.905136	-0.119286
N157	N	-0.294870	-1.633973	-0.797511
N158	N	0.205130	-1.133973	-0.297511
H159	H	-0.253018	-1.689433	-0.768426
H160	H	0.246982	-1.189433	-0.268426
H161	H	-0.279573	-1.562849	-0.770180
H162	H	0.220427	-1.062849	-0.270180
N163	N	-0.294791	-1.228035	-0.390845
N164	N	0.205209	-0.728035	0.109155
H165	H	-0.279541	-1.255475	-0.461980
H166	H	0.220459	-0.755475	0.038020
H167	H	-0.252876	-1.257062	-0.335462
H168	H	0.247124	-0.757062	0.164538
N169	N	-0.183809	-1.121093	-0.244379
N170	N	0.316191	-0.621093	0.255621
H171	H	-0.149991	-1.071844	-0.199745
H172	H	0.350009	-0.571844	0.300255
H173	H	-0.217686	-1.164416	-0.197832
H174	H	0.282314	-0.664416	0.302168
N175	N	-0.508120	-1.351418	-0.811043
N176	N	-0.008120	-0.851418	-0.311043
H177	H	-0.523455	-1.422491	-0.785588
H178	H	-0.023455	-0.922491	-0.285588
H179	H	-0.450924	-1.335743	-0.781060
H180	H	0.049076	-0.835743	-0.281060
H181	H	-0.507980	-1.351551	-1.238163
H182	H	-0.007980	-0.851551	-0.738163
