data_functionalizedCrystal
_audit_creation_method	'MofGen! by Chris Wilmer'
_symmetry_space_group_name_H-M	'P1'
_symmetry_Int_Tables_number	1
_symmetry_cell_setting	triclinic
loop_
_symmetry_equiv_pos_as_xyz
  x,y,z
_cell_length_a	9.065215
_cell_length_b	7.540329
_cell_length_c	14.853567
_cell_angle_alpha	90.000203
_cell_angle_beta	84.324814
_cell_angle_gamma	89.997574
loop_
_atom_site_label
_atom_site_type_symbol
_atom_site_fract_x
_atom_site_fract_y
_atom_site_fract_z
O1	O	1.957781	-0.147445	0.132179
O2	O	2.457781	0.352555	0.632179
O3	O	1.528281	-0.147451	0.143024
O4	O	2.028281	0.352549	0.643024
O5	O	1.754503	-0.147453	0.006456
O6	O	2.254503	0.352547	0.506456
O7	O	1.731558	-0.147443	0.268746
O8	O	2.231558	0.352557	0.768746
O9	O	1.754490	0.147512	0.006455
O10	O	2.254490	0.647512	0.506455
O11	O	1.528267	0.147514	0.143022
O12	O	2.028267	0.647514	0.643022
O13	O	1.957768	0.147520	0.132177
O14	O	2.457768	0.647520	0.632177
Cu15	Cu	1.743016	0.174450	0.137599
Cu16	Cu	2.243016	0.674450	0.637599
Cu17	Cu	1.743032	-0.174381	0.137602
Cu18	Cu	2.243032	0.325619	0.637602
O19	O	1.731545	0.147522	0.268745
O20	O	2.231545	0.647522	0.768745
C21	C	1.473308	0.000030	0.141982
C22	C	1.973308	0.500030	0.641982
C23	C	1.309527	0.000027	0.138867
C24	C	1.809527	0.500027	0.638867
C25	C	1.753457	0.000024	-0.027141
C26	C	2.253457	0.500024	0.472859
C27	C	1.750342	0.000009	-0.127248
C28	C	2.250342	0.500009	0.372752
C29	C	2.012740	0.000035	0.133219
C30	C	2.512740	0.500035	0.633219
C31	C	2.176522	0.000026	0.136334
C32	C	2.676522	0.500026	0.636334
N33	N	1.743016	0.419798	0.137598
N34	N	2.243016	0.919798	0.637598
N35	N	1.743044	-0.419729	0.137596
N36	N	2.243044	0.080271	0.637596
C37	C	1.602790	0.000040	-0.540872
C38	C	2.102790	0.500040	-0.040872
C39	C	1.871548	0.000044	-0.560166
C40	C	2.371548	0.500044	-0.060166
C41	C	1.874478	0.000034	-0.466111
C42	C	2.374478	0.500034	0.033889
C43	C	1.741561	0.000029	-0.409432
C44	C	2.241561	0.500029	0.090568
C45	C	1.605716	0.000035	-0.446808
C46	C	2.105716	0.500035	0.053192
C47	C	2.010321	0.000046	-0.428727
C48	C	2.510321	0.500046	0.071273
C49	C	2.013256	0.000037	-0.334666
C50	C	2.513256	0.500037	0.165334
C51	C	1.880338	0.000020	-0.277986
C52	C	2.380338	0.500020	0.222014
C53	C	1.744487	0.000024	-0.315367
C54	C	2.244487	0.500024	0.184633
C55	C	1.611571	0.000020	-0.258688
C56	C	2.111571	0.500020	0.241312
C57	C	1.475718	0.000011	-0.296068
C58	C	1.975718	0.500011	0.203932
C59	C	1.472798	0.000018	-0.390127
C60	C	1.972798	0.500018	0.109873
C61	C	1.883258	0.000013	-0.183927
C62	C	2.383258	0.500013	0.316073
C63	C	1.614496	0.000014	-0.164624
C64	C	2.114496	0.500014	0.335376
C65	C	1.732591	0.000041	0.302342
C66	C	2.232591	0.500041	0.802342
C67	C	1.735707	0.000045	0.402449
C68	C	2.235707	0.500045	0.902449
H69	H	1.506258	0.000003	-0.118481
H70	H	2.006258	0.500003	0.381519
H71	H	2.118534	0.000066	-0.474882
H72	H	2.618534	0.500066	0.025118
C73	C	1.329519	0.000003	-0.233716
C74	C	1.829519	0.500003	0.266284
H75	H	1.350728	-0.000005	-0.172346
H76	H	1.850728	0.499995	0.327654
H77	H	1.273811	0.102856	-0.245162
H78	H	1.773811	0.602856	0.254838
H79	H	1.273837	-0.102879	-0.245161
H80	H	1.773837	0.397121	0.254839
H81	H	1.362194	0.000012	-0.420571
H82	H	1.862194	0.500012	0.079429
C83	C	2.017747	0.000051	-0.622505
C84	C	2.517747	0.500051	-0.122505
H85	H	2.099070	0.000056	-0.586772
H86	H	2.599070	0.500056	-0.086772
H87	H	2.022193	-0.102803	-0.659604
H88	H	2.522193	0.397197	-0.159604
H89	H	2.022188	0.102931	-0.659593
H90	H	2.522188	0.602931	-0.159593
C91	C	2.032675	0.000027	-0.142811
C92	C	2.532675	0.500027	0.357189
H93	H	2.111415	0.000028	-0.190039
H94	H	2.611415	0.500028	0.309961
H95	H	2.039392	0.102883	-0.106515
H96	H	2.539392	0.602883	0.393485
H97	H	2.039414	-0.102852	-0.106526
H98	H	2.539414	0.397148	0.393474
H99	H	1.492182	0.000026	-0.571311
H100	H	1.992182	0.500026	-0.071311
H101	H	2.123875	0.000042	-0.304240
H102	H	2.623875	0.500042	0.195760
