data_functionalizedCrystal
_audit_creation_method	'MofGen! by Chris Wilmer'
_symmetry_space_group_name_H-M	'P1'
_symmetry_Int_Tables_number	1
_symmetry_cell_setting	triclinic
loop_
_symmetry_equiv_pos_as_xyz
  x,y,z
_cell_length_a	17.077404
_cell_length_b	18.050589
_cell_length_c	17.077396
_cell_angle_alpha	89.974523
_cell_angle_beta	89.982756
_cell_angle_gamma	90.028446
loop_
_atom_site_label
_atom_site_type_symbol
_atom_site_fract_x
_atom_site_fract_y
_atom_site_fract_z
Zn1	Zn	1.200008	-0.295649	-0.443864
Zn2	Zn	1.199908	-0.419848	-0.312606
Zn3	Zn	1.068745	-0.295677	-0.312612
Zn4	Zn	1.068696	-0.419802	-0.443830
O5	O	1.134339	-0.357744	-0.378228
O6	O	1.309842	-0.312132	-0.426464
O7	O	1.182488	-0.403407	-0.202760
O8	O	1.086220	-0.191748	-0.330039
O9	O	1.309768	-0.403380	-0.330030
O10	O	1.182658	-0.191728	-0.426469
O11	O	1.086123	-0.312179	-0.202764
O12	O	0.958892	-0.312135	-0.330006
O13	O	1.086136	-0.403302	-0.553681
O14	O	0.958855	-0.403329	-0.426412
O15	O	1.182610	-0.312087	-0.553706
O16	O	1.182440	-0.523766	-0.329997
O17	O	1.086039	-0.523733	-0.426407
C18	C	0.930391	-0.357730	-0.378206
C19	C	0.843142	-0.357743	-0.378216
C20	C	0.802153	-0.405299	-0.428333
C21	C	0.720173	-0.405301	-0.428346
C22	C	0.679182	-0.357749	-0.378236
C23	C	0.720176	-0.310187	-0.328116
C24	C	0.802155	-0.310182	-0.328108
C25	C	0.549306	-0.310202	-0.328135
C26	C	0.467322	-0.310207	-0.328142
C27	C	0.467324	-0.405320	-0.428373
C28	C	0.549303	-0.405315	-0.428365
C29	C	0.590291	-0.357754	-0.378244
C30	C	1.134244	-0.550696	-0.378215
C31	C	1.134276	-0.633242	-0.378236
C32	C	1.081904	-0.832701	-0.430645
C33	C	1.062772	-0.882144	-0.359016
C34	C	1.134353	-0.784372	-0.378246
C35	C	1.153524	-0.882011	-0.449883
C36	C	1.134426	-0.930357	-0.378262
C37	C	1.115183	-0.832728	-0.306579
C38	C	1.205968	-0.832591	-0.397495
C39	C	1.186863	-0.882011	-0.325816
C40	C	1.134309	-0.700274	-0.378238
C41	C	1.134470	-1.014454	-0.378262
C42	C	1.339083	-0.357758	-0.378250
C43	C	1.426333	-0.357764	-0.378260
C44	C	1.134379	-0.357686	-0.582972
C45	C	1.134395	-0.357662	-0.670222
C46	C	1.134456	-0.164038	-0.378258
C47	C	1.134505	-0.081492	-0.378271
C48	C	1.084234	-0.310154	-0.711214
C49	C	1.084246	-0.310137	-0.793194
C50	C	1.134426	-0.357625	-0.834182
C51	C	1.184590	-0.405138	-0.793184
C52	C	1.184572	-0.405158	-0.711205
C53	C	1.184624	-0.405092	-0.964054
C54	C	1.184642	-0.405071	-1.046039
C55	C	1.084298	-0.310070	-1.046043
C56	C	1.084280	-0.310090	-0.964064
C57	C	1.134446	-0.357603	-0.923073
C58	C	1.134345	-0.357748	-0.174280
C59	C	1.134480	-0.357563	-0.087031
H60	H	0.835522	-0.444024	-0.469136
H61	H	1.266482	-0.810810	-0.413795
H62	H	0.582677	-0.271466	-0.287328
Br63	Br	0.857784	-0.245635	-0.260093
Br64	Br	1.016220	-0.245585	-1.101673
H65	H	1.169709	-0.903660	-0.510460
H66	H	1.231248	-0.903526	-0.281460
H67	H	0.686803	-0.444027	-0.469156
Br68	Br	1.016135	-0.245696	-0.655596
H69	H	0.686795	-0.271467	-0.287319
Br70	Br	0.604933	-0.469858	-0.496364
H71	H	1.037485	-0.811049	-0.474894
Br72	Br	1.016124	-0.245699	-0.848823
Br73	Br	1.016187	-0.245635	-0.908438
H74	H	1.002244	-0.903926	-0.342749
H75	H	1.225443	-0.443808	-0.826563
H76	H	1.098927	-0.811169	-0.245986
Br77	Br	1.252701	-0.469579	-0.908423
H78	H	1.225503	-0.443740	-1.079409
Br79	Br	1.252646	-0.469642	-0.655573
Br80	Br	0.411698	-0.469858	-0.496405
H81	H	0.433950	-0.271478	-0.287347
