data_functionalizedCrystal
_audit_creation_method	'MofGen! by Chris Wilmer'
_symmetry_space_group_name_H-M	'P1'
_symmetry_Int_Tables_number	1
_symmetry_cell_setting	triclinic
loop_
_symmetry_equiv_pos_as_xyz
  x,y,z
_cell_length_a	17.699083
_cell_length_b	10.540539
_cell_length_c	16.776229
_cell_angle_alpha	89.995514
_cell_angle_beta	89.998886
_cell_angle_gamma	83.904253
loop_
_atom_site_label
_atom_site_type_symbol
_atom_site_fract_x
_atom_site_fract_y
_atom_site_fract_z
O1	O	1.005122	0.160520	-0.066173
O2	O	0.784880	0.181404	-0.066198
O3	O	0.900026	-0.013836	-0.066184
O4	O	0.889976	0.355761	-0.066187
O5	O	0.900010	-0.013848	0.066393
O6	O	0.784864	0.181392	0.066378
O7	O	1.005107	0.160508	0.066404
Zn8	Zn	0.894983	0.170948	0.087440
Zn9	Zn	0.895003	0.170964	-0.087235
O10	O	0.889961	0.355749	0.066389
C11	C	0.756670	0.180650	0.000087
C12	C	0.672637	0.178405	0.000077
C13	C	0.624761	0.293007	0.000076
C14	C	0.545804	0.290890	0.000086
C15	C	0.514725	0.174170	0.000092
C16	C	0.562607	0.059559	0.000095
C17	C	0.641562	0.061677	0.000090
C18	C	0.244188	0.051014	0.000115
C19	C	0.165226	0.048904	0.000117
C20	C	0.148430	0.280227	0.000111
C21	C	0.227386	0.282345	0.000106
C22	C	0.275261	0.167735	0.000113
C23	C	0.360875	0.170032	0.000104
C24	C	0.429112	0.171872	0.000096
C25	C	0.899264	-0.061131	0.000103
C26	C	0.897009	-0.202038	0.000098
C27	C	0.810610	-0.383885	-0.000209
C28	C	0.812896	-0.237308	0.000089
C29	C	0.937480	-0.264443	0.075811
C30	C	0.934609	-0.410935	0.075874
C31	C	0.936337	-0.411471	-0.074890
C32	C	0.937112	-0.264503	-0.075891
C33	C	1.033316	0.161263	0.000117
C34	C	1.117349	0.163508	0.000122
C35	C	0.890722	0.403044	0.000101
C36	C	0.892977	0.543951	0.000100
N37	N	0.894974	0.170937	0.206652
N38	N	0.895018	0.170966	-0.206446
C39	C	0.945977	0.084520	0.248375
C40	C	0.945981	0.084519	0.331827
C41	C	0.894986	0.170942	0.373555
C42	C	0.843978	0.257363	0.331825
C43	C	0.843971	0.257357	0.248375
C44	C	0.844005	0.257388	0.668372
C45	C	0.844018	0.257390	0.751829
C46	C	0.946016	0.084550	0.751825
C47	C	0.946009	0.084544	0.668374
C48	C	0.894998	0.170960	0.626652
C49	C	0.894993	0.170958	0.536164
C50	C	0.894994	0.170950	0.464041
H51	H	0.252686	0.377390	0.000098
Br52	Br	0.890968	-0.463203	-0.170536
Br53	Br	1.037598	-0.492034	-0.075729
H54	H	0.802453	0.327726	0.365804
H55	H	0.907500	-0.223098	-0.131901
H56	H	0.998438	-0.241403	-0.080455
Br57	Br	0.309152	-0.104529	0.000127
Br58	Br	0.755282	-0.433835	0.089491
H59	H	0.109440	0.373548	0.000109
Br60	Br	0.520428	-0.098850	0.000110
Br61	Br	0.480832	0.446429	0.000083
Br62	Br	1.015195	-0.032767	0.191754
Br63	Br	0.123047	-0.109513	0.000122
H64	H	0.650060	0.388054	0.000071
Br65	Br	0.774745	0.374634	0.191750
Br66	Br	0.884734	-0.457040	0.170192
H67	H	0.680543	-0.031644	0.000090
H68	H	0.781051	-0.194118	-0.054185
H69	H	0.987536	0.014174	0.634403
H70	H	0.780815	-0.194971	0.054446
Br71	Br	0.755236	-0.430524	-0.090707
Br72	Br	1.040436	-0.229076	0.080519
H73	H	0.987511	0.014151	0.365798
H74	H	0.987549	0.014181	0.785804
H75	H	0.802472	0.327753	0.634409
Br76	Br	1.035430	-0.492738	0.081621
H77	H	0.909354	-0.221334	0.132147
Br78	Br	0.774806	0.374687	0.808459
