data_functionalizedCrystal
_audit_creation_method	'MofGen! by Chris Wilmer'
_symmetry_space_group_name_H-M	'P1'
_symmetry_Int_Tables_number	1
_symmetry_cell_setting	triclinic
loop_
_symmetry_equiv_pos_as_xyz
  x,y,z
_cell_length_a	12.759401
_cell_length_b	12.594516
_cell_length_c	12.759393
_cell_angle_alpha	89.970876
_cell_angle_beta	89.981504
_cell_angle_gamma	90.016214
loop_
_atom_site_label
_atom_site_type_symbol
_atom_site_fract_x
_atom_site_fract_y
_atom_site_fract_z
Zn1	Zn	1.606246	-0.423675	-0.593999
Zn2	Zn	1.606136	-0.601694	-0.418327
Zn3	Zn	1.430547	-0.423730	-0.418339
Zn4	Zn	1.430532	-0.601612	-0.593968
O5	O	1.518365	-0.512678	-0.506158
O6	O	1.753252	-0.447300	-0.570704
O7	O	1.582804	-0.578144	-0.271307
O8	O	1.453907	-0.274777	-0.441658
O9	O	1.753171	-0.578090	-0.441638
O10	O	1.582991	-0.274736	-0.570715
O11	O	1.453800	-0.447395	-0.271316
O12	O	1.283524	-0.447316	-0.441628
O13	O	1.453880	-0.577951	-0.740993
O14	O	1.283513	-0.578005	-0.570663
O15	O	1.582976	-0.447221	-0.741016
O16	O	1.582789	-0.750629	-0.441608
O17	O	1.453774	-0.750569	-0.570651
C18	C	1.245398	-0.512658	-0.506144
C19	C	1.128621	-0.512676	-0.506163
C20	C	1.073781	-0.580834	-0.573240
C21	C	0.964057	-0.580848	-0.573251
C22	C	0.964023	-0.444541	-0.439099
C23	C	1.073745	-0.444523	-0.439094
C24	C	1.073799	-0.659533	-0.650688
C25	C	0.964075	-0.659547	-0.650700
C26	C	1.518296	-0.789219	-0.506148
C27	C	1.518363	-0.907524	-0.506179
C28	C	1.448185	-0.976783	-0.576316
C29	C	1.422585	-1.047654	-0.480449
C30	C	1.544058	-1.047453	-0.602062
C31	C	1.492713	-0.976836	-0.410261
C32	C	1.614230	-0.976629	-0.531938
C33	C	1.588667	-1.047468	-0.436006
C34	C	1.792398	-0.512698	-0.506173
C35	C	1.909175	-0.512707	-0.506179
C36	C	1.518439	-0.512570	-0.780192
C37	C	1.518470	-0.512525	-0.896968
C38	C	1.518463	-0.235057	-0.506192
C39	C	1.518505	-0.116752	-0.506206
C40	C	1.585700	-0.444447	-0.951844
C41	C	1.585725	-0.444409	-1.061568
C42	C	1.451288	-0.580534	-1.061531
C43	C	1.451258	-0.580567	-0.951809
C44	C	1.663319	-0.365859	-0.951866
C45	C	1.663344	-0.365821	-1.061590
C46	C	1.518352	-0.512708	-0.233191
C47	C	1.518525	-0.512454	-0.116415
H48	H	0.919330	-0.389052	-0.384496
C49	C	1.028718	-0.611856	-0.827230
C50	C	1.114051	-0.629849	-0.760576
H51	H	1.053571	-0.593523	-0.895065
H52	H	0.987360	-0.674416	-0.831553
H53	H	0.987362	-0.555410	-0.800282
H54	H	1.155403	-0.686299	-0.787520
H55	H	1.155426	-0.567281	-0.756256
H56	H	1.341578	-1.078874	-0.458684
C57	C	1.393795	-0.972064	-0.756392
C58	C	1.367931	-0.934877	-0.656270
H59	H	1.344244	-0.946196	-0.805745
H60	H	1.461814	-0.947735	-0.774842
H61	H	1.392852	-1.047483	-0.756491
H62	H	1.368882	-0.859457	-0.656169
H63	H	1.299895	-0.959200	-0.637816
H64	H	1.470943	-0.945945	-0.329163
C65	C	1.672936	-1.051938	-0.739153
C66	C	1.573330	-1.089332	-0.711506
H67	H	1.691002	-1.077797	-0.806718
H68	H	1.672458	-0.976530	-0.740086
H69	H	1.722903	-1.076145	-0.689412
H70	H	1.523362	-1.065118	-0.761244
H71	H	1.573800	-1.164756	-0.710582
H72	H	1.107811	-0.737797	-0.621407
C73	C	1.768864	-1.051674	-0.381985
C74	C	1.668865	-1.089117	-0.355866
H75	H	1.818368	-1.077386	-0.332504
H76	H	1.787218	-1.075986	-0.450011
H77	H	1.768827	-0.976254	-0.381135
H78	H	1.668900	-1.164537	-0.356724
H79	H	1.650507	-1.064811	-0.287822
C80	C	1.009181	-0.838254	-0.603111
C81	C	0.923839	-0.770795	-0.621089
H82	H	0.984338	-0.906928	-0.584826
H83	H	1.050560	-0.842807	-0.664839
H84	H	1.050513	-0.810781	-0.547462
H85	H	0.882511	-0.798264	-0.676744
H86	H	0.882443	-0.766246	-0.559354
H87	H	1.634232	-0.287500	-1.095635
H88	H	1.396564	-0.635930	-1.106196
C89	C	1.616118	-0.187072	-0.997054
C90	C	1.633924	-0.254591	-0.911681
H91	H	1.597963	-0.118385	-0.972243
H92	H	1.677871	-0.182581	-1.038410
H93	H	1.560429	-0.214454	-1.038399
H94	H	1.689618	-0.227213	-0.870340
H95	H	1.572163	-0.259078	-0.870308
H96	H	1.695219	-0.945412	-0.553750
H97	H	1.396510	-0.635998	-0.907134
H98	H	0.930078	-0.630122	-0.728050
C99	C	1.836173	-0.431890	-0.987638
C100	C	1.767634	-0.405734	-0.905909
H101	H	1.900573	-0.456502	-0.959263
H102	H	1.805757	-0.486073	-1.029517
H103	H	1.848682	-0.370827	-1.029552
H104	H	1.755119	-0.466799	-0.864000
H105	H	1.798055	-0.351547	-0.864013
H106	H	1.118392	-0.389014	-0.384480
H107	H	1.744714	-0.387898	-1.091369
