data_functionalizedCrystal
_audit_creation_method	'MofGen! by Chris Wilmer'
_symmetry_space_group_name_H-M	'P1'
_symmetry_Int_Tables_number	1
_symmetry_cell_setting	triclinic
loop_
_symmetry_equiv_pos_as_xyz
  x,y,z
_cell_length_a	12.759401
_cell_length_b	18.050583
_cell_length_c	12.759399
_cell_angle_alpha	89.966732
_cell_angle_beta	90.015542
_cell_angle_gamma	89.987059
loop_
_atom_site_label
_atom_site_type_symbol
_atom_site_fract_x
_atom_site_fract_y
_atom_site_fract_z
Zn1	Zn	1.606193	-0.419867	-0.418179
Zn2	Zn	1.606104	-0.295684	-0.593902
Zn3	Zn	1.430513	-0.295698	-0.418239
Zn4	Zn	1.430483	-0.419839	-0.593818
O5	O	1.518323	-0.357772	-0.506034
O6	O	1.753203	-0.403400	-0.441499
O7	O	1.582787	-0.191761	-0.570660
O8	O	1.453867	-0.312187	-0.271210
O9	O	1.753137	-0.312163	-0.570602
O10	O	1.582939	-0.403414	-0.271166
O11	O	1.453781	-0.191771	-0.441601
O12	O	1.283488	-0.312160	-0.441520
O13	O	1.453816	-0.523767	-0.570459
O14	O	1.283466	-0.403365	-0.570517
O15	O	1.582910	-0.523788	-0.441418
O16	O	1.582757	-0.312135	-0.740912
O17	O	1.453729	-0.403352	-0.740850
C18	C	1.245356	-0.357761	-0.506016
C19	C	1.128579	-0.357774	-0.506034
C20	C	1.073752	-0.405355	-0.438932
C21	C	0.964028	-0.405360	-0.438942
C22	C	0.963968	-0.310202	-0.573167
C23	C	1.073690	-0.310194	-0.573150
C24	C	0.814105	-0.432058	-0.315103
C25	C	0.759274	-0.479650	-0.248010
C26	C	0.794921	-0.552131	-0.231993
C27	C	0.885397	-0.577035	-0.283085
C28	C	0.940222	-0.529447	-0.350186
C29	C	0.904577	-0.456955	-0.366183
C30	C	1.223615	-0.283503	-0.696990
C31	C	1.278442	-0.235919	-0.764097
C32	C	1.242798	-0.163436	-0.780125
C33	C	1.152319	-0.138535	-0.729052
C34	C	1.097491	-0.186119	-0.661945
C35	C	1.133143	-0.258601	-0.645916
C36	C	1.518370	-0.551478	-0.505922
C37	C	1.518389	-0.634023	-0.505874
C38	C	1.588661	-0.833485	-0.435668
C39	C	1.492833	-0.882883	-0.409955
C40	C	1.518432	-0.785154	-0.505856
C41	C	1.614298	-0.882838	-0.531503
C42	C	1.518481	-0.931139	-0.505837
C43	C	1.422553	-0.833464	-0.480094
C44	C	1.544082	-0.833415	-0.601686
C45	C	1.448188	-0.882790	-0.576010
C46	C	1.518405	-0.701055	-0.505865
C47	C	1.518497	-1.015236	-0.505829
C48	C	1.792357	-0.357783	-0.506053
C49	C	1.909133	-0.357787	-0.506061
C50	C	1.518259	-0.357755	-0.779002
C51	C	1.518327	-0.357773	-0.895778
C52	C	1.518338	-0.164820	-0.506070
C53	C	1.518521	-0.082274	-0.505822
C54	C	1.585589	-0.310330	-0.950638
C55	C	1.585656	-0.310355	-1.060362
C56	C	1.451192	-0.405267	-1.060358
C57	C	1.451130	-0.405245	-0.950636
C58	C	1.709669	-0.283925	-1.210241
C59	C	1.776922	-0.236471	-1.265104
C60	C	1.793097	-0.164010	-1.229568
C61	C	1.742004	-0.138987	-1.139171
C62	C	1.674744	-0.186437	-1.084313
C63	C	1.658589	-0.258909	-1.119848
C64	C	1.327116	-0.431667	-0.800754
C65	C	1.259850	-0.479114	-0.745895
C66	C	1.243664	-0.551577	-0.781429
C67	C	1.294739	-0.576597	-0.871830
C68	C	1.362005	-0.529150	-0.926689
C69	C	1.378192	-0.456688	-0.891147
C70	C	1.518417	-0.357805	-0.232001
C71	C	1.518456	-0.357819	-0.115224
H72	H	0.914406	-0.636060	-0.270047
C73	C	1.367899	-0.911877	-0.656168
H74	H	1.402901	-0.940835	-0.707528
H75	H	1.317260	-0.941523	-0.621251
H76	H	1.334013	-0.871216	-0.689187
H77	H	0.919264	-0.271464	-0.627811
C78	C	1.723790	-0.912132	-0.560828
H79	H	1.773581	-0.895241	-0.510896
H80	H	1.722874	-0.964753	-0.561241
H81	H	1.742474	-0.894459	-0.628432
H82	H	0.685609	-0.459366	-0.206411
H83	H	1.565792	-0.811671	-0.682713
H84	H	1.633147	-0.166065	-1.010712
H85	H	1.755170	-0.079979	-1.110251
H86	H	1.403597	-0.549528	-1.000295
H87	H	1.647954	-0.811834	-0.376275
H88	H	0.785080	-0.373035	-0.328127
H89	H	1.471152	-0.904612	-0.328906
C90	C	1.867076	-0.111814	-1.289912
H91	H	1.895191	-0.137094	-1.348832
H92	H	1.829137	-0.069549	-1.312963
H93	H	1.922561	-0.096610	-1.245167
H94	H	1.023818	-0.165839	-0.620359
H95	H	1.123292	-0.079515	-0.742107
C96	C	1.134132	-0.457686	-0.365104
H97	H	1.207332	-0.450873	-0.374709
H98	H	1.116154	-0.446906	-0.294498
H99	H	1.116169	-0.507568	-0.380572
H100	H	1.341477	-0.811867	-0.458300
H101	H	1.818522	-0.256851	-1.338705
C102	C	1.303100	-0.111092	-0.853947
H103	H	1.268906	-0.064359	-0.856177
H104	H	1.372634	-0.104855	-0.828841
H105	H	1.304942	-0.131767	-0.922374
H106	H	1.640307	-0.271676	-0.905975
C107	C	1.691888	-0.363637	-1.249322
H108	H	1.644527	-0.388319	-1.203698
H109	H	1.663371	-0.362364	-1.318079
H110	H	1.756804	-0.389413	-1.250284
C111	C	1.377271	-0.457475	-1.120704
H112	H	1.386931	-0.450688	-1.193908
H113	H	1.392587	-0.507380	-1.102652
H114	H	1.306677	-0.446552	-1.102790
H115	H	1.340297	-0.372664	-0.771808
C116	C	1.276942	-0.656306	-0.910920
H117	H	1.229575	-0.680982	-0.865295
H118	H	1.248423	-0.655028	-0.979675
H119	H	1.341851	-0.682089	-0.911884
C120	C	1.169659	-0.603766	-0.721097
H121	H	1.167333	-0.650504	-0.755216
H122	H	1.194692	-0.610033	-0.651532
H123	H	1.101285	-0.582961	-0.719345
C124	C	1.039739	-0.556828	-0.406381
H125	H	1.067284	-0.518104	-0.448636
H126	H	1.090501	-0.571186	-0.355819
H127	H	1.022823	-0.598083	-0.449371
C128	C	0.734613	-0.604479	-0.158188
H129	H	0.675630	-0.579266	-0.130051
H130	H	0.711659	-0.646680	-0.196250
H131	H	0.779344	-0.619771	-0.102710
C132	C	1.377970	-0.263309	-0.820276
H133	H	1.391358	-0.313289	-0.801109
H134	H	1.368148	-0.260229	-0.893951
H135	H	1.435814	-0.233308	-0.800404
C136	C	1.203667	-0.451593	-0.646456
H137	H	1.222950	-0.401644	-0.633138
H138	H	1.129992	-0.454541	-0.656328
H139	H	1.223420	-0.481613	-0.588545
H140	H	1.252652	-0.342523	-0.683937
