data_functionalizedCrystal
_audit_creation_method	'MofGen! by Chris Wilmer'
_symmetry_space_group_name_H-M	'P1'
_symmetry_Int_Tables_number	1
_symmetry_cell_setting	triclinic
loop_
_symmetry_equiv_pos_as_xyz
  x,y,z
_cell_length_a	6.817900
_cell_length_b	14.858565
_cell_length_c	19.453030
_cell_angle_alpha	95.586750
_cell_angle_beta	101.707737
_cell_angle_gamma	104.523916
loop_
_atom_site_label
_atom_site_type_symbol
_atom_site_fract_x
_atom_site_fract_y
_atom_site_fract_z
V1	V	-4.012060	-0.129639	-0.219196
O2	O	-3.994512	0.005233	-0.214822
O3	O	-3.968815	-0.256094	-0.217891
O4	O	-3.954904	-0.128082	-0.314706
O5	O	-4.008519	-0.123665	-0.117336
V6	V	-4.496155	-0.113455	-0.206989
O7	O	-4.272065	-0.165140	-0.245973
O8	O	-4.686348	-0.077954	-0.180212
O9	O	-4.316194	0.013000	-0.208294
O10	O	-4.631100	-0.248327	-0.211363
O11	O	-4.617093	-0.119429	-0.308849
O12	O	-4.330104	-0.115012	-0.111479
C13	C	-3.815353	-0.286908	-0.214483
C14	C	-3.861223	-0.390289	-0.214052
C15	C	-4.029112	-0.768853	-0.212485
C16	C	-3.982392	-0.663525	-0.212921
C17	C	-3.945168	-0.579574	-0.213268
C18	C	-3.898446	-0.474240	-0.213705
C19	C	-3.797608	-0.123614	-0.337980
C20	C	-3.832194	-0.123178	-0.416062
C21	C	-3.891151	-0.208184	-0.462896
C22	C	-3.923673	-0.207784	-0.536264
C23	C	-3.897193	-0.122372	-0.562793
C24	C	-3.838238	-0.037355	-0.515948
C25	C	-3.805738	-0.037758	-0.442582
N26	N	-3.802788	-0.055406	-0.668185
N27	N	-3.833660	-0.055028	-0.737879
C28	C	-3.995115	-0.121152	-0.783838
N29	N	-4.124514	-0.187682	-0.757470
N30	N	-4.093632	-0.188061	-0.687769
C31	C	-3.932430	-0.121925	-0.642344
C32	C	-4.089342	-0.205731	-0.910227
C33	C	-4.121875	-0.205327	-0.983595
C34	C	-4.036417	-0.034895	-0.963277
C35	C	-4.003907	-0.035301	-0.889911
C36	C	-4.030362	-0.120722	-0.863390
C37	C	-4.132998	0.043809	-0.211700
C38	C	-4.066366	0.147189	-0.212136
C39	C	-4.150744	-0.119483	-0.088201
C40	C	-4.095396	-0.119914	-0.010119
H41	H	-3.912707	-0.277740	-0.441309
C42	C	-3.988527	-0.301301	-0.587791
N43	N	-4.037370	-0.371738	-0.626599
C44	C	-4.007293	0.059060	-0.992455
N45	N	-3.985361	0.129829	-1.014434
C46	C	-3.939013	0.058214	-0.838389
N47	N	-3.890132	0.128655	-0.799583
H48	H	-4.110887	-0.275285	-0.888633
H49	H	-3.816685	0.032188	-0.537552
C50	C	-4.186706	-0.298845	-1.035114
N51	N	-4.235523	-0.369285	-1.073919
C52	C	-3.740858	0.055760	-0.391061
N53	N	-3.691980	0.126200	-0.352254
