data_functionalizedCrystal
_audit_creation_method	'MofGen! by Chris Wilmer'
_symmetry_space_group_name_H-M	'P1'
_symmetry_Int_Tables_number	1
_symmetry_cell_setting	triclinic
loop_
_symmetry_equiv_pos_as_xyz
  x,y,z
_cell_length_a	15.995350
_cell_length_b	27.732048
_cell_length_c	15.072220
_cell_angle_alpha	89.993868
_cell_angle_beta	89.991149
_cell_angle_gamma	83.067515
loop_
_atom_site_label
_atom_site_type_symbol
_atom_site_fract_x
_atom_site_fract_y
_atom_site_fract_z
O1	O	1.110190	0.062301	-0.073717
O2	O	0.866315	0.069995	-0.073737
O3	O	0.995827	-0.004216	-0.073709
O4	O	0.980678	0.136512	-0.073744
O5	O	0.995795	-0.004212	0.073856
O6	O	0.866283	0.069999	0.073828
O7	O	1.110158	0.062305	0.073848
Zn8	Zn	0.988215	0.066153	0.097267
Zn9	Zn	0.988257	0.066148	-0.097156
O10	O	0.980646	0.136516	0.073821
C11	C	0.835108	0.069679	0.000044
C12	C	0.742170	0.068726	0.000037
C13	C	0.404467	0.065301	0.000056
C14	C	0.452585	0.012449	0.000399
C15	C	0.549263	0.013403	0.000060
C16	C	0.572006	0.067000	0.000047
C17	C	0.530599	0.093065	-0.084223
C18	C	0.433981	0.091738	-0.084287
C19	C	0.433592	0.092834	0.083522
C20	C	0.530537	0.092822	0.084630
C21	C	0.666691	0.067962	0.000039
C22	C	0.309782	0.064340	0.000058
C23	C	0.995493	-0.022222	0.000076
C24	C	0.994535	-0.075881	0.000083
C25	C	1.065040	-0.414392	0.000043
C26	C	1.061487	-0.616067	0.000030
O27	O	1.125959	-0.647045	-0.000004
N28	N	0.984692	-0.635522	0.000025
C29	C	0.908780	-0.604555	0.000017
O30	O	0.843380	-0.625730	0.000003
C31	C	0.912334	-0.402881	0.000023
C32	C	0.989134	-0.383429	0.000037
C33	C	1.141834	-0.394940	0.000056
C34	C	1.142721	-0.344524	0.000064
C35	C	1.066815	-0.313561	0.000059
C36	C	0.990021	-0.333013	0.000045
C37	C	0.836422	-0.371914	0.000009
C38	C	0.837317	-0.321493	0.000008
C39	C	0.914117	-0.302041	0.000023
C40	C	0.915002	-0.251634	0.000048
N41	N	0.991797	-0.232179	0.000053
C42	C	1.067703	-0.263142	0.000059
C43	C	0.906920	-0.710437	0.000015
C44	C	0.906031	-0.760855	0.000015
C45	C	1.058739	-0.772364	0.000027
C46	C	1.059627	-0.721945	0.000033
C47	C	0.983715	-0.690982	0.000021
C48	C	1.069561	-0.157265	0.000076
C49	C	1.070442	-0.106844	0.000088
C50	C	0.917734	-0.095340	0.000072
C51	C	0.916853	-0.145756	0.000065
C52	C	0.992773	-0.176718	0.000064
O53	O	0.850565	-0.220628	0.000072
O54	O	1.133094	-0.241958	0.000053
C55	C	1.064153	-0.464808	0.000035
C56	C	0.987359	-0.484260	0.000022
C57	C	0.911452	-0.453297	0.000016
C58	C	0.986470	-0.534679	0.000022
C59	C	1.062377	-0.565642	0.000027
C60	C	1.139172	-0.546187	0.000032
C61	C	1.140059	-0.495771	0.000040
C62	C	0.834657	-0.472752	0.000011
C63	C	0.833776	-0.523168	0.000004
C64	C	0.909683	-0.554132	0.000009
C65	C	1.141364	0.062621	0.000066
C66	C	1.234302	0.063575	0.000066
C67	C	0.980980	0.154523	0.000034
C68	C	0.981938	0.208182	0.000021
N69	N	0.988193	0.066156	0.229956
N70	N	0.988287	0.066140	-0.229845
C71	C	0.988256	0.066146	0.589158
C72	C	0.918727	0.105721	0.551536
C73	C	0.918884	0.105866	0.448710
C74	C	0.988224	0.066151	0.410954
C75	C	1.075446	0.077167	0.448249
C76	C	1.075056	0.077448	0.551106
C77	C	0.971342	0.015437	0.551269
C78	C	0.969333	0.015775	0.448405
C79	C	0.988211	0.066153	0.310240
C80	C	0.988274	0.066145	0.689871
H81	H	0.544216	0.132441	-0.087365
N82	N	0.411336	0.067875	-0.163286
N83	N	0.376191	0.030090	-0.158038
H84	H	0.360202	0.013235	-0.213831
N85	N	0.566533	0.070359	-0.162883
N86	N	0.622624	0.034985	-0.157098
H87	H	0.648011	0.018951	-0.212650
H88	H	0.577944	-0.007086	0.060468
H89	H	1.203650	-0.420146	0.000057
H90	H	0.413266	0.075558	0.147396
H91	H	0.929308	0.143139	0.577366
H92	H	0.845100	-0.685230	0.000005
H93	H	0.434323	-0.008675	0.060832
H94	H	1.022054	-0.014014	0.575598
N95	N	0.757978	-0.391782	-0.000004
N96	N	0.740413	-0.418634	0.062189
H97	H	0.685007	-0.432666	0.062179
N98	N	0.755328	-0.543042	-0.000001
N99	N	0.737773	-0.569898	0.062191
H100	H	0.682371	-0.583934	0.062182
H101	H	0.909157	0.004845	0.577257
N102	N	0.393113	0.141717	0.084217
N103	N	0.343021	0.156271	0.023573
H104	H	0.314428	0.190793	0.024056
N105	N	1.093863	0.123845	0.581170
N106	N	1.047066	0.161463	0.559945
H107	H	1.060346	0.194233	0.581171
N108	N	1.141866	0.042661	0.582318
N109	N	1.188637	0.018255	0.528132
H110	H	1.235824	-0.006312	0.550171
N111	N	0.549182	0.141852	0.090998
N112	N	0.593530	0.158638	0.033039
H113	H	0.606698	0.193268	0.037530
N114	N	0.759765	-0.289873	-0.000015
N115	N	0.691206	-0.307252	-0.000033
H116	H	0.636434	-0.284921	-0.000050
H117	H	0.905175	0.007416	0.424030
N118	N	0.565087	0.068942	0.162833
N119	N	0.620049	0.033039	0.156367
H120	H	0.644456	0.016172	0.211597
N121	N	0.584556	-0.012479	-0.075845
N122	N	0.537776	-0.031300	-0.128738
H123	H	0.562700	-0.049580	-0.182350
N124	N	1.141863	0.041965	0.417566
N125	N	1.125614	0.008287	0.367749
H126	H	1.172519	-0.016576	0.346078
N127	N	1.148902	-0.086984	0.000110
N128	N	1.216668	-0.114639	0.000114
H129	H	1.272080	-0.100614	0.000129
N130	N	0.392885	0.140412	-0.089088
N131	N	0.404760	0.170287	-0.029680
H132	H	0.375737	0.204663	-0.033074
N133	N	0.428365	-0.013947	-0.074968
N134	N	0.459746	-0.056960	-0.086861
H135	H	0.442635	-0.075603	-0.140085
H136	H	1.090825	0.113727	0.422472
H137	H	1.122164	-0.706111	0.000044
N138	N	1.136278	-0.803996	0.000047
N139	N	1.152805	-0.833418	0.062251
H140	H	1.207564	-0.855760	0.062262
N141	N	1.147118	-0.188880	0.000073
N142	N	1.215673	-0.171497	0.000085
H143	H	1.270448	-0.193824	0.000088
N144	N	1.221179	-0.324666	0.000075
N145	N	1.288940	-0.352326	0.000076
H146	H	1.344356	-0.338305	0.000081
H147	H	0.843493	-0.776688	0.000019
N148	N	1.028787	-0.022912	0.416186
N149	N	1.004077	-0.056583	0.371929
H150	H	1.046072	-0.083907	0.349179
N151	N	0.838399	-0.165621	0.000077
N152	N	0.770631	-0.137967	0.000086
H153	H	0.715220	-0.151993	0.000093
N154	N	0.932358	0.153073	0.417832
N155	N	0.994834	0.158161	0.370446
H156	H	1.004352	0.191504	0.348645
H157	H	0.855933	-0.070121	0.000071
H158	H	1.202598	-0.479938	0.000051
N159	N	1.216702	-0.577828	0.000047
N160	N	1.215886	-0.622842	0.000043
H161	H	1.270638	-0.645190	0.000051
H162	H	0.772844	-0.447546	0.000005
N163	N	0.837404	0.097868	0.417088
N164	N	0.780027	0.092135	0.470985
H165	H	0.722433	0.086577	0.448658
H166	H	0.853661	0.099266	0.576294
