data_functionalizedCrystal
_audit_creation_method	'MofGen! by Chris Wilmer'
_symmetry_space_group_name_H-M	'P1'
_symmetry_Int_Tables_number	1
_symmetry_cell_setting	triclinic
loop_
_symmetry_equiv_pos_as_xyz
  x,y,z
_cell_length_a	11.792254
_cell_length_b	10.489741
_cell_length_c	10.868271
_cell_angle_alpha	90.001126
_cell_angle_beta	90.004308
_cell_angle_gamma	84.368886
loop_
_atom_site_label
_atom_site_type_symbol
_atom_site_fract_x
_atom_site_fract_y
_atom_site_fract_z
O1	O	1.507372	0.174902	0.102321
O2	O	2.007372	0.674902	0.602321
O3	O	1.177082	0.192904	0.102323
O4	O	1.677082	0.692904	0.602323
O5	O	1.349743	-0.001720	0.102314
O6	O	1.849743	0.498280	0.602314
O7	O	1.334711	0.369526	0.102329
O8	O	1.834711	0.869526	0.602329
O9	O	1.349727	-0.001714	-0.102330
O10	O	1.849727	0.498286	0.397670
O11	O	1.177066	0.192910	-0.102322
O12	O	1.677066	0.692910	0.397678
O13	O	1.507357	0.174909	-0.102324
O14	O	2.007357	0.674909	0.397676
Zn15	Zn	1.342209	0.183910	-0.134815
Zn16	Zn	1.842209	0.683910	0.365185
Zn17	Zn	1.342230	0.183902	0.134814
Zn18	Zn	1.842230	0.683902	0.634814
O19	O	1.334696	0.369532	-0.102315
O20	O	1.834696	0.869532	0.397685
C21	C	1.134780	0.191773	0.000001
C22	C	1.634780	0.691773	0.500001
C23	C	1.008758	0.188379	0.000002
C24	C	1.508758	0.688379	0.500002
C25	C	0.906414	0.185621	0.000007
C26	C	1.406414	0.685621	0.500007
C27	C	0.778018	0.182173	0.000008
C28	C	1.278018	0.682173	0.500008
C29	C	1.348600	-0.049245	-0.000007
C30	C	1.848600	0.450755	0.499993
C31	C	1.345203	-0.190863	-0.000005
C32	C	1.845203	0.309137	0.499995
C33	C	1.235344	-0.258634	0.000005
C34	C	1.735344	0.241366	0.500005
C35	C	1.287233	-0.350928	-0.100896
C36	C	1.787233	0.149072	0.399104
C37	C	1.287274	-0.350909	0.100868
C38	C	1.787274	0.149091	0.600868
C39	C	1.397137	-0.281291	-0.100989
C40	C	1.897137	0.218709	0.399011
C41	C	1.397163	-0.281262	0.100865
C42	C	1.897163	0.218738	0.600865
C43	C	1.449132	-0.373529	-0.000060
C44	C	1.949132	0.126471	0.499940
C45	C	1.549658	0.176040	0.000001
C46	C	2.049658	0.676040	0.500001
C47	C	1.675680	0.179434	0.000008
C48	C	2.175680	0.679434	0.500008
C49	C	1.335839	0.417057	0.000009
C50	C	1.835839	0.917057	0.500009
C51	C	1.339235	0.558675	0.000015
C52	C	1.839235	1.058675	0.500015
N53	N	1.342203	0.183915	-0.318829
N54	N	1.842203	0.683915	0.181171
C55	C	1.342212	0.183916	-0.430166
C56	C	1.842212	0.683916	0.069834
C57	C	1.342227	0.183904	-0.569844
C58	C	1.842227	0.683904	-0.069844
N59	N	1.342244	0.183887	0.318828
N60	N	1.842244	0.683887	0.818828
H61	H	1.145019	-0.208680	-0.000096
H62	H	1.645019	0.291320	0.499904
N63	N	1.458687	-0.240329	0.213861
N64	N	1.958687	0.259671	0.713861
H65	H	1.527728	-0.197003	0.188155
H66	H	2.027728	0.302997	0.688155
H67	H	1.483608	-0.318061	0.265570
H68	H	1.983608	0.181939	0.765570
N69	N	1.225652	-0.391816	-0.213881
N70	N	1.725652	0.108184	0.286119
H71	H	1.278900	-0.452276	-0.264420
H72	H	1.778900	0.047724	0.235580
H73	H	1.199336	-0.313867	-0.264692
H74	H	1.699336	0.186133	0.235308
H75	H	1.240783	-0.381719	0.186180
H76	H	1.740783	0.118281	0.686180
H77	H	1.443574	-0.250612	-0.186389
H78	H	1.943574	0.249388	0.313611
H79	H	1.539538	-0.423256	-0.000117
H80	H	2.039538	0.076744	0.499883
