data_functionalizedCrystal
_audit_creation_method	'MofGen! by Chris Wilmer'
_symmetry_space_group_name_H-M	'P1'
_symmetry_Int_Tables_number	1
_symmetry_cell_setting	triclinic
loop_
_symmetry_equiv_pos_as_xyz
  x,y,z
_cell_length_a	13.032951
_cell_length_b	17.638032
_cell_length_c	13.032268
_cell_angle_alpha	95.519332
_cell_angle_beta	89.114265
_cell_angle_gamma	92.684249
loop_
_atom_site_label
_atom_site_type_symbol
_atom_site_fract_x
_atom_site_fract_y
_atom_site_fract_z
Zn1	Zn	-1.381762	0.508285	-0.630050
Zn2	Zn	-1.377758	0.620410	-0.424799
Zn3	Zn	-1.238841	0.476842	-0.445617
Zn4	Zn	-1.184943	0.616334	-0.576128
O5	O	-1.295826	0.555468	-0.519148
O6	O	-1.521738	0.538023	-0.616677
O7	O	-1.380212	0.589912	-0.287043
O8	O	-1.282032	0.375710	-0.501361
O9	O	-1.518796	0.620401	-0.465880
O10	O	-1.387036	0.398811	-0.636863
O11	O	-1.278150	0.484433	-0.302338
O12	O	-1.091185	0.480481	-0.449076
O13	O	-1.190171	0.613454	-0.723799
O14	O	-1.051586	0.582965	-0.544962
O15	O	-1.334773	0.534071	-0.763415
O16	O	-1.327949	0.725172	-0.413594
O17	O	-1.186288	0.722178	-0.524775
C18	C	-1.034953	0.527869	-0.493427
C19	C	-0.923343	0.516083	-0.482441
C20	C	-1.250860	0.750984	-0.461099
C21	C	-1.231709	0.834638	-0.436308
C22	C	-1.256906	0.576815	-0.781060
C23	C	-1.240321	0.585913	-0.892671
C24	C	-0.854015	0.561601	-0.524873
C25	C	-0.738660	0.549420	-0.513520
C26	C	-0.557721	0.583165	-0.544967
C27	C	-0.669332	0.594945	-0.555958
C28	C	-1.441764	1.169611	-0.707820
C29	C	-1.423741	1.248213	-0.684504
C30	C	-1.314504	1.224264	-0.543290
C31	C	-1.332523	1.145659	-0.566591
C32	C	-1.396153	1.118339	-0.648858
C33	C	-1.286911	1.094387	-0.507629
C34	C	-1.304925	1.015788	-0.530931
C35	C	-1.368549	0.988462	-0.613196
C36	C	-1.414166	1.039741	-0.672160
C37	C	-1.223276	1.121708	-0.425367
C38	C	-1.177665	1.070436	-0.366405
C39	C	-1.195683	0.991836	-0.389702
C40	C	-1.259308	0.964509	-0.471967
C41	C	-1.150066	0.940557	-0.330738
C42	C	-1.168080	0.861958	-0.354041
C43	C	-1.277321	0.885911	-0.495270
C44	C	-1.340963	1.359189	-0.577440
C45	C	-1.360121	1.275538	-0.602257
C46	C	-1.304473	0.550691	-0.962032
C47	C	-1.287333	0.560093	-1.077388
C48	C	-1.334665	0.534155	-0.258278
C49	C	-1.351494	0.524866	-0.146749
H50	H	-0.880062	0.609587	-0.569610
F51	F	-1.109940	1.099520	-0.278859
F52	F	-1.392832	0.502161	-0.928032
H53	H	-0.712618	0.501427	-0.468790
H54	H	-1.219710	0.597204	-1.103403
H55	H	-1.262694	1.246519	-0.476311
F56	F	-0.703364	0.657666	-0.614447
F57	F	-1.082335	0.969643	-0.243199
H58	H	-0.897296	0.468092	-0.437714
H59	H	-1.493587	1.147368	-0.774803
F60	F	-1.204241	1.205363	-0.400462
F61	F	-1.345056	0.856831	-0.582818
H62	H	-1.383215	0.924461	-0.632167
H63	H	-1.130937	0.820211	-0.306028
H64	H	-1.172703	0.623022	-0.918691
H65	H	-1.419106	0.487744	-1.120737
H66	H	-1.465989	1.017497	-0.739144
H67	H	-1.460871	1.289958	-0.732537
