data_functionalizedCrystal
_audit_creation_method	'MofGen! by Chris Wilmer'
_symmetry_space_group_name_H-M	'P1'
_symmetry_Int_Tables_number	1
_symmetry_cell_setting	triclinic
loop_
_symmetry_equiv_pos_as_xyz
  x,y,z
_cell_length_a	16.625548
_cell_length_b	16.625546
_cell_length_c	12.759401
_cell_angle_alpha	90.015116
_cell_angle_beta	90.005350
_cell_angle_gamma	90.023536
loop_
_atom_site_label
_atom_site_type_symbol
_atom_site_fract_x
_atom_site_fract_y
_atom_site_fract_z
Zn1	Zn	1.232559	-0.321099	0.594036
Zn2	Zn	1.732559	0.178901	1.094036
Zn3	Zn	1.232498	-0.455906	0.418342
Zn4	Zn	1.732498	0.044094	0.918342
Zn5	Zn	1.097757	-0.321094	0.418366
Zn6	Zn	1.597757	0.178906	0.918366
Zn7	Zn	1.097692	-0.455896	0.593974
Zn8	Zn	1.597692	0.044104	1.093974
O9	O	1.165127	-0.388499	0.506179
O10	O	1.665127	0.111501	1.006179
O11	O	1.345384	-0.338988	0.570746
O12	O	1.845384	0.161012	1.070746
O13	O	1.214626	-0.438025	0.271324
O14	O	1.714626	0.061975	0.771324
O15	O	1.115692	-0.208262	0.441705
O16	O	1.615692	0.291738	0.941705
O17	O	1.345339	-0.438030	0.441664
O18	O	1.845339	0.061970	0.941664
O19	O	1.214730	-0.208266	0.570769
O20	O	1.714730	0.291734	1.070769
O21	O	1.115633	-0.338979	0.271342
O22	O	1.615633	0.161021	0.771342
O23	O	0.984916	-0.338969	0.441644
O24	O	1.484916	0.161031	0.941644
O25	O	1.115580	-0.438012	0.741003
O26	O	1.615580	0.061988	1.241003
O27	O	0.984868	-0.438007	0.570663
O28	O	1.484868	0.061993	1.070663
O29	O	1.214667	-0.338978	0.741049
O30	O	1.714667	0.161022	1.241049
O31	O	1.214563	-0.568737	0.441604
O32	O	1.714563	-0.068737	0.941604
O33	O	1.115521	-0.568729	0.570640
O34	O	1.615521	-0.068729	1.070640
C35	C	0.955636	-0.388487	0.506150
C36	C	1.455636	0.111513	1.006150
C37	C	0.866015	-0.388501	0.506162
C38	C	1.366015	0.111499	1.006162
C39	C	0.537839	-0.388507	0.506207
C40	C	1.037839	0.111493	1.006207
C41	C	0.629147	-0.388503	0.506191
C42	C	1.129147	0.111497	1.006191
C43	C	0.701924	-0.388505	0.506184
C44	C	1.201924	0.111495	1.006184
C45	C	0.793238	-0.388500	0.506170
C46	C	1.293238	0.111500	1.006170
C47	C	1.165050	-0.597989	0.506135
C48	C	1.665050	-0.097989	1.006135
C49	C	1.165091	-0.687610	0.506152
C50	C	1.665091	-0.187610	1.006152
C51	C	1.165232	-1.015786	0.506261
C52	C	1.665232	-0.515786	1.006261
C53	C	1.165190	-0.924478	0.506234
C54	C	1.665190	-0.424478	1.006234
C55	C	1.165161	-0.851701	0.506206
C56	C	1.665161	-0.351701	1.006206
C57	C	1.165121	-0.760387	0.506179
C58	C	1.665121	-0.260387	1.006179
C59	C	1.375435	-0.388511	0.506209
C60	C	1.875435	0.111489	1.006209
C61	C	1.465057	-0.388516	0.506222
C62	C	1.965057	0.111484	1.006222
C63	C	1.165123	-0.388495	0.780213
C64	C	1.665123	0.111505	1.280213
C65	C	1.165122	-0.388493	0.896989
C66	C	1.665122	0.111507	1.396989
C67	C	1.165225	-0.178190	0.506246
C68	C	1.665225	0.321810	1.006246
C69	C	1.165267	-0.088568	0.506275
C70	C	1.665267	0.411432	1.006275
C71	C	1.216711	-0.336936	0.951877
C72	C	1.716711	0.163064	1.451877
C73	C	1.216706	-0.336938	1.061601
C74	C	1.716706	0.163062	1.561601
C75	C	1.113520	-0.440060	1.061540
C76	C	1.613520	0.059940	1.561540
C77	C	1.113521	-0.440054	0.951818
C78	C	1.613521	0.059946	1.451818
C79	C	1.276288	-0.277402	0.951913
C80	C	1.776288	0.222598	1.451913
C81	C	1.276283	-0.277403	1.061637
C82	C	1.776283	0.222597	1.561637
C83	C	1.165121	-0.388515	1.233212
C84	C	1.665121	0.111485	1.733212
C85	C	1.165115	-0.388501	1.116435
C86	C	1.665115	0.111499	1.616435
H87	H	1.071509	-0.482033	0.907133
H88	H	1.571509	0.017967	1.407133
H89	H	1.259596	-0.214950	0.922162
H90	H	1.759596	0.285050	1.422162
F91	F	1.357896	-0.299264	1.100568
F92	F	1.857896	0.200736	1.600568
H93	H	1.335595	-0.299777	0.917879
H94	H	1.835595	0.200223	1.417879
H95	H	1.071507	-0.482038	1.106195
H96	H	1.571507	0.017962	1.606195
F97	F	1.246989	-0.199903	1.106151
F98	F	1.746989	0.300097	1.606151
