data_functionalizedCrystal
_audit_creation_method	'MofGen! by Chris Wilmer'
_symmetry_space_group_name_H-M	'P1'
_symmetry_Int_Tables_number	1
_symmetry_cell_setting	triclinic
loop_
_symmetry_equiv_pos_as_xyz
  x,y,z
_cell_length_a	14.519709
_cell_length_b	22.610064
_cell_length_c	14.519731
_cell_angle_alpha	89.990219
_cell_angle_beta	96.315500
_cell_angle_gamma	90.009670
loop_
_atom_site_label
_atom_site_type_symbol
_atom_site_fract_x
_atom_site_fract_y
_atom_site_fract_z
O1	O	1.223891	0.049115	-0.120888
O2	O	1.557225	0.382448	0.212445
O3	O	1.890558	0.715781	0.545779
O4	O	0.955416	0.049134	-0.135124
O5	O	1.288749	0.382467	0.198209
O6	O	1.622082	0.715800	0.531542
O7	O	1.096761	0.049112	0.006231
O8	O	1.430095	0.382445	0.339564
O9	O	1.763428	0.715779	0.672898
O10	O	1.082545	0.049137	-0.262243
O11	O	1.415879	0.382470	0.071090
O12	O	1.749212	0.715803	0.404423
O13	O	1.096720	-0.049257	0.006231
O14	O	1.430053	0.284076	0.339565
O15	O	1.763387	0.617409	0.672898
O16	O	0.955374	-0.049235	-0.135124
O17	O	1.288707	0.284098	0.198209
O18	O	1.622041	0.617431	0.531543
O19	O	1.223850	-0.049254	-0.120888
O20	O	1.557183	0.284079	0.212446
O21	O	1.890517	0.617412	0.545779
Zn22	Zn	1.089605	-0.064863	-0.128006
Zn23	Zn	1.422939	0.268470	0.205328
Zn24	Zn	1.756272	0.601804	0.538661
Zn25	Zn	1.089660	0.064743	-0.128006
Zn26	Zn	1.422993	0.398076	0.205327
Zn27	Zn	1.756327	0.731409	0.538660
O28	O	1.082504	-0.049232	-0.262243
O29	O	1.415837	0.284101	0.071090
O30	O	1.749171	0.617434	0.404424
C31	C	0.921035	-0.000049	-0.134461
C32	C	1.254368	0.333285	0.198873
C33	C	1.587702	0.666618	0.532206
C34	C	0.818654	-0.000042	-0.132473
C35	C	1.151987	0.333291	0.200861
C36	C	1.485320	0.666625	0.534194
N37	N	1.089575	-0.153316	-0.128005
N38	N	1.422908	0.180018	0.205328
N39	N	1.756241	0.513351	0.538662
C40	C	0.443757	-0.000069	-0.125153
C41	C	0.777091	0.333264	0.208180
C42	C	1.110424	0.666597	0.541514
C43	C	0.548065	-0.000062	-0.127186
C44	C	0.881399	0.333272	0.206148
C45	C	1.214732	0.666605	0.539481
C46	C	0.631202	-0.000055	-0.128813
C47	C	0.964535	0.333278	0.204521
C48	C	1.297869	0.666612	0.537854
C49	C	0.735517	-0.000048	-0.130846
C50	C	1.068850	0.333285	0.202488
C51	C	1.402183	0.666618	0.535821
C52	C	1.145688	-0.561956	-0.184055
C53	C	1.479021	-0.228622	0.149279
C54	C	1.812354	0.104711	0.482612
C55	C	1.145699	-0.623876	-0.184052
C56	C	1.479033	-0.290542	0.149281
C57	C	1.812366	0.042791	0.482614
O58	O	1.193372	-0.655893	-0.231701
O59	O	1.526705	-0.322560	0.101632
O60	O	1.860039	0.010773	0.434965
N61	N	1.089678	-0.654853	-0.127996
N62	N	1.423011	-0.321519	0.205338
N63	N	1.756344	0.011814	0.538671
C64	C	1.033648	-0.623907	-0.071931
C65	C	1.366981	-0.290573	0.261403
C66	C	1.700314	0.042760	0.594736
O67	O	0.985999	-0.655941	-0.024249
O68	O	1.319332	-0.322607	0.309084
O69	O	1.652665	0.010726	0.642417
C70	C	1.033642	-0.561988	-0.071929
C71	C	1.366975	-0.228655	0.261405
C72	C	1.700309	0.104679	0.594738
C73	C	1.089660	-0.531014	-0.127996
C74	C	1.422994	-0.197681	0.205337
C75	C	1.756327	0.135653	0.538671
C76	C	1.201702	-0.530982	-0.240116
C77	C	1.535036	-0.197649	0.093217
C78	C	1.868369	0.135685	0.426550
C79	C	1.201689	-0.469066	-0.240120
C80	C	1.535023	-0.135733	0.093214
C81	C	1.868356	0.197600	0.426547
C82	C	1.145662	-0.438124	-0.184061
C83	C	1.478995	-0.104791	0.149272
C84	C	1.812328	0.228542	0.482606
C85	C	1.089647	-0.469098	-0.127999
C86	C	1.422980	-0.135765	0.205334
C87	C	1.756314	0.197568	0.538667
C88	C	0.977618	-0.531043	-0.015859
C89	C	1.310951	-0.197710	0.317474
C90	C	1.644284	0.135624	0.650807
C91	C	0.977617	-0.469120	-0.015862
C92	C	1.310950	-0.135787	0.317472
C93	C	1.644284	0.197547	0.650805
C94	C	1.033635	-0.438146	-0.071929
C95	C	1.366969	-0.104813	0.261404
C96	C	1.700302	0.228521	0.594738
C97	C	1.033606	-0.376241	-0.071944
C98	C	1.366940	-0.042908	0.261389
C99	C	1.700273	0.290426	0.594723
N100	N	1.089628	-0.345264	-0.128000
N101	N	1.422961	-0.011931	0.205333
N102	N	1.756295	0.321403	0.538666
C103	C	1.145656	-0.376206	-0.184059
C104	C	1.478989	-0.042872	0.149274
C105	C	1.812322	0.290461	0.482608
C106	C	1.033666	-0.753940	-0.071938
C107	C	1.366999	-0.420607	0.261395
C108	C	1.700333	-0.087274	0.594729
C109	C	1.033666	-0.815858	-0.071944
C110	C	1.367000	-0.482525	0.261389
C111	C	1.700333	-0.149191	0.594722
C112	C	1.145719	-0.815823	-0.184065
C113	C	1.479053	-0.482489	0.149268
C114	C	1.812386	-0.149156	0.482602
C115	C	1.145713	-0.753904	-0.184063
C116	C	1.479047	-0.420571	0.149270
C117	C	1.812380	-0.087237	0.482604
C118	C	1.089688	-0.722963	-0.127995
C119	C	1.423021	-0.389630	0.205339
C120	C	1.756354	-0.056297	0.538672
C121	C	1.145623	-0.246178	-0.184062
C122	C	1.478957	0.087155	0.149271
C123	C	1.812290	0.420488	0.482604
C124	C	1.145602	-0.184257	-0.184064
C125	C	1.478936	0.149076	0.149270
C126	C	1.812269	0.482409	0.482603
C127	C	1.033553	-0.184298	-0.071940
C128	C	1.366887	0.149035	0.261393
C129	C	1.700220	0.482369	0.594727
C130	C	1.033570	-0.246214	-0.071942
C131	C	1.366904	0.087120	0.261391
C132	C	1.700237	0.420453	0.594725
C133	C	1.089613	-0.277152	-0.128006
C134	C	1.422946	0.056181	0.205327
C135	C	1.756279	0.389514	0.538661
O136	O	0.985961	-0.344184	-0.024316
O137	O	1.319294	-0.010851	0.309017
O138	O	1.652628	0.322483	0.642350
O139	O	1.193306	-0.344164	-0.231723
O140	O	1.526639	-0.010831	0.101610
O141	O	1.859972	0.322503	0.434943
C142	C	1.258230	-0.000071	-0.121551
C143	C	1.591564	0.333263	0.211782
C144	C	1.924897	0.666596	0.545115
C145	C	1.360612	-0.000074	-0.123539
C146	C	1.693945	0.333260	0.209794
C147	C	2.027278	0.666593	0.543127
C148	C	1.096075	-0.000075	0.040591
C149	C	1.429408	0.333259	0.373924
C150	C	1.762741	0.666592	0.707257
C151	C	1.094079	-0.000080	0.142971
C152	C	1.427412	0.333254	0.476304
C153	C	1.760745	0.666587	0.809637
N154	N	1.089698	0.153195	-0.128000
N155	N	1.423031	0.486528	0.205334
N156	N	1.756365	0.819862	0.538667
C157	C	1.092457	-0.000082	0.226115
C158	C	1.425790	0.333251	0.559448
C159	C	1.759123	0.666584	0.892782
C160	C	1.090430	-0.000083	0.330424
C161	C	1.423763	0.333251	0.663757
C162	C	1.757097	0.666584	0.997090
C163	C	1.088822	-0.000083	0.413563
C164	C	1.422155	0.333250	0.746896
C165	C	1.755488	0.666584	1.080229
C166	C	1.086795	-0.000085	0.517878
C167	C	1.420129	0.333249	0.851211
C168	C	1.753462	0.666582	1.184545
C169	C	1.083191	-0.000057	0.703397
C170	C	1.416524	0.333276	1.036731
C171	C	1.749857	0.666610	1.370064
C172	C	1.085187	-0.000085	0.601017
C173	C	1.418520	0.333249	0.934351
C174	C	1.751853	0.666582	1.267684
H175	H	1.191259	-0.271361	-0.229715
H176	H	1.524592	0.061972	0.103619
H177	H	1.857925	0.395305	0.436952
H178	H	1.247309	-0.443853	-0.285772
H179	H	1.580642	-0.110519	0.047562
H180	H	1.913976	0.222814	0.380895
H181	H	0.931993	-0.443931	0.029798
H182	H	1.265327	-0.110598	0.363131
H183	H	1.598660	0.222735	0.696464
O184	O	0.973254	-0.720561	-0.011451
O185	O	1.306587	-0.387228	0.321882
O186	O	1.639920	-0.053894	0.655215
H187	H	0.923765	-0.692341	-0.055535
H188	H	1.257098	-0.359008	0.277798
H189	H	1.590431	-0.025675	0.611132
H190	H	1.247332	-0.556168	-0.285766
H191	H	1.580665	-0.222835	0.047567
H192	H	1.913998	0.110499	0.380900
O193	O	0.973127	-0.150937	-0.011455
O194	O	1.306460	0.182397	0.321878
O195	O	1.639793	0.515730	0.655212
H196	H	0.993093	-0.162845	0.062200
H197	H	1.326426	0.170488	0.395533
H198	H	1.659760	0.503822	0.728867
H199	H	1.191328	-0.728689	-0.229718
H200	H	1.524661	-0.395356	0.103615
H201	H	1.857995	-0.062022	0.436948
O202	O	1.206157	-0.849202	-0.244526
O203	O	1.539490	-0.515868	0.088807
O204	O	1.872823	-0.182535	0.422140
H205	H	1.279827	-0.837305	-0.224625
H206	H	1.613160	-0.503971	0.108709
H207	H	1.946494	-0.170638	0.442042
H208	H	0.987944	-0.271434	-0.026299
H209	H	1.321277	0.061899	0.307034
H210	H	1.654611	0.395233	0.640368
H211	H	1.191219	-0.159041	-0.229725
H212	H	1.524552	0.174292	0.103609
H213	H	1.857886	0.507626	0.436942
H214	H	0.988039	-0.841072	-0.026300
H215	H	1.321373	-0.507738	0.307034
H216	H	1.654706	-0.174405	0.640367
H217	H	0.932003	-0.556251	0.029798
H218	H	1.265336	-0.222918	0.363131
H219	H	1.598669	0.110415	0.696465
