data_functionalizedCrystal
_audit_creation_method	'MofGen! by Chris Wilmer'
_symmetry_space_group_name_H-M	'P1'
_symmetry_Int_Tables_number	1
_symmetry_cell_setting	triclinic
loop_
_symmetry_equiv_pos_as_xyz
  x,y,z
_cell_length_a	15.995350
_cell_length_b	22.010155
_cell_length_c	15.995350
_cell_angle_alpha	90.002260
_cell_angle_beta	83.492375
_cell_angle_gamma	90.012060
loop_
_atom_site_label
_atom_site_type_symbol
_atom_site_fract_x
_atom_site_fract_y
_atom_site_fract_z
O1	O	1.110999	0.050471	0.107925
O2	O	0.867224	0.050483	0.121252
O3	O	0.995775	0.050476	-0.007299
O4	O	0.982448	0.050478	0.236476
O5	O	0.995737	-0.050575	-0.007299
O6	O	0.867185	-0.050568	0.121252
O7	O	1.110961	-0.050580	0.107924
Cu8	Cu	0.989069	-0.059800	0.114588
Cu9	Cu	0.989115	0.059703	0.114588
O10	O	0.982409	-0.050573	0.236476
C11	C	0.836010	-0.000041	0.120701
C12	C	0.743060	-0.000036	0.119049
N13	N	0.989043	-0.143853	0.114588
C14	C	0.405312	-0.000049	0.113117
C15	C	0.452746	-0.000275	0.021565
C16	C	0.549436	-0.000043	0.023217
C17	C	0.572873	-0.000043	0.116060
C18	C	0.531808	0.057660	0.161216
C19	C	0.435172	0.057704	0.158916
C20	C	0.434789	-0.057209	0.160808
C21	C	0.531734	-0.057968	0.160786
C22	C	0.667570	-0.000037	0.117727
C23	C	0.310614	-0.000050	0.111452
C24	C	1.039897	-0.563635	0.165392
C25	C	1.039907	-0.627242	0.165390
O26	O	1.083115	-0.660136	0.208580
N27	N	0.989132	-0.659060	0.114579
C28	C	0.938349	-0.627267	0.063760
O29	O	0.895163	-0.660171	0.020540
C30	C	0.938345	-0.563660	0.063758
C31	C	0.989117	-0.531846	0.114579
C32	C	1.090666	-0.531820	0.216208
C33	C	1.090655	-0.468217	0.216211
C34	C	1.039875	-0.436428	0.165398
C35	C	0.989106	-0.468243	0.114582
C36	C	0.887568	-0.531868	0.012936
C37	C	0.887568	-0.468258	0.012938
C38	C	0.938340	-0.436443	0.063758
C39	C	0.938314	-0.372851	0.063772
N40	N	0.989090	-0.341033	0.114583
C41	C	1.039870	-0.372822	0.165396
C42	C	0.938364	-0.760845	0.063767
C43	C	0.938364	-0.824450	0.063772
C44	C	1.039923	-0.824421	0.165402
C45	C	1.039918	-0.760814	0.165400
C46	C	0.989140	-0.729027	0.114578
C47	C	1.039842	-0.239250	0.165399
C48	C	1.039823	-0.175642	0.165401
C49	C	0.938268	-0.175676	0.063769
C50	C	0.938283	-0.239279	0.063770
C51	C	0.989076	-0.271065	0.114588
O52	O	0.895131	-0.339917	0.020601
O53	O	1.083058	-0.339910	0.208601
C54	C	1.142175	-0.000055	0.108476
C55	C	1.235125	-0.000056	0.110127
C56	C	0.995205	-0.000048	-0.038494
C57	C	0.993553	-0.000045	-0.131444
N58	N	0.989148	0.143756	0.114583
C59	C	0.987621	-0.000046	-0.469192
C60	C	0.896069	0.000185	-0.421758
C61	C	0.897721	-0.000043	-0.325068
C62	C	0.990564	-0.000045	-0.301631
C63	C	1.035698	-0.057751	-0.342709
C64	C	1.033398	-0.057799	-0.439345
C65	C	1.035334	0.057114	-0.439703
C66	C	1.035312	0.057876	-0.342757
C67	C	0.992231	-0.000047	-0.206934
C68	C	0.985956	-0.000049	-0.563890
C69	C	0.982980	-0.000047	0.267671
C70	C	0.984631	-0.000047	0.360621
H71	H	0.577849	-0.041407	-0.012278
H72	H	0.433168	0.040877	-0.014862
H73	H	0.861971	-0.041476	-0.297203
H74	H	0.434208	-0.041656	-0.015031
Br75	Br	0.869435	-0.717711	-0.005203
Br76	Br	0.404679	0.129597	0.104032
Br77	Br	0.818656	-0.575029	-0.056038
H78	H	0.896929	-0.265184	0.022399
Br79	Br	0.980773	0.129041	-0.296802
Br80	Br	1.108843	-0.867575	0.234360
Br81	Br	0.818659	-0.425121	-0.056048
Br82	Br	0.983399	-0.129325	-0.295409
Br83	Br	0.985464	0.130013	-0.473924
H84	H	0.577310	0.041392	-0.012518
H85	H	0.402924	0.060323	0.226132
Br86	Br	1.145423	-0.062173	-0.493099
Br87	Br	0.869440	-0.867619	-0.005186
Br88	Br	0.869353	-0.132522	-0.005186
Br89	Br	0.838586	0.068903	-0.277691
Br90	Br	0.835100	0.069160	-0.452640
H91	H	0.859623	-0.040963	-0.441352
Br92	Br	0.381854	-0.057860	0.273313
H93	H	1.000453	-0.100934	-0.457646
H94	H	1.103018	0.061359	-0.327395
Br95	Br	1.149385	-0.061334	-0.319171
Br96	Br	1.147839	0.057759	-0.492638
Br97	Br	1.159548	-0.425050	0.285203
Br98	Br	0.555375	0.061253	0.274894
H99	H	0.560198	0.100603	0.129853
H100	H	0.559034	-0.100656	0.127822
Br101	Br	0.400539	-0.130109	0.110919
H102	H	0.547098	-0.061453	0.228489
Br103	Br	1.108828	-0.717644	0.234371
Br104	Br	1.108725	-0.132468	0.234385
H105	H	1.081203	-0.265123	0.206780
Br106	Br	1.159592	-0.574950	0.285178
