data_functionalizedCrystal
_audit_creation_method	'MofGen! by Chris Wilmer'
_symmetry_space_group_name_H-M	'P1'
_symmetry_Int_Tables_number	1
_symmetry_cell_setting	triclinic
loop_
_symmetry_equiv_pos_as_xyz
  x,y,z
_cell_length_a	19.805407
_cell_length_b	19.805405
_cell_length_c	19.805399
_cell_angle_alpha	90.029462
_cell_angle_beta	90.023391
_cell_angle_gamma	90.031790
loop_
_atom_site_label
_atom_site_type_symbol
_atom_site_fract_x
_atom_site_fract_y
_atom_site_fract_z
Zn1	Zn	-1.034686	0.269494	-0.382835
Zn2	Zn	-1.034593	0.382686	-0.269646
Zn3	Zn	-0.921506	0.269513	-0.269647
Zn4	Zn	-0.921451	0.382644	-0.382780
O5	O	-0.978059	0.326084	-0.326227
O6	O	-1.129390	0.284519	-0.367843
O7	O	-1.019576	0.367698	-0.174929
O8	O	-0.936582	0.174794	-0.284685
O9	O	-1.129322	0.367680	-0.284683
O10	O	-1.019734	0.174780	-0.367844
O11	O	-0.936491	0.284551	-0.174930
O12	O	-0.826782	0.284511	-0.284631
O13	O	-0.936488	0.367609	-0.477504
O14	O	-0.826742	0.367628	-0.367749
O15	O	-1.019681	0.284479	-0.477544
O16	O	-1.019522	0.477397	-0.284630
O17	O	-0.936397	0.477366	-0.367749
C18	C	-0.802203	0.326067	-0.326185
C19	C	-0.726971	0.326076	-0.326183
C20	C	-0.265176	0.369437	-0.369458
C21	C	-0.335865	0.369436	-0.369446
C22	C	-0.371209	0.326094	-0.326233
C23	C	-0.335861	0.282754	-0.283024
C24	C	-0.265174	0.282758	-0.283034
C25	C	-0.620935	0.282736	-0.282986
C26	C	-0.691627	0.282734	-0.282982
C27	C	-0.691625	0.369415	-0.369399
C28	C	-0.620938	0.369419	-0.369408
C29	C	-0.585596	0.326082	-0.326197
C30	C	-0.508948	0.326083	-0.326210
C31	C	-0.447856	0.326088	-0.326224
C32	C	-0.977962	0.501940	-0.326198
C33	C	-0.977982	0.577172	-0.326208
C34	C	-0.978089	0.326037	-0.502769
C35	C	-0.978101	0.326017	-0.578001
C36	C	-0.154602	0.326099	-0.326261
C37	C	-0.229834	0.326099	-0.326254
C38	C	-1.021251	0.612451	-0.369542
C39	C	-1.021267	0.683140	-0.369553
C40	C	-0.978018	0.718548	-0.326226
C41	C	-0.934745	0.683264	-0.282890
C42	C	-0.934726	0.612577	-0.282883
C43	C	-0.934822	0.968337	-0.282917
C44	C	-0.934846	1.039030	-0.282926
C45	C	-1.021363	1.038900	-0.369587
C46	C	-1.021344	0.968213	-0.369580
C47	C	-0.978069	0.932935	-0.326247
C48	C	-0.978050	0.856287	-0.326237
C49	C	-0.978039	0.795195	-0.326232
C50	C	-0.978146	1.149542	-0.326264
C51	C	-0.978111	1.074310	-0.326264
C52	C	-0.934851	0.282718	-0.613345
C53	C	-0.934861	0.282705	-0.684034
C54	C	-0.978124	0.325988	-0.719377
C55	C	-1.021375	0.369292	-0.684028
C56	C	-1.021362	0.369308	-0.613341
C57	C	-1.021429	0.369228	-0.969102
C58	C	-1.021440	0.369208	-1.039794
C59	C	-0.934928	0.282626	-1.039795
C60	C	-0.934914	0.282642	-0.969107
C61	C	-0.978163	0.325948	-0.933765
C62	C	-0.978152	0.325963	-0.857116
C63	C	-0.978139	0.325970	-0.796024
C64	C	-0.978068	0.326082	-0.150371
C65	C	-0.978187	0.325912	-0.075139
H66	H	-0.720409	0.404704	-0.404582
H67	H	-1.056563	0.939385	-0.404859
H68	H	-0.899710	0.247366	-1.068579
O69	O	-1.063540	0.411160	-1.074156
C70	C	-1.107281	0.372620	-1.115074
H71	H	-1.111495	0.319318	-1.093783
H72	H	-1.159353	0.397108	-1.115881
H73	H	-1.086366	0.370269	-1.168643
H74	H	-0.592168	0.247451	-0.247799
O75	O	-0.892766	0.717583	-0.240708
C76	C	-0.907607	0.700349	-0.173262
H77	H	-0.933613	0.649004	-0.171883
H78	H	-0.858777	0.697989	-0.142861
H79	H	-0.942431	0.740117	-0.150503
O80	O	-0.370297	0.240673	-0.241110
C81	C	-0.440267	0.249971	-0.250355
H82	H	-0.449938	0.272205	-0.302549
H83	H	-0.467153	0.199264	-0.245852
H84	H	-0.460289	0.285962	-0.210140
O85	O	-1.063283	0.578163	-0.411696
C86	C	-1.101486	0.624463	-0.449935
H87	H	-1.073774	0.674873	-0.452251
H88	H	-1.108662	0.604002	-0.503271
H89	H	-1.152911	0.631952	-0.425208
O90	O	-0.725857	0.240612	-0.240933
C91	C	-0.679506	0.202352	-0.202806
H92	H	-0.629102	0.230073	-0.200419
H93	H	-0.699909	0.195070	-0.149488
H94	H	-0.672028	0.150974	-0.227677
O95	O	-0.230944	0.240594	-0.241045
C96	C	-0.277296	0.202349	-0.202890
H97	H	-0.327700	0.200036	-0.230612
H98	H	-0.256893	0.149014	-0.195765
H99	H	-0.284775	0.227071	-0.151440
H100	H	-0.899688	0.247394	-0.940334
H101	H	-0.899625	1.067857	-0.247643
H102	H	-1.056638	0.404498	-0.940334
O103	O	-1.063207	0.717434	-0.411717
C104	C	-1.024667	0.758340	-0.455396
H105	H	-0.971348	0.737085	-0.459524
H106	H	-1.049121	0.759081	-0.507507
H107	H	-1.022367	0.811930	-0.434478
H108	H	-1.056597	0.404537	-0.712810
O109	O	-1.063341	0.411462	-0.579079
C110	C	-1.048492	0.478916	-0.596318
H111	H	-1.022485	0.480302	-0.647637
H112	H	-1.097319	0.509274	-0.598735
H113	H	-1.013667	0.501716	-0.556523
O114	O	-0.230919	0.411504	-0.411532
C115	C	-0.248224	0.396784	-0.479016
H116	H	-0.299562	0.370766	-0.480457
H117	H	-0.250633	0.445671	-0.509280
H118	H	-0.208472	0.362015	-0.501880
O119	O	-0.370268	0.411437	-0.411454
C120	C	-0.411186	0.372951	-0.455243
H121	H	-0.421793	0.321630	-0.431455
H122	H	-0.460882	0.400532	-0.464266
H123	H	-0.383971	0.365571	-0.505416
O124	O	-0.586710	0.411586	-0.411406
C125	C	-0.633064	0.449828	-0.449549
H126	H	-0.683437	0.452132	-0.421817
H127	H	-0.612617	0.503167	-0.456674
H128	H	-0.640620	0.425109	-0.500999
H129	H	-1.056597	1.067631	-0.404873
H130	H	-0.899587	0.939620	-0.247633
H131	H	-0.899492	0.583854	-0.247597
H132	H	-0.899625	0.247469	-0.584574
H133	H	-0.899640	0.247450	-0.712808
