data_functionalizedCrystal
_audit_creation_method	'MofGen! by Chris Wilmer'
_symmetry_space_group_name_H-M	'P1'
_symmetry_Int_Tables_number	1
_symmetry_cell_setting	triclinic
loop_
_symmetry_equiv_pos_as_xyz
  x,y,z
_cell_length_a	29.839126
_cell_length_b	16.959455
_cell_length_c	16.959453
_cell_angle_alpha	89.978232
_cell_angle_beta	89.978666
_cell_angle_gamma	90.018785
loop_
_atom_site_label
_atom_site_type_symbol
_atom_site_fract_x
_atom_site_fract_y
_atom_site_fract_z
Zn1	Zn	-0.254004	-1.208392	-0.314806
Zn2	Zn	0.245996	-0.708392	0.185194
Zn3	Zn	-0.178877	-1.208294	-0.446976
Zn4	Zn	0.321123	-0.708294	0.053024
Zn5	Zn	-0.178888	-1.076211	-0.314809
Zn6	Zn	0.321112	-0.576211	0.185191
Zn7	Zn	-0.253980	-1.076175	-0.446940
Zn8	Zn	0.246020	-0.576175	0.053060
O9	O	-0.216437	-1.142268	-0.380883
O10	O	0.283563	-0.642268	0.119117
O11	O	-0.244044	-1.318990	-0.332353
O12	O	0.255956	-0.818990	0.167647
O13	O	-0.116012	-1.190746	-0.429460
O14	O	0.383988	-0.690746	0.070540
O15	O	-0.188866	-1.093801	-0.204198
O16	O	0.311134	-0.593801	0.295802
O17	O	-0.188849	-1.318918	-0.429458
O18	O	0.311151	-0.818918	0.070542
O19	O	-0.244054	-1.190915	-0.204196
O20	O	0.255946	-0.690915	0.295804
O21	O	-0.116019	-1.093705	-0.332357
O22	O	0.383981	-0.593705	0.167643
O23	O	-0.188843	-0.965595	-0.332322
O24	O	0.311157	-0.465595	0.167678
O25	O	-0.316850	-1.093740	-0.429396
O26	O	0.183150	-0.593740	0.070604
O27	O	-0.244013	-0.965569	-0.429398
O28	O	0.255987	-0.465569	0.070602
O29	O	-0.316868	-1.190880	-0.332318
O30	O	0.183132	-0.690880	0.167682
O31	O	-0.188826	-1.190711	-0.557582
O32	O	0.311174	-0.690711	-0.057582
O33	O	-0.244003	-1.093644	-0.557556
O34	O	0.255997	-0.593644	-0.057556
C35	C	-0.216427	-0.936902	-0.380857
C36	C	0.283573	-0.436902	0.119143
C37	C	-0.216433	-0.849045	-0.380865
C38	C	0.283567	-0.349045	0.119135
C39	C	-0.216421	-1.142185	-0.586249
C40	C	0.283579	-0.642185	-0.086249
C41	C	-0.216429	-1.142221	-0.674106
C42	C	0.283571	-0.642221	-0.174106
C43	C	-0.333616	-1.142317	-0.380853
C44	C	0.166384	-0.642317	0.119147
C45	C	-0.383550	-1.142338	-0.380840
C46	C	0.116450	-0.642338	0.119160
C47	C	-0.693200	-1.091824	-0.330199
C48	C	-0.193200	-0.591824	0.169801
C49	C	-0.880873	-1.091847	-0.330144
C50	C	-0.380873	-0.591847	0.169856
O51	O	-0.905144	-1.048859	-0.287167
O52	O	-0.405144	-0.548859	0.212833
N53	N	-0.904335	-1.142375	-0.380691
N54	N	-0.404335	-0.642375	0.119309
C55	C	-0.880876	-1.192898	-0.431260
C56	C	-0.380876	-0.692898	0.068740
O57	O	-0.905138	-1.235870	-0.474258
O58	O	-0.405138	-0.735870	0.025742
C59	C	-0.693204	-1.192871	-0.431318
C60	C	-0.193204	-0.692871	0.068682
C61	C	-0.669744	-1.142345	-0.380762
C62	C	-0.169744	-0.642345	0.119238
C63	C	-0.669741	-1.041302	-0.279648
C64	C	-0.169741	-0.541302	0.220352
C65	C	-0.622825	-1.041300	-0.279659
C66	C	-0.122825	-0.541300	0.220341
C67	C	-0.599369	-1.091820	-0.330221
C68	C	-0.099369	-0.591820	0.169779
C69	C	-0.622829	-1.142343	-0.380773
C70	C	-0.122829	-0.642343	0.119227
C71	C	-0.669745	-1.243389	-0.481889
C72	C	-0.169745	-0.743389	0.018111
C73	C	-0.622824	-1.243377	-0.481901
C74	C	-0.122824	-0.743377	0.018099
C75	C	-0.599365	-1.192850	-0.431345
C76	C	-0.099365	-0.692850	0.068655
C77	C	-0.552457	-1.192861	-0.431347
C78	C	-0.052457	-0.692861	0.068653
N79	N	-0.528996	-1.142333	-0.380799
N80	N	-0.028996	-0.642333	0.119201
C81	C	-0.552451	-1.091812	-0.330237
C82	C	-0.052451	-0.591812	0.169763
C83	C	-0.979407	-1.192910	-0.431224
C84	C	-0.479407	-0.692910	0.068776
C85	C	-1.026325	-1.192918	-0.431209
C86	C	-0.526325	-0.692918	0.068791
C87	C	-1.026319	-1.091865	-0.330094
C88	C	-0.526319	-0.591865	0.169906
C89	C	-0.979400	-1.091862	-0.330106
C90	C	-0.479400	-0.591862	0.169894
C91	C	-0.955945	-1.142381	-0.380677
C92	C	-0.455945	-0.642381	0.119323
C93	C	-0.453926	-1.091812	-0.330264
C94	C	0.046074	-0.591812	0.169736
C95	C	-0.407006	-1.091817	-0.330277
C96	C	0.092994	-0.591817	0.169723
C97	C	-0.407016	-1.192866	-0.431394
C98	C	0.092984	-0.692866	0.068606
C99	C	-0.453931	-1.192865	-0.431378
C100	C	0.046069	-0.692865	0.068622
C101	C	-0.477385	-1.142331	-0.380810
C102	C	0.022615	-0.642331	0.119190
O103	O	-0.528158	-1.235820	-0.474308
O104	O	-0.028158	-0.735820	0.025692
O105	O	-0.528181	-1.048834	-0.287258
O106	O	-0.028181	-0.548834	0.212742
C107	C	-0.740116	-1.091826	-0.330188
C108	C	-0.240116	-0.591826	0.169812
C109	C	-0.763575	-1.142349	-0.380739
C110	C	-0.263575	-0.642349	0.119261
C111	C	-0.740119	-1.192870	-0.431302
C112	C	-0.240119	-0.692870	0.068698
C113	C	-0.810493	-1.142357	-0.380724
C114	C	-0.310493	-0.642357	0.119276
C115	C	-0.833949	-1.091836	-0.330161
C116	C	-0.333949	-0.591836	0.169839
C117	C	-0.810487	-1.041308	-0.279614
C118	C	-0.310487	-0.541308	0.220386
C119	C	-0.763572	-1.041306	-0.279625
C120	C	-0.263572	-0.541306	0.220375
C121	C	-0.763581	-1.243398	-0.481849
C122	C	-0.263581	-0.743398	0.018151
C123	C	-0.810497	-1.243397	-0.481833
C124	C	-0.310497	-0.743397	0.018167
C125	C	-0.833953	-1.192876	-0.431271
C126	C	-0.333953	-0.692876	0.068729
C127	C	-0.099715	-1.142265	-0.380856
C128	C	0.400285	-0.642265	0.119144
C129	C	-0.049781	-1.142397	-0.380646
C130	C	0.450219	-0.642397	0.119354
C131	C	-0.216448	-1.348436	-0.380910
C132	C	0.283552	-0.848436	0.119090
C133	C	-0.216452	-1.436293	-0.380921
C134	C	0.283548	-0.936293	0.119079
C135	C	-0.187770	-0.477559	-0.330294
C136	C	0.312230	0.022441	0.169706
C137	C	-0.245130	-0.477580	-0.431537
C138	C	0.254870	0.022420	0.068463
C139	C	-0.245127	-0.560126	-0.431526
C140	C	0.254873	-0.060126	0.068474
C141	C	-0.216445	-0.601392	-0.380898
C142	C	0.283555	-0.101392	0.119102
C143	C	-0.187766	-0.560112	-0.330283
C144	C	0.312234	-0.060112	0.169717
C145	C	-0.273803	-0.601412	-0.482146
C146	C	0.226197	-0.101412	0.017854
C147	C	-0.273801	-0.683963	-0.482137
C148	C	0.226199	-0.183963	0.017863
C149	C	-0.245121	-0.725230	-0.431506
C150	C	0.254879	-0.225230	0.068494
C151	C	-0.216440	-0.683946	-0.380887
C152	C	0.283560	-0.183946	0.119113
C153	C	-0.187758	-0.725212	-0.330260
C154	C	0.312242	-0.225212	0.169740
C155	C	-0.159080	-0.683928	-0.279637
C156	C	0.340920	-0.183928	0.220363
C157	C	-0.159085	-0.601380	-0.279651
C158	C	0.340915	-0.101380	0.220349
C159	C	-0.245115	-0.807779	-0.431492
C160	C	0.254885	-0.307779	0.068508
C161	C	-0.187754	-0.807765	-0.330249
C162	C	0.312246	-0.307765	0.169751
C163	C	-0.245137	-1.091658	-0.715395
C164	C	0.254863	-0.591658	-0.215395
C165	C	-0.187731	-1.192824	-0.715370
C166	C	0.312269	-0.692824	-0.215370
C167	C	-0.187739	-1.192863	-0.797916
C168	C	0.312261	-0.692863	-0.297916
C169	C	-0.216447	-1.142300	-0.839205
C170	C	0.283553	-0.642300	-0.339205
C171	C	-0.245147	-1.091697	-0.797948
C172	C	0.254853	-0.591697	-0.297948
C173	C	-0.159042	-1.243471	-0.839179
C174	C	0.340958	-0.743471	-0.339179
C175	C	-0.159050	-1.243512	-0.921730
C176	C	0.340950	-0.743512	-0.421730
C177	C	-0.187756	-1.192944	-0.963021
C178	C	0.312244	-0.692944	-0.463021
C179	C	-0.216457	-1.142339	-0.921759
C180	C	0.283543	-0.642339	-0.421759
C181	C	-0.245165	-1.091776	-0.963048
C182	C	0.254835	-0.591776	-0.463048
C183	C	-0.273864	-1.041166	-0.921787
C184	C	0.226136	-0.541166	-0.421787
C185	C	-0.273853	-1.041129	-0.839239
C186	C	0.226147	-0.541129	-0.339239
C187	C	-0.187767	-1.192981	-1.045569
C188	C	0.312233	-0.692981	-0.545569
C189	C	-0.245175	-1.091815	-1.045601
C190	C	0.254825	-0.591815	-0.545601
C191	C	-0.216464	-1.142373	-0.174715
C192	C	0.283536	-0.642373	0.325285
C193	C	-0.216475	-1.142418	-0.086858
C194	C	0.283525	-0.642418	0.413142
H195	H	-0.387907	-1.050673	-0.289105
H196	H	0.112093	-0.550673	0.210895
H197	H	-0.744488	-1.284536	-0.523027
H198	H	-0.244488	-0.784536	-0.023027
F199	F	-0.128553	-0.727856	-0.225762
F200	F	0.371447	-0.227856	0.274238
F201	F	-0.157228	-0.851677	-0.276359
F202	F	0.342772	-0.351677	0.223641
H203	H	-1.045421	-1.234070	-0.472368
H204	H	-0.545421	-0.734070	0.027632
H205	H	-0.135736	-0.567760	-0.238438
H206	H	0.364264	-0.067760	0.261562
F207	F	-0.304419	-0.987360	-0.965739
F208	F	0.195581	-0.487360	-0.465739
F209	F	-0.157252	-0.433623	-0.276416
F210	F	0.342748	0.066377	0.223584
F211	F	-0.478900	-1.246652	-0.485173
F212	F	0.021100	-0.746652	0.014827
F213	F	-0.304323	-0.727892	-0.536013
F214	F	0.195677	-0.227892	-0.036013
F215	F	-0.157182	-1.246640	-0.671426
F216	F	0.342818	-0.746640	-0.171426
F217	F	-0.304397	-0.987278	-0.795321
F218	F	0.195603	-0.487278	-0.295321
H219	H	-0.268502	-1.050450	-0.681798
H220	H	0.231498	-0.550450	-0.181798
H221	H	-0.268479	-0.443976	-0.472760
H222	H	0.231521	0.056024	0.027240
F223	F	-0.275632	-0.851712	-0.485369
F224	F	0.224368	-0.351712	0.014631
F225	F	-0.954437	-1.038084	-0.276299
F226	F	-0.454437	-0.538084	0.223701
F227	F	-0.275729	-1.037994	-1.089538
F228	F	0.224271	-0.537994	-0.589538
F229	F	-0.128495	-1.297286	-0.795233
F230	F	0.371505	-0.797286	-0.295233
H231	H	-0.135681	-1.284721	-0.955317
H232	H	0.364319	-0.784721	-0.455317
F233	F	-0.304315	-0.557490	-0.536043
F234	F	0.195685	-0.057490	-0.036043
H235	H	-0.164403	-1.234192	-1.079160
H236	H	0.335597	-0.734192	-0.579160
H237	H	-0.960314	-1.234049	-0.472409
H238	H	-0.460314	-0.734049	0.027591
F239	F	-0.597864	-0.987519	-0.225853
F240	F	-0.097864	-0.487519	0.274147
F241	F	-0.694697	-0.987517	-0.225836
F242	F	-0.194697	-0.487517	0.274164
F243	F	-1.051290	-1.038097	-0.276281
F244	F	-0.551290	-0.538097	0.223719
F245	F	-0.478880	-1.038033	-0.276440
F246	F	0.021120	-0.538033	0.223560
H247	H	-0.603730	-1.284522	-0.523078
H248	H	-0.103730	-0.784522	-0.023078
F249	F	-0.694703	-1.297162	-0.535704
F250	F	-0.194703	-0.797162	-0.035704
F251	F	-0.382044	-1.246635	-0.485200
F252	F	0.117956	-0.746635	0.014800
F253	F	-0.738610	-0.987528	-0.225817
F254	F	-0.238610	-0.487528	0.274183
H255	H	-0.829593	-1.284549	-0.523001
H256	H	-0.329593	-0.784549	-0.023001
F257	F	-0.835459	-0.987543	-0.225799
F258	F	-0.335459	-0.487543	0.274201
