data_functionalizedCrystal
_audit_creation_method	'MofGen! by Chris Wilmer'
_symmetry_space_group_name_H-M	'P1'
_symmetry_Int_Tables_number	1
_symmetry_cell_setting	triclinic
loop_
_symmetry_equiv_pos_as_xyz
  x,y,z
_cell_length_a	16.120484
_cell_length_b	14.908571
_cell_length_c	14.908308
_cell_angle_alpha	90.175053
_cell_angle_beta	84.013929
_cell_angle_gamma	90.212688
loop_
_atom_site_label
_atom_site_type_symbol
_atom_site_fract_x
_atom_site_fract_y
_atom_site_fract_z
Zn1	Zn	-0.434923	-1.320097	0.609960
Zn2	Zn	-0.566744	-1.321040	0.466383
Zn3	Zn	-0.418915	-1.179340	0.450134
Zn4	Zn	-0.565754	-1.162126	0.607984
O5	O	-0.496584	-1.245651	0.533615
O6	O	-0.459523	-1.445636	0.598542
O7	O	-0.540849	-1.309843	0.338080
O8	O	-0.304418	-1.204822	0.465363
O9	O	-0.556371	-1.446329	0.493056
O10	O	-0.316179	-1.308235	0.582786
O11	O	-0.432240	-1.205736	0.326142
O12	O	-0.431280	-1.051643	0.463446
O13	O	-0.554684	-1.175482	0.734394
O14	O	-0.539162	-1.038995	0.579418
O15	O	-0.458562	-1.291543	0.735846
O16	O	-0.683233	-1.293150	0.491140
O17	O	-0.682506	-1.176396	0.595173
C18	C	-0.713110	-1.233031	0.544726
C19	C	-0.805747	-1.227712	0.549515
C20	C	-0.508298	-1.231487	0.768743
C21	C	-0.513290	-1.225451	0.868941
C22	C	-0.483377	-1.012801	0.519455
C23	C	-0.477748	-0.913184	0.513419
C24	C	-0.975358	-1.218005	0.558276
C25	C	-1.016980	-1.273456	0.508979
C26	C	-1.111356	-1.268055	0.513854
C27	C	-0.880972	-1.223405	0.553403
C28	C	-0.279214	-1.258344	0.522482
C29	C	-0.186584	-1.263752	0.517738
C30	C	-0.509843	-1.479410	0.547832
C31	C	-0.515493	-1.579025	0.553890
C32	C	-0.579666	-0.712871	0.622692
C33	C	-0.574380	-0.619272	0.617025
C34	C	-0.461887	-0.632384	0.496421
C35	C	-0.467173	-0.725983	0.502089
C36	C	-0.526065	-0.766223	0.565226
C37	C	-0.531355	-0.859824	0.570888
C38	C	-0.418858	-0.872935	0.450290
C39	C	-0.413572	-0.779335	0.444622
C40	C	-0.484858	-1.259815	0.299402
C41	C	-0.479641	-1.266038	0.199204
C42	C	-0.422560	-1.334963	1.058735
C43	C	-0.427248	-1.329294	1.152880
C44	C	-0.527348	-1.208443	1.151376
C45	C	-0.522661	-1.214111	1.057231
C46	C	-0.470266	-1.277374	1.010914
C47	C	-0.465583	-1.283046	0.916769
C48	C	-0.565679	-1.162191	0.915266
C49	C	-0.570366	-1.156523	1.009410
H50	H	-0.981734	-1.324985	0.463113
H51	H	-0.579309	-0.892586	0.622296
F52	F	-0.616462	-1.100904	0.864366
H53	H	-1.010601	-1.166480	0.604138
H54	H	-0.627623	-0.745635	0.674096
F55	F	-0.366807	-1.402298	1.009440
H56	H	-0.375214	-0.916384	0.403494
H57	H	-0.422921	-1.334559	0.879059
F58	F	-0.376472	-1.390587	1.203771
H59	H	-0.570005	-1.156937	1.189103
H60	H	-0.618026	-0.575836	0.663822
F61	F	-0.399204	-0.589542	0.429243
F62	F	-0.350895	-0.736499	0.377435
H63	H	-0.613023	-1.105015	1.047134
