data_functionalizedCrystal
_audit_creation_method	'MofGen! by Chris Wilmer'
_symmetry_space_group_name_H-M	'P1'
_symmetry_Int_Tables_number	1
_symmetry_cell_setting	triclinic
loop_
_symmetry_equiv_pos_as_xyz
  x,y,z
_cell_length_a	14.044220
_cell_length_b	17.699083
_cell_length_c	13.101039
_cell_angle_alpha	93.361896
_cell_angle_beta	93.659868
_cell_angle_gamma	91.764054
loop_
_atom_site_label
_atom_site_type_symbol
_atom_site_fract_x
_atom_site_fract_y
_atom_site_fract_z
O1	O	-1.262501	0.178623	-0.085078
O2	O	-0.762501	0.678623	0.414922
O3	O	-0.986549	0.172038	-0.085105
O4	O	-0.486549	0.672038	0.414895
O5	O	-1.132322	0.065679	-0.085101
O6	O	-0.632322	0.565679	0.414899
O7	O	-1.116728	0.284982	-0.085082
O8	O	-0.616728	0.784982	0.414918
O9	O	-1.121863	0.073324	0.085329
O10	O	-0.621863	0.573324	0.585329
O11	O	-0.976090	0.179683	0.085324
O12	O	-0.476090	0.679683	0.585324
O13	O	-1.252042	0.186268	0.085351
O14	O	-0.752042	0.686268	0.585351
Zn15	Zn	-1.112405	0.184189	0.112397
Zn16	Zn	-0.612405	0.684189	0.612397
Zn17	Zn	-1.126186	0.174117	-0.112151
Zn18	Zn	-0.626186	0.674117	0.387849
O19	O	-1.106269	0.292627	0.085347
O20	O	-0.606269	0.792627	0.585347
C21	C	-0.946012	0.172979	0.000106
C22	C	-0.446012	0.672979	0.500106
C23	C	-0.840807	0.164382	0.000095
C24	C	-0.340807	0.664382	0.500095
C25	C	-1.292580	0.185327	0.000138
C26	C	-0.792580	0.685327	0.500138
C27	C	-1.397785	0.193923	0.000142
C28	C	-0.897785	0.693923	0.500142
C29	C	-1.126534	0.041266	0.000109
C30	C	-0.626534	0.541266	0.500109
C31	C	-1.124859	-0.042869	0.000095
C32	C	-0.624859	0.457131	0.500095
C33	C	-0.648180	0.148668	0.000114
C34	C	-0.148180	0.648668	0.500114
C35	C	-0.590406	0.209634	0.000123
C36	C	-0.090406	0.709634	0.500123
C37	C	-0.483222	0.200891	0.000134
C38	C	0.016778	0.700891	0.500134
C39	C	-0.755374	0.157411	0.000103
C40	C	-0.255374	0.657411	0.500103
C41	C	-1.112057	0.317041	0.000135
C42	C	-0.612057	0.817041	0.500135
C43	C	-1.113733	0.401175	0.000143
C44	C	-0.613733	0.901175	0.500143
N45	N	-1.103008	0.191064	0.265646
N46	N	-0.603008	0.691064	0.765646
C47	C	-1.028168	0.443893	0.000134
C48	C	-0.528168	0.943893	0.500134
C49	C	-1.029749	0.522945	0.000122
C50	C	-0.529749	1.022945	0.500122
C51	C	-1.116896	0.559277	0.000126
C52	C	-0.616896	1.059277	0.500126
C53	C	-1.202468	0.516553	0.000132
C54	C	-0.702468	1.016553	0.500132
C55	C	-1.200886	0.437502	0.000136
C56	C	-0.700886	0.937502	0.500136
C57	C	-1.208850	0.835355	0.000112
C58	C	-0.708850	1.335355	0.500112
C59	C	-1.210425	0.914412	0.000110
C60	C	-0.710425	1.414412	0.500110
C61	C	-1.037712	0.920797	0.000098
C62	C	-0.537712	1.420797	0.500098
C63	C	-1.036130	0.841747	0.000103
C64	C	-0.536130	1.341747	0.500103
C65	C	-1.121702	0.799030	0.000103
C66	C	-0.621702	1.299030	0.500103
C67	C	-1.119987	0.713313	0.000114
C68	C	-0.619987	1.213313	0.500114
C69	C	-1.118612	0.644993	0.000123
C70	C	-0.618612	1.144993	0.500123
N71	N	-1.135591	0.167237	-0.265399
N72	N	-0.635591	0.667237	0.234601
C73	C	-1.090222	0.200423	0.474688
C74	C	-0.590222	0.700423	0.974688
C75	C	-1.148374	0.157880	0.525565
C76	C	-0.648374	0.657880	1.025565
C77	C	-1.141260	0.163088	0.641883
C78	C	-0.641260	0.663088	1.141883
C79	C	-1.097335	0.195216	0.358359
C80	C	-0.597335	0.695216	0.858359
H81	H	-0.621442	0.268396	0.000123
H82	H	-0.121442	0.768396	0.500123
Cl83	Cl	-0.600266	0.057949	0.000108
Cl84	Cl	-0.100266	0.557949	0.500108
H85	H	-1.203503	0.117547	0.481764
H86	H	-0.703503	0.617547	0.981764
H87	H	-0.957201	0.414317	0.000143
H88	H	-0.457201	0.914317	0.500143
Cl89	Cl	-1.005114	0.262695	0.542307
Cl90	Cl	-0.505114	0.762695	1.042307
H91	H	-0.960073	0.557722	0.000112
H92	H	-0.460073	1.057722	0.500112
H93	H	-0.965166	0.812169	0.000105
H94	H	-0.465166	1.312169	0.500105
Cl95	Cl	-0.930134	0.974504	0.000092
Cl96	Cl	-0.430134	1.474504	0.500092
Cl97	Cl	-1.319990	0.960086	0.000112
Cl98	Cl	-0.819990	1.460086	0.500112
H99	H	-1.273425	0.546141	0.000137
H100	H	-0.773425	1.046141	0.500137
Cl101	Cl	-1.316426	0.781664	0.000123
Cl102	Cl	-0.816426	1.281664	0.500123
Cl103	Cl	-1.308459	0.383799	0.000140
Cl104	Cl	-0.808459	0.883799	0.500140
