data_functionalizedCrystal
_audit_creation_method	'MofGen! by Chris Wilmer'
_symmetry_space_group_name_H-M	'P1'
_symmetry_Int_Tables_number	1
_symmetry_cell_setting	triclinic
loop_
_symmetry_equiv_pos_as_xyz
  x,y,z
_cell_length_a	18.215405
_cell_length_b	21.395364
_cell_length_c	21.395355
_cell_angle_alpha	89.975273
_cell_angle_beta	89.980149
_cell_angle_gamma	90.023218
loop_
_atom_site_label
_atom_site_type_symbol
_atom_site_fract_x
_atom_site_fract_y
_atom_site_fract_z
Zn1	Zn	-0.293102	0.957884	-0.354259
Zn2	Zn	-0.043102	1.207884	-0.104259
Zn3	Zn	0.206898	1.457884	0.145741
Zn4	Zn	0.456898	1.707884	0.395741
Zn5	Zn	-0.416151	0.957798	-0.249479
Zn6	Zn	-0.166151	1.207798	0.000521
Zn7	Zn	0.083849	1.457798	0.250521
Zn8	Zn	0.333849	1.707798	0.500521
Zn9	Zn	-0.293099	0.853099	-0.249495
Zn10	Zn	-0.043099	1.103099	0.000505
Zn11	Zn	0.206901	1.353099	0.250505
Zn12	Zn	0.456901	1.603099	0.500505
Zn13	Zn	-0.416128	0.853079	-0.354218
Zn14	Zn	-0.166128	1.103079	-0.104218
Zn15	Zn	0.083872	1.353079	0.145782
Zn16	Zn	0.333872	1.603079	0.395782
O17	O	-0.354620	0.905465	-0.301863
O18	O	-0.104620	1.155465	-0.051863
O19	O	0.145380	1.405465	0.198137
O20	O	0.395380	1.655465	0.448137
O21	O	-0.309436	1.045551	-0.340369
O22	O	-0.059436	1.295551	-0.090369
O23	O	0.190564	1.545551	0.159631
O24	O	0.440564	1.795551	0.409631
O25	O	-0.399835	0.943881	-0.161803
O26	O	-0.149835	1.193881	0.088197
O27	O	0.100165	1.443881	0.338197
O28	O	0.350165	1.693881	0.588197
O29	O	-0.190115	0.867044	-0.263416
O30	O	0.059885	1.117044	-0.013416
O31	O	0.309885	1.367044	0.236584
O32	O	0.559885	1.617044	0.486584
O33	O	-0.399839	1.045487	-0.263388
O34	O	-0.149839	1.295487	-0.013388
O35	O	0.100161	1.545487	0.236612
O36	O	0.350161	1.795487	0.486612
O37	O	-0.190118	0.944029	-0.340385
O38	O	0.059882	1.194029	-0.090385
O39	O	0.309882	1.444029	0.159615
O40	O	0.559882	1.694029	0.409615
O41	O	-0.309430	0.866960	-0.161815
O42	O	-0.059430	1.116960	0.088185
O43	O	0.190570	1.366960	0.338185
O44	O	0.440570	1.616960	0.588185
O45	O	-0.309408	0.765419	-0.263377
O46	O	-0.059408	1.015419	-0.013377
O47	O	0.190592	1.265419	0.236623
O48	O	0.440592	1.515419	0.486623
O49	O	-0.399800	0.867010	-0.441902
O50	O	-0.149800	1.117010	-0.191902
O51	O	0.100200	1.367010	0.058098
O52	O	0.350200	1.617010	0.308098
O53	O	-0.399797	0.765404	-0.340317
O54	O	-0.149797	1.015404	-0.090317
O55	O	0.100203	1.265404	0.159683
O56	O	0.350203	1.515404	0.409683
O57	O	-0.309414	0.944010	-0.441931
O58	O	-0.059414	1.194010	-0.191931
O59	O	0.190586	1.444010	0.058069
O60	O	0.440586	1.694010	0.308069
O61	O	-0.519132	0.943862	-0.263349
O62	O	-0.269132	1.193862	-0.013349
O63	O	-0.019132	1.443862	0.236651
O64	O	0.230868	1.693862	0.486651
O65	O	-0.519115	0.866926	-0.340301
O66	O	-0.269115	1.116926	-0.090301
O67	O	-0.019115	1.366926	0.159699
O68	O	0.230885	1.616926	0.409699
C69	C	-0.354600	0.742678	-0.301845
C70	C	-0.104600	0.992678	-0.051845
C71	C	0.145400	1.242678	0.198155
C72	C	0.395400	1.492678	0.448155
C73	C	-0.354610	0.673036	-0.301852
C74	C	-0.104610	0.923036	-0.051852
C75	C	0.145390	1.173036	0.198148
C76	C	0.395390	1.423036	0.448148
C77	C	-0.545826	0.905399	-0.301832
C78	C	-0.295826	1.155399	-0.051832
C79	C	-0.045826	1.405399	0.198168
C80	C	0.204174	1.655399	0.448168
C81	C	-0.627625	0.905428	-0.301841
C82	C	-0.377625	1.155428	-0.051841
C83	C	-0.127625	1.405428	0.198159
C84	C	0.122375	1.655428	0.448159
C85	C	-0.401772	0.171249	-0.341886
C86	C	-0.151772	0.421249	-0.091886
C87	C	0.098228	0.671249	0.158114
C88	C	0.348228	0.921249	0.408114
C89	C	-0.401772	0.236684	-0.341880
C90	C	-0.151772	0.486684	-0.091880
C91	C	0.098228	0.736684	0.158120
C92	C	0.348228	0.986684	0.408120
C93	C	-0.354636	0.269398	-0.301882
C94	C	-0.104636	0.519398	-0.051882
C95	C	0.145364	0.769398	0.198118
C96	C	0.395364	1.019398	0.448118
C97	C	-0.307510	0.236671	-0.261877
C98	C	-0.057510	0.486671	-0.011877
C99	C	0.192490	0.736671	0.238123
C100	C	0.442490	0.986671	0.488123
C101	C	-0.307516	0.171237	-0.261880
C102	C	-0.057516	0.421237	-0.011880
C103	C	0.192484	0.671237	0.238120
C104	C	0.442484	0.921237	0.488120
C105	C	-0.288313	0.373081	-0.297033
C106	C	-0.038313	0.623081	-0.047033
C107	C	0.211687	0.873081	0.202967
C108	C	0.461687	1.123081	0.452967
C109	C	-0.288306	0.438514	-0.297034
C110	C	-0.038306	0.688514	-0.047034
C111	C	0.211694	0.938514	0.202966
C112	C	0.461694	1.188514	0.452966
C113	C	-0.354617	0.471219	-0.301869
C114	C	-0.104617	0.721219	-0.051869
C115	C	0.145383	0.971219	0.198131
C116	C	0.395383	1.221219	0.448131
C117	C	-0.420937	0.438482	-0.306716
C118	C	-0.170937	0.688482	-0.056716
C119	C	0.079063	0.938482	0.193284
C120	C	0.329063	1.188482	0.443284
C121	C	-0.420944	0.373048	-0.306719
C122	C	-0.170944	0.623048	-0.056719
C123	C	0.079056	0.873048	0.193281
C124	C	0.329056	1.123048	0.443281
C125	C	-0.354624	0.340350	-0.301874
C126	C	-0.104624	0.590350	-0.051874
C127	C	0.145376	0.840350	0.198126
C128	C	0.395376	1.090350	0.448126
C129	C	-0.401744	0.574890	-0.341861
C130	C	-0.151744	0.824890	-0.091861
C131	C	0.098256	1.074890	0.158139
C132	C	0.348256	1.324890	0.408139
C133	C	-0.401745	0.640327	-0.341850
C134	C	-0.151745	0.890327	-0.091850
C135	C	0.098255	1.140327	0.158150
C136	C	0.348255	1.390327	0.408150
C137	C	-0.307476	0.640312	-0.261851
C138	C	-0.057476	0.890312	-0.011851
C139	C	0.192524	1.140312	0.238149
C140	C	0.442524	1.390312	0.488149
C141	C	-0.307482	0.574877	-0.261859
C142	C	-0.057482	0.824877	-0.011859
C143	C	0.192518	1.074877	0.238141
C144	C	0.442518	1.324877	0.488141
C145	C	-0.354614	0.542170	-0.301867
C146	C	-0.104614	0.792170	-0.051867
C147	C	0.145386	1.042170	0.198133
C148	C	0.395386	1.292170	0.448133
C149	C	-0.815803	0.945583	-0.261845
C150	C	-0.565803	1.195583	-0.011845
C151	C	-0.315803	1.445583	0.238155
C152	C	-0.065803	1.695583	0.488155
C153	C	-0.892662	0.945611	-0.261861
C154	C	-0.642662	1.195611	-0.011861
C155	C	-0.392662	1.445611	0.238139
C156	C	-0.142662	1.695611	0.488139
C157	C	-0.892685	0.865428	-0.341925
C158	C	-0.642685	1.115428	-0.091925
C159	C	-0.392685	1.365428	0.158075
C160	C	-0.142685	1.615428	0.408075
C161	C	-0.815827	0.865403	-0.341912
C162	C	-0.565827	1.115403	-0.091912
C163	C	-0.315827	1.365403	0.158088
C164	C	-0.065827	1.615403	0.408088
C165	C	-0.777389	0.905480	-0.301869
C166	C	-0.527389	1.155480	-0.051869
C167	C	-0.277389	1.405480	0.198131
C168	C	-0.027389	1.655480	0.448131
C169	C	-0.931105	0.905532	-0.301897
C170	C	-0.681105	1.155532	-0.051897
C171	C	-0.431105	1.405532	0.198103
C172	C	-0.181105	1.655532	0.448103
C173	C	-1.014438	0.905562	-0.301913
C174	C	-0.764438	1.155562	-0.051913
C175	C	-0.514438	1.405562	0.198087
C176	C	-0.264438	1.655562	0.448087
C177	C	-0.694050	0.905451	-0.301853
C178	C	-0.444050	1.155451	-0.051853
C179	C	-0.194050	1.405451	0.198147
C180	C	0.055950	1.655451	0.448147
C181	C	-0.162667	0.905549	-0.301907
C182	C	0.087333	1.155549	-0.051907
C183	C	0.337333	1.405549	0.198093
C184	C	0.587333	1.655549	0.448093
C185	C	-0.080868	0.905584	-0.301925
C186	C	0.169132	1.155584	-0.051925
C187	C	0.419132	1.405584	0.198075
C188	C	0.669132	1.655584	0.448075
C189	C	-0.354605	0.905517	-0.465286
C190	C	-0.104605	1.155517	-0.215286
C191	C	0.145395	1.405517	0.034714
C192	C	0.395395	1.655517	0.284714
C193	C	-0.354599	0.905539	-0.534927
C194	C	-0.104599	1.155539	-0.284927
C195	C	0.145401	1.405539	-0.034927
C196	C	0.395401	1.655539	0.215073
C197	C	-0.354640	1.068888	-0.301881
C198	C	-0.104640	1.318888	-0.051881
C199	C	0.145360	1.568888	0.198119
C200	C	0.395360	1.818888	0.448119
C201	C	-0.354649	1.138530	-0.301889
C202	C	-0.104649	1.388530	-0.051889
C203	C	0.145351	1.638530	0.198111
C204	C	0.395351	1.888530	0.448111
C205	C	-0.307532	0.945631	-0.567657
C206	C	-0.057532	1.195631	-0.317657
C207	C	0.192468	1.445631	-0.067657
C208	C	0.442468	1.695631	0.182343
C209	C	-0.307501	0.945631	-0.633092
C210	C	-0.057501	1.195631	-0.383092
C211	C	0.192499	1.445631	-0.133092
C212	C	0.442499	1.695631	0.116908
C213	C	-0.354549	0.905544	-0.665796
C214	C	-0.104549	1.155544	-0.415796
C215	C	0.145451	1.405544	-0.165796
C216	C	0.395451	1.655544	0.084204
C217	C	-0.401618	0.865444	-0.633058
C218	C	-0.151618	1.115444	-0.383058
C219	C	0.098382	1.365444	-0.133058
C220	C	0.348382	1.615444	0.116942
C221	C	-0.401643	0.865442	-0.567624
C222	C	-0.151643	1.115442	-0.317624
C223	C	0.098357	1.365442	-0.067624
C224	C	0.348357	1.615442	0.182376
C225	C	-0.420812	0.900574	-0.769460
C226	C	-0.170812	1.150574	-0.519460
C227	C	0.079188	1.400574	-0.269460
C228	C	0.329188	1.650574	-0.019460
C229	C	-0.420789	0.900581	-0.834893
C230	C	-0.170789	1.150581	-0.584893
C231	C	0.079211	1.400581	-0.334893
C232	C	0.329211	1.650581	-0.084893
C233	C	-0.354471	0.905548	-0.867616
C234	C	-0.104471	1.155548	-0.617616
C235	C	0.145529	1.405548	-0.367616
C236	C	0.395529	1.655548	-0.117616
C237	C	-0.288175	0.910522	-0.834899
C238	C	-0.038175	1.160522	-0.584899
C239	C	0.211825	1.410522	-0.334899
C240	C	0.461825	1.660522	-0.084899
C241	C	-0.288200	0.910519	-0.769465
C242	C	-0.038200	1.160519	-0.519465
C243	C	0.211800	1.410519	-0.269465
C244	C	0.461800	1.660519	-0.019465
C245	C	-0.354526	0.905542	-0.736748
C246	C	-0.104526	1.155542	-0.486748
C247	C	0.145474	1.405542	-0.236748
C248	C	0.395474	1.655542	0.013252
C249	C	-0.307366	0.945641	-0.971299
C250	C	-0.057366	1.195641	-0.721299
C251	C	0.192634	1.445641	-0.471299
C252	C	0.442634	1.695641	-0.221299
C253	C	-0.307333	0.945636	-1.036735
C254	C	-0.057333	1.195636	-0.786735
C255	C	0.192667	1.445636	-0.536735
C256	C	0.442667	1.695636	-0.286735
C257	C	-0.401457	0.865453	-1.036700
C258	C	-0.151457	1.115453	-0.786700
C259	C	0.098543	1.365453	-0.536700
C260	C	0.348543	1.615453	-0.286700
C261	C	-0.401483	0.865455	-0.971265
C262	C	-0.151483	1.115455	-0.721265
C263	C	0.098517	1.365455	-0.471265
C264	C	0.348517	1.615455	-0.221265
C265	C	-0.354439	0.905553	-0.938568
C266	C	-0.104439	1.155553	-0.688568
C267	C	0.145561	1.405553	-0.438568
C268	C	0.395561	1.655553	-0.188568
C269	C	-0.354582	0.905449	-0.139075
C270	C	-0.104582	1.155449	0.110925
C271	C	0.145418	1.405449	0.360925
C272	C	0.395418	1.655449	0.610925
C273	C	-0.354381	0.905549	-0.069434
C274	C	-0.104381	1.155549	0.180566
C275	C	0.145619	1.405549	0.430566
C276	C	0.395619	1.655549	0.680566
H277	H	-0.440153	0.144623	-0.374462
H278	H	-0.190153	0.394623	-0.124462
H279	H	0.059847	0.644623	0.125538
H280	H	0.309847	0.894623	0.375538
H281	H	-0.784508	0.978216	-0.229241
H282	H	-0.534508	1.228216	0.020759
H283	H	-0.284508	1.478216	0.270759
H284	H	-0.034508	1.728216	0.520759
F285	F	-0.451908	0.540079	-0.384439
F286	F	-0.201908	0.790079	-0.134439
F287	F	0.048092	1.040079	0.115561
F288	F	0.298092	1.290079	0.365561
H289	H	-0.269141	0.144597	-0.229309
H290	H	-0.019141	0.394597	0.020691
H291	H	0.230859	0.644597	0.270691
H292	H	0.480859	0.894597	0.520691
F293	F	-0.451524	0.822785	-1.071501
F294	F	-0.201524	1.072785	-0.821501
F295	F	0.048476	1.322785	-0.571501
F296	F	0.298476	1.572785	-0.321501
F297	F	-0.451740	0.822768	-0.532790
F298	F	-0.201740	1.072768	-0.282790
F299	F	0.048260	1.322768	-0.032790
F300	F	0.298260	1.572768	0.217210
F301	F	-0.933542	0.988295	-0.219263
F302	F	-0.683542	1.238295	0.030737
F303	F	-0.433542	1.488295	0.280737
F304	F	-0.183542	1.738295	0.530737
F305	F	-0.933600	0.822777	-0.384538
F306	F	-0.683600	1.072777	-0.134538
F307	F	-0.433600	1.322777	0.115462
F308	F	-0.183600	1.572777	0.365462
H309	H	-0.439922	0.832804	-0.659690
H310	H	-0.189922	1.082804	-0.409690
H311	H	0.060078	1.332804	-0.159690
H312	H	0.310078	1.582804	0.090310
H313	H	-0.474934	0.465109	-0.310658
H314	H	-0.224934	0.715109	-0.060658
H315	H	0.025066	0.965109	0.189342
H316	H	0.275066	1.215109	0.439342
H317	H	-0.784548	0.832747	-0.374507
H318	H	-0.534548	1.082747	-0.124507
H319	H	-0.284548	1.332747	0.125493
H320	H	-0.034548	1.582747	0.375493
H321	H	-0.269224	0.978281	-0.541039
H322	H	-0.019224	1.228281	-0.291039
H323	H	0.230776	1.478281	-0.041039
H324	H	0.480776	1.728281	0.208961
H325	H	-0.474802	0.896361	-0.742822
H326	H	-0.224802	1.146361	-0.492822
H327	H	0.025198	1.396361	-0.242822
H328	H	0.275198	1.646361	0.007178
F329	F	-0.451928	0.271513	-0.384453
F330	F	-0.201928	0.521513	-0.134453
F331	F	0.048072	0.771513	0.115547
F332	F	0.298072	1.021513	0.365547
H333	H	-0.474944	0.346397	-0.310664
H334	H	-0.224944	0.596397	-0.060664
H335	H	0.025056	0.846397	0.189336
H336	H	0.275056	1.096397	0.439336
H337	H	-0.440123	0.666966	-0.374419
H338	H	-0.190123	0.916966	-0.124419
H339	H	0.059877	1.166966	0.125581
H340	H	0.309877	1.416966	0.375581
F341	F	-0.257316	0.675124	-0.219277
F342	F	-0.007316	0.925124	0.030723
F343	F	0.242684	1.175124	0.280723
F344	F	0.492684	1.425124	0.530723
H345	H	-0.234303	0.465163	-0.293094
H346	H	0.015697	0.715163	-0.043094
H347	H	0.265697	0.965163	0.206906
H348	H	0.515697	1.215163	0.456906
F349	F	-0.257321	0.540054	-0.219291
F350	F	-0.007321	0.790054	0.030709
F351	F	0.242679	1.040054	0.280709
F352	F	0.492679	1.290054	0.530709
F353	F	-0.257245	0.988317	-1.071568
F354	F	-0.007245	1.238317	-0.821568
F355	F	0.242755	1.488317	-0.571568
F356	F	0.492755	1.738317	-0.321568
H357	H	-0.234312	0.346458	-0.293085
H358	H	0.015688	0.596458	-0.043085
H359	H	0.265688	0.846458	0.206915
H360	H	0.515688	1.096458	0.456915
H361	H	-0.269133	0.263311	-0.229310
H362	H	-0.019133	0.513311	0.020690
H363	H	0.230867	0.763311	0.270690
H364	H	0.480867	1.013311	0.520690
F365	F	-0.257392	0.988294	-0.667932
F366	F	-0.007392	1.238294	-0.417932
F367	F	0.242608	1.488294	-0.167932
F368	F	0.492608	1.738294	0.082068
H369	H	-0.234173	0.914567	-0.861541
H370	H	0.015827	1.164567	-0.611541
H371	H	0.265827	1.414567	-0.361541
H372	H	0.515827	1.664567	-0.111541
F373	F	-0.217645	0.915809	-0.734647
F374	F	0.032355	1.165809	-0.484647
F375	F	0.282355	1.415809	-0.234647
F376	F	0.532355	1.665809	0.015353
F377	F	-0.257295	0.988313	-0.936498
F378	F	-0.007295	1.238313	-0.686498
F379	F	0.242705	1.488313	-0.436498
F380	F	0.492705	1.738313	-0.186498
F381	F	-0.451581	0.822785	-0.936430
F382	F	-0.201581	1.072785	-0.686430
F383	F	0.048419	1.322785	-0.436430
F384	F	0.298419	1.572785	-0.186430
H385	H	-0.474771	0.896535	-0.861526
H386	H	-0.224771	1.146535	-0.611526
H387	H	0.025229	1.396535	-0.361526
H388	H	0.275229	1.646535	-0.111526
