data_functionalizedCrystal
_audit_creation_method	'MofGen! by Chris Wilmer'
_symmetry_space_group_name_H-M	'P1'
_symmetry_Int_Tables_number	1
_symmetry_cell_setting	triclinic
loop_
_symmetry_equiv_pos_as_xyz
  x,y,z
_cell_length_a	14.044220
_cell_length_b	27.732048
_cell_length_c	12.503572
_cell_angle_alpha	93.489054
_cell_angle_beta	86.164750
_cell_angle_gamma	87.915767
loop_
_atom_site_label
_atom_site_type_symbol
_atom_site_fract_x
_atom_site_fract_y
_atom_site_fract_z
O1	O	1.261499	0.113903	-0.089228
O2	O	1.594832	0.447236	0.244105
O3	O	1.928165	0.780570	0.577439
O4	O	0.985593	0.109700	-0.089254
O5	O	1.318926	0.443033	0.244079
O6	O	1.652259	0.776366	0.577412
O7	O	1.132113	0.041807	-0.089220
O8	O	1.465447	0.375141	0.244113
O9	O	1.798780	0.708474	0.577447
O10	O	1.114978	0.181795	-0.089262
O11	O	1.448311	0.515129	0.244071
O12	O	1.781644	0.848462	0.577404
O13	O	1.121094	0.046922	0.089419
O14	O	1.454427	0.380256	0.422753
O15	O	1.787761	0.713589	0.756086
O16	O	0.974573	0.114815	0.089385
O17	O	1.307907	0.448148	0.422718
O18	O	1.641240	0.781482	0.756052
O19	O	1.250479	0.119018	0.089411
O20	O	1.583813	0.452351	0.422745
O21	O	1.917146	0.785685	0.756078
Cu22	Cu	1.111520	0.117384	0.105709
Cu23	Cu	1.444853	0.450717	0.439043
Cu24	Cu	1.778187	0.784050	0.772376
Cu25	Cu	1.124552	0.111334	-0.105552
Cu26	Cu	1.457885	0.444668	0.227781
Cu27	Cu	1.791218	0.778001	0.561114
O28	O	1.103958	0.186910	0.089377
O29	O	1.437292	0.520244	0.422710
O30	O	1.770625	0.853577	0.756044
C31	C	0.944796	0.110418	0.000062
C32	C	1.278129	0.443751	0.333396
C33	C	1.611462	0.777084	0.666729
C34	C	0.839651	0.104930	0.000053
C35	C	1.172984	0.438264	0.333386
C36	C	1.506317	0.771597	0.666720
C37	C	0.647135	0.094899	0.000077
C38	C	0.980468	0.428233	0.333411
C39	C	1.313801	0.761566	0.666744
C40	C	0.588932	0.133816	0.000070
C41	C	0.922265	0.467149	0.333403
C42	C	1.255599	0.800483	0.666737
C43	C	0.481809	0.128235	0.000084
C44	C	0.815143	0.461568	0.333417
C45	C	1.148476	0.794901	0.666750
C46	C	0.754267	0.100480	0.000064
C47	C	1.087601	0.433813	0.333397
C48	C	1.420934	0.767147	0.666731
C49	C	1.126244	0.026341	0.000103
C50	C	1.459577	0.359675	0.333436
C51	C	1.792910	0.693008	0.666769
C52	C	1.125160	-0.027364	0.000111
C53	C	1.458493	0.305969	0.333445
C54	C	1.791827	0.639302	0.666778
C55	C	1.291276	0.118300	0.000092
C56	C	1.624610	0.451633	0.333426
C57	C	1.957943	0.784967	0.666759
C58	C	1.396422	0.123787	0.000094
C59	C	1.729755	0.457121	0.333428
C60	C	2.063088	0.790454	0.666761
C61	C	1.204929	-0.362437	0.000064
C62	C	1.538262	-0.029104	0.333397
C63	C	1.871595	0.304229	0.666731
C64	C	1.200910	-0.564286	0.000049
C65	C	1.534244	-0.230953	0.333382
C66	C	1.867577	0.102381	0.666715
O67	O	1.273853	-0.592120	0.000008
O68	O	1.607186	-0.258787	0.333342
O69	O	1.940519	0.074547	0.666675
N70	N	1.114029	-0.587487	0.000041
N71	N	1.447362	-0.254154	0.333375
N72	N	1.780695	0.079179	0.666708
C73	C	1.028146	-0.560223	0.000031
C74	C	1.361479	-0.226890	0.333364
C75	C	1.694813	0.106443	0.666697
O76	O	0.954156	-0.584589	0.000013
O77	O	1.287490	-0.251256	0.333346
O78	O	1.620823	0.082077	0.666680
C79	C	1.032166	-0.358376	0.000038
C80	C	1.365499	-0.025042	0.333372
C81	C	1.698832	0.308291	0.666705
C82	C	1.119052	-0.335177	0.000057
C83	C	1.452386	-0.001844	0.333390
C84	C	1.785719	0.331490	0.666723
C85	C	1.291808	-0.339238	0.000081
C86	C	1.625141	-0.005905	0.333414
C87	C	1.958475	0.327428	0.666747
C88	C	1.292811	-0.288779	0.000091
C89	C	1.626145	0.044554	0.333424
C90	C	1.959478	0.377888	0.666757
C91	C	1.206935	-0.261519	0.000083
C92	C	1.540268	0.071815	0.333417
C93	C	1.873602	0.405148	0.666750
C94	C	1.120056	-0.284718	0.000066
C95	C	1.453389	0.048616	0.333400
C96	C	1.786722	0.381949	0.666733
C97	C	0.946285	-0.331113	0.000020
C98	C	1.279618	0.002220	0.333354
C99	C	1.612951	0.335554	0.666687
C100	C	0.947297	-0.280648	0.000019
C101	C	1.280631	0.052685	0.333353
C102	C	1.613964	0.386018	0.666686
C103	C	1.034184	-0.257449	0.000038
C104	C	1.367517	0.075884	0.333371
C105	C	1.700851	0.409217	0.666704
C106	C	1.035183	-0.206998	0.000069
C107	C	1.368516	0.126335	0.333402
C108	C	1.701849	0.459669	0.666735
N109	N	1.122064	-0.183797	0.000076
N110	N	1.455397	0.149537	0.333409
N111	N	1.788731	0.482870	0.666743
C112	C	1.207940	-0.211057	0.000083
C113	C	1.541274	0.122276	0.333417
C114	C	1.874607	0.455609	0.666750
C115	C	1.026041	-0.666196	0.000029
C116	C	1.359375	-0.332863	0.333362
C117	C	1.692708	0.000470	0.666695
C118	C	1.025036	-0.716658	0.000029
C119	C	1.358369	-0.383325	0.333362
C120	C	1.691703	-0.049991	0.666695
C121	C	1.197801	-0.720717	0.000045
C122	C	1.531134	-0.387384	0.333378
C123	C	1.864468	-0.054051	0.666711
C124	C	1.198805	-0.670254	0.000052
C125	C	1.532138	-0.336921	0.333386
C126	C	1.865471	-0.003588	0.666719
C127	C	1.112923	-0.642995	0.000036
C128	C	1.446256	-0.309662	0.333369
C129	C	1.779590	0.023672	0.666703
C130	C	1.210041	-0.105089	0.000105
C131	C	1.543374	0.228245	0.333438
C132	C	1.876707	0.561578	0.666771
C133	C	1.211036	-0.054625	0.000119
C134	C	1.544370	0.278709	0.333452
C135	C	1.877703	0.612042	0.666785
C136	C	1.038272	-0.050570	0.000097
C137	C	1.371606	0.282763	0.333431
C138	C	1.704939	0.616097	0.666764
C139	C	1.037276	-0.101029	0.000089
C140	C	1.370609	0.232304	0.333422
C141	C	1.703943	0.565637	0.666755
C142	C	1.123168	-0.128288	0.000089
C143	C	1.456502	0.205045	0.333422
C144	C	1.789835	0.538379	0.666755
O145	O	0.962280	-0.179134	0.000097
O146	O	1.295613	0.154199	0.333430
O147	O	1.628947	0.487532	0.666763
O148	O	1.281921	-0.186683	0.000077
O149	O	1.615254	0.146650	0.333410
O150	O	1.948587	0.479984	0.666744
C151	C	1.203925	-0.412897	0.000054
C152	C	1.537259	-0.079563	0.333387
C153	C	1.870592	0.253770	0.666721
C154	C	1.117046	-0.436096	0.000037
C155	C	1.450379	-0.102762	0.333371
C156	C	1.783712	0.230571	0.666704
C157	C	1.031169	-0.408835	0.000030
C158	C	1.364503	-0.075502	0.333363
C159	C	1.697836	0.257831	0.666697
C160	C	1.116040	-0.486557	0.000037
C161	C	1.449374	-0.153224	0.333371
C162	C	1.782707	0.180109	0.666704
C163	C	1.201917	-0.513818	0.000044
C164	C	1.535250	-0.180484	0.333378
C165	C	1.868583	0.152849	0.666711
C166	C	1.288798	-0.490616	0.000052
C167	C	1.622132	-0.157283	0.333385
C168	C	1.955465	0.176050	0.666718
C169	C	1.289801	-0.440157	0.000061
C170	C	1.623135	-0.106824	0.333395
C171	C	1.956468	0.226510	0.666728
C172	C	0.944288	-0.432037	0.000023
C173	C	1.277621	-0.098703	0.333356
C174	C	1.610954	0.234630	0.666689
C175	C	0.943291	-0.482496	0.000014
C176	C	1.276625	-0.149163	0.333347
C177	C	1.609958	0.184171	0.666681
C178	C	1.029168	-0.509756	0.000021
C179	C	1.362501	-0.176423	0.333355
C180	C	1.695834	0.156910	0.666688
C181	C	1.109828	0.202377	0.000052
C182	C	1.443161	0.535710	0.333385
C183	C	1.776495	0.869043	0.666719
C184	C	1.110912	0.256082	0.000036
C185	C	1.444246	0.589415	0.333369
C186	C	1.777579	0.922748	0.666703
N187	N	1.102361	0.121638	0.254299
N188	N	1.435694	0.454972	0.587633
N189	N	1.769028	0.788305	0.920966
N190	N	1.133718	0.107076	-0.254143
N191	N	1.467052	0.440409	0.079191
N192	N	1.800385	0.773743	0.412524
C193	C	1.088888	0.127901	0.473411
C194	C	1.422221	0.461234	0.806745
C195	C	1.755555	0.794568	1.140078
C196	C	1.147188	0.100815	0.526752
C197	C	1.480522	0.434148	0.860086
C198	C	1.813855	0.767481	1.193419
C199	C	1.139692	0.104299	0.648674
C200	C	1.473025	0.437633	0.982007
C201	C	1.806358	0.770966	1.315340
C202	C	1.096383	0.124417	0.351479
C203	C	1.429717	0.457750	0.684812
C204	C	1.763050	0.791084	1.018146
H205	H	0.619555	0.171325	0.000054
H206	H	0.952888	0.504659	0.333387
H207	H	1.286221	0.837992	0.666720
Cl208	Cl	1.233301	0.061171	0.455893
Cl209	Cl	1.566635	0.394504	0.789226
Cl210	Cl	1.899968	0.727838	1.122559
Cl211	Cl	0.837049	-0.360265	-0.000010
Cl212	Cl	1.170382	-0.026931	0.333324
Cl213	Cl	1.503716	0.306402	0.666657
H214	H	0.877360	-0.258456	0.000005
H215	H	1.210694	0.074877	0.333338
H216	H	1.544027	0.408211	0.666671
H217	H	0.966524	-0.119918	0.000104
H218	H	1.299857	0.213415	0.333437
H219	H	1.633191	0.546749	0.666770
Cl220	Cl	1.003142	0.167745	0.544271
Cl221	Cl	1.336475	0.501078	0.877604
Cl222	Cl	1.669808	0.834411	1.210937
H223	H	1.267725	-0.742921	0.000051
H224	H	1.601058	-0.409588	0.333384
H225	H	1.934391	-0.076255	0.666718
Cl226	Cl	0.599859	0.036991	0.000097
Cl227	Cl	0.933192	0.370324	0.333430
Cl228	Cl	1.266525	0.703658	0.666764
Cl229	Cl	1.308037	-0.641096	0.000074
Cl230	Cl	1.641371	-0.307762	0.333407
Cl231	Cl	1.974704	0.025571	0.666740
Cl232	Cl	1.318021	-0.139349	0.000106
Cl233	Cl	1.651354	0.193985	0.333440
Cl234	Cl	1.984688	0.527318	0.666773
Cl235	Cl	1.320273	-0.025464	0.000139
Cl236	Cl	1.653607	0.307869	0.333473
Cl237	Cl	1.986940	0.641203	0.666806
Cl238	Cl	1.402048	-0.259624	0.000083
Cl239	Cl	1.735381	0.073710	0.333416
Cl240	Cl	2.068715	0.407043	0.666749
H241	H	1.361743	-0.361429	0.000083
H242	H	1.695077	-0.028096	0.333416
H243	H	2.028410	0.305238	0.666749
Cl244	Cl	0.930320	-0.016290	0.000086
Cl245	Cl	1.263653	0.317043	0.333419
Cl246	Cl	1.596986	0.650376	0.666752
H247	H	0.954283	-0.735541	0.000033
H248	H	1.287617	-0.402208	0.333366
H249	H	1.620950	-0.068875	0.666699
Cl250	Cl	0.918064	-0.631934	0.000010
Cl251	Cl	1.251397	-0.298601	0.333343
Cl252	Cl	1.584731	0.034733	0.666676
H253	H	1.358721	-0.512821	0.000062
H254	H	1.692055	-0.179487	0.333396
H255	H	2.025388	0.153846	0.666729
Cl256	Cl	1.399037	-0.411001	0.000075
Cl257	Cl	1.732370	-0.077668	0.333408
Cl258	Cl	2.065704	0.255666	0.666742
H259	H	0.874355	-0.409846	0.000014
H260	H	1.207689	-0.076513	0.333348
H261	H	1.541022	0.256821	0.666681
Cl262	Cl	0.834051	-0.511654	-0.000004
Cl263	Cl	1.167384	-0.178320	0.333330
Cl264	Cl	1.500717	0.155013	0.666663
