data_functionalizedCrystal
_audit_creation_method	'MofGen! by Chris Wilmer'
_symmetry_space_group_name_H-M	'P1'
_symmetry_Int_Tables_number	1
_symmetry_cell_setting	triclinic
loop_
_symmetry_equiv_pos_as_xyz
  x,y,z
_cell_length_a	15.297475
_cell_length_b	18.215404
_cell_length_c	18.215399
_cell_angle_alpha	89.972485
_cell_angle_beta	99.684492
_cell_angle_gamma	99.673678
loop_
_atom_site_label
_atom_site_type_symbol
_atom_site_fract_x
_atom_site_fract_y
_atom_site_fract_z
Zn1	Zn	1.379216	0.488000	0.610484
Zn2	Zn	1.379107	0.611055	0.487403
Zn3	Zn	1.228350	0.466692	0.466170
Zn4	Zn	1.228311	0.589692	0.589177
O5	O	1.303746	0.538860	0.538309
O6	O	1.505449	0.522181	0.611960
O7	O	1.359079	0.591928	0.381598
O8	O	1.248425	0.366543	0.485345
O9	O	1.505368	0.612590	0.521533
O10	O	1.359266	0.382197	0.591371
O11	O	1.248318	0.485865	0.365998
O12	O	1.102097	0.465150	0.464684
O13	O	1.248358	0.576179	0.694992
O14	O	1.102069	0.555518	0.555057
O15	O	1.359228	0.501466	0.710646
O16	O	1.359041	0.711197	0.500873
O17	O	1.248252	0.695502	0.575645
C18	C	1.303655	0.730053	0.538270
C19	C	1.303698	0.811858	0.538290
C20	C	1.069349	0.505704	0.505255
C21	C	0.969073	0.491538	0.491132
C22	C	1.361526	1.008220	0.499472
C23	C	1.361568	1.085085	0.499500
C24	C	1.246103	1.068767	0.577270
C25	C	1.246067	0.991904	0.577246
C26	C	1.303777	0.961633	0.538343
C27	C	1.303856	1.115360	0.538395
C28	C	1.303901	1.198700	0.538425
C29	C	1.303733	0.878288	0.538313
C30	C	0.686451	0.640114	0.639249
C31	C	0.780666	0.653430	0.652516
C32	C	0.827772	0.612958	0.612172
C33	C	0.780655	0.559168	0.558557
C34	C	0.686431	0.545856	0.545285
C35	C	0.827752	0.518699	0.518207
C36	C	0.780635	0.464910	0.464592
C37	C	0.686420	0.451599	0.451323
C38	C	0.639314	0.492071	0.491667
C39	C	0.921976	0.532012	0.531480
C40	C	0.921955	0.437753	0.437515
C41	C	0.827741	0.424438	0.424248
C42	C	1.539058	0.572145	0.571491
C43	C	1.639334	0.586330	0.585632
C44	C	1.303801	0.538817	0.730269
C45	C	1.303824	0.538798	0.812071
C46	C	1.303867	1.346924	0.538380
C47	C	1.303934	1.265134	0.538447
C48	C	1.303743	0.538857	0.347102
C49	C	1.303894	0.538692	0.265325
C50	C	1.361575	0.499854	1.008421
C51	C	1.361586	0.499834	1.085281
C52	C	1.246137	0.577638	1.068969
C53	C	1.246123	0.577653	0.992110
C54	C	1.303847	0.538763	0.961838
C55	C	1.303872	0.538728	1.115558
C56	C	1.303883	0.538707	1.198893
C57	C	1.303834	0.538783	0.878497
H58	H	1.408518	0.983575	0.467796
N59	N	0.776914	0.366438	0.366409
H60	H	0.737843	0.326854	0.390869
H61	H	0.737853	0.390849	0.326767
N62	N	0.972782	0.590022	0.589307
H63	H	1.011903	0.565689	0.628977
H64	H	1.011792	0.629590	0.564781
N65	N	1.183853	1.101413	0.619222
H66	H	1.220502	1.138437	0.658528
H67	H	1.142094	1.127401	0.583350
N68	N	1.183879	0.619570	1.101632
H69	H	1.220523	0.658850	1.138685
H70	H	1.147307	0.644172	1.060418
H71	H	0.648089	0.673065	0.672088
H72	H	1.408595	1.123014	0.467849
N73	N	0.972750	0.394100	0.393992
H74	H	1.039586	0.410693	0.410537
H75	H	0.956307	0.339231	0.403222
H76	H	1.408575	0.468185	0.983776
N77	N	1.183838	0.619603	0.941858
H78	H	1.147272	0.644237	0.972696
H79	H	1.220521	0.658859	0.915127
H80	H	1.199040	0.953970	0.608903
N81	N	1.423857	0.457867	1.135515
H82	H	1.465654	0.493676	1.173295
H83	H	1.387158	0.418570	1.162189
H84	H	0.904486	0.623802	0.622977
H85	H	0.819022	0.697227	0.696168
N86	N	0.537694	0.477718	0.477346
H87	H	0.515007	0.511521	0.511039
H88	H	0.515053	0.487963	0.423620
N89	N	0.635598	0.393594	0.393488
H90	H	0.679733	0.369975	0.369943
H91	H	0.596532	0.354057	0.418002
