data_functionalizedCrystal
_audit_creation_method	'MofGen! by Chris Wilmer'
_symmetry_space_group_name_H-M	'P1'
_symmetry_Int_Tables_number	1
_symmetry_cell_setting	triclinic
loop_
_symmetry_equiv_pos_as_xyz
  x,y,z
_cell_length_a	15.944551
_cell_length_b	27.732048
_cell_length_c	14.421503
_cell_angle_alpha	89.999321
_cell_angle_beta	89.996859
_cell_angle_gamma	83.070697
loop_
_atom_site_label
_atom_site_type_symbol
_atom_site_fract_x
_atom_site_fract_y
_atom_site_fract_z
O1	O	1.113714	0.062334	-0.077025
O2	O	0.869064	0.070020	-0.077050
O3	O	0.998987	-0.004187	-0.077019
O4	O	0.983791	0.136540	-0.077056
O5	O	0.998966	-0.004176	0.077204
O6	O	0.869042	0.070031	0.077174
O7	O	1.113693	0.062345	0.077198
Cu8	Cu	0.991366	0.066189	0.091268
Cu9	Cu	0.991391	0.066176	-0.091119
O10	O	0.983769	0.136552	0.077168
C11	C	0.837763	0.069706	0.000059
C12	C	0.744530	0.068749	0.000051
C13	C	0.530305	0.020466	0.000081
C14	C	0.469002	0.042882	-0.075965
C15	C	0.573827	0.067019	0.000062
C16	C	0.469003	0.042904	0.076087
C17	C	0.408936	0.065344	0.000077
C18	C	0.513752	0.089447	-0.076047
C19	C	0.513759	0.089463	0.076074
C20	C	0.452474	0.111912	0.000009
C21	C	0.668816	0.067983	0.000053
C22	C	0.313947	0.064384	0.000080
C23	C	0.998658	-0.022190	0.000095
C24	C	0.997697	-0.075849	0.000103
C25	C	1.068426	-0.414358	0.000062
C26	C	1.064862	-0.616033	0.000049
O27	O	1.129539	-0.647008	0.000015
N28	N	0.987823	-0.635490	0.000042
C29	C	0.911669	-0.604525	0.000032
O30	O	0.846061	-0.625703	0.000017
C31	C	0.915234	-0.402851	0.000039
C32	C	0.992278	-0.383397	0.000055
C33	C	1.145464	-0.394903	0.000077
C34	C	1.146354	-0.344487	0.000086
C35	C	1.070206	-0.313526	0.000079
C36	C	0.993168	-0.332981	0.000064
C37	C	0.839081	-0.371887	0.000023
C38	C	0.839979	-0.321466	0.000022
C39	C	0.917024	-0.302012	0.000038
C40	C	0.917911	-0.251604	0.000065
N41	N	0.994950	-0.232147	0.000072
C42	C	1.071098	-0.263108	0.000079
C43	C	0.909803	-0.710408	0.000031
C44	C	0.908912	-0.760826	0.000031
C45	C	1.062105	-0.772330	0.000045
C46	C	1.062995	-0.721911	0.000052
C47	C	0.986842	-0.690950	0.000038
C48	C	1.072961	-0.157231	0.000097
C49	C	1.073845	-0.106810	0.000109
C50	C	0.920652	-0.095310	0.000090
C51	C	0.919768	-0.145727	0.000083
C52	C	0.995930	-0.176686	0.000083
O53	O	0.853269	-0.220600	0.000089
O54	O	1.136697	-0.241921	0.000074
C55	C	1.067536	-0.464774	0.000054
C56	C	0.990498	-0.484228	0.000039
C57	C	0.914350	-0.453268	0.000032
C58	C	0.989607	-0.534647	0.000039
C59	C	1.065754	-0.565608	0.000045
C60	C	1.142794	-0.546150	0.000052
C61	C	1.143684	-0.495734	0.000061
C62	C	0.837311	-0.472725	0.000025
C63	C	0.836427	-0.523141	0.000018
C64	C	0.912575	-0.554102	0.000024
C65	C	1.144993	0.062658	0.000087
C66	C	1.238227	0.063615	0.000090
C67	C	0.984099	0.154554	0.000051
C68	C	0.985059	0.208213	0.000038
N69	N	0.991354	0.066198	0.219549
N70	N	0.991409	0.066163	-0.219401
C71	C	0.931267	0.100495	0.469189
C72	C	1.007044	0.109880	0.530996
C73	C	0.991374	0.066186	0.408710
C74	C	0.915616	0.056813	0.530997
C75	C	0.991387	0.066176	0.591432
C76	C	1.067190	0.075592	0.469157
C77	C	0.975712	0.022507	0.469153
C78	C	1.051545	0.031872	0.530932
C79	C	0.991366	0.066193	0.303449
C80	C	0.991405	0.066169	0.696691
H81	H	0.533624	0.109141	0.140358
O82	O	0.445222	0.019480	0.152815
C83	C	0.388921	0.051515	0.205864
H84	H	0.357561	0.081710	0.159383
H85	H	0.425197	0.068003	0.263554
C86	C	0.359297	-0.013640	0.305761
C87	C	0.320774	0.023445	0.248670
H88	H	0.317263	-0.030954	0.332169
H89	H	0.397230	-0.035222	0.270023
H90	H	0.389526	0.000106	0.353828
H91	H	0.290555	0.009698	0.200597
H92	H	0.282834	0.045025	0.284400
O93	O	0.570751	-0.025606	-0.000114
C94	C	0.622270	-0.032602	-0.079601
H95	H	0.638003	0.004049	-0.105734
H96	H	0.587290	-0.050917	-0.136030
C97	C	0.685225	-0.110031	-0.022804
C98	C	0.704554	-0.065015	-0.054896
H99	H	0.735980	-0.130027	-0.007567
H100	H	0.650513	-0.105319	0.030746
H101	H	0.656073	-0.125286	-0.069834
H102	H	0.733696	-0.049758	-0.007863
H103	H	0.739273	-0.069726	-0.108438
H104	H	0.418809	0.150587	-0.000044
O105	O	1.112362	-0.002697	0.563037
C106	C	1.192082	0.007357	0.531336
H107	H	1.189157	0.047642	0.514084
H108	H	1.210237	-0.015064	0.466558
C109	C	1.262186	-0.055267	0.628708
C110	C	1.258595	-0.005788	0.607526
H111	H	1.303215	-0.063377	0.675703
H112	H	1.208477	-0.062043	0.650063
H113	H	1.277312	-0.073946	0.574720
H114	H	1.243458	0.012890	0.661510
H115	H	1.312303	0.000990	0.586181
O116	O	1.148764	-0.087993	0.000080
C117	C	1.215779	-0.126135	0.000104
H118	H	1.192689	-0.160386	-0.029101
H119	H	1.239227	-0.133270	0.074094
C120	C	1.316862	-0.069827	-0.024498
C121	C	1.288504	-0.111894	-0.060375
H122	H	1.361724	-0.061042	-0.061801
H123	H	1.271713	-0.044129	-0.024511
H124	H	1.336396	-0.075778	0.037160
H125	H	1.268962	-0.105940	-0.122027
H126	H	1.333652	-0.137590	-0.060375
O127	O	1.146889	-0.187349	0.000226
C128	C	1.150960	-0.216850	0.080109
H129	H	1.084321	-0.219416	0.106725
H130	H	1.189084	-0.200255	0.136048
C131	C	1.275773	-0.264877	0.023159
C132	C	1.193925	-0.268031	0.055845
H133	H	1.302279	-0.296447	0.008194
H134	H	1.273033	-0.245000	-0.030659
H135	H	1.307532	-0.251046	0.069781
H136	H	1.162164	-0.281857	0.009219
H137	H	1.196661	-0.287912	0.109654
O138	O	1.219385	-0.425024	0.000209
C139	C	1.223457	-0.454522	0.080096
H140	H	1.156819	-0.457087	0.106714
H141	H	1.261582	-0.437924	0.136033
C142	C	1.348271	-0.502550	0.023152
C143	C	1.266423	-0.505704	0.055840
H144	H	1.374778	-0.534121	0.008192
H145	H	1.345530	-0.482676	-0.030669
H146	H	1.380030	-0.488716	0.069771
H147	H	1.234663	-0.519531	0.009217
H148	H	1.269160	-0.525582	0.109652
O149	O	1.216787	-0.576211	0.000220
C150	C	1.263609	-0.567391	0.080085
H151	H	1.219039	-0.550164	0.135914
H152	H	1.311896	-0.541717	0.062033
C153	C	1.364480	-0.636869	0.047724
C154	C	1.309736	-0.615714	0.116297
H155	H	1.392936	-0.666676	0.070060
H156	H	1.332937	-0.642810	-0.006085
H157	H	1.404711	-0.615470	0.032687
H158	H	1.269500	-0.637111	0.131325
H159	H	1.341274	-0.609778	0.170110
H160	H	0.777965	-0.296260	0.000009
H161	H	0.962429	-0.014416	0.441967
O162	O	0.764217	-0.390753	-0.000163
C163	C	0.717856	-0.374914	-0.080036
H164	H	0.762939	-0.364426	-0.135849
H165	H	0.670623	-0.342055	-0.061986
C166	C	0.614748	-0.429048	-0.047723
C167	C	0.670121	-0.416170	-0.116276
H168	H	0.585299	-0.454496	-0.070077
H169	H	0.645980	-0.439718	0.006090
H170	H	0.575394	-0.401663	-0.032688
H171	H	0.709479	-0.443554	-0.131303
H172	H	0.638894	-0.405506	-0.170094
O173	O	0.846662	-0.065251	0.000242
C174	C	0.799813	-0.074075	0.080090
H175	H	0.844365	-0.091302	0.135931
H176	H	0.751536	-0.099750	0.062019
C177	C	0.698947	-0.004599	0.047708
C178	C	0.753668	-0.025754	0.116296
H179	H	0.670479	0.025207	0.070040
H180	H	0.730508	0.001345	-0.006089
H181	H	0.658724	-0.026000	0.032655
H182	H	0.793896	-0.004356	0.131340
H183	H	0.722112	-0.031694	0.170097
H184	H	1.020304	0.146814	0.558160
O185	O	0.839252	0.047296	0.563512
C186	C	0.849853	0.004518	0.617241
H187	H	0.917588	-0.001975	0.643884
H188	H	0.836160	-0.027605	0.572762
C189	C	0.705239	0.017930	0.667302
C190	C	0.788430	0.009957	0.700032
H191	H	0.667349	0.021284	0.718369
H192	H	0.698096	0.046750	0.631101
H193	H	0.693841	-0.008841	0.630236
H194	H	0.799831	0.036731	0.737087
H195	H	0.795574	-0.018858	0.736241
H196	H	0.857033	-0.161567	0.000095
H197	H	0.847786	-0.685203	0.000019
H198	H	1.206421	-0.479900	0.000073
H199	H	0.775301	-0.447521	0.000017
H200	H	0.773684	-0.538976	0.000013
H201	H	0.880487	0.129533	0.442079
O202	O	0.445378	0.019311	-0.152582
C203	C	0.485428	-0.028880	-0.152314
H204	H	0.503815	-0.040092	-0.078314
H205	H	0.544542	-0.031416	-0.197382
C206	C	0.401902	-0.049178	-0.281992
C207	C	0.424479	-0.062951	-0.191102
H208	H	0.364308	-0.070194	-0.305922
H209	H	0.374921	-0.016710	-0.282175
H210	H	0.451169	-0.051292	-0.319537
H211	H	0.375213	-0.060831	-0.153557
H212	H	0.451449	-0.095419	-0.190913
O213	O	0.537382	0.112958	-0.152738
C214	C	0.576885	0.153549	-0.125617
H215	H	0.602710	0.147740	-0.052233
H216	H	0.528903	0.187521	-0.127454
C217	C	0.618246	0.166979	-0.282770
C218	C	0.649971	0.159842	-0.192641
H219	H	0.663327	0.170862	-0.324115
H220	H	0.591629	0.139633	-0.301043
H221	H	0.578261	0.195288	-0.284288
H222	H	0.689947	0.131529	-0.191121
H223	H	0.676596	0.187183	-0.174368
O224	O	1.135999	-0.802479	0.000003
C225	C	1.118682	-0.851149	0.000021
H226	H	1.052730	-0.853083	-0.029170
H227	H	1.122058	-0.865733	0.074008
C228	C	1.265296	-0.879625	-0.024617
C229	C	1.184295	-0.882001	-0.060478
H230	H	1.305771	-0.898656	-0.061931
H231	H	1.276964	-0.846835	-0.024625
H232	H	1.268098	-0.891777	0.037038
H233	H	1.181491	-0.869843	-0.122127
H234	H	1.172628	-0.914789	-0.060481
O235	O	1.137909	-0.703095	0.000017
C236	C	1.204922	-0.741239	0.000049
H237	H	1.181828	-0.775491	-0.029145
H238	H	1.228369	-0.748369	0.074041
C239	C	1.306011	-0.684936	-0.024571
C240	C	1.277648	-0.727004	-0.060436
H241	H	1.350874	-0.676155	-0.061877
H242	H	1.260864	-0.659237	-0.024589
H243	H	1.325544	-0.690883	0.037088
H244	H	1.258105	-0.721055	-0.122089
H245	H	1.322793	-0.752702	-0.060430
H246	H	1.209091	-0.328652	0.000095
O247	O	1.143566	0.085145	0.436740
C248	C	1.142622	0.085061	0.338980
H249	H	1.074655	0.092624	0.313411
H250	H	1.171844	0.048079	0.312477
C251	C	1.277407	0.115419	0.333936
C252	C	1.193929	0.124712	0.302532
H253	H	1.309059	0.139876	0.311452
H254	H	1.278045	0.115474	0.399799
H255	H	1.301747	0.084599	0.311848
H256	H	1.169587	0.155528	0.324630
H257	H	1.193288	0.124663	0.236671
O258	O	0.833997	-0.779641	-0.000016
C259	C	0.766984	-0.741496	-0.000001
H260	H	0.790087	-0.707245	-0.029193
H261	H	0.743517	-0.734364	0.073985
C262	C	0.665902	-0.797800	-0.024638
C263	C	0.694275	-0.755733	-0.060500
H264	H	0.621049	-0.806582	-0.061953
H265	H	0.711049	-0.823499	-0.024645
H266	H	0.646352	-0.791851	0.037016
H267	H	0.713835	-0.761684	-0.122148
H268	H	0.649130	-0.730035	-0.060505
