data_functionalizedCrystal
_audit_creation_method	'MofGen! by Chris Wilmer'
_symmetry_space_group_name_H-M	'P1'
_symmetry_Int_Tables_number	1
_symmetry_cell_setting	triclinic
loop_
_symmetry_equiv_pos_as_xyz
  x,y,z
_cell_length_a	10.723024
_cell_length_b	10.723023
_cell_length_c	9.198806
_cell_angle_alpha	89.997827
_cell_angle_beta	89.996352
_cell_angle_gamma	84.467709
loop_
_atom_site_label
_atom_site_type_symbol
_atom_site_fract_x
_atom_site_fract_y
_atom_site_fract_z
O1	O	-1.657187	-0.175025	0.120880
O2	O	-1.157187	0.324975	0.620880
O3	O	-1.294035	-0.191778	0.120884
O4	O	-0.794035	0.308222	0.620884
O5	O	-1.483988	-0.001825	0.120876
O6	O	-0.983988	0.498175	0.620876
O7	O	-1.467234	-0.364977	0.120888
O8	O	-0.967234	0.135023	0.620888
O9	O	-1.483973	-0.001824	-0.120909
O10	O	-0.983973	0.498176	0.379091
O11	O	-1.294020	-0.191777	-0.120901
O12	O	-0.794020	0.308223	0.379099
O13	O	-1.657172	-0.175024	-0.120905
O14	O	-1.157172	0.324976	0.379095
Cu15	Cu	-1.475595	-0.183401	-0.142980
Cu16	Cu	-0.975595	0.316599	0.357020
Cu17	Cu	-1.475612	-0.183401	0.142959
Cu18	Cu	-0.975612	0.316599	0.642959
O19	O	-1.467219	-0.364977	-0.120897
O20	O	-0.967219	0.135023	0.379103
C21	C	-1.247528	-0.190558	-0.000008
C22	C	-0.747528	0.309442	0.499992
C23	C	-1.108973	-0.186911	-0.000006
C24	C	-0.608973	0.313089	0.499994
C25	C	-1.482762	0.044675	-0.000015
C26	C	-0.982762	0.544675	0.499985
C27	C	-1.479114	0.183229	-0.000010
C28	C	-0.979114	0.683229	0.499990
C29	C	-1.703679	-0.176243	-0.000010
C30	C	-1.203679	0.323757	0.499990
C31	C	-1.842234	-0.179891	-0.000003
C32	C	-1.342234	0.320109	0.499997
C33	C	-1.468445	-0.411477	-0.000003
C34	C	-0.968445	0.088523	0.499997
C35	C	-1.472093	-0.550031	0.000002
C36	C	-0.972093	-0.050031	0.500002
C37	C	-1.033991	-0.293198	-0.000001
C38	C	-0.533991	0.206802	0.499999
C39	C	-0.890787	-0.289431	0.000000
C40	C	-0.390787	0.210569	0.500000
C41	C	-1.477496	0.244995	0.125243
C42	C	-0.977496	0.744995	0.625243
C43	C	-1.473727	0.388198	0.125251
C44	C	-0.973727	0.888198	0.625251
N45	N	-1.475591	-0.183399	-0.344094
N46	N	-0.975591	0.316601	0.155906
C47	C	-1.555347	-0.103292	-0.416295
C48	C	-1.055347	0.396708	0.083705
C49	C	-1.555366	-0.103288	-0.583707
C50	C	-1.055366	0.396712	-0.083707
N51	N	-1.475626	-0.183393	0.344073
N52	N	-0.975626	0.316607	0.844073
H53	H	-1.075812	-0.386984	-0.000007
H54	H	-0.575812	0.113016	0.499993
Cl55	Cl	-0.791314	-0.429921	0.000018
Cl56	Cl	-0.291314	0.070079	0.500018
H57	H	-1.472341	0.441315	0.232486
H58	H	-0.972341	0.941315	0.732486
Cl59	Cl	-0.941699	-0.039396	0.000003
Cl60	Cl	-0.441699	0.460604	0.500003
H61	H	-1.478896	0.191856	0.232472
H62	H	-0.978896	0.691856	0.732472
Cl63	Cl	-1.474250	0.367977	-0.165575
Cl64	Cl	-0.974250	0.867977	0.334425
Cl65	Cl	-1.660469	0.002877	-0.320389
Cl66	Cl	-1.160469	0.502877	0.179611
H67	H	-1.067152	-0.093125	0.000028
H68	H	-0.567152	0.406875	0.500028
Cl69	Cl	-1.476935	0.265258	-0.165572
Cl70	Cl	-0.976935	0.765258	0.334428
Cl71	Cl	-1.660801	0.002598	-0.679562
Cl72	Cl	-1.160801	0.502598	-0.179562
H73	H	-1.407344	-0.251984	-0.593847
H74	H	-0.907344	0.248016	-0.093847
H75	H	-1.407318	-0.251975	-0.406219
H76	H	-0.907318	0.248025	0.093781
