data_functionalizedCrystal
_audit_creation_method	'MofGen! by Chris Wilmer'
_symmetry_space_group_name_H-M	'P1'
_symmetry_Int_Tables_number	1
_symmetry_cell_setting	triclinic
loop_
_symmetry_equiv_pos_as_xyz
  x,y,z
_cell_length_a	10.654546
_cell_length_b	9.065215
_cell_length_c	9.730223
_cell_angle_alpha	89.999584
_cell_angle_beta	89.998853
_cell_angle_gamma	84.749090
loop_
_atom_site_label
_atom_site_type_symbol
_atom_site_fract_x
_atom_site_fract_y
_atom_site_fract_z
O1	O	1.668655	0.207204	-0.114317
O2	O	1.303254	0.226954	-0.114313
O3	O	1.493510	0.002395	-0.114309
O4	O	1.478400	0.431763	-0.114321
O5	O	1.493507	0.002400	0.114271
O6	O	1.303252	0.226959	0.114267
O7	O	1.668653	0.207210	0.114263
Zn8	Zn	1.485952	0.217085	0.150557
Zn9	Zn	1.485955	0.217078	-0.150607
O10	O	1.478398	0.431769	0.114259
C11	C	1.256449	0.225507	-0.000022
C12	C	1.116989	0.221172	-0.000021
C13	C	1.051487	0.219118	-0.124626
C14	C	0.920450	0.215032	-0.124637
C15	C	0.920429	0.215051	0.124573
C16	C	1.051462	0.219146	0.124583
C17	C	1.051499	0.219101	-0.268506
C18	C	0.920462	0.215015	-0.268517
C19	C	1.492057	-0.052581	-0.000021
C20	C	1.487718	-0.216400	-0.000025
C21	C	1.715458	0.208656	-0.000031
C22	C	1.854919	0.212991	-0.000041
C23	C	1.479850	0.486744	-0.000032
C24	C	1.484190	0.650564	-0.000037
N25	N	1.485960	0.217090	0.356093
N26	N	1.485958	0.217062	-0.356143
C27	C	1.570227	0.117689	0.428021
C28	C	1.570223	0.117671	0.571904
C29	C	1.401682	0.316467	0.571919
C30	C	1.401680	0.316477	0.428039
C31	C	1.667537	0.002920	0.428014
C32	C	1.667533	0.002902	0.571897
H33	H	0.869166	0.320090	-0.313178
H34	H	1.645645	-0.110487	0.388963
H35	H	1.104787	0.220836	0.226048
H36	H	1.333052	0.397404	0.369476
C37	C	1.797928	0.036994	0.768533
C38	C	1.797948	0.037026	0.624627
H39	H	1.878439	0.058053	0.801084
H40	H	1.735682	0.110407	0.801068
H41	H	1.779668	-0.057514	0.801042
H42	H	1.816198	0.131538	0.592118
H43	H	1.860213	-0.036391	0.592080
C44	C	0.719553	0.208778	0.235215
C45	C	0.848399	0.212807	0.261533
H46	H	0.675091	0.207382	0.319772
H47	H	0.689483	0.293991	0.184025
H48	H	0.706705	0.122212	0.184017
H49	H	0.861248	0.299379	0.312723
H50	H	0.878480	0.127586	0.312745
H51	H	1.333063	0.397385	0.630512
C52	C	1.250936	0.088582	-0.325721
C53	C	1.120776	0.077262	-0.328766
H54	H	1.293703	0.001010	-0.362914
H55	H	1.270148	0.171584	-0.378717
H56	H	1.277232	0.100802	-0.233457
H57	H	1.094479	0.065052	-0.421031
H58	H	1.101555	-0.005765	-0.275770
H59	H	1.076730	0.323280	-0.323751
C60	C	1.503371	-0.160975	0.587664
C61	C	1.625809	-0.141795	0.632121
H62	H	1.477626	-0.250313	0.624834
H63	H	1.447496	-0.079783	0.617845
H64	H	1.501962	-0.165859	0.490161
H65	H	1.627216	-0.136899	0.729624
H66	H	1.681698	-0.223007	0.601948
C67	C	1.848794	-0.062861	0.286685
C68	C	1.790789	0.051474	0.367718
H69	H	1.924870	-0.032861	0.249446
H70	H	1.867027	-0.148761	0.341622
H71	H	1.793829	-0.084484	0.214015
H72	H	1.845751	0.073089	0.440394
H73	H	1.772561	0.137399	0.312778
H74	H	0.895236	0.110829	-0.323756
