data_functionalizedCrystal
_audit_creation_method	'MofGen! by Chris Wilmer'
_symmetry_space_group_name_H-M	'P1'
_symmetry_Int_Tables_number	1
_symmetry_cell_setting	triclinic
loop_
_symmetry_equiv_pos_as_xyz
  x,y,z
_cell_length_a	16.992694
_cell_length_b	13.101018
_cell_length_c	16.992695
_cell_angle_alpha	93.587846
_cell_angle_beta	89.331777
_cell_angle_gamma	93.586237
loop_
_atom_site_label
_atom_site_type_symbol
_atom_site_fract_x
_atom_site_fract_y
_atom_site_fract_z
O1	O	1.054908	0.085087	-0.162853
O2	O	0.826509	0.085117	-0.161020
O3	O	0.939793	0.085094	-0.047737
O4	O	0.941625	0.085110	-0.276136
O5	O	0.931655	-0.085335	-0.055872
O6	O	0.818372	-0.085312	-0.169155
O7	O	1.046770	-0.085342	-0.170988
Zn8	Zn	0.931279	-0.112386	-0.171363
Zn9	Zn	0.942001	0.112161	-0.160645
O10	O	0.933487	-0.085319	-0.284271
C11	C	0.793081	-0.000094	-0.162732
C12	C	0.705597	-0.000082	-0.155703
N13	N	0.923968	-0.265634	-0.178678
C14	C	0.659606	-0.000078	-0.223520
C15	C	0.577404	-0.000093	-0.216912
C16	C	0.541196	-0.000104	-0.142485
C17	C	0.587192	-0.000111	-0.074662
C18	C	0.669392	-0.000104	-0.081272
C19	C	0.295880	-0.000133	-0.115092
C20	C	0.213674	-0.000138	-0.108487
C21	C	0.203892	-0.000121	-0.250738
C22	C	0.286094	-0.000108	-0.257341
C23	C	0.332083	-0.000120	-0.189518
N24	N	0.457173	-0.000116	-0.135728
N25	N	0.416104	-0.000116	-0.196276
C26	C	0.959261	-0.525550	-0.143369
C27	C	0.914027	-0.474668	-0.188631
C28	C	0.919560	-0.358350	-0.183092
C29	C	0.953729	-0.641878	-0.148908
C30	C	1.080199	-0.000129	-0.169276
C31	C	1.167684	-0.000134	-0.176305
C32	C	0.933368	-0.000120	-0.022444
C33	C	0.926339	-0.000119	0.065040
N34	N	0.949318	0.265409	-0.153325
C35	C	0.939912	-0.000103	-0.309564
C36	C	0.946941	-0.000097	-0.397048
C37	C	0.994157	-0.000129	0.111031
C38	C	0.987549	-0.000118	0.193232
C39	C	0.913122	-0.000105	0.229441
C40	C	0.845299	-0.000092	0.183445
C41	C	0.851909	-0.000095	0.101245
C42	C	0.885728	-0.000087	0.474756
C43	C	0.879123	-0.000087	0.556961
C44	C	1.021373	-0.000112	0.566743
C45	C	1.027976	-0.000121	0.484542
C46	C	0.960154	-0.000102	0.438553
N47	N	0.906365	-0.000097	0.313464
N48	N	0.966912	-0.000103	0.354532
H49	H	0.539962	-0.000088	-0.272137
H50	H	0.871147	-0.518464	-0.231541
N51	N	0.323066	-0.000083	-0.333372
N52	N	0.281993	-0.000074	-0.393919
H53	H	0.308104	-0.000049	-0.447618
H54	H	1.002140	-0.481759	-0.100463
H55	H	0.333315	-0.000144	-0.059866
N56	N	1.070189	-0.000156	0.074060
N57	N	1.130733	-0.000166	0.115136
H58	H	1.184434	-0.000185	0.089029
N59	N	1.056831	-0.000118	0.240198
N60	N	1.123279	-0.000132	0.207860
H61	H	1.172214	-0.000128	0.241029
N62	N	1.104008	-0.000136	0.447570
N63	N	1.164555	-0.000143	0.488643
H64	H	1.218255	-0.000155	0.462533
N65	N	0.550195	-0.000133	0.001357
N66	N	0.476803	-0.000139	0.007250
H67	H	0.450674	-0.000152	0.060941
N68	N	0.716361	-0.000119	-0.011990
N69	N	0.684024	-0.000134	0.054459
H70	H	0.717194	-0.000151	0.103392
H71	H	0.166439	-0.000113	-0.305955
N72	N	0.696602	-0.000058	-0.299541
N73	N	0.744799	0.071787	-0.315669
H74	H	0.770927	0.071799	-0.369360
N75	N	0.769273	-0.000105	0.220430
N76	N	0.718964	-0.071946	0.204547
H77	H	0.665269	-0.071962	0.230667
H78	H	1.076590	-0.000125	0.604196
N79	N	0.803087	-0.000093	0.593936
N80	N	0.742537	-0.000088	0.552866
H81	H	0.688838	-0.000100	0.578978
N82	N	0.816443	-0.000076	0.427798
N83	N	0.749997	-0.000072	0.460140
H84	H	0.701060	-0.000067	0.426974
H85	H	0.796684	-0.000087	0.063800
N86	N	0.176696	-0.000166	-0.032453
N87	N	0.185725	-0.072016	0.010997
H88	H	0.159609	-0.072036	0.064693
