data_functionalizedCrystal
_audit_creation_method	'MofGen! by Chris Wilmer'
_symmetry_space_group_name_H-M	'P1'
_symmetry_Int_Tables_number	1
_symmetry_cell_setting	triclinic
loop_
_symmetry_equiv_pos_as_xyz
  x,y,z
_cell_length_a	14.519709
_cell_length_b	10.540539
_cell_length_c	13.596369
_cell_angle_alpha	89.996161
_cell_angle_beta	90.000291
_cell_angle_gamma	84.102818
loop_
_atom_site_label
_atom_site_type_symbol
_atom_site_fract_x
_atom_site_fract_y
_atom_site_fract_z
O1	O	1.224765	0.166400	-0.081658
O2	O	1.558098	0.499733	0.251675
O3	O	1.891432	0.833066	0.585008
O4	O	0.956394	0.185995	-0.081688
O5	O	1.289727	0.519329	0.251645
O6	O	1.623060	0.852662	0.584979
O7	O	1.096702	-0.008572	-0.081671
O8	O	1.430035	0.324762	0.251662
O9	O	1.763369	0.658095	0.584995
O10	O	1.084457	0.360966	-0.081675
O11	O	1.417790	0.694300	0.251658
O12	O	1.751123	1.027633	0.584992
O13	O	1.096688	-0.008582	0.081912
O14	O	1.430021	0.324751	0.415245
O15	O	1.763355	0.658085	0.748578
O16	O	0.956380	0.185985	0.081895
O17	O	1.289713	0.519318	0.415228
O18	O	1.623046	0.852652	0.748562
O19	O	1.224751	0.166389	0.081924
O20	O	1.558084	0.499723	0.415258
O21	O	1.891418	0.833056	0.748591
Zn22	Zn	1.090563	0.176185	0.107882
Zn23	Zn	1.423896	0.509519	0.441215
Zn24	Zn	1.757230	0.842852	0.774549
Zn25	Zn	1.090582	0.176199	-0.107646
Zn26	Zn	1.423915	0.509532	0.225688
Zn27	Zn	1.757248	0.842866	0.559021
O28	O	1.084442	0.360956	0.081908
O29	O	1.417776	0.694289	0.415241
O30	O	1.751109	1.027623	0.748574
C31	C	0.922022	0.185077	0.000100
C32	C	1.255355	0.518410	0.333433
C33	C	1.588689	0.851743	0.666766
C34	C	0.819626	0.182340	0.000088
C35	C	1.152959	0.515674	0.333422
C36	C	1.486293	0.849007	0.666755
C37	C	0.444676	0.172265	0.000133
C38	C	0.778009	0.505599	0.333466
C39	C	1.111342	0.838932	0.666800
C40	C	0.548999	0.175063	0.000120
C41	C	0.882332	0.508397	0.333454
C42	C	1.215665	0.841730	0.666787
C43	C	0.632148	0.177303	0.000110
C44	C	0.965481	0.510636	0.333443
C45	C	1.298814	0.843969	0.666776
C46	C	0.736477	0.180101	0.000099
C47	C	1.069811	0.513434	0.333432
C48	C	1.403144	0.846768	0.666765
C49	C	1.095777	-0.055870	0.000118
C50	C	1.429110	0.277463	0.333452
C51	C	1.762443	0.610796	0.666785
C52	C	1.093029	-0.196790	0.000113
C53	C	1.426363	0.136543	0.333446
C54	C	1.759696	0.469876	0.666779
C55	C	0.987750	-0.379142	-0.000266
C56	C	1.321083	-0.045809	0.333067
C57	C	1.654416	0.287524	0.666401
C58	C	0.990535	-0.232553	0.000102
C59	C	1.323868	0.100781	0.333436
C60	C	1.657202	0.434114	0.666769
C61	C	1.142346	-0.258957	0.093532
C62	C	1.475679	0.074376	0.426865
C63	C	1.809013	0.407709	0.760199
C64	C	1.138848	-0.405466	0.093610
C65	C	1.472181	-0.072133	0.426944
C66	C	1.805515	0.261200	0.760277
C67	C	1.140949	-0.405994	-0.092414
C68	C	1.474282	-0.072661	0.240919
C69	C	1.807615	0.260673	0.574253
C70	C	1.141893	-0.259022	-0.093649
C71	C	1.475226	0.074312	0.239685
C72	C	1.808559	0.407645	0.573018
C73	C	1.259123	0.167308	0.000135
C74	C	1.592456	0.500641	0.333468
C75	C	1.925789	0.833974	0.666801
C76	C	1.361519	0.170044	0.000140
C77	C	1.694852	0.503378	0.333473
C78	C	2.028185	0.836711	0.666806
C79	C	1.085368	0.408255	0.000116
C80	C	1.418701	0.741588	0.333449
C81	C	1.752035	1.074922	0.666783
C82	C	1.088115	0.549175	0.000115
C83	C	1.421449	0.882508	0.333449
C84	C	1.754782	1.215842	0.666782
N85	N	1.090557	0.176175	0.254974
N86	N	1.423890	0.509509	0.588307
N87	N	1.757224	0.842842	0.921640
N88	N	1.090595	0.176199	-0.254737
N89	N	1.423928	0.509532	0.078596
N90	N	1.757261	0.842866	0.411929
C91	C	1.090580	0.176200	0.656265
C92	C	1.423914	0.509534	0.989598
C93	C	1.757247	0.842867	1.322931
C94	C	1.090571	0.176198	0.544613
C95	C	1.423904	0.509531	0.877947
C96	C	1.757238	0.842864	1.211280
C97	C	1.090569	0.176189	0.455623
C98	C	1.423902	0.509522	0.788956
C99	C	1.757236	0.842856	1.122290
C100	C	1.090559	0.176184	0.343964
C101	C	1.423892	0.509518	0.677298
C102	C	1.757226	0.842851	1.010631
H103	H	0.951729	-0.189549	-0.066865
H104	H	1.285063	0.143784	0.266469
H105	H	1.618396	0.477118	0.599802
H106	H	1.212560	-0.454188	0.097856
H107	H	1.545893	-0.120854	0.431190
H108	H	1.879227	0.212479	0.764523
Cl109	Cl	1.082552	-0.448441	0.201410
Cl110	Cl	1.415886	-0.115108	0.534744
Cl111	Cl	1.749219	0.218225	0.868077
Cl112	Cl	1.089437	-0.192661	0.200856
Cl113	Cl	1.422771	0.140672	0.534189
Cl114	Cl	1.756104	0.474005	0.867523
H115	H	1.216619	-0.235563	-0.099282
H116	H	1.549953	0.097771	0.234052
H117	H	1.883286	0.431104	0.567385
Cl118	Cl	1.086647	-0.194620	-0.200366
Cl119	Cl	1.419981	0.138713	0.132968
Cl120	Cl	1.753314	0.472046	0.466301
Cl121	Cl	1.255245	-0.480076	-0.093375
Cl122	Cl	1.588579	-0.146742	0.239959
Cl123	Cl	1.921912	0.186591	0.573292
H124	H	0.947268	-0.407325	-0.067259
H125	H	1.280601	-0.073992	0.266074
H126	H	1.613935	0.259342	0.599408
H127	H	1.217615	-0.237372	0.097013
H128	H	1.550948	0.095961	0.430347
H129	H	1.884281	0.429295	0.763680
Cl130	Cl	0.925308	-0.425693	0.102269
Cl131	Cl	1.258642	-0.092359	0.435602
Cl132	Cl	1.591975	0.240974	0.768935
H133	H	0.951446	-0.190402	0.067172
H134	H	1.284779	0.142931	0.400506
H135	H	1.618112	0.476265	0.733839
H136	H	1.107782	-0.437204	-0.163219
H137	H	1.441116	-0.103871	0.170114
H138	H	1.774449	0.229463	0.503447
