data_functionalizedCrystal
_audit_creation_method	'MofGen! by Chris Wilmer'
_symmetry_space_group_name_H-M	'P1'
_symmetry_Int_Tables_number	1
_symmetry_cell_setting	triclinic
loop_
_symmetry_equiv_pos_as_xyz
  x,y,z
_cell_length_a	10.654556
_cell_length_b	15.995350
_cell_length_c	9.130313
_cell_angle_alpha	90.000982
_cell_angle_beta	89.999332
_cell_angle_gamma	83.989892
loop_
_atom_site_label
_atom_site_type_symbol
_atom_site_fract_x
_atom_site_fract_y
_atom_site_fract_z
O1	O	1.666293	0.117623	-0.121806
O2	O	1.300669	0.128822	-0.121805
O3	O	1.493476	0.001393	-0.121804
O4	O	1.473487	0.245052	-0.121807
O5	O	1.493473	0.001397	0.121795
O6	O	1.300667	0.128826	0.121794
O7	O	1.666291	0.117627	0.121793
Cu8	Cu	1.483478	0.123226	0.144036
Cu9	Cu	1.483481	0.123222	-0.144048
O10	O	1.473484	0.245055	0.121792
C11	C	1.253881	0.128000	-0.000006
C12	C	1.114470	0.125537	-0.000005
C13	C	0.917987	0.122069	-0.132803
C14	C	1.048979	0.124378	-0.132797
C15	C	1.048964	0.124377	0.132788
C16	C	0.917976	0.122062	0.132780
C17	C	0.917995	0.122073	-0.286137
C18	C	1.048987	0.124383	-0.286130
C19	C	1.492648	-0.029805	-0.000008
C20	C	1.490171	-0.122770	-0.000016
C21	C	1.481273	-0.460569	-0.000011
C22	C	1.343960	-0.413934	-0.000557
C23	C	1.346438	-0.317229	-0.000008
C24	C	1.485687	-0.292983	-0.000014
C25	C	1.553413	-0.333664	0.139090
C26	C	1.549963	-0.430320	0.139206
C27	C	1.552803	-0.430665	-0.137811
C28	C	1.552770	-0.333720	-0.139650
C29	C	1.488188	-0.198271	-0.000011
C30	C	1.478776	-0.555281	-0.000004
C31	C	1.713079	0.118448	-0.000010
C32	C	1.852490	0.120912	-0.000020
C33	C	1.474312	0.276253	-0.000008
C34	C	1.476789	0.369218	-0.000009
N35	N	1.483486	0.123229	0.346658
N36	N	1.483484	0.123213	-0.346671
C37	C	1.568882	0.066823	0.423311
C38	C	1.568879	0.066812	0.576647
C39	C	1.398079	0.179622	0.576666
C40	C	1.398077	0.179628	0.423332
C41	C	1.667496	0.001695	0.423301
C42	C	1.667493	0.001685	0.576638
H43	H	0.893944	0.062954	-0.345015
H44	H	1.758413	0.022089	0.375742
H45	H	1.763816	0.016032	0.618254
C46	C	1.489870	-0.295702	0.278945
H47	H	1.531530	-0.320722	0.362541
H48	H	1.403747	-0.306175	0.280197
H49	H	1.495148	-0.236787	0.280386
C50	C	1.492155	-0.458759	-0.280243
H51	H	1.422634	-0.488992	-0.256996
H52	H	1.552744	-0.493882	-0.334563
H53	H	1.463636	-0.410728	-0.337026
C54	C	1.120999	0.125632	0.278860
H55	H	1.063229	0.124602	0.357940
H56	H	1.162536	0.175269	0.284403
H57	H	1.181662	0.077781	0.284363
H58	H	1.289320	-0.433845	0.098642
C59	C	1.691615	-0.313785	0.146086
H60	H	1.730786	-0.338982	0.231006
H61	H	1.694022	-0.254634	0.150253
H62	H	1.735309	-0.335493	0.061313
H63	H	0.865511	0.181703	-0.333715
H64	H	1.503253	-0.306761	-0.242555
C65	C	1.274039	-0.279996	0.134925
H66	H	1.275295	-0.220697	0.135714
H67	H	1.312978	-0.303249	0.221457
H68	H	1.189159	-0.293061	0.130835
H69	H	1.500575	-0.448907	0.243193
H70	H	1.101473	0.064749	-0.333709
H71	H	1.293201	-0.289119	-0.099723
C72	C	1.304115	0.241644	0.661005
H73	H	1.253243	0.275230	0.593388
H74	H	1.349254	0.276785	0.720847
H75	H	1.251850	0.211172	0.720794
H76	H	1.637774	-0.059132	0.624186
H77	H	1.650777	-0.461981	0.145513
C78	C	1.081503	0.204247	-0.365640
H79	H	1.005984	0.235530	-0.398330
H80	H	1.134074	0.188876	-0.447384
H81	H	1.124495	0.237616	-0.300236
C82	C	1.639654	-0.085239	0.367065
H83	H	1.628192	-0.120993	0.447991
H84	H	1.708460	-0.109030	0.309260
H85	H	1.565110	-0.079322	0.309268
H86	H	1.289078	-0.432787	-0.100311
H87	H	1.328530	0.225551	0.360923
H88	H	1.654043	-0.461837	-0.138751
C89	C	0.845934	0.120782	0.278841
H90	H	0.903697	0.121806	0.357928
H91	H	0.804410	0.071139	0.284352
H92	H	0.785260	0.168626	0.284365
H93	H	1.654316	-0.317767	-0.148053
