data_functionalizedCrystal
_audit_creation_method	'MofGen! by Chris Wilmer'
_symmetry_space_group_name_H-M	'P1'
_symmetry_Int_Tables_number	1
_symmetry_cell_setting	triclinic
loop_
_symmetry_equiv_pos_as_xyz
  x,y,z
_cell_length_a	14.853566
_cell_length_b	10.489716
_cell_length_c	13.930277
_cell_angle_alpha	89.999515
_cell_angle_beta	89.995631
_cell_angle_gamma	84.081775
loop_
_atom_site_label
_atom_site_type_symbol
_atom_site_fract_x
_atom_site_fract_y
_atom_site_fract_z
O1	O	1.197292	0.166522	-0.079759
O2	O	0.934943	0.186362	-0.079773
O3	O	1.072099	-0.009225	-0.079769
O4	O	1.060136	0.362109	-0.079763
O5	O	1.072080	-0.009229	0.079893
O6	O	0.934924	0.186357	0.079888
O7	O	1.197273	0.166518	0.079903
Zn8	Zn	1.066095	0.176437	0.105246
Zn9	Zn	1.066121	0.176442	-0.105116
O10	O	1.060117	0.362105	0.079899
C11	C	0.901339	0.185461	0.000055
C12	C	0.801241	0.182768	0.000049
C13	C	0.378003	0.171380	-0.086966
C14	C	0.378004	0.171376	0.087104
C15	C	0.472052	0.173905	0.087101
C16	C	0.519080	0.175173	0.000064
C17	C	0.472060	0.173913	-0.086971
C18	C	0.519078	0.175179	0.174134
C19	C	0.613131	0.177709	0.174135
C20	C	0.660162	0.178968	0.087096
C21	C	0.613136	0.177706	0.000058
C22	C	0.660164	0.178974	-0.086980
C23	C	0.613141	0.177703	-0.174019
C24	C	0.519090	0.175172	-0.174010
C25	C	0.754213	0.181500	0.087087
C26	C	0.754221	0.181507	-0.086985
C27	C	1.071190	-0.056749	0.000059
C28	C	1.068501	-0.198350	0.000050
C29	C	1.152610	-0.296969	0.000063
C30	C	1.108174	-0.373828	-0.078658
C31	C	1.108136	-0.373796	0.078756
C32	C	1.024101	-0.273345	-0.078737
C33	C	1.024075	-0.273307	0.078748
C34	C	0.979578	-0.350117	0.000007
C35	C	1.230877	0.167419	0.000072
C36	C	1.330975	0.170112	0.000072
C37	C	1.061026	0.409629	0.000069
C38	C	1.063715	0.551230	0.000071
N39	N	1.066085	0.176432	0.248812
N40	N	1.066138	0.176437	-0.248682
C41	C	1.005385	0.263014	0.701079
C42	C	1.126881	0.089861	0.701052
C43	C	1.126870	0.089857	0.600557
C44	C	1.066117	0.176434	0.550317
C45	C	1.005375	0.263015	0.600574
C46	C	1.187617	0.003286	0.550292
C47	C	1.187610	0.003279	0.449791
C48	C	1.126852	0.089851	0.399550
C49	C	1.066106	0.176435	0.449812
C50	C	1.005353	0.263013	0.399573
C51	C	0.944603	0.349591	0.449834
C52	C	0.944616	0.349588	0.550333
C53	C	1.126838	0.089855	0.299051
C54	C	1.005342	0.263014	0.299068
H55	H	0.651443	0.178745	-0.244885
Br56	Br	0.455274	0.173388	-0.292123
H57	H	1.143688	-0.417720	-0.145209
H58	H	0.955866	0.333511	0.258170
Br59	Br	0.857550	-0.389471	-0.000064
H60	H	1.143651	-0.417669	0.145307
Br61	Br	0.314178	0.169675	0.205221
H62	H	1.176349	0.019378	0.741960
H63	H	0.792494	0.182547	0.157953
Br64	Br	0.818039	0.183213	-0.205114
Br65	Br	0.314195	0.169609	-0.205085
Br66	Br	1.270074	-0.114197	0.618470
Br67	Br	1.209286	-0.027624	0.230845
Br68	Br	1.270052	-0.114218	0.381585
Br69	Br	0.676941	0.179434	0.292256
Br70	Br	0.455249	0.173479	0.292249
Br71	Br	1.274545	-0.257205	-0.000056
H72	H	0.988593	-0.229392	0.145301
Br73	Br	0.964970	-0.200512	-0.189789
H74	H	0.895141	0.420089	0.408918
Br75	Br	0.862177	0.467081	0.618545
H76	H	0.955921	0.333502	0.742004
