data_functionalizedCrystal
_audit_creation_method	'MofGen! by Chris Wilmer'
_symmetry_space_group_name_H-M	'P1'
_symmetry_Int_Tables_number	1
_symmetry_cell_setting	triclinic
loop_
_symmetry_equiv_pos_as_xyz
  x,y,z
_cell_length_a	25.639239
_cell_length_b	16.625547
_cell_length_c	16.625539
_cell_angle_alpha	89.976455
_cell_angle_beta	90.029947
_cell_angle_gamma	89.961530
loop_
_atom_site_label
_atom_site_type_symbol
_atom_site_fract_x
_atom_site_fract_y
_atom_site_fract_z
Zn1	Zn	-0.208171	-1.232558	0.456029
Zn2	Zn	-0.295606	-1.232430	0.321188
Zn3	Zn	-0.208185	-1.097728	0.321195
Zn4	Zn	-0.295576	-1.097651	0.455963
O5	O	-0.251884	-1.165092	0.388594
O6	O	-0.219776	-1.345374	0.438167
O7	O	-0.284028	-1.214541	0.208357
O8	O	-0.135018	-1.115700	0.339111
O9	O	-0.284014	-1.345280	0.339100
O10	O	-0.135007	-1.214759	0.438174
O11	O	-0.219800	-1.115576	0.208361
O12	O	-0.219771	-0.984886	0.339047
O13	O	-0.283963	-1.115568	0.568804
O14	O	-0.283977	-0.984829	0.438060
O15	O	-0.219747	-1.214684	0.568853
O16	O	-0.368767	-1.214465	0.339036
O17	O	-0.368745	-1.115444	0.438054
C18	C	-0.251872	-0.955601	0.388547
C19	C	-0.251880	-0.865980	0.388547
C20	C	-0.251880	-0.793198	0.388554
C21	C	-0.251882	-0.701889	0.388571
C22	C	-0.251886	-0.629113	0.388588
C23	C	-0.251889	-0.537798	0.388604
C24	C	-0.387727	-1.164954	0.388555
C25	C	-0.445841	-1.164969	0.388565
C26	C	-0.697035	-1.113522	0.440136
C27	C	-0.642431	-1.113492	0.440127
O28	O	-0.614195	-1.069617	0.483947
N29	N	-0.615115	-1.165070	0.388607
C30	C	-0.642406	-1.216688	0.337099
O31	O	-0.614157	-1.260558	0.293278
C32	C	-0.697009	-1.216722	0.337113
C33	C	-0.724322	-1.165134	0.388631
C34	C	-0.724349	-1.061939	0.491650
C35	C	-0.778949	-1.061968	0.491658
C36	C	-0.806236	-1.113580	0.440152
C37	C	-0.778923	-1.165163	0.388639
C38	C	-0.724299	-1.268343	0.285610
C39	C	-0.778906	-1.268372	0.285629
C40	C	-0.806219	-1.216784	0.337146
C41	C	-0.860811	-1.216804	0.337141
N42	N	-0.888127	-1.165225	0.388661
C43	C	-0.860840	-1.113613	0.440166
C44	C	-0.527735	-1.216615	0.337075
C45	C	-0.473133	-1.216578	0.337056
C46	C	-0.473162	-1.113383	0.440085
C47	C	-0.527765	-1.113416	0.440099
C48	C	-0.555051	-1.165037	0.388594
C49	C	-0.975505	-1.113677	0.440179
C50	C	-1.030110	-1.113709	0.440180
C51	C	-1.030076	-1.216907	0.337155
C52	C	-0.975476	-1.216873	0.337150
C53	C	-0.948191	-1.165255	0.388669
O54	O	-0.889081	-1.260658	0.293345
O55	O	-0.889095	-1.069758	0.483988
C56	C	-0.115511	-1.165252	0.388650
C57	C	-0.057397	-1.165321	0.388675
C58	C	-0.251850	-1.165132	0.598903
C59	C	-0.251835	-1.165148	0.688524
C60	C	-0.251895	-0.375401	0.388631
C61	C	-0.251893	-0.465022	0.388622
C62	C	-0.251881	-1.165099	0.179103
C63	C	-0.251748	-1.165238	0.089482
C64	C	-0.251824	-1.165162	0.761306
C65	C	-0.251804	-1.165180	0.852615
C66	C	-0.251786	-1.165199	0.925391
C67	C	-0.251767	-1.165219	1.016706
H68	H	-0.953296	-1.071647	0.482131
N69	N	-1.058009	-1.061023	0.492819
N70	N	-1.088437	-1.089376	0.544237
H71	H	-1.108140	-1.052170	0.581414
H72	H	-0.450898	-1.258577	0.295097
H73	H	-0.953237	-1.258872	0.295192
N74	N	-0.806769	-1.321108	0.233012
N75	N	-0.782371	-1.367158	0.187021
H76	H	-0.802048	-1.404400	0.149857
N77	N	-1.057963	-1.269616	0.284547
N78	N	-1.106716	-1.269630	0.284570
H79	H	-1.126413	-1.306859	0.247418
H80	H	-0.801183	-1.019958	0.533607
H81	H	-0.450935	-1.071359	0.482025
N82	N	-0.696489	-1.009212	0.544275
N83	N	-0.720893	-0.963166	0.590262
H84	H	-0.701221	-0.925921	0.627430
H85	H	-0.549948	-1.258649	0.295127
N86	N	-0.555655	-1.060713	0.492724
N87	N	-0.531278	-1.014633	0.538701
H88	H	-0.550972	-0.977409	0.575871
N89	N	-0.696416	-1.321043	0.232979
N90	N	-0.720797	-1.367121	0.187005
H91	H	-0.701106	-1.404345	0.149832
