data_functionalizedCrystal
_audit_creation_method	'MofGen! by Chris Wilmer'
_symmetry_space_group_name_H-M	'P1'
_symmetry_Int_Tables_number	1
_symmetry_cell_setting	triclinic
loop_
_symmetry_equiv_pos_as_xyz
  x,y,z
_cell_length_a	16.120530
_cell_length_b	16.120444
_cell_length_c	12.759393
_cell_angle_alpha	87.135249
_cell_angle_beta	92.920001
_cell_angle_gamma	90.168401
loop_
_atom_site_label
_atom_site_type_symbol
_atom_site_fract_x
_atom_site_fract_y
_atom_site_fract_z
Zn1	Zn	1.254497	-0.395559	0.699373
Zn2	Zn	1.247331	-0.534631	0.532107
Zn3	Zn	1.115429	-0.388539	0.514379
Zn4	Zn	1.108347	-0.527513	0.698414
O5	O	1.181401	-0.461561	0.611068
O6	O	1.369912	-0.419924	0.685006
O7	O	1.229798	-0.515293	0.382735
O8	O	1.139840	-0.273107	0.531901
O9	O	1.364647	-0.522100	0.562116
O10	O	1.242013	-0.278265	0.667815
O11	O	1.132890	-0.407960	0.369710
O12	O	0.998124	-0.401057	0.530971
O13	O	1.127770	-0.509968	0.845562
O14	O	0.992921	-0.503161	0.666181
O15	O	1.235146	-0.413022	0.846267
O16	O	1.222931	-0.650050	0.561186
O17	O	1.120821	-0.644820	0.683371
C18	C	0.965350	-0.450575	0.596548
C19	C	0.872921	-0.445896	0.590363
C20	C	1.170352	-0.677608	0.624123
C21	C	1.165702	-0.770037	0.629748
C22	C	0.703694	-0.437333	0.579077
C23	C	0.659946	-0.485849	0.643140
C24	C	0.565782	-0.481085	0.636860
C25	C	0.797866	-0.442096	0.585355
C26	C	1.205730	-0.983014	0.582129
C27	C	1.157226	-0.939263	0.640029
C28	C	1.161943	-0.845097	0.634307
C29	C	1.201014	-1.077189	0.587850
C30	C	1.398296	-0.472589	0.625646
C31	C	1.490723	-0.477289	0.631858
C32	C	1.181467	-0.461484	0.885101
C33	C	1.181496	-0.461451	1.001878
C34	C	1.192516	-0.244671	0.597988
C35	C	1.197252	-0.152245	0.592413
C36	C	1.181386	-0.461579	0.338101
C37	C	1.181531	-0.461386	0.221322
C38	C	1.237411	-0.410963	1.057108
C39	C	1.237427	-0.410928	1.166831
C40	C	1.125610	-0.511876	1.166084
C41	C	1.125590	-0.511906	1.056362
H42	H	0.693211	-0.530962	0.702702
Br43	Br	0.648252	-0.362144	0.479810
Br44	Br	1.280842	-0.927574	0.492348
H45	H	1.282930	-0.369877	1.012750
Br46	Br	1.313320	-0.342412	1.241784
H47	H	1.112158	-0.972528	0.693897
Br48	Br	1.049693	-0.580423	0.981399
H49	H	1.080095	-0.552956	1.210459
