data_functionalizedCrystal
_audit_creation_method	'MofGen! by Chris Wilmer'
_symmetry_space_group_name_H-M	'P1'
_symmetry_Int_Tables_number	1
_symmetry_cell_setting	triclinic
loop_
_symmetry_equiv_pos_as_xyz
  x,y,z
_cell_length_a	10.654550
_cell_length_b	9.065218
_cell_length_c	9.730223
_cell_angle_alpha	90.000469
_cell_angle_beta	89.996251
_cell_angle_gamma	84.750394
loop_
_atom_site_label
_atom_site_type_symbol
_atom_site_fract_x
_atom_site_fract_y
_atom_site_fract_z
O1	O	1.668655	0.207228	-0.114397
O2	O	1.303254	0.226972	-0.114374
O3	O	1.493507	0.002417	-0.114383
O4	O	1.478402	0.431784	-0.114388
O5	O	1.493505	0.002422	0.114197
O6	O	1.303252	0.226978	0.114206
O7	O	1.668653	0.207234	0.114183
Zn8	Zn	1.485952	0.217107	0.150486
Zn9	Zn	1.485955	0.217099	-0.150678
O10	O	1.478400	0.431790	0.114192
C11	C	1.256450	0.225525	-0.000082
C12	C	1.116989	0.221188	-0.000073
C13	C	1.492055	-0.052559	-0.000096
C14	C	1.487714	-0.216378	-0.000102
C15	C	1.038027	0.353403	-0.000095
C16	C	0.906990	0.349319	-0.000118
C17	C	0.933890	0.080793	-0.000105
C18	C	1.064925	0.084879	-0.000071
C19	C	1.022496	0.508434	-0.000108
C20	C	0.891459	0.504350	-0.000132
C21	C	1.715457	0.208681	-0.000113
C22	C	1.854918	0.213018	-0.000130
C23	C	1.479852	0.486766	-0.000099
C24	C	1.484193	0.650585	-0.000102
N25	N	1.485959	0.217111	0.356023
N26	N	1.485958	0.217084	-0.356214
C27	C	1.570225	0.117712	0.427945
C28	C	1.570222	0.117694	0.571828
C29	C	1.401682	0.316488	0.571854
C30	C	1.401681	0.316497	0.427973
C31	C	1.667534	0.002944	0.427931
C32	C	1.667531	0.002926	0.571814
H33	H	1.129212	-0.022783	-0.000034
O34	O	1.319647	0.412880	0.641690
C35	C	1.102244	0.496990	0.685668
C36	C	1.195011	0.387717	0.606522
H37	H	1.001457	0.476705	0.657242
H38	H	1.116607	0.479905	0.800874
H39	H	1.120007	0.615341	0.657409
H40	H	1.177304	0.269323	0.634666
H41	H	1.180627	0.404931	0.491335
H42	H	1.333054	0.397423	0.369416
H43	H	1.645642	-0.110463	0.388879
H44	H	1.758860	0.038880	0.383298
H45	H	1.636593	-0.104243	0.616432
H46	H	0.891483	-0.030185	-0.000124
O47	O	1.782839	0.033157	0.618175
C48	C	1.992988	0.088055	0.558089
C49	C	1.862458	0.053875	0.505400
H50	H	2.057404	0.104784	0.466938
H51	H	1.982788	0.193063	0.623144
H52	H	2.035432	-0.008493	0.623210
H53	H	1.819941	0.150330	0.440222
H54	H	1.872740	-0.051183	0.440420
H55	H	1.052066	0.569069	0.095557
O56	O	1.065191	0.567578	-0.117758
C57	C	1.057950	0.780578	-0.266671
C58	C	1.009519	0.713798	-0.133379
H59	H	1.012940	0.898794	-0.279358
H60	H	1.164771	0.781372	-0.261243
H61	H	1.031927	0.710949	-0.358151
H62	H	1.035451	0.783370	-0.041830
H63	H	0.902706	0.712977	-0.138927
H64	H	0.849958	0.562761	-0.095800
O65	O	0.837378	0.560353	0.117650
C66	C	0.870006	0.669570	0.339086
C67	C	0.931413	0.606226	0.205758
H68	H	0.946007	0.706646	0.410370
H69	H	0.799915	0.768369	0.313453
H70	H	0.818630	0.580479	0.392179
H71	H	0.982856	0.695209	0.152599
H72	H	1.001435	0.507393	0.231479
