data_functionalizedCrystal
_audit_creation_method	'MofGen! by Chris Wilmer'
_symmetry_space_group_name_H-M	'P1'
_symmetry_Int_Tables_number	1
_symmetry_cell_setting	triclinic
loop_
_symmetry_equiv_pos_as_xyz
  x,y,z
_cell_length_a	27.732048
_cell_length_b	19.188930
_cell_length_c	17.666332
_cell_angle_alpha	90.011603
_cell_angle_beta	90.003861
_cell_angle_gamma	82.893719
loop_
_atom_site_label
_atom_site_type_symbol
_atom_site_fract_x
_atom_site_fract_y
_atom_site_fract_z
O1	O	-0.641184	-0.083079	-0.062859
O2	O	-0.500430	-0.095711	-0.062883
O3	O	-0.574869	0.012286	-0.062856
O4	O	-0.566745	-0.191077	-0.062887
O5	O	-0.574856	0.012292	0.063041
O6	O	-0.500417	-0.095706	0.063014
O7	O	-0.641171	-0.083074	0.063038
Cu8	Cu	-0.570793	-0.089389	0.074521
Cu9	Cu	-0.570808	-0.089396	-0.074367
O10	O	-0.566732	-0.191071	0.063010
C11	C	-0.482415	-0.095443	0.000062
C12	C	-0.428758	-0.094645	0.000054
C13	C	-0.659186	-0.083341	0.000090
C14	C	-0.712843	-0.084140	0.000094
C15	C	-0.574599	0.038299	0.000095
C16	C	-0.573810	0.115798	0.000101
C17	C	-0.090123	-0.153438	0.000078
C18	C	0.111546	-0.150475	0.000085
O19	O	0.142637	-0.204237	0.000109
N20	N	0.130866	-0.086437	0.000093
C21	C	0.099764	-0.023135	0.000105
O22	O	0.120824	0.031401	0.000120
C23	C	-0.101903	-0.026098	0.000103
C24	C	-0.121220	-0.090140	0.000087
C25	C	-0.109440	-0.217475	0.000062
C26	C	-0.159854	-0.218215	0.000056
C27	C	-0.190951	-0.154917	0.000066
C28	C	-0.171634	-0.090880	0.000081
C29	C	-0.133003	0.037203	0.000120
C30	C	-0.183423	0.036457	0.000121
C31	C	-0.202740	-0.027586	0.000105
C32	C	-0.253145	-0.028323	0.000084
N33	N	-0.272465	-0.092361	0.000076
C34	C	-0.241368	-0.155658	0.000067
C35	C	0.205643	-0.021584	0.000104
C36	C	0.256060	-0.020843	0.000103
C37	C	0.267838	-0.148183	0.000085
C38	C	0.217420	-0.148923	0.000080
C39	C	0.186324	-0.085622	0.000096
C40	C	-0.347242	-0.157208	0.000054
C41	C	-0.397661	-0.157942	0.000044
C42	C	-0.409435	-0.030602	0.000067
C43	C	-0.359020	-0.029867	0.000072
C44	C	-0.327924	-0.093176	0.000068
O45	O	-0.284265	0.025410	0.000068
O46	O	-0.262437	-0.210187	0.000068
C47	C	-0.039708	-0.152698	0.000084
C48	C	-0.020391	-0.088661	0.000099
C49	C	-0.051489	-0.025363	0.000108
C50	C	0.030025	-0.087920	0.000098
C51	C	0.061122	-0.151217	0.000089
C52	C	0.041803	-0.215255	0.000080
C53	C	-0.008611	-0.215995	0.000074
C54	C	-0.032169	0.038675	0.000116
C55	C	0.018246	0.039409	0.000122
C56	C	0.049343	-0.023888	0.000112
C57	C	-0.567002	-0.217083	0.000058
C58	C	-0.567791	-0.294583	0.000047
N59	N	-0.570786	-0.089384	0.179240
C60	C	-0.617488	0.161001	0.000112
C61	C	-0.616746	0.233820	0.000100
C62	C	-0.572323	0.261433	0.000092
C63	C	-0.528639	0.216220	0.000077
C64	C	-0.529382	0.143403	0.000081
N65	N	-0.538363	0.369223	0.042931
N66	N	-0.537660	0.438397	0.042928
C67	C	-0.570081	0.480827	0.000076
N68	N	-0.603240	0.451471	-0.042764
N69	N	-0.603944	0.382291	-0.042757
C70	C	-0.571512	0.340390	0.000086
C71	C	-0.612959	0.604989	0.000073
C72	C	-0.612215	0.677809	0.000056
C73	C	-0.524106	0.660208	0.000040
C74	C	-0.524851	0.587390	0.000049
C75	C	-0.569279	0.559785	0.000069
N76	N	-0.570819	-0.089395	-0.179086
C77	C	-0.603758	-0.041586	0.218862
C78	C	-0.603761	-0.041582	0.298110
C79	C	-0.570796	-0.089389	0.337733
C80	C	-0.537817	-0.137191	0.298101
C81	C	-0.537812	-0.137188	0.218855
N82	N	-0.564512	-0.151237	0.462141
N83	N	-0.564520	-0.151237	0.537422
C84	C	-0.570808	-0.089399	0.576497
N85	N	-0.577098	-0.027558	0.537447
N86	N	-0.577093	-0.027559	0.462160
C87	C	-0.570797	-0.089397	0.423662
C88	C	-0.603786	-0.041593	0.702048
C89	C	-0.603785	-0.041589	0.781297
C90	C	-0.537844	-0.137203	0.781286
C91	C	-0.537842	-0.137202	0.702039
C92	C	-0.570816	-0.089397	0.662424
H93	H	-0.413385	-0.210095	0.000031
F94	F	-0.638878	0.009291	0.823467
H95	H	-0.493813	0.106598	0.000072
F96	F	-0.442539	0.036760	0.000078
H97	H	0.293166	-0.199722	0.000077
F98	F	-0.502732	-0.188068	0.340271
F99	F	-0.314154	-0.224588	0.000050
F100	F	-0.029163	-0.284158	0.000057
F101	F	0.074908	-0.282620	0.000066
F102	F	-0.076350	-0.284850	0.000052
H103	H	-0.653664	0.138530	0.000126
F104	F	0.038797	0.107577	0.000129
H105	H	-0.652316	0.270631	0.000106
F106	F	-0.216516	0.103833	0.000140
F107	F	0.276612	0.047320	0.000103
H108	H	-0.630606	-0.002659	0.186610
F109	F	-0.476828	0.689591	0.000028
F110	F	-0.481361	0.245609	0.000063
H111	H	-0.489283	0.550585	0.000045
H112	H	-0.175576	-0.270364	0.000043
F113	F	-0.638856	0.009294	0.340285
F114	F	-0.660241	0.575607	0.000098
F115	F	-0.065259	0.106048	0.000128
F116	F	-0.658706	0.725918	0.000063
H117	H	0.201697	-0.201072	0.000071
H118	H	0.180328	0.029967	0.000117
H119	H	-0.510961	-0.176112	0.186594
H120	H	-0.511001	-0.176126	0.813547
F121	F	-0.112457	0.105367	0.000126
F122	F	-0.338461	0.038293	0.000090
F123	F	-0.638877	0.009287	0.659886
F124	F	-0.502751	-0.188078	0.659867
