data_functionalizedCrystal
_audit_creation_method	'MofGen! by Chris Wilmer'
_symmetry_space_group_name_H-M	'P1'
_symmetry_Int_Tables_number	1
_symmetry_cell_setting	triclinic
loop_
_symmetry_equiv_pos_as_xyz
  x,y,z
_cell_length_a	6.817900
_cell_length_b	16.418049
_cell_length_c	11.168136
_cell_angle_alpha	93.914657
_cell_angle_beta	108.508683
_cell_angle_gamma	103.389670
loop_
_atom_site_label
_atom_site_type_symbol
_atom_site_fract_x
_atom_site_fract_y
_atom_site_fract_z
V1	V	-4.083883	-0.115899	-0.394144
O2	O	-4.070713	0.005556	-0.386183
O3	O	-4.034620	-0.229795	-0.391888
O4	O	-4.060572	-0.114122	-0.565843
O5	O	-4.044582	-0.110918	-0.211025
V6	V	-4.564371	-0.101371	-0.372188
O7	O	-4.351797	-0.147767	-0.442306
O8	O	-4.746654	-0.069502	-0.324026
O9	O	-4.390427	0.012526	-0.374443
O10	O	-4.694938	-0.222826	-0.380148
O11	O	-4.721069	-0.106351	-0.555307
O12	O	-4.364476	-0.103148	-0.200489
C13	C	-3.878599	-0.257560	-0.385784
C14	C	-3.919776	-0.350672	-0.385084
C15	C	-3.911702	-0.110006	-0.607679
C16	C	-3.973921	-0.109307	-0.748046
C17	C	-4.197499	-0.569162	-0.389814
C18	C	-4.236179	-0.656651	-0.389168
C19	C	-3.870114	-0.648107	-0.376526
C20	C	-3.831442	-0.560620	-0.377181
C21	C	-3.995138	-0.521149	-0.383819
C22	C	-4.072490	-0.696125	-0.382517
C23	C	-4.114427	-0.790985	-0.381816
C24	C	-3.953201	-0.426284	-0.384523
C25	C	-4.175608	-0.112968	-0.816752
C26	C	-4.239918	-0.112245	-0.961830
C27	C	-4.209790	0.040287	-0.380544
C28	C	-4.147853	0.133398	-0.381252
C29	C	-4.176687	-0.107266	-0.158646
C30	C	-4.093706	-0.107961	-0.018277
H31	H	-4.400959	-0.695740	-0.394052
H32	H	-4.412699	-0.115383	-1.020893
C33	C	-3.766847	-0.778423	-0.369893
C34	C	-3.690179	-0.691494	-0.369212
H35	H	-3.655750	-0.805204	-0.365367
H36	H	-3.884889	-0.802165	-0.446385
H37	H	-3.811864	-0.786852	-0.298374
H38	H	-3.645176	-0.683065	-0.440737
H39	H	-3.572098	-0.667744	-0.292712
C40	C	-3.856006	-0.176224	-0.879660
C41	C	-3.860454	-0.103752	-0.938583
H42	H	-3.712004	-0.173628	-0.830454
H43	H	-3.913591	-0.225194	-0.943118
H44	H	-3.939381	-0.178991	-0.825429
H45	H	-3.777092	-0.100988	-0.992822
H46	H	-3.802840	-0.054769	-0.875117
C47	C	-4.312543	-0.464454	-0.288787
C48	C	-4.377433	-0.525775	-0.397120
H49	H	-4.423639	-0.437675	-0.293299
H50	H	-4.186508	-0.423342	-0.285319
H51	H	-4.283507	-0.490764	-0.214273
H52	H	-4.406454	-0.499464	-0.471634
H53	H	-4.503506	-0.566894	-0.400601
C54	C	-4.248065	-0.117681	-0.620154
C55	C	-4.344455	-0.117923	-0.751181
H56	H	-4.352316	-0.120745	-0.579679
H57	H	-4.136041	-0.067001	-0.584234
H58	H	-4.190498	-0.165143	-0.607689
H59	H	-4.402009	-0.070457	-0.763646
H60	H	-4.456518	-0.168608	-0.787111
H61	H	-3.666650	-0.521527	-0.372304
H62	H	-3.848857	-0.105632	-0.796628
