data_functionalizedCrystal
_audit_creation_method	'MofGen! by Chris Wilmer'
_symmetry_space_group_name_H-M	'P1'
_symmetry_Int_Tables_number	1
_symmetry_cell_setting	triclinic
loop_
_symmetry_equiv_pos_as_xyz
  x,y,z
_cell_length_a	11.169417
_cell_length_b	18.050590
_cell_length_c	11.169409
_cell_angle_alpha	90.037983
_cell_angle_beta	90.019824
_cell_angle_gamma	90.019431
loop_
_atom_site_label
_atom_site_type_symbol
_atom_site_fract_x
_atom_site_fract_y
_atom_site_fract_z
Zn1	Zn	1.834894	-0.295582	0.678496
Zn2	Zn	2.334894	0.204418	1.178496
Zn3	Zn	1.834754	-0.419797	0.477793
Zn4	Zn	2.334754	0.080203	0.977793
Zn5	Zn	1.634180	-0.295627	0.477830
Zn6	Zn	2.134180	0.204373	0.977830
Zn7	Zn	1.634158	-0.419736	0.678438
Zn8	Zn	2.134158	0.080264	1.178438
O9	O	1.734497	-0.357686	0.578139
O10	O	2.234497	0.142314	1.078139
O11	O	2.002825	-0.312066	0.651881
O12	O	2.502825	0.187934	1.151881
O13	O	1.808098	-0.403370	0.309848
O14	O	2.308098	0.096630	0.809848
O15	O	1.660872	-0.191697	0.504489
O16	O	2.160872	0.308303	1.004489
O17	O	2.002723	-0.403326	0.504425
O18	O	2.502723	0.096674	1.004425
O19	O	1.808336	-0.191663	0.651917
O20	O	2.308336	0.308337	1.151917
O21	O	1.660737	-0.312143	0.309875
O22	O	2.160737	0.187857	0.809875
O23	O	1.466227	-0.312084	0.504432
O24	O	1.966227	0.187916	1.004432
O25	O	1.660836	-0.403223	0.846395
O26	O	2.160836	0.096777	1.346395
O27	O	1.466212	-0.403267	0.651818
O28	O	1.966212	0.096733	1.151818
O29	O	1.808315	-0.312007	0.846438
O30	O	2.308315	0.187993	1.346438
O31	O	1.808078	-0.523714	0.504369
O32	O	2.308078	-0.023714	1.004369
O33	O	1.660701	-0.523669	0.651782
O34	O	2.160701	-0.023669	1.151782
C35	C	1.422672	-0.357674	0.578124
C36	C	1.922672	0.142326	1.078124
C37	C	1.289272	-0.357687	0.578145
C38	C	1.789272	0.142313	1.078145
C39	C	1.734404	-0.550638	0.578091
C40	C	2.234404	-0.050638	1.078091
C41	C	1.734475	-0.633184	0.578111
C42	C	2.234475	-0.133184	1.078111
C43	C	1.814785	-0.832631	0.498060
C44	C	2.314785	-0.332631	0.998060
C45	C	1.844109	-0.881952	0.607596
C46	C	2.344109	-0.381952	1.107596
C47	C	1.734543	-0.784314	0.578159
C48	C	2.234543	-0.284314	1.078159
C49	C	1.705341	-0.882074	0.468672
C50	C	2.205341	-0.382074	0.968672
C51	C	1.734611	-0.930299	0.578195
C52	C	2.234611	-0.430299	1.078195
C53	C	1.763923	-0.832548	0.687752
C54	C	2.263923	-0.332548	1.187752
C55	C	1.625104	-0.832665	0.548755
C56	C	2.125104	-0.332665	1.048755
C57	C	1.654386	-0.881964	0.658366
C58	C	2.154386	-0.381964	1.158366
C59	C	1.734507	-0.700216	0.578136
C60	C	2.234507	-0.200216	1.078136
C61	C	1.734647	-1.014395	0.578230
C62	C	2.234647	-0.514395	1.078230
C63	C	2.047539	-0.357697	0.578155
C64	C	2.547539	0.142303	1.078155
C65	C	2.180939	-0.357703	0.578162
C66	C	2.680939	0.142297	1.078162
C67	C	1.734589	-0.357603	0.891182
C68	C	2.234589	0.142397	1.391182
C69	C	1.734628	-0.357568	1.024582
C70	C	2.234628	0.142432	1.524582
C71	C	1.734622	-0.163980	0.578213
C72	C	2.234622	0.336020	1.078213
C73	C	1.734675	-0.081434	0.578245
C74	C	2.234675	0.418566	1.078245
C75	C	1.734474	-0.357714	0.266314
C76	C	2.234474	0.142286	0.766314
C77	C	1.734667	-0.357540	0.132915
C78	C	2.234667	0.142460	0.632915
H79	H	1.882666	-0.810969	0.430392
H80	H	2.382666	-0.310969	0.930392
H81	H	1.936688	-0.903604	0.632489
H82	H	2.436688	-0.403604	1.132489
H83	H	1.680614	-0.903828	0.376065
H84	H	2.180614	-0.403828	0.876065
H85	H	1.586557	-0.903489	0.726198
H86	H	2.086557	-0.403489	1.226198
H87	H	1.788558	-0.810886	0.780439
H88	H	2.288558	-0.310886	1.280439
F89	F	1.504126	-0.804347	0.516179
F90	F	2.004126	-0.304347	1.016179
