data_functionalizedCrystal
_audit_creation_method	'MofGen! by Chris Wilmer'
_symmetry_space_group_name_H-M	'P1'
_symmetry_Int_Tables_number	1
_symmetry_cell_setting	triclinic
loop_
_symmetry_equiv_pos_as_xyz
  x,y,z
_cell_length_a	18.050591
_cell_length_b	25.639239
_cell_length_c	18.050582
_cell_angle_alpha	89.975362
_cell_angle_beta	89.979078
_cell_angle_gamma	90.034692
loop_
_atom_site_label
_atom_site_type_symbol
_atom_site_fract_x
_atom_site_fract_y
_atom_site_fract_z
Zn1	Zn	1.135238	-0.208240	-0.420021
Zn2	Zn	1.135126	-0.295667	-0.295826
Zn3	Zn	1.011058	-0.208242	-0.295832
Zn4	Zn	1.010983	-0.295640	-0.419962
O5	O	1.073101	-0.251947	-0.357910
O6	O	1.239148	-0.219848	-0.403568
O7	O	1.118653	-0.284083	-0.191902
O8	O	1.027609	-0.135076	-0.312333
O9	O	1.239066	-0.284081	-0.312323
O10	O	1.118844	-0.135075	-0.403574
O11	O	1.027500	-0.219851	-0.191906
O12	O	0.907123	-0.219825	-0.312276
O13	O	1.027481	-0.284034	-0.523894
O14	O	0.907068	-0.284036	-0.403473
O15	O	1.118771	-0.219821	-0.523938
O16	O	1.118580	-0.368829	-0.312266
O17	O	1.027373	-0.368809	-0.403468
C18	C	0.880149	-0.251928	-0.357869
C19	C	0.797604	-0.251932	-0.357869
C20	C	0.598161	-0.216974	-0.308390
C21	C	0.548729	-0.264661	-0.290112
C22	C	0.646473	-0.251948	-0.357903
C23	C	0.548824	-0.204277	-0.376179
C24	C	0.500488	-0.251959	-0.357934
C25	C	0.598128	-0.299660	-0.339589
C26	C	0.598227	-0.239244	-0.425688
C27	C	0.548817	-0.286965	-0.407435
C28	C	0.730571	-0.251941	-0.357883
C29	C	0.416392	-0.251971	-0.357954
C30	C	1.072977	-0.387790	-0.357876
C31	C	1.072991	-0.445904	-0.357886
C32	C	1.120717	-0.806265	-0.310502
C33	C	1.120746	-0.860869	-0.310512
O34	O	1.161195	-0.889104	-0.270187
N35	N	1.073232	-0.888186	-0.357959
C36	C	1.025691	-0.860896	-0.405405
O37	O	0.985280	-0.889145	-0.445764
C38	C	1.025667	-0.806293	-0.405398
C39	C	1.073179	-0.778979	-0.357943
C40	C	1.168226	-0.778951	-0.263051
C41	C	1.168196	-0.724350	-0.263040
C42	C	1.120657	-0.697064	-0.310481
C43	C	1.073149	-0.724378	-0.357932
C44	C	0.978131	-0.779004	-0.452847
C45	C	0.978111	-0.724397	-0.452837
C46	C	1.025622	-0.697083	-0.405381
C47	C	1.025580	-0.642491	-0.405362
N48	N	1.073094	-0.615174	-0.357914
C49	C	1.120633	-0.642460	-0.310474
C50	C	1.025747	-0.975567	-0.405416
C51	C	1.025768	-1.030169	-0.405420
C52	C	1.120823	-1.030138	-0.310528
C53	C	1.120799	-0.975535	-0.310521
C54	C	1.073261	-0.948250	-0.357969
C55	C	1.120566	-0.527795	-0.310455
C56	C	1.120530	-0.473190	-0.310446
C57	C	1.025477	-0.473226	-0.405340
C58	C	1.025510	-0.527826	-0.405347
C59	C	1.073061	-0.555110	-0.357901
O60	O	0.985154	-0.614222	-0.445668
O61	O	1.161044	-0.614205	-0.270129
C62	C	1.266807	-0.251967	-0.357952
C63	C	1.349353	-0.251976	-0.357970
C64	C	1.073131	-0.251924	-0.551616
C65	C	1.073143	-0.251914	-0.634162
C66	C	1.073247	-0.115574	-0.357961
C67	C	1.073309	-0.057460	-0.357982
C68	C	1.023537	-0.286785	-0.833589
C69	C	1.091289	-0.299569	-0.882987
C70	C	1.073180	-0.251874	-0.785292
C71	C	1.005465	-0.239076	-0.882976
C72	C	1.073209	-0.251837	-0.931277
C73	C	1.140967	-0.264683	-0.833603
C74	C	1.055097	-0.204168	-0.833588
C75	C	1.122896	-0.216933	-0.882963
C76	C	1.073162	-0.251897	-0.701194
C77	C	1.073235	-0.251814	-1.015374
C78	C	1.073115	-0.251933	-0.164958
C79	C	1.073247	-0.251795	-0.082413
H80	H	0.527288	-0.316580	-0.449320
C81	C	0.627437	-0.177060	-0.251772
H82	H	0.656427	-0.151531	-0.276618
H83	H	0.657087	-0.194426	-0.215980
H84	H	0.586851	-0.160595	-0.227797
C85	C	0.925877	-0.809040	-0.505057
H86	H	0.932691	-0.845469	-0.498274
H87	H	0.936720	-0.800058	-0.554959
H88	H	0.875977	-0.800128	-0.494139
C89	C	0.519352	-0.279187	-0.212693
H90	H	0.536242	-0.254300	-0.177558
H91	H	0.536959	-0.312816	-0.199379
H92	H	0.466728	-0.279395	-0.213379
H93	H	0.619985	-0.228476	-0.482982
C94	C	1.111974	-0.354046	-0.912307
H95	H	1.076645	-0.378825	-0.895406
H96	H	1.159746	-0.363366	-0.894676
H97	H	1.112273	-0.353557	-0.964932
C98	C	1.034385	-0.149705	-0.804246
H99	H	0.986222	-0.140676	-0.821121
H100	H	1.069168	-0.124805	-0.821887
H101	H	1.034970	-0.150039	-0.751621
C102	C	1.218376	-0.279324	-0.804433
H103	H	1.217889	-0.279257	-0.751803
H104	H	1.253652	-0.254654	-0.821744
H105	H	1.231338	-0.313094	-0.821747
H106	H	0.527126	-0.163963	-0.391599
C107	C	0.627259	-0.354143	-0.318630
H108	H	0.679888	-0.353802	-0.318722
H109	H	0.609968	-0.379009	-0.353591
H110	H	0.609900	-0.363226	-0.270635
C111	C	1.172798	-0.443147	-0.258246
H112	H	1.201119	-0.467222	-0.230001
H113	H	1.144404	-0.421878	-0.225853
H114	H	1.205130	-0.421814	-0.286690
H115	H	1.164937	-0.187394	-0.904505
H116	H	1.159288	-0.550003	-0.271822
H117	H	1.206886	-0.702114	-0.224400
H118	H	0.981596	-0.316347	-0.811910
C119	C	0.925818	-0.694386	-0.505031
H120	H	0.897526	-0.718477	-0.533289
H121	H	0.954196	-0.673053	-0.537414
H122	H	0.893461	-0.673119	-0.476586
C123	C	0.928090	-0.224470	-0.912273
H124	H	0.892873	-0.249323	-0.895358
H125	H	0.928764	-0.224249	-0.964894
H126	H	0.914893	-0.190832	-0.894626
H127	H	1.159487	-0.953299	-0.271879
C128	C	1.220518	-0.808957	-0.210858
H129	H	1.248800	-0.784862	-0.182597
H130	H	1.252874	-0.830229	-0.239291
H131	H	1.192135	-0.830284	-0.178467
H132	H	1.159534	-1.052365	-0.271902
C133	C	0.973500	-1.060209	-0.457616
H134	H	0.945190	-1.036133	-0.485870
H135	H	0.941170	-1.081545	-0.429183
H136	H	1.001902	-1.081475	-0.490014
H137	H	0.987030	-0.953354	-0.444052
H138	H	0.986769	-0.451001	-0.443964
C139	C	0.973248	-0.557873	-0.457545
H140	H	0.944935	-0.533800	-0.485799
H141	H	0.940920	-0.579212	-0.429114
H142	H	1.001656	-0.579136	-0.489941
