data_functionalizedCrystal
_audit_creation_method	'MofGen! by Chris Wilmer'
_symmetry_space_group_name_H-M	'P1'
_symmetry_Int_Tables_number	1
_symmetry_cell_setting	triclinic
loop_
_symmetry_equiv_pos_as_xyz
  x,y,z
_cell_length_a	12.594517
_cell_length_b	18.050590
_cell_length_c	12.594509
_cell_angle_alpha	89.967171
_cell_angle_beta	89.988522
_cell_angle_gamma	90.014439
loop_
_atom_site_label
_atom_site_type_symbol
_atom_site_fract_x
_atom_site_fract_y
_atom_site_fract_z
Zn1	Zn	1.627248	-0.295719	-0.601546
Zn2	Zn	2.127248	0.204281	-0.101546
Zn3	Zn	1.627131	-0.419923	-0.423553
Zn4	Zn	2.127131	0.080077	0.076447
Zn5	Zn	1.449252	-0.295742	-0.423606
Zn6	Zn	1.949252	0.204258	0.076394
Zn7	Zn	1.449227	-0.419862	-0.601514
Zn8	Zn	1.949227	0.080138	-0.101514
O9	O	1.538215	-0.357811	-0.512555
O10	O	2.038215	0.142189	-0.012555
O11	O	1.776179	-0.312210	-0.577927
O12	O	2.276179	0.187790	-0.077927
O13	O	1.603497	-0.403485	-0.274615
O14	O	2.103497	0.096515	0.225385
O15	O	1.472923	-0.191814	-0.447245
O16	O	1.972923	0.308186	0.052755
O17	O	1.776093	-0.403462	-0.447156
O18	O	2.276093	0.096538	0.052844
O19	O	1.603696	-0.191797	-0.577977
O20	O	2.103696	0.308203	-0.077977
O21	O	1.472810	-0.312250	-0.274653
O22	O	1.972810	0.187750	0.225347
O23	O	1.300303	-0.312191	-0.447214
O24	O	1.800303	0.187809	0.052786
O25	O	1.472880	-0.403360	-0.750464
O26	O	1.972880	0.096640	-0.250464
O27	O	1.300284	-0.403382	-0.577923
O28	O	1.800284	0.096618	-0.077923
O29	O	1.603672	-0.312152	-0.750488
O30	O	2.103672	0.187848	-0.250488
O31	O	1.603472	-0.523839	-0.447125
O32	O	2.103472	-0.023839	0.052875
O33	O	1.472767	-0.523795	-0.577872
O34	O	1.972767	-0.023795	-0.077872
C35	C	1.261674	-0.357783	-0.512571
C36	C	1.761674	0.142217	-0.012571
C37	C	1.143368	-0.357789	-0.512603
C38	C	1.643368	0.142211	-0.012603
C39	C	1.074136	-0.407485	-0.583558
C40	C	1.574136	0.092515	-0.083558
C41	C	1.003332	-0.339773	-0.609744
C42	C	1.503332	0.160227	-0.109744
C43	C	1.003374	-0.425557	-0.486394
C44	C	1.503374	0.074443	0.013606
C45	C	1.074122	-0.290041	-0.538840
C46	C	1.574122	0.209959	-0.038840
C47	C	1.074171	-0.375871	-0.415444
C48	C	1.574171	0.124129	0.084556
C49	C	1.003398	-0.308112	-0.441593
C50	C	1.503398	0.191888	0.058407
C51	C	1.538133	-0.550764	-0.512512
C52	C	2.038133	-0.050764	-0.012512
C53	C	1.538195	-0.633309	-0.512530
C54	C	2.038195	-0.133309	-0.012530
C55	C	1.609421	-0.832757	-0.441529
C56	C	2.109421	-0.332757	0.058471
C57	C	1.635423	-0.882086	-0.538668
C58	C	2.135423	-0.382086	-0.038668
C59	C	1.538256	-0.784440	-0.512572
C60	C	2.038256	-0.284440	-0.012572
C61	C	1.512362	-0.882193	-0.415477
C62	C	2.012362	-0.382193	0.084523
C63	C	1.538316	-0.930425	-0.512605
C64	C	2.038316	-0.430425	-0.012605
C65	C	1.564308	-0.832681	-0.609762
C66	C	2.064308	-0.332681	-0.109762
C67	C	1.441201	-0.832784	-0.486506
C68	C	1.941201	-0.332784	0.013494
C69	C	1.467166	-0.882090	-0.583712
C70	C	1.967166	-0.382090	-0.083712
C71	C	1.538224	-0.700341	-0.512552
C72	C	2.038224	-0.200341	-0.012552
C73	C	1.538348	-1.014521	-0.512636
C74	C	2.038348	-0.514521	-0.012636
C75	C	1.815835	-0.357840	-0.512539
C76	C	2.315835	0.142160	-0.012539
C77	C	1.934141	-0.357852	-0.512533
C78	C	2.434141	0.142148	-0.012533
C79	C	1.538286	-0.357746	-0.790176
C80	C	2.038286	0.142254	-0.290176
C81	C	1.538316	-0.357719	-0.908481
C82	C	2.038316	0.142281	-0.408481
C83	C	1.538326	-0.164106	-0.512621
C84	C	2.038326	0.335894	-0.012621
C85	C	1.538373	-0.081560	-0.512649
C86	C	2.038373	0.418440	-0.012649
C87	C	1.467201	-0.407298	-0.977722
C88	C	1.967201	0.092702	-0.477722
C89	C	1.564321	-0.425449	-1.048493
C90	C	2.064321	0.074551	-0.548493
C91	C	1.441273	-0.339523	-1.048509
C92	C	1.941273	0.160477	-0.548509
C93	C	1.635487	-0.375904	-0.977695
C94	C	2.135487	0.124096	-0.477695
C95	C	1.512373	-0.289948	-0.977704
C96	C	2.012373	0.210052	-0.477704
C97	C	1.609560	-0.308072	-1.048444
C98	C	2.109560	0.191928	-0.548444
C99	C	1.538205	-0.357823	-0.236014
C100	C	2.038205	0.142177	0.263986
C101	C	1.538381	-0.357641	-0.117709
C102	C	2.038381	0.142359	0.382291
H103	H	1.105198	-0.449430	-0.643639
H104	H	1.605198	0.050570	-0.143639
H105	H	1.490367	-0.232685	-0.946586
H106	H	1.990367	0.267315	-0.446586
H107	H	1.669797	-0.266111	-1.079301
H108	H	2.169797	0.233889	-0.579301
H109	H	1.669623	-0.811095	-0.381512
H110	H	2.169623	-0.311095	0.118488
H111	H	1.407108	-0.449292	-0.946670
H112	H	1.907108	0.050708	-0.446670
H113	H	0.972291	-0.482841	-0.464258
H114	H	1.472291	0.017159	0.035742
H115	H	1.359177	-0.324166	-1.079615
H116	H	1.859177	0.175834	-0.579615
C117	C	1.116243	-0.396531	-0.304516
C118	C	1.616243	0.103469	0.195484
N119	N	1.147935	-0.412100	-0.220963
N120	N	1.647935	0.087900	0.279037
H121	H	0.972216	-0.324501	-0.691879
H122	H	1.472216	0.175499	-0.191879
C123	C	1.330320	-0.803493	-0.456648
C124	C	1.830320	-0.303493	0.043352
N125	N	1.246806	-0.781427	-0.434146
N126	N	1.746806	-0.281427	0.065854
C127	C	1.594009	-0.502829	-1.090507
C128	C	2.094009	-0.002829	-0.590507
N129	N	1.616364	-0.561113	-1.122149
N130	N	2.116364	-0.061113	-0.622149
C131	C	1.746339	-0.911350	-0.568477
C132	C	2.246339	-0.411350	-0.068477
N133	N	1.829882	-0.933391	-0.590922
N134	N	2.329882	-0.433391	-0.090922
H135	H	1.717606	-0.391327	-0.946720
H136	H	2.217606	0.108673	-0.446720
C137	C	1.594066	-0.803428	-0.720741
C138	C	2.094066	-0.303428	-0.220741
N139	N	1.616484	-0.781393	-0.804328
N140	N	2.116484	-0.281393	-0.304328
H141	H	1.105070	-0.232740	-0.561071
H142	H	1.605070	0.267260	-0.061071
H143	H	1.407010	-0.903615	-0.643874
H144	H	1.907010	-0.403615	-0.143874
H145	H	1.490436	-0.903940	-0.333351
H146	H	1.990436	-0.403940	0.166649
C147	C	0.961692	-0.251309	-0.360494
C148	C	1.461692	0.248691	0.139506
N149	N	0.930275	-0.208522	-0.299416
N150	N	1.430275	0.291478	0.200584
