data_functionalizedCrystal
_audit_creation_method	'MofGen! by Chris Wilmer'
_symmetry_space_group_name_H-M	'P1'
_symmetry_Int_Tables_number	1
_symmetry_cell_setting	triclinic
loop_
_symmetry_equiv_pos_as_xyz
  x,y,z
_cell_length_a	12.827893
_cell_length_b	12.827892
_cell_length_c	19.076919
_cell_angle_alpha	87.724465
_cell_angle_beta	87.716862
_cell_angle_gamma	90.015363
loop_
_atom_site_label
_atom_site_type_symbol
_atom_site_fract_x
_atom_site_fract_y
_atom_site_fract_z
Zn1	Zn	1.573891	-0.439793	0.397931
Zn2	Zn	1.580818	-0.607529	0.280244
Zn3	Zn	1.406164	-0.432803	0.280254
Zn4	Zn	1.399120	-0.614492	0.397904
O5	O	1.489998	-0.523654	0.339083
O6	O	1.721046	-0.462056	0.382326
O7	O	1.563497	-0.578512	0.181756
O8	O	1.428463	-0.287495	0.295879
O9	O	1.726135	-0.585290	0.295863
O10	O	1.551692	-0.292631	0.382335
O11	O	1.435180	-0.450142	0.181763
O12	O	1.258994	-0.456893	0.295853
O13	O	1.416456	-0.597157	0.496397
O14	O	1.253818	-0.590378	0.382291
O15	O	1.544860	-0.468807	0.496417
O16	O	1.556665	-0.754688	0.295837
O17	O	1.423173	-0.759803	0.382281
C18	C	1.218489	-0.523633	0.339070
C19	C	1.102335	-0.523651	0.339082
C20	C	1.053072	-0.584530	0.296240
C21	C	0.933021	-0.584549	0.296250
C22	C	1.489934	-0.795163	0.339071
C23	C	1.490000	-0.911318	0.339089
C24	C	1.556129	-0.960539	0.296361
C25	C	1.556200	-1.080591	0.296379
C26	C	1.762568	-0.523676	0.339096
C27	C	1.878720	-0.523685	0.339102
C28	C	1.479100	-0.534538	0.522658
C29	C	1.474456	-0.539176	0.600887
C30	C	1.490091	-0.251086	0.339111
C31	C	1.490130	-0.134933	0.339123
C32	C	1.500914	-0.512737	0.156222
C33	C	1.505761	-0.507805	0.077994
C34	C	1.539123	-0.474533	0.637650
C35	C	1.534747	-0.478887	0.711154
C36	C	1.465707	-0.547890	0.747894
C37	C	1.401032	-0.612536	0.711126
C38	C	1.405404	-0.608176	0.637623
C39	C	1.445458	-0.568090	0.967723
C40	C	1.441093	-0.572448	1.041231
C41	C	1.574807	-0.438797	1.041254
C42	C	1.579177	-0.434448	0.967750
C43	C	1.514499	-0.499090	0.930988
N44	N	1.461234	-0.552345	0.823027
N45	N	1.518967	-0.494629	0.855856
H46	H	1.055634	-0.471547	0.375770
H47	H	1.099774	-0.636640	0.259556
H48	H	1.612697	-0.913805	0.259769
H49	H	1.612812	-1.122930	0.259796
H50	H	1.433507	-1.092602	0.375703
O51	O	1.422661	-0.967181	0.382783
C52	C	1.403039	-1.096080	0.477771
C53	C	1.479418	-1.032904	0.428319
H54	H	1.448897	-1.149216	0.514609
H55	H	1.350449	-1.145401	0.445442
H56	H	1.353216	-1.040327	0.509907
H57	H	1.529309	-1.088581	0.396173
H58	H	1.531936	-0.983569	0.460689
H59	H	0.890647	-0.636668	0.259571
H60	H	1.595346	-0.418347	0.607742
O61	O	0.929300	-0.461654	0.382939
C62	C	1.047102	-0.453534	0.477862
C63	C	0.989855	-0.523906	0.428272
H64	H	1.096092	-0.503834	0.514517
H65	H	0.987584	-0.407734	0.510180
H66	H	1.100070	-0.396919	0.445562
H67	H	0.936889	-0.580581	0.460518
H68	H	1.049430	-0.569632	0.395952
H69	H	1.587409	-0.426251	0.741084
H70	H	1.392807	-0.620742	0.937800
O71	O	1.334056	-0.679536	0.746921
C72	C	1.268016	-0.745443	0.860143
C73	C	1.343930	-0.669531	0.819695
H74	H	1.275957	-0.737364	0.918988
H75	H	1.287193	-0.828877	0.845735
H76	H	1.184633	-0.726233	0.845643
H77	H	1.427339	-0.688645	0.834173
H78	H	1.324663	-0.586119	0.834106
H79	H	1.352734	-0.660804	0.607691
H80	H	1.635400	-0.378261	0.937842
O81	O	1.637520	-0.376042	1.077074
C82	C	1.690089	-0.323559	1.190320
C83	C	1.618992	-0.394678	1.149843
H84	H	1.675150	-0.338618	1.249160
H85	H	1.672617	-0.238419	1.175926
H86	H	1.775197	-0.341043	1.175831
H87	H	1.533861	-0.377287	1.164309
H88	H	1.636553	-0.479797	1.164240
H89	H	1.384869	-0.628641	1.071142
