data_functionalizedCrystal
_audit_creation_method	'MofGen! by Chris Wilmer'
_symmetry_space_group_name_H-M	'P1'
_symmetry_Int_Tables_number	1
_symmetry_cell_setting	triclinic
loop_
_symmetry_equiv_pos_as_xyz
  x,y,z
_cell_length_a	9.065215
_cell_length_b	9.065218
_cell_length_c	7.540329
_cell_angle_alpha	89.995865
_cell_angle_beta	89.997358
_cell_angle_gamma	85.015291
loop_
_atom_site_label
_atom_site_type_symbol
_atom_site_fract_x
_atom_site_fract_y
_atom_site_fract_z
O1	O	0.216355	1.960396	-0.147528
O2	O	0.716355	2.460396	0.352472
O3	O	0.234101	1.531111	-0.147521
O4	O	0.734101	2.031111	0.352479
O5	O	0.010586	1.754629	-0.147517
O6	O	0.510586	2.254629	0.352483
O7	O	0.439871	1.736878	-0.147532
O8	O	0.939871	2.236878	0.352468
O9	O	0.010583	1.754616	0.147448
O10	O	0.510583	2.254616	0.647448
O11	O	0.234099	1.531098	0.147445
O12	O	0.734099	2.031098	0.647445
O13	O	0.216352	1.960383	0.147437
O14	O	0.716352	2.460383	0.647437
Cu15	Cu	0.225225	1.745739	0.174373
Cu16	Cu	0.725225	2.245739	0.674373
Cu17	Cu	0.225228	1.745755	-0.174457
Cu18	Cu	0.725228	2.245755	0.325543
O19	O	0.439868	1.736865	0.147433
O20	O	0.939868	2.236865	0.647433
C21	C	-0.044403	1.752917	-0.000036
C22	C	0.455597	2.252917	0.499964
C23	C	-0.208246	1.747819	-0.000042
C24	C	0.291754	2.247819	0.499958
C25	C	0.232394	1.476118	-0.000037
C26	C	0.732394	1.976118	0.499963
C27	C	0.227295	1.312275	-0.000034
C28	C	0.727295	1.812275	0.499966
N29	N	0.225222	1.745739	0.419722
N30	N	0.725222	2.245739	0.919722
C31	C	0.494856	1.738576	-0.000051
C32	C	0.994856	2.238576	0.499949
C33	C	0.658699	1.743674	-0.000058
C34	C	1.158699	2.243674	0.499942
C35	C	0.218059	2.015376	-0.000051
C36	C	0.718059	2.515376	0.499949
C37	C	0.223159	2.179219	-0.000065
C38	C	0.723159	2.679219	0.499935
N39	N	0.225220	1.745767	-0.419805
N40	N	0.725220	2.245767	0.080195
