data_functionalizedCrystal
_audit_creation_method	'MofGen! by Chris Wilmer'
_symmetry_space_group_name_H-M	'P1'
_symmetry_Int_Tables_number	1
_symmetry_cell_setting	triclinic
loop_
_symmetry_equiv_pos_as_xyz
  x,y,z
_cell_length_a	12.759401
_cell_length_b	21.295417
_cell_length_c	12.759393
_cell_angle_alpha	90.039170
_cell_angle_beta	90.018496
_cell_angle_gamma	90.030668
loop_
_atom_site_label
_atom_site_type_symbol
_atom_site_fract_x
_atom_site_fract_y
_atom_site_fract_z
Zn1	Zn	1.606140	-0.250569	0.593926
Zn2	Zn	2.106140	0.249431	1.093926
Zn3	Zn	1.605986	-0.355853	0.418223
Zn4	Zn	2.105986	0.144147	0.918223
Zn5	Zn	1.430442	-0.250602	0.418265
Zn6	Zn	1.930442	0.249398	0.918265
Zn7	Zn	1.430382	-0.355805	0.593864
Zn8	Zn	1.930382	0.144195	1.093864
O9	O	1.518237	-0.303208	0.506069
O10	O	2.018237	0.196792	1.006069
O11	O	1.753141	-0.264542	0.570626
O12	O	2.253141	0.235458	1.070626
O13	O	1.582660	-0.341926	0.271207
O14	O	2.082660	0.158074	0.771207
O15	O	1.453838	-0.162509	0.441611
O16	O	1.953838	0.337491	0.941611
O17	O	1.753027	-0.341894	0.441538
O18	O	2.253027	0.158106	0.941538
O19	O	1.582923	-0.162484	0.570668
O20	O	2.082923	0.337516	1.070668
O21	O	1.453689	-0.264598	0.271238
O22	O	1.953689	0.235402	0.771238
O23	O	1.283413	-0.264551	0.441551
O24	O	1.783413	0.235449	0.941551
O25	O	1.453736	-0.341811	0.740893
O26	O	1.953736	0.158189	1.240893
O27	O	1.283369	-0.341843	0.570562
O28	O	1.783369	0.158157	1.070562
O29	O	1.582865	-0.264495	0.740939
O30	O	2.082865	0.235505	1.240939
O31	O	1.582602	-0.443936	0.441478
O32	O	2.082602	0.056064	0.941478
O33	O	1.453587	-0.443901	0.570521
O34	O	1.953587	0.056099	1.070521
C35	C	1.245270	-0.303196	0.506055
C36	C	1.745270	0.196804	1.006055
C37	C	1.128493	-0.303206	0.506074
C38	C	1.628493	0.196794	1.006074
C39	C	1.518100	-0.466759	0.506011
C40	C	2.018100	0.033241	1.006011
C41	C	1.518137	-0.536727	0.506021
C42	C	2.018137	-0.036727	1.006021
C43	C	1.073636	-0.343516	0.573139
C44	C	1.573636	0.156484	1.073139
C45	C	0.963912	-0.343524	0.573151
C46	C	1.463912	0.156476	1.073151
C47	C	0.963912	-0.262910	0.439022
C48	C	1.463912	0.237090	0.939022
C49	C	1.073635	-0.262899	0.439017
C50	C	1.573635	0.237101	0.939017
C51	C	1.073635	-0.390061	0.650574
C52	C	1.573635	0.109939	1.150574
C53	C	0.963911	-0.390069	0.650585
C54	C	1.463911	0.109931	1.150585
C55	C	1.585375	-0.569592	0.438898
C56	C	2.085375	-0.069592	0.938898
C57	C	1.585424	-0.635334	0.438921
C58	C	2.085424	-0.135334	0.938921
C59	C	1.518217	-0.668210	0.506058
C60	C	2.018217	-0.168210	1.006058
C61	C	1.450974	-0.635338	0.573195
C62	C	1.950974	-0.135338	1.073195
C63	C	1.450934	-0.569596	0.573177
C64	C	1.950934	-0.069596	1.073177
N65	N	1.426309	-0.771475	0.514062
N66	N	1.926309	-0.271475	1.014062
N67	N	1.426350	-0.833927	0.514073
N68	N	1.926350	-0.333927	1.014073
C69	C	1.518334	-0.866284	0.506118
C70	C	2.018334	-0.366284	1.006118
N71	N	1.610278	-0.833832	0.498130
N72	N	2.110278	-0.333832	0.998130
N73	N	1.610236	-0.771375	0.498114
N74	N	2.110236	-0.271375	0.998114
C75	C	1.518253	-0.739495	0.506085
C76	C	2.018253	-0.239495	1.006085
C77	C	1.585631	-0.970434	0.439016
C78	C	2.085631	-0.470434	0.939016
C79	C	1.585682	-1.036178	0.439047
C80	C	2.085682	-0.536178	0.939047
C81	C	1.451223	-1.036180	0.573315
C82	C	1.951223	-0.536180	1.073315
C83	C	1.451181	-0.970438	0.573289
C84	C	1.951181	-0.470438	1.073289
C85	C	1.518384	-0.937569	0.506134
C86	C	2.018384	-0.437569	1.006134
C87	C	1.792271	-0.303220	0.506084
C88	C	2.292271	0.196780	1.006084
C89	C	1.909047	-0.303225	0.506091
C90	C	2.409047	0.196775	1.006091
C91	C	1.518311	-0.303144	0.780103
C92	C	2.018311	0.196856	1.280103
C93	C	1.518342	-0.303117	0.896880
C94	C	2.018342	0.196883	1.396880
C95	C	1.518404	-0.139017	0.506151
C96	C	2.018404	0.360983	1.006151
C97	C	1.518475	-0.069049	0.506185
C98	C	2.018475	0.430951	1.006185
C99	C	1.518225	-0.303225	0.233102
C100	C	2.018225	0.196775	0.733102
C101	C	1.518397	-0.303075	0.116326
C102	C	2.018397	0.196925	0.616326
C103	C	1.585589	-0.262855	0.951767
C104	C	2.085589	0.237145	1.451767
C105	C	1.585614	-0.262832	1.061491
C106	C	2.085614	0.237168	1.561491
C107	C	1.451143	-0.343339	1.061431
C108	C	1.951143	0.156661	1.561431
C109	C	1.451113	-0.343358	0.951709
C110	C	1.951113	0.156642	1.451709
C111	C	1.663228	-0.216376	0.951803
C112	C	2.163228	0.283624	1.451803
C113	C	1.663253	-0.216353	1.061527
C114	C	2.163253	0.283647	1.561527
H115	H	1.118295	-0.230071	0.384413
H116	H	1.618295	0.269929	0.884413
Cl117	Cl	1.618187	-0.144875	1.114119
Cl118	Cl	2.118187	0.355125	1.614119
H119	H	1.396425	-0.943678	0.627944
H120	H	1.896425	-0.443678	1.127944
H121	H	1.396506	-1.062947	0.627983
H122	H	1.896506	-0.562947	1.127983
H123	H	0.934093	-0.438810	0.628642
H124	H	1.434093	0.061190	1.128642
Cl125	Cl	1.126126	-0.461544	0.605446
Cl126	Cl	1.626126	0.038456	1.105446
H127	H	0.919233	-0.230093	0.384428
H128	H	1.419233	0.269907	0.884428
Cl129	Cl	1.669874	-0.528274	0.354490
Cl130	Cl	2.169874	-0.028274	0.854490
Cl131	Cl	1.782516	-0.243355	0.899239
Cl132	Cl	2.282516	0.256645	1.399239
Cl133	Cl	1.119674	-0.369989	0.776260
Cl134	Cl	1.619674	0.130011	1.276260
H135	H	1.640181	-0.662097	0.384261
H136	H	2.140181	-0.162097	0.884261
H137	H	0.929921	-0.372666	0.727941
H138	H	1.429921	0.127334	1.227941
Cl139	Cl	1.788872	-0.236504	1.107506
Cl140	Cl	2.288872	0.263496	1.607506
Cl141	Cl	1.366489	-0.676666	0.657600
Cl142	Cl	1.866489	-0.176666	1.157600
H143	H	1.396180	-0.542838	0.627838
H144	H	1.896180	-0.042838	1.127838
H145	H	1.640355	-0.943671	0.384338
H146	H	2.140355	-0.443671	0.884338
H147	H	1.640442	-1.062935	0.384389
H148	H	2.140442	-0.562935	0.884389
H149	H	1.396351	-0.376142	0.907024
H150	H	1.896351	0.123858	1.407024
Cl151	Cl	1.366632	-0.393926	1.130366
Cl152	Cl	1.866632	0.106074	1.630366
H153	H	1.641482	-0.167626	0.922058
H154	H	2.141482	0.332374	1.422058
