data_functionalizedCrystal
_audit_creation_method	'MofGen! by Chris Wilmer'
_symmetry_space_group_name_H-M	'P1'
_symmetry_Int_Tables_number	1
_symmetry_cell_setting	triclinic
loop_
_symmetry_equiv_pos_as_xyz
  x,y,z
_cell_length_a	19.288864
_cell_length_b	19.288865
_cell_length_c	17.766277
_cell_angle_alpha	89.988397
_cell_angle_beta	89.976791
_cell_angle_gamma	83.136245
loop_
_atom_site_label
_atom_site_type_symbol
_atom_site_fract_x
_atom_site_fract_y
_atom_site_fract_z
O1	O	0.921353	0.086649	-0.062844
O2	O	1.254686	0.419982	0.270489
O3	O	1.588020	0.753315	0.603823
O4	O	0.719092	0.098337	-0.062794
O5	O	1.052426	0.431671	0.270539
O6	O	1.385759	0.765004	0.603873
O7	O	0.826067	-0.008637	-0.062806
O8	O	1.159400	0.324696	0.270528
O9	O	1.492734	0.658029	0.603861
O10	O	0.814378	0.193623	-0.062832
O11	O	1.147712	0.526957	0.270501
O12	O	1.481045	0.860290	0.603834
O13	O	0.826048	-0.008643	0.062383
O14	O	1.159382	0.324691	0.395716
O15	O	1.492715	0.658024	0.729050
O16	O	0.719074	0.098332	0.062395
O17	O	1.052407	0.431665	0.395728
O18	O	1.385740	0.764999	0.729061
O19	O	0.921334	0.086643	0.062344
O20	O	1.254668	0.419977	0.395678
O21	O	1.588001	0.753310	0.729011
Cu22	Cu	0.820202	0.092487	0.073800
Cu23	Cu	1.153536	0.425821	0.407134
Cu24	Cu	1.486869	0.759154	0.740467
Cu25	Cu	0.820224	0.092494	-0.074250
Cu26	Cu	1.153558	0.425827	0.259084
Cu27	Cu	1.486891	0.759160	0.592417
O28	O	0.814360	0.193618	0.062356
O29	O	1.147693	0.526951	0.395689
O30	O	1.481026	0.860285	0.729023
C31	C	0.693207	0.097959	-0.000193
C32	C	1.026540	0.431292	0.333140
C33	C	1.359873	0.764625	0.666474
C34	C	0.616103	0.096830	-0.000173
C35	C	0.949436	0.430163	0.333160
C36	C	1.282770	0.763496	0.666494
C37	C	0.571407	0.159598	-0.000193
C38	C	0.904740	0.492931	0.333140
C39	C	1.238073	0.826264	0.666473
C40	C	0.498960	0.158537	-0.000201
C41	C	0.832293	0.491870	0.333132
C42	C	1.165626	0.825204	0.666465
C43	C	0.471212	0.094705	-0.000205
C44	C	0.804545	0.428038	0.333129
C45	C	1.137879	0.761371	0.666462
C46	C	0.515918	0.031929	-0.000180
C47	C	0.849252	0.365262	0.333153
C48	C	1.182585	0.698595	0.666487
C49	C	0.588364	0.032991	-0.000164
C50	C	0.921697	0.366324	0.333169
C51	C	1.255030	0.699658	0.666502
C52	C	0.362957	0.044527	-0.044082
C53	C	0.696290	0.377861	0.289251
C54	C	1.029623	0.711194	0.622584
C55	C	0.290512	0.043468	-0.044103
C56	C	0.623846	0.376801	0.289231
C57	C	0.957179	0.710134	0.622564
C58	C	0.247767	0.091425	-0.000250
C59	C	0.581100	0.424758	0.333084
C60	C	0.914433	0.758092	0.666417
C61	C	0.277473	0.140454	0.043614
C62	C	0.610806	0.473788	0.376947
C63	C	0.944139	0.807121	0.710281
C64	C	0.349918	0.141517	0.043630
C65	C	0.683251	0.474850	0.376963
C66	C	1.016585	0.808183	0.710296
C67	C	0.392658	0.093546	-0.000221
C68	C	0.725991	0.426879	0.333112
C69	C	1.059325	0.760212	0.666446
C70	C	0.124514	0.153047	-0.000278
C71	C	0.457848	0.486381	0.333056
C72	C	0.791181	0.819714	0.666389
C73	C	0.052066	0.151984	-0.000281
C74	C	0.385400	0.485317	0.333052
C75	C	0.718733	0.818651	0.666386
C76	C	0.069026	0.025374	-0.000267
C77	C	0.402360	0.358707	0.333066
C78	C	0.735693	0.692040	0.666399
C79	C	0.141473	0.026439	-0.000256
C80	C	0.474806	0.359772	0.333077
C81	C	0.808140	0.693106	0.666410
C82	C	0.169212	0.090278	-0.000265
C83	C	0.502546	0.423611	0.333068
C84	C	0.835879	0.756944	0.666402
C85	C	0.825682	-0.034516	-0.000209
C86	C	1.159015	0.298817	0.333124
C87	C	1.492348	0.632150	0.666458
C88	C	0.824553	-0.111620	-0.000202
C89	C	1.157886	0.221713	0.333131
C90	C	1.491219	0.555047	0.666465
C91	C	0.887321	-0.156316	-0.000214
C92	C	1.220654	0.177017	0.333119
C93	C	1.553987	0.510350	0.666453
C94	C	0.886260	-0.228763	-0.000226
C95	C	1.219593	0.104570	0.333108
C96	C	1.552927	0.437903	0.666441
C97	C	0.822428	-0.256511	-0.000210
C98	C	1.155761	0.076822	0.333123
C99	C	1.489094	0.410156	0.666456
C100	C	0.759652	-0.211805	-0.000203
C101	C	1.092985	0.121529	0.333131
C102	C	1.426318	0.454862	0.666464
C103	C	0.760714	-0.139359	-0.000198
C104	C	1.094047	0.193974	0.333135
C105	C	1.427381	0.527307	0.666468
C106	C	0.772242	-0.364800	0.043653
C107	C	1.105575	-0.031467	0.376986
C108	C	1.438908	0.301867	0.710320
C109	C	0.771182	-0.437245	0.043654
C110	C	1.104515	-0.103911	0.376987
C111	C	1.437848	0.229422	0.710320
C112	C	0.819148	-0.479956	-0.000226
C113	C	1.152481	-0.146623	0.333107
C114	C	1.485815	0.186710	0.666440
C115	C	0.868186	-0.450216	-0.044097
C116	C	1.201519	-0.116883	0.289236
C117	C	1.534853	0.216450	0.622570
C118	C	0.869249	-0.377771	-0.044093
C119	C	1.202582	-0.044438	0.289240
C120	C	1.535915	0.288896	0.622574
C121	C	0.821269	-0.335065	-0.000215
C122	C	1.154602	-0.001732	0.333118
C123	C	1.487935	0.331602	0.666452
C124	C	0.880770	-0.603209	-0.000252
C125	C	1.214104	-0.269875	0.333081
C126	C	1.547437	0.063458	0.666415
C127	C	0.879707	-0.675657	-0.000268
C128	C	1.213040	-0.342323	0.333065
C129	C	1.546374	-0.008990	0.666398
C130	C	0.753097	-0.658697	-0.000238
C131	C	1.086430	-0.325363	0.333096
C132	C	1.419763	0.007970	0.666429
C133	C	0.754162	-0.586250	-0.000229
C134	C	1.087495	-0.252917	0.333105
C135	C	1.420829	0.080417	0.666438
C136	C	0.818001	-0.558511	-0.000232
C137	C	1.151334	-0.225177	0.333101
C138	C	1.484667	0.108156	0.666434
C139	C	0.947220	0.087022	-0.000258
C140	C	1.280554	0.420355	0.333075
C141	C	1.613887	0.753689	0.666408
C142	C	1.024324	0.088151	-0.000283
C143	C	1.357657	0.421484	0.333050
C144	C	1.690990	0.754818	0.666384
C145	C	0.814745	0.219497	-0.000242
C146	C	1.148078	0.552831	0.333091
C147	C	1.481412	0.886164	0.666424
C148	C	0.815874	0.296601	-0.000254
C149	C	1.149207	0.629934	0.333079
C150	C	1.482541	0.963267	0.666413
N151	N	0.820192	0.092482	0.177931
N152	N	1.153525	0.425816	0.511264
N153	N	1.486858	0.759149	0.844597
N154	N	0.820241	0.092493	-0.178380
N155	N	1.153574	0.425826	0.154953
N156	N	1.486907	0.759160	0.488287
C157	C	0.867575	0.045137	0.217312
C158	C	1.200909	0.378470	0.550646
C159	C	1.534242	0.711804	0.883979
C160	C	0.867579	0.045134	0.296114
C161	C	1.200913	0.378467	0.629447
C162	C	1.534246	0.711800	0.962781
C163	C	0.820206	0.092488	0.335531
C164	C	1.153540	0.425821	0.668864
C165	C	1.486873	0.759154	1.002198
C166	C	0.772814	0.139837	0.296140
C167	C	1.106147	0.473170	0.629473
C168	C	1.439481	0.806503	0.962807
C169	C	0.772807	0.139834	0.217340
C170	C	1.106140	0.473167	0.550673
C171	C	1.439473	0.806501	0.884006
C172	C	0.810908	0.155775	0.460362
C173	C	1.144241	0.489109	0.793695
C174	C	1.477574	0.822442	1.127029
C175	C	0.810920	0.155779	0.539161
C176	C	1.144253	0.489112	0.872494
C177	C	1.477586	0.822446	1.205828
C178	C	0.820225	0.092496	0.578577
C179	C	1.153558	0.425829	0.911911
C180	C	1.486892	0.759163	1.245244
C181	C	0.829533	0.029207	0.539185
C182	C	1.162866	0.362540	0.872519
C183	C	1.496199	0.695873	1.205852
C184	C	0.829525	0.029204	0.460385
C185	C	1.162859	0.362537	0.793718
C186	C	1.496192	0.695871	1.127052
C187	C	0.820209	0.092496	0.420977
C188	C	1.153542	0.425829	0.754310
C189	C	1.486875	0.759162	1.087643
C190	C	0.867616	0.045143	0.703405
C191	C	1.200949	0.378477	1.036738
C192	C	1.534282	0.711810	1.370072
C193	C	0.867615	0.045139	0.782208
C194	C	1.200948	0.378473	1.115542
C195	C	1.534281	0.711806	1.448875
C196	C	0.772853	0.139848	0.782233
C197	C	1.106186	0.473182	1.115566
C198	C	1.439519	0.806515	1.448899
C199	C	0.772850	0.139846	0.703431
C200	C	1.106183	0.473180	1.036764
C201	C	1.439517	0.806513	1.370098
C202	C	0.820235	0.092495	0.664022
C203	C	1.153569	0.425828	0.997355
C204	C	1.486902	0.759161	1.330689
H205	H	0.266331	0.003548	-0.079822
H206	H	0.599664	0.336881	0.253511
H207	H	0.932998	0.670215	0.586845
H208	H	0.734220	0.178389	0.185274
H209	H	1.067554	0.511722	0.518608
H210	H	1.400887	0.845055	0.851941
H211	H	0.709599	-0.102967	-0.000188
H212	H	1.042933	0.230367	0.333145
H213	H	1.376266	0.563700	0.666478
H214	H	0.734269	0.178402	0.671364
H215	H	1.067602	0.511735	1.004697
H216	H	1.400935	0.845069	1.338031
H217	H	0.397755	0.005473	-0.079797
H218	H	0.731089	0.338807	0.253536
H219	H	1.064422	0.672140	0.586870
H220	H	0.734278	0.178402	0.814325
H221	H	1.067611	0.511735	1.147659
H222	H	1.400945	0.845069	1.480992
H223	H	0.803318	0.207311	0.428276
H224	H	1.136651	0.540645	0.761609
H225	H	1.469985	0.873978	1.094942
F226	F	0.004496	0.218794	-0.000299
F227	F	0.337830	0.552127	0.333035
F228	F	0.671163	0.885461	0.666368
H229	H	0.837110	-0.022324	0.571277
H230	H	1.170443	0.311009	0.904610
H231	H	1.503776	0.644342	1.237943
H232	H	0.701123	-0.681288	-0.000229
H233	H	1.034457	-0.347954	0.333105
H234	H	1.367790	-0.014621	0.666438
F235	F	0.801018	0.223136	0.581078
F236	F	1.134352	0.556470	0.914411
F237	F	1.467685	0.889803	1.247744
H238	H	0.907245	-0.484991	-0.079829
H239	H	1.240578	-0.151658	0.253505
H240	H	1.573911	0.181675	0.586838
F241	F	0.918004	-0.005260	0.175372
F242	F	1.251337	0.328073	0.508705
F243	F	1.584670	0.661406	0.842039
H244	H	0.906198	0.006585	0.671317
H245	H	1.239531	0.339918	1.004650
H246	H	1.572864	0.673251	1.337984
H247	H	0.932751	-0.580622	-0.000258
H248	H	1.266085	-0.247289	0.333075
H249	H	1.599418	0.086044	0.666408
H250	H	0.703049	-0.549857	-0.000215
H251	H	1.036383	-0.216524	0.333119
H252	H	1.369716	0.116810	0.666452
F253	F	0.721187	-0.319349	0.090361
F254	F	1.054520	0.013984	0.423694
F255	F	1.387853	0.347317	0.757027
H256	H	0.906166	0.006578	0.328185
H257	H	1.239499	0.339911	0.661518
H258	H	1.572833	0.673245	0.994851
F259	F	0.039500	-0.042562	-0.000263
F260	F	0.372834	0.290772	0.333070
F261	F	0.706167	0.624105	0.666403
H262	H	0.837102	-0.022328	0.428315
H263	H	1.170436	0.311005	0.761649
H264	H	1.503769	0.644338	1.094982
H265	H	0.930822	-0.712049	-0.000282
H266	H	1.264156	-0.378715	0.333051
H267	H	1.597489	-0.045382	0.666385
F268	F	0.722394	0.190232	0.338091
F269	F	1.055727	0.523565	0.671424
F270	F	1.389060	0.856899	1.004757
H271	H	0.906198	0.006581	0.814274
H272	H	1.239531	0.339915	1.147607
H273	H	1.572865	0.673248	1.480940
F274	F	0.718994	-0.468890	0.090347
F275	F	1.052328	-0.135556	0.423680
F276	F	1.385661	0.197777	0.757014
H277	H	0.909176	-0.353560	-0.079815
H278	H	1.242509	-0.020226	0.253518
H279	H	1.575842	0.313107	0.586851
F280	F	0.486386	-0.036006	-0.000180
F281	F	0.819720	0.297327	0.333153
F282	F	1.153053	0.630661	0.666487
F283	F	0.955264	-0.126798	-0.000234
F284	F	1.288597	0.206535	0.333099
F285	F	1.621930	0.539868	0.666433
H286	H	0.707679	-0.234401	-0.000192
H287	H	1.041012	0.098932	0.333142
H288	H	1.374346	0.432265	0.666475
H289	H	0.462561	0.209652	-0.000216
H290	H	0.795894	0.542985	0.333118
H291	H	1.129228	0.876318	0.666451
F292	F	0.600925	0.227541	-0.000200
F293	F	0.934258	0.560874	0.333133
F294	F	1.267591	0.894207	0.666466
H295	H	0.374102	0.181436	0.079347
H296	H	0.707435	0.514769	0.412681
H297	H	1.040769	0.848102	0.746014
H298	H	0.242670	0.179505	0.079324
H299	H	0.576004	0.512839	0.412657
H300	H	0.909337	0.846172	0.745991
F301	F	0.154039	0.220989	-0.000281
F302	F	0.487372	0.554322	0.333052
F303	F	0.820706	0.887655	0.666385
F304	F	0.189044	-0.040368	-0.000239
F305	F	0.522377	0.292965	0.333095
F306	F	0.855711	0.626298	0.666428
H307	H	0.937375	-0.265162	-0.000238
H308	H	1.270708	0.068171	0.333095
H309	H	1.604041	0.401505	0.666428
F310	F	0.635935	-0.033818	-0.000143
F311	F	0.969268	0.299515	0.333191
F312	F	1.302602	0.632848	0.666524
