data_functionalizedCrystal
_audit_creation_method	'MofGen! by Chris Wilmer'
_symmetry_space_group_name_H-M	'P1'
_symmetry_Int_Tables_number	1
_symmetry_cell_setting	triclinic
loop_
_symmetry_equiv_pos_as_xyz
  x,y,z
_cell_length_a	11.026607
_cell_length_b	19.188930
_cell_length_c	9.482900
_cell_angle_alpha	99.297616
_cell_angle_beta	78.636152
_cell_angle_gamma	95.865399
loop_
_atom_site_label
_atom_site_type_symbol
_atom_site_fract_x
_atom_site_fract_y
_atom_site_fract_z
O1	O	1.627581	0.283622	-0.120957
O2	O	1.274451	0.250352	-0.120952
O3	O	1.461202	0.166632	-0.120926
O4	O	1.440830	0.367342	-0.120983
O5	O	1.423268	0.183725	0.120861
O6	O	1.236517	0.267445	0.120835
O7	O	1.589648	0.300715	0.120830
Cu8	Cu	1.409619	0.285641	0.142910
Cu9	Cu	1.454480	0.265426	-0.143032
O10	O	1.402896	0.384435	0.120804
C11	C	1.210306	0.252761	-0.000057
C12	C	1.075688	0.234464	-0.000054
C13	C	1.001617	0.284984	-0.000069
C14	C	0.862482	0.266075	-0.000066
C15	C	1.441575	0.149084	-0.000029
C16	C	1.439592	0.071328	-0.000016
C17	C	1.549173	0.040370	-0.000011
C18	C	1.547315	-0.032693	-0.000034
C19	C	1.435865	-0.074793	-0.000033
C20	C	1.326271	-0.043828	-0.000047
C21	C	1.328134	0.029233	-0.000038
N22	N	1.337766	-0.187838	0.082253
N23	N	1.336003	-0.257242	0.082248
C24	C	1.430246	-0.294921	-0.000063
N25	N	1.526334	-0.260572	-0.082349
N26	N	1.528099	-0.191161	-0.082338
C27	C	1.433833	-0.154016	-0.000044
C28	C	1.537820	-0.405101	-0.000085
C29	C	1.535959	-0.478166	-0.000117
C30	C	1.314910	-0.489299	-0.000115
C31	C	1.316776	-0.416236	-0.000098
C32	C	1.428234	-0.374141	-0.000075
C33	C	1.653793	0.298306	-0.000068
C34	C	1.788412	0.316602	-0.000081
C35	C	1.422524	0.401983	-0.000097
C36	C	1.424509	0.479738	-0.000119
N37	N	1.378075	0.299859	0.344025
N38	N	1.486034	0.251204	-0.344148
C39	C	1.445167	0.269615	0.416234
C40	C	1.418931	0.281452	0.583648
H41	H	1.639931	0.074639	0.000002
N42	N	1.317106	0.327357	0.665919
H43	H	1.335166	0.376772	0.639493
H44	H	1.235179	0.306692	0.639496
N45	N	1.546990	0.223707	0.333988
H46	H	1.528915	0.174296	0.360432
H47	H	1.551264	0.221808	0.226077
H48	H	0.827994	0.373857	-0.000087
N49	N	0.810061	0.190235	-0.000027
H50	H	0.718098	0.187477	-0.000024
H51	H	0.852629	0.159913	-0.089651
N52	N	1.054053	0.360819	-0.000095
H53	H	1.039696	0.378508	-0.089733
H54	H	1.011549	0.391130	0.089587
H55	H	1.636553	-0.057905	-0.000036
N56	N	1.023261	0.158629	-0.000015
H57	H	0.931298	0.155871	-0.000012
H58	H	1.065829	0.128306	-0.089639
N59	N	1.206064	-0.089231	-0.000054
H60	H	1.221510	-0.140213	-0.000054
H61	H	1.144062	-0.072562	0.089578
H62	H	1.301206	0.334511	0.406145
N63	N	1.587851	0.205290	0.573594
H64	H	1.592162	0.203340	0.465659
H65	H	1.669768	0.225922	0.600097
H66	H	1.238897	0.054438	-0.000042
H67	H	1.628576	-0.370826	-0.000073
N68	N	1.194699	-0.534697	-0.000091
H69	H	1.125558	-0.503994	-0.000082
H70	H	1.203165	-0.571583	-0.089725
N71	N	1.654157	-0.511561	-0.000117
H72	H	1.725041	-0.473805	-0.000097
H73	H	1.644125	-0.535306	0.089511
N74	N	1.198583	-0.382839	-0.000095
H75	H	1.127696	-0.420594	-0.000097
H76	H	1.180480	-0.346440	0.089543
