data_functionalizedCrystal
_audit_creation_method	'MofGen! by Chris Wilmer'
_symmetry_space_group_name_H-M	'P1'
_symmetry_Int_Tables_number	1
_symmetry_cell_setting	triclinic
loop_
_symmetry_equiv_pos_as_xyz
  x,y,z
_cell_length_a	15.995350
_cell_length_b	16.176319
_cell_length_c	17.699083
_cell_angle_alpha	89.992304
_cell_angle_beta	83.387695
_cell_angle_gamma	89.996232
loop_
_atom_site_label
_atom_site_type_symbol
_atom_site_fract_x
_atom_site_fract_y
_atom_site_fract_z
O1	O	1.110790	-0.068678	0.097560
O2	O	0.866991	-0.068695	0.109607
O3	O	0.995778	-0.068679	-0.006594
O4	O	0.982003	-0.068695	0.213761
O5	O	0.995761	0.068814	-0.006602
O6	O	0.866973	0.068798	0.109600
O7	O	1.110773	0.068815	0.097552
Cu8	Cu	0.988871	0.081361	0.103575
Cu9	Cu	0.988892	-0.081241	0.103584
O10	O	0.981985	0.068799	0.213754
C11	C	0.835788	0.000049	0.109105
C12	C	0.742841	0.000043	0.107612
N13	N	0.988863	0.195726	0.103569
N14	N	0.988907	-0.195606	0.103585
C15	C	0.405104	0.000060	0.102250
C16	C	0.452706	0.000373	0.019493
C17	C	0.549394	0.000057	0.020987
C18	C	0.572659	0.000052	0.104910
C19	C	0.531499	-0.078463	0.145732
C20	C	0.434868	-0.078523	0.143653
C21	C	0.434505	0.077833	0.145355
C22	C	0.531450	0.078865	0.145335
C23	C	0.667354	0.000045	0.106417
C24	C	0.310409	0.000062	0.100745
C25	C	1.141975	0.000069	0.098054
C26	C	1.234923	0.000070	0.099547
C27	C	0.995276	0.000068	-0.034796
C28	C	0.993795	0.000068	-0.118816
C29	C	1.045907	0.238997	0.052136
C30	C	1.045911	0.325544	0.052135
C31	C	0.988874	0.368818	0.103571
C32	C	0.931824	0.325541	0.155007
C33	C	0.931816	0.238995	0.155003
C34	C	0.931853	0.674569	0.155021
C35	C	0.931866	0.761121	0.155022
C36	C	1.045947	0.761118	0.052153
C37	C	1.045940	0.674573	0.052149
C38	C	0.988887	0.631303	0.103582
C39	C	0.988882	0.537459	0.103581
C40	C	0.988883	0.462661	0.103576
C41	C	1.069391	0.000074	-0.167312
C42	C	1.067994	0.000067	-0.246257
C43	C	0.991001	0.000059	-0.276706
C44	C	0.915400	0.000050	-0.228205
C45	C	0.916797	0.000051	-0.149261
C46	C	0.909763	0.000043	-0.546577
C47	C	0.908372	0.000044	-0.625527
C48	C	1.060960	0.000058	-0.643574
C49	C	1.062358	0.000060	-0.564630
C50	C	0.986757	0.000047	-0.516135
C51	C	0.988272	0.000053	-0.430533
C52	C	0.989485	0.000058	-0.362306
C53	C	0.982487	0.000050	0.241955
C54	C	0.983968	0.000044	0.325976
H55	H	0.577881	0.056340	-0.011102
C56	C	0.569903	-0.157404	0.107439
C57	C	0.513192	-0.219824	0.071838
C58	C	0.551592	-0.298765	0.033540
C59	C	0.646703	-0.315284	0.030843
C60	C	0.703420	-0.252862	0.066445
C61	C	0.665020	-0.173922	0.104743
H62	H	0.442779	-0.207597	0.073833
H63	H	0.509605	-0.344974	0.007185
H64	H	0.675129	-0.373720	0.002492
H65	H	0.773832	-0.265089	0.064450
H66	H	0.707006	-0.127713	0.131098
C67	C	1.108702	0.808716	-0.004432
C68	C	1.108715	0.903913	-0.004439
C69	C	1.171470	0.951508	-0.061020
C70	C	1.234212	0.903906	-0.117593
C71	C	1.234201	0.808704	-0.117589
C72	C	1.171446	0.761109	-0.061008
H73	H	1.062268	0.939155	0.037443
H74	H	1.171477	1.021983	-0.061023
H75	H	1.280666	0.939139	-0.159478
H76	H	1.280648	0.773462	-0.159470
H77	H	1.171439	0.690634	-0.061005
C78	C	1.151151	0.000084	-0.299602
C79	C	1.149622	0.000081	-0.386439
C80	C	1.232782	0.000100	-0.439784
C81	C	1.317473	0.000122	-0.406293
C82	C	1.319006	0.000125	-0.319452
C83	C	1.235845	0.000106	-0.266107
H84	H	1.086926	0.000065	-0.411235
H85	H	1.231647	0.000098	-0.504069
H86	H	1.379034	0.000136	-0.445782
H87	H	1.381702	0.000141	-0.294656
H88	H	1.236981	0.000108	-0.201821
C89	C	0.869104	0.626975	0.211599
C90	C	0.806391	0.674571	0.268203
C91	C	0.743642	0.626970	0.324784
C92	C	0.743606	0.531774	0.324762
C93	C	0.806322	0.484172	0.268156
C94	C	0.869071	0.531773	0.211574
H95	H	0.806415	0.745046	0.268221
H96	H	0.697215	0.662208	0.366688
H97	H	0.697155	0.496537	0.366647
H98	H	0.806298	0.413697	0.268137
H99	H	0.915498	0.496535	0.169671
H100	H	1.122518	0.000065	-0.683068
C101	C	1.108650	0.191400	-0.004446
C102	C	1.107424	0.203318	-0.090635
C103	C	1.170167	0.155724	-0.147221
C104	C	1.234135	0.096212	-0.117618
C105	C	1.235363	0.084292	-0.031425
C106	C	1.172620	0.131886	0.025161
H107	H	1.060069	0.247375	-0.112553
H108	H	1.169257	0.164549	-0.211027
H109	H	1.280581	0.060980	-0.159507
H110	H	1.282718	0.040235	-0.009508
H111	H	1.173530	0.123061	0.088967
H112	H	0.885417	0.796353	0.196909
C113	C	1.108662	0.373147	-0.004438
C114	C	1.171427	0.325555	-0.060999
C115	C	1.234180	0.373160	-0.117574
C116	C	1.234168	0.468356	-0.117588
C117	C	1.171401	0.515954	-0.061025
C118	C	1.108648	0.468349	-0.004450
H119	H	1.171438	0.255080	-0.060990
H120	H	1.280644	0.337924	-0.159445
H121	H	1.280621	0.503596	-0.159468
H122	H	1.171390	0.586429	-0.061034
H123	H	1.062184	0.503585	0.037422
C124	C	0.823674	0.000028	-0.659022
C125	C	0.760902	0.071411	-0.640730
C126	C	0.676210	0.071397	-0.674226
C127	C	0.654288	-0.000002	-0.726013
C128	C	0.717061	-0.071390	-0.744308
C129	C	0.801753	-0.071376	-0.710812
H130	H	0.777129	0.124270	-0.602391
H131	H	0.629742	0.124244	-0.660682
H132	H	0.591594	-0.000013	-0.750809
H133	H	0.700834	-0.124249	-0.782647
H134	H	0.848222	-0.124223	-0.724356
H135	H	1.125053	0.000070	-0.539843
C136	C	0.826601	0.000037	-0.493244
C137	C	0.806574	-0.071361	-0.436484
C138	C	0.723407	-0.071365	-0.383148
C139	C	0.660266	0.000030	-0.386572
C140	C	0.680292	0.071434	-0.443333
C141	C	0.763460	0.071437	-0.496669
H142	H	0.853315	-0.124217	-0.433948
H143	H	0.708583	-0.124223	-0.341129
H144	H	0.598701	0.000027	-0.347089
H145	H	0.633551	0.124289	-0.445869
H146	H	0.778283	0.124296	-0.538688
H147	H	1.092387	0.639342	0.010268
C148	C	0.391123	-0.083355	0.225728
C149	C	0.332394	-0.156381	0.250161
C150	C	0.288651	-0.161222	0.332233
C151	C	0.303637	-0.093036	0.389870
C152	C	0.362369	-0.020004	0.365438
C153	C	0.406112	-0.015164	0.283366
H154	H	0.321297	-0.206861	0.207494
H155	H	0.245174	-0.215285	0.350319
H156	H	0.271256	-0.096619	0.450624
H157	H	0.373466	0.030476	0.408106
H158	H	0.449589	0.038899	0.265280
C159	C	0.587135	-0.076104	-0.022643
C160	C	0.682726	-0.091543	-0.029969
C161	C	0.720467	-0.167709	-0.073601
C162	C	0.662617	-0.228435	-0.109909
C163	C	0.567019	-0.212997	-0.102584
C164	C	0.529278	-0.136832	-0.058952
H165	H	0.725556	-0.046589	-0.003091
H166	H	0.791235	-0.179136	-0.079023
H167	H	0.690555	-0.284817	-0.142208
H168	H	0.524190	-0.257952	-0.129462
H169	H	0.458511	-0.125405	-0.053530
H170	H	0.852711	0.000038	-0.253002
C171	C	0.406838	0.158233	0.108799
C172	C	0.357183	0.154292	0.039335
C173	C	0.329516	0.234687	0.002770
C174	C	0.351504	0.319023	0.035670
C175	C	0.401161	0.322968	0.105139
C176	C	0.428828	0.242573	0.141704
H177	H	0.340904	0.091859	0.014976
H178	H	0.292756	0.231767	-0.048655
H179	H	0.331023	0.378537	0.008603
H180	H	0.417441	0.385401	0.129497
H181	H	0.465588	0.245493	0.193129
H182	H	0.855239	0.000046	-0.109776
H183	H	0.434244	0.056679	-0.013590
H184	H	0.885379	0.360780	0.196885
H185	H	0.416627	-0.137211	0.113890
C186	C	0.426339	-0.075263	-0.024993
C187	C	0.361828	-0.137222	0.013494
C188	C	0.335460	-0.212859	-0.030990
C189	C	0.373601	-0.226537	-0.113960
C190	C	0.438115	-0.164575	-0.152452
C191	C	0.464484	-0.088938	-0.107968
H192	H	0.333590	-0.127099	0.074917
H193	H	0.287702	-0.258727	-0.002496
H194	H	0.354081	-0.282528	-0.146890
H195	H	0.466353	-0.174699	-0.213875
H196	H	0.512242	-0.043070	-0.136462
H197	H	1.132087	0.000086	-0.142527
H198	H	0.546690	0.083603	0.206534
C199	C	0.568623	0.157223	0.105018
C200	C	0.663797	0.174273	0.100314
C201	C	0.701077	0.252574	0.059969
C202	C	0.643184	0.313824	0.024328
C203	C	0.548004	0.296776	0.029031
C204	C	0.510723	0.218475	0.069376
H205	H	0.706658	0.128931	0.126699
H206	H	0.771536	0.265195	0.056488
H207	H	0.670781	0.371787	-0.005537
H208	H	0.505142	0.342118	0.002646
H209	H	0.440265	0.205854	0.072857
H210	H	0.402619	0.078360	0.206370
H211	H	0.545499	-0.081386	0.207388
H212	H	0.885364	0.203765	0.196884
