data_functionalizedCrystal
_audit_creation_method	'MofGen! by Chris Wilmer'
_symmetry_space_group_name_H-M	'P1'
_symmetry_Int_Tables_number	1
_symmetry_cell_setting	triclinic
loop_
_symmetry_equiv_pos_as_xyz
  x,y,z
_cell_length_a	16.109301
_cell_length_b	14.853567
_cell_length_c	14.586319
_cell_angle_alpha	90.000002
_cell_angle_beta	89.999213
_cell_angle_gamma	83.548205
loop_
_atom_site_label
_atom_site_type_symbol
_atom_site_fract_x
_atom_site_fract_y
_atom_site_fract_z
O1	O	1.103294	0.115881	-0.076175
O2	O	0.861252	0.130302	-0.076188
O3	O	0.988738	-0.008149	-0.076184
O4	O	0.975807	0.254332	-0.076179
O5	O	0.988729	-0.008151	0.076297
O6	O	0.861243	0.130300	0.076293
O7	O	1.103285	0.115879	0.076306
Cu8	Cu	0.982263	0.123089	0.090222
Cu9	Cu	0.982274	0.123091	-0.090104
O10	O	0.975799	0.254330	0.076302
C11	C	0.830272	0.129717	0.000050
C12	C	0.737974	0.127965	0.000045
C13	C	0.515811	0.206047	0.000057
C14	C	0.429089	0.204395	0.000063
C15	C	0.448732	0.040127	0.000056
C16	C	0.535453	0.041781	0.000057
C17	C	0.568990	0.124743	0.000052
C18	C	0.395546	0.121437	0.000058
C19	C	0.301518	0.119645	0.000064
C20	C	0.663025	0.126536	0.000048
C21	C	0.988148	-0.041738	0.000054
C22	C	0.986392	-0.141819	0.000046
C23	C	0.903241	-0.554215	0.000059
C24	C	1.054697	-0.575746	0.000067
C25	C	1.056348	-0.481715	0.000062
C26	C	0.981444	-0.423930	0.000056
C27	C	0.904889	-0.460175	0.000056
C28	C	1.132901	-0.445463	0.000071
C29	C	1.134555	-0.351426	0.000067
C30	C	1.059650	-0.293639	0.000055
C31	C	0.983093	-0.329890	0.000054
C32	C	0.908189	-0.272104	0.000048
C33	C	0.831630	-0.308353	0.000040
C34	C	0.829984	-0.402388	0.000044
C35	C	1.061296	-0.199604	0.000051
C36	C	0.909837	-0.178064	0.000046
C37	C	1.134265	0.116464	0.000066
C38	C	1.226563	0.118215	0.000065
C39	C	0.976389	0.287918	0.000062
C40	C	0.978145	0.387999	0.000064
N41	N	0.982262	0.123087	0.217054
N42	N	0.982281	0.123087	-0.216936
C43	C	1.038731	0.061801	0.452062
C44	C	1.038734	0.061799	0.548044
C45	C	0.925806	0.184375	0.548049
C46	C	0.925800	0.184372	0.452070
C47	C	0.982268	0.123086	0.404079
C48	C	0.982276	0.123087	0.596039
C49	C	0.982278	0.123085	0.700107
C50	C	0.982265	0.123087	0.300005
H51	H	0.385793	0.270600	0.000068
H52	H	1.084711	0.011894	0.587109
H53	H	0.879832	0.234274	0.587133
H54	H	1.115680	-0.622800	0.000079
C55	C	1.151016	-0.106346	-0.078326
C56	C	1.145438	-0.159753	0.000060
H57	H	1.202963	-0.081741	-0.078316
H58	H	1.147237	-0.142589	-0.131487
H59	H	1.106637	-0.058479	-0.078325
H60	H	1.189814	-0.207624	0.000056
H61	H	1.149225	-0.123508	0.053235
C62	C	0.814177	0.305546	0.461708
C63	C	0.863732	0.251745	0.399319
H64	H	0.775864	0.347138	0.429140
H65	H	0.784232	0.268012	0.499146
H66	H	0.848831	0.337986	0.499141
H67	H	0.829080	0.219299	0.361890
H68	H	0.893680	0.289283	0.361865
H69	H	0.848840	-0.131020	0.000037
H70	H	0.578754	-0.024431	0.000056
C71	C	0.766919	-0.154639	0.000036
C72	C	0.749297	-0.244829	0.000033
H73	H	0.716090	-0.115422	0.000026
H74	H	0.798294	-0.143664	0.053210
H75	H	0.798312	-0.143665	-0.053137
H76	H	0.717908	-0.255804	0.053210
H77	H	0.717908	-0.255809	-0.053147
C78	C	0.640026	0.281524	0.000049
C79	C	0.552677	0.297237	0.000056
H80	H	0.662782	0.337824	0.000043
H81	H	0.658270	0.248054	0.053218
H82	H	0.658264	0.248049	-0.053130
H83	H	0.534438	0.330707	0.053238
H84	H	0.534426	0.330722	-0.053118
C85	C	0.813524	-0.647469	-0.078333
C86	C	0.819091	-0.594058	0.000052
H87	H	0.761575	-0.672071	-0.078332
H88	H	0.817315	-0.611231	-0.131495
H89	H	0.857901	-0.695340	-0.078321
H90	H	0.774718	-0.546184	0.000037
H91	H	0.815292	-0.630299	0.053228
H92	H	1.084709	0.011897	0.412990
H93	H	0.767654	-0.431911	0.000039
C94	C	0.324516	-0.035347	0.000042
C95	C	0.411865	-0.051062	0.000048
H96	H	0.301760	-0.091646	0.000030
H97	H	0.306272	-0.001882	0.053215
H98	H	0.306280	-0.001866	-0.053133
H99	H	0.430102	-0.084538	0.053227
H100	H	0.430117	-0.084541	-0.053129
H101	H	1.193884	-0.492518	0.000084
H102	H	1.196894	-0.321921	0.000072
