data_functionalizedCrystal
_audit_creation_method	'MofGen! by Chris Wilmer'
_symmetry_space_group_name_H-M	'P1'
_symmetry_Int_Tables_number	1
_symmetry_cell_setting	triclinic
loop_
_symmetry_equiv_pos_as_xyz
  x,y,z
_cell_length_a	14.971506
_cell_length_b	17.699083
_cell_length_c	14.048226
_cell_angle_alpha	89.992674
_cell_angle_beta	89.993237
_cell_angle_gamma	83.452701
loop_
_atom_site_label
_atom_site_type_symbol
_atom_site_fract_x
_atom_site_fract_y
_atom_site_fract_z
O1	O	1.186597	0.098706	-0.079169
O2	O	1.519930	0.432039	0.254164
O3	O	1.853263	0.765373	0.587497
O4	O	0.926158	0.110502	-0.079170
O5	O	1.259492	0.443835	0.254163
O6	O	1.592825	0.777168	0.587497
O7	O	1.063735	-0.005567	-0.079161
O8	O	1.397069	0.327766	0.254172
O9	O	1.730402	0.661100	0.587506
O10	O	1.049019	0.214774	-0.079178
O11	O	1.382353	0.548108	0.254155
O12	O	1.715686	0.881441	0.587489
O13	O	1.063719	-0.005574	0.079160
O14	O	1.397052	0.327760	0.412494
O15	O	1.730386	0.661093	0.745827
O16	O	0.926142	0.110495	0.079151
O17	O	1.259475	0.443828	0.412485
O18	O	1.592808	0.777161	0.745818
O19	O	1.186580	0.098699	0.079152
O20	O	1.519913	0.432032	0.412485
O21	O	1.853247	0.765366	0.745819
Zn22	Zn	1.056358	0.104596	0.104289
Zn23	Zn	1.389692	0.437929	0.437622
Zn24	Zn	1.723025	0.771262	0.770955
Zn25	Zn	1.056380	0.104605	-0.104306
Zn26	Zn	1.389713	0.437938	0.229027
Zn27	Zn	1.723047	0.771272	0.562360
O28	O	1.049003	0.214768	0.079143
O29	O	1.382336	0.548101	0.412477
O30	O	1.715670	0.881434	0.745810
C31	C	0.892828	0.109968	-0.000009
C32	C	1.226161	0.443301	0.333324
C33	C	1.559494	0.776635	0.666657
C34	C	0.793537	0.108379	-0.000009
C35	C	1.126870	0.441712	0.333324
C36	C	1.460203	0.775045	0.666657
C37	C	0.355041	0.170503	-0.000024
C38	C	0.688374	0.503836	0.333310
C39	C	1.021707	0.837169	0.666643
C40	C	0.448336	0.171990	-0.000028
C41	C	0.781669	0.505323	0.333305
C42	C	1.115003	0.838657	0.666639
C43	C	0.505790	0.103795	-0.000019
C44	C	0.839123	0.437129	0.333315
C45	C	1.172457	0.770462	0.666648
C46	C	0.469945	0.034109	-0.000015
C47	C	0.803279	0.367442	0.333319
C48	C	1.136612	0.700776	0.666652
C49	C	0.376652	0.032623	-0.000017
C50	C	0.709985	0.365956	0.333316
C51	C	1.043318	0.699289	0.666650
C52	C	0.664398	0.037212	-0.000007
C53	C	0.997731	0.370545	0.333327
C54	C	1.331064	0.703878	0.666660
C55	C	0.757698	0.038698	-0.000002
C56	C	1.091031	0.372031	0.333331
C57	C	1.424364	0.705365	0.666664
C58	C	0.736082	0.176579	-0.000018
C59	C	1.069415	0.509912	0.333316
C60	C	1.402748	0.843246	0.666649
C61	C	0.642788	0.175093	-0.000020
C62	C	0.976122	0.508426	0.333313
C63	C	1.309455	0.841759	0.666646
C64	C	0.606950	0.105406	-0.000014
C65	C	0.940283	0.438740	0.333319
C66	C	1.273616	0.772073	0.666652
C67	C	1.063200	-0.033769	-0.000000
C68	C	1.396533	0.299565	0.333333
C69	C	1.729867	0.632898	0.666666
C70	C	1.061618	-0.117791	0.000000
C71	C	1.394951	0.215543	0.333333
C72	C	1.728285	0.548876	0.666667
C73	C	1.142373	-0.166208	0.000002
C74	C	1.475706	0.167125	0.333335
C75	C	1.809040	0.500459	0.666668
C76	C	1.140881	-0.245155	-0.000007
C77	C	1.474214	0.088178	0.333326
C78	C	1.807548	0.421512	0.666660
C79	C	1.058634	-0.275683	-0.000010
C80	C	1.391967	0.057650	0.333323
C81	C	1.725300	0.390983	0.666657
C82	C	0.977873	-0.227260	-0.000014
C83	C	1.311206	0.106073	0.333319
C84	C	1.644539	0.439407	0.666652
C85	C	0.979365	-0.148314	-0.000013
C86	C	1.312699	0.185019	0.333321
C87	C	1.646032	0.518352	0.666654
C88	C	0.971851	-0.545638	-0.000022
C89	C	1.305184	-0.212305	0.333311
C90	C	1.638518	0.121029	0.666645
C91	C	0.970365	-0.624590	-0.000021
C92	C	1.303698	-0.291256	0.333312
C93	C	1.637031	0.042077	0.666646
C94	C	1.133367	-0.642479	-0.000016
C95	C	1.466700	-0.309145	0.333317
C96	C	1.800034	0.024188	0.666650
C97	C	1.134860	-0.563533	-0.000015
C98	C	1.468193	-0.230200	0.333319
C99	C	1.801526	0.103133	0.666652
C100	C	1.054099	-0.515117	-0.000024
C101	C	1.387432	-0.181783	0.333309
C102	C	1.720766	0.151550	0.666643
C103	C	1.055718	-0.429513	-0.000017
C104	C	1.389051	-0.096180	0.333317
C105	C	1.722384	0.237153	0.666650
C106	C	1.057014	-0.361285	-0.000011
C107	C	1.390348	-0.027952	0.333323
C108	C	1.723681	0.305382	0.666656
C109	C	1.219911	0.099233	-0.000011
C110	C	1.553244	0.432566	0.333323
C111	C	1.886578	0.765900	0.666656
C112	C	1.319202	0.100822	-0.000017
C113	C	1.652535	0.434155	0.333316
C114	C	1.985868	0.767489	0.666650
C115	C	1.049538	0.242969	-0.000020
C116	C	1.382872	0.576303	0.333314
C117	C	1.716205	0.909636	0.666647
C118	C	1.051120	0.326991	-0.000026
C119	C	1.384454	0.660325	0.333307
C120	C	1.717787	0.993658	0.666640
N121	N	1.056350	0.104589	0.246649
N122	N	1.389683	0.437923	0.579983
N123	N	1.723017	0.771256	0.913316
N124	N	1.056395	0.104605	-0.246667
N125	N	1.389729	0.437939	0.086666
N126	N	1.723062	0.771272	0.420000
C127	C	1.117288	0.053215	0.296471
C128	C	1.450622	0.386549	0.629805
C129	C	1.783955	0.719882	0.963138
C130	C	1.117294	0.053215	0.396129
C131	C	1.450628	0.386548	0.729462
C132	C	1.783961	0.719882	1.062796
C133	C	1.056366	0.104593	0.445963
C134	C	1.389699	0.437926	0.779296
C135	C	1.723032	0.771259	1.112630
C136	C	0.995421	0.155969	0.396134
C137	C	1.328754	0.489302	0.729467
C138	C	1.662088	0.822636	1.062801
C139	C	0.995411	0.155965	0.296478
C140	C	1.328745	0.489298	0.629811
C141	C	1.662078	0.822632	0.963145
C142	C	0.995447	0.155974	0.603848
C143	C	1.328780	0.489308	0.937182
C144	C	1.662113	0.822641	1.270515
C145	C	0.995457	0.155979	0.703511
C146	C	1.328791	0.489313	1.036844
C147	C	1.662124	0.822646	1.370178
C148	C	1.117330	0.053224	0.703499
C149	C	1.450663	0.386558	1.036832
C150	C	1.783996	0.719891	1.370166
C151	C	1.117320	0.053220	0.603843
C152	C	1.450653	0.386554	0.937177
C153	C	1.783987	0.719887	1.270510
C154	C	1.056376	0.104598	0.554021
C155	C	1.389710	0.437931	0.887355
C156	C	1.723043	0.771265	1.220688
H157	H	0.516732	-0.021416	-0.000012
H158	H	0.850065	0.311917	0.333321
H159	H	1.183399	0.645251	0.666654
F160	F	0.338510	-0.041541	-0.000010
F161	F	0.671843	0.291792	0.333323
F162	F	1.005177	0.625125	0.666657
H163	H	1.209348	-0.141359	0.000010
H164	H	1.542682	0.191975	0.333343
H165	H	1.876015	0.525308	0.666677
F166	F	0.930580	0.210655	0.550828
F167	F	1.263913	0.543988	0.884161
F168	F	1.597246	0.877321	1.217495
F169	F	0.930607	0.210662	0.756541
F170	F	1.263940	0.543995	1.089874
F171	F	1.597274	0.877328	1.423208
H172	H	0.945807	0.197799	0.436714
H173	H	1.279141	0.531132	0.770048
H174	H	1.612474	0.864466	1.103381
H175	H	0.906091	-0.506226	-0.000030
H176	H	1.239424	-0.172893	0.333304
H177	H	1.572757	0.160440	0.666637
H178	H	0.910905	-0.252122	-0.000023
H179	H	1.244238	0.081211	0.333310
H180	H	1.577572	0.414545	0.666644
F181	F	1.226832	-0.296681	-0.000003
F182	F	1.560165	0.036652	0.333330
F183	F	1.893498	0.369985	0.666663
F184	F	1.222398	-0.531048	-0.000012
F185	F	1.555732	-0.197714	0.333321
F186	F	1.889065	0.135619	0.666654
H187	H	1.166937	0.011389	0.563269
H188	H	1.500270	0.344722	0.896602
H189	H	1.833603	0.678055	1.229935
H190	H	1.199126	-0.681909	-0.000013
H191	H	1.532459	-0.348576	0.333320
H192	H	1.865793	-0.015243	0.666653
F193	F	0.293901	0.243086	-0.000026
F194	F	0.627234	0.576420	0.333307
F195	F	0.960568	0.909753	0.666640
F196	F	0.882821	-0.657078	-0.000026
F197	F	1.216154	-0.323744	0.333308
F198	F	1.549488	0.009589	0.666641
F199	F	0.893415	-0.096785	-0.000017
F200	F	1.226748	0.236548	0.333316
F201	F	1.560081	0.569882	0.666649
H202	H	1.166914	0.011382	0.436694
H203	H	1.500247	0.344715	0.770027
H204	H	1.833581	0.678049	1.103360
H205	H	1.166907	0.011381	0.255903
H206	H	1.500240	0.344714	0.589236
H207	H	1.833574	0.678048	0.922570
F208	F	1.182191	-0.001454	0.756527
F209	F	1.515524	0.331879	1.089860
F210	F	1.848857	0.665213	1.423194
H211	H	0.477511	0.228731	-0.000042
H212	H	0.810844	0.562064	0.333291
H213	H	1.144178	0.895398	0.666624
F214	F	0.581643	0.247673	-0.000025
F215	F	0.914976	0.581006	0.333308
F216	F	1.248309	0.914340	0.666642
F217	F	0.818843	-0.033882	0.000002
F218	F	1.152177	0.299451	0.333335
F219	F	1.485510	0.632784	0.666669
F220	F	0.930550	0.210642	0.243455
F221	F	1.263883	0.543976	0.576789
F222	F	1.597216	0.877309	0.910122
H223	H	0.635222	-0.019534	-0.000007
H224	H	0.968555	0.313799	0.333327
H225	H	1.301889	0.647132	0.666660
F226	F	0.774224	0.250745	-0.000016
F227	F	1.107558	0.584078	0.333318
F228	F	1.440891	0.917412	0.666651
