data_functionalizedCrystal
_audit_creation_method	'MofGen! by Chris Wilmer'
_symmetry_space_group_name_H-M	'P1'
_symmetry_Int_Tables_number	1
_symmetry_cell_setting	triclinic
loop_
_symmetry_equiv_pos_as_xyz
  x,y,z
_cell_length_a	17.077404
_cell_length_b	12.645330
_cell_length_c	17.077396
_cell_angle_alpha	90.026204
_cell_angle_beta	90.018362
_cell_angle_gamma	90.010616
loop_
_atom_site_label
_atom_site_type_symbol
_atom_site_fract_x
_atom_site_fract_y
_atom_site_fract_z
Zn1	Zn	1.200110	-0.422097	0.443831
Zn2	Zn	1.533444	-0.088763	0.777165
Zn3	Zn	1.866777	0.244570	1.110498
Zn4	Zn	1.200041	-0.599382	0.312570
Zn5	Zn	1.533374	-0.266049	0.645904
Zn6	Zn	1.866708	0.067284	0.979237
Zn7	Zn	1.068842	-0.422127	0.312582
Zn8	Zn	1.402176	-0.088794	0.645915
Zn9	Zn	1.735509	0.244540	0.979248
Zn10	Zn	1.068834	-0.599312	0.443797
Zn11	Zn	1.402167	-0.265979	0.777130
Zn12	Zn	1.735500	0.067354	1.110463
O13	O	1.134457	-0.510730	0.378195
O14	O	1.467790	-0.177396	0.711528
O15	O	1.801124	0.155937	1.044862
O16	O	1.309948	-0.445631	0.426429
O17	O	1.643281	-0.112297	0.759762
O18	O	1.976615	0.221036	1.093096
O19	O	1.182612	-0.575911	0.202725
O20	O	1.515945	-0.242578	0.536058
O21	O	1.849278	0.090756	0.869392
O22	O	1.086288	-0.273776	0.330012
O23	O	1.419621	0.059558	0.663345
O24	O	1.752955	0.392891	0.996678
O25	O	1.309897	-0.575882	0.329992
O26	O	1.643230	-0.242548	0.663326
O27	O	1.976564	0.090785	0.996659
O28	O	1.182730	-0.273754	0.426440
O29	O	1.516063	0.059580	0.759773
O30	O	1.849397	0.392913	1.093107
O31	O	1.086221	-0.445682	0.202733
O32	O	1.419554	-0.112349	0.536067
O33	O	1.752887	0.220984	0.869400
O34	O	0.958994	-0.445614	0.329978
O35	O	1.292328	-0.112281	0.663311
O36	O	1.625661	0.221052	0.996645
O37	O	1.086273	-0.575762	0.553648
O38	O	1.419607	-0.242429	0.886982
O39	O	1.752940	0.090904	1.220315
O40	O	0.958988	-0.575792	0.426381
O41	O	1.292321	-0.242458	0.759714
O42	O	1.625655	0.090875	1.093048
O43	O	1.182722	-0.445563	0.553674
O44	O	1.516055	-0.112230	0.887007
O45	O	1.849388	0.221104	1.220340
O46	O	1.182603	-0.747720	0.329959
O47	O	1.515937	-0.414387	0.663292
O48	O	1.849270	-0.081054	0.996625
O49	O	1.086206	-0.747669	0.426370
O50	O	1.419539	-0.414336	0.759703
O51	O	1.752873	-0.081002	1.093037
C52	C	0.930509	-0.510700	0.378177
C53	C	1.263842	-0.177366	0.711511
C54	C	1.597176	0.155967	1.044844
C55	C	0.843259	-0.510712	0.378189
C56	C	1.176593	-0.177379	0.711522
C57	C	1.509926	0.155954	1.044855
C58	C	1.134418	-0.786159	0.378177
C59	C	1.467751	-0.452826	0.711510
C60	C	1.801084	-0.119493	1.044843
C61	C	1.134473	-0.903989	0.378195
C62	C	1.467806	-0.570656	0.711528
C63	C	1.801139	-0.237323	1.044861
C64	C	0.802296	-0.443011	0.428480
C65	C	1.135630	-0.109678	0.761813
C66	C	1.468963	0.223656	1.095146
C67	C	0.720316	-0.443018	0.428483
C68	C	1.053649	-0.109685	0.761817
C69	C	1.386983	0.223649	1.095150
C70	C	0.679300	-0.510732	0.378199
C71	C	1.012633	-0.177399	0.711533
C72	C	1.345966	0.155935	1.044866
C73	C	0.720268	-0.578436	0.327902
C74	C	1.053602	-0.245103	0.661236
C75	C	1.386935	0.088231	0.994569
C76	C	0.802247	-0.578423	0.327895
C77	C	1.135581	-0.245090	0.661229
C78	C	1.468914	0.088244	0.994562
C79	C	0.549398	-0.578460	0.327922
C80	C	0.882732	-0.245127	0.661255
C81	C	1.216065	0.088207	0.994589
C82	C	0.467414	-0.578475	0.327930
C83	C	0.800747	-0.245141	0.661263
C84	C	1.134080	0.088192	0.994596
C85	C	0.467467	-0.443055	0.428510
C86	C	0.800800	-0.109722	0.761843
C87	C	1.134134	0.223612	1.095177
C88	C	0.549446	-0.443042	0.428503
C89	C	0.882779	-0.109709	0.761836
C90	C	1.216113	0.223625	1.095170
C91	C	0.590409	-0.510748	0.378207
C92	C	0.923742	-0.177414	0.711540
C93	C	1.257075	0.155919	1.044874
C94	C	1.195019	-1.071541	0.317419
C95	C	1.528352	-0.738208	0.650753
C96	C	1.861685	-0.404875	0.984086
C97	C	1.195216	-0.948981	0.317568
C98	C	1.528549	-0.615648	0.650901
C99	C	1.861883	-0.282314	0.984235
C100	C	1.156905	-0.948374	0.460938
C101	C	1.490238	-0.615041	0.794272
C102	C	1.823571	-0.281707	1.127605
C103	C	1.157385	-1.070972	0.460616
C104	C	1.490718	-0.737639	0.793949
C105	C	1.824052	-0.404306	1.127282
C106	C	1.051470	-1.071312	0.357042
C107	C	1.384804	-0.737979	0.690376
C108	C	1.718137	-0.404646	1.023709
C109	C	1.051868	-0.948708	0.355187
C110	C	1.385201	-0.615375	0.688520
C111	C	1.718535	-0.282041	1.021853
C112	C	1.339201	-0.510761	0.378213
C113	C	1.672534	-0.177427	0.711547
C114	C	2.005868	0.155906	1.044880
C115	C	1.426451	-0.510774	0.378221
C116	C	1.759784	-0.177440	0.711554
C117	C	2.093118	0.155893	1.044888
C118	C	1.134504	-0.510651	0.582939
C119	C	1.467838	-0.177318	0.916273
C120	C	1.801171	0.156015	1.249606
C121	C	1.134525	-0.510618	0.670189
C122	C	1.467858	-0.177285	1.003523
C123	C	1.801191	0.156048	1.336856
C124	C	1.134518	-0.234224	0.378231
C125	C	1.467851	0.099109	0.711564
C126	C	1.801184	0.432442	1.044898
C127	C	1.134544	-0.116394	0.378246
C128	C	1.467877	0.216939	0.711579
C129	C	1.801210	0.550272	1.044913
C130	C	1.134455	-0.510731	0.174247
C131	C	1.467788	-0.177398	0.507581
C132	C	1.801121	0.155936	0.840914
C133	C	1.134587	-0.510466	0.086998
C134	C	1.467920	-0.177132	0.420331
C135	C	1.801253	0.156201	0.753665
C136	C	1.184747	-0.442818	0.711194
C137	C	1.518080	-0.109484	1.044527
C138	C	1.851414	0.223849	1.377861
C139	C	1.184757	-0.442782	0.793174
C140	C	1.518090	-0.109449	1.126508
C141	C	1.851423	0.223884	1.459841
C142	C	1.134547	-0.510554	0.834149
C143	C	1.467880	-0.177220	1.167482
C144	C	1.801214	0.156113	1.500815
C145	C	1.084319	-0.578357	0.793138
C146	C	1.417652	-0.245024	1.126472
C147	C	1.750985	0.088309	1.459805
C148	C	1.084306	-0.578386	0.711159
C149	C	1.417639	-0.245053	1.044493
C150	C	1.750973	0.088280	1.377826
C151	C	1.084350	-0.578294	0.964009
C152	C	1.417684	-0.244960	1.297342
C153	C	1.751017	0.088373	1.630675
C154	C	1.084364	-0.578266	1.045993
C155	C	1.417697	-0.244933	1.379327
C156	C	1.751031	0.088401	1.712660
C157	C	1.184801	-0.442689	1.046024
C158	C	1.518134	-0.109356	1.379357
C159	C	1.851468	0.223977	1.712690
C160	C	1.184788	-0.442719	0.964045
C161	C	1.518122	-0.109385	1.297378
C162	C	1.851455	0.223948	1.630711
C163	C	1.134561	-0.510524	0.923040
C164	C	1.467894	-0.177191	1.256373
C165	C	1.801228	0.156143	1.589707
H166	H	0.835686	-0.387873	0.469429
H167	H	1.169019	-0.054540	0.802763
H168	H	1.502353	0.278793	1.136096
H169	H	1.031071	-1.102319	0.297757
H170	H	1.364404	-0.768986	0.631090
H171	H	1.697737	-0.435653	0.964424
Cl172	Cl	0.600893	-0.663585	0.264697
Cl173	Cl	0.934227	-0.330251	0.598030
Cl174	Cl	1.267560	0.003082	0.931364
H175	H	0.434111	-0.387925	0.469461
H176	H	0.767444	-0.054591	0.802795
H177	H	1.100778	0.278742	1.136128
Cl178	Cl	1.247915	-0.357525	0.912535
Cl179	Cl	1.581248	-0.024192	1.245868
Cl180	Cl	1.914581	0.309141	1.579201
H181	H	1.115267	-1.100638	0.507498
H182	H	1.448600	-0.767305	0.840831
H183	H	1.781934	-0.433972	1.174164
H184	H	0.686968	-0.387891	0.469437
H185	H	1.020301	-0.054558	0.802771
H186	H	1.353634	0.278776	1.136104
H187	H	1.181181	-0.918976	0.256215
H188	H	1.514515	-0.585643	0.589549
H189	H	1.847848	-0.252310	0.922882
H190	H	0.686867	-0.633565	0.286956
H191	H	1.020200	-0.300231	0.620290
H192	H	1.353533	0.033102	0.953623
Cl193	Cl	1.090965	-0.903389	0.532786
Cl194	Cl	1.424299	-0.570056	0.866120
Cl195	Cl	1.757632	-0.236722	1.199453
H196	H	1.043477	-0.633449	1.079352
H197	H	1.376810	-0.300116	1.412686
H198	H	1.710144	0.033218	1.746019
H199	H	0.835598	-0.633552	0.286943
H200	H	1.168932	-0.300218	0.620276
H201	H	1.502265	0.033115	0.953609
Cl202	Cl	1.173629	-1.117172	0.222415
Cl203	Cl	1.506962	-0.783838	0.555748
Cl204	Cl	1.840295	-0.450505	0.889082
H205	H	1.043402	-0.633586	0.677774
H206	H	1.376735	-0.300253	1.011108
H207	H	1.710068	0.033081	1.344441
Cl208	Cl	1.247945	-0.357450	1.097572
Cl209	Cl	1.581278	-0.024117	1.430905
Cl210	Cl	1.914611	0.309217	1.764238
Cl211	Cl	0.601008	-0.357923	0.491725
Cl212	Cl	0.934342	-0.024590	0.825058
Cl213	Cl	1.267675	0.308743	1.158392
Cl214	Cl	0.978545	-0.901443	0.418573
Cl215	Cl	1.311878	-0.568110	0.751906
Cl216	Cl	1.645212	-0.234777	1.085239
Cl217	Cl	1.021205	-0.663535	0.912461
Cl218	Cl	1.354539	-0.330201	1.245794
Cl219	Cl	1.687872	0.003132	1.579128
H220	H	0.434021	-0.633614	0.286984
H221	H	0.767354	-0.300281	0.620318
H222	H	1.100687	0.033052	0.953651
Cl223	Cl	1.289509	-1.118984	0.338829
Cl224	Cl	1.622842	-0.785651	0.672162
Cl225	Cl	1.956175	-0.452317	1.005495
H226	H	1.256746	-0.919576	0.331593
H227	H	1.590079	-0.586243	0.664926
H228	H	1.923412	-0.252910	0.998259
Cl229	Cl	1.251136	-1.115003	0.488343
Cl230	Cl	1.584469	-0.781670	0.821677
Cl231	Cl	1.917803	-0.448337	1.155010
Cl232	Cl	1.021195	-0.663552	0.844649
Cl233	Cl	1.354528	-0.330219	1.177983
Cl234	Cl	1.687861	0.003114	1.511316
H235	H	1.216941	-0.917589	0.479198
H236	H	1.550275	-0.584256	0.812532
H237	H	1.883608	-0.250923	1.145865
H238	H	1.034954	-0.919709	0.294295
H239	H	1.368287	-0.586376	0.627628
H240	H	1.701621	-0.253043	0.960961
Cl241	Cl	1.247931	-0.357590	0.844720
Cl242	Cl	1.581265	-0.024257	1.178053
Cl243	Cl	1.914598	0.309076	1.511386
H244	H	1.225636	-0.387633	0.677838
H245	H	1.558970	-0.054300	1.011172
H246	H	1.892303	0.279033	1.344505
Cl247	Cl	0.981902	-1.116098	0.425439
Cl248	Cl	1.315235	-0.782765	0.758772
Cl249	Cl	1.648568	-0.449432	1.092106
