data_functionalizedCrystal
_audit_creation_method	'MofGen! by Chris Wilmer'
_symmetry_space_group_name_H-M	'P1'
_symmetry_Int_Tables_number	1
_symmetry_cell_setting	triclinic
loop_
_symmetry_equiv_pos_as_xyz
  x,y,z
_cell_length_a	6.817900
_cell_length_b	9.514072
_cell_length_c	16.306216
_cell_angle_alpha	91.329972
_cell_angle_beta	103.467292
_cell_angle_gamma	118.843421
loop_
_atom_site_label
_atom_site_type_symbol
_atom_site_fract_x
_atom_site_fract_y
_atom_site_fract_z
V1	V	-4.111607	-0.223464	-0.263691
O2	O	-4.010338	0.009446	-0.257991
O3	O	-4.146378	-0.441848	-0.262541
O4	O	-4.061963	-0.220594	-0.378397
O5	O	-4.095337	-0.213340	-0.141333
V6	V	-4.584619	-0.195538	-0.248976
O7	O	-4.395922	-0.284721	-0.295968
O8	O	-4.750501	-0.134281	-0.216699
O9	O	-4.326642	0.022846	-0.250126
O10	O	-4.803285	-0.428447	-0.254676
O11	O	-4.718285	-0.205662	-0.371333
O12	O	-4.411057	-0.198408	-0.134270
C13	C	-4.011652	-0.495067	-0.258550
C14	C	-4.121360	-0.673603	-0.258375
C15	C	-3.903970	-0.212834	-0.406334
C16	C	-3.945214	-0.211932	-0.500111
C17	C	-4.094938	-0.208696	-0.840854
C18	C	-4.303418	-0.219350	-0.810437
C19	C	-4.260271	-0.219672	-0.712847
C20	C	-4.020660	-0.210303	-0.671808
C21	C	-3.824239	-0.051009	-0.691540
C22	C	-3.868489	-0.050019	-0.789136
C23	C	-4.064788	-0.356769	-0.815177
C24	C	-4.027421	-0.359913	-0.717869
C25	C	-3.978666	-0.211205	-0.576269
C26	C	-4.136919	-0.207783	-0.936391
C27	C	-4.124713	0.076057	-0.254114
C28	C	-3.994244	0.254591	-0.254295
C29	C	-4.232393	-0.206173	-0.106328
C30	C	-4.170384	-0.207067	-0.012550
H31	H	-4.473901	-0.333469	-0.845338
H32	H	-3.801458	-0.670288	-0.250894
H33	H	-4.223670	-0.476470	-0.851377
N34	N	-4.338196	-0.078455	-0.833233
H35	H	-4.500355	-0.121087	-0.872313
H36	H	-4.219377	-0.007796	-0.863149
N37	N	-3.587843	-0.034474	-0.655157
H38	H	-3.555082	-0.030162	-0.591193
H39	H	-3.464282	0.068671	-0.668662
N40	N	-4.376680	-0.773071	-0.262780
H41	H	-4.421495	-0.890788	-0.262019
H42	H	-4.473131	-0.763272	-0.317211
H43	H	-4.265327	-0.113019	-0.682164
H44	H	-4.409239	-0.334170	-0.700319
H45	H	-4.172893	-0.477676	-0.706297
H46	H	-3.710104	-0.035665	-0.808319
N47	N	-3.886473	0.098352	-0.808784
H48	H	-3.865643	0.162497	-0.754091
H49	H	-4.044718	0.063345	-0.849109
N50	N	-3.812830	0.096199	-0.648685
H51	H	-3.777445	0.097633	-0.584880
H52	H	-3.967525	0.091401	-0.670764
N53	N	-3.804956	-0.363179	-0.681582
H54	H	-3.696147	-0.267291	-0.634561
H55	H	-3.727705	-0.357143	-0.728274
N56	N	-3.860773	-0.348394	-0.840767
H57	H	-3.788179	-0.249223	-0.868857
H58	H	-3.916694	-0.449286	-0.882199
