data_functionalizedCrystal
_audit_creation_method	'MofGen! by Chris Wilmer'
_symmetry_space_group_name_H-M	'P1'
_symmetry_Int_Tables_number	1
_symmetry_cell_setting	triclinic
loop_
_symmetry_equiv_pos_as_xyz
  x,y,z
_cell_length_a	19.188905
_cell_length_b	19.188924
_cell_length_c	13.101039
_cell_angle_alpha	93.348752
_cell_angle_beta	86.647018
_cell_angle_gamma	83.138260
loop_
_atom_site_label
_atom_site_type_symbol
_atom_site_fract_x
_atom_site_fract_y
_atom_site_fract_z
O1	O	0.930014	0.083211	-0.085389
O2	O	0.726699	0.094965	-0.085354
O3	O	0.834226	-0.012568	-0.085360
O4	O	0.822487	0.190744	-0.085382
O5	O	0.826511	-0.004840	0.085070
O6	O	0.718984	0.102693	0.085076
O7	O	0.922300	0.090939	0.085042
Zn8	Zn	0.819417	0.098043	0.112118
Zn9	Zn	0.829582	0.087861	-0.112431
O10	O	0.814772	0.198472	0.085048
C11	C	0.696830	0.098452	-0.000134
C12	C	0.619324	0.097319	-0.000121
C13	C	0.587138	0.092561	-0.093025
C14	C	0.514315	0.091488	-0.093038
C15	C	0.473682	0.095158	-0.000141
C16	C	0.505876	0.099920	0.092776
C17	C	0.578697	0.101000	0.092786
N18	N	0.361533	0.056864	0.068998
N19	N	0.292357	0.055836	0.068982
C20	C	0.254277	0.091904	-0.000165
N21	N	0.287988	0.129030	-0.069312
N22	N	0.357171	0.130055	-0.069299
C23	C	0.394720	0.093987	-0.000141
C24	C	0.143128	0.085983	-0.093090
C25	C	0.070303	0.084914	-0.093098
C26	C	0.061866	0.093339	0.092718
C27	C	0.134689	0.094415	0.092724
C28	C	0.175316	0.090734	-0.000183
C29	C	0.829989	-0.034715	-0.000144
C30	C	0.828850	-0.112219	-0.000141
C31	C	0.832524	-0.152831	-0.093043
C32	C	0.831444	-0.225654	-0.093050
C33	C	0.826705	-0.257864	-0.000151
C34	C	0.823026	-0.217243	0.092763
C35	C	0.824099	-0.144420	0.092768
N36	N	0.861623	-0.374396	0.068985
N37	N	0.860606	-0.443574	0.068974
C38	C	0.823471	-0.477273	-0.000160
N39	N	0.787401	-0.439182	-0.069299
N40	N	0.788422	-0.369998	-0.069291
C41	C	0.825541	-0.336827	-0.000146
C42	C	0.825974	-0.596848	-0.093077
C43	C	0.824890	-0.669671	-0.093081
C44	C	0.816478	-0.661260	0.092736
C45	C	0.817556	-0.588437	0.092737
C46	C	0.822307	-0.556236	-0.000172
C47	C	0.952169	0.087453	-0.000180
C48	C	1.029675	0.088585	-0.000200
C49	C	0.819009	0.220619	-0.000171
C50	C	0.820149	0.298123	-0.000180
N51	N	0.812485	0.104992	0.265367
N52	N	0.836519	0.080907	-0.265680
C53	C	0.803053	0.114452	0.474410
C54	C	0.845948	0.071449	0.525284
C55	C	0.840701	0.076713	0.641602
C56	C	0.808300	0.109189	0.358081
H57	H	0.488103	0.087615	-0.168694
H58	H	0.829838	-0.570628	-0.168729
H59	H	0.814570	-0.555371	0.168387
H60	H	0.176207	0.082993	-0.168740
H61	H	0.472788	0.102909	0.168413
O62	O	0.820412	-0.104920	0.182990
C63	C	0.760336	-0.054430	0.188547
H64	H	0.720143	-0.073100	0.135832
H65	H	0.736335	-0.047162	0.270719
H66	H	0.775951	-0.002203	0.163584
O67	O	0.754451	0.163018	0.526615
C68	C	0.686496	0.150822	0.500503
H69	H	0.687539	0.093619	0.470928
H70	H	0.648308	0.162145	0.571136
H71	H	0.668689	0.186839	0.438334
H72	H	0.620212	0.089564	-0.168677
H73	H	0.886614	0.030681	0.481479
H74	H	0.604902	0.104875	0.168442
O75	O	0.811769	-0.692599	0.182920
C76	C	0.750423	-0.726344	0.188486
H77	H	0.733771	-0.738212	0.107820
H78	H	0.761469	-0.777590	0.227819
H79	H	0.706426	-0.690520	0.234319
H80	H	0.044098	0.081044	-0.168755
O81	O	0.828502	-0.709025	-0.183422
C82	C	0.832913	-0.664982	-0.265418
H83	H	0.854538	-0.614798	-0.238174
H84	H	0.869446	-0.693504	-0.330390
H85	H	0.778324	-0.651030	-0.293995
H86	H	0.028783	0.096331	0.168356
H87	H	0.834432	-0.258725	-0.168705
O88	O	0.165852	0.099000	0.183064
C89	C	0.114374	0.102027	0.265057
H90	H	0.066664	0.077923	0.237817
H91	H	0.137007	0.071395	0.330040
H92	H	0.097825	0.159209	0.293617
H93	H	0.836391	-0.126617	-0.168697
O94	O	0.818330	-0.248594	0.182941
C95	C	0.756993	-0.282353	0.188515
H96	H	0.740332	-0.294215	0.107853
H97	H	0.768054	-0.333602	0.227833
H98	H	0.712995	-0.246540	0.234366
