data_functionalizedCrystal
_audit_creation_method	'MofGen! by Chris Wilmer'
_symmetry_space_group_name_H-M	'P1'
_symmetry_Int_Tables_number	1
_symmetry_cell_setting	triclinic
loop_
_symmetry_equiv_pos_as_xyz
  x,y,z
_cell_length_a	16.959455
_cell_length_b	18.215405
_cell_length_c	16.959447
_cell_angle_alpha	90.033591
_cell_angle_beta	89.985678
_cell_angle_gamma	89.978168
loop_
_atom_site_label
_atom_site_type_symbol
_atom_site_fract_x
_atom_site_fract_y
_atom_site_fract_z
Zn1	Zn	1.208357	0.293030	-0.446891
Zn2	Zn	1.208269	0.416108	-0.314705
Zn3	Zn	1.076186	0.293053	-0.314728
Zn4	Zn	1.076139	0.416053	-0.446843
O5	O	1.142238	0.354561	-0.380792
O6	O	1.318956	0.309370	-0.429366
O7	O	1.190730	0.399817	-0.204097
O8	O	1.093775	0.190065	-0.332290
O9	O	1.318891	0.399794	-0.332249
O10	O	1.190881	0.190049	-0.429389
O11	O	1.093689	0.309409	-0.204114
O12	O	0.965569	0.309356	-0.332244
O13	O	1.093696	0.399701	-0.557460
O14	O	0.965535	0.399723	-0.429308
O15	O	1.190836	0.309316	-0.557495
O16	O	1.190685	0.519084	-0.332203
O17	O	1.093610	0.519044	-0.429285
C18	C	1.142154	0.545767	-0.380754
C19	C	1.142191	0.627566	-0.380764
C20	C	0.936872	0.354536	-0.380774
C21	C	0.849015	0.354544	-0.380785
C22	C	1.142271	0.354500	-0.586960
C23	C	1.142285	0.354474	-0.674817
C24	C	0.477533	0.307468	-0.330356
C25	C	0.477546	0.401714	-0.431273
C26	C	0.560092	0.401703	-0.431268
C27	C	0.601362	0.354575	-0.380805
C28	C	0.560086	0.307457	-0.330348
C29	C	0.601374	0.448826	-0.481719
C30	C	0.683925	0.448818	-0.481716
C31	C	0.725196	0.401685	-0.431256
C32	C	0.683916	0.354565	-0.380797
C33	C	0.725186	0.307436	-0.330335
C34	C	0.683906	0.260312	-0.279879
C35	C	0.601358	0.260325	-0.279889
C36	C	0.807745	0.401672	-0.431247
C37	C	0.807739	0.307426	-0.330327
C38	C	1.348406	0.354586	-0.380810
C39	C	1.436263	0.354596	-0.380818
C40	C	1.142343	0.162608	-0.380847
C41	C	1.142388	0.080809	-0.380871
C42	C	1.192856	0.815756	-0.330306
C43	C	1.192892	0.892615	-0.330326
C44	C	1.091720	0.892613	-0.431334
C45	C	1.091689	0.815756	-0.431318
C46	C	1.142256	0.777329	-0.380800
C47	C	1.142323	0.931045	-0.380835
C48	C	1.142360	1.014379	-0.380856
C49	C	1.142220	0.693990	-0.380780
C50	C	1.091803	0.401455	-1.046277
C51	C	1.192956	0.307337	-1.046308
C52	C	1.192935	0.307353	-0.963762
C53	C	1.142348	0.354421	-0.922470
C54	C	1.091782	0.401474	-0.963723
C55	C	1.243505	0.260306	-0.922503
C56	C	1.243487	0.260321	-0.839952
C57	C	1.192895	0.307386	-0.798658
C58	C	1.142327	0.354440	-0.839916
C59	C	1.091740	0.401508	-0.798624
C60	C	1.041167	0.448559	-0.839881
C61	C	1.041190	0.448539	-0.922429
C62	C	1.192872	0.307406	-0.716109
C63	C	1.091719	0.401526	-0.716070
C64	C	1.142251	0.354568	-0.175425
C65	C	1.142390	0.354387	-0.087569
H66	H	0.717519	0.221943	-0.238789
O67	O	1.042572	0.778504	-0.480480
C68	C	1.004136	0.754878	-0.614895
C69	C	1.059791	0.797124	-0.559309
H70	H	1.018049	0.769905	-0.678641
H71	H	0.940401	0.770055	-0.601024
H72	H	1.012791	0.693349	-0.606166
H73	H	1.051207	0.858662	-0.568007
H74	H	1.123506	0.781886	-0.573194
O75	O	1.242019	0.778348	-0.281350
C76	C	1.348743	0.691543	-0.270801
C77	C	1.293101	0.733845	-0.326332
H78	H	1.390069	0.655565	-0.307147
H79	H	1.312513	0.655567	-0.229438
H80	H	1.384878	0.732229	-0.234699
H81	H	1.256954	0.693213	-0.362485
H82	H	1.329377	0.769833	-0.367642
O83	O	0.561300	0.214447	-0.230960
C84	C	0.536102	0.089225	-0.192803
C85	C	0.581503	0.141096	-0.248278
H86	H	0.552432	0.029910	-0.206774
H87	H	0.470003	0.097263	-0.201474
H88	H	0.552303	0.102112	-0.129047
H89	H	0.565368	0.128241	-0.312056
H90	H	0.647591	0.133048	-0.239539
O91	O	1.241883	0.261673	-0.675945
C92	C	1.252554	0.162307	-0.582818
C93	C	1.196957	0.214067	-0.628240
H94	H	1.216253	0.123794	-0.544250
H95	H	1.293839	0.196072	-0.544103
H96	H	1.288736	0.128700	-0.626524
H97	H	1.160725	0.247685	-0.584590
H98	H	1.155725	0.180260	-0.666967
O99	O	1.042557	0.447323	-0.676084
C100	C	0.942201	0.540650	-0.684765
C101	C	0.997846	0.488833	-0.730146
H102	H	0.906026	0.574213	-0.728455
H103	H	0.978428	0.579194	-0.646131
H104	H	0.900914	0.506860	-0.646101
H105	H	1.039145	0.522563	-0.768852
H106	H	0.961570	0.450286	-0.768730
O107	O	0.561366	0.494556	-0.530850
C108	C	0.536094	0.530378	-0.665245
C109	C	0.581475	0.478560	-0.609686
H110	H	0.552323	0.517453	-0.728996
H111	H	0.552301	0.589720	-0.651324
H112	H	0.470010	0.522288	-0.656541
H113	H	0.647569	0.486584	-0.618359
H114	H	0.565202	0.419237	-0.623620
H115	H	0.443939	0.440088	-0.472352
H116	H	0.999983	0.486885	-0.806250
O117	O	0.992144	0.494218	-0.962628
C118	C	0.947317	0.535866	-1.089787
C119	C	1.002913	0.484111	-1.044358
H120	H	0.955993	0.527702	-1.155874
H121	H	0.961159	0.595230	-1.073595
H122	H	0.883592	0.522945	-1.073518
H123	H	1.066657	0.496966	-1.060603
H124	H	0.989004	0.424762	-1.060554
O125	O	0.437317	0.261762	-0.281371
C126	C	0.310145	0.219964	-0.236695
C127	C	0.355591	0.271776	-0.292196
H128	H	0.244061	0.228031	-0.245439
H129	H	0.326289	0.232812	-0.172914
H130	H	0.326450	0.160647	-0.250683
H131	H	0.339310	0.331111	-0.278278
H132	H	0.339443	0.258864	-0.355960
H133	H	1.050625	0.439761	-1.079872
O134	O	1.242068	0.929829	-0.281200
C135	C	1.342444	0.921715	-0.181043
C136	C	1.286775	0.879480	-0.236625
H137	H	1.378616	0.881026	-0.145002
H138	H	1.306236	0.957735	-0.139634
H139	H	1.383733	0.957660	-0.217391
H140	H	1.245475	0.843495	-0.200341
H141	H	1.323033	0.843506	-0.278036
O142	O	1.042622	0.930056	-0.480325
C143	C	0.997859	1.048457	-0.525144
C144	C	1.053493	1.006148	-0.469611
H145	H	1.006641	1.109985	-0.516513
H146	H	0.934110	1.033453	-0.511197
H147	H	1.011679	1.033247	-0.588882
H148	H	1.039744	1.021335	-0.405854
H149	H	1.117226	1.021155	-0.483625
H150	H	1.234145	0.269021	-1.079933
O151	O	0.724105	0.494484	-0.530772
C152	C	0.817291	0.504482	-0.637504
C153	C	0.771851	0.452686	-0.581982
H154	H	0.855892	0.470708	-0.678933
H155	H	0.855975	0.542906	-0.601187
H156	H	0.773597	0.538182	-0.673534
H157	H	0.815488	0.418938	-0.545940
H158	H	0.733155	0.414310	-0.618345
H159	H	1.284695	0.221991	-0.956129
H160	H	0.841351	0.440042	-0.472325
H161	H	1.284666	0.222009	-0.806367
H162	H	0.841336	0.269043	-0.289238
