data_functionalizedCrystal
_audit_creation_method	'MofGen! by Chris Wilmer'
_symmetry_space_group_name_H-M	'P1'
_symmetry_Int_Tables_number	1
_symmetry_cell_setting	triclinic
loop_
_symmetry_equiv_pos_as_xyz
  x,y,z
_cell_length_a	14.044191
_cell_length_b	14.044191
_cell_length_c	13.101039
_cell_angle_alpha	86.337551
_cell_angle_beta	86.327793
_cell_angle_gamma	86.808224
loop_
_atom_site_label
_atom_site_type_symbol
_atom_site_fract_x
_atom_site_fract_y
_atom_site_fract_z
O1	O	-0.225379	1.281981	-0.085150
O2	O	0.274621	1.781981	0.414850
O3	O	-0.217066	1.005309	-0.085163
O4	O	0.282934	1.505309	0.414837
O5	O	-0.082886	1.139489	-0.085159
O6	O	0.417114	1.639489	0.414841
O7	O	-0.359559	1.147801	-0.085154
O8	O	0.140441	1.647801	0.414846
O9	O	-0.092531	1.129863	0.085271
O10	O	0.407469	1.629863	0.585271
O11	O	-0.226710	0.995683	0.085266
O12	O	0.273290	1.495683	0.585266
O13	O	-0.235024	1.272355	0.085280
O14	O	0.264976	1.772355	0.585280
Zn15	Zn	-0.232398	1.132491	0.112332
Zn16	Zn	0.267602	1.632491	0.612332
Zn17	Zn	-0.219691	1.145173	-0.112216
Zn18	Zn	0.280309	1.645173	0.387784
O19	O	-0.369204	1.138176	0.085275
O20	O	0.130796	1.638176	0.585275
C21	C	-0.218251	0.964874	0.000050
C22	C	0.281749	1.464874	0.500050
C23	C	-0.207404	0.858731	0.000044
C24	C	0.292596	1.358731	0.500044
C25	C	-0.264505	0.613274	0.000055
C26	C	0.235495	1.113274	0.500055
C27	C	-0.187588	0.664397	0.000052
C28	C	0.312412	1.164397	0.500052
C29	C	-0.198616	0.772535	0.000048
C30	C	0.301384	1.272535	0.500048
C31	C	-0.253479	0.505126	0.000060
C32	C	0.246521	1.005126	0.500060
C33	C	-0.400003	1.146625	0.000061
C34	C	0.099997	1.646625	0.500061
C35	C	-0.506147	1.157472	0.000063
C36	C	-0.006147	1.657472	0.500063
C37	C	-0.751603	1.100372	0.000051
C38	C	-0.251603	1.600372	0.500051
C39	C	-0.700480	1.177288	0.000057
C40	C	-0.200480	1.677288	0.500057
C41	C	-0.592343	1.166260	0.000060
C42	C	-0.092343	1.666260	0.500060
C43	C	-0.859750	1.111399	0.000048
C44	C	-0.359750	1.611399	0.500048
C45	C	-0.052086	1.131040	0.000053
C46	C	0.447914	1.631040	0.500053
C47	C	0.054058	1.120193	0.000045
C48	C	0.554058	1.620193	0.500045
C49	C	-0.233838	1.312790	0.000065
C50	C	0.266162	1.812790	0.500065
C51	C	-0.244685	1.418934	0.000064
C52	C	0.255315	1.918934	0.500064
N53	N	-0.241071	1.123843	0.265581
N54	N	0.258929	1.623843	0.765581
N55	N	-0.211012	1.153829	-0.265464
N56	N	0.288988	1.653829	0.234536
C57	C	-0.252879	1.112077	0.474623
C58	C	0.247121	1.612077	0.974623
C59	C	-0.199207	1.165592	0.525500
C60	C	0.300793	1.665592	1.025500
C61	C	-0.205777	1.159045	0.641819
C62	C	0.294223	1.659045	1.141819
C63	C	-0.246310	1.118622	0.358294
C64	C	0.253690	1.618622	0.858294
H65	H	-0.113451	0.626956	-0.000021
H66	H	0.386549	1.126956	0.499979
H67	H	-0.148324	1.216325	0.481700
H68	H	0.351676	1.716325	0.981700
Br69	Br	-0.689195	0.976819	0.000045
Br70	Br	-0.189195	1.476819	0.500045
H71	H	-0.338632	0.650717	0.000053
H72	H	0.161368	1.150717	0.500053
Br73	Br	-0.762886	1.300849	0.000063
Br74	Br	-0.262886	1.800849	0.500063
Br75	Br	-0.337686	1.027524	0.547620
Br76	Br	0.162314	1.527524	1.047620
