data_functionalizedCrystal
_audit_creation_method	'MofGen! by Chris Wilmer'
_symmetry_space_group_name_H-M	'P1'
_symmetry_Int_Tables_number	1
_symmetry_cell_setting	triclinic
loop_
_symmetry_equiv_pos_as_xyz
  x,y,z
_cell_length_a	19.077105
_cell_length_b	15.299816
_cell_length_c	15.298259
_cell_angle_alpha	88.410162
_cell_angle_beta	83.002928
_cell_angle_gamma	78.483666
loop_
_atom_site_label
_atom_site_type_symbol
_atom_site_fract_x
_atom_site_fract_y
_atom_site_fract_z
Zn1	Zn	1.034085	-0.305714	0.616266
Zn2	Zn	1.073447	-0.479135	0.497477
Zn3	Zn	0.939799	-0.327188	0.464291
Zn4	Zn	0.932939	-0.447918	0.635655
O5	O	0.995068	-0.389989	0.553422
O6	O	1.137568	-0.332795	0.606283
O7	O	1.075063	-0.481031	0.371644
O8	O	0.938704	-0.201236	0.462448
O9	O	1.166488	-0.460207	0.519009
O10	O	1.007975	-0.185459	0.574104
O11	O	0.976872	-0.369396	0.347262
O12	O	0.840627	-0.339127	0.481248
O13	O	0.927012	-0.407003	0.754513
O14	O	0.835587	-0.427826	0.607148
O15	O	1.001323	-0.302526	0.740269
O16	O	1.068411	-0.598097	0.537809
O17	O	0.965180	-0.575163	0.639328
C18	C	0.812629	-0.382420	0.542702
C19	C	0.734580	-0.379199	0.538140
C20	C	0.695330	-0.423968	0.601474
C21	C	0.621993	-0.420929	0.597190
C22	C	0.587908	-0.373127	0.529567
C23	C	0.627163	-0.328353	0.466229
C24	C	0.700497	-0.331386	0.470518
C25	C	0.368856	-0.359086	0.509723
C26	C	0.295517	-0.356058	0.505437
C27	C	0.290351	-0.448633	0.636399
C28	C	0.363689	-0.451667	0.640679
C29	C	0.402936	-0.406889	0.577344
N30	N	0.512946	-0.370022	0.525184
N31	N	0.477896	-0.409989	0.581731
C32	C	1.020338	-0.618547	0.594294
C33	C	1.031209	-0.716322	0.611811
C34	C	0.917787	-1.025121	0.428542
C35	C	0.907569	-0.933256	0.412085
C36	C	0.938479	-0.879018	0.462015
C37	C	0.979607	-0.916654	0.528405
C38	C	0.989820	-1.008528	0.544868
C39	C	1.010512	-0.862424	0.578341
C40	C	1.051640	-0.900061	0.644731
C41	C	1.061853	-0.991925	0.661191
C42	C	1.030943	-1.046163	0.611261
C43	C	1.000298	-0.770551	0.561878
C44	C	1.072332	-0.753957	0.678204
C45	C	1.082549	-0.845823	0.694661
C46	C	1.178219	-0.397588	0.564185
C47	C	1.256267	-0.400826	0.568772
C48	C	0.959012	-0.348887	0.779757
C49	C	0.943647	-0.331372	0.876207
C50	C	0.969714	-0.160536	0.512411
C51	C	0.958910	-0.062757	0.494935
C52	C	1.031017	-0.430869	0.327959
C53	C	1.046490	-0.448142	0.231473
C54	C	1.104830	-0.514496	1.198856
C55	C	1.119263	-0.530958	1.108237
C56	C	1.075361	-0.481063	1.050225
C57	C	1.017022	-0.414703	1.082841
C58	C	1.002584	-0.398244	1.173470
C59	C	0.973115	-0.364811	1.024839
C60	C	0.914776	-0.298451	1.057455
C61	C	0.900341	-0.281995	1.148075
C62	C	0.944244	-0.331890	1.206087
C63	C	0.987552	-0.381269	0.934210
C64	C	0.885306	-0.265017	0.908824
C65	C	0.870873	-0.248556	0.999443
H66	H	0.599404	-0.289426	0.411172
H67	H	1.087115	-0.494471	0.976440
H68	H	0.892621	-1.069289	0.387900
H69	H	0.849557	-0.224389	0.861590
H70	H	0.590038	-0.457386	0.648763
H71	H	1.140565	-0.555120	1.246097
H72	H	0.723077	-0.462897	0.656538
H73	H	0.732453	-0.294925	0.418948
C74	C	1.042138	-1.145892	0.629246
C75	C	1.084775	-1.167248	0.698068
C76	C	1.095105	-1.259110	0.714655
H77	H	0.996792	-1.162219	0.645327
H78	H	1.065582	-1.177394	0.577728
H79	H	1.061330	-1.135757	0.749575
H80	H	1.130129	-1.150943	0.682005
H81	H	1.118549	-1.290612	0.663137
H82	H	1.049756	-1.275429	0.730733
H83	H	1.124040	-1.273614	0.761346
C84	C	1.127143	-0.886851	0.766736
C85	C	1.129455	-0.978909	0.770475
C86	C	1.170520	-1.016732	0.836866
H87	H	1.174700	-0.876101	0.754227
H88	H	1.105864	-0.860819	0.821752
H89	H	1.150737	-1.004933	0.715471
H90	H	1.081910	-0.989685	0.782996
H91	H	1.149240	-0.990701	0.891883
H92	H	1.218073	-1.005976	0.824351
H93	H	1.172088	-1.079196	0.839418
H94	H	1.095338	-1.022565	0.715254
C95	C	1.182659	-0.603001	1.072993
C96	C	1.218031	-0.643156	1.143187
C97	C	1.276446	-0.709518	1.110752
H98	H	1.165756	-0.646720	1.042927
H99	H	1.215203	-0.577053	1.033449
H100	H	1.185493	-0.669104	1.182716
H101	H	1.234951	-0.599461	1.173260
H102	H	1.308989	-0.683570	1.071209
H103	H	1.259535	-0.753230	1.080687
H104	H	1.300457	-0.736765	1.158373
H105	H	0.932497	-0.318488	1.279877
C106	C	0.400555	-0.503579	0.714193
C107	C	0.350480	-0.542118	0.768756
C108	C	0.384413	-0.589940	0.836491
H109	H	0.438683	-0.549138	0.689562
H110	H	0.419403	-0.464307	0.747773
H111	H	0.331642	-0.581387	0.735182
H112	H	0.312350	-0.496579	0.793409
H113	H	0.403262	-0.550668	0.870070
H114	H	0.422541	-0.635494	0.811851
H115	H	0.350441	-0.616088	0.873524
H116	H	0.852832	-0.227968	1.174628
H117	H	0.258388	-0.485088	0.687964
H118	H	0.267765	-0.317120	0.450374
C119	C	1.105866	-0.694938	0.732295
C120	C	1.088136	-0.606433	0.703651
C121	C	1.119017	-0.552035	0.753448
H122	H	1.087964	-0.698855	0.792697
H123	H	1.156748	-0.714151	0.725088
H124	H	1.037264	-0.587225	0.710866
H125	H	1.106038	-0.602488	0.643256
H126	H	1.169900	-0.571248	0.746241
H127	H	1.101113	-0.555960	0.813848
H128	H	1.106997	-0.491980	0.734015
H129	H	0.400805	-0.322632	0.458145
H130	H	0.823373	-0.194525	1.026012
C131	C	0.955541	-0.729793	0.489862
C132	C	0.885553	-0.745932	0.508615
C133	C	0.844304	-0.708411	0.442283
H134	H	0.953795	-0.667305	0.487143
H135	H	0.976779	-0.755897	0.434862
H136	H	0.864321	-0.719826	0.563601
H137	H	0.887277	-0.808412	0.511326
H138	H	0.865541	-0.734514	0.387282
H139	H	0.842563	-0.645925	0.439569
H140	H	0.796814	-0.719363	0.454993
C141	C	0.862933	-0.892572	0.339934
C142	C	0.838069	-0.959735	0.299712
C143	C	0.796956	-0.922293	0.233228
H144	H	0.823004	-0.849474	0.364776
H145	H	0.891848	-0.864724	0.297265
H146	H	0.809154	-0.987569	0.342374
H147	H	0.877982	-1.002838	0.274851
H148	H	0.825871	-0.894444	0.190559
H149	H	0.757030	-0.879195	0.258078
H150	H	0.780086	-0.967857	0.205924
H151	H	0.930158	-0.804218	0.448610
H152	H	1.035056	-0.435295	0.907663
