data_functionalizedCrystal
_audit_creation_method	'MofGen! by Chris Wilmer'
_symmetry_space_group_name_H-M	'P1'
_symmetry_Int_Tables_number	1
_symmetry_cell_setting	triclinic
loop_
_symmetry_equiv_pos_as_xyz
  x,y,z
_cell_length_a	12.837943
_cell_length_b	12.811415
_cell_length_c	15.186229
_cell_angle_alpha	84.565396
_cell_angle_beta	89.997745
_cell_angle_gamma	89.411917
loop_
_atom_site_label
_atom_site_type_symbol
_atom_site_fract_x
_atom_site_fract_y
_atom_site_fract_z
O1	O	1.376630	0.272976	-0.095009
O2	O	1.074766	0.259491	-0.093937
O3	O	1.233292	0.114201	-0.082328
O4	O	1.218104	0.418266	-0.106618
O5	O	1.233282	0.114197	0.064129
O6	O	1.074756	0.259488	0.052520
O7	O	1.376620	0.272973	0.051449
Zn8	Zn	1.225686	0.266230	0.075238
Zn9	Zn	1.225700	0.266234	-0.117726
O10	O	1.218094	0.418263	0.039840
C11	C	1.036121	0.254934	-0.020345
C12	C	0.920985	0.241348	-0.019262
C13	C	0.680731	0.404678	-0.032297
C14	C	0.572551	0.391918	-0.031279
C15	C	0.596440	0.203068	-0.016203
C16	C	0.704621	0.215828	-0.017221
C17	C	0.746763	0.316637	-0.025269
C18	C	0.854946	0.329396	-0.026293
C19	C	0.878833	0.140547	-0.011211
C20	C	0.770652	0.127786	-0.010193
C21	C	1.232436	0.075010	-0.005971
C22	C	1.229887	-0.041763	0.003352
C23	C	1.225090	-0.261179	-0.138817
C24	C	1.222695	-0.370898	-0.130062
C25	C	1.222695	-0.370921	0.029616
C26	C	1.225090	-0.261203	0.020861
C27	C	1.226289	-0.206335	-0.063358
C28	C	1.228691	-0.096615	-0.072112
C29	C	1.228683	-0.096640	0.087565
C30	C	1.226288	-0.206359	0.096320
C31	C	1.415265	0.277530	-0.022145
C32	C	1.530401	0.291116	-0.023234
C33	C	1.218950	0.457454	-0.036520
C34	C	1.221499	0.574227	-0.045848
N35	N	1.225684	0.266227	0.206931
N36	N	1.225710	0.266229	-0.249419
C37	C	1.295903	0.201919	0.437792
C38	C	1.295907	0.201916	0.529982
C39	C	1.155483	0.330540	0.519713
C40	C	1.155476	0.330536	0.427526
C41	C	1.225692	0.266227	0.386567
C42	C	1.225702	0.266229	0.570945
C43	C	1.225705	0.266227	0.670901
C44	C	1.225688	0.266227	0.286605
H45	H	0.932608	0.068857	-0.005494
H46	H	1.353076	0.149553	0.404446
H47	H	1.221715	-0.415547	-0.191508
H48	H	1.229671	-0.051944	-0.140688
H49	H	1.098316	0.382901	0.553071
C50	C	0.724294	0.016901	-0.001340
C51	C	0.749027	-0.059234	-0.071315
C52	C	0.702673	-0.170122	-0.062464
C53	C	0.631585	-0.204876	0.016362
C54	C	0.606848	-0.128740	0.086342
C55	C	0.653202	-0.017852	0.077491
H56	H	0.801654	-0.033508	-0.129671
H57	H	0.720985	-0.226483	-0.114268
H58	H	0.597271	-0.286963	0.022914
H59	H	0.554221	-0.154466	0.144699
H60	H	0.634890	0.038509	0.129296
C61	C	1.078239	0.401281	0.371170
C62	C	1.001042	0.472062	0.416214
C63	C	0.923807	0.542800	0.359857
C64	C	0.923768	0.542755	0.258458
C65	C	1.000968	0.471971	0.213409
C66	C	1.078203	0.401234	0.269765
H67	H	1.001068	0.472098	0.491280
H68	H	0.866658	0.595199	0.393206
H69	H	0.866594	0.595119	0.216740
H70	H	1.000942	0.471936	0.138342
H71	H	1.135352	0.348835	0.236416
H72	H	0.715043	0.486760	-0.038852
C73	C	0.901306	0.440281	-0.035144
C74	C	0.876576	0.516413	0.034834
C75	C	0.922933	0.627300	0.025986
C76	C	0.994021	0.662056	-0.052840
C77	C	1.018755	0.585923	-0.122823
C78	C	0.972397	0.475035	-0.113975
H79	H	0.823949	0.490686	0.093190
H80	H	0.904623	0.683658	0.077793
H81	H	1.028337	0.744141	-0.059389
H82	H	1.071381	0.611649	-0.181179
H83	H	0.990707	0.418677	-0.165782
C84	C	1.224954	-0.266727	0.188953
C85	C	1.135327	-0.248729	0.253374
C86	C	1.133988	-0.309099	0.346008
C87	C	1.222274	-0.387466	0.374219
C88	C	1.311906	-0.405468	0.309796
C89	C	1.313246	-0.345098	0.217163
H90	H	1.069967	-0.190713	0.232492
H91	H	1.067635	-0.295772	0.393698
H92	H	1.221282	-0.432155	0.442792
H93	H	1.377267	-0.463483	0.330679
H94	H	1.379599	-0.358424	0.169473
H95	H	1.226076	-0.216506	-0.207391
C96	C	0.499915	0.488765	-0.039014
C97	C	0.504940	0.568424	-0.121425
C98	C	0.432303	0.665275	-0.129159
C99	C	0.354643	0.682468	-0.054480
C100	C	0.349615	0.602807	0.027937
C101	C	0.422251	0.505955	0.035670
H102	H	0.562431	0.555699	-0.176712
H103	H	0.436026	0.724246	-0.190170
H104	H	0.300873	0.754163	-0.060205
H105	H	0.292124	0.615532	0.083224
H106	H	0.418529	0.446985	0.096682
H107	H	0.562109	0.120994	-0.009577
H108	H	1.221710	-0.415613	0.098183
H109	H	1.353078	0.149549	0.571687
H110	H	1.229663	-0.051975	0.149009
