data_functionalizedCrystal
_audit_creation_method	'MofGen! by Chris Wilmer'
_symmetry_space_group_name_H-M	'P1'
_symmetry_Int_Tables_number	1
_symmetry_cell_setting	triclinic
loop_
_symmetry_equiv_pos_as_xyz
  x,y,z
_cell_length_a	15.297475
_cell_length_b	13.897447
_cell_length_c	15.298431
_cell_angle_alpha	99.710214
_cell_angle_beta	91.630971
_cell_angle_gamma	80.322510
loop_
_atom_site_label
_atom_site_type_symbol
_atom_site_fract_x
_atom_site_fract_y
_atom_site_fract_z
Zn1	Zn	1.253550	-0.481798	0.726675
Zn2	Zn	1.278794	-0.674907	0.580184
Zn3	Zn	1.132397	-0.491178	0.554901
Zn4	Zn	1.107040	-0.620596	0.701321
O5	O	1.192945	-0.567120	0.640770
O6	O	1.379481	-0.526219	0.728434
O7	O	1.280551	-0.677190	0.454245
O8	O	1.148516	-0.354956	0.577717
O9	O	1.398028	-0.668095	0.620807
O10	O	1.237526	-0.348064	0.703919
O11	O	1.172994	-0.542206	0.435671
O12	O	1.006451	-0.489542	0.553133
O13	O	1.105297	-0.575529	0.827269
O14	O	0.987821	-0.584624	0.660707
O15	O	1.212938	-0.473555	0.845896
O16	O	1.255963	-0.802681	0.596223
O17	O	1.129776	-0.762779	0.685222
C18	C	0.965351	-0.532208	0.601425
C19	C	0.867982	-0.517291	0.584614
C20	C	1.192877	-0.817728	0.640738
C21	C	1.192923	-0.924945	0.640767
C22	C	0.554874	-0.673739	0.760924
C23	C	0.646357	-0.687762	0.776716
C24	C	0.701768	-0.645145	0.728693
C25	C	0.665686	-0.588504	0.664873
C26	C	0.574195	-0.574486	0.649074
C27	C	0.721089	-0.545892	0.616843
C28	C	0.685007	-0.489251	0.553023
C29	C	0.593524	-0.475235	0.537228
C30	C	0.538114	-0.517852	0.585251
C31	C	0.812580	-0.559910	0.632642
C32	C	0.831901	-0.460657	0.520792
C33	C	0.740418	-0.446634	0.504999
C34	C	1.192962	-1.012017	0.640794
C35	C	1.193020	-1.121254	0.640827
C36	C	1.421427	-0.602169	0.680269
C37	C	1.518793	-0.617105	0.697101
C38	C	1.153473	-0.517437	0.869256
C39	C	1.136652	-0.496265	0.966623
C40	C	1.193034	-0.315533	0.640826
C41	C	1.193071	-0.208322	0.640850
C42	C	1.232314	-0.616548	0.413182
C43	C	1.249304	-0.637474	0.315845
C44	C	1.072749	-0.416036	1.002688
C45	C	1.056934	-0.396143	1.094167
C46	C	1.105025	-0.456474	1.149591
C47	C	1.168934	-0.536701	1.113527
C48	C	1.184746	-0.556600	1.022038
C49	C	1.217022	-0.597038	1.168941
C50	C	1.280931	-0.677265	1.132877
C51	C	1.296741	-0.697160	1.041396
C52	C	1.248649	-0.636830	0.985973
C53	C	1.201210	-0.577139	1.260430
C54	C	1.313207	-0.717703	1.279780
C55	C	1.329023	-0.737596	1.188300
H56	H	0.776257	-0.656565	0.741555
H57	H	0.675729	-0.733882	0.828677
H58	H	1.261526	-0.653019	0.911482
H59	H	1.033595	-0.366928	0.957554
O60	O	0.500920	-0.715029	0.807514
C61	C	0.412440	-0.690534	0.779864
H62	H	0.404893	-0.620342	0.749139
H63	H	0.366342	-0.677603	0.839462
H64	H	0.394537	-0.753849	0.728633
H65	H	1.348768	-0.762497	1.012034
O66	O	0.449217	-0.504218	0.570064
C67	C	0.404152	-0.456633	0.648775
H68	H	0.448170	-0.470289	0.708315
H69	H	0.340277	-0.487446	0.653708
H70	H	0.387566	-0.373688	0.647950
O71	O	1.359843	-0.776441	1.333557
C72	C	1.344544	-0.874507	1.307867
H73	H	1.278911	-0.874116	1.270612
H74	H	1.341671	-0.910224	1.369330
H75	H	1.400678	-0.918478	1.262886
H76	H	1.381058	-0.802918	1.158924
H77	H	1.092146	-0.440271	1.224077
O78	O	1.139035	-0.499325	1.295479
C79	C	1.073301	-0.534046	1.338619
H80	H	1.072629	-0.615182	1.310103
H81	H	1.005722	-0.488596	1.327999
H82	H	1.088396	-0.526438	1.412638
O83	O	0.885821	-0.419411	0.474111
C84	C	0.948495	-0.494660	0.426564
H85	H	0.956873	-0.563218	0.459710
H86	H	1.014852	-0.467747	0.425999
H87	H	0.924442	-0.513862	0.355539
H88	H	0.564151	-0.429126	0.485252
H89	H	0.711027	-0.400516	0.453036
H90	H	1.004896	-0.330825	1.123524
H91	H	0.841949	-0.606027	0.684605
