data_functionalizedCrystal
_audit_creation_method	'MofGen! by Chris Wilmer'
_symmetry_space_group_name_H-M	'P1'
_symmetry_Int_Tables_number	1
_symmetry_cell_setting	triclinic
loop_
_symmetry_equiv_pos_as_xyz
  x,y,z
_cell_length_a	11.792241
_cell_length_b	15.995350
_cell_length_c	10.868271
_cell_angle_alpha	89.997096
_cell_angle_beta	89.999893
_cell_angle_gamma	83.842895
loop_
_atom_site_label
_atom_site_type_symbol
_atom_site_fract_x
_atom_site_fract_y
_atom_site_fract_z
O1	O	1.505951	0.114763	-0.102196
O2	O	1.175511	0.126591	-0.102224
O3	O	1.349764	-0.001170	-0.102208
O4	O	1.331698	0.242524	-0.102212
O5	O	1.349750	-0.001175	0.102436
O6	O	1.175497	0.126586	0.102420
O7	O	1.505937	0.114758	0.102448
Zn8	Zn	1.340715	0.120671	0.134926
Zn9	Zn	1.340734	0.120678	-0.134702
O10	O	1.331684	0.242519	0.102432
C11	C	1.133220	0.125845	0.000094
C12	C	1.007224	0.123621	0.000084
C13	C	0.776546	0.119532	0.000119
C14	C	0.904913	0.121804	0.000099
C15	C	1.349010	-0.032370	0.000112
C16	C	1.346771	-0.125331	0.000104
C17	C	1.338730	-0.463115	0.000108
C18	C	1.214630	-0.416244	-0.000362
C19	C	1.216870	-0.319544	0.000100
C20	C	1.342718	-0.295536	0.000105
C21	C	1.403921	-0.336339	0.116971
C22	C	1.400803	-0.432989	0.117068
C23	C	1.403383	-0.433329	-0.115651
C24	C	1.403354	-0.336384	-0.117195
C25	C	1.344979	-0.200829	0.000108
C26	C	1.336473	-0.557823	0.000113
C27	C	1.548229	0.115504	0.000127
C28	C	1.674224	0.117727	0.000130
C29	C	1.332438	0.273719	0.000110
C30	C	1.334677	0.366680	0.000109
N31	N	1.340710	0.120666	0.318940
N32	N	1.340747	0.120676	-0.318716
C33	C	1.340728	0.120676	0.569946
C34	C	1.340714	0.120673	0.430269
H35	H	1.168760	-0.291338	-0.083674
H36	H	1.165035	-0.434999	-0.084168
O37	O	1.149205	-0.442479	0.110027
H38	H	1.204691	-0.488755	0.165227
H39	H	1.362815	-0.454051	-0.204227
H40	H	1.491915	-0.464823	0.122375
O41	O	1.341663	-0.457503	0.232773
H42	H	1.400973	-0.501592	0.287310
H43	H	1.358607	-0.309336	-0.203649
H44	H	1.168425	-0.291901	0.084008
O45	O	1.524925	-0.315495	-0.126546
H46	H	1.544117	-0.275499	-0.047376
H47	H	1.494881	-0.464675	-0.116432
H48	H	1.496378	-0.321793	0.121321
O49	O	1.347611	-0.299009	0.232173
H50	H	1.276045	-0.251408	0.206490
