data_functionalizedCrystal
_audit_creation_method	'MofGen! by Chris Wilmer'
_symmetry_space_group_name_H-M	'P1'
_symmetry_Int_Tables_number	1
_symmetry_cell_setting	triclinic
loop_
_symmetry_equiv_pos_as_xyz
  x,y,z
_cell_length_a	15.995343
_cell_length_b	11.295483
_cell_length_c	12.837942
_cell_angle_alpha	94.530417
_cell_angle_beta	89.159062
_cell_angle_gamma	85.899052
loop_
_atom_site_label
_atom_site_type_symbol
_atom_site_fract_x
_atom_site_fract_y
_atom_site_fract_z
O1	O	1.126724	-0.098903	0.126607
O2	O	0.884267	-0.098932	0.143113
O3	O	1.000119	-0.098911	-0.016042
O4	O	1.010872	-0.098924	0.285762
O5	O	0.989942	0.099138	-0.002085
O6	O	0.874089	0.099117	0.157071
O7	O	1.116547	0.099146	0.140564
Cu8	Cu	0.994389	0.117215	0.150092
Cu9	Cu	1.006425	-0.117001	0.133586
O10	O	1.000695	0.099125	0.299720
C11	C	0.847929	0.000089	0.149411
C12	C	0.754816	0.000078	0.147368
C13	C	0.584333	0.000095	0.143663
C14	C	0.551821	0.000099	0.028776
C15	C	0.454947	0.000556	0.026647
C16	C	0.416481	0.000109	0.140014
C17	C	0.444382	0.112977	0.205735
C18	C	0.541278	0.113065	0.207104
C19	C	0.552897	-0.112162	0.192913
C20	C	0.456139	-0.113638	0.188568
C21	C	0.321618	0.000121	0.137958
C22	C	0.679195	0.000090	0.145723
C23	C	0.991398	0.000113	-0.047684
C24	C	0.980565	0.000109	-0.162761
C25	C	1.152885	0.000122	0.134267
C26	C	1.245998	0.000125	0.136309
N27	N	0.985930	0.281950	0.161701
N28	N	1.014890	-0.281736	0.121968
C29	C	1.075780	0.531255	0.038343
C30	C	1.069394	0.655918	0.047123
C31	C	0.966767	0.655940	0.188036
C32	C	0.973153	0.531277	0.179256
C33	C	1.027662	0.468939	0.104408
C34	C	1.034052	0.344275	0.095633
C35	C	0.931422	0.344298	0.236541
C36	C	0.925036	0.468961	0.245321
C37	C	1.110803	0.000100	-0.403724
C38	C	1.100628	0.000097	-0.511850
C39	C	0.950041	0.000091	-0.487141
C40	C	0.960216	0.000095	-0.379015
C41	C	1.040599	0.000101	-0.337311
C42	C	1.050773	0.000112	-0.229183
C43	C	0.900187	0.000098	-0.204476
C44	C	0.890012	0.000095	-0.312602
C45	C	1.009416	0.000099	0.331361
C46	C	1.020249	0.000094	0.446438
H47	H	0.573157	0.080922	-0.009333
H48	H	0.922381	0.706711	0.248969
H49	H	0.884597	0.000074	-0.521116
O50	O	0.803315	0.000105	-0.357582
H51	H	0.808031	0.000114	-0.443926
H52	H	0.562326	0.117888	0.291693
O53	O	1.176350	0.000110	-0.583478
H54	H	1.179470	-0.080615	-0.639013
H55	H	0.418995	0.116854	0.289466
O56	O	0.824459	0.000095	-0.132846
H57	H	0.845036	0.000092	-0.050652
O58	O	0.407849	0.224665	0.161092
H59	H	0.367490	0.277847	0.221321
O60	O	1.134547	0.463999	-0.042398
H61	H	1.181637	0.407183	-0.002752
H62	H	0.436476	-0.080336	-0.024273
H63	H	1.116225	0.000122	-0.195229
H64	H	0.580434	-0.080827	-0.021458
H65	H	0.428737	0.081942	-0.012625
O66	O	1.092835	0.277030	0.014902
H67	H	1.125213	0.341312	-0.029570
O68	O	0.566827	0.225251	0.162643
H69	H	0.509994	0.278926	0.140363
H70	H	0.582673	-0.197739	0.150635
O71	O	1.121295	0.723126	-0.024135
H72	H	1.107694	0.820286	-0.005463
O73	O	0.432791	-0.224257	0.125069
H74	H	0.393544	-0.198332	0.058817
O75	O	0.421749	-0.123122	0.297518
H76	H	0.375652	-0.046564	0.318860
H77	H	0.880653	0.519731	0.306259
O78	O	0.580477	-0.113631	0.304820
H79	H	0.616402	-0.034843	0.325310
H80	H	0.892244	0.293546	0.290338
H81	H	1.176253	0.000116	-0.369768
