data_functionalizedCrystal
_audit_creation_method	'MofGen! by Chris Wilmer'
_symmetry_space_group_name_H-M	'P1'
_symmetry_Int_Tables_number	1
_symmetry_cell_setting	triclinic
loop_
_symmetry_equiv_pos_as_xyz
  x,y,z
_cell_length_a	11.792241
_cell_length_b	11.892095
_cell_length_c	12.837942
_cell_angle_alpha	94.302569
_cell_angle_beta	89.511178
_cell_angle_gamma	86.078452
loop_
_atom_site_label
_atom_site_type_symbol
_atom_site_fract_x
_atom_site_fract_y
_atom_site_fract_z
O1	O	1.527863	-0.093891	0.135586
O2	O	1.199010	-0.093918	0.150236
O3	O	1.356144	-0.093898	-0.008033
O4	O	1.370729	-0.093911	0.293854
O5	O	1.343041	0.094108	0.005143
O6	O	1.185906	0.094088	0.163411
O7	O	1.514760	0.094114	0.148761
Zn8	Zn	1.348253	0.123951	0.158178
Zn9	Zn	1.365517	-0.123755	0.140819
O10	O	1.357626	0.094095	0.307030
C11	C	1.150074	0.000082	0.155903
C12	C	1.023782	0.000072	0.153148
N13	N	1.336478	0.293004	0.170025
N14	N	1.377300	-0.292807	0.128964
C15	C	0.792554	0.000105	0.148084
C16	C	0.921226	0.000087	0.150898
C17	C	1.563696	0.000112	0.143094
C18	C	1.689989	0.000115	0.145849
C19	C	1.344666	0.000104	-0.040093
C20	C	1.329972	0.000101	-0.155253
C21	C	1.459226	0.529667	0.046469
C22	C	1.451005	0.648008	0.054757
C23	C	1.311809	0.648029	0.194885
C24	C	1.320030	0.529688	0.186596
C25	C	1.393742	0.470511	0.112387
C26	C	1.401969	0.352168	0.104104
C27	C	1.262768	0.352191	0.244226
C28	C	1.254547	0.470532	0.252515
C29	C	1.506619	0.000091	-0.395219
C30	C	1.492818	0.000088	-0.503423
C31	C	1.288572	0.000084	-0.479866
C32	C	1.302373	0.000087	-0.371663
C33	C	1.411399	0.000092	-0.329343
C34	C	1.425198	0.000103	-0.221137
C35	C	1.220954	0.000091	-0.197583
C36	C	1.207153	0.000088	-0.305787
C37	C	1.369104	0.000091	0.339090
C38	C	1.383798	0.000086	0.454249
H39	H	1.461992	0.303987	0.043682
H40	H	1.194528	0.518727	0.312932
H41	H	1.118387	0.000079	-0.340259
C42	C	1.540311	0.464567	-0.035153
C43	C	1.524512	0.480837	-0.152145
C44	C	1.605599	0.415739	-0.233768
C45	C	1.702486	0.334371	-0.198400
C46	C	1.718290	0.318097	-0.081402
C47	C	1.637202	0.383195	0.000221
H48	H	1.452786	0.541074	-0.178332
H49	H	1.593900	0.427787	-0.320377
H50	H	1.762512	0.286182	-0.258822
H51	H	1.790015	0.257861	-0.055216
H52	H	1.648902	0.371147	0.086830
H53	H	1.199808	0.000067	-0.514343
H54	H	1.143419	0.000100	-0.143934
H55	H	1.513973	0.000112	-0.186683
H56	H	1.595392	0.000107	-0.360762
C57	C	1.190731	0.287115	0.316741
C58	C	1.109656	0.352207	0.398369
C59	C	1.037627	0.287129	0.470885
C60	C	1.046673	0.156959	0.461773
C61	C	1.127752	0.091859	0.380142
C62	C	1.199781	0.156937	0.307626
H63	H	1.102956	0.448574	0.405118
H64	H	0.977607	0.335321	0.531314
H65	H	0.993353	0.108784	0.515454
H66	H	1.134452	-0.004507	0.373394
H67	H	1.259801	0.108745	0.247197
C68	C	1.597560	0.000092	-0.575887
C69	C	1.622962	-0.097536	-0.660350
C70	C	1.727709	-0.097534	-0.732815
C71	C	1.807055	0.000096	-0.720818
C72	C	1.781656	0.097732	-0.636353
C73	C	1.676908	0.097729	-0.563887
H74	H	1.564223	-0.169814	-0.669233
H75	H	1.746510	-0.169810	-0.795342
H76	H	1.884595	0.000098	-0.774462
H77	H	1.840394	0.170010	-0.627469
H78	H	1.658107	0.170006	-0.501360
C79	C	1.523041	0.713081	-0.017751
C80	C	1.604136	0.647984	-0.099360
C81	C	1.676174	0.713057	-0.171872
C82	C	1.667118	0.843227	-0.162775
C83	C	1.586020	0.908332	-0.081163
C84	C	1.513982	0.843258	-0.008650
H85	H	1.610843	0.551617	-0.106097
H86	H	1.736208	0.664861	-0.232287
H87	H	1.720445	0.891398	-0.216453
H88	H	1.579313	1.004698	-0.074425
H89	H	1.453948	0.891454	0.051765
H90	H	1.251786	0.696226	0.255297
