data_functionalizedCrystal
_audit_creation_method	'MofGen! by Chris Wilmer'
_symmetry_space_group_name_H-M	'P1'
_symmetry_Int_Tables_number	1
_symmetry_cell_setting	triclinic
loop_
_symmetry_equiv_pos_as_xyz
  x,y,z
_cell_length_a	10.723024
_cell_length_b	10.723024
_cell_length_c	9.798715
_cell_angle_alpha	90.003391
_cell_angle_beta	90.002605
_cell_angle_gamma	84.467869
loop_
_atom_site_label
_atom_site_type_symbol
_atom_site_fract_x
_atom_site_fract_y
_atom_site_fract_z
O1	O	-0.175024	-1.657187	-0.113481
O2	O	-0.191778	-1.294035	-0.113485
O3	O	-0.001825	-1.483988	-0.113475
O4	O	-0.364977	-1.467234	-0.113490
O5	O	-0.001824	-1.483974	0.113507
O6	O	-0.191777	-1.294021	0.113497
O7	O	-0.175024	-1.657173	0.113502
Zn8	Zn	-0.183401	-1.475595	0.149538
Zn9	Zn	-0.183401	-1.475613	-0.149521
O10	O	-0.364977	-1.467220	0.113492
C11	C	-0.190558	-1.247528	0.000006
C12	C	-0.186911	-1.108974	0.000004
C13	C	0.044675	-1.482762	0.000015
C14	C	0.183229	-1.479114	0.000011
C15	C	0.258212	-1.585401	0.000012
C16	C	0.401415	-1.581634	0.000008
C17	C	-0.176243	-1.703680	0.000008
C18	C	-0.179891	-1.842234	0.000001
C19	C	0.588523	-1.468447	0.000002
C20	C	0.449969	-1.472094	0.000005
C21	C	-0.293198	-1.033991	-0.000001
C22	C	-0.289431	-0.890788	-0.000003
N23	N	-0.183399	-1.475591	0.353637
N24	N	-0.183393	-1.475627	-0.353621
C25	C	-0.103292	-1.555347	0.421418
C26	C	-0.103288	-1.555367	0.578581
H27	H	0.216390	-1.679187	0.000021
O28	O	-0.071245	-0.918957	0.000186
C29	C	-0.001299	-0.895712	0.117761
H30	H	-0.030978	-0.797210	0.156955
H31	H	-0.019061	-0.967020	0.200076
C32	C	0.175644	-1.028035	0.033917
C33	C	0.139199	-0.907049	0.082049
H34	H	0.262310	-1.035033	0.011891
H35	H	0.128519	-1.043700	-0.045294
H36	H	0.160832	-1.087445	0.102521
H37	H	0.153997	-0.847643	0.013440
H38	H	0.186330	-0.891374	0.161248
O39	O	-0.021323	-1.636669	0.351885
C40	C	0.102353	-1.615071	0.386695
H41	H	0.103667	-1.515178	0.426105
H42	H	0.138645	-1.683948	0.469487
C43	C	0.185039	-1.756065	0.211237
C44	C	0.186654	-1.633371	0.259631
H45	H	0.237042	-1.767359	0.132861
H46	H	0.101716	-1.770621	0.187787
H47	H	0.215279	-1.813449	0.280242
H48	H	0.156399	-1.575991	0.190632
H49	H	0.269974	-1.618806	0.283066
H50	H	-0.386984	-1.075814	0.000003
H51	H	-0.034709	-1.623654	0.636870
H52	H	-0.251984	-1.407345	0.588099
O53	O	-0.265047	-1.394090	0.423354
C54	C	-0.197669	-1.316389	0.505997
H55	H	-0.100341	-1.365019	0.527254
H56	H	-0.188659	-1.223986	0.451031
C57	C	-0.387252	-1.230912	0.615702
C58	C	-0.267716	-1.290646	0.641819
H59	H	-0.430461	-1.215027	0.699481
H60	H	-0.432647	-1.283257	0.560020
H61	H	-0.379727	-1.153917	0.569894
H62	H	-0.275243	-1.367646	0.687611
H63	H	-0.222323	-1.238313	0.697512
H64	H	0.465848	-1.672624	0.000015
O65	O	0.233257	-1.367298	-0.000175
C66	C	0.307715	-1.358613	-0.117752
H67	H	0.339160	-1.456725	-0.156944
H68	H	0.250740	-1.303833	-0.200068
C69	C	0.384914	-1.170089	-0.033914
C70	C	0.423544	-1.290593	-0.082044
H71	H	0.456360	-1.128126	-0.011891
H72	H	0.334746	-1.175937	0.045298
H73	H	0.337434	-1.124455	-0.102519
H74	H	0.471009	-1.336229	-0.013434
H75	H	0.473722	-1.284751	-0.161244
H76	H	-0.380421	-0.826355	-0.000013
H77	H	0.385544	-1.381099	0.000014
H78	H	-0.093125	-1.067152	-0.000027
