data_functionalizedCrystal
_audit_creation_method	'MofGen! by Chris Wilmer'
_symmetry_space_group_name_H-M	'P1'
_symmetry_Int_Tables_number	1
_symmetry_cell_setting	triclinic
loop_
_symmetry_equiv_pos_as_xyz
  x,y,z
_cell_length_a	10.654551
_cell_length_b	16.109301
_cell_length_c	14.586319
_cell_angle_alpha	90.005214
_cell_angle_beta	89.997068
_cell_angle_gamma	96.026624
loop_
_atom_site_label
_atom_site_type_symbol
_atom_site_fract_x
_atom_site_fract_y
_atom_site_fract_z
O1	O	1.666255	-0.116776	-0.076232
O2	O	1.300625	-0.127901	-0.076237
O3	O	1.493484	-0.001367	-0.076225
O4	O	1.473396	-0.243310	-0.076244
O5	O	1.493471	-0.001366	0.076256
O6	O	1.300612	-0.127899	0.076244
O7	O	1.666241	-0.116774	0.076249
Cu8	Cu	1.483425	-0.122337	0.090169
Cu9	Cu	1.483441	-0.122339	-0.090157
O10	O	1.473383	-0.243308	0.076237
C11	C	1.253832	-0.127083	0.000003
C12	C	1.114422	-0.124639	0.000002
N13	N	1.483423	-0.122334	0.217001
C14	C	1.492664	0.029613	0.000016
C15	C	1.490224	0.121923	0.000017
C16	C	0.917930	-0.121184	0.083120
C17	C	1.048919	-0.123488	0.083121
C18	C	1.048927	-0.123494	-0.083122
C19	C	0.917940	-0.121196	-0.083122
C20	C	0.852435	-0.120024	0.166244
C21	C	0.917920	-0.121170	0.249369
C22	C	1.048909	-0.123474	0.249369
C23	C	1.114413	-0.124632	0.166245
C24	C	1.713035	-0.117592	0.000007
C25	C	1.852445	-0.120037	0.000002
C26	C	1.474203	-0.274289	-0.000006
C27	C	1.476643	-0.366599	-0.000013
C28	C	1.598990	0.343549	0.000004
C29	C	1.596688	0.430283	-0.000003
C30	C	1.367868	0.411769	-0.000003
C31	C	1.370171	0.325037	-0.000002
C32	C	1.485736	0.290929	0.000006
C33	C	1.481131	0.464396	-0.000002
C34	C	1.478634	0.558436	-0.000010
C35	C	1.488234	0.196882	0.000013
N36	N	1.483453	-0.122334	-0.216989
C37	C	1.568850	-0.066325	0.452013
C38	C	1.568853	-0.066323	0.547994
C39	C	1.398018	-0.178347	0.547993
C40	C	1.398009	-0.178344	0.452013
C41	C	1.483432	-0.122334	0.404026
C42	C	1.483444	-0.122335	0.595987
C43	C	1.483448	-0.122333	0.700054
C44	C	1.483428	-0.122335	0.299952
H45	H	0.745777	-0.118147	0.166254
H46	H	1.693091	0.315781	0.000009
H47	H	1.638404	-0.020716	0.412943
H48	H	1.102271	-0.124437	-0.150798
Br49	Br	0.829058	-0.119647	-0.195926
H50	H	1.328446	-0.223954	0.412940
H51	H	1.328470	-0.223951	0.587074
H52	H	0.864577	-0.120234	0.317046
H53	H	1.102222	-0.124416	0.317053
H54	H	1.638406	-0.020713	0.587062
H55	H	1.688911	0.473123	-0.000007
Br56	Br	1.292183	-0.127770	0.166247
H57	H	1.273779	0.439551	-0.000007
H58	H	1.277940	0.282191	-0.000003
