data_functionalizedCrystal
_audit_creation_method	'MofGen! by Chris Wilmer'
_symmetry_space_group_name_H-M	'P1'
_symmetry_Int_Tables_number	1
_symmetry_cell_setting	triclinic
loop_
_symmetry_equiv_pos_as_xyz
  x,y,z
_cell_length_a	10.723024
_cell_length_b	15.995350
_cell_length_c	9.198806
_cell_angle_alpha	89.999047
_cell_angle_beta	89.996352
_cell_angle_gamma	83.980122
loop_
_atom_site_label
_atom_site_type_symbol
_atom_site_fract_x
_atom_site_fract_y
_atom_site_fract_z
O1	O	1.655690	0.117435	-0.120875
O2	O	1.292394	0.128675	-0.120879
O3	O	1.483973	0.001224	-0.120876
O4	O	1.464111	0.244886	-0.120879
O5	O	1.483957	0.001224	0.120909
O6	O	1.292379	0.128675	0.120906
O7	O	1.655674	0.117434	0.120910
Cu8	Cu	1.474025	0.123055	0.142985
Cu9	Cu	1.474043	0.123055	-0.142954
O10	O	1.464096	0.244885	0.120906
C11	C	1.245897	0.127857	0.000013
C12	C	1.107374	0.125410	0.000011
C13	C	1.031482	0.196725	0.000009
C14	C	0.888310	0.194197	0.000007
C15	C	1.483144	-0.029975	0.000014
C16	C	1.480682	-0.122940	0.000006
C17	C	1.471842	-0.460738	0.000011
C18	C	1.335403	-0.414088	-0.000533
C19	C	1.337865	-0.317383	0.000012
C20	C	1.476227	-0.293152	0.000007
C21	C	1.543515	-0.333843	0.138077
C22	C	1.540087	-0.430499	0.138192
C23	C	1.542923	-0.430840	-0.136763
C24	C	1.542891	-0.333895	-0.138587
C25	C	1.478712	-0.198441	0.000010
C26	C	1.469360	-0.555450	0.000017
C27	C	1.702171	0.118252	0.000015
C28	C	1.840694	0.120700	0.000007
C29	C	1.464924	0.276085	0.000013
C30	C	1.467386	0.369049	0.000012
N31	N	1.474022	0.123054	0.344099
N32	N	1.474056	0.123049	-0.344068
C33	C	1.554463	0.069305	0.416297
C34	C	1.554482	0.069302	0.583709
H35	H	0.905898	0.059646	-0.000001
H36	H	1.284604	-0.289825	0.099153
N37	N	0.801964	0.275081	0.000013
H38	H	0.747304	0.277490	-0.089615
H39	H	0.747381	0.277433	0.089704
N40	N	1.475079	-0.455124	0.274903
H41	H	1.448912	-0.403213	0.334523
H42	H	1.398493	-0.483516	0.248033
N43	N	1.645720	0.008350	0.665942
H44	H	1.631129	-0.051137	0.639537
H45	H	1.734318	0.018433	0.639467
H46	H	1.405162	0.169065	0.406225
N47	N	1.645661	0.008354	0.333991
H48	H	1.734316	0.018351	0.360368
H49	H	1.630957	-0.051106	0.360431
N50	N	1.053045	0.042055	0.000025
H51	H	0.999694	0.037750	-0.089603
H52	H	1.123427	-0.005143	0.000083
N53	N	1.267801	-0.280129	-0.131083
H54	H	1.235034	-0.326523	-0.189746
H55	H	1.195239	-0.239189	-0.097990
N56	N	1.382814	0.184002	0.573709
H57	H	1.329143	0.219868	0.644915
H58	H	1.430789	0.221180	0.510543
N59	N	1.483845	-0.458382	-0.275384
H60	H	1.530895	-0.438541	-0.361759
H61	H	1.487592	-0.521728	-0.277184
N62	N	1.481585	-0.296620	0.274185
H63	H	1.525544	-0.323207	0.362437
H64	H	1.487132	-0.233983	0.275625
N65	N	1.085792	0.280086	0.000009
H66	H	1.139140	0.284391	0.089640
H67	H	1.139090	0.284339	-0.089679
N68	N	1.263160	-0.439047	-0.131677
H69	H	1.318169	-0.480839	-0.192013
H70	H	1.186446	-0.465425	-0.098606
N71	N	1.263469	-0.440447	0.129883
H72	H	1.318878	-0.482476	0.189316
H73	H	1.236257	-0.389493	0.191427
H74	H	1.640258	-0.462172	0.144454
H75	H	1.493695	-0.306929	-0.240727
H76	H	1.645165	-0.319134	0.143208
N77	N	1.676547	-0.312786	-0.149645
H78	H	1.695867	-0.276353	-0.064588
H79	H	1.735405	-0.366387	-0.148462
N80	N	1.676174	-0.472140	-0.138007
H81	H	1.690483	-0.510035	-0.050454
H82	H	1.691083	-0.506498	-0.229663
