data_functionalizedCrystal
_audit_creation_method	'MofGen! by Chris Wilmer'
_symmetry_space_group_name_H-M	'P1'
_symmetry_Int_Tables_number	1
_symmetry_cell_setting	triclinic
loop_
_symmetry_equiv_pos_as_xyz
  x,y,z
_cell_length_a	8.634740
_cell_length_b	8.559649
_cell_length_c	15.455313
_cell_angle_alpha	92.289439
_cell_angle_beta	86.904370
_cell_angle_gamma	85.174486
loop_
_atom_site_label
_atom_site_type_symbol
_atom_site_fract_x
_atom_site_fract_y
_atom_site_fract_z
O1	O	1.992921	0.505789	-0.072120
O2	O	1.549050	0.462887	-0.072123
O3	O	1.810090	0.257757	-0.072120
O4	O	1.731880	0.710919	-0.072122
O5	O	1.795170	0.269430	0.072142
O6	O	1.534129	0.474560	0.072139
O7	O	1.978000	0.517463	0.072142
Cu8	Cu	1.754702	0.497077	0.085313
Cu9	Cu	1.772348	0.483272	-0.085293
O10	O	1.716959	0.722593	0.072140
C11	C	1.485290	0.459004	0.000008
C12	C	1.317539	0.430026	0.000007
C13	C	1.808557	0.204976	0.000009
C14	C	1.826200	0.030311	0.000005
C15	C	2.041760	0.521345	0.000010
C16	C	2.209512	0.550323	0.000005
C17	C	1.718492	0.775373	0.000008
C18	C	1.700850	0.950037	0.000007
N19	N	1.742302	0.506788	0.205308
N20	N	1.784761	0.473551	-0.205289
C21	C	1.853231	0.419684	0.250704
C22	C	1.843866	0.427045	0.341511
C23	C	1.723577	0.521518	0.386922
C24	C	1.612637	0.608625	0.341521
C25	C	1.621997	0.601255	0.250715
C26	C	1.683181	0.553287	0.658503
C27	C	1.673832	0.560654	0.749316
C28	C	1.905060	0.379071	0.749300
C29	C	1.914415	0.371717	0.658492
C30	C	1.803470	0.458817	0.613099
N31	N	1.714004	0.529048	0.479743
N32	N	1.813038	0.451278	0.520280
H33	H	1.580035	0.014934	0.000009
H34	H	1.281693	0.304864	-0.000015
Br35	Br	1.269255	0.758951	0.000016
H36	H	1.947022	-0.034593	0.000012
Br37	Br	1.532620	0.671494	0.596903
H38	H	1.951189	0.342762	0.213736
Br39	Br	1.994410	0.308825	0.403122
Br40	Br	1.449373	0.736829	0.403146
Br41	Br	2.077670	0.243510	0.596862
Br42	Br	2.055618	0.260867	0.810909
Br43	Br	1.510573	0.688888	0.810940
H44	H	1.531665	0.672182	0.213755
