data_functionalizedCrystal
_audit_creation_method	'MofGen! by Chris Wilmer'
_symmetry_space_group_name_H-M	'P1'
_symmetry_Int_Tables_number	1
_symmetry_cell_setting	triclinic
loop_
_symmetry_equiv_pos_as_xyz
  x,y,z
_cell_length_a	10.654547
_cell_length_b	10.654541
_cell_length_c	10.065918
_cell_angle_alpha	99.738916
_cell_angle_beta	99.784158
_cell_angle_gamma	84.484992
loop_
_atom_site_label
_atom_site_type_symbol
_atom_site_fract_x
_atom_site_fract_y
_atom_site_fract_z
O1	O	1.684465	0.192951	0.113518
O2	O	1.318986	0.209753	0.113515
O3	O	1.510129	0.018612	0.113508
O4	O	1.493322	0.384093	0.113525
O5	O	1.476866	-0.014459	-0.113482
O6	O	1.285723	0.176683	-0.113475
O7	O	1.651202	0.159881	-0.113472
Zn8	Zn	1.463182	0.163031	-0.149513
Zn9	Zn	1.507007	0.206603	0.149556
O10	O	1.460059	0.351022	-0.113465
C11	C	1.255557	0.191984	0.000020
C12	C	1.116114	0.188290	0.000019
C13	C	1.492264	-0.044721	0.000014
C14	C	1.488574	-0.184165	0.000016
C15	C	0.890361	0.217385	0.247508
C16	C	0.974010	0.237149	0.371241
C17	C	1.105027	0.240628	0.371237
C18	C	1.152396	0.224338	0.247488
C19	C	1.068746	0.204575	0.123755
C20	C	0.937728	0.201101	0.123772
C21	C	1.032464	0.168526	-0.123714
C22	C	0.901445	0.165056	-0.123713
C23	C	1.079833	0.152236	-0.247463
C24	C	0.996181	0.132481	-0.371199
C25	C	0.865157	0.129004	-0.371190
C26	C	0.817796	0.145292	-0.247446
C27	C	1.717136	-0.212136	0.000001
C28	C	1.829677	-0.291630	-0.000010
C29	C	1.826202	-0.422648	-0.000006
C30	C	1.710174	-0.474171	0.000013
C31	C	1.597633	-0.394677	0.000024
C32	C	1.601119	-0.263658	0.000016
C33	C	1.369075	-0.366705	0.000049
C34	C	1.372546	-0.235688	0.000035
C35	C	1.253047	-0.418228	0.000068
C36	C	1.140501	-0.338735	0.000069
C37	C	1.143981	-0.207710	0.000063
C38	C	1.260004	-0.156194	0.000046
C39	C	1.714632	0.177651	0.000026
C40	C	1.854077	0.181346	0.000036
C41	C	1.477925	0.414356	0.000032
C42	C	1.481616	0.553801	0.000039
N43	N	1.433281	0.133294	-0.353620
C44	C	1.496595	0.196257	-0.421396
C45	C	1.473594	0.173358	-0.578564
N46	N	1.536917	0.236331	0.353663
H47	H	0.783680	0.214571	0.247523
O48	O	1.041990	0.116576	-0.491518
C49	C	0.992179	0.080533	-0.736981
C50	C	0.940129	0.098497	-0.600817
H51	H	0.909847	0.065938	-0.825385
H52	H	1.063290	-0.006520	-0.743269
H53	H	1.041937	0.168984	-0.743085
H54	H	0.890309	0.010117	-0.594622
H55	H	0.869081	0.185602	-0.594587
H56	H	1.402358	0.102493	-0.636890
H57	H	0.935429	0.250407	0.471995
H58	H	1.262847	-0.049515	0.000033
H59	H	1.567835	0.267109	-0.363066
O60	O	1.621814	0.320874	-0.576559
C61	C	1.722230	0.420692	-0.356288
C62	C	1.626035	0.324932	-0.435140
H63	H	1.725695	0.423985	-0.241938
H64	H	1.691326	0.519588	-0.384205
H65	H	1.820963	0.389326	-0.384361
H66	H	1.527272	0.356180	-0.407110
H67	H	1.657048	0.226058	-0.407216
H68	H	1.250227	-0.524909	0.000080
H69	H	1.362050	0.062433	-0.411950
H70	H	1.173137	0.256720	0.471991
H71	H	1.052336	-0.142991	0.000078
H72	H	1.719974	-0.105458	-0.000021
O73	O	0.783881	0.109583	-0.491353
C74	C	0.628139	-0.023840	-0.634945
C75	C	0.720147	-0.002012	-0.498825
H76	H	0.576566	-0.114047	-0.641018
H77	H	0.684453	-0.034977	-0.723435
H78	H	0.555214	0.061413	-0.641112
H79	H	0.793091	-0.087231	-0.492524
H80	H	0.663748	0.009179	-0.410399
H81	H	1.259081	0.227157	0.247496
H82	H	1.707357	-0.580851	0.000033
H83	H	0.711116	0.142470	-0.247427
O84	O	1.935523	-0.499892	0.000226
C85	C	2.081431	-0.646980	0.117771
C86	C	1.957622	-0.559527	0.117694
H87	H	2.099323	-0.695239	0.212718
H88	H	2.165019	-0.587707	0.117848
H89	H	2.071559	-0.722811	0.022733
H90	H	1.967369	-0.483681	0.212715
H91	H	1.874081	-0.618885	0.117545
H92	H	1.924144	-0.249667	-0.000037
H93	H	1.186516	0.155062	-0.247457
H94	H	1.046041	-0.380695	0.000094
