data_functionalizedCrystal
_audit_creation_method	'MofGen! by Chris Wilmer'
_symmetry_space_group_name_H-M	'P1'
_symmetry_Int_Tables_number	1
_symmetry_cell_setting	triclinic
loop_
_symmetry_equiv_pos_as_xyz
  x,y,z
_cell_length_a	23.532407
_cell_length_b	23.532407
_cell_length_c	17.666332
_cell_angle_alpha	89.993322
_cell_angle_beta	89.988854
_cell_angle_gamma	82.848712
loop_
_atom_site_label
_atom_site_type_symbol
_atom_site_fract_x
_atom_site_fract_y
_atom_site_fract_z
O1	O	0.069136	0.755263	-0.062908
O2	O	0.079139	0.589400	-0.062921
O3	O	-0.008794	0.677333	-0.062900
O4	O	0.157069	0.667330	-0.062929
O5	O	-0.008799	0.677318	0.062996
O6	O	0.079135	0.589385	0.062976
O7	O	0.069132	0.755248	0.062989
Cu8	Cu	0.074133	0.672315	0.074477
Cu9	Cu	0.074138	0.672333	-0.074410
O10	O	0.157065	0.667315	0.062968
C11	C	0.078882	0.568176	0.000026
C12	C	0.078116	0.504959	0.000021
C13	C	-0.030012	0.677071	0.000050
C14	C	-0.093229	0.676305	0.000056
C15	C	0.022921	0.238792	0.000051
C16	C	0.023632	0.298192	0.000051
O17	O	-0.020153	0.334937	0.000085
N18	N	0.075909	0.320818	0.000037
C19	C	0.127477	0.284041	0.000031
O20	O	0.172007	0.308740	0.000019
C21	C	0.126765	0.224642	0.000037
C22	C	0.074485	0.202019	0.000043
C23	C	-0.029354	0.216168	0.000059
C24	C	-0.030066	0.156772	0.000058
C25	C	0.021499	0.119999	0.000049
C26	C	0.073774	0.142623	0.000042
C27	C	0.178333	0.187865	0.000036
C28	C	0.177616	0.128463	0.000042
C29	C	0.125336	0.105840	0.000049
C30	C	0.124627	0.046454	0.000032
N31	N	0.072351	0.023828	0.000047
C32	C	0.020787	0.060600	0.000055
C33	C	0.128968	0.408783	0.000020
C34	C	0.129681	0.468181	0.000009
C35	C	0.025836	0.482328	0.000031
C36	C	0.025124	0.422929	0.000036
C37	C	0.076692	0.386157	0.000034
C38	C	0.019297	-0.064136	0.000052
C39	C	0.018590	-0.123538	0.000048
C40	C	0.122435	-0.137680	0.000030
C41	C	0.123142	-0.078284	0.000030
C42	C	0.071568	-0.041512	0.000044
O43	O	0.168390	0.009675	0.000002
O44	O	-0.023737	0.035892	0.000076
C45	C	-0.492332	0.723538	0.000018
C46	C	-0.551733	0.722827	0.000012
O47	O	-0.588477	0.766613	-0.000012
N48	N	-0.574359	0.670551	0.000008
C49	C	-0.537581	0.618982	0.000003
O50	O	-0.562281	0.574452	-0.000001
C51	C	-0.478182	0.619695	0.000003
C52	C	-0.455559	0.671974	0.000015
C53	C	-0.469709	0.775814	0.000028
C54	C	-0.410313	0.776525	0.000035
C55	C	-0.373540	0.724961	0.000032
C56	C	-0.396163	0.672685	0.000022
C57	C	-0.441406	0.568127	-0.000007
C58	C	-0.382003	0.568843	-0.000008
C59	C	-0.359381	0.621123	0.000004
C60	C	-0.299994	0.621832	0.000026
N61	N	-0.277368	0.674109	0.000029
C62	C	-0.314141	0.725673	0.000033
C63	C	-0.662324	0.617491	0.000001
C64	C	-0.721722	0.616778	0.000006
C65	C	-0.735869	0.720623	0.000014
C66	C	-0.676470	0.721335	0.000014
C67	C	-0.639698	0.669767	0.000004
C68	C	-0.189404	0.727163	0.000048
C69	C	-0.130002	0.727869	0.000059
C70	C	-0.115860	0.624025	0.000047
C71	C	-0.175257	0.623318	0.000041
C72	C	-0.212028	0.674891	0.000039
O73	O	-0.263215	0.578069	0.000047
O74	O	-0.289433	0.770196	0.000027
C75	C	0.178283	0.667577	0.000016
C76	C	0.241500	0.668343	0.000005
C77	C	0.069389	0.776472	0.000040
C78	C	0.070155	0.839689	0.000039
N79	N	0.074129	0.672306	0.179197
N80	N	0.074138	0.672346	-0.179130
C81	C	0.035211	0.711256	0.218816
C82	C	0.035208	0.711259	0.298063
C83	C	0.074133	0.672318	0.337689
C84	C	0.113054	0.633362	0.298061
C85	C	0.113052	0.633356	0.218814
N86	N	0.124568	0.664784	0.462099
N87	N	0.124568	0.664793	0.537379
C88	C	0.074141	0.672333	0.576453
N89	N	0.023712	0.679876	0.537403
N90	N	0.023712	0.679869	0.462115
C91	C	0.074139	0.672320	0.423618
C92	C	0.035217	0.711288	0.702001
C93	C	0.035213	0.711288	0.781250
C94	C	0.113064	0.633393	0.781246
C95	C	0.113063	0.633391	0.701998
C96	C	0.074139	0.672342	0.662381
H97	H	-0.023984	-0.141954	0.000051
H98	H	-0.017447	0.404515	0.000042
H99	H	-0.459814	0.525555	-0.000021
H100	H	0.144755	0.601677	0.669738
H101	H	0.219610	0.098525	0.000044
C102	C	-0.036758	-0.024314	0.000021
C103	C	-0.082685	-0.056850	0.000005
C104	C	-0.134330	-0.020186	-0.000041
H105	H	-0.038730	-0.000836	0.043910
H106	H	-0.038669	-0.000854	-0.043902
H107	H	-0.080775	-0.080300	0.043922
H108	H	-0.080732	-0.080327	-0.043882
H109	H	-0.136241	0.003273	-0.043964
H110	H	-0.136296	0.003290	0.043849
H111	H	-0.165497	-0.042256	-0.000059
H112	H	-0.219337	0.769159	0.000044
C113	C	-0.086886	0.132326	0.000115
C114	C	-0.131885	0.177253	0.000146
C115	C	-0.184239	0.154760	0.000213
H116	H	-0.089411	0.109460	-0.043772
H117	H	-0.089355	0.109466	0.044040
H118	H	-0.129418	0.200104	-0.043775
H119	H	-0.129379	0.200124	0.044029
H120	H	-0.186707	0.131900	0.044138
H121	H	-0.186758	0.131894	-0.043674
H122	H	-0.214777	0.185239	0.000241
H123	H	-0.632386	0.575496	-0.000000
H124	H	0.003515	0.742977	0.330327
C125	C	0.155291	0.591147	0.341216
C126	C	0.146974	0.599500	0.419097
C127	C	0.185877	0.560624	0.458873
H128	H	0.149335	0.553148	0.328335
H129	H	0.193282	0.597118	0.328256
H130	H	0.108993	0.593524	0.432051
H131	H	0.152935	0.637490	0.432000
H132	H	0.223868	0.566595	0.445914
H133	H	0.179918	0.522628	0.445987
H134	H	0.180243	0.566289	0.511720
H135	H	0.164417	-0.167631	0.000019
C136	C	0.184943	0.368833	0.000159
C137	C	0.187583	0.334323	0.064939
C138	C	0.239140	0.297523	0.065098
H139	H	0.186880	0.345316	-0.043693
H140	H	0.216192	0.390799	0.000188
H141	H	0.156342	0.312359	0.064903
H142	H	0.185655	0.357824	0.108801
H143	H	0.270389	0.319490	0.065128
H144	H	0.241073	0.274010	0.021244
H145	H	0.240940	0.274108	0.109054
H146	H	-0.391900	0.819097	0.000041
C147	C	-0.775733	0.776653	-0.000109
C148	C	-0.765534	0.808163	-0.064869
C149	C	-0.802241	0.859781	-0.065002
H150	H	-0.814368	0.768820	-0.000153
H151	H	-0.768909	0.798133	0.043772
H152	H	-0.772363	0.786688	-0.108739
H153	H	-0.726906	0.816012	-0.064839
H154	H	-0.795416	0.881260	-0.021121
H155	H	-0.840873	0.851942	-0.065044
H156	H	-0.795322	0.881169	-0.108937
H157	H	0.003521	0.743003	0.669743
C158	C	0.235154	0.212306	0.000074
C159	C	0.280151	0.167377	0.000094
C160	C	0.332506	0.189868	0.000143
H161	H	0.237683	0.235177	-0.043816
H162	H	0.237619	0.235161	0.043996
H163	H	0.277687	0.144531	-0.043823
H164	H	0.277640	0.144502	0.043981
H165	H	0.334971	0.212724	0.044064
H166	H	0.335030	0.212739	-0.043748
H167	H	0.363043	0.159388	0.000163
C168	C	-0.030168	0.522233	-0.000109
C169	C	-0.061663	0.512073	-0.064881
C170	C	-0.113250	0.548827	-0.065041
H171	H	-0.051687	0.515438	0.043748
H172	H	-0.022277	0.560856	-0.000152
H173	H	-0.069555	0.473458	-0.064832
H174	H	-0.040161	0.518871	-0.108749
H175	H	-0.105359	0.587451	-0.065083
H176	H	-0.134763	0.542029	-0.021181
H177	H	-0.134623	0.541942	-0.108991
C178	C	-0.342174	0.512792	0.000021
C179	C	-0.374705	0.466861	0.000029
C180	C	-0.338036	0.415219	0.000067
H181	H	-0.318687	0.510836	-0.043868
H182	H	-0.318724	0.510870	0.043943
H183	H	-0.398146	0.468782	-0.043889
H184	H	-0.398191	0.468798	0.043915
H185	H	-0.314586	0.413297	0.043989
H186	H	-0.314551	0.413269	-0.043823
H187	H	-0.360103	0.384049	0.000079
H188	H	0.144744	0.601638	0.186556
C189	C	-0.746169	0.559958	-0.000036
C190	C	-0.701244	0.514957	-0.000056
C191	C	-0.723740	0.462605	-0.000110
H192	H	-0.769045	0.557432	0.043852
H193	H	-0.769020	0.557494	-0.043960
H194	H	-0.678402	0.517420	0.043864
H195	H	-0.678364	0.517464	-0.043940
H196	H	-0.746591	0.460141	-0.044033
H197	H	-0.746616	0.460085	0.043779
H198	H	-0.693262	0.432065	-0.000130
C199	C	0.155261	0.591022	0.824217
C200	C	0.146298	0.535112	0.804972
C201	C	0.185154	0.496062	0.844553
H202	H	0.193266	0.596911	0.811249
H203	H	0.149687	0.596563	0.877096
H204	H	0.151877	0.529573	0.752105
H205	H	0.108301	0.529205	0.817942
H206	H	0.179579	0.501603	0.897431
H207	H	0.223155	0.501956	0.831582
H208	H	0.179074	0.458123	0.831506
H209	H	0.165712	-0.059864	0.000024
C210	C	-0.105552	0.784692	0.000029
C211	C	-0.150475	0.829695	0.000007
C212	C	-0.127976	0.882046	-0.000033
H213	H	-0.082692	0.787207	0.043922
H214	H	-0.082683	0.787165	-0.043890
H215	H	-0.173334	0.827224	0.043921
H216	H	-0.173338	0.827199	-0.043883
H217	H	-0.105107	0.884519	-0.043951
H218	H	-0.105116	0.884555	0.043861
H219	H	-0.158452	0.912587	-0.000055
H220	H	0.172252	0.486595	-0.000007
C221	C	-0.007068	0.753644	0.824132
C222	C	-0.041142	0.787762	0.772471
C223	C	-0.080092	0.826793	0.811946
H224	H	-0.030730	0.733366	0.855061
H225	H	0.013289	0.777263	0.855017
H226	H	-0.061498	0.764146	0.741598
H227	H	-0.017496	0.808052	0.741540
H228	H	-0.059734	0.850412	0.842831
H229	H	-0.103750	0.806511	0.842874
H230	H	-0.103212	0.849950	0.776900
H231	H	-0.085909	0.582043	0.000047
C232	C	-0.085302	0.256154	-0.000056
C233	C	-0.087921	0.290677	-0.064823
C234	C	-0.139451	0.327519	-0.064956
H235	H	-0.116579	0.234236	-0.000090
H236	H	-0.087198	0.279655	0.043821
H237	H	-0.086030	0.267179	-0.108688
H238	H	-0.056655	0.312607	-0.064803
H239	H	-0.141347	0.351020	-0.021080
H240	H	-0.170724	0.305597	-0.064988
H241	H	-0.141232	0.350951	-0.108896
H242	H	0.003516	0.742970	0.186561
C243	C	-0.509534	0.831865	0.000074
C244	C	-0.476995	0.877790	0.000102
C245	C	-0.513658	0.929437	0.000161
H246	H	-0.533010	0.833841	-0.043815
H247	H	-0.532995	0.833773	0.043997
H248	H	-0.453544	0.875883	-0.043816
H249	H	-0.453521	0.875833	0.043988
H250	H	-0.537119	0.931345	0.044084
H251	H	-0.537132	0.931407	-0.043728
H252	H	-0.491586	0.960603	0.000187
H253	H	-0.658055	0.763906	0.000022
H254	H	-0.193677	0.580747	0.000053
