data_functionalizedCrystal
_audit_creation_method	'MofGen! by Chris Wilmer'
_symmetry_space_group_name_H-M	'P1'
_symmetry_Int_Tables_number	1
_symmetry_cell_setting	triclinic
loop_
_symmetry_equiv_pos_as_xyz
  x,y,z
_cell_length_a	23.096457
_cell_length_b	17.917603
_cell_length_c	17.917595
_cell_angle_alpha	119.861888
_cell_angle_beta	89.998529
_cell_angle_gamma	63.033951
loop_
_atom_site_label
_atom_site_type_symbol
_atom_site_fract_x
_atom_site_fract_y
_atom_site_fract_z
Zr1	Zr	0.590800	0.806869	0.129088
O2	O	0.507721	0.951901	0.249620
O3	O	0.612298	0.654641	0.087437
O4	O	0.622785	0.796495	0.242847
O5	O	0.493478	0.820740	-0.023032
O6	O	0.718066	0.796496	0.242851
O7	O	0.497234	0.810047	0.094211
O8	O	0.699306	0.542746	-0.035148
O9	O	0.512238	1.074490	0.254968
O10	O	0.697370	0.719921	0.075356
O11	O	0.623460	0.727899	-0.012144
O12	O	0.635807	0.894913	0.170831
O13	O	0.561897	0.902892	0.083331
Zr14	Zr	0.736771	0.823925	-0.057893
Zr15	Zr	0.742762	0.806871	0.129095
Zr16	Zr	0.584809	0.823922	-0.057900
Zr17	Zr	0.598003	1.002384	0.137616
Zr18	Zr	0.729568	0.628409	-0.066422
O19	O	0.715273	0.976152	-0.016243
O20	O	0.723791	0.951905	0.249630
O21	O	0.499203	0.976149	-0.016253
O22	O	0.819849	0.678892	-0.178426
O23	O	0.828368	0.654645	0.087447
O24	O	0.603780	0.678888	-0.178436
O25	O	0.834093	0.810053	0.094226
O26	O	0.704785	0.834299	-0.171653
O27	O	0.609505	0.834297	-0.171657
O28	O	0.830337	0.820746	-0.023016
O29	O	0.633027	1.074492	0.254973
O30	O	0.694544	0.556301	-0.183779
O31	O	0.815333	0.556303	-0.183774
O32	O	0.820095	0.542748	-0.035143
O33	O	0.507476	1.088045	0.106337
O34	O	0.628265	1.088047	0.106343
O35	O	0.691763	0.735880	-0.099637
O36	O	0.765674	0.727901	-0.012137
O37	O	0.704111	0.902894	0.083338
O38	O	0.630201	0.910873	-0.004162
C39	C	0.654776	0.570837	0.024929
C40	C	0.651718	0.487835	0.021309
C41	C	0.646131	0.335868	0.014697
C42	C	0.681438	0.294920	0.056495
C43	C	0.678329	0.210361	0.052817
C44	C	0.649239	0.420436	0.018375
C45	C	0.473705	0.815393	0.035588
C46	C	0.409193	0.815392	0.035585
C47	C	0.411023	0.724050	-0.014243
C48	C	0.350407	0.724049	-0.014247
C49	C	0.287963	0.815394	0.035595
C50	C	0.286136	0.906749	0.085426
C51	C	0.346751	0.906748	0.085421
N52	N	0.170168	0.879708	0.113031
N53	N	0.112588	0.879703	0.113034
C54	C	0.105331	0.815402	0.035611
N55	N	0.157834	0.751091	-0.041814
N56	N	0.215420	0.751093	-0.041815
C57	C	0.222232	0.815405	0.035605
C58	C	0.041436	0.724052	-0.014226
C59	C	-0.019182	0.724055	-0.014232
C60	C	-0.083452	0.906757	0.085449
C61	C	-0.022835	0.906752	0.085447
C62	C	0.039607	0.815396	0.035611
C63	C	0.853866	0.815400	0.035606
C64	C	0.918378	0.815401	0.035609
C65	C	0.671279	0.794066	0.269491
C66	C	0.673823	0.786826	0.348872
C67	C	0.672795	1.059957	0.046265
C68	C	0.675853	1.142958	0.049886
C69	C	0.678483	0.773602	0.494228
C70	C	0.649077	0.857195	0.576973
C71	C	0.651670	0.849838	0.657855
C72	C	0.675891	0.780958	0.413338
C73	C	0.656288	0.836730	0.801705
C74	C	0.653736	0.843976	0.722327
C75	C	0.844857	0.570840	0.024938
C76	C	0.906310	0.487840	0.021320
C77	C	0.647282	0.592168	-0.208964
C78	C	0.641681	0.516406	-0.291966
C79	C	0.837363	0.592171	-0.208956
C80	C	0.896273	0.516410	-0.291955
C81	C	0.490208	1.038622	0.280150
C82	C	0.431298	1.114383	0.363149
C83	C	0.482714	1.059953	0.046256
C84	C	0.421260	1.142954	0.049874
C85	C	0.680289	1.038626	0.280159
C86	C	0.685890	1.114388	0.363161
C87	C	0.899516	0.444695	0.065300
C88	C	0.957254	0.366717	0.061919
C89	C	1.021785	0.331880	0.014552
C90	C	1.028578	0.375032	-0.029429
C91	C	0.970841	0.453014	-0.026042
C92	C	0.674704	0.484994	-0.376624
C93	C	0.669439	0.413819	-0.454619
C94	C	0.631154	0.374052	-0.447956
C95	C	0.598127	0.405471	-0.363290
C96	C	0.603388	0.476650	-0.285296
C97	C	0.962525	0.476668	-0.285258
C98	C	1.017884	0.405492	-0.363237
C99	C	1.006990	0.374056	-0.447912
C100	C	0.940731	0.413806	-0.454606
C101	C	0.885374	0.484985	-0.376628
C102	C	0.365046	1.154135	0.356453
C103	C	0.309688	1.225335	0.434432
C104	C	0.320582	1.256775	0.519108
C105	C	0.386841	1.217020	0.525802
C106	C	0.442198	1.145827	0.447824
C107	C	0.428055	1.186106	0.005903
C108	C	0.370319	1.264104	0.009305
C109	C	0.305788	1.298943	0.056675
C110	C	0.298995	1.255788	0.100652
C111	C	0.356731	1.177796	0.097254
C112	C	0.724180	1.154132	0.356469
C113	C	0.729456	1.225309	0.434450
C114	C	0.696438	1.256745	0.519123
C115	C	0.658146	1.216992	0.525813
C116	C	0.652874	1.145812	0.447832
H117	H	0.461862	0.649660	-0.054818
H118	H	0.700736	1.314706	0.582613
H119	H	0.971408	0.502252	-0.216319
H120	H	0.255742	1.257692	0.428964
H121	H	0.496141	1.113461	0.453286
C122	C	1.090762	0.361770	-0.355853
N123	N	1.145653	0.328838	-0.350288
H124	H	1.052072	0.316097	-0.511399
H125	H	0.345256	0.981132	0.125996
H126	H	0.951710	0.331591	0.097733
C127	C	0.377806	1.311553	-0.039084
N128	N	0.383447	1.347288	-0.075533
C129	C	0.725424	0.333356	0.108576
N130	N	0.758551	0.362311	0.147803
C131	C	0.715115	0.669460	0.480590
N132	N	0.742702	0.591022	0.470327
C133	C	1.099567	0.336692	-0.081537
N134	N	1.153038	0.307806	-0.120790
H135	H	0.626875	0.316095	-0.511471
C136	C	0.760512	1.119561	0.263335
N137	N	0.787883	1.093522	0.193189
H138	H	0.356162	1.128540	0.287513
C139	C	0.928758	0.379207	-0.547758
N140	N	0.919742	0.353138	-0.617923
H141	H	0.831430	0.517335	-0.382094
H142	H	0.275501	1.314745	0.582596
C143	C	0.242283	1.384733	0.060399
N144	N	0.194453	1.449348	0.063198
H145	H	0.760636	1.257669	0.428986
C146	C	0.612427	0.961345	0.590616
N147	N	0.584819	1.039787	0.600886
H148	H	0.846978	0.473057	0.103882
H149	H	0.351189	1.142664	0.133058
C150	C	0.398813	1.251605	0.618953
N151	N	0.407828	1.277651	0.689117
H152	H	0.235290	0.981122	0.126007
C153	C	0.499034	1.147802	-0.046205
N154	N	0.552494	1.118961	-0.085451
C155	C	0.602140	0.297443	-0.037368
N156	N	0.569003	0.268497	-0.076579
H157	H	0.246447	1.284166	0.139219
C158	C	0.610740	1.102114	0.455210
N159	N	0.579000	1.069207	0.460773
H160	H	0.631264	1.242599	0.594764
H161	H	0.351897	0.649664	-0.054824
H162	H	0.092279	0.649667	-0.054824
C163	C	-0.017164	0.623565	-0.069044
N164	N	-0.015644	0.547874	-0.110326
C165	C	0.716818	0.528731	-0.383975
N166	N	0.748535	0.561675	-0.389519
H167	H	-0.134295	0.981132	0.126032
H168	H	-0.024327	0.981132	0.126029
H169	H	1.068792	0.268380	0.011800
H170	H	0.696337	0.388247	-0.523550
C171	C	0.556019	0.361711	-0.355976
N172	N	0.524307	0.328744	-0.350470
C173	C	0.567066	0.511183	-0.192176
N174	N	0.539706	0.537188	-0.122038
H175	H	0.976382	0.488133	-0.061861
