data_functionalizedCrystal
_audit_creation_method	'MofGen! by Chris Wilmer'
_symmetry_space_group_name_H-M	'P1'
_symmetry_Int_Tables_number	1
_symmetry_cell_setting	triclinic
loop_
_symmetry_equiv_pos_as_xyz
  x,y,z
_cell_length_a	14.971482
_cell_length_b	15.711784
_cell_length_c	14.048226
_cell_angle_alpha	89.997727
_cell_angle_beta	89.994098
_cell_angle_gamma	101.600705
loop_
_atom_site_label
_atom_site_type_symbol
_atom_site_fract_x
_atom_site_fract_y
_atom_site_fract_z
O1	O	1.223691	0.112670	-0.079143
O2	O	0.967692	0.126167	-0.079147
O3	O	1.061625	-0.006448	-0.079144
O4	O	1.129757	0.245285	-0.079146
O5	O	1.061606	-0.006456	0.079177
O6	O	0.967673	0.126159	0.079174
O7	O	1.223672	0.112662	0.079178
Zn8	Zn	1.095669	0.119409	0.104313
Zn9	Zn	1.095694	0.119420	-0.104282
O10	O	1.129738	0.245277	0.079175
C11	C	0.934161	0.125560	0.000013
C12	C	0.834274	0.123753	0.000011
C13	C	0.787341	0.122898	0.086313
C14	C	0.693485	0.121186	0.086314
C15	C	0.646564	0.120335	0.000012
C16	C	0.693502	0.121188	-0.086297
C17	C	0.787356	0.122894	-0.086297
C18	C	0.497882	0.117635	-0.086290
C19	C	0.404022	0.115931	-0.086291
C20	C	0.404010	0.115927	0.086320
C21	C	0.497864	0.117633	0.086320
C22	C	0.544797	0.118487	0.000011
C23	C	1.050486	-0.038668	0.000014
C24	C	1.017312	-0.134660	0.000009
C25	C	0.892424	-0.259735	0.000001
C26	C	0.923605	-0.169537	0.000006
C27	C	1.079876	-0.189974	0.000012
C28	C	1.048708	-0.280176	0.000012
C29	C	0.954981	-0.315049	0.000006
C30	C	1.111265	-0.335490	0.000017
C31	C	1.080099	-0.425683	0.000012
C32	C	0.986376	-0.460563	0.000002
C33	C	0.923815	-0.405242	0.000001
C34	C	1.204991	-0.300615	0.000017
C35	C	1.267548	-0.355929	0.000021
C36	C	1.236382	-0.446124	0.000023
C37	C	1.142660	-0.481004	0.000014
C38	C	1.298943	-0.501445	0.000025
C39	C	1.267777	-0.591638	0.000020
C40	C	1.111494	-0.571198	0.000009
C41	C	1.257203	0.113269	0.000016
C42	C	1.357089	0.115076	0.000011
C43	C	1.140877	0.277497	0.000014
C44	C	1.174051	0.373489	0.000013
N45	N	1.095658	0.119402	0.246674
N46	N	1.095710	0.119420	-0.246643
C47	C	1.137279	0.060704	0.296493
C48	C	1.137285	0.060703	0.396151
C49	C	1.095675	0.119406	0.445987
C50	C	1.054049	0.178106	0.396161
C51	C	1.054038	0.178102	0.296505
C52	C	1.054077	0.178112	0.603875
C53	C	1.054089	0.178118	0.703538
C54	C	1.137324	0.060714	0.703521
C55	C	1.137313	0.060710	0.603865
C56	C	1.095688	0.119412	0.554045
H57	H	1.035172	-0.599593	0.000025
H58	H	0.536091	0.118331	-0.156572
Br59	Br	0.851013	0.124060	0.203444
H60	H	0.816103	-0.288130	0.000017
H61	H	1.171175	0.012907	0.436713
Br62	Br	0.340343	0.114778	-0.203416
H63	H	1.171168	0.012905	0.255923
H64	H	1.020144	0.225898	0.255943
H65	H	1.318718	-0.636677	0.000019
Br66	Br	0.629796	0.120039	0.203443
H67	H	0.536066	0.118330	0.156595
H68	H	1.171200	0.012914	0.563288
Br69	Br	0.340319	0.114771	0.203454
Br70	Br	0.629817	0.119996	-0.203423
H71	H	1.230363	-0.227173	0.000023
Br72	Br	0.997568	0.257769	0.463792
H73	H	0.825568	0.123592	-0.156573
H74	H	0.961002	-0.534005	-0.000007
H75	H	0.847494	-0.433637	0.000017
H76	H	0.872656	-0.124502	0.000004
Br77	Br	1.207072	-0.142639	0.000014
H78	H	1.343861	-0.327522	0.000031
Br79	Br	1.426139	-0.454106	0.000014
H80	H	1.171216	0.012917	0.744089
Br81	Br	0.997616	0.257789	0.771166
Br82	Br	0.997578	0.257777	0.536266
