data_functionalizedCrystal
_audit_creation_method	'MofGen! by Chris Wilmer'
_symmetry_space_group_name_H-M	'P1'
_symmetry_Int_Tables_number	1
_symmetry_cell_setting	triclinic
loop_
_symmetry_equiv_pos_as_xyz
  x,y,z
_cell_length_a	13.339070
_cell_length_b	13.262508
_cell_length_c	12.376457
_cell_angle_alpha	116.815184
_cell_angle_beta	75.589755
_cell_angle_gamma	99.430496
loop_
_atom_site_label
_atom_site_type_symbol
_atom_site_fract_x
_atom_site_fract_y
_atom_site_fract_z
O1	O	1.329819	0.537812	0.071321
O2	O	1.039592	0.465225	0.049009
O3	O	1.202126	0.343401	0.011554
O4	O	1.167285	0.659636	0.108776
O5	O	1.161509	0.373803	0.208913
O6	O	0.998976	0.495628	0.246368
O7	O	1.289202	0.568215	0.268681
Zn8	Zn	1.137640	0.536748	0.288860
Zn9	Zn	1.191154	0.496692	0.028830
O10	O	1.126668	0.690039	0.306136
C11	C	0.982321	0.468165	0.143919
C12	C	0.872185	0.431617	0.132684
C13	C	1.183600	0.317300	0.097534
C14	C	1.188898	0.194230	0.059690
C15	C	0.490556	0.715795	0.220033
C16	C	0.594035	0.750136	0.230586
C17	C	0.663577	0.670509	0.206112
C18	C	0.629631	0.556535	0.171082
C19	C	0.526144	0.522188	0.160518
C20	C	0.699165	0.476903	0.146597
C21	C	0.665219	0.362929	0.111567
C22	C	0.561742	0.328588	0.101006
C23	C	0.492199	0.408215	0.125480
C24	C	0.802652	0.511250	0.157161
C25	C	0.838240	0.317644	0.097646
C26	C	0.734761	0.283302	0.087093
C27	C	1.115265	-0.086407	0.383351
C28	C	1.110279	0.029222	0.418908
C29	C	1.129933	0.070480	0.329106
C30	C	1.154575	-0.003904	0.203742
C31	C	1.159553	-0.119546	0.168182
C32	C	1.174222	0.037342	0.113937
C33	C	1.198863	-0.037042	-0.011427
C34	C	1.203841	-0.152672	-0.046981
C35	C	1.184187	-0.193930	0.042820
C36	C	1.169243	0.152984	0.149498
C37	C	1.213531	0.119846	-0.065672
C38	C	1.218517	0.004216	-0.101228
C39	C	1.346474	0.565274	0.173768
C40	C	1.456612	0.601821	0.184995
C41	C	1.145195	0.716139	0.220154
C42	C	1.139898	0.839208	0.257989
N43	N	1.101126	0.564088	0.466323
N44	N	1.227677	0.469346	-0.148636
C45	C	1.312440	0.405861	0.772662
C46	C	1.337991	0.386724	0.648438
C47	C	1.278777	0.431063	0.602903
C48	C	1.194007	0.494543	0.681604
C49	C	1.168459	0.513689	0.805842
C50	C	1.134795	0.538891	0.636084
C51	C	1.050026	0.602370	0.714785
C52	C	1.024481	0.621513	0.839010
C53	C	1.083695	0.577174	0.884545
C54	C	1.160344	0.519745	0.511846
C55	C	1.016362	0.627573	0.545026
C56	C	0.990811	0.646709	0.669250
H57	H	0.747834	0.698477	0.214704
H58	H	1.238580	-0.056363	-0.203302
H59	H	1.188250	-0.288083	0.013876
H60	H	1.299584	0.415479	0.501754
H61	H	0.894863	0.252804	0.077712
H62	H	1.360650	0.369773	0.809748
C63	C	0.780325	0.095374	0.029326
C64	C	0.697443	0.158021	0.048579
H65	H	0.757282	0.018033	0.005556
H66	H	0.834110	0.102189	-0.034138
H67	H	0.805781	0.123404	0.103513
H68	H	0.671991	0.129996	-0.025611
H69	H	0.643640	0.151199	0.112048
H70	H	1.223897	-0.213235	-0.149061
C71	C	0.954573	0.794428	0.559894
C72	C	0.951266	0.676318	0.494989
H73	H	0.914395	0.824519	0.528992
H74	H	0.927226	0.814907	0.645132
H75	H	1.024343	0.823959	0.549557
H76	H	0.881497	0.646785	0.505334
H77	H	0.978609	0.655829	0.409731
H78	H	1.407010	0.335041	0.584365
C79	C	1.335786	0.141459	-0.233765
C80	C	1.235115	0.165212	-0.164367
H81	H	1.349095	0.169476	-0.294685
H82	H	1.384254	0.176842	-0.180782
H83	H	1.342275	0.061944	-0.272911
H84	H	1.228627	0.244728	-0.125214
H85	H	1.186633	0.129832	-0.217359
C86	C	1.043889	0.202611	0.339461
C87	C	1.142159	0.234740	0.287291
H88	H	1.027172	0.253083	0.424536
H89	H	0.993801	0.205129	0.298121
H90	H	1.044057	0.127838	0.331126
H91	H	1.141990	0.309511	0.295618
H92	H	1.192260	0.232234	0.328644
C93	C	0.825040	0.671204	0.109682
C94	C	0.839953	0.636527	0.195672
H95	H	0.848060	0.748552	0.133467
H96	H	0.863484	0.626464	0.030378
H97	H	0.753456	0.662130	0.106901
H98	H	0.911538	0.645593	0.198446
H99	H	0.801509	0.681281	0.274997
C100	C	1.125490	0.545890	1.044439
C101	C	1.055615	0.598218	1.021101
H102	H	1.108159	0.558890	1.128746
H103	H	1.121849	0.466819	0.993367
H104	H	1.193852	0.576490	1.027050
H105	H	0.987253	0.567612	1.038481
H106	H	1.059246	0.677305	1.072189
C107	C	0.884725	0.726171	0.859327
C108	C	0.931308	0.691298	0.925523
H109	H	0.827201	0.769249	0.912736
H110	H	0.933678	0.771296	0.827032
H111	H	0.861688	0.661616	0.793329
H112	H	0.954352	0.755855	0.991515
H113	H	0.882346	0.646172	0.957837
C114	C	1.067038	0.050359	0.628015
C115	C	1.083223	0.110984	0.556702
H116	H	1.050347	0.100841	0.713088
H117	H	1.011511	-0.005053	0.606728
H118	H	1.128289	0.014187	0.612606
H119	H	1.021969	0.147150	0.572104
H120	H	1.138755	0.166417	0.577997
H121	H	0.621668	0.842933	0.259099
H122	H	1.125871	0.164632	0.358064
H123	H	0.433930	0.780613	0.239946
H124	H	0.407937	0.380259	0.116890
C125	C	0.486912	0.162016	-0.046867
C126	C	0.524434	0.203303	0.062483
H127	H	0.463889	0.084668	-0.070652
H128	H	0.430691	0.204516	-0.033794
H129	H	0.540718	0.168846	-0.110319
H130	H	0.470625	0.196481	0.125939
H131	H	0.580661	0.160790	0.049418
H132	H	1.099258	-0.120013	0.456453
H133	H	1.229364	0.468060	0.447778
H134	H	0.921790	0.698396	0.733344
