data_functionalizedCrystal
_audit_creation_method	'MofGen! by Chris Wilmer'
_symmetry_space_group_name_H-M	'P1'
_symmetry_Int_Tables_number	1
_symmetry_cell_setting	triclinic
loop_
_symmetry_equiv_pos_as_xyz
  x,y,z
_cell_length_a	19.077236
_cell_length_b	12.594516
_cell_length_c	19.076919
_cell_angle_alpha	92.277239
_cell_angle_beta	89.887323
_cell_angle_gamma	92.309059
loop_
_atom_site_label
_atom_site_type_symbol
_atom_site_fract_x
_atom_site_fract_y
_atom_site_fract_z
Zn1	Zn	1.058328	-0.386370	-0.440567
Zn2	Zn	1.062984	-0.556943	-0.323071
Zn3	Zn	0.945543	-0.385812	-0.318347
Zn4	Zn	0.940805	-0.571143	-0.435811
O5	O	1.001915	-0.475067	-0.379449
O6	O	1.157279	-0.403287	-0.428949
O7	O	1.051337	-0.528066	-0.224114
O8	O	0.960539	-0.236939	-0.334573
O9	O	1.160699	-0.528607	-0.342625
O10	O	1.043401	-0.237349	-0.424368
O11	O	0.965054	-0.402336	-0.220643
O12	O	0.846582	-0.416105	-0.329961
O13	O	0.952462	-0.552808	-0.534773
O14	O	0.843100	-0.552267	-0.416261
O15	O	1.038806	-0.417056	-0.538267
O16	O	1.046742	-0.707773	-0.338013
O17	O	0.956977	-0.718206	-0.420842
C18	C	0.819344	-0.485667	-0.372083
C19	C	0.741239	-0.490229	-0.368948
C20	C	0.702762	-0.427238	-0.412488
C21	C	0.629374	-0.431518	-0.409536
C22	C	0.594464	-0.498797	-0.363048
C23	C	0.632947	-0.561791	-0.319503
C24	C	0.706333	-0.557504	-0.322452
C25	C	0.375173	-0.518598	-0.349400
C26	C	0.301780	-0.522882	-0.346456
C27	C	0.298213	-0.392608	-0.436489
C28	C	0.371601	-0.388331	-0.439436
C29	C	0.410077	-0.451321	-0.395889
N30	N	0.519450	-0.503177	-0.360032
N31	N	0.485090	-0.446935	-0.398902
C32	C	1.001869	-0.751610	-0.379440
C33	C	1.001913	-0.869914	-0.379463
C34	C	0.953087	-0.944878	-0.424480
C35	C	0.938546	-1.012679	-0.359673
C36	C	1.016517	-1.012909	-0.444283
C37	C	0.987339	-0.936156	-0.314620
C38	C	1.065339	-0.936381	-0.399275
C39	C	1.050824	-1.004146	-0.334425
C40	C	1.185199	-0.464425	-0.386845
C41	C	1.263303	-0.459891	-0.389996
C42	C	0.994586	-0.486579	-0.562729
C43	C	0.991463	-0.491484	-0.640832
C44	C	1.001979	-0.197443	-0.379474
C45	C	1.002007	-0.079137	-0.379485
C46	C	1.034949	-0.423114	-0.679346
C47	C	1.032006	-0.427719	-0.752731
C48	C	0.985581	-0.500702	-0.787602
C49	C	0.942091	-0.569076	-0.749084
C50	C	0.945031	-0.564464	-0.675699
C51	C	0.971964	-0.522069	-1.006883
C52	C	0.969029	-0.526678	-1.080273
C53	C	1.058944	-0.385319	-1.083916
C54	C	1.061882	-0.380718	-1.010530
C55	C	1.018390	-0.449088	-0.972017
N56	N	0.982573	-0.505414	-0.862614
N57	N	1.021395	-0.444370	-0.897006
C58	C	1.009255	-0.463520	-0.196884
C59	C	1.012514	-0.458307	-0.118786
H60	H	0.266878	-0.341324	-0.471941
H61	H	0.884951	-1.046128	-0.342933
O62	O	0.267979	-0.588264	-0.301233
C63	C	0.317675	-0.642963	-0.263442
H64	H	0.370086	-0.596154	-0.263152
H65	H	0.324455	-0.725015	-0.289397
C66	C	0.227628	-0.712595	-0.187846
C67	C	0.291999	-0.655099	-0.187486
H68	H	0.211790	-0.720087	-0.140994
H69	H	0.194147	-0.675747	-0.213308
H70	H	0.233287	-0.780966	-0.209479
H71	H	0.286337	-0.586726	-0.165861
H72	H	0.325479	-0.691936	-0.162018
O73	O	1.074272	-0.361452	-0.790226
C74	C	1.117952	-0.422076	-0.834499
H75	H	1.092713	-0.504871	-0.844480
H76	H	1.171161	-0.428964	-0.808331
C77	C	1.158879	-0.265461	-0.892469
C78	C	1.127877	-0.367149	-0.904733
H79	H	1.165005	-0.231578	-0.935792
H80	H	1.129453	-0.224616	-0.862640
H81	H	1.203217	-0.271215	-0.870660
H82	H	1.083536	-0.361393	-0.926533
H83	H	1.157295	-0.407991	-0.934568
O84	O	0.412613	-0.579849	-0.307205
C85	C	0.453453	-0.648738	-0.348839
H86	H	0.462338	-0.614024	-0.402572
H87	H	0.424855	-0.729761	-0.355342
C88	C	0.513785	-0.704068	-0.246954
C89	C	0.524702	-0.661427	-0.312947
H90	H	0.557733	-0.711900	-0.224813
H91	H	0.486268	-0.657659	-0.218903
H92	H	0.489951	-0.771582	-0.252382
H93	H	0.548527	-0.593908	-0.307518
H94	H	0.552224	-0.707825	-0.340996
O95	O	1.031300	-1.053130	-0.509618
C96	C	1.093075	-1.110691	-0.507325
H97	H	1.101596	-1.137346	-0.451675
H98	H	1.139711	-1.057852	-0.523699
C99	C	1.075584	-1.176202	-0.626226
C100	C	1.086046	-1.208948	-0.557877
H101	H	1.071250	-1.236809	-0.657411
H102	H	1.033966	-1.137419	-0.627772
H103	H	1.114449	-1.132168	-0.639861
H104	H	1.047177	-1.252970	-0.544240
H105	H	1.127657	-1.247741	-0.556330
H106	H	0.911727	-0.918666	-0.462489
O107	O	1.080120	-0.352361	-0.645445
C108	C	1.127183	-0.407649	-0.604809
H109	H	1.130624	-0.492617	-0.627090
H110	H	1.107682	-0.409083	-0.548314
C111	C	1.196061	-0.246969	-0.579273
C112	C	1.200292	-0.351326	-0.606642
H113	H	1.241158	-0.212224	-0.580400
H114	H	1.164353	-0.209718	-0.606648
H115	H	1.179808	-0.248178	-0.532196
H116	H	1.216536	-0.350115	-0.653721
H117	H	1.232005	-0.388574	-0.579276
O118	O	1.100208	-1.035244	-0.289068
C119	C	1.149726	-1.096012	-0.326022
H120	H	1.149481	-1.075546	-0.383694
H121	H	1.135561	-1.184222	-0.321173
C122	C	1.223584	-1.096019	-0.224201
C123	C	1.223288	-1.070875	-0.295034
H124	H	1.268960	-1.080518	-0.205084
H125	H	1.190222	-1.055082	-0.199303
H126	H	1.211777	-1.169527	-0.220169
H127	H	1.235086	-0.997366	-0.299063
H128	H	1.256654	-1.111800	-0.319932
H129	H	0.737661	-0.608798	-0.286996
H130	H	0.974963	-0.902673	-0.259794
O131	O	1.129234	-0.896532	-0.419401
C132	C	1.144385	-0.935718	-0.487787
H133	H	1.093364	-0.960461	-0.516054
H134	H	1.178689	-1.007449	-0.484763
C135	C	1.246183	-0.817813	-0.493670
C136	C	1.183518	-0.848194	-0.528390
H137	H	1.270325	-0.763826	-0.518716
H138	H	1.235978	-0.791414	-0.447597
H139	H	1.274761	-0.877597	-0.491153
H140	H	1.154937	-0.788414	-0.530900
H141	H	1.193719	-0.874580	-0.574466
O142	O	1.101153	-0.318751	-1.121248
C143	C	1.086524	-0.212435	-1.102716
H144	H	1.061645	-0.208453	-1.048343
H145	H	1.048750	-0.181278	-1.142561
C146	C	1.185733	-0.148656	-1.168881
C147	C	1.155182	-0.143765	-1.102096
H148	H	1.228083	-0.106296	-1.168501
H149	H	1.195588	-0.220284	-1.181369
H150	H	1.154248	-0.122694	-1.202078
H151	H	1.186663	-0.169740	-1.068902
H152	H	1.145334	-0.072141	-1.089602
O153	O	0.923866	-0.597606	-1.114037
C154	C	0.886121	-0.656981	-1.064310
H155	H	0.885789	-0.610239	-1.011905
H156	H	0.912144	-0.735837	-1.057535
C157	C	0.810592	-0.735868	-1.154299
C158	C	0.810180	-0.678455	-1.089935
H159	H	0.763749	-0.749119	-1.170107
H160	H	0.836023	-0.695869	-1.187802
H161	H	0.832282	-0.801574	-1.148645
H162	H	0.788499	-0.612744	-1.095593
H163	H	0.784743	-0.718443	-1.056434
O164	O	0.929817	-0.588530	-0.969412
C165	C	0.971497	-0.652317	-0.928584
H166	H	1.025197	-0.611000	-0.919731
H167	H	0.978070	-0.732519	-0.957175
C168	C	0.869649	-0.720213	-0.868195
C169	C	0.935603	-0.669463	-0.857316
H170	H	0.847507	-0.730794	-0.824235
H171	H	0.841568	-0.677242	-0.895703
H172	H	0.875136	-0.787043	-0.892023
H173	H	0.930115	-0.602630	-0.833496
H174	H	0.963682	-0.712423	-0.829802
O175	O	0.902771	-0.631001	-0.638393
C176	C	0.861157	-0.696396	-0.684905
H177	H	0.887839	-0.701686	-0.738381
H178	H	0.807480	-0.661020	-0.690550
C179	C	0.819393	-0.801974	-0.590167
C180	C	0.852168	-0.808478	-0.655846
H181	H	0.813845	-0.871110	-0.572242
H182	H	0.847427	-0.757914	-0.558831
H183	H	0.774666	-0.772489	-0.594881
H184	H	0.896897	-0.837949	-0.651131
H185	H	0.824141	-0.852546	-0.687182
H186	H	1.099688	-0.321291	-0.982143
H187	H	0.731179	-0.372455	-0.450346
H188	H	0.598049	-0.380226	-0.444993
H189	H	0.400019	-0.333550	-0.477294
H190	H	0.604517	-0.616565	-0.281648
H191	H	0.904288	-0.628496	-0.777481
