data_functionalizedCrystal
_audit_creation_method	'MofGen! by Chris Wilmer'
_symmetry_space_group_name_H-M	'P1'
_symmetry_Int_Tables_number	1
_symmetry_cell_setting	triclinic
loop_
_symmetry_equiv_pos_as_xyz
  x,y,z
_cell_length_a	12.759401
_cell_length_b	16.959454
_cell_length_c	16.959447
_cell_angle_alpha	89.973264
_cell_angle_beta	89.986359
_cell_angle_gamma	90.021600
loop_
_atom_site_label
_atom_site_type_symbol
_atom_site_fract_x
_atom_site_fract_y
_atom_site_fract_z
Zn1	Zn	1.606151	-0.314634	-0.446914
Zn2	Zn	2.106151	0.185366	0.053086
Zn3	Zn	1.606048	-0.446826	-0.314744
Zn4	Zn	2.106048	0.053174	0.185256
Zn5	Zn	1.430473	-0.314669	-0.314753
Zn6	Zn	1.930473	0.185331	0.185247
Zn7	Zn	1.430426	-0.446778	-0.446884
Zn8	Zn	1.930426	0.053222	0.053116
O9	O	1.518275	-0.380727	-0.380824
O10	O	2.018275	0.119273	0.119176
O11	O	1.753159	-0.332175	-0.429390
O12	O	2.253159	0.167825	0.070610
O13	O	1.582734	-0.429330	-0.204134
O14	O	2.082734	0.070670	0.295866
O15	O	1.453840	-0.204054	-0.332301
O16	O	1.953840	0.295946	0.167699
O17	O	1.753083	-0.429296	-0.332285
O18	O	2.253083	0.070704	0.167715
O19	O	1.582910	-0.204028	-0.429399
O20	O	2.082910	0.295972	0.070601
O21	O	1.453740	-0.332235	-0.204141
O22	O	1.953740	0.167765	0.295859
O23	O	1.283445	-0.332188	-0.332272
O24	O	1.783445	0.167812	0.167728
O25	O	1.453759	-0.429213	-0.557499
O26	O	1.953759	0.070787	-0.057499
O27	O	1.283411	-0.429248	-0.429348
O28	O	1.783411	0.070752	0.070652
O29	O	1.582865	-0.332128	-0.557521
O30	O	2.082865	0.167872	-0.057521
O31	O	1.582689	-0.557431	-0.332256
O32	O	2.082689	-0.057431	0.167744
O33	O	1.453660	-0.557395	-0.429339
O34	O	1.953660	-0.057395	0.070661
C35	C	1.245307	-0.380717	-0.380808
C36	C	1.745307	0.119283	0.119192
C37	C	1.128531	-0.380732	-0.380820
C38	C	1.628531	0.119268	0.119180
C39	C	1.073678	-0.431348	-0.431288
C40	C	1.573678	0.068652	0.068712
C41	C	0.963954	-0.431351	-0.431304
C42	C	1.463954	0.068649	0.068696
C43	C	0.963944	-0.330120	-0.330377
C44	C	1.463944	0.169880	0.169623
C45	C	1.073667	-0.330114	-0.330366
C46	C	1.573667	0.169886	0.169634
C47	C	1.518187	-0.586093	-0.380810
C48	C	2.018187	-0.086093	0.119190
C49	C	1.518245	-0.673950	-0.380831
C50	C	2.018245	-0.173950	0.119169
C51	C	1.451186	-1.045437	-0.431369
C52	C	1.951186	-0.545437	0.068631
C53	C	1.585655	-1.045414	-0.330359
C54	C	2.085655	-0.545414	0.169641
C55	C	1.585619	-0.962868	-0.330351
C56	C	2.085619	-0.462868	0.169649
C57	C	1.518364	-0.921602	-0.380853
C58	C	2.018364	-0.421602	0.119147
C59	C	1.451145	-0.962883	-0.431362
C60	C	1.951145	-0.462883	0.068638
C61	C	1.652828	-0.921581	-0.279838
C62	C	2.152828	-0.421581	0.220162
C63	C	1.652793	-0.839030	-0.279828
C64	C	2.152793	-0.339030	0.220172
C65	C	1.585543	-0.797763	-0.330334
C66	C	2.085543	-0.297763	0.169666
C67	C	1.518323	-0.839049	-0.380846
C68	C	2.018323	-0.339049	0.119154
C69	C	1.451068	-0.797784	-0.431347
C70	C	1.951068	-0.297784	0.068653
C71	C	1.383852	-0.839068	-0.481863
C72	C	1.883852	-0.339068	0.018137
C73	C	1.383895	-0.921616	-0.481868
C74	C	1.883895	-0.421616	0.018132
C75	C	1.585500	-0.715215	-0.330329
C76	C	2.085500	-0.215215	0.169671
C77	C	1.451027	-0.715230	-0.431340
C78	C	1.951027	-0.215230	0.068660
C79	C	1.792308	-0.380737	-0.380840
C80	C	2.292308	0.119263	0.119160
C81	C	1.909084	-0.380741	-0.380847
C82	C	2.409084	0.119259	0.119153
C83	C	1.518318	-0.380661	-0.586992
C84	C	2.018318	0.119339	-0.086992
C85	C	1.518337	-0.380633	-0.674849
C86	C	2.018337	0.119367	-0.174849
C87	C	1.518392	-0.174558	-0.380855
C88	C	2.018392	0.325442	0.119145
C89	C	1.518441	-0.086702	-0.380868
C90	C	2.018441	0.413298	0.119132
C91	C	1.451243	-0.431098	-1.046315
C92	C	1.951243	0.068902	-0.546315
C93	C	1.585682	-0.330002	-1.046334
C94	C	2.085682	0.169998	-0.546334
C95	C	1.585654	-0.330019	-0.963788
C96	C	2.085654	0.169981	-0.463788
C97	C	1.518421	-0.380577	-0.922502
C98	C	2.018421	0.119423	-0.422502
C99	C	1.451215	-0.431118	-0.963762
C100	C	1.951215	0.068882	-0.463762
C101	C	1.652865	-0.279484	-0.922521
C102	C	2.152865	0.220516	-0.422521
C103	C	1.652840	-0.279500	-0.839970
C104	C	2.152840	0.220500	-0.339970
C105	C	1.585601	-0.330054	-0.798683
C106	C	2.085601	0.169946	-0.298683
C107	C	1.518393	-0.380597	-0.839948
C108	C	2.018393	0.119403	-0.339948
C109	C	1.451160	-0.431155	-0.798662
C110	C	1.951160	0.068845	-0.298662
C111	C	1.383945	-0.481694	-0.839926
C112	C	1.883945	0.018306	-0.339926
C113	C	1.383976	-0.481673	-0.922475
C114	C	1.883976	0.018327	-0.422475
C115	C	1.585570	-0.330075	-0.716135
C116	C	2.085570	0.169925	-0.216135
C117	C	1.451132	-0.431175	-0.716109
C118	C	1.951132	0.068825	-0.216109
C119	C	1.518291	-0.380735	-0.175457
C120	C	2.018291	0.119265	0.324543
C121	C	1.518476	-0.380540	-0.087601
C122	C	2.018476	0.119460	0.412399
H123	H	1.396263	-0.681637	-0.472468
H124	H	1.896263	-0.181637	0.027532
C125	C	1.659434	-0.669806	-0.274766
C126	C	2.159434	-0.169806	0.225234
N127	N	1.715128	-0.635605	-0.232915
N128	N	2.215128	-0.135605	0.267085
H129	H	1.329208	-0.522862	-0.806300
H130	H	1.829208	-0.022862	-0.306300
H131	H	1.118345	-0.472563	-0.472373
H132	H	1.618345	0.027437	0.027627
H133	H	1.707576	-0.955185	-0.238716
H134	H	2.207576	-0.455185	0.261284
H135	H	1.640405	-1.079017	-0.289238
H136	H	2.140405	-0.579017	0.210762
C137	C	1.377303	-0.486683	-1.091705
C138	C	1.877303	0.013317	-0.591705
N139	N	1.321609	-0.528548	-1.125894
N140	N	1.821609	-0.028548	-0.625894
C141	C	1.726725	-0.793625	-0.224255
C142	C	2.226725	-0.293625	0.275745
N143	N	1.782409	-0.759426	-0.182395
N144	N	2.282409	-0.259426	0.317605
H145	H	0.919298	-0.472566	-0.472401
H146	H	1.419298	0.027434	0.027599
H147	H	1.329088	-0.805460	-0.522979
H148	H	1.829088	-0.305460	-0.022979
H149	H	1.329171	-0.955237	-0.522995
H150	H	1.829171	-0.455237	-0.022995
C151	C	1.310041	-0.537257	-0.967870
C152	C	1.810041	-0.037257	-0.467870
N153	N	1.254353	-0.579121	-1.002066
N154	N	1.754353	-0.079121	-0.502066
C155	C	1.377166	-0.486792	-0.670701
C156	C	1.877166	0.013208	-0.170701
N157	N	1.321455	-0.528684	-0.636500
N158	N	1.821455	-0.028684	-0.136500
H159	H	1.640425	-0.288845	-1.079953
H160	H	2.140425	0.211155	-0.579953
C161	C	1.726805	-0.223866	-0.967940
C162	C	2.226805	0.276134	-0.467940
N163	N	1.782492	-0.181967	-1.002154
N164	N	2.282492	0.318033	-0.502154
C165	C	1.726766	-0.223898	-0.794588
C166	C	2.226766	0.276102	-0.294588
N167	N	1.782443	-0.182014	-0.760405
N168	N	2.282443	0.317986	-0.260405
H169	H	1.640298	-0.288929	-0.682541
H170	H	2.140298	0.211071	-0.182541
C171	C	1.134008	-0.274430	-0.274844
C172	C	1.634008	0.225570	0.225156
N173	N	1.179457	-0.232489	-0.233028
N174	N	1.679457	0.267511	0.266972
C175	C	0.903584	-0.274447	-0.274876
C176	C	1.403584	0.225553	0.225124
N177	N	0.858121	-0.232515	-0.233069
N178	N	1.358121	0.267485	0.266931
C179	C	1.377248	-1.090849	-0.486931
C180	C	1.877248	-0.590849	0.013069
N181	N	1.321555	-1.125055	-0.528779
N182	N	1.821555	-0.625055	-0.028779
