data_functionalizedCrystal
_audit_creation_method	'MofGen! by Chris Wilmer'
_symmetry_space_group_name_H-M	'P1'
_symmetry_Int_Tables_number	1
_symmetry_cell_setting	triclinic
loop_
_symmetry_equiv_pos_as_xyz
  x,y,z
_cell_length_a	15.712078
_cell_length_b	9.065218
_cell_length_c	8.140239
_cell_angle_alpha	90.001686
_cell_angle_beta	89.988243
_cell_angle_gamma	77.701483
loop_
_atom_site_label
_atom_site_type_symbol
_atom_site_fract_x
_atom_site_fract_y
_atom_site_fract_z
O1	O	1.153258	-0.812440	-0.136980
O2	O	0.900719	-0.699656	-0.136901
O3	O	1.032208	-0.544104	-0.136939
O4	O	1.021768	-0.967993	-0.136942
O5	O	1.032201	-0.544097	0.136288
O6	O	0.900712	-0.699650	0.136326
O7	O	1.153250	-0.812433	0.136247
Zn8	Zn	1.026980	-0.756041	0.179667
Zn9	Zn	1.026990	-0.756049	-0.180321
O10	O	1.021761	-0.967986	0.136285
C11	C	0.868368	-0.681228	-0.000277
C12	C	0.771983	-0.626310	-0.000247
C13	C	0.408537	-1.092580	-0.000364
C14	C	0.317971	-1.040941	-0.000404
C15	C	0.336561	-0.782195	-0.000406
C16	C	0.427131	-0.833812	-0.000374
C17	C	0.463111	-0.989006	-0.000351
C18	C	0.481705	-0.730238	-0.000360
C19	C	0.572266	-0.781851	-0.000319
C20	C	0.608254	-0.937038	-0.000292
C21	C	0.553673	-1.040619	-0.000310
C22	C	0.445723	-0.575045	-0.000371
C23	C	0.500297	-0.471471	-0.000358
C24	C	0.590860	-0.523084	-0.000329
C25	C	0.626847	-0.678271	-0.000301
C26	C	0.645441	-0.419503	-0.000311
C27	C	0.736003	-0.471116	-0.000270
C28	C	0.717409	-0.729884	-0.000260
C29	C	1.031201	-0.488595	-0.000327
C30	C	1.028201	-0.323202	-0.000334
C31	C	1.185601	-0.830861	-0.000380
C32	C	1.281986	-0.885780	-0.000421
C33	C	1.022768	-1.023494	-0.000330
C34	C	1.025768	-1.188888	-0.000334
N35	N	1.026980	-0.756037	0.425350
N36	N	1.026997	-0.756044	-0.426004
H37	H	0.437834	-1.218954	-0.000343
H38	H	0.681995	-0.979059	-0.000251
Br39	Br	0.243906	-1.181524	-0.000399
H40	H	0.582969	-1.166993	-0.000288
H41	H	0.371981	-0.533026	-0.000385
H42	H	0.470989	-0.345111	-0.000358
Br43	Br	0.810074	-0.330552	-0.000242
Br44	Br	0.766248	-0.940507	-0.000258
H45	H	0.307253	-0.655835	-0.000406
H46	H	0.616132	-0.293144	-0.000308
