data_functionalizedCrystal
_audit_creation_method	'MofGen! by Chris Wilmer'
_symmetry_space_group_name_H-M	'P1'
_symmetry_Int_Tables_number	1
_symmetry_cell_setting	triclinic
loop_
_symmetry_equiv_pos_as_xyz
  x,y,z
_cell_length_a	27.732048
_cell_length_b	10.654550
_cell_length_c	9.130313
_cell_angle_alpha	90.003780
_cell_angle_beta	89.993840
_cell_angle_gamma	96.436222
loop_
_atom_site_label
_atom_site_type_symbol
_atom_site_fract_x
_atom_site_fract_y
_atom_site_fract_z
O1	O	0.067884	-1.664980	-0.121937
O2	O	0.074351	-1.299230	-0.121916
O3	O	0.000792	-1.493465	-0.121899
O4	O	0.141444	-1.470746	-0.121954
O5	O	0.000794	-1.493462	0.121700
O6	O	0.074353	-1.299228	0.121683
O7	O	0.067886	-1.664978	0.121661
Cu8	Cu	0.071120	-1.482103	0.143915
Cu9	Cu	0.071117	-1.482105	-0.144169
O10	O	0.141446	-1.470743	0.121645
C11	C	0.073878	-1.252451	-0.000113
C12	C	0.072457	-1.113067	-0.000103
C13	C	-0.017217	-1.492987	-0.000096
C14	C	-0.070881	-1.491551	-0.000084
C15	C	0.068360	-1.711757	-0.000144
C16	C	0.069780	-1.851141	-0.000164
C17	C	-0.409038	-1.597290	-0.000165
C18	C	-0.610731	-1.591962	-0.000185
O19	O	-0.641384	-1.688653	-0.000255
N20	N	-0.630572	-1.476789	-0.000177
C21	C	-0.599986	-1.362940	-0.000173
O22	O	-0.621490	-1.264856	-0.000182
C23	C	-0.398294	-1.368269	-0.000164
C24	C	-0.378456	-1.483449	-0.000157
C25	C	-0.389199	-1.712461	-0.000160
C26	C	-0.338779	-1.713792	-0.000147
C27	C	-0.308197	-1.599951	-0.000139
C28	C	-0.328036	-1.484780	-0.000144
C29	C	-0.367709	-1.254421	-0.000171
C30	C	-0.317284	-1.255764	-0.000172
C31	C	-0.297446	-1.370944	-0.000165
C32	C	-0.247034	-1.372271	-0.000123
N33	N	-0.227193	-1.487444	-0.000131
C34	C	-0.257775	-1.601284	-0.000139
C35	C	-0.705877	-1.360150	-0.000175
C36	C	-0.756300	-1.358817	-0.000175
C37	C	-0.767041	-1.587840	-0.000190
C38	C	-0.716618	-1.589171	-0.000180
C39	C	-0.686036	-1.475323	-0.000184
C40	C	-0.151888	-1.604070	-0.000111
C41	C	-0.101463	-1.605391	-0.000092
C42	C	-0.090726	-1.376369	-0.000085
C43	C	-0.141147	-1.375047	-0.000096
C44	C	-0.171727	-1.488908	-0.000114
O45	O	-0.216352	-1.275631	-0.000070
O46	O	-0.236261	-1.699354	-0.000163
C47	C	-0.459458	-1.595959	-0.000178
C48	C	-0.479296	-1.480788	-0.000183
C49	C	-0.448715	-1.366948	-0.000175
C50	C	-0.529719	-1.479455	-0.000183
C51	C	-0.560301	-1.593296	-0.000191
C52	C	-0.540460	-1.708469	-0.000199
C53	C	-0.490040	-1.709800	-0.000186
C54	C	-0.468556	-1.251774	-0.000167
C55	C	-0.518976	-1.250453	-0.000178
C56	C	-0.549558	-1.364293	-0.000186
C57	C	0.159454	-1.471221	-0.000162
C58	C	0.213118	-1.472657	-0.000183
N59	N	0.071121	-1.482110	0.346538
C60	C	0.115768	-1.031761	-0.000142
C61	C	0.114430	-0.900796	-0.000166
C62	C	0.026466	-0.932457	-0.000121
C63	C	0.027805	-1.063419	-0.000086
C64	C	0.166553	-1.013480	-0.000174
C65	C	0.165215	-0.882516	-0.000199
N66	N	0.071112	-1.482108	-0.346792
C67	C	0.038560	-1.568138	0.423197
C68	C	0.038554	-1.568135	0.576534
C69	C	0.103675	-1.396071	0.576538
C70	C	0.103678	-1.396069	0.423204
C71	C	0.000964	-1.667482	0.423195
C72	C	0.000959	-1.667479	0.576532
H73	H	-0.085314	-1.699189	-0.000083
H74	H	-0.473893	-1.803591	-0.000181
O75	O	0.192864	-1.051233	0.134856
H76	H	0.193913	-1.155067	0.134787
H77	H	-0.157300	-1.281258	-0.000061
H78	H	0.009240	-1.763642	0.618139
O79	O	0.138798	-1.303295	0.659227
H80	H	0.132293	-1.205524	0.629817
H81	H	-0.176781	-1.696787	-0.000131
O82	O	0.185543	-0.821144	0.139092
H83	H	0.223919	-0.839544	0.152105
O84	O	-0.435577	-1.128978	-0.000130
H85	H	-0.442677	-1.073800	-0.099402
H86	H	0.184349	-0.839980	-0.102160
H87	H	-0.322632	-1.807584	-0.000148
O88	O	-0.018908	-1.151120	-0.000019
H89	H	-0.050181	-1.094591	-0.000022
H90	H	0.130188	-1.326007	0.360790
H91	H	-0.414094	-1.805169	-0.000172
O92	O	-0.057738	-1.253585	-0.000078
H93	H	-0.019344	-1.273873	-0.000085
H94	H	-0.034148	-1.638442	0.624095
O95	O	-0.021693	-0.878911	-0.000108
H96	H	-0.015349	-0.774185	-0.000144
O97	O	-0.573449	-1.831259	-0.000207
H98	H	-0.611842	-1.810968	-0.000226
H99	H	0.182723	-1.048457	-0.105352
H100	H	-0.036186	-1.647601	0.381591
H101	H	-0.700469	-1.682961	-0.000176
O102	O	-0.800030	-1.710630	-0.000209
H103	H	-0.838423	-1.690341	-0.000222
O104	O	0.016547	-1.787619	0.360178
H105	H	0.053882	-1.798845	0.397774
O106	O	-0.777696	-1.234588	-0.000163
H107	H	-0.747954	-1.155659	-0.000171
H108	H	-0.680982	-1.267435	-0.000178
O109	O	-0.540371	-1.126215	-0.000182
H110	H	-0.510630	-1.047286	-0.000188
H111	H	-0.292386	-1.163052	-0.000177
O112	O	-0.389099	-1.130190	-0.000183
H113	H	-0.359356	-1.051267	-0.000195
