data_functionalizedCrystal
_audit_creation_method	'MofGen! by Chris Wilmer'
_symmetry_space_group_name_H-M	'P1'
_symmetry_Int_Tables_number	1
_symmetry_cell_setting	triclinic
loop_
_symmetry_equiv_pos_as_xyz
  x,y,z
_cell_length_a	8.497374
_cell_length_b	10.686220
_cell_length_c	10.686551
_cell_angle_alpha	89.691918
_cell_angle_beta	85.606337
_cell_angle_gamma	85.618240
loop_
_atom_site_label
_atom_site_type_symbol
_atom_site_fract_x
_atom_site_fract_y
_atom_site_fract_z
Zn1	Zn	0.384595	1.972367	0.562450
Zn2	Zn	0.884595	2.472367	1.062450
Zn3	Zn	0.670124	1.956197	0.352740
Zn4	Zn	1.170124	2.456197	0.852740
Zn5	Zn	0.424950	1.746494	0.368775
Zn6	Zn	0.924950	2.246494	0.868775
Zn7	Zn	0.666927	1.762626	0.578517
Zn8	Zn	1.166927	2.262626	1.078517
O9	O	0.536649	1.859421	0.465620
O10	O	1.036649	2.359421	0.965620
O11	O	0.406921	2.145761	0.521197
O12	O	0.906921	2.645761	1.021197
O13	O	0.655827	1.914860	0.179324
O14	O	1.155827	2.414860	0.679324
O15	O	0.198834	1.776472	0.394453
O16	O	0.698834	2.276472	0.894453
O17	O	0.616697	2.133880	0.367124
O18	O	1.116697	2.633880	0.867124
O19	O	0.169186	1.942420	0.536746
O20	O	0.669186	2.442420	1.036746
O21	O	0.475699	1.760793	0.191105
O22	O	0.975699	2.260793	0.691105
O23	O	0.472600	1.573095	0.410032
O24	O	0.972600	2.073095	0.910032
O25	O	0.611248	1.803968	0.751928
O26	O	1.111248	2.303968	1.251928
O27	O	0.650379	1.584948	0.564129
O28	O	1.150379	2.084948	1.064129
O29	O	0.403821	1.958063	0.740124
O30	O	0.903821	2.458063	1.240124
O31	O	0.890462	1.930503	0.382703
O32	O	1.390462	2.430503	0.882703
O33	O	0.888113	1.788288	0.548580
O34	O	1.388113	2.288288	1.048580
C35	C	0.565522	1.533506	0.490564
C36	C	1.065522	2.033506	0.990564
C37	C	0.577909	1.394081	0.501265
C38	C	1.077909	1.894081	1.001265
C39	C	0.946528	1.859407	0.465640
C40	C	1.446528	2.359407	0.965640
C41	C	1.125172	1.859438	0.465617
C42	C	1.625172	2.359438	0.965617
C43	C	0.502677	1.884619	0.792815
C44	C	1.002677	2.384619	1.292815
C45	C	0.488200	1.895356	0.932246
C46	C	0.988200	2.395356	1.432246
C47	C	0.507664	2.186608	0.440580
C48	C	1.007664	2.686608	0.940580
C49	C	0.495312	2.326036	0.429909
C50	C	0.995312	2.826036	0.929909
C51	C	0.570369	1.834393	0.139693
C52	C	1.070369	2.334393	0.639693
C53	C	0.584380	1.823899	0.000244
C54	C	1.084380	2.323899	0.500244
H55	H	0.658115	1.345665	0.570541
H56	H	1.158115	1.845665	1.070541
H57	H	0.677804	1.754509	0.951792
H58	H	1.177804	2.254509	1.451792
H59	H	0.394780	1.964759	0.980704
H60	H	0.894780	2.464759	1.480704
H61	H	0.415123	1.374445	0.360630
H62	H	0.915123	1.874445	0.860630
