data_functionalizedCrystal
_audit_creation_method	'MofGen! by Chris Wilmer'
_symmetry_space_group_name_H-M	'P1'
_symmetry_Int_Tables_number	1
_symmetry_cell_setting	triclinic
loop_
_symmetry_equiv_pos_as_xyz
  x,y,z
_cell_length_a	6.817900
_cell_length_b	9.514072
_cell_length_c	11.168144
_cell_angle_alpha	88.684538
_cell_angle_beta	108.508840
_cell_angle_gamma	118.843421
loop_
_atom_site_label
_atom_site_type_symbol
_atom_site_fract_x
_atom_site_fract_y
_atom_site_fract_z
V1	V	-4.169139	-0.222227	-0.394688
O2	O	-4.066626	0.010656	-0.386157
O3	O	-4.203659	-0.440617	-0.392968
O4	O	-4.144521	-0.218819	-0.566379
O5	O	-4.126174	-0.212677	-0.211546
V6	V	-4.638941	-0.194370	-0.372664
O7	O	-4.460496	-0.283333	-0.443000
O8	O	-4.797781	-0.133265	-0.324352
O9	O	-4.381214	0.024019	-0.374384
O10	O	-4.858850	-0.427253	-0.381195
O11	O	-4.799303	-0.203920	-0.555807
O12	O	-4.440352	-0.197779	-0.200974
C13	C	-4.068063	-0.493855	-0.386994
C14	C	-4.177732	-0.672391	-0.386732
C15	C	-3.992624	-0.210928	-0.608196
C16	C	-4.054329	-0.209587	-0.748560
C17	C	-4.175923	-0.348760	-0.828900
C18	C	-4.239700	-0.347377	-0.973975
C19	C	-4.180155	0.077249	-0.380355
C20	C	-4.049726	0.255783	-0.380625
C21	C	-4.255592	-0.205675	-0.159150
C22	C	-4.173123	-0.207008	-0.018785
H23	H	-3.856198	-0.669112	-0.375535
H24	H	-4.371264	-0.747501	-0.391804
H25	H	-4.232819	-0.468936	-0.790280
H26	H	-4.343893	-0.466526	-1.042997
F27	F	-4.036900	-0.051258	-0.928578
H28	H	-3.997456	-0.089412	-0.787181
