data_functionalizedCrystal
_audit_creation_method	'MofGen! by Chris Wilmer'
_symmetry_space_group_name_H-M	'P1'
_symmetry_Int_Tables_number	1
_symmetry_cell_setting	triclinic
loop_
_symmetry_equiv_pos_as_xyz
  x,y,z
_cell_length_a	17.638336
_cell_length_b	17.640280
_cell_length_c	17.639306
_cell_angle_alpha	87.821350
_cell_angle_beta	70.367730
_cell_angle_gamma	65.685103
loop_
_atom_site_label
_atom_site_type_symbol
_atom_site_fract_x
_atom_site_fract_y
_atom_site_fract_z
Zn1	Zn	1.477714	-0.734577	-0.596839
Zn2	Zn	1.466398	-0.833256	-0.442460
Zn3	Zn	1.300782	-0.667572	-0.442500
Zn4	Zn	1.356471	-0.833177	-0.552417
O5	O	1.400341	-0.767145	-0.508554
O6	O	1.596265	-0.775742	-0.594934
O7	O	1.416387	-0.783269	-0.331856
O8	O	1.305682	-0.565857	-0.481581
O9	O	1.587951	-0.848241	-0.481512
O10	O	1.435673	-0.615085	-0.594973
O11	O	1.294709	-0.661541	-0.331886
O12	O	1.188118	-0.661464	-0.438507
O13	O	1.400597	-0.848106	-0.668919
O14	O	1.229033	-0.783133	-0.519262
O15	O	1.489673	-0.775665	-0.701555
O16	O	1.470386	-0.943849	-0.438438
O17	O	1.389624	-0.943791	-0.519223
C18	C	1.177447	-0.715020	-0.474069
C19	C	1.082100	-0.692744	-0.459332
C20	C	0.926394	-0.597943	-0.396606
C21	C	1.015990	-0.618882	-0.410459
C22	C	1.058634	-0.745700	-0.494367
C23	C	0.969041	-0.724774	-0.480518
C24	C	0.902927	-0.650894	-0.431637
C25	C	0.945573	-0.777725	-0.515550
C26	C	0.855987	-0.756798	-0.501705
C27	C	0.789869	-0.682920	-0.452828
C28	C	0.813341	-0.629967	-0.417793
C29	C	1.011688	-0.851601	-0.564435
C30	C	0.988221	-0.904552	-0.599466
C31	C	0.898633	-0.883628	-0.585617
C32	C	0.832515	-0.809751	-0.536740
C33	C	0.875161	-0.936581	-0.620652
C34	C	0.785575	-0.915654	-0.606808
C35	C	0.742929	-0.788824	-0.522895
C36	C	1.434848	-0.972508	-0.474027
C37	C	1.449695	-1.060388	-0.459295
C38	C	1.287974	-1.349271	-0.620815
C39	C	1.301920	-1.431841	-0.606947
C40	C	1.386112	-1.431879	-0.522938
C41	C	1.372177	-1.349308	-0.536802
C42	C	1.323106	-1.308010	-0.585741
C43	C	1.407309	-1.308047	-0.501728
C44	C	1.393370	-1.225482	-0.515588
C45	C	1.344299	-1.184177	-0.564522
C46	C	1.309167	-1.225445	-0.599600
C47	C	1.456374	-1.349344	-0.452785
C48	C	1.491506	-1.308083	-0.417711
C49	C	1.477573	-1.225518	-0.431575
C50	C	1.428502	-1.184214	-0.480509
C51	C	1.512705	-1.184251	-0.396496
C52	C	1.498766	-1.101686	-0.410356
C53	C	1.414563	-1.101649	-0.494369
C54	C	1.624106	-0.819475	-0.543174
C55	C	1.719461	-0.841775	-0.557927
C56	C	1.452609	-0.819351	-0.714719
C57	C	1.474883	-0.841598	-0.802574
C58	C	1.365728	-0.560991	-0.543237
C59	C	1.350978	-0.473140	-0.558016
C60	C	1.231416	-0.597921	-1.091617
C61	C	1.252368	-0.618847	-1.174171
C62	C	1.379057	-0.745588	-1.174120
C63	C	1.358119	-0.724672	-1.091566
C64	C	1.284297	-0.650837	-1.050321
C65	C	1.410999	-0.777588	-1.050269
C66	C	1.390060	-0.756674	-0.967721
C67	C	1.316239	-0.682845	-0.926470
C68	C	1.263357	-0.629924	-0.967773
C69	C	1.484817	-0.851424	-1.091515
C70	C	1.537698	-0.904341	-1.050218
C71	C	1.516762	-0.883425	-0.967670
C72	C	1.442942	-0.809595	-0.926418
C73	C	1.569645	-0.936345	-0.926367
C74	C	1.548705	-0.915432	-0.843819
C75	C	1.422002	-0.788682	-0.843870
C76	C	1.348317	-0.715097	-0.303208
C77	C	1.326172	-0.692667	-0.215417
H78	H	0.929004	-0.996729	-0.660457
H79	H	1.527373	-1.068090	-0.381794
C80	C	1.108932	-0.874370	-0.579307
C81	C	1.122846	-0.882300	-0.505233
C82	C	1.212417	-0.903285	-0.518902
H83	H	1.124214	-0.831638	-0.604723
H84	H	1.144973	-0.925971	-0.613403
H85	H	1.086817	-0.830705	-0.471149
H86	H	1.107583	-0.925034	-0.479806
H87	H	1.248458	-0.954887	-0.552998
H88	H	1.227691	-0.860551	-0.544320
H89	H	1.221871	-0.908676	-0.468647
C90	C	1.041593	-0.561536	-0.372369
C91	C	1.087682	-0.605385	-0.322086
C92	C	1.111295	-0.552591	-0.286996
H93	H	0.989465	-0.514524	-0.341217
H94	H	1.078493	-0.543001	-0.413831
H95	H	1.050783	-0.623907	-0.280630
H96	H	1.139820	-0.652393	-0.353219
H97	H	1.148195	-0.534056	-0.328459
H98	H	1.059163	-0.505582	-0.255849
H99	H	1.142575	-0.582337	-0.252882
C100	C	1.183156	-0.549849	-0.922852
C101	C	1.123676	-0.569738	-0.859414
C102	C	1.049795	-0.496000	-0.818007
H103	H	1.154550	-0.521261	-0.959166
H104	H	1.201996	-0.514929	-0.901468
H105	H	1.104836	-0.604645	-0.880798
H106	H	1.152254	-0.598316	-0.823082
H107	H	1.068635	-0.461080	-0.796624
H108	H	1.021196	-0.467417	-0.854327
H109	H	1.009432	-0.509484	-0.774956
H110	H	1.299187	-0.665823	-0.859252
H111	H	0.766469	-0.958770	-0.635336
H112	H	1.112476	-0.805851	-0.534168
C113	C	1.459193	-0.825691	-1.219056
C114	C	1.466226	-0.832673	-1.300192
C115	C	1.540045	-0.906446	-1.341612
H116	H	1.452210	-0.872501	-1.194744
H117	H	1.511488	-0.824179	-1.216439
H118	H	1.413944	-0.834192	-1.302805
H119	H	1.473224	-0.785880	-1.324526
H120	H	1.592340	-0.904935	-1.338995
H121	H	1.533055	-0.953251	-1.317294
H122	H	1.544832	-0.911190	-1.396668
H123	H	1.332944	-1.116944	-0.575799
C124	C	1.255844	-1.180733	-0.652741
C125	C	1.228049	-1.234534	-0.680488
C126	C	1.178924	-1.193373	-0.729435
H127	H	1.291859	-1.164885	-0.697739
H128	H	1.205346	-1.132168	-0.622114
H129	H	1.278540	-1.283084	-0.711114
H130	H	1.192023	-1.250386	-0.635507
H131	H	1.128426	-1.144808	-0.698808
H132	H	1.214945	-1.177526	-0.774429
H133	H	1.160052	-1.229868	-0.748261
C134	C	1.605983	-0.972792	-0.798825
C135	C	1.571829	-0.938683	-0.717700
C136	C	1.624562	-0.991508	-0.676224
H137	H	1.665132	-0.978163	-0.823112
H138	H	1.605761	-1.026392	-0.801422
H139	H	1.572061	-0.885098	-0.715108
H140	H	1.512687	-0.933315	-0.693391
H141	H	1.624339	-1.045108	-0.678821
H142	H	1.683708	-0.996876	-0.700518
H143	H	1.601391	-0.968377	-0.621176
C144	C	1.361399	-1.056948	-0.547633
C145	C	1.403225	-1.101173	-0.625360
C146	C	1.354276	-1.060025	-0.674445
H147	H	1.358106	-1.001870	-0.550961
H148	H	1.303113	-1.054128	-0.524879
H149	H	1.461495	-1.103984	-0.648108
H150	H	1.406517	-1.156249	-0.622057
H151	H	1.295990	-1.057205	-0.651691
H152	H	1.350986	-1.004948	-0.677766
H153	H	1.382643	-1.090029	-0.727185
C154	C	1.544770	-1.352769	-0.364524
C155	C	1.572538	-1.298953	-0.336761
C156	C	1.621601	-1.340083	-0.287757
H157	H	1.595279	-1.401341	-0.395092
H158	H	1.508696	-1.368590	-0.319536
H159	H	1.608611	-1.283144	-0.381743
H160	H	1.522048	-1.250380	-0.306181
H161	H	1.585526	-1.355905	-0.242768
H162	H	1.672105	-1.388654	-0.318330
H163	H	1.640440	-1.303573	-0.268908
C164	C	1.263745	-1.476514	-0.645143
C165	C	1.217810	-1.422679	-0.690982
C166	C	1.182642	-1.463806	-0.726186
H167	H	1.224111	-1.492369	-0.603764
H168	H	1.310693	-1.525073	-0.679322
H169	H	1.170868	-1.374135	-0.656805
H170	H	1.257425	-1.406821	-0.732373
H171	H	1.229590	-1.512365	-0.760366
H172	H	1.143012	-1.479659	-0.684803
H173	H	1.151478	-1.427288	-0.757299
H174	H	1.042062	-0.964703	-0.639267
H175	H	1.248023	-1.315647	-0.660672
H176	H	1.426063	-1.465513	-0.483090
H177	H	0.872560	-0.537783	-0.356802
H178	H	1.467724	-1.416575	-0.441504
C179	C	1.341737	-0.708593	-0.799082
C180	C	1.264835	-0.711048	-0.803120
C181	C	1.190880	-0.637296	-0.761859
H182	H	1.348677	-0.661785	-0.823438
H183	H	1.336785	-0.703715	-0.743988
H184	H	1.269786	-0.715917	-0.858204
H185	H	1.257865	-0.757840	-0.778760
H186	H	1.185928	-0.632419	-0.706765
H187	H	1.197829	-0.590494	-0.786219
H188	H	1.138693	-0.638956	-0.764588
H189	H	0.689094	-0.728664	-0.483092
H190	H	1.171310	-0.537792	-1.058036
C191	C	1.617834	-0.984443	-1.095154
C192	C	1.624867	-0.991425	-1.176290
C193	C	1.698686	-1.065198	-1.217710
H194	H	1.610850	-1.031253	-1.070842
H195	H	1.670129	-0.982931	-1.092537
H196	H	1.572585	-0.992944	-1.178903
H197	H	1.631865	-0.944632	-1.200624
H198	H	1.750981	-1.063687	-1.215092
H199	H	1.691696	-1.112003	-1.193392
H200	H	1.703473	-1.069942	-1.272766
C201	C	1.649894	-1.016469	-0.971081
C202	C	1.726792	-1.014032	-0.967012
C203	C	1.800732	-1.087832	-1.008183
H204	H	1.654915	-1.021427	-1.026178
H205	H	1.642871	-1.063229	-0.946657
H206	H	1.733814	-0.967285	-0.991438
H207	H	1.721799	-1.009086	-0.911925
H208	H	1.793709	-1.134593	-0.983760
H209	H	1.805745	-1.092784	-1.063278
H210	H	1.852915	-1.086192	-1.005422
H211	H	0.716923	-0.665881	-0.441561
H212	H	1.552650	-1.217885	-0.356644
H213	H	0.759506	-0.569807	-0.377989
H214	H	1.209303	-0.575748	-1.207792
H215	H	1.501866	-0.868448	-1.158731
