data_functionalizedCrystal
_audit_creation_method	'MofGen! by Chris Wilmer'
_symmetry_space_group_name_H-M	'P1'
_symmetry_Int_Tables_number	1
_symmetry_cell_setting	triclinic
loop_
_symmetry_equiv_pos_as_xyz
  x,y,z
_cell_length_a	14.971486
_cell_length_b	9.130313
_cell_length_c	14.971486
_cell_angle_alpha	90.001462
_cell_angle_beta	83.614129
_cell_angle_gamma	89.995281
loop_
_atom_site_label
_atom_site_type_symbol
_atom_site_fract_x
_atom_site_fract_y
_atom_site_fract_z
O1	O	1.186940	0.121632	0.116559
O2	O	0.926539	0.121672	0.130518
O3	O	1.063719	0.121640	-0.006662
O4	O	1.049760	0.121663	0.253738
O5	O	1.063717	-0.121959	-0.006658
O6	O	0.926538	-0.121927	0.130521
O7	O	1.186938	-0.121967	0.116562
Cu8	Cu	1.056738	-0.144190	0.123542
Cu9	Cu	1.056740	0.143894	0.123538
O10	O	1.049758	-0.121936	0.253742
C11	C	0.893214	-0.000123	0.129895
C12	C	0.793917	-0.000108	0.128024
N13	N	1.056743	-0.346812	0.123545
C14	C	0.736692	-0.000103	0.208614
C15	C	0.643392	-0.000125	0.206850
C16	C	0.607320	-0.000141	0.124497
C17	C	0.664552	-0.000151	0.043902
C18	C	0.757850	-0.000139	0.045666
C19	C	0.470090	-0.000171	0.040231
C20	C	0.376786	-0.000180	0.038466
C21	C	0.355632	-0.000157	0.201415
C22	C	0.448930	-0.000145	0.203179
C23	C	0.506156	-0.000152	0.122584
C24	C	1.117501	-0.423478	0.062822
C25	C	1.117499	-0.576815	0.062811
C26	C	0.995977	-0.576807	0.184254
C27	C	0.995975	-0.423473	0.184259
C28	C	1.178269	-0.346818	0.002107
C29	C	1.239033	-0.423484	-0.058619
C30	C	1.239030	-0.576821	-0.058630
C31	C	1.178264	-0.653492	0.002086
C32	C	1.220263	-0.000170	0.117185
C33	C	1.319561	-0.000175	0.119056
C34	C	1.063094	-0.000159	-0.039985
C35	C	1.061223	-0.000157	-0.139282
N36	N	1.056742	0.346517	0.123528
C37	C	1.141812	-0.000171	-0.196507
C38	C	1.140049	-0.000156	-0.289807
C39	C	1.057696	-0.000138	-0.325879
C40	C	0.977101	-0.000120	-0.268646
C41	C	0.978865	-0.000124	-0.175349
C42	C	0.973430	-0.000114	-0.463109
C43	C	0.971665	-0.000112	-0.556413
C44	C	1.134614	-0.000145	-0.577567
C45	C	1.136378	-0.000150	-0.484269
C46	C	1.055782	-0.000135	-0.427043
C47	C	1.050384	-0.000134	0.287065
C48	C	1.052254	-0.000126	0.386362
H49	H	0.766054	-0.000088	0.275675
Cl50	Cl	0.872107	-0.000094	-0.391168
H51	H	1.200238	-0.000153	-0.624165
H52	H	1.208874	-0.000194	-0.167145
H53	H	0.904606	-0.000121	-0.585780
Cl54	Cl	0.873570	-0.000079	-0.313995
H55	H	0.946499	-0.361051	0.233704
Cl56	Cl	0.571455	-0.000109	0.308168
H57	H	0.309033	-0.000158	0.267039
H58	H	1.288501	-0.639241	-0.108082
Cl59	Cl	1.178258	-0.846260	0.002061
H60	H	1.205673	-0.000170	-0.336396
H61	H	0.946504	-0.639242	0.233687
Cl62	Cl	1.315413	-0.327102	-0.134952
Cl63	Cl	1.239910	-0.000165	-0.438922
Cl64	Cl	0.877548	-0.000102	-0.103407
Cl65	Cl	1.178278	-0.154052	0.002121
H66	H	0.347419	-0.000195	-0.028593
H67	H	0.478296	-0.000118	0.270239
H68	H	0.516682	-0.000179	-0.025399
Cl69	Cl	0.619204	-0.000181	-0.059629
H70	H	0.804443	-0.000143	-0.019958
