data_functionalizedCrystal
_audit_creation_method	'MofGen! by Chris Wilmer'
_symmetry_space_group_name_H-M	'P1'
_symmetry_Int_Tables_number	1
_symmetry_cell_setting	triclinic
loop_
_symmetry_equiv_pos_as_xyz
  x,y,z
_cell_length_a	15.944551
_cell_length_b	19.188930
_cell_length_c	14.421503
_cell_angle_alpha	89.999163
_cell_angle_beta	89.996859
_cell_angle_gamma	83.321760
loop_
_atom_site_label
_atom_site_type_symbol
_atom_site_fract_x
_atom_site_fract_y
_atom_site_fract_z
O1	O	1.114192	0.090038	-0.077026
O2	O	1.614192	0.590038	0.422974
O3	O	0.869601	0.101140	-0.077050
O4	O	1.369601	0.601140	0.422950
O5	O	0.998955	-0.006048	-0.077019
O6	O	1.498955	0.493952	0.422981
O7	O	0.984838	0.197227	-0.077057
O8	O	1.484838	0.697227	0.422943
O9	O	0.998934	-0.006032	0.077204
O10	O	1.498934	0.493968	0.577204
O11	O	0.869580	0.101156	0.077173
O12	O	1.369580	0.601156	0.577173
O13	O	1.114171	0.090054	0.077198
O14	O	1.614171	0.590054	0.577198
Cu15	Cu	0.991873	0.095607	0.091267
Cu16	Cu	1.491873	0.595607	0.591267
Cu17	Cu	0.991899	0.095588	-0.091120
Cu18	Cu	1.491899	0.595588	0.408880
O19	O	0.984817	0.197243	0.077167
O20	O	1.484817	0.697243	0.577167
C21	C	0.838298	0.100687	0.000059
C22	C	1.338298	0.600687	0.500059
C23	C	0.745057	0.099306	0.000050
C24	C	1.245057	0.599306	0.500050
C25	C	0.530462	0.029563	0.000081
C26	C	1.030462	0.529563	0.500081
C27	C	0.469331	0.061941	-0.075965
C28	C	0.969331	0.561941	0.424035
C29	C	0.574341	0.096806	0.000062
C30	C	1.074341	0.596806	0.500062
C31	C	0.469332	0.061973	0.076087
C32	C	0.969332	0.561973	0.576087
C33	C	0.409437	0.094386	0.000077
C34	C	0.909437	0.594386	0.500077
C35	C	0.514438	0.129203	-0.076047
C36	C	1.014438	0.629203	0.423953
C37	C	0.514446	0.129225	0.076073
C38	C	1.014446	0.629225	0.576073
C39	C	0.453332	0.161652	0.000008
C40	C	0.953332	0.661652	0.500008
C41	C	0.669338	0.098198	0.000052
C42	C	1.169338	0.598198	0.500052
C43	C	0.314441	0.093000	0.000080
C44	C	0.814441	0.593000	0.500080
C45	C	0.998487	-0.032052	0.000095
C46	C	1.498487	0.467948	0.500095
C47	C	0.997115	-0.109560	0.000103
C48	C	1.497115	0.390440	0.500103
C49	C	1.073016	-0.154288	0.000115
C50	C	1.573016	0.345712	0.500115
C51	C	1.071726	-0.227115	0.000100
C52	C	1.571726	0.272885	0.500100
C53	C	0.994532	-0.255211	0.000092
C54	C	1.494532	0.244789	0.500092
C55	C	0.918622	-0.210474	0.000075
C56	C	1.418622	0.289526	0.500075
C57	C	0.919913	-0.137648	0.000080
C58	C	1.419913	0.362352	0.500080
N59	N	0.935519	-0.363364	0.052571
N60	N	1.435519	0.136636	0.552571
N61	N	0.934298	-0.432545	0.052568
N62	N	1.434298	0.067455	0.552568
C63	C	0.990637	-0.474630	0.000073
C64	C	1.490637	0.025370	0.500073
N65	N	1.048256	-0.444921	-0.052407
N66	N	1.548256	0.055079	0.447593
N67	N	1.049480	-0.375733	-0.052400
N68	N	1.549480	0.124267	0.447600
C69	C	0.993123	-0.334178	0.000085
C70	C	1.493123	0.165822	0.500085
C71	C	1.065145	-0.598326	0.000067
C72	C	1.565145	-0.098326	0.500067
C73	C	1.063852	-0.671154	0.000046
C74	C	1.563852	-0.171154	0.500046
C75	C	0.910745	-0.654511	0.000030
C76	C	1.410745	-0.154511	0.500030
C77	C	0.912040	-0.581685	0.000041
C78	C	1.412040	-0.081685	0.500041
C79	C	0.989242	-0.553597	0.000064
C80	C	1.489242	-0.053597	0.500064
C81	C	1.145474	0.090507	0.000087
C82	C	1.645474	0.590507	0.500087
C83	C	1.238715	0.091889	0.000089
C84	C	1.738715	0.591889	0.500089
C85	C	0.985285	0.223247	0.000050
C86	C	1.485285	0.723247	0.500050
C87	C	0.986657	0.300755	0.000036
C88	C	1.486657	0.800755	0.500036
N89	N	0.991862	0.095619	0.219549
N90	N	1.491862	0.595619	0.719549
N91	N	0.991917	0.095569	-0.219401
N92	N	1.491917	0.595569	0.280599
C93	C	0.932038	0.145161	0.469188
C94	C	1.432038	0.645161	0.969188
C95	C	1.007887	0.158716	0.530995
C96	C	1.507887	0.658716	1.030995
C97	C	0.991882	0.095603	0.408710
C98	C	1.491882	0.595603	0.908710
C99	C	0.916052	0.082064	0.530997
C100	C	1.416052	0.582064	1.030997
C101	C	0.991895	0.095588	0.591431
C102	C	1.491895	0.595588	1.091431
C103	C	1.067770	0.109189	0.469157
C104	C	1.567770	0.609189	0.969157
C105	C	0.975885	0.032510	0.469153
C106	C	1.475885	0.532510	0.969153
C107	C	1.051789	0.046038	0.530932
C108	C	1.551789	0.546038	1.030932
C109	C	0.991874	0.095613	0.303449
C110	C	1.491874	0.595613	0.803449
C111	C	0.991913	0.095578	0.696690
C112	C	1.491913	0.595578	1.196690
H113	H	0.449343	0.033526	0.140376
H114	H	0.949343	0.533526	0.640376
N115	N	1.145720	-0.719400	0.000055
N116	N	1.645720	-0.219400	0.500055
H117	H	1.194820	-0.690553	0.000074
H118	H	1.694820	-0.190553	0.500074
H119	H	1.148504	-0.749982	0.057225
H120	H	1.648504	-0.249982	0.557225
H121	H	0.534462	0.157649	0.140358
H122	H	1.034462	0.657649	0.640358
N123	N	0.838046	-0.089401	0.000067
N124	N	1.338046	0.410599	0.500067
H125	H	0.788945	-0.118247	0.000056
H126	H	1.288945	0.381753	0.500056
H127	H	0.835238	-0.058827	0.057243
H128	H	1.335238	0.441173	0.557243
H129	H	1.131917	0.120698	0.442107
H130	H	1.631917	0.620698	0.942107
H131	H	0.419965	0.217516	-0.000045
H132	H	0.919965	0.717516	0.499955
N133	N	0.831106	0.066901	0.566988
N134	N	1.331106	0.566901	1.066988
H135	H	0.785945	0.104375	0.544530
H136	H	1.285945	0.604375	1.044530
H137	H	0.818626	0.019599	0.543522
H138	H	1.318626	0.519599	1.043522
H139	H	1.135880	-0.131424	0.000131
H140	H	1.635880	0.368576	0.500131
H141	H	1.102458	0.004119	0.557872
H142	H	1.602458	0.504119	1.057872
N143	N	0.574852	-0.044372	0.000011
N144	N	1.074852	0.455628	0.500011
H145	H	0.558572	-0.069688	-0.057477
H146	H	1.058572	0.430312	0.442523
H147	H	0.637955	-0.042869	0.000635
H148	H	1.137955	0.457131	0.500635
N149	N	0.957923	-0.038138	0.433141
N150	N	1.457923	0.461862	0.933141
H151	H	0.900593	-0.048317	0.455596
H152	H	1.400593	0.451683	0.955596
H153	H	0.958651	-0.037695	0.363117
H154	H	1.458651	0.462305	0.863117
N155	N	1.153593	-0.275370	0.000111
N156	N	1.653593	0.224630	0.500111
H157	H	1.202695	-0.246525	0.000125
H158	H	1.702695	0.253475	0.500125
H159	H	1.156376	-0.305948	0.057283
H160	H	1.656376	0.194052	0.557283
N161	N	0.827483	-0.684804	0.000011
N162	N	1.327483	-0.184804	0.500011
H163	H	0.838181	-0.737726	0.000006
H164	H	1.338181	-0.237726	0.500006
H165	H	0.794270	-0.668445	0.057180
H166	H	1.294270	-0.168445	0.557180
N167	N	0.835361	-0.240772	0.000061
N168	N	1.335361	0.259228	0.500061
H169	H	0.846059	-0.293694	0.000062
H170	H	1.346059	0.206306	0.500062
H171	H	0.802148	-0.224410	0.057229
H172	H	1.302148	0.275590	0.557229
N173	N	0.830170	-0.533443	0.000044
N174	N	1.330170	-0.033443	0.500044
H175	H	0.827287	-0.502859	0.057217
H176	H	1.327287	-0.002859	0.557217
H177	H	0.827347	-0.502899	-0.057162
H178	H	1.327347	-0.002899	0.442838
H179	H	0.534329	0.157616	-0.140409
H180	H	1.034329	0.657616	0.359591
H181	H	1.128007	-0.575456	0.000081
H182	H	1.628007	-0.075456	0.500081
N183	N	0.865062	0.200712	0.433279
N184	N	1.365062	0.700712	0.933279
H185	H	0.877264	0.248349	0.455780
H186	H	1.377264	0.748349	0.955780
H187	H	0.865196	0.199971	0.363255
H188	H	1.365196	0.699971	0.863255
N189	N	1.025826	0.229383	0.566978
N190	N	1.525826	0.729383	1.066978
H191	H	0.976997	0.250340	0.606514
H192	H	1.476997	0.750340	1.106514
H193	H	1.079099	0.223484	0.605461
H194	H	1.579099	0.723484	1.105461
N195	N	0.442841	0.024265	-0.161115
N196	N	0.942841	0.524265	0.338885
H197	H	0.471187	-0.025623	-0.161052
H198	H	0.971187	0.474377	0.338948
H199	H	0.379528	0.024066	-0.160738
H200	H	0.879528	0.524066	0.339262
