data_functionalizedCrystal
_audit_creation_method	'MofGen! by Chris Wilmer'
_symmetry_space_group_name_H-M	'P1'
_symmetry_Int_Tables_number	1
_symmetry_cell_setting	triclinic
loop_
_symmetry_equiv_pos_as_xyz
  x,y,z
_cell_length_a	17.038278
_cell_length_b	17.038272
_cell_length_c	16.053802
_cell_angle_alpha	92.751609
_cell_angle_beta	87.232853
_cell_angle_gamma	91.111028
loop_
_atom_site_label
_atom_site_type_symbol
_atom_site_fract_x
_atom_site_fract_y
_atom_site_fract_z
O1	O	1.051847	0.167441	-0.069437
O2	O	0.824036	0.164735	-0.069438
O3	O	0.936588	0.052182	-0.069431
O4	O	0.939296	0.279993	-0.069444
O5	O	0.930391	0.058350	0.069428
O6	O	0.817839	0.170903	0.069421
O7	O	1.045651	0.173608	0.069421
Zn8	Zn	0.930761	0.173235	0.091468
Zn9	Zn	0.938926	0.165108	-0.091484
O10	O	0.933099	0.286161	0.069414
C11	C	0.791645	0.165356	-0.000008
C12	C	0.704361	0.158009	-0.000008
C13	C	0.210936	0.112871	-0.000009
C14	C	0.292947	0.119781	-0.000004
C15	C	0.329347	0.194154	-0.000012
C16	C	0.283731	0.261622	-0.000016
C17	C	0.201721	0.254712	-0.000015
C18	C	0.576735	0.218567	-0.000011
C19	C	0.658751	0.225472	-0.000015
C20	C	0.667962	0.083630	-0.000001
C21	C	0.585950	0.076726	-0.000005
C22	C	0.540340	0.144194	-0.000005
C23	C	0.413176	0.201219	-0.000010
C24	C	0.456513	0.137129	-0.000001
C25	C	0.931026	0.025973	-0.000002
C26	C	0.923678	-0.061310	-0.000002
C27	C	0.991142	-0.106920	-0.000001
C28	C	0.984233	-0.188932	-0.000009
C29	C	0.909860	-0.225333	-0.000012
C30	C	0.842392	-0.179717	-0.000015
C31	C	0.849301	-0.097706	-0.000013
C32	C	0.885450	-0.472721	-0.000023
C33	C	0.878545	-0.554737	-0.000023
C34	C	1.020388	-0.563947	-0.000018
C35	C	1.027291	-0.481934	-0.000011
C36	C	0.959822	-0.436326	-0.000019
C37	C	0.902796	-0.309162	-0.000017
C38	C	0.966887	-0.352498	-0.000019
C39	C	1.078042	0.172987	-0.000010
C40	C	1.165326	0.180334	-0.000016
C41	C	0.938661	0.312370	-0.000017
C42	C	0.946009	0.399653	-0.000022
N43	N	0.925194	0.178781	0.216328
N44	N	0.944498	0.159557	-0.216344
C45	C	0.973105	0.130909	0.260025
C46	C	0.969219	0.134796	0.347431
C47	C	0.917426	0.186560	0.391139
C48	C	0.869510	0.234434	0.347436
C49	C	0.873392	0.230542	0.260031
C50	C	0.900465	0.203538	0.652548
C51	C	0.896587	0.207428	0.739959
C52	C	0.996296	0.107789	0.739948
C53	C	1.000177	0.103906	0.652541
C54	C	0.952258	0.151776	0.608846
N55	N	0.913454	0.190537	0.480483
N56	N	0.956227	0.147795	0.519504
H57	H	0.556319	0.016164	0.000002
H58	H	0.842241	-0.338808	-0.000018
H59	H	0.181305	0.052308	-0.000007
O60	O	0.819968	-0.428333	0.000085
C61	C	0.742212	-0.327234	0.072045
C62	C	0.816410	-0.377445	0.072016
H63	H	0.739302	-0.286091	0.130203
H64	H	0.744486	-0.291133	0.013971
H65	H	0.687882	-0.367354	0.072005
H66	H	0.870778	-0.337383	0.072085
H67	H	0.814067	-0.413554	0.130085
H68	H	0.781835	-0.209361	-0.000023
O69	O	1.042796	0.061170	0.782304
C70	C	1.078499	-0.071113	0.809099
C71	C	1.025806	-0.018401	0.761063
H72	H	1.064770	-0.135457	0.791957
H73	H	1.142858	-0.057498	0.791885
H74	H	1.066839	-0.059401	0.879073
H75	H	1.037397	-0.030083	0.691079
H76	H	0.961464	-0.032027	0.778348
O77	O	0.853892	0.250122	0.610239
C78	C	0.754555	0.349330	0.619482
C79	C	0.807269	0.296629	0.667505
H80	H	0.716835	0.386932	0.665761
H81	H	0.792845	0.389068	0.578567
H82	H	0.714919	0.310957	0.578557
H83	H	0.846913	0.334940	0.708476
H84	H	0.768932	0.256885	0.708368
H85	H	0.539610	0.273504	-0.000015
O86	O	1.015849	0.088273	0.389748
C87	C	1.115143	-0.010978	0.380513
C88	C	1.062387	0.041677	0.332486
H89	H	1.152771	-0.048676	0.334238
H90	H	1.154858	0.027355	0.421392
H91	H	1.076810	-0.050635	0.421476
H92	H	1.100658	0.081343	0.291478
H93	H	1.022667	0.003298	0.291661
O94	O	0.319044	0.333893	0.000124
C95	C	0.333012	0.460455	0.072020
C96	C	0.292983	0.378629	0.071979
H97	H	0.311945	0.496653	0.130099
H98	H	0.399466	0.453858	0.072071
H99	H	0.317217	0.491450	0.013878
H100	H	0.308715	0.347589	0.130111
H101	H	0.226538	0.385280	0.071884
O102	O	0.157453	0.320262	-0.000173
C103	C	0.127724	0.436203	-0.072099
C104	C	0.177895	0.361985	-0.072038
H105	H	0.144244	0.469966	-0.130186
H106	H	0.062847	0.418533	-0.072148
H107	H	0.138975	0.475086	-0.013964
H108	H	0.166711	0.323069	-0.130162
H109	H	0.242755	0.379712	-0.071945
O110	O	1.050192	0.053263	0.610181
C111	C	1.063521	-0.057823	0.512157
C112	C	1.006915	-0.000308	0.559938
H113	H	1.028552	-0.101159	0.471537
H114	H	1.107046	-0.023610	0.470978
H115	H	1.096872	-0.091312	0.558636
H116	H	0.973510	0.033196	0.513519
H117	H	0.963440	-0.034564	0.601130
H118	H	0.794365	-0.060572	-0.000014
H119	H	0.834377	0.269523	0.224454
H120	H	0.330080	0.064845	0.000005
H121	H	0.426872	0.076574	-0.000004
H122	H	0.827334	0.276578	0.383029
O123	O	1.049753	-0.233274	-0.000156
C124	C	1.127469	-0.334425	-0.072077
C125	C	1.053245	-0.284249	-0.072020
H126	H	1.130307	-0.375662	-0.130164
H127	H	1.181839	-0.294357	-0.072125
H128	H	1.125180	-0.370441	-0.013943
H129	H	1.055457	-0.248227	-0.130145
H130	H	0.998906	-0.324360	-0.071929
H131	H	1.087853	-0.452303	-0.000008
O132	O	0.448583	0.273438	-0.000167
C133	C	0.539094	0.360328	-0.072082
C134	C	0.499033	0.278520	-0.072024
H135	H	0.579905	0.364458	-0.130163
H136	H	0.492451	0.407400	-0.072143
H137	H	0.574628	0.369673	-0.013941
H138	H	0.463503	0.269100	-0.130154
H139	H	0.545715	0.231491	-0.071919
H140	H	0.705105	0.028701	-0.000000
H141	H	0.688385	0.286039	-0.000009
O142	O	1.063450	-0.071692	-0.000037
C143	C	1.203406	-0.089490	0.000005
C144	C	1.121564	-0.129484	0.000032
H145	H	1.250413	-0.136196	0.000079
H146	H	1.212831	-0.053929	-0.058121
H147	H	1.207557	-0.048724	0.058103
H148	H	1.117356	-0.170288	-0.058027
H149	H	1.112175	-0.164996	0.058196
O150	O	0.806237	-0.589974	-0.000072
C151	C	0.666276	-0.572188	-0.000046
C152	C	0.748111	-0.532182	-0.000009
H153	H	0.619258	-0.525481	0.000022
H154	H	0.662049	-0.612907	-0.058173
H155	H	0.656938	-0.607801	0.058052
H156	H	0.757503	-0.496529	-0.058067
H157	H	0.752298	-0.491509	0.058156
O158	O	1.039169	-0.317228	0.000093
C159	C	1.159279	-0.296768	0.072065
C160	C	1.077447	-0.336780	0.072028
H161	H	1.190244	-0.312547	0.130226
H162	H	1.195543	-0.317757	0.013994
H163	H	1.152606	-0.230323	0.072023
H164	H	1.084047	-0.403229	0.072099
H165	H	1.041213	-0.315727	0.130093
H166	H	1.075316	-0.601090	-0.000013
H167	H	0.854409	0.249584	0.775542
H168	H	1.015284	0.088761	0.224443
