data_functionalizedCrystal
_audit_creation_method	'MofGen! by Chris Wilmer'
_symmetry_space_group_name_H-M	'P1'
_symmetry_Int_Tables_number	1
_symmetry_cell_setting	triclinic
loop_
_symmetry_equiv_pos_as_xyz
  x,y,z
_cell_length_a	29.839134
_cell_length_b	29.839131
_cell_length_c	12.759393
_cell_angle_alpha	89.961905
_cell_angle_beta	89.969702
_cell_angle_gamma	90.036281
loop_
_atom_site_label
_atom_site_type_symbol
_atom_site_fract_x
_atom_site_fract_y
_atom_site_fract_z
Zn1	Zn	0.686757	-0.178887	-0.594297
Zn2	Zn	0.686678	-0.254026	-0.418598
Zn3	Zn	0.611628	-0.178904	-0.418597
Zn4	Zn	0.611587	-0.253984	-0.594200
O5	O	0.649162	-0.216451	-0.506423
O6	O	0.749613	-0.188865	-0.571031
O7	O	0.676707	-0.244086	-0.271577
O8	O	0.621645	-0.116035	-0.441944
O9	O	0.749555	-0.244069	-0.441946
O10	O	0.676841	-0.116023	-0.571031
O11	O	0.621568	-0.188894	-0.271576
O12	O	0.548756	-0.188853	-0.441850
O13	O	0.621574	-0.243998	-0.741234
O14	O	0.548725	-0.244014	-0.570864
O15	O	0.676801	-0.188825	-0.741305
O16	O	0.676667	-0.316888	-0.441851
O17	O	0.621498	-0.316857	-0.570865
C18	C	0.532440	-0.216432	-0.506347
C19	C	0.482505	-0.216434	-0.506340
C20	C	0.172856	-0.245215	-0.573518
C21	C	-0.014817	-0.245228	-0.573565
O22	O	-0.039088	-0.269678	-0.630638
N23	N	-0.038280	-0.216467	-0.506502
C24	C	-0.014821	-0.187699	-0.439427
O25	O	-0.039083	-0.163233	-0.382395
C26	C	0.172851	-0.187684	-0.439387
C27	C	0.196311	-0.216450	-0.506447
C28	C	0.196316	-0.273979	-0.640574
C29	C	0.243231	-0.273977	-0.640557
C30	C	0.266687	-0.245212	-0.573486
C31	C	0.243227	-0.216449	-0.506430
C32	C	0.196309	-0.158914	-0.372318
C33	C	0.243230	-0.158912	-0.372316
C34	C	0.266690	-0.187678	-0.439376
C35	C	0.313598	-0.187682	-0.439342
N36	N	0.337060	-0.216443	-0.506405
C37	C	0.313604	-0.245208	-0.573477
C38	C	-0.113351	-0.187709	-0.439452
C39	C	-0.160269	-0.187713	-0.439460
C40	C	-0.160263	-0.245242	-0.573600
C41	C	-0.113344	-0.245240	-0.573585
C42	C	-0.089889	-0.216470	-0.506515
C43	C	0.412130	-0.245202	-0.573437
C44	C	0.459050	-0.245199	-0.573411
C45	C	0.459039	-0.187669	-0.439276
C46	C	0.412124	-0.187673	-0.439297
C47	C	0.388670	-0.216442	-0.506386
O48	O	0.337897	-0.163241	-0.382307
O49	O	0.337875	-0.269663	-0.630518
C50	C	0.125940	-0.245217	-0.573535
C51	C	0.102480	-0.216454	-0.506479
C52	C	0.125936	-0.187689	-0.439408
C53	C	0.055563	-0.216458	-0.506488
C54	C	0.032107	-0.245223	-0.573560
C55	C	0.055569	-0.273984	-0.640623
C56	C	0.102485	-0.273982	-0.640607
C57	C	0.102474	-0.158928	-0.372345
C58	C	0.055558	-0.158932	-0.372366
C59	C	0.032103	-0.187697	-0.439437
C60	C	0.649081	-0.333173	-0.506371
C61	C	0.649088	-0.383108	-0.506384
C62	C	0.677941	-0.692754	-0.439344
C63	C	0.677997	-0.880427	-0.439384
O64	O	0.702464	-0.904695	-0.382344
N65	N	0.649256	-0.903893	-0.506502
C66	C	0.620501	-0.880437	-0.573619
O67	O	0.596059	-0.904702	-0.630716
C68	C	0.620448	-0.692765	-0.573583
C69	C	0.649188	-0.669302	-0.506453
C70	C	0.706679	-0.669291	-0.372220
C71	C	0.706663	-0.622376	-0.372207
C72	C	0.677909	-0.598923	-0.439316
C73	C	0.649172	-0.622386	-0.506440
C74	C	0.591696	-0.669310	-0.640705
C75	C	0.591686	-0.622389	-0.640692
C76	C	0.620426	-0.598926	-0.573562
C77	C	0.620402	-0.552018	-0.573536
N78	N	0.649143	-0.528553	-0.506418
C79	C	0.677897	-0.552006	-0.439308
C80	C	0.620530	-0.978967	-0.573632
C81	C	0.620543	-1.025885	-0.573640
C82	C	0.678039	-1.025873	-0.439406
C83	C	0.678024	-0.978954	-0.439394
C84	C	0.649271	-0.955502	-0.506514
C85	C	0.677861	-0.453480	-0.439284
C86	C	0.677841	-0.406560	-0.439274
C87	C	0.620347	-0.406577	-0.573511
C88	C	0.620365	-0.453492	-0.573518
C89	C	0.649125	-0.476943	-0.506402
O90	O	0.595951	-0.527722	-0.630555
O91	O	0.702342	-0.527733	-0.382237
C92	C	0.677957	-0.739670	-0.439357
C93	C	0.649219	-0.763133	-0.506481
C94	C	0.620466	-0.739680	-0.573590
C95	C	0.649232	-0.810050	-0.506488
C96	C	0.677985	-0.833503	-0.439379
C97	C	0.706726	-0.810038	-0.372261
C98	C	0.706710	-0.763122	-0.372247
C99	C	0.591725	-0.763145	-0.640708
C100	C	0.591743	-0.810061	-0.640715
C101	C	0.620496	-0.833513	-0.573606
C102	C	0.766341	-0.216470	-0.506500
C103	C	0.816275	-0.216478	-0.506532
C104	C	0.649192	-0.216405	-0.780456
C105	C	0.649204	-0.216385	-0.897233
C106	C	0.649256	-0.099272	-0.506498
C107	C	0.649296	-0.049338	-0.506530
C108	C	0.620506	-0.187642	-0.952101
C109	C	0.620519	-0.187628	-1.061825
C110	C	0.677934	-0.245104	-1.061804
C111	C	0.677917	-0.245119	-0.952082
C112	C	0.591792	-0.158908	-0.897252
C113	C	0.563092	-0.130162	-0.952120
C114	C	0.563106	-0.130149	-1.061844
C115	C	0.591820	-0.158882	-1.116700
C116	C	0.649159	-0.216464	-0.233456
C117	C	0.649234	-0.216357	-0.116679
H118	H	0.177223	-0.297403	-0.695197
H119	H	0.393040	-0.268627	-0.628069
H120	H	0.701292	-0.268518	-0.907407
N121	N	0.532120	-0.099173	-0.892969
H122	H	0.511280	-0.117431	-0.847417
H123	H	0.550420	-0.078367	-0.847536
N124	N	0.171014	-0.127887	-0.299987
H125	H	0.192999	-0.109665	-0.257508
H126	H	0.151572	-0.107118	-0.342848
H127	H	0.568291	-0.688405	-0.695364
N128	N	0.560674	-0.597094	-0.713091
H129	H	0.542472	-0.619080	-0.755613
H130	H	0.539886	-0.577662	-0.670271
H131	H	0.701312	-0.268495	-1.106477
N132	N	-0.088042	-0.276266	-0.645912
H133	H	-0.110025	-0.294489	-0.688397
H134	H	-0.068554	-0.258003	-0.694613
N135	N	0.386813	-0.156664	-0.366943
H136	H	0.367366	-0.135865	-0.409717
H137	H	0.367352	-0.174943	-0.318216
N138	N	0.484353	-0.276229	-0.645738
H139	H	0.462372	-0.294450	-0.688230
H140	H	0.503845	-0.257967	-0.694433
N141	N	0.708878	-0.478763	-0.366880
H142	H	0.690638	-0.498261	-0.318149
H143	H	0.729693	-0.498171	-0.409691
H144	H	0.568336	-0.829160	-0.695380
H145	H	0.568311	-0.744054	-0.695359
N146	N	-0.185568	-0.156693	-0.367115
H147	H	-0.177380	-0.124602	-0.383568
H148	H	-0.218842	-0.161096	-0.377322
H149	H	0.701426	-0.959853	-0.384732
N150	N	0.737693	-0.694578	-0.299820
H151	H	0.719452	-0.714074	-0.251085
H152	H	0.758506	-0.713987	-0.342629
H153	H	0.591779	-0.158915	-0.807909
H154	H	0.730113	-0.744022	-0.317584
N155	N	0.532148	-0.099150	-1.121026
H156	H	0.513957	-0.080952	-1.069627
H157	H	0.550458	-0.078358	-1.166579
H158	H	0.701244	-0.387458	-0.384605
H159	H	0.596934	-0.387475	-0.628148
H160	H	0.730137	-0.829141	-0.317615
H161	H	0.591827	-0.158869	-1.206045
N162	N	-0.185568	-0.276267	-0.645942
H163	H	-0.177381	-0.269324	-0.721037
H164	H	-0.177417	-0.308346	-0.629404
N165	N	0.030260	-0.127905	-0.300023
H166	H	0.038452	-0.095816	-0.316482
H167	H	-0.003014	-0.132305	-0.310236
H168	H	0.262328	-0.297401	-0.695167
H169	H	-0.094259	-0.164281	-0.384830
H170	H	0.262325	-0.135481	-0.317704
H171	H	0.701451	-1.044976	-0.384763
N172	N	0.589510	-0.953679	-0.646024
H173	H	0.568696	-0.934246	-0.603270
H174	H	0.607777	-0.934207	-0.694751
H175	H	0.730066	-0.603275	-0.317547
N176	N	0.589366	-0.478803	-0.645915
H177	H	0.568564	-0.498305	-0.603174
H178	H	0.571178	-0.456796	-0.688409
H179	H	0.478145	-0.164251	-0.384665
N180	N	0.127785	-0.305010	-0.712934
H181	H	0.105800	-0.323230	-0.755420
H182	H	0.147275	-0.286748	-0.761633
H183	H	0.036464	-0.297407	-0.695232
N184	N	0.589537	-1.051189	-0.646026
H185	H	0.571322	-1.029208	-0.688535
H186	H	0.607815	-1.070624	-0.694701
N187	N	0.127768	-0.127895	-0.300011
H188	H	0.105782	-0.109677	-0.257539
H189	H	0.147212	-0.146152	-0.251299
