data_functionalizedCrystal
_audit_creation_method	'MofGen! by Chris Wilmer'
_symmetry_space_group_name_H-M	'P1'
_symmetry_Int_Tables_number	1
_symmetry_cell_setting	triclinic
loop_
_symmetry_equiv_pos_as_xyz
  x,y,z
_cell_length_a	16.109317
_cell_length_b	14.586319
_cell_length_c	14.971486
_cell_angle_alpha	90.004001
_cell_angle_beta	96.458828
_cell_angle_gamma	90.001084
loop_
_atom_site_label
_atom_site_type_symbol
_atom_site_fract_x
_atom_site_fract_y
_atom_site_fract_z
O1	O	-1.103266	0.076143	0.115041
O2	O	-0.861223	0.076166	0.129333
O3	O	-0.988732	0.076148	-0.008022
O4	O	-0.975757	0.076162	0.252396
O5	O	-0.988723	-0.076333	-0.008024
O6	O	-0.861214	-0.076314	0.129331
O7	O	-1.103257	-0.076338	0.115039
Cu8	Cu	-0.982235	-0.090249	0.122185
Cu9	Cu	-0.982245	0.090077	0.122187
O10	O	-0.975748	-0.076319	0.252394
C11	C	-0.830244	-0.000071	0.128750
C12	C	-0.737947	-0.000062	0.127007
C13	C	-0.438871	0.083044	0.121377
C14	C	-0.525594	0.083048	0.123009
C15	C	-0.525603	-0.083195	0.122995
C16	C	-0.438882	-0.083198	0.121356
C17	C	-0.395518	-0.000075	0.120552
C18	C	-0.568962	-0.000068	0.123823
C19	C	-0.662991	-0.000065	0.125593
C20	C	-0.301483	-0.000079	0.118780
N21	N	-0.982233	-0.217081	0.122182
C22	C	-1.038713	-0.452095	0.061382
C23	C	-1.038715	-0.548077	0.061380
C24	C	-0.925768	-0.548069	0.182986
C25	C	-0.925762	-0.452090	0.182983
C26	C	-0.982239	-0.404105	0.122182
C27	C	-0.982247	-0.596066	0.122183
C28	C	-0.982250	-0.700133	0.122181
C29	C	-0.982236	-0.300032	0.122182
C30	C	-0.134236	-0.000093	0.115622
C31	C	-0.226533	-0.000082	0.117368
C32	C	-0.988147	-0.000093	-0.041347
C33	C	-0.986408	-0.000092	-0.140642
N34	N	-0.982253	0.216909	0.122182
C35	C	-1.061316	-0.000099	-0.197970
C36	C	-1.059677	-0.000090	-0.291268
C37	C	-0.983130	-0.000079	-0.327234
C38	C	-0.908216	-0.000069	-0.269898
C39	C	-0.909856	-0.000072	-0.176603
C40	C	-0.904804	-0.000065	-0.464356
C41	C	-0.903164	-0.000064	-0.557658
C42	C	-1.054625	-0.000084	-0.579021
C43	C	-1.056265	-0.000086	-0.485725
C44	C	-0.981351	-0.000077	-0.428396
C45	C	-0.976333	-0.000077	0.285719
C46	C	-0.978072	-0.000072	0.385013
H47	H	-0.560888	0.150733	0.123680
C48	C	-0.818967	-0.000039	-0.597234
C49	C	-0.756694	-0.079198	-0.575611
C50	C	-0.672498	-0.079169	-0.615192
C51	C	-0.650577	0.000018	-0.676395
C52	C	-0.712851	0.079183	-0.698020
C53	C	-0.797047	0.079154	-0.658440
H54	H	-0.772920	-0.137822	-0.530302
H55	H	-0.626399	-0.137773	-0.599183
H56	H	-0.588250	0.000039	-0.705695
H57	H	-0.696625	0.137807	-0.743329
H58	H	-0.843147	0.137758	-0.674449
H59	H	-0.879786	-0.587148	0.232490
C60	C	-0.573302	-0.174625	0.123912
C61	C	-0.525611	-0.266057	0.123018
C62	C	-0.573306	-0.357490	0.123949
C63	C	-0.668693	-0.357492	0.125774
C64	C	-0.716390	-0.266057	0.126667
C65	C	-0.668695	-0.174624	0.125737
H66	H	-0.454995	-0.266058	0.121668
H67	H	-0.537997	-0.425176	0.123288
H68	H	-0.704000	-0.425176	0.126463
H69	H	-0.787006	-0.266056	0.128018
H70	H	-0.704004	-0.106938	0.126398
H71	H	-1.115623	-0.000088	-0.625703
H72	H	-1.123650	-0.000114	-0.168694
H73	H	-0.843801	-0.000055	-0.417680
H74	H	-0.879770	-0.413014	0.232494
H75	H	-0.403566	0.150728	0.120721
H76	H	-0.845890	-0.000054	-0.299190
C77	C	-1.142080	-0.000102	-0.354326
C78	C	-1.204770	-0.079293	-0.350318
C79	C	-1.287178	-0.079303	-0.413375
C80	C	-1.306894	-0.000121	-0.480439
C81	C	-1.244202	0.079077	-0.484449
C82	C	-1.161795	0.079086	-0.421392
H83	H	-1.190176	-0.137914	-0.300671
H84	H	-1.333587	-0.137930	-0.410406
H85	H	-1.367897	-0.000128	-0.527117
H86	H	-1.258796	0.137697	-0.534096
H87	H	-1.115386	0.137714	-0.424361
C88	C	-0.391186	-0.174635	0.120449
C89	C	-0.340934	-0.197492	0.041695
C90	C	-0.293237	-0.288924	0.040784
C91	C	-0.295792	-0.357499	0.118627
C92	C	-0.346047	-0.334644	0.197387
C93	C	-0.393743	-0.243212	0.198298
H94	H	-0.339040	-0.146727	-0.015934
H95	H	-0.256035	-0.305842	-0.017520
H96	H	-0.260484	-0.425182	0.117952
H97	H	-0.347940	-0.385409	0.255016
H98	H	-0.430945	-0.226294	0.256602
H99	H	-0.848858	-0.000065	-0.129926
H100	H	-1.084699	-0.413029	0.011873
C101	C	-1.100840	-0.600867	-0.005499
C102	C	-1.162967	-0.548083	-0.072367
C103	C	-1.225093	-0.600874	-0.139249
C104	C	-1.225091	-0.706448	-0.139263
C105	C	-1.162962	-0.759237	-0.072392
C106	C	-1.100836	-0.706446	-0.005510
H107	H	-1.162970	-0.469926	-0.072359
H108	H	-1.271086	-0.561795	-0.188751
H109	H	-1.271081	-0.745526	-0.188773
H110	H	-1.162958	-0.837394	-0.072400
H111	H	-1.054843	-0.745525	0.043992
H112	H	-1.118597	-0.000102	-0.456445
