data_functionalizedCrystal
_audit_creation_method	'MofGen! by Chris Wilmer'
_symmetry_space_group_name_H-M	'P1'
_symmetry_Int_Tables_number	1
_symmetry_cell_setting	triclinic
loop_
_symmetry_equiv_pos_as_xyz
  x,y,z
_cell_length_a	27.731996
_cell_length_b	16.098538
_cell_length_c	17.038272
_cell_angle_alpha	87.069734
_cell_angle_beta	86.866472
_cell_angle_gamma	92.693548
loop_
_atom_site_label
_atom_site_type_symbol
_atom_site_fract_x
_atom_site_fract_y
_atom_site_fract_z
O1	O	0.102901	-0.069170	1.039633
O2	O	0.436234	0.264163	1.372967
O3	O	0.769567	0.597496	1.706300
O4	O	0.101234	-0.069195	0.812024
O5	O	0.434567	0.264139	1.145357
O6	O	0.767901	0.597472	1.478691
O7	O	0.031994	-0.069164	0.932918
O8	O	0.365327	0.264170	1.266251
O9	O	0.698660	0.597503	1.599585
O10	O	0.172141	-0.069201	0.918739
O11	O	0.505474	0.264132	1.252073
O12	O	0.838808	0.597465	1.585406
O13	O	0.036021	0.069347	0.925856
O14	O	0.369355	0.402681	1.259190
O15	O	0.702688	0.736014	1.592523
O16	O	0.105262	0.069316	0.804962
O17	O	0.438595	0.402650	1.138295
O18	O	0.771928	0.735983	1.471629
O19	O	0.106928	0.069341	1.032572
O20	O	0.440262	0.402674	1.365905
O21	O	0.773595	0.736007	1.699238
Zn22	Zn	0.106734	0.091320	0.917646
Zn23	Zn	0.440068	0.424653	1.250979
Zn24	Zn	0.773401	0.757987	1.584312
Zn25	Zn	0.101428	-0.091174	0.926950
Zn26	Zn	0.434761	0.242159	1.260283
Zn27	Zn	0.768094	0.575492	1.593617
O28	O	0.176169	0.069310	0.911677
O29	O	0.509502	0.402643	1.245011
O30	O	0.842835	0.735976	1.578344
C31	C	0.101733	0.000058	0.779383
C32	C	0.435066	0.333391	1.112716
C33	C	0.768399	0.666725	1.446050
C34	C	0.097212	0.000050	0.692645
C35	C	0.430545	0.333383	1.025978
C36	C	0.763879	0.666716	1.359311
C37	C	0.015987	0.000095	0.929096
C38	C	0.349320	0.333428	1.262429
C39	C	0.682653	0.666761	1.595762
C40	C	-0.037709	0.000103	0.928218
C41	C	0.295624	0.333436	1.261551
C42	C	0.628957	0.666770	1.594884
N43	N	0.110356	0.215868	0.911301
N44	N	0.443689	0.549201	1.244635
N45	N	0.777023	0.882534	1.577968
C46	C	-0.372875	-0.075441	0.926549
C47	C	-0.039541	0.257893	1.259882
C48	C	0.293792	0.591226	1.593216
C49	C	-0.574686	-0.075456	0.923218
C50	C	-0.241353	0.257878	1.256551
C51	C	0.091981	0.591211	1.589885
O52	O	-0.602645	-0.139668	0.926027
O53	O	-0.269312	0.193665	1.259361
O54	O	0.064022	0.526998	1.592694
N55	N	-0.597726	0.000046	0.918955
N56	N	-0.264393	0.333379	1.252288
N57	N	0.068940	0.666713	1.585621
C58	C	-0.570311	0.075557	0.915519
C59	C	-0.236978	0.408890	1.248852
C60	C	0.096356	0.742223	1.582186
O61	O	-0.594539	0.139775	0.911808
O62	O	-0.261205	0.473108	1.245142
O63	O	0.072128	0.806442	1.578475
C64	C	-0.368500	0.075571	0.918844
C65	C	-0.035167	0.408904	1.252178
C66	C	0.298166	0.742237	1.585511
C67	C	-0.345463	0.000064	0.923116
C68	C	-0.012130	0.333398	1.256449
C69	C	0.321204	0.666731	1.589782
C70	C	-0.349837	-0.150941	0.930819
C71	C	-0.016504	0.182392	1.264153
C72	C	0.316830	0.515725	1.597486
C73	C	-0.299387	-0.150937	0.931656
C74	C	0.033946	0.182397	1.264990
C75	C	0.367279	0.515730	1.598323
C76	C	-0.271976	-0.075432	0.928223
C77	C	0.061358	0.257902	1.261556
C78	C	0.394691	0.591235	1.594890
C79	C	-0.295013	0.000069	0.923953
C80	C	0.038320	0.333402	1.257286
C81	C	0.371653	0.666735	1.590619
C82	C	-0.341086	0.151081	0.915403
C83	C	-0.007752	0.484414	1.248736
C84	C	0.325581	0.817747	1.582070
C85	C	-0.290630	0.151078	0.916233
C86	C	0.042703	0.484411	1.249566
C87	C	0.376037	0.817744	1.582899
C88	C	-0.267592	0.075571	0.920504
C89	C	0.065741	0.408904	1.253838
C90	C	0.399074	0.742238	1.587171
C91	C	-0.217152	0.075578	0.921357
C92	C	0.116181	0.408912	1.254690
C93	C	0.449515	0.742245	1.588023
N94	N	-0.194111	0.000077	0.925620
N95	N	0.139222	0.333410	1.258953
N96	N	0.472555	0.666743	1.592286
C97	C	-0.221523	-0.075428	0.929053
C98	C	0.111810	0.257905	1.262386
C99	C	0.445143	0.591238	1.595720
C100	C	-0.676264	0.075544	0.913775
C101	C	-0.342931	0.408877	1.247108
C102	C	-0.009598	0.742211	1.580441
C103	C	-0.726717	0.075541	0.912945
C104	C	-0.393383	0.408874	1.246278
C105	C	-0.060050	0.742207	1.579611
C106	C	-0.731088	-0.075472	0.920642
C107	C	-0.397755	0.257861	1.253976
C108	C	-0.064422	0.591195	1.587309
C109	C	-0.680635	-0.075468	0.921478
C110	C	-0.347302	0.257865	1.254811
C111	C	-0.013969	0.591199	1.588145
C112	C	-0.653224	0.000042	0.918038
C113	C	-0.319890	0.333376	1.251371
C114	C	0.013443	0.666709	1.584705
C115	C	-0.115575	-0.075413	0.930811
C116	C	0.217758	0.257920	1.264144
C117	C	0.551091	0.591253	1.597478
C118	C	-0.065121	-0.075402	0.931651
C119	C	0.268212	0.257931	1.264984
C120	C	0.601546	0.591265	1.598318
C121	C	-0.060754	0.075610	0.923949
C122	C	0.272579	0.408944	1.257283
C123	C	0.605913	0.742277	1.590616
C124	C	-0.111204	0.075600	0.923113
C125	C	0.222130	0.408933	1.256447
C126	C	0.555463	0.742266	1.589780
C127	C	-0.138613	0.000081	0.926542
C128	C	0.194720	0.333414	1.259875
C129	C	0.528053	0.666748	1.593209
O130	O	-0.189162	0.139757	0.918541
O131	O	0.144171	0.473090	1.251874
O132	O	0.477504	0.806424	1.585207
O133	O	-0.197286	-0.139637	0.932746
O134	O	0.136048	0.193696	1.266079
O135	O	0.469381	0.527029	1.599413
C136	C	-0.423324	-0.075445	0.925712
C137	C	-0.089991	0.257888	1.259045
C138	C	0.243342	0.591221	1.592379
C139	C	-0.446362	0.000055	0.921442
C140	C	-0.113029	0.333389	1.254775
C141	C	0.220304	0.666722	1.588109
C142	C	-0.418950	0.075560	0.918009
C143	C	-0.085617	0.408893	1.251342
C144	C	0.247716	0.742227	1.584675
C145	C	-0.496815	0.000052	0.920612
C146	C	-0.163481	0.333385	1.253945
C147	C	0.169852	0.666719	1.587279
C148	C	-0.524226	-0.075453	0.924045
C149	C	-0.190893	0.257880	1.257378
C150	C	0.142440	0.591214	1.590712
C151	C	-0.501186	-0.150955	0.928308
C152	C	-0.167853	0.182379	1.261642
C153	C	0.165481	0.515712	1.594975
C154	C	-0.450736	-0.150950	0.929145
C155	C	-0.117403	0.182383	1.262479
C156	C	0.215930	0.515716	1.595812
C157	C	-0.441991	0.151062	0.913745
C158	C	-0.108658	0.484395	1.247079
C159	C	0.224676	0.817728	1.580412
C160	C	-0.492441	0.151051	0.912910
C161	C	-0.159107	0.484384	1.246243
C162	C	0.174226	0.817718	1.579576
C163	C	-0.519853	0.075546	0.916343
C164	C	-0.186519	0.408880	1.249676
C165	C	0.146814	0.742213	1.583010
C166	C	0.192175	0.000050	0.915500
C167	C	0.525509	0.333383	1.248833
C168	C	0.858842	0.666716	1.582167
C169	C	0.245871	0.000036	0.916378
C170	C	0.579205	0.333369	1.249711
C171	C	0.912538	0.666702	1.583045
N172	N	0.097803	-0.215722	0.933300
N173	N	0.431136	0.117612	1.266634
N174	N	0.764469	0.450945	1.599967
C175	C	0.080980	0.259466	0.962632
C176	C	0.414313	0.592799	1.295966
C177	C	0.747646	0.926133	1.629299
C178	C	0.083518	0.346654	0.958201
C179	C	0.416851	0.679987	1.291535
C180	C	0.750185	1.013320	1.624868
C181	C	0.115436	0.390242	0.902443
C182	C	0.448769	0.723575	1.235776
C183	C	0.782102	1.056908	1.569109
C184	C	0.144813	0.346638	0.851107
C185	C	0.478147	0.679971	1.184440
C186	C	0.811480	1.013304	1.517773
C187	C	0.142272	0.259451	0.855534
C188	C	0.475605	0.592785	1.188868
C189	C	0.808939	0.926118	1.522201
C190	C	0.124639	0.653488	0.886392
C191	C	0.457972	0.986821	1.219725
C192	C	0.791306	1.320154	1.553059
C193	C	0.127179	0.740680	0.881970
C194	C	0.460512	1.074013	1.215303
C195	C	0.793846	1.407347	1.548636
C196	C	0.065883	0.740690	0.989064
C197	C	0.399216	1.074024	1.322397
C198	C	0.732550	1.407357	1.655731
C199	C	0.063347	0.653502	0.993490
C200	C	0.396680	0.986836	1.326823
C201	C	0.730013	1.320169	1.660156
C202	C	0.092722	0.609906	0.942151
C203	C	0.426056	0.943239	1.275484
C204	C	0.759389	1.276572	1.608818
C205	C	0.118032	0.479362	0.897914
C206	C	0.451365	0.812695	1.231247
C207	C	0.784699	1.146028	1.564581
C208	C	0.090123	0.520787	0.946676
C209	C	0.423457	0.854121	1.280010
C210	C	0.756790	1.187454	1.613343
C211	C	0.138715	0.000039	0.642035
C212	C	0.472048	0.333373	0.975368
C213	C	0.805381	0.666706	1.308701
C214	C	0.134465	0.000052	0.560534
C215	C	0.467798	0.333385	0.893868
C216	C	0.801132	0.666719	1.227201
C217	C	0.088711	0.000069	0.529646
C218	C	0.422045	0.333402	0.862979
C219	C	0.755378	0.666736	1.196312
C220	C	0.047205	0.000082	0.580262
C221	C	0.380539	0.333415	0.913595
C222	C	0.713872	0.666749	1.246929
C223	C	0.051456	0.000075	0.661761
C224	C	0.384789	0.333409	0.995094
C225	C	0.718123	0.666742	1.328427
C226	C	0.073695	0.000095	0.284066
C227	C	0.407028	0.333429	0.617399
C228	C	0.740361	0.666762	0.950733
C229	C	0.069447	0.000099	0.202561
C230	C	0.402781	0.333433	0.535895
C231	C	0.736114	0.666766	0.869228
C232	C	0.156707	0.000071	0.182839
C233	C	0.490041	0.333404	0.516172
C234	C	0.823374	0.666738	0.849506
C235	C	0.160954	0.000059	0.264340
C236	C	0.494287	0.333393	0.597673
C237	C	0.827620	0.666726	0.931007
C238	C	0.119448	0.000077	0.314949
C239	C	0.452781	0.333410	0.648282
C240	C	0.786114	0.666743	0.981616
C241	C	0.084366	0.000079	0.446340
C242	C	0.417699	0.333413	0.779673
C243	C	0.751033	0.666746	1.113006
C244	C	0.123794	0.000072	0.398253
C245	C	0.457127	0.333406	0.731587
C246	C	0.790460	0.666739	1.064920
C247	C	0.106430	0.000086	1.065213
C248	C	0.439763	0.333419	1.398546
C249	C	0.773096	0.666753	1.731879
C250	C	0.110950	0.000089	1.151951
C251	C	0.444284	0.333422	1.485285
C252	C	0.777617	0.666756	1.818618
H253	H	-0.046367	-0.136891	0.935131
H254	H	0.286967	0.196442	1.268465
H255	H	0.620300	0.529775	1.601798
Cl256	Cl	-0.256173	0.246011	0.911909
Cl257	Cl	0.077160	0.579344	1.245242
Cl258	Cl	0.410494	0.912678	1.578575
H259	H	0.064134	0.485295	0.992072
H260	H	0.397467	0.818629	1.325406
H261	H	0.730801	1.151962	1.658739
Cl262	Cl	0.208883	0.000052	0.119212
Cl263	Cl	0.542216	0.333386	0.452546
Cl264	Cl	0.875549	0.666719	0.785879
H265	H	-0.661882	-0.136952	0.924955
H266	H	-0.328548	0.196381	1.258288
H267	H	0.004785	0.529715	1.591622
H268	H	0.032187	0.000113	0.177416
H269	H	0.365521	0.333446	0.510749
H270	H	0.698854	0.666779	0.844083
Cl271	Cl	-0.421782	-0.245878	0.934514
Cl272	Cl	-0.088449	0.087455	1.267847
Cl273	Cl	0.244884	0.420788	1.601180
H274	H	-0.753416	-0.136951	0.923439
H275	H	-0.420082	0.196382	1.256772
H276	H	-0.086749	0.529715	1.590105
H277	H	0.054991	0.223982	1.008040
H278	H	0.388324	0.557316	1.341373
H279	H	0.721658	0.890649	1.674706
Cl280	Cl	-0.370034	0.246010	0.910028
Cl281	Cl	-0.036701	0.579343	1.243361
Cl282	Cl	0.296632	0.912676	1.576695
H283	H	-0.038426	0.137084	0.921158
H284	H	0.294907	0.470418	1.254491
H285	H	0.628240	0.803751	1.587824
H286	H	0.153172	0.776166	0.836562
H287	H	0.486505	1.109499	1.169895
H288	H	0.819839	1.442832	1.503229
Cl289	Cl	-0.641811	0.170481	0.909446
Cl290	Cl	-0.308478	0.503815	1.242779
Cl291	Cl	0.024856	0.837148	1.576113
Cl292	Cl	-0.535656	-0.245874	0.932628
Cl293	Cl	-0.202323	0.087459	1.265961
Cl294	Cl	0.131010	0.420792	1.599295
Cl295	Cl	0.161570	0.598686	0.821856
Cl296	Cl	0.494903	0.932020	1.155190
Cl297	Cl	0.828236	1.265353	1.488523
H298	H	0.161046	0.000063	0.423406
H299	H	0.494380	0.333396	0.756739
H300	H	0.827713	0.666730	1.090073
H301	H	0.198211	0.000036	0.289483
H302	H	0.531544	0.333369	0.622817
H303	H	0.864877	0.666702	0.956150
H304	H	0.175972	0.000025	0.667177
H305	H	0.509306	0.333358	1.000510
H306	H	0.842639	0.666691	1.333844
Cl307	Cl	-0.384289	-0.245875	0.935137
Cl308	Cl	-0.050956	0.087458	1.268471
Cl309	Cl	0.282378	0.420792	1.601804
Cl310	Cl	-0.755673	0.170467	0.907590
Cl311	Cl	-0.422339	0.503801	1.240923
Cl312	Cl	-0.089006	0.837134	1.574257
Cl313	Cl	0.026849	0.000097	0.407502
Cl314	Cl	0.360182	0.333430	0.740835
Cl315	Cl	0.693515	0.666764	1.074168
Cl316	Cl	0.158158	0.534162	0.827820
Cl317	Cl	0.491491	0.867495	1.161153
Cl318	Cl	0.824824	1.200829	1.494487
Cl319	Cl	0.186643	0.000034	0.496913
Cl320	Cl	0.519976	0.333367	0.830247
Cl321	Cl	0.853309	0.666700	1.163580
Cl322	Cl	-0.000722	0.000092	0.725385
Cl323	Cl	0.332612	0.333425	1.058719
Cl324	Cl	0.665945	0.666759	1.392052
Cl325	Cl	0.021515	0.000116	0.347678
Cl326	Cl	0.354849	0.333450	0.681012
Cl327	Cl	0.688182	0.666783	1.014345
H328	H	-0.137886	-0.136908	0.933599
H329	H	0.195447	0.196426	1.266932
H330	H	0.528780	0.529759	1.600266
H331	H	-0.280635	-0.212422	0.935131
H332	H	0.052698	0.120911	1.268465
H333	H	0.386032	0.454245	1.601798
Cl334	Cl	-0.010314	0.000109	0.541431
Cl335	Cl	0.323020	0.333442	0.874764
Cl336	Cl	0.656353	0.666775	1.208097
Cl337	Cl	0.179203	0.204643	0.790998
Cl338	Cl	0.512536	0.537976	1.124331
Cl339	Cl	0.845869	0.871310	1.457665
Cl340	Cl	-0.140167	0.170523	0.917759
Cl341	Cl	0.193167	0.503856	1.251092
Cl342	Cl	0.526500	0.837190	1.584425
H343	H	-0.511193	0.212542	0.909437
H344	H	-0.177860	0.545876	1.242771
H345	H	0.155473	0.879209	1.576104
H346	H	-0.419677	0.212548	0.910951
H347	H	-0.086344	0.545882	1.244284
H348	H	0.246990	0.879215	1.577617
H349	H	0.059597	0.382151	0.999998
H350	H	0.392930	0.715484	1.333332
H351	H	0.726264	1.048818	1.666665
Cl352	Cl	0.028954	0.795501	1.053598
Cl353	Cl	0.362287	1.128834	1.386931
Cl354	Cl	0.695620	1.462168	1.720264
Cl355	Cl	0.023222	0.598706	1.063588
Cl356	Cl	0.356555	0.932039	1.396921
Cl357	Cl	0.689889	1.265372	1.730254
H358	H	0.170799	0.382132	0.805703
H359	H	0.504133	0.715465	1.139036
H360	H	0.837466	1.048799	1.472369
