data_functionalizedCrystal
_audit_creation_method	'MofGen! by Chris Wilmer'
_symmetry_space_group_name_H-M	'P1'
_symmetry_Int_Tables_number	1
_symmetry_cell_setting	triclinic
loop_
_symmetry_equiv_pos_as_xyz
  x,y,z
_cell_length_a	16.776229
_cell_length_b	17.699099
_cell_length_c	17.699083
_cell_angle_alpha	83.286183
_cell_angle_beta	89.992455
_cell_angle_gamma	89.993452
loop_
_atom_site_label
_atom_site_type_symbol
_atom_site_fract_x
_atom_site_fract_y
_atom_site_fract_z
O1	O	-0.066279	1.004071	0.095769
O2	O	0.433721	1.504071	0.595769
O3	O	-0.066283	0.783694	0.108209
O4	O	0.433717	1.283694	0.608209
O5	O	-0.066274	0.900109	-0.008200
O6	O	0.433726	1.400109	0.491800
O7	O	-0.066288	0.887657	0.212178
O8	O	0.433712	1.387657	0.712178
O9	O	0.066303	0.900093	-0.008207
O10	O	0.566303	1.400093	0.491793
O11	O	0.066294	0.783679	0.108202
O12	O	0.566294	1.283679	0.608202
O13	O	0.066298	1.004056	0.095762
O14	O	0.566298	1.504056	0.595762
Zn15	Zn	0.087345	0.893865	0.101981
Zn16	Zn	0.587345	1.393865	0.601981
Zn17	Zn	-0.087330	0.893885	0.101990
Zn18	Zn	0.412670	1.393885	0.601990
O19	O	0.066289	0.887641	0.212171
O20	O	0.566289	1.387641	0.712171
C21	C	0.000005	0.755490	0.107758
C22	C	0.500005	1.255490	0.607758
C23	C	0.000004	0.671472	0.106414
C24	C	0.500004	1.171472	0.606414
N25	N	0.206556	0.893857	0.101974
N26	N	0.706556	1.393857	0.601974
C27	C	0.000015	0.899655	-0.036400
C28	C	0.500015	1.399655	0.463600
C29	C	0.000015	0.898316	-0.120419
C30	C	0.500015	1.398316	0.379581
N31	N	-0.206541	0.893899	0.101991
N32	N	0.293459	1.393899	0.601991
C33	C	0.248278	0.945421	0.050449
C34	C	0.748278	1.445421	0.550449
C35	C	0.331730	0.945425	0.050448
C36	C	0.831730	1.445425	0.550448
C37	C	0.373459	0.893868	0.101977
C38	C	0.873459	1.393868	0.601977
C39	C	0.331732	0.842298	0.153504
C40	C	0.831732	1.342298	0.653504
C41	C	0.248282	0.842291	0.153500
C42	C	0.748282	1.342291	0.653500
C43	C	0.668280	0.842326	0.153519
C44	C	1.168280	1.342326	0.653519
C45	C	0.751736	0.842338	0.153520
C46	C	1.251736	1.342338	0.653520
C47	C	0.751728	0.945459	0.050467
C48	C	1.251728	1.445459	0.550467
C49	C	0.668277	0.945452	0.050463
C50	C	1.168277	1.445452	0.550463
C51	C	0.626557	0.893880	0.101987
C52	C	1.126557	1.393880	0.601987
C53	C	0.536069	0.893875	0.101987
C54	C	1.036069	1.393875	0.601987
C55	C	0.463946	0.893876	0.101982
C56	C	0.963946	1.393876	0.601982
C57	C	0.000008	1.032260	0.096213
C58	C	0.500008	1.532260	0.596213
C59	C	0.000005	1.116278	0.097556
C60	C	0.500005	1.616278	0.597556
C61	C	-0.072264	1.155753	0.098192
C62	C	0.427736	1.655753	0.598192
C63	C	-0.072265	1.234697	0.099448
C64	C	0.427735	1.734697	0.599448
C65	C	0.000004	1.274164	0.100073
C66	C	0.500004	1.774164	0.600073
C67	C	0.072277	1.234683	0.099435
C68	C	0.572277	1.734683	0.599435
C69	C	0.072278	1.155741	0.098174
C70	C	0.572278	1.655741	0.598174
C71	C	0.072278	1.553048	0.104520
C72	C	0.572278	2.053048	0.604520
C73	C	0.072273	1.631995	0.105784
C74	C	0.572273	2.131995	0.605784
C75	C	-0.072264	1.632004	0.105795
C76	C	0.427736	2.132004	0.605795
C77	C	-0.072264	1.553062	0.104533
C78	C	0.427736	2.053062	0.604533
C79	C	0.000010	1.513588	0.103891
C80	C	0.500010	2.013588	0.603891
C81	C	0.000010	1.427988	0.102528
C82	C	0.500010	1.927988	0.602528
C83	C	0.000004	1.359762	0.101442
C84	C	0.500004	1.859762	0.601442
C85	C	0.000018	0.966649	-0.169036
C86	C	0.500018	1.466649	0.330964
C87	C	0.000011	0.965387	-0.247979
C88	C	0.500011	1.465387	0.252021
C89	C	0.000007	0.895791	-0.278304
C90	C	0.500007	1.395791	0.221696
C91	C	0.000002	0.827453	-0.229680
C92	C	0.500002	1.327453	0.270320
C93	C	0.000003	0.828716	-0.150739
C94	C	0.500003	1.328716	0.349261
C95	C	-0.000005	0.822358	-0.548044
C96	C	0.499995	1.322358	-0.048044
C97	C	-0.000004	0.821100	-0.626992
C98	C	0.499996	1.321100	-0.126992
C99	C	0.000003	0.959029	-0.645284
C100	C	0.500003	1.459029	-0.145284
C101	C	0.000004	0.960292	-0.566342
C102	C	0.500004	1.460292	-0.066342
C103	C	-0.000005	0.891954	-0.517726
C104	C	0.499995	1.391954	-0.017726
C105	C	0.000001	0.893324	-0.432127
C106	C	0.500001	1.393324	0.067873
C107	C	0.000006	0.894421	-0.363902
C108	C	0.500006	1.394421	0.136098
C109	C	-0.000001	0.888095	0.240371
C110	C	0.499999	1.388095	0.740371
C111	C	-0.000007	0.889434	0.324389
C112	C	0.499993	1.389434	0.824389
H113	H	0.214307	0.987407	0.008492
H114	H	0.714307	1.487407	0.508492
Cl115	Cl	0.384181	1.010248	-0.014327
Cl116	Cl	0.884181	1.510248	0.485673
H117	H	-0.131113	1.266835	0.099961
H118	H	0.368887	1.766835	0.599961
H119	H	0.000014	1.021031	-0.287561
H120	H	0.500014	1.521031	0.212439
Cl121	Cl	0.000011	1.044941	-0.706407
Cl122	Cl	0.500011	1.544941	-0.206407
H123	H	-0.131112	1.520931	0.104028
H124	H	0.368888	2.020931	0.604028
Cl125	Cl	-0.163121	1.106145	0.097411
Cl126	Cl	0.336879	1.606145	0.597411
H127	H	0.000011	1.016964	-0.541657
H128	H	0.500011	1.516964	-0.041657
Cl129	Cl	-0.163124	1.681633	0.106596
Cl130	Cl	0.336876	2.181633	0.606596
Cl131	Cl	0.384190	0.777479	0.218280
Cl132	Cl	0.884190	1.277479	0.718280
H133	H	-0.000005	0.764423	-0.651678
H134	H	0.499995	1.264423	-0.151678
H135	H	-0.000006	0.770787	-0.254377
H136	H	0.499994	1.270787	0.245623
Cl137	Cl	0.163132	1.681609	0.106569
Cl138	Cl	0.663132	2.181609	0.606569
Cl139	Cl	0.000031	1.054147	-0.130922
Cl140	Cl	0.500031	1.554147	0.369078
Cl141	Cl	0.163137	1.503432	0.103734
Cl142	Cl	0.663137	2.003432	0.603734
Cl143	Cl	-0.000018	0.736447	-0.486936
Cl144	Cl	0.499982	1.236447	0.013064
H145	H	0.000001	0.773072	-0.111155
H146	H	0.500001	1.273072	0.388845
Cl147	Cl	0.163130	1.284299	0.100220
Cl148	Cl	0.663130	1.784299	0.600220
Cl149	Cl	0.615820	1.010270	-0.014315
Cl150	Cl	1.115820	1.510270	0.485685
H151	H	0.785705	0.987450	0.008511
H152	H	1.285705	1.487450	0.508511
Cl153	Cl	0.615837	0.777498	0.218293
Cl154	Cl	1.115837	1.277498	0.718293
Cl155	Cl	0.804195	0.777518	0.218303
Cl156	Cl	1.304195	1.277518	0.718303
H157	H	0.214313	0.800302	0.195456
H158	H	0.714313	1.300302	0.695456
H159	H	0.131126	1.123600	0.097664
H160	H	0.631126	1.623600	0.597664
