data_functionalizedCrystal
_audit_creation_method	'MofGen! by Chris Wilmer'
_symmetry_space_group_name_H-M	'P1'
_symmetry_Int_Tables_number	1
_symmetry_cell_setting	triclinic
loop_
_symmetry_equiv_pos_as_xyz
  x,y,z
_cell_length_a	19.288862
_cell_length_b	15.186229
_cell_length_c	19.288865
_cell_angle_alpha	89.991032
_cell_angle_beta	83.135763
_cell_angle_gamma	89.979995
loop_
_atom_site_label
_atom_site_type_symbol
_atom_site_fract_x
_atom_site_fract_y
_atom_site_fract_z
O1	O	-0.921348	0.073578	-0.086639
O2	O	-0.588015	0.406912	0.246694
O3	O	-0.254682	0.740245	0.580028
O4	O	-0.719087	0.073507	-0.098329
O5	O	-0.385754	0.406840	0.235004
O6	O	-0.052421	0.740174	0.568337
O7	O	-0.826062	0.073527	0.008646
O8	O	-0.492729	0.406861	0.341980
O9	O	-0.159396	0.740194	0.675313
O10	O	-0.814373	0.073558	-0.193615
O11	O	-0.481040	0.406891	0.139719
O12	O	-0.147707	0.740225	0.473052
O13	O	-0.826055	-0.072930	0.008648
O14	O	-0.492722	0.260403	0.341981
O15	O	-0.159388	0.593737	0.675314
O16	O	-0.719080	-0.072950	-0.098328
O17	O	-0.385747	0.260383	0.235005
O18	O	-0.052414	0.593716	0.568339
O19	O	-0.921341	-0.072879	-0.086637
O20	O	-0.588008	0.260454	0.246696
O21	O	-0.254675	0.593788	0.580029
Zn22	Zn	-0.820210	-0.096168	-0.092482
Zn23	Zn	-0.486876	0.237165	0.240851
Zn24	Zn	-0.153543	0.570499	0.574184
Zn25	Zn	-0.820219	0.096796	-0.092484
Zn26	Zn	-0.486886	0.430129	0.240849
Zn27	Zn	-0.153552	0.763462	0.574182
O28	O	-0.814366	-0.072899	-0.193613
O29	O	-0.481033	0.260434	0.139720
O30	O	-0.147700	0.593767	0.473054
C31	C	-0.693207	0.000269	-0.097953
C32	C	-0.359874	0.333602	0.235381
C33	C	-0.026541	0.666935	0.568714
C34	C	-0.616104	0.000241	-0.096824
C35	C	-0.282770	0.333574	0.236509
C36	C	0.050563	0.666907	0.569842
N37	N	-0.820208	-0.227861	-0.092481
N38	N	-0.486875	0.105473	0.240853
N39	N	-0.153542	0.438806	0.574186
C40	C	-0.571407	0.000262	-0.159593
C41	C	-0.238074	0.333595	0.173741
C42	C	0.095259	0.666928	0.507074
C43	C	-0.498960	0.000267	-0.158533
C44	C	-0.165627	0.333600	0.174801
C45	C	0.167706	0.666933	0.508134
C46	C	-0.471213	0.000269	-0.094701
C47	C	-0.137879	0.333602	0.238633
C48	C	0.195454	0.666935	0.571966
C49	C	-0.515919	0.000243	-0.031924
C50	C	-0.182585	0.333576	0.301409
C51	C	0.150748	0.666909	0.634742
C52	C	-0.588364	0.000229	-0.032986
C53	C	-0.255031	0.333562	0.300347
C54	C	0.078302	0.666896	0.633681
C55	C	-0.362953	0.051594	-0.044523
C56	C	-0.029620	0.384927	0.288810
C57	C	0.303714	0.718261	0.622144
C58	C	-0.290508	0.051613	-0.043464
C59	C	0.042825	0.384947	0.289870
C60	C	0.376158	0.718280	0.623203
C61	C	-0.247767	0.000307	-0.091423
C62	C	0.085567	0.333641	0.241910
C63	C	0.418900	0.666974	0.575244
C64	C	-0.277477	-0.051006	-0.140453
C65	C	0.055856	0.282327	0.192880
C66	C	0.389190	0.615660	0.526213
C67	C	-0.349923	-0.051020	-0.141515
C68	C	-0.016589	0.282313	0.191818
C69	C	0.316744	0.615646	0.525152
C70	C	-0.392659	0.000283	-0.093542
C71	C	-0.059325	0.333616	0.239791
C72	C	0.274008	0.666950	0.573124
C73	C	-0.124514	0.000333	-0.153046
C74	C	0.208819	0.333666	0.180287
C75	C	0.542152	0.666999	0.513621
C76	C	-0.052066	0.000332	-0.151983
C77	C	0.281267	0.333666	0.181350
C78	C	0.614600	0.666999	0.514683
C79	C	-0.069026	0.000317	-0.025373
C80	C	0.264307	0.333650	0.307960
C81	C	0.597640	0.666984	0.641293
C82	C	-0.141473	0.000309	-0.026438
C83	C	0.191860	0.333642	0.306896
C84	C	0.525194	0.666975	0.640229
C85	C	-0.169212	0.000321	-0.090276
C86	C	0.164121	0.333654	0.243057
C87	C	0.497454	0.666987	0.576391
C88	C	-0.867593	-0.453574	-0.045128
C89	C	-0.534259	-0.120241	0.288206
C90	C	-0.200926	0.213092	0.621539
C91	C	-0.867595	-0.545764	-0.045126
C92	C	-0.534262	-0.212431	0.288207
C93	C	-0.200928	0.120903	0.621541
C94	C	-0.772836	-0.545791	-0.139836
C95	C	-0.439503	-0.212458	0.193497
C96	C	-0.106170	0.120875	0.526831
C97	C	-0.772831	-0.453603	-0.139834
C98	C	-0.439498	-0.120270	0.193500
C99	C	-0.106165	0.213063	0.526833
C100	C	-0.820213	-0.407497	-0.092480
C101	C	-0.486880	-0.074164	0.240853
C102	C	-0.153547	0.259169	0.574186
C103	C	-0.820221	-0.591875	-0.092481
C104	C	-0.486887	-0.258542	0.240852
C105	C	-0.153554	0.074792	0.574186
C106	C	-0.820223	-0.691831	-0.092480
C107	C	-0.486889	-0.358498	0.240854
C108	C	-0.153556	-0.025164	0.574187
C109	C	-0.820211	-0.307535	-0.092481
C110	C	-0.486877	0.025799	0.240853
C111	C	-0.153544	0.359132	0.574186
C112	C	0.052779	0.000345	-0.087016
C113	C	0.386112	0.333679	0.246317
C114	C	0.719446	0.667012	0.579650
C115	C	-0.024324	0.000333	-0.088151
C116	C	0.309010	0.333666	0.245182
C117	C	0.642343	0.666999	0.578516
C118	C	-0.825683	0.000296	0.034523
C119	C	-0.492349	0.333629	0.367857
C120	C	-0.159016	0.666962	0.701190
C121	C	-0.824554	0.000288	0.111627
C122	C	-0.491220	0.333621	0.444960
C123	C	-0.157887	0.666954	0.778294
N124	N	-0.820226	0.228488	-0.092481
N125	N	-0.486893	0.561822	0.240853
N126	N	-0.153559	0.895155	0.574186
C127	C	-0.814746	0.000334	-0.219490
C128	C	-0.481413	0.333667	0.113843
C129	C	-0.148079	0.667001	0.447176
C130	C	-0.815875	0.000348	-0.296594
C131	C	-0.482542	0.333681	0.036739
C132	C	-0.149208	0.667015	0.370073
C133	C	-0.887322	0.000306	0.156324
C134	C	-0.553988	0.333639	0.489657
C135	C	-0.220655	0.666972	0.822990
C136	C	-0.886261	0.000319	0.228771
C137	C	-0.552928	0.333652	0.562104
C138	C	-0.219594	0.666986	0.895437
C139	C	-0.822429	0.000297	0.256518
C140	C	-0.489095	0.333630	0.589851
C141	C	-0.155762	0.666964	0.923184
C142	C	-0.759652	0.000284	0.211811
C143	C	-0.426319	0.333618	0.545144
C144	C	-0.092986	0.666951	0.878478
C145	C	-0.760715	0.000279	0.139366
C146	C	-0.427382	0.333613	0.472699
C147	C	-0.094048	0.666946	0.806032
C148	C	-0.772247	-0.051021	0.364805
C149	C	-0.438913	0.282312	0.698139
C150	C	-0.105580	0.615645	1.031472
C151	C	-0.771187	-0.051022	0.437250
C152	C	-0.437853	0.282311	0.770583
C153	C	-0.104520	0.615645	1.103916
C154	C	-0.819149	0.000316	0.479963
C155	C	-0.485816	0.333649	0.813297
C156	C	-0.152482	0.666982	1.146630
C157	C	-0.868183	0.051643	0.450225
C158	C	-0.534850	0.384976	0.783558
C159	C	-0.201516	0.718309	1.116892
C160	C	-0.869245	0.051638	0.377780
C161	C	-0.535912	0.384971	0.711113
C162	C	-0.202579	0.718305	1.044446
C163	C	-0.821269	0.000303	0.335072
C164	C	-0.487936	0.333636	0.668405
C165	C	-0.154603	0.666969	1.001738
C166	C	-0.880771	0.000349	0.603216
C167	C	-0.547438	0.333683	0.936550
C168	C	-0.214105	0.667016	1.269883
C169	C	-0.879708	0.000368	0.675664
C170	C	-0.546375	0.333702	1.008998
C171	C	-0.213041	0.667035	1.342331
C172	C	-0.753098	0.000325	0.658703
C173	C	-0.419764	0.333658	0.992036
C174	C	-0.086431	0.666991	1.325370
C175	C	-0.754163	0.000315	0.586257
C176	C	-0.420829	0.333648	0.919590
C177	C	-0.087496	0.666981	1.252923
C178	C	-0.818001	0.000323	0.558518
C179	C	-0.484668	0.333656	0.891851
C180	C	-0.151335	0.666989	1.225184
H181	H	-0.593988	0.000273	-0.211575
H182	H	-0.260654	0.333606	0.121758
H183	H	0.072679	0.666940	0.455092
N184	N	-0.409048	0.106939	0.007207
N185	N	-0.075714	0.440272	0.340540
N186	N	0.257619	0.773606	0.673873
H187	H	-0.459450	0.099143	-0.000903
H188	H	-0.126116	0.432476	0.332430
H189	H	0.207217	0.765809	0.665764
H190	H	-0.402919	0.087753	0.056240
H191	H	-0.069586	0.421086	0.389573
H192	H	0.263748	0.754420	0.722907
N193	N	-0.690804	0.000265	0.241733
N194	N	-0.357470	0.333598	0.575066
N195	N	-0.024137	0.666932	0.908400
H196	H	-0.699655	0.000268	0.294410
H197	H	-0.366321	0.333601	0.627743
H198	H	-0.032988	0.666935	0.961076
H199	H	-0.663342	-0.054037	0.225374
H200	H	-0.330009	0.279296	0.558707
H201	H	0.003325	0.612630	0.892041
N202	N	-0.919920	0.107015	0.496286
N203	N	-0.586587	0.440349	0.829619
N204	N	-0.253253	0.773682	1.162953
H205	H	-0.951143	0.139525	0.466455
H206	H	-0.617810	0.472858	0.799788
H207	H	-0.284477	0.806191	1.133122
H208	H	-0.949257	0.067665	0.530339
H209	H	-0.615923	0.400998	0.863672
H210	H	-0.282590	0.734331	1.197005
H211	H	-0.242678	-0.092785	-0.179506
H212	H	0.090655	0.240548	0.153827
H213	H	0.423989	0.573881	0.487161
N214	N	-0.721744	-0.595523	-0.190916
N215	N	-0.388411	-0.262190	0.142417
N216	N	-0.055077	0.071144	0.475751
H217	H	-0.691728	-0.552342	-0.220913
H218	H	-0.358394	-0.219009	0.112420
H219	H	-0.025061	0.114325	0.445754
H220	H	-0.691124	-0.633799	-0.164407
H221	H	-0.357790	-0.300465	0.168926
H222	H	-0.024457	0.032868	0.502260
N223	N	-0.721730	-0.403901	-0.190915
N224	N	-0.388397	-0.070568	0.142419
N225	N	-0.055064	0.262766	0.475752
H226	H	-0.728917	-0.338505	-0.183725
H227	H	-0.395583	-0.005171	0.149608
H228	H	-0.062250	0.328162	0.482941
H229	H	-0.672484	-0.420042	-0.183019
H230	H	-0.339150	-0.086708	0.150314
H231	H	-0.005817	0.246625	0.483647
N232	N	-0.003854	0.000284	-0.219687
N233	N	0.329480	0.333618	0.113647
N234	N	0.662813	0.666951	0.446980
H235	H	-0.032423	0.000271	-0.260286
H236	H	0.300911	0.333604	0.073047
H237	H	0.634244	0.666937	0.406381
H238	H	0.026580	0.054561	-0.222035
H239	H	0.359913	0.387894	0.111298
H240	H	0.693246	0.721228	0.444631
H241	H	-0.930823	0.000388	0.712056
H242	H	-0.597490	0.333721	1.045390
H243	H	-0.264157	0.667055	1.378723
H244	H	-0.939304	0.000315	0.133744
H245	H	-0.605971	0.333649	0.467077
H246	H	-0.272637	0.666982	0.800411
H247	H	-0.733188	-0.092832	0.330033
H248	H	-0.399855	0.240502	0.663366
H249	H	-0.066521	0.573835	0.996700
N250	N	-0.718298	-0.106372	0.469319
N251	N	-0.384964	0.226961	0.802652
N252	N	-0.051631	0.560294	1.135986
H253	H	-0.724903	-0.098584	0.521694
H254	H	-0.391570	0.234750	0.855027
H255	H	-0.058237	0.568083	1.188360
H256	H	-0.724966	-0.170373	0.457534
H257	H	-0.391633	0.162960	0.790868
H258	H	-0.058299	0.496293	1.124201
H259	H	-0.932752	0.000360	0.580630
H260	H	-0.599419	0.333693	0.913964
H261	H	-0.266086	0.667027	1.247297
N262	N	-0.686461	0.000275	0.538045
N263	N	-0.353128	0.333608	0.871378
N264	N	-0.019794	0.666942	1.204711
H265	H	-0.696820	0.000274	0.487941
H266	H	-0.363486	0.333608	0.821274
H267	H	-0.030153	0.666941	1.154607
H268	H	-0.658632	0.054559	0.546994
H269	H	-0.325299	0.387892	0.880328
H270	H	0.008034	0.721226	1.213661
N271	N	-0.039105	0.000311	0.043473
N272	N	0.294229	0.333644	0.376807
N273	N	0.627562	0.666977	0.710140
H274	H	-0.009445	0.054606	0.046737
H275	H	0.323888	0.387940	0.380071
H276	H	0.657222	0.721273	0.713404
H277	H	-0.078454	0.000265	0.083038
H278	H	0.254880	0.333598	0.416371
H279	H	0.588213	0.666931	0.749704
N280	N	-0.684248	0.000311	0.688619
N281	N	-0.350915	0.333644	1.021952
N282	N	-0.017581	0.666978	1.355286
H283	H	-0.693098	0.000320	0.741296
H284	H	-0.359765	0.333653	1.074629
H285	H	-0.026432	0.666986	1.407963
H286	H	-0.656786	-0.053992	0.672263
H287	H	-0.323452	0.279341	1.005597
H288	H	0.009881	0.612675	1.338930
H289	H	-0.937376	0.000337	0.265170
H290	H	-0.604042	0.333670	0.598503
H291	H	-0.270709	0.667004	0.931837
N292	N	-0.922122	0.106999	0.345702
N293	N	-0.588789	0.440333	0.679036
N294	N	-0.255456	0.773666	1.012369
H295	H	-0.952392	0.067702	0.319648
H296	H	-0.619059	0.401035	0.652981
H297	H	-0.285725	0.734369	0.986314
H298	H	-0.952300	0.139516	0.383787
H299	H	-0.618966	0.472849	0.717120
H300	H	-0.285633	0.806183	1.050453
N301	N	-0.693016	0.000254	0.091146
N302	N	-0.359683	0.333587	0.424480
N303	N	-0.026349	0.666920	0.757813
H304	H	-0.665157	0.054537	0.100033
H305	H	-0.331824	0.387871	0.433366
H306	H	0.001510	0.721204	0.766700
H307	H	-0.665208	-0.054082	0.100078
H308	H	-0.331874	0.279251	0.433411
H309	H	0.001459	0.612585	0.766745
N310	N	-0.450740	0.000291	-0.226235
N311	N	-0.117406	0.333624	0.107099
N312	N	0.215927	0.666958	0.440432
H313	H	-0.479306	0.000296	-0.266836
H314	H	-0.145972	0.333629	0.066497
H315	H	0.187361	0.666963	0.399830
H316	H	-0.420337	0.054593	-0.228544
H317	H	-0.087004	0.387927	0.104790
H318	H	0.246330	0.721260	0.438123
H319	H	-0.374110	-0.092805	-0.181435
H320	H	-0.040776	0.240529	0.151898
H321	H	0.292557	0.573862	0.485232
H322	H	-0.147101	0.000329	-0.205027
H323	H	0.186232	0.333663	0.128306
H324	H	0.519566	0.666996	0.461640
H325	H	-0.266324	0.093400	-0.003543
H326	H	0.067009	0.426733	0.329790
H327	H	0.400343	0.760067	0.663123
N328	N	-0.189687	0.000286	0.041263
N329	N	0.143646	0.333619	0.374596
N330	N	0.476980	0.666953	0.707929
H331	H	-0.161118	0.000287	0.081862
H332	H	0.172215	0.333620	0.415196
H333	H	0.505549	0.666953	0.748529
H334	H	-0.220138	0.054572	0.043581
H335	H	0.113196	0.387905	0.376915
H336	H	0.446529	0.721239	0.710248
N337	N	-0.918694	-0.403844	0.005944
N338	N	-0.585361	-0.070510	0.339278
N339	N	-0.252027	0.262823	0.672611
H340	H	-0.948708	-0.447026	0.035943
H341	H	-0.615374	-0.113693	0.369276
H342	H	-0.282041	0.219641	0.702609
H343	H	-0.892198	-0.365615	0.036584
H344	H	-0.558865	-0.032282	0.369917
H345	H	-0.225532	0.301052	0.703250
H346	H	-0.624757	0.000212	0.018129
H347	H	-0.291424	0.333546	0.351462
H348	H	0.041910	0.666879	0.684796
N349	N	-0.485996	0.000234	0.036924
N350	N	-0.152663	0.333568	0.370257
N351	N	0.180670	0.666901	0.703591
H352	H	-0.433320	0.000247	0.028073
H353	H	-0.099986	0.333581	0.361406
H354	H	0.233347	0.666914	0.694740
H355	H	-0.502384	0.054518	0.064386
H356	H	-0.169050	0.387852	0.397719
H357	H	0.164283	0.721185	0.731052
H358	H	-0.906175	-0.583278	-0.006567
H359	H	-0.572841	-0.249944	0.326767
H360	H	-0.239508	0.083389	0.660100
