data_functionalizedCrystal
_audit_creation_method	'MofGen! by Chris Wilmer'
_symmetry_space_group_name_H-M	'P1'
_symmetry_Int_Tables_number	1
_symmetry_cell_setting	triclinic
loop_
_symmetry_equiv_pos_as_xyz
  x,y,z
_cell_length_a	19.121424
_cell_length_b	19.120786
_cell_length_c	14.908308
_cell_angle_alpha	90.683525
_cell_angle_beta	95.563320
_cell_angle_gamma	95.008527
loop_
_atom_site_label
_atom_site_type_symbol
_atom_site_fract_x
_atom_site_fract_y
_atom_site_fract_z
Zn1	Zn	1.043100	-0.254811	-0.439146
Zn2	Zn	1.045365	-0.365126	-0.282113
Zn3	Zn	0.932229	-0.253072	-0.294454
Zn4	Zn	0.920388	-0.377469	-0.439068
O5	O	0.985271	-0.312619	-0.363695
O6	O	1.142104	-0.265007	-0.413182
O7	O	1.036260	-0.344369	-0.157510
O8	O	0.950944	-0.155074	-0.318845
O9	O	1.143767	-0.346055	-0.297811
O10	O	1.032401	-0.156352	-0.425149
O11	O	0.953140	-0.262043	-0.166577
O12	O	0.831955	-0.274011	-0.318770
O13	O	0.930763	-0.367091	-0.565319
O14	O	0.823256	-0.365405	-0.425018
O15	O	1.020919	-0.276975	-0.565376
O16	O	1.024778	-0.464992	-0.297736
O17	O	0.932959	-0.474060	-0.413051
C18	C	0.802013	-0.320859	-0.373225
C19	C	0.723613	-0.324402	-0.377323
C20	C	0.279969	-0.346809	-0.403340
C21	C	0.353635	-0.343485	-0.399473
C22	C	0.394972	-0.294171	-0.342322
C23	C	0.362641	-0.248184	-0.289027
C24	C	0.288976	-0.251512	-0.292890
C25	C	0.617617	-0.281742	-0.327891
C26	C	0.691286	-0.278416	-0.324034
C27	C	0.682275	-0.373719	-0.434479
C28	C	0.608609	-0.377040	-0.438341
C29	C	0.576284	-0.331054	-0.385043
C30	C	0.470271	-0.290771	-0.338370
C31	C	0.500987	-0.334459	-0.388991
C32	C	0.977848	-0.494995	-0.354064
C33	C	0.974735	-0.573015	-0.349971
C34	C	1.015647	-0.610277	-0.403443
C35	C	1.012720	-0.683585	-0.399599
C36	C	0.968884	-0.719629	-0.342277
C37	C	0.927967	-0.682362	-0.288802
C38	C	0.930891	-0.609056	-0.292652
C39	C	0.957932	-0.940937	-0.327886
C40	C	0.955012	-1.014248	-0.324038
C41	C	1.039764	-1.015466	-0.434837
C42	C	1.042688	-0.942158	-0.438677
C43	C	1.001768	-0.904898	-0.385206
C44	C	0.965892	-0.794562	-0.338344
C45	C	1.004757	-0.829967	-0.389145
C46	C	1.169244	-0.304348	-0.354129
C47	C	1.247642	-0.300824	-0.350052
C48	C	0.974268	-0.323604	-0.598995
C49	C	0.969579	-0.328284	-0.699266
C50	C	0.992741	-0.129531	-0.373383
C51	C	0.995924	-0.051510	-0.377511
C52	C	1.054647	-0.243226	-0.887747
C53	C	1.050244	-0.247621	-0.981961
C54	C	0.956367	-0.341467	-0.981908
C55	C	0.960770	-0.337071	-0.887695
C56	C	1.009912	-0.287950	-0.840618
C57	C	1.014319	-0.283558	-0.746402
C58	C	0.920439	-0.377400	-0.746352
C59	C	0.916036	-0.381796	-0.840565
C60	C	0.996273	-0.301625	-0.129311
C61	C	1.001106	-0.296741	-0.029044
H62	H	0.708602	-0.411158	-0.477871
C63	C	1.099457	-0.198423	-1.033800
N64	N	1.136527	-0.161364	-1.072845
C65	C	1.057737	-0.724570	-0.458411
N66	N	1.091648	-0.755438	-0.502707
H67	H	0.884014	-0.413820	-0.707969
H68	H	0.916358	-0.381459	-1.020255
C69	C	0.582069	-0.231147	-0.269275
N70	N	0.555292	-0.193034	-0.225126
H71	H	0.724942	-0.238250	-0.277502
C72	C	0.912901	-0.899961	-0.269087
N73	N	0.878976	-0.869096	-0.224805
H74	H	1.073078	-1.045812	-0.478371
H75	H	1.054334	-0.243562	-0.708073
C76	C	0.906784	-1.053895	-0.260980
N77	N	0.870460	-1.083757	-0.213488
C78	C	1.063872	-0.570636	-0.466501
N79	N	1.100195	-0.540780	-0.514001
H80	H	0.892272	-0.711715	-0.242133
C81	C	1.090925	-0.902514	-0.501719
N82	N	1.127264	-0.872653	-0.549195
H83	H	1.094664	-0.203232	-0.849416
H84	H	0.246316	-0.386962	-0.449884
C85	C	0.389191	-0.394076	-0.458092
N86	N	0.415971	-0.432184	-0.502244
C87	C	0.408115	-0.193933	-0.226167
N88	N	0.442365	-0.153066	-0.178825
H89	H	0.897575	-0.578717	-0.249110
H90	H	1.040445	-0.800618	-0.435820
H91	H	0.574957	-0.417198	-0.484878
H92	H	0.467327	-0.374612	-0.435520
C93	C	0.861977	-0.435822	-0.892361
N94	N	0.821259	-0.476515	-0.931373
H95	H	0.503936	-0.250618	-0.291838
C96	C	0.253418	-0.200922	-0.234271
N97	N	0.226636	-0.162817	-0.190116
H98	H	0.930203	-0.823916	-0.291669
