data_functionalizedCrystal
_audit_creation_method	'MofGen! by Chris Wilmer'
_symmetry_space_group_name_H-M	'P1'
_symmetry_Int_Tables_number	1
_symmetry_cell_setting	triclinic
loop_
_symmetry_equiv_pos_as_xyz
  x,y,z
_cell_length_a	23.532355
_cell_length_b	23.532407
_cell_length_c	13.596369
_cell_angle_alpha	89.989360
_cell_angle_beta	90.000488
_cell_angle_gamma	82.838088
loop_
_atom_site_label
_atom_site_type_symbol
_atom_site_fract_x
_atom_site_fract_y
_atom_site_fract_z
O1	O	0.755279	0.068995	-0.081668
O2	O	0.589412	0.079029	-0.081700
O3	O	0.677347	-0.008921	-0.081665
O4	O	0.667344	0.156945	-0.081703
O5	O	0.677339	-0.008925	0.081918
O6	O	0.589403	0.079025	0.081883
O7	O	0.755271	0.068990	0.081915
Zn8	Zn	0.672335	0.074007	0.107871
Zn9	Zn	0.672347	0.074013	-0.107656
O10	O	0.667335	0.156940	0.081880
C11	C	0.568191	0.078776	0.000087
C12	C	0.504972	0.078022	0.000076
C13	C	0.112954	0.073281	0.089287
C14	C	0.053554	0.072564	0.089291
O15	O	0.022832	0.072171	0.165125
N16	N	0.023850	0.072211	0.000122
C17	C	0.053550	0.072569	-0.089056
O18	O	0.022830	0.072202	-0.164901
C19	C	0.112949	0.073282	-0.089059
C20	C	0.142649	0.073641	0.000115
C21	C	0.142654	0.073640	0.178454
C22	C	0.202049	0.074358	0.178450
C23	C	0.231744	0.074718	0.089278
C24	C	0.202044	0.074360	0.000111
C25	C	0.142648	0.073637	-0.178237
C26	C	0.202051	0.074350	-0.178232
C27	C	0.231751	0.074709	-0.089057
C28	C	0.291134	0.075439	-0.089065
N29	N	0.320838	0.075792	0.000104
C30	C	0.291143	0.075432	0.089275
C31	C	-0.071192	0.071070	-0.089043
C32	C	-0.130590	0.070361	-0.089041
C33	C	-0.130581	0.070355	0.089306
C34	C	-0.071183	0.071068	0.089303
C35	C	-0.041488	0.071423	0.000125
C36	C	0.415877	0.076941	0.089259
C37	C	0.475277	0.077662	0.089247
C38	C	0.475264	0.077665	-0.089100
C39	C	0.415868	0.076947	-0.089088
C40	C	0.386177	0.076583	0.000100
O41	O	0.321895	0.075829	-0.164860
O42	O	0.321871	0.075791	0.165107
C43	C	0.677088	-0.030139	0.000129
C44	C	0.676322	-0.093356	0.000136
C45	C	0.723557	-0.492468	0.000092
C46	C	0.722845	-0.551868	0.000084
O47	O	0.766632	-0.588620	0.000057
N48	N	0.670568	-0.574484	0.000075
C49	C	0.618998	-0.537697	0.000063
O50	O	0.574467	-0.562388	0.000053
C51	C	0.619710	-0.478298	0.000063
C52	C	0.671991	-0.455685	0.000083
C53	C	0.775834	-0.469854	0.000110
C54	C	0.776545	-0.410458	0.000120
C55	C	0.724979	-0.373676	0.000111
C56	C	0.672703	-0.396289	0.000092
C57	C	0.568141	-0.441512	0.000044
C58	C	0.568858	-0.382110	0.000044
C59	C	0.621139	-0.359497	0.000064
C60	C	0.621848	-0.300110	0.000093
N61	N	0.674126	-0.277494	0.000102
C62	C	0.725691	-0.314277	0.000111
C63	C	0.617507	-0.662439	0.000060
C64	C	0.616794	-0.721837	0.000066
C65	C	0.720642	-0.736004	0.000086
C66	C	0.721354	-0.676605	0.000087
C67	C	0.669784	-0.639823	0.000069
C68	C	0.727181	-0.189540	0.000132
C69	C	0.727888	-0.130138	0.000145
C70	C	0.624041	-0.115977	0.000121
C71	C	0.623334	-0.175373	0.000112
C72	C	0.674909	-0.212154	0.000115
O73	O	0.578084	-0.263323	0.000116
O74	O	0.770216	-0.289577	0.000108
C75	C	0.776492	0.069244	0.000126
C76	C	0.839710	0.069998	0.000131
C77	C	0.667594	0.178158	0.000084
C78	C	0.668360	0.241375	0.000070
N79	N	0.672332	0.074002	0.254963
N80	N	0.672355	0.074013	-0.254748
C81	C	0.672346	0.074013	0.656254
C82	C	0.672340	0.074012	0.544603
C83	C	0.672339	0.074008	0.455612
C84	C	0.672333	0.074006	0.343954
H85	H	0.226226	0.074647	0.251065
Br86	Br	0.498867	-0.332194	0.000016
Br87	Br	0.790624	-0.785934	0.000094
H88	H	0.819117	-0.392053	0.000132
H89	H	-0.154770	0.070060	0.161915
H90	H	0.574222	-0.740243	0.000067
Br91	Br	0.797176	-0.239448	0.000134
Br92	Br	0.102364	0.073153	0.299490
H93	H	-0.154768	0.070078	-0.161656
H94	H	0.575510	-0.632494	0.000054
Br95	Br	0.497184	-0.472185	0.000014
Br96	Br	0.554062	-0.066047	0.000109
H97	H	0.391684	0.076664	-0.161701
Br98	Br	-0.030898	0.071557	-0.210082
Br99	Br	0.798845	-0.099453	0.000173
Br100	Br	0.375590	0.076445	0.210300
H101	H	0.817827	-0.499797	0.000114
H102	H	0.118476	0.073344	-0.250852
Br103	Br	0.515576	0.078151	-0.210112
Br104	Br	0.242348	0.074829	-0.299266
Br105	Br	0.552381	-0.206064	0.000108
Br106	Br	0.515580	0.078153	0.210278
Br107	Br	-0.030882	0.071555	0.210329
H108	H	0.763925	-0.658198	0.000102
