data_functionalizedCrystal
_audit_creation_method	'MofGen! by Chris Wilmer'
_symmetry_space_group_name_H-M	'P1'
_symmetry_Int_Tables_number	1
_symmetry_cell_setting	triclinic
loop_
_symmetry_equiv_pos_as_xyz
  x,y,z
_cell_length_a	16.974800
_cell_length_b	17.000371
_cell_length_c	15.455313
_cell_angle_alpha	92.451767
_cell_angle_beta	90.973911
_cell_angle_gamma	79.502746
loop_
_atom_site_label
_atom_site_type_symbol
_atom_site_fract_x
_atom_site_fract_y
_atom_site_fract_z
O1	O	1.042045	0.101447	0.001045
O2	O	1.542045	0.601447	0.501045
O3	O	0.811770	0.113601	-0.015128
O4	O	1.311770	0.613601	0.484872
O5	O	0.941205	-0.008310	-0.006031
O6	O	1.441205	0.491690	0.493969
O7	O	0.912610	0.223358	-0.008052
O8	O	1.412610	0.723358	0.491948
O9	O	0.933806	-0.001367	0.137711
O10	O	1.433806	0.498633	0.637711
O11	O	0.804370	0.120543	0.128614
O12	O	1.304370	0.620543	0.628614
O13	O	1.034645	0.108390	0.144787
O14	O	1.534645	0.608390	0.644787
Cu15	Cu	0.918832	0.115101	0.149825
Cu16	Cu	1.418832	0.615101	0.649825
Cu17	Cu	0.927583	0.106890	-0.020166
Cu18	Cu	1.427583	0.606890	0.479834
O19	O	0.905210	0.230301	0.135690
O20	O	1.405210	0.730301	0.635690
C21	C	0.778752	0.116483	0.054684
C22	C	1.278752	0.616483	0.554684
C23	C	0.691393	0.114717	0.048549
C24	C	1.191393	0.614717	0.548549
C25	C	0.646322	0.117670	0.124023
C26	C	1.146322	0.617670	0.624023
C27	C	0.564241	0.115998	0.118260
C28	C	1.064241	0.615998	0.618260
C29	C	0.527231	0.111379	0.037024
C30	C	1.027231	0.611379	0.537024
C31	C	0.572308	0.108423	-0.038455
C32	C	1.072308	0.608423	0.461545
C33	C	0.654389	0.110089	-0.032692
C34	C	1.154389	0.610089	0.467308
C35	C	0.282181	0.105984	0.011386
C36	C	0.782181	0.605984	0.511386
C37	C	0.200094	0.104321	0.005629
C38	C	0.700094	0.604321	0.505629
C39	C	0.192033	0.111894	0.162345
C40	C	0.692033	0.611894	0.662345
C41	C	0.274114	0.113565	0.168101
C42	C	0.774114	0.613565	0.668101
C43	C	0.319185	0.110605	0.092622
C44	C	0.819185	0.610605	0.592622
N45	N	0.443331	0.109672	0.031132
N46	N	0.943331	0.609672	0.531132
N47	N	0.403085	0.112306	0.098515
N48	N	0.903085	0.612306	0.598515
C49	C	0.939042	-0.034489	0.065947
C50	C	1.439042	0.465511	0.565947
C51	C	0.943609	-0.122837	0.066267
C52	C	1.443609	0.377163	0.566267
C53	C	0.873323	-0.155021	0.061327
C54	C	1.373323	0.344979	0.561327
C55	C	0.877619	-0.238034	0.061631
C56	C	1.377619	0.261966	0.561631
C57	C	0.952202	-0.288863	0.066869
C58	C	1.452202	0.211137	0.566869
C59	C	1.022493	-0.256674	0.071812
C60	C	1.522493	0.243326	0.571812
C61	C	1.018196	-0.173662	0.071514
C62	C	1.518196	0.326338	0.571514
C63	C	0.968800	-0.539972	0.068029
C64	C	1.468800	-0.039972	0.568029
C65	C	0.973093	-0.622989	0.068324
C66	C	1.473093	-0.122989	0.568324
C67	C	0.828218	-0.604343	0.058145
C68	C	1.328218	-0.104343	0.558145
C69	C	0.823928	-0.521330	0.057842
C70	C	1.323928	-0.021330	0.557842
C71	C	0.894218	-0.489149	0.062790
C72	C	1.394218	0.010851	0.562790
C73	C	0.956596	-0.373716	0.067178
C74	C	1.456596	0.126284	0.567178
C75	C	0.889824	-0.404297	0.062487
C76	C	1.389824	0.095703	0.562487
C77	C	1.067664	0.105508	0.074973
C78	C	1.567664	0.605508	0.574973
C79	C	1.155023	0.107274	0.081102
C80	C	1.655023	0.607274	0.581102
C81	C	0.907374	0.256480	0.063710
C82	C	1.407374	0.756480	0.563710
C83	C	0.902807	0.344828	0.063384
C84	C	1.402807	0.844828	0.563384
N85	N	0.912683	0.120875	0.269389
N86	N	1.412683	0.620875	0.769389
N87	N	0.933739	0.101109	-0.139729
N88	N	1.433739	0.601109	0.360271
C89	C	0.967688	0.069102	0.318648
C90	C	1.467688	0.569102	0.818648
C91	C	0.963045	0.073476	0.409130
C92	C	1.463045	0.573476	0.909130
C93	C	0.903399	0.129628	0.450350
C94	C	1.403399	0.629628	0.950350
C95	C	0.848388	0.181403	0.401084
C96	C	1.348388	0.681403	0.901084
C97	C	0.853029	0.177024	0.310604
C98	C	1.353029	0.677024	0.810604
C99	C	0.883369	0.148506	0.720524
C100	C	1.383369	0.648506	1.220524
C101	C	0.878734	0.152882	0.811011
C102	C	1.378734	0.652882	1.311011
C103	C	0.993390	0.044954	0.819051
C104	C	1.493390	0.544954	1.319051
C105	C	0.998029	0.040584	0.728569
C106	C	1.498029	0.540584	1.228569
C107	C	0.943015	0.092356	0.679310
C108	C	1.443015	0.592356	1.179310
N109	N	0.898652	0.134102	0.542837
N110	N	1.398652	0.634102	1.042837
N111	N	0.947759	0.087877	0.586825
N112	N	1.447759	0.587877	1.086825
H113	H	0.169962	0.100561	-0.060527
H114	H	0.669962	0.600561	0.439473
H115	H	0.812590	-0.113641	0.057058
H116	H	1.312590	0.386359	0.557058
N117	N	1.022377	0.017652	0.462271
N118	N	1.522377	0.517652	0.962271
H119	H	1.053211	0.049996	0.502096
H120	H	1.553211	0.549996	1.002096
H121	H	0.992739	-0.015843	0.497833
H122	H	1.492739	0.484157	0.997833
N123	N	0.515627	0.119180	0.199662
N124	N	1.015627	0.619180	0.699662
H125	H	0.551635	0.121798	0.252007
H126	H	1.051635	0.621798	0.752007
H127	H	0.471933	0.168241	0.200279
H128	H	0.971933	0.668241	0.700279
H129	H	1.075430	-0.147461	0.075539
H130	H	1.575430	0.352539	0.575539
H131	H	0.155328	0.114302	0.223796
H132	H	0.655328	0.614302	0.723796
N133	N	0.824030	0.204347	0.667412
N134	N	1.324030	0.704347	1.167412
H135	H	0.828379	0.261617	0.683509
H136	H	1.328379	0.761617	1.183509
H137	H	0.836040	0.192991	0.603854
H138	H	1.336040	0.692991	1.103854
N139	N	0.314020	0.118551	0.255726
N140	N	0.814020	0.618551	0.755726
H141	H	0.307779	0.070629	0.289672
H142	H	0.807779	0.570629	0.789672
H143	H	0.372840	0.119188	0.247859
H144	H	0.872840	0.619188	0.747859
N145	N	0.532398	0.103446	-0.126079
N146	N	1.032398	0.603446	0.373921
H147	H	0.558251	0.052793	-0.158640
H148	H	1.058251	0.552793	0.341360
H149	H	0.473564	0.102875	-0.118211
H150	H	0.973564	0.602875	0.381789
N151	N	0.330777	0.102790	-0.070026
N152	N	0.830777	0.602790	0.429974
H153	H	0.308447	0.150132	-0.105977
H154	H	0.808447	0.650132	0.394023
H155	H	0.388382	0.104514	-0.053992
H156	H	0.888382	0.604514	0.446008
H157	H	1.026036	-0.513780	0.072056
H158	H	1.526036	-0.013780	0.572056
H159	H	0.676448	0.121437	0.190174
H160	H	1.176448	0.621437	0.690174
N161	N	1.037033	-0.428546	0.072827
N162	N	1.537033	0.071454	0.572827
H163	H	1.044781	-0.465975	0.019893
H164	H	1.544781	0.034025	0.519893
H165	H	1.080866	-0.395514	0.075939
H166	H	1.580866	0.104486	0.575939
N167	N	0.801804	-0.272733	0.056298
N168	N	1.301804	0.227267	0.556298
H169	H	0.803099	-0.309331	0.002911
H170	H	1.303099	0.190669	0.502911
H171	H	0.797648	-0.304144	0.109519
H172	H	1.297648	0.195856	0.609519
N173	N	0.703005	0.106898	-0.114095
N174	N	1.203005	0.606898	0.385905
H175	H	0.667106	0.103720	-0.166433
H176	H	1.167106	0.603720	0.333567
H177	H	0.727433	0.156711	-0.115812
H178	H	1.227433	0.656711	0.384188
H179	H	0.763195	-0.479950	0.053574
H180	H	1.263195	0.020050	0.553574
N181	N	1.032025	0.008543	0.274193
N182	N	1.532025	0.508543	0.774193
H183	H	1.066165	-0.023592	0.319132
H184	H	1.566165	0.476408	0.819132
H185	H	1.006230	-0.028542	0.234718
H186	H	1.506230	0.471458	0.734718
H187	H	1.046597	-0.005139	0.695010
H188	H	1.546597	0.494861	1.195010
H189	H	0.830160	0.198611	0.844568
H190	H	1.330160	0.698611	1.344568
H191	H	1.038179	0.002803	0.859165
H192	H	1.538179	0.502803	1.359165
H193	H	1.083220	-0.298066	0.076083
H194	H	1.583220	0.201934	0.576083
N195	N	0.784049	0.241962	0.445537
N196	N	1.284049	0.741962	0.945537
H197	H	0.789456	0.236882	0.510331
H198	H	1.289456	0.736882	1.010331
H199	H	0.790044	0.297679	0.430072
H200	H	1.290044	0.797679	0.930072
N201	N	0.793697	0.232864	0.257475
N202	N	1.293697	0.732864	0.757475
H203	H	0.798043	0.290135	0.273567
H204	H	1.298043	0.790135	0.773567
H205	H	0.805715	0.221501	0.193919
H206	H	1.305715	0.721501	0.693919
N207	N	0.752408	-0.639052	0.052812
N208	N	1.252408	-0.139052	0.552812
H209	H	0.766444	-0.699352	0.053796
H210	H	1.266444	-0.199352	0.553796
H211	H	0.717285	-0.617901	0.103826
H212	H	1.217285	-0.117901	0.603826
H213	H	1.033830	-0.664374	0.072584
H214	H	1.533830	-0.164374	0.572584
N215	N	0.809389	-0.349469	0.056838
N216	N	1.309389	0.150531	0.556838
H217	H	0.781211	-0.362402	0.001378
H218	H	1.281211	0.137598	0.501378
H219	H	0.775782	-0.357288	0.107988
H220	H	1.275782	0.142712	0.607988
