data_functionalizedCrystal
_audit_creation_method	'MofGen! by Chris Wilmer'
_symmetry_space_group_name_H-M	'P1'
_symmetry_Int_Tables_number	1
_symmetry_cell_setting	triclinic
loop_
_symmetry_equiv_pos_as_xyz
  x,y,z
_cell_length_a	14.044209
_cell_length_b	13.101039
_cell_length_c	14.044190
_cell_angle_alpha	86.336293
_cell_angle_beta	86.810135
_cell_angle_gamma	86.340786
loop_
_atom_site_label
_atom_site_type_symbol
_atom_site_fract_x
_atom_site_fract_y
_atom_site_fract_z
O1	O	-1.281975	0.085110	0.225339
O2	O	-0.948641	0.418444	0.558672
O3	O	-0.615308	0.751777	0.892005
O4	O	-1.005305	0.085139	0.217034
O5	O	-0.671971	0.418472	0.550367
O6	O	-0.338638	0.751806	0.883700
O7	O	-1.139482	0.085105	0.082851
O8	O	-0.806149	0.418438	0.416184
O9	O	-0.472816	0.751772	0.749518
O10	O	-1.147797	0.085144	0.359521
O11	O	-0.814464	0.418478	0.692855
O12	O	-0.481130	0.751811	1.026188
O13	O	-1.129857	-0.085323	0.092496
O14	O	-0.796523	0.248011	0.425829
O15	O	-0.463190	0.581344	0.759163
O16	O	-0.995679	-0.085289	0.226678
O17	O	-0.662346	0.248045	0.560012
O18	O	-0.329012	0.581378	0.893345
O19	O	-1.272349	-0.085317	0.234983
O20	O	-0.939016	0.248016	0.568317
O21	O	-0.605682	0.581350	0.901650
Zn22	Zn	-1.132486	-0.112362	0.232362
Zn23	Zn	-0.799152	0.220972	0.565696
Zn24	Zn	-0.465819	0.554305	0.899029
Zn25	Zn	-1.145168	0.112184	0.219655
Zn26	Zn	-0.811835	0.445517	0.552988
Zn27	Zn	-0.478501	0.778850	0.886321
O28	O	-1.138171	-0.085283	0.369166
O29	O	-0.804838	0.248050	0.702499
O30	O	-0.471505	0.581384	1.035833
C31	C	-0.964870	-0.000071	0.218220
C32	C	-0.631537	0.333262	0.551554
C33	C	-0.298203	0.666595	0.884887
C34	C	-0.858728	-0.000061	0.207376
C35	C	-0.525394	0.333272	0.540709
C36	C	-0.192061	0.666605	0.874043
N37	N	-1.123837	-0.265608	0.241035
N38	N	-0.790504	0.067725	0.574368
N39	N	-0.457171	0.401059	0.907701
C40	C	-0.664388	-0.000082	0.187553
C41	C	-0.331055	0.333251	0.520886
C42	C	0.002279	0.666584	0.854219
C43	C	-0.613260	-0.000075	0.264467
C44	C	-0.279927	0.333258	0.597800
C45	C	0.053406	0.666592	0.931134
C46	C	-0.505123	-0.000087	0.253437
C47	C	-0.171790	0.333247	0.586770
C48	C	0.161543	0.666580	0.920104
C49	C	-0.772535	-0.000071	0.198581
C50	C	-0.439202	0.333263	0.531914
C51	C	-0.105868	0.666596	0.865248
C52	C	-1.112072	-0.474648	0.252843
C53	C	-0.778738	-0.141314	0.586176
C54	C	-0.445405	0.192019	0.919509
C55	C	-1.165586	-0.525537	0.199170
C56	C	-0.832253	-0.192204	0.532503
C57	C	-0.498919	0.141130	0.865837
C58	C	-1.159039	-0.641854	0.205740
C59	C	-0.825706	-0.308520	0.539074
C60	C	-0.492373	0.024813	0.872407
C61	C	-1.118617	-0.358320	0.246274
C62	C	-0.785284	-0.024987	0.579607
C63	C	-0.451951	0.308346	0.912940
C64	C	-0.312784	-0.000101	0.233798
C65	C	0.020549	0.333232	0.567132
C66	C	0.353883	0.666565	0.900465
C67	C	-0.418927	-0.000096	0.244648
C68	C	-0.085594	0.333237	0.577981
C69	C	0.247740	0.666571	0.911315
C70	C	-1.131033	-0.000111	0.052052
C71	C	-0.797699	0.333222	0.385385
C72	C	-0.464366	0.666555	0.718718
C73	C	-1.120185	-0.000119	-0.054091
C74	C	-0.786852	0.333214	0.279242
C75	C	-0.453518	0.666547	0.612576
N76	N	-1.153823	0.265430	0.210975
N77	N	-0.820490	0.598763	0.544309
N78	N	-0.487157	0.932097	0.877642
C79	C	-1.177287	-0.000085	-0.299552
C80	C	-0.843954	0.333248	0.033782
C81	C	-0.510621	0.666582	0.367115
C82	C	-1.100371	-0.000084	-0.248426
C83	C	-0.767038	0.333249	0.084908
C84	C	-0.433704	0.666582	0.418241
C85	C	-1.111398	-0.000104	-0.140288
C86	C	-0.778065	0.333230	0.193045
C87	C	-0.444732	0.666563	0.526379
C88	C	-1.166262	-0.000065	-0.407700
C89	C	-0.832928	0.333268	-0.074366
C90	C	-0.499595	0.666601	0.258967
C91	C	-1.146621	-0.000064	0.399965
C92	C	-0.813288	0.333269	0.733299
C93	C	-0.479954	0.666602	1.066632
C94	C	-1.157469	-0.000050	0.506107
C95	C	-0.824136	0.333283	0.839441
C96	C	-0.490803	0.666617	1.172774
H97	H	-0.650702	-0.000060	0.338600
H98	H	-0.317369	0.333273	0.671933
H99	H	0.015964	0.666607	1.005266
H100	H	-1.026239	-0.000071	-0.285869
H101	H	-0.692906	0.333263	0.047464
H102	H	-0.359573	0.666596	0.380797
H103	H	-1.216318	-0.481748	0.148286
H104	H	-0.882985	-0.148414	0.481619
H105	H	-0.549651	0.184919	0.814953
H106	H	-1.061344	-0.518432	0.303725
H107	H	-0.728011	-0.185099	0.637058
H108	H	-0.394678	0.148235	0.970392
H109	H	-0.626948	-0.000098	0.113426
H110	H	-0.293615	0.333235	0.446759
H111	H	0.039718	0.666569	0.780093
H112	H	-1.251413	-0.000103	-0.262110
H113	H	-0.918080	0.333230	0.071223
H114	H	-0.584746	0.666563	0.404557
