data_functionalizedCrystal
_audit_creation_method	'MofGen! by Chris Wilmer'
_symmetry_space_group_name_H-M	'P1'
_symmetry_Int_Tables_number	1
_symmetry_cell_setting	triclinic
loop_
_symmetry_equiv_pos_as_xyz
  x,y,z
_cell_length_a	16.120807
_cell_length_b	18.215407
_cell_length_c	18.215399
_cell_angle_alpha	89.983176
_cell_angle_beta	92.922316
_cell_angle_gamma	87.099733
loop_
_atom_site_label
_atom_site_type_symbol
_atom_site_fract_x
_atom_site_fract_y
_atom_site_fract_z
Zn1	Zn	0.331888	1.110314	-0.401292
Zn2	Zn	0.831888	1.610314	0.098708
Zn3	Zn	0.471317	1.104038	-0.271998
Zn4	Zn	0.971317	1.604038	0.228002
Zn5	Zn	0.331922	0.987251	-0.278238
Zn6	Zn	0.831922	1.487251	0.221762
Zn7	Zn	0.471264	0.981023	-0.395026
Zn8	Zn	0.971264	1.481023	0.104974
O9	O	0.401598	1.045656	-0.336639
O10	O	0.901598	1.545656	0.163361
O11	O	0.350392	1.212465	-0.384152
O12	O	0.850392	1.712465	0.115848
O13	O	0.452861	1.088525	-0.169840
O14	O	0.952861	1.588525	0.330160
O15	O	0.215251	1.008808	-0.299795
O16	O	0.715251	1.508808	0.200205
O17	O	0.452829	1.207854	-0.289161
O18	O	0.952829	1.707854	0.210839
O19	O	0.215226	1.099222	-0.390203
O20	O	0.715226	1.599222	0.109797
O21	O	0.350448	1.002723	-0.174424
O22	O	0.850448	1.502723	0.325576
O23	O	0.350398	0.883441	-0.293719
O24	O	0.850398	1.383441	0.206281
O25	O	0.452740	0.998194	-0.498843
O26	O	0.952740	1.498194	0.001157
O27	O	0.452772	0.878866	-0.379522
O28	O	0.952772	1.378866	0.120478
O29	O	0.350341	1.093183	-0.503447
O30	O	0.850341	1.593183	-0.003447
O31	O	0.587976	1.082487	-0.283084
O32	O	1.087976	1.582487	0.216916
O33	O	0.587938	0.992109	-0.373472
O34	O	1.087938	1.492109	0.126528
C35	C	0.401583	0.854451	-0.336618
C36	C	0.901583	1.354451	0.163382
C37	C	0.401597	0.772651	-0.336626
C38	C	0.901597	1.272651	0.163374
C39	C	0.184142	1.055410	-0.346394
C40	C	0.684142	1.555410	0.153606
C41	C	0.091476	1.059566	-0.350551
C42	C	0.591476	1.559566	0.149449
C43	C	0.454988	0.582090	-0.381241
C44	C	0.954988	1.082090	0.118759
C45	C	0.454990	0.505232	-0.381250
C46	C	0.954990	1.005232	0.118750
C47	C	0.348223	0.509974	-0.292052
C48	C	0.848223	1.009974	0.207948
C49	C	0.348217	0.586831	-0.292047
C50	C	0.848217	1.086831	0.207953
C51	C	0.401604	0.622887	-0.336640
C52	C	0.901604	1.122887	0.163360
C53	C	0.401613	0.469171	-0.336654
C54	C	0.901613	0.969171	0.163346
C55	C	0.401615	0.385837	-0.336663
C56	C	0.901615	0.885837	0.163337
C57	C	0.401600	0.706227	-0.336632
C58	C	0.901600	1.206227	0.163368
C59	C	-0.119463	1.024279	-0.315235
C60	C	0.380537	1.524279	0.184765
C61	C	-0.078182	1.067165	-0.358125
C62	C	0.421818	1.567165	0.141875
C63	C	0.016224	1.062936	-0.353910
C64	C	0.516224	1.562936	0.146090
C65	C	-0.213878	1.028507	-0.319450
C66	C	0.286122	1.528507	0.180550
C67	C	0.618207	1.035961	-0.326937
C68	C	1.118207	1.535961	0.173063
C69	C	0.710874	1.031880	-0.322811
C70	C	1.210874	1.531880	0.177189
C71	C	0.401531	1.045694	-0.528594
C72	C	0.901531	1.545694	-0.028594
C73	C	0.401503	1.045710	-0.610395
C74	C	0.901503	1.545710	-0.110395
C75	C	0.401613	1.237609	-0.336659
C76	C	0.901613	1.737609	0.163341
C77	C	0.401619	1.319407	-0.336668
C78	C	0.901619	1.819407	0.163332
C79	C	0.348140	1.001074	-0.800978
C80	C	0.848140	1.501074	-0.300978
C81	C	0.348123	1.001088	-0.877838
C82	C	0.848123	1.501088	-0.377838
C83	C	0.454766	1.090439	-0.873053
C84	C	0.954766	1.590439	-0.373053
C85	C	0.454786	1.090421	-0.796195
C86	C	0.954786	1.590421	-0.296195
C87	C	0.401469	1.045740	-0.760160
C88	C	0.901469	1.545740	-0.260160
C89	C	0.401431	1.045771	-0.913878
C90	C	0.901431	1.545771	-0.413878
C91	C	0.401414	1.045786	-0.997212
C92	C	0.901414	1.545786	-0.497212
C93	C	0.401487	1.045724	-0.676820
C94	C	0.901487	1.545724	-0.176820
C95	C	0.401604	1.045664	-0.145432
C96	C	0.901604	1.545664	0.354568
C97	C	0.401397	1.045801	-0.063643
C98	C	0.901397	1.545801	0.436357
H99	H	0.498457	0.611445	-0.417553
H100	H	0.998457	1.111445	0.082447
H101	H	0.498216	1.126794	-0.762960
H102	H	0.998216	1.626794	-0.262960
O103	O	0.290662	0.471069	-0.243950
O104	O	0.790662	0.971069	0.256050
H105	H	0.225240	0.488736	-0.259590
H106	H	0.725240	0.988736	0.240410
O107	O	0.290636	0.630845	-0.243941
O108	O	0.790636	1.130845	0.256059
H109	H	0.327902	0.664186	-0.204784
H110	H	0.827902	1.164186	0.295216
H111	H	0.498459	0.472018	-0.417569
H112	H	0.998459	0.972018	0.082431
H113	H	-0.113741	1.107059	-0.398009
H114	H	0.386259	1.607059	0.101991
O115	O	-0.072372	0.971451	-0.262390
O116	O	0.427628	1.471451	0.237610
H117	H	-0.004538	0.976392	-0.267323
H118	H	0.495462	1.476392	0.232677
O119	O	0.290635	0.952884	-0.762112
O120	O	0.790635	1.452884	-0.262112
H121	H	0.327954	0.913764	-0.725410
H122	H	0.827954	1.413764	-0.225410
H123	H	0.304699	0.964716	-0.911069
H124	H	0.804699	1.464716	-0.411069
O125	O	0.512263	1.138637	-0.911919
O126	O	1.012263	1.638637	-0.411919
H127	H	0.503284	1.131153	-0.972222
H128	H	1.003284	1.631153	-0.472222
