data_functionalizedCrystal
_audit_creation_method	'MofGen! by Chris Wilmer'
_symmetry_space_group_name_H-M	'P1'
_symmetry_Int_Tables_number	1
_symmetry_cell_setting	triclinic
loop_
_symmetry_equiv_pos_as_xyz
  x,y,z
_cell_length_a	12.759401
_cell_length_b	12.759400
_cell_length_c	12.759393
_cell_angle_alpha	89.968436
_cell_angle_beta	89.981504
_cell_angle_gamma	90.014845
loop_
_atom_site_label
_atom_site_type_symbol
_atom_site_fract_x
_atom_site_fract_y
_atom_site_fract_z
Zn1	Zn	1.606255	-0.418200	-0.593981
Zn2	Zn	2.106255	0.081800	-0.093981
Zn3	Zn	1.606150	-0.593919	-0.418301
Zn4	Zn	2.106150	-0.093919	0.081699
Zn5	Zn	1.430557	-0.418255	-0.418321
Zn6	Zn	1.930557	0.081745	0.081679
Zn7	Zn	1.430546	-0.593838	-0.593943
Zn8	Zn	1.930546	-0.093838	-0.093943
O9	O	1.518377	-0.506053	-0.506137
O10	O	2.018377	-0.006053	-0.006137
O11	O	1.753262	-0.441520	-0.570685
O12	O	2.253262	0.058480	-0.070685
O13	O	1.582818	-0.570673	-0.271283
O14	O	2.082818	-0.070673	0.228717
O15	O	1.453913	-0.271226	-0.441647
O16	O	1.953913	0.228774	0.058353
O17	O	1.753185	-0.570620	-0.441614
O18	O	2.253185	-0.070620	0.058386
O19	O	1.582998	-0.271186	-0.570704
O20	O	2.082998	0.228814	-0.070704
O21	O	1.453811	-0.441614	-0.271297
O22	O	1.953811	0.058386	0.228703
O23	O	1.283535	-0.441535	-0.441609
O24	O	1.783535	0.058465	0.058391
O25	O	1.453894	-0.570482	-0.740969
O26	O	1.953894	-0.070482	-0.240969
O27	O	1.283527	-0.570536	-0.570638
O28	O	1.783527	-0.070536	-0.070638
O29	O	1.582987	-0.441442	-0.740997
O30	O	2.082987	0.058558	-0.240997
O31	O	1.582807	-0.740929	-0.441577
O32	O	2.082807	-0.240929	0.058423
O33	O	1.453791	-0.740870	-0.570620
O34	O	1.953791	-0.240870	-0.070620
C35	C	1.245410	-0.506033	-0.506122
C36	C	1.745410	-0.006033	-0.006122
C37	C	1.128633	-0.506050	-0.506141
C38	C	1.628633	-0.006050	-0.006141
C39	C	1.518315	-0.779020	-0.506115
C40	C	2.018315	-0.279020	-0.006115
C41	C	1.518384	-0.895797	-0.506140
C42	C	2.018384	-0.395797	-0.006140
C43	C	1.073794	-0.573328	-0.573215
C44	C	1.573794	-0.073328	-0.073215
C45	C	0.964070	-0.573342	-0.573227
C46	C	1.464070	-0.073342	-0.073227
C47	C	0.964034	-0.438796	-0.439081
C48	C	1.464034	0.061204	0.060919
C49	C	1.073756	-0.438778	-0.439075
C50	C	1.573756	0.061222	0.060925
C51	C	1.128672	-0.640600	-0.640281
C52	C	1.628672	-0.140600	-0.140281
C53	C	1.073833	-0.707885	-0.707360
C54	C	1.573833	-0.207885	-0.207360
C55	C	0.964109	-0.707898	-0.707371
C56	C	1.464109	-0.207898	-0.207371
C57	C	0.909224	-0.640627	-0.640304
C58	C	1.409224	-0.140627	-0.140304
C59	C	1.585637	-0.950655	-0.439022
C60	C	2.085637	-0.450655	0.060978
C61	C	1.585702	-1.060379	-0.439054
C62	C	2.085702	-0.560379	0.060946
C63	C	1.451252	-1.060377	-0.573327
C64	C	1.951252	-0.560377	-0.073327
C65	C	1.451193	-0.950655	-0.573299
C66	C	1.951193	-0.450655	-0.073299
C67	C	1.652828	-0.895797	-0.371864
C68	C	2.152828	-0.395797	0.128136
C69	C	1.720086	-0.950655	-0.304739
C70	C	2.220086	-0.450655	0.195261
C71	C	1.720150	-1.060379	-0.304771
C72	C	2.220150	-0.560379	0.195229
C73	C	1.652957	-1.115245	-0.371929
C74	C	2.152957	-0.615245	0.128071
C75	C	1.792410	-0.506073	-0.506152
C76	C	2.292410	-0.006073	-0.006152
C77	C	1.909187	-0.506082	-0.506158
C78	C	2.409187	-0.006082	-0.006158
C79	C	1.518451	-0.505947	-0.780170
C80	C	2.018451	-0.005947	-0.280170
C81	C	1.518482	-0.505902	-0.896947
C82	C	2.018482	-0.005902	-0.396947
C83	C	1.518468	-0.232019	-0.506182
C84	C	2.018468	0.267981	-0.006182
C85	C	1.518507	-0.115243	-0.506201
C86	C	2.018507	0.384757	-0.006201
C87	C	1.585710	-0.438704	-0.951825
C88	C	2.085710	0.061296	-0.451825
C89	C	1.585735	-0.438666	-1.061549
C90	C	2.085735	0.061334	-0.561549
C91	C	1.451301	-0.573033	-1.061507
C92	C	1.951301	-0.073033	-0.561507
C93	C	1.451272	-0.573064	-0.951785
C94	C	1.951272	-0.073064	-0.451785
C95	C	1.652920	-0.371541	-0.896987
C96	C	2.152920	0.128459	-0.396987
C97	C	1.720155	-0.304339	-0.951866
C98	C	2.220155	0.195661	-0.451866
C99	C	1.720180	-0.304301	-1.061590
C100	C	2.220180	0.195699	-0.561590
C101	C	1.652970	-0.371465	-1.116436
C102	C	2.152970	0.128535	-0.616436
C103	C	1.518364	-0.506083	-0.233169
C104	C	2.018364	-0.006083	0.266831
C105	C	1.518537	-0.505832	-0.116393
C106	C	2.018537	-0.005832	0.383607
H107	H	1.218015	-0.640599	-0.640277
H108	H	1.718015	-0.140599	-0.140277
F109	F	0.905748	-0.779498	-0.778769
F110	F	1.405748	-0.279498	-0.278769
H111	H	1.396545	-1.105058	-0.628002
H112	H	1.896545	-0.605058	-0.128002
H113	H	1.652780	-0.806454	-0.371827
H114	H	2.152780	-0.306454	0.128173
H115	H	1.396431	-0.905989	-0.627954
H116	H	1.896431	-0.405989	-0.127954
F117	F	1.132123	-0.367174	-0.367687
F118	F	1.632123	0.132826	0.132313
F119	F	1.379780	-0.644511	-1.119881
F120	F	1.879780	-0.144511	-0.619881
H121	H	1.652984	-0.371417	-1.205780
H122	H	2.152984	0.128583	-0.705780
F123	F	0.792444	-0.640637	-0.640328
F124	F	1.292444	-0.140637	-0.140328
H125	H	1.774798	-0.905977	-0.250068
H126	H	2.274798	-0.405977	0.249932
H127	H	1.396513	-0.627767	-0.907102
H128	H	1.896513	-0.127767	-0.407102
H129	H	1.652910	-0.371567	-0.807644
H130	H	2.152910	0.128433	-0.307644
H131	H	1.774922	-1.105041	-0.250123
H132	H	2.274922	-0.605041	0.249877
H133	H	1.653024	-1.204589	-0.371958
H134	H	2.153024	-0.704589	0.128042
F135	F	1.791665	-0.232848	-0.893494
F136	F	2.291665	0.267152	-0.393494
F137	F	1.791735	-0.232780	-1.119993
F138	F	2.291735	0.267220	-0.619993
H139	H	1.118528	-0.762647	-0.761970
H140	H	1.618528	-0.262647	-0.261970
H141	H	0.919337	-0.384028	-0.384477
H142	H	1.419337	0.115972	0.115523
