data_functionalizedCrystal
_audit_creation_method	'MofGen! by Chris Wilmer'
_symmetry_space_group_name_H-M	'P1'
_symmetry_Int_Tables_number	1
_symmetry_cell_setting	triclinic
loop_
_symmetry_equiv_pos_as_xyz
  x,y,z
_cell_length_a	10.540539
_cell_length_b	11.026607
_cell_length_c	10.065918
_cell_angle_alpha	82.291637
_cell_angle_beta	99.733777
_cell_angle_gamma	83.444246
loop_
_atom_site_label
_atom_site_type_symbol
_atom_site_fract_x
_atom_site_fract_y
_atom_site_fract_z
O1	O	0.552840	-1.630877	0.113482
O2	O	0.492194	-1.277045	0.113485
O3	O	0.339578	-1.462033	0.113482
O4	O	0.705456	-1.445889	0.113485
O5	O	0.299084	-1.429818	-0.113507
O6	O	0.451699	-1.244831	-0.113503
O7	O	0.512345	-1.598662	-0.113506
Zn8	Zn	0.475593	-1.416631	-0.149544
Zn9	Zn	0.528946	-1.459076	0.149523
O10	O	0.664961	-1.413674	-0.113503
C11	C	0.460758	-1.215630	-0.000009
C12	C	0.427406	-1.080627	-0.000007
C13	C	0.271763	-1.444715	-0.000010
C14	C	0.130023	-1.441094	-0.000002
N15	N	0.439182	-1.387673	-0.353649
C16	C	-0.083716	-1.302362	0.000508
C17	C	0.063615	-1.305961	-0.000003
C18	C	0.059485	-1.487730	-0.129625
C19	C	-0.088089	-1.483102	-0.129734
C20	C	-0.041955	-1.522485	0.128394
C21	C	0.105605	-1.523973	0.130108
C22	C	0.732777	-1.430992	-0.000008
C23	C	0.874518	-1.434615	-0.000007
C24	C	0.543782	-1.660077	-0.000010
C25	C	0.577136	-1.795082	-0.000002
C26	C	0.519498	-1.007620	-0.000005
C27	C	0.485029	-0.868087	-0.000004
C28	C	0.516276	-1.448992	-0.421429
C29	C	0.488244	-1.426716	-0.578596
N30	N	0.565350	-1.488044	0.353628
H31	H	0.111587	-1.267978	0.092916
H32	H	0.623860	-1.048415	-0.000012
O33	O	0.289158	-1.026602	-0.000022
H34	H	0.257646	-1.070485	0.092486
H35	H	0.380666	-0.827302	0.000030
O36	O	0.715387	-0.849090	-0.000020
H37	H	0.779905	-0.831461	0.092488
H38	H	0.401478	-1.357724	-0.636917
H39	H	0.352422	-1.318686	-0.411976
H40	H	0.603029	-1.517987	-0.363102
O41	O	0.680289	-1.579428	-0.569137
H42	H	0.645642	-1.653284	-0.504011
O43	O	-0.115148	-1.249098	0.123613
H44	H	-0.160879	-1.316311	0.185748
H45	H	-0.144102	-1.421289	-0.226628
O46	O	0.168701	-1.479068	0.257140
H47	H	0.274911	-1.484228	0.259855
O48	O	-0.160971	-1.214556	-0.121936
H49	H	-0.228984	-1.264700	-0.183161
O50	O	-0.075972	-1.651944	0.129571
H51	H	-0.180686	-1.650963	0.133475
H52	H	0.077480	-1.241223	-0.093075
H53	H	0.152803	-1.623605	0.137935
O54	O	-0.124845	-1.610716	-0.137558
H55	H	-0.037236	-1.675456	-0.141257
H56	H	0.074981	-1.428865	-0.226084
O57	O	0.116749	-1.618268	-0.136038
H58	H	0.196286	-1.651369	-0.046695
H59	H	-0.065561	-1.492692	0.226640
