data_functionalizedCrystal
_audit_creation_method	'MofGen! by Chris Wilmer'
_symmetry_space_group_name_H-M	'P1'
_symmetry_Int_Tables_number	1
_symmetry_cell_setting	triclinic
loop_
_symmetry_equiv_pos_as_xyz
  x,y,z
_cell_length_a	14.519731
_cell_length_b	17.038272
_cell_length_c	12.996460
_cell_angle_alpha	89.993697
_cell_angle_beta	89.994327
_cell_angle_gamma	87.400204
loop_
_atom_site_label
_atom_site_type_symbol
_atom_site_fract_x
_atom_site_fract_y
_atom_site_fract_z
O1	O	1.231705	0.102582	-0.085570
O2	O	1.731705	0.602582	0.414430
O3	O	0.964153	0.114636	-0.085572
O4	O	1.464153	0.614636	0.414428
O5	O	1.096339	-0.005209	-0.085563
O6	O	1.596339	0.494791	0.414437
O7	O	1.099519	0.222427	-0.085579
O8	O	1.599519	0.722427	0.414421
O9	O	1.096324	-0.005216	0.085571
O10	O	1.596324	0.494784	0.585571
O11	O	0.964138	0.114629	0.085562
O12	O	1.464138	0.614629	0.585562
O13	O	1.231690	0.102576	0.085564
O14	O	1.731690	0.602576	0.585564
Cu15	Cu	1.097913	0.108602	0.101189
Cu16	Cu	1.597913	0.608602	0.601189
Cu17	Cu	1.097931	0.108610	-0.101197
Cu18	Cu	1.597931	0.608610	0.398803
O19	O	1.099504	0.222421	0.085555
O20	O	1.599504	0.722421	0.585555
C21	C	0.929743	0.114068	-0.000005
C22	C	1.429743	0.614068	0.499995
C23	C	0.827233	0.112375	-0.000006
C24	C	1.327233	0.612375	0.499994
C25	C	0.743984	0.111000	-0.000010
C26	C	1.243984	0.611000	0.499990
C27	C	0.639544	0.109282	-0.000010
C28	C	1.139544	0.609282	0.499990
C29	C	0.556300	0.107918	-0.000010
C30	C	1.056300	0.607918	0.499990
C31	C	0.451854	0.106200	-0.000012
C32	C	0.951854	0.606200	0.499988
C33	C	1.093439	-0.034345	0.000004
C34	C	1.593439	0.465655	0.500004
C35	C	1.084809	-0.121153	0.000003
C36	C	1.584809	0.378847	0.500003
C37	C	1.164041	-0.171133	0.000005
C38	C	1.664041	0.328867	0.500005
C39	C	1.155927	-0.252698	-0.000005
C40	C	1.655927	0.247302	0.499995
C41	C	1.068580	-0.284280	-0.000009
C42	C	1.568580	0.215720	0.499991
C43	C	0.989342	-0.234293	-0.000013
C44	C	1.489342	0.265707	0.499987
C45	C	0.997457	-0.152730	-0.000011
C46	C	1.497457	0.347270	0.499989
C47	C	1.039911	-0.530086	-0.000023
C48	C	1.539911	-0.030086	0.499977
C49	C	1.031802	-0.611655	-0.000022
C50	C	1.531802	-0.111655	0.499978
C51	C	1.198388	-0.630054	-0.000016
C52	C	1.698388	-0.130054	0.499984
C53	C	1.206496	-0.548489	-0.000007
C54	C	1.706496	-0.048489	0.499993
C55	C	1.127257	-0.498509	-0.000017
C56	C	1.627257	0.001491	0.499983
C57	C	1.060284	-0.367651	-0.000016
C58	C	1.560284	0.132349	0.499984
C59	C	1.135554	-0.415140	-0.000018
C60	C	1.635554	0.084860	0.499982
C61	C	1.266100	0.103144	-0.000005
C62	C	1.766100	0.603144	0.499995
C63	C	1.368610	0.104836	-0.000012
C64	C	1.868610	0.604836	0.499988
C65	C	1.102404	0.251557	-0.000014
C66	C	1.602404	0.751557	0.499986
C67	C	1.111034	0.338364	-0.000021
C68	C	1.611034	0.838364	0.499979
N69	N	1.097907	0.108596	0.243536
N70	N	1.597907	0.608596	0.743536
N71	N	1.097944	0.108610	-0.243544
N72	N	1.597944	0.608610	0.256456
C73	C	1.097930	0.108611	0.663350
C74	C	1.597930	0.608611	1.163350
C75	C	1.097921	0.108609	0.546545
C76	C	1.597921	0.608609	1.046545
C77	C	1.097919	0.108604	0.453447
C78	C	1.597919	0.608604	0.953447
C79	C	1.097909	0.108601	0.336634
C80	C	1.597909	0.608601	0.836634
H81	H	1.235169	-0.145426	0.000015
H82	H	1.735169	0.354574	0.500015
C83	C	1.231634	-0.380397	-0.000008
C84	C	1.731634	0.119603	0.499992
N85	N	1.304001	-0.354221	0.000006
N86	N	1.804001	0.145779	0.500006
C87	C	0.964204	-0.402400	0.000001
C88	C	1.464204	0.097600	0.500001
N89	N	0.891836	-0.428575	0.000019
N90	N	1.391836	0.071425	0.500019
C91	C	1.285544	-0.685038	-0.000014
C92	C	1.785544	-0.185038	0.499986
N93	N	1.351194	-0.726453	-0.000018
N94	N	1.851194	-0.226453	0.499982
C95	C	0.910295	-0.097751	-0.000010
C96	C	1.410295	0.402249	0.499990
N97	N	0.844641	-0.056341	-0.000012
N98	N	1.344641	0.443659	0.499988
H99	H	1.277623	-0.522782	-0.000004
H100	H	1.777623	-0.022782	0.499996
C101	C	0.893258	-0.269036	-0.000009
C102	C	1.393258	0.230964	0.499991
N103	N	0.820886	-0.295203	0.000001
N104	N	1.320886	0.204797	0.500001
C105	C	0.935709	-0.646392	-0.000035
C106	C	1.435709	-0.146392	0.499965
N107	N	0.863336	-0.672557	-0.000044
N108	N	1.363336	-0.172557	0.499956
H109	H	1.220447	-0.293389	-0.000001
H110	H	1.720447	0.206611	0.499999
H111	H	0.975389	-0.489401	-0.000031
H112	H	1.475389	0.010599	0.499969
