data_functionalizedCrystal
_audit_creation_method	'MofGen! by Chris Wilmer'
_symmetry_space_group_name_H-M	'P1'
_symmetry_Int_Tables_number	1
_symmetry_cell_setting	triclinic
loop_
_symmetry_equiv_pos_as_xyz
  x,y,z
_cell_length_a	20.875641
_cell_length_b	23.196402
_cell_length_c	23.196401
_cell_angle_alpha	119.990204
_cell_angle_beta	89.985559
_cell_angle_gamma	57.589996
loop_
_atom_site_label
_atom_site_type_symbol
_atom_site_fract_x
_atom_site_fract_y
_atom_site_fract_z
Zr1	Zr	0.641477	0.588689	0.054484
O2	O	0.535126	0.715972	0.150036
O3	O	0.674076	0.466273	0.025195
O4	O	0.674041	0.586544	0.145463
O5	O	0.535193	0.595697	-0.065104
O6	O	0.783622	0.579316	0.141851
O7	O	0.535162	0.595701	0.029769
O8	O	0.783686	0.364174	-0.073285
O9	O	0.535129	0.810839	0.150032
O10	O	0.769762	0.509429	0.010004
O11	O	0.688006	0.514819	-0.058103
O12	O	0.687964	0.656422	0.083496
O13	O	0.606208	0.661813	0.015389
Zr14	Zr	0.816296	0.577155	-0.102588
Zr15	Zr	0.816247	0.577162	0.048723
Zr16	Zr	0.641526	0.588682	-0.096828
Zr17	Zr	0.641482	0.739991	0.054477
Zr18	Zr	0.816291	0.425853	-0.102582
O19	O	0.783697	0.699571	-0.073300
O20	O	0.783626	0.699581	0.141845
O21	O	0.535197	0.715962	-0.065109
O22	O	0.922647	0.449873	-0.198141
O23	O	0.922576	0.449883	0.017005
O24	O	0.674147	0.466263	-0.189950
O25	O	0.922580	0.570148	0.016999
O26	O	0.783732	0.579300	-0.193567
O27	O	0.674151	0.586528	-0.189955
O28	O	0.922611	0.570143	-0.077874
O29	O	0.674048	0.801676	0.145453
O30	O	0.783725	0.364168	-0.193557
O31	O	0.922644	0.355006	-0.198136
O32	O	0.922604	0.355011	-0.077864
O33	O	0.535169	0.810833	0.029760
O34	O	0.674087	0.801670	0.025181
O35	O	0.769809	0.509422	-0.131601
O36	O	0.851565	0.504031	-0.063494
O37	O	0.769767	0.651025	0.009998
O38	O	0.688011	0.656416	-0.058109
C39	C	0.728881	0.393666	-0.024044
C40	C	0.728878	0.329435	-0.024041
C41	C	0.771549	0.296451	0.011513
C42	C	0.771557	0.236089	0.011507
C43	C	0.728878	0.208726	-0.024043
C44	C	0.686206	0.241714	-0.059605
C45	C	0.686206	0.302069	-0.059604
C46	C	0.657373	0.151414	-0.016412
C47	C	0.657371	0.091064	-0.016407
C48	C	0.728879	0.022572	-0.024050
C49	C	0.800390	0.014443	-0.031683
C50	C	0.800390	0.074797	-0.031682
C51	C	0.728874	0.143282	-0.024048
C52	C	0.771562	-0.075864	0.011499
C53	C	0.771572	-0.136231	0.011488
C54	C	0.686214	-0.130598	-0.059619
C55	C	0.686212	-0.070239	-0.059613
C56	C	0.728884	-0.042873	-0.024050
C57	C	0.510276	0.597341	-0.016847
C58	C	0.436082	0.602235	-0.014401
C59	C	0.443921	0.527807	-0.051610
C60	C	0.374205	0.532410	-0.049311
C61	C	0.296650	0.611442	-0.009797
C62	C	0.288813	0.685876	0.027413
C63	C	0.358528	0.681272	0.025109
C64	C	0.083569	0.633439	0.001203
C65	C	0.013852	0.638038	0.003506
C66	C	0.099249	0.484571	-0.073219
C67	C	0.168962	0.479974	-0.075516
C68	C	0.161119	0.554408	-0.038309
N69	N	0.225388	0.616149	-0.007444
N70	N	0.232380	0.549700	-0.040667
C71	C	0.947497	0.568503	-0.031258
C72	C	1.021691	0.563609	-0.033703
C73	C	0.728825	0.582931	0.165215
C74	C	0.728804	0.582934	0.229451
C75	C	0.728893	0.772178	-0.024061
C76	C	0.728895	0.836410	-0.024063
C77	C	0.686108	0.659661	0.297986
C78	C	0.686126	0.659662	0.358341
C79	C	0.728828	0.582932	0.350157
C80	C	0.771532	0.506194	0.281609
C81	C	0.771520	0.506195	0.221256
C82	C	0.722759	0.526705	0.417677
C83	C	0.722765	0.526707	0.478030
C84	C	0.728870	0.582924	0.536304
C85	C	0.734952	0.639155	0.534224
C86	C	0.734940	0.639156	0.473871
C87	C	0.728846	0.582922	0.415595
C88	C	0.686192	0.659657	0.670286
C89	C	0.686215	0.659654	0.730640
C90	C	0.771616	0.506185	0.653906
C91	C	0.771598	0.506190	0.593554
C92	C	0.728881	0.582929	0.601749
C93	C	0.728936	0.582917	0.786682
C94	C	0.728918	0.582924	0.722451
C95	C	0.947491	0.379247	-0.031250
C96	C	1.021683	0.310122	-0.033692
C97	C	0.728943	0.393657	-0.213311
C98	C	0.728962	0.329423	-0.277544
C99	C	0.947553	0.379238	-0.220517
C100	C	1.021766	0.310110	-0.287195
C101	C	0.510220	0.786606	0.172413
C102	C	0.436007	0.855734	0.239091
C103	C	0.510282	0.786597	-0.016855
C104	C	0.436090	0.855722	-0.014412
C105	C	0.728831	0.772187	0.165207
C106	C	0.728812	0.836422	0.229440
C107	C	1.013824	0.280477	0.003532
C108	C	1.083529	0.215535	0.001251
C109	C	1.161092	0.180235	-0.038259
C110	C	1.168949	0.209886	-0.075484
C111	C	1.099245	0.274831	-0.073199
C112	C	0.771670	0.296440	-0.346080
C113	C	0.771685	0.236093	-0.406439
C114	C	0.728995	0.208726	-0.398261
C115	C	0.686281	0.241715	-0.329718
C116	C	0.686262	0.302065	-0.269360
C117	C	1.099301	0.274832	-0.282957
C118	C	1.169039	0.209887	-0.345603
C119	C	1.161240	0.180216	-0.412486
C120	C	1.083697	0.215500	-0.416723
C121	C	1.013961	0.280449	-0.354078
C122	C	0.358473	0.891019	0.234853
C123	C	0.288735	0.955984	0.297499
C124	C	0.296533	0.985657	0.364382
C125	C	0.374076	0.950369	0.368618
C126	C	0.443812	0.885410	0.305973
C127	C	0.443949	0.885373	-0.051630
C128	C	0.374244	0.950332	-0.049333
C129	C	0.296681	0.985634	-0.009821
C130	C	0.288824	0.955981	0.027402
C131	C	0.358528	0.891027	0.025108
C132	C	0.771510	0.863769	0.221239
C133	C	0.771508	0.924116	0.281586
C134	C	0.728802	0.957118	0.350134
C135	C	0.686103	0.929764	0.358333
C136	C	0.686110	0.869414	0.297987
H137	H	0.651464	-0.152876	-0.088565
H138	H	0.806301	0.443720	0.274949
C139	C	1.237961	0.108764	-0.481392
N140	N	1.295749	0.054943	-0.533289
C141	C	1.074868	0.182925	0.042197
N142	N	1.068342	0.158362	0.073036
C143	C	0.529261	0.846557	-0.095095
N144	N	0.593517	0.817328	-0.127831
C145	C	0.928675	0.319246	-0.358752
N146	N	0.864437	0.348466	-0.362277
C147	C	1.107899	0.307462	-0.209392
N148	N	1.114382	0.332038	-0.153984
C149	C	0.254270	0.393032	-0.118985
N150	N	0.318525	0.327547	-0.151724
C151	C	0.818685	0.199808	-0.481831
N152	N	0.854089	0.172477	-0.538614
C153	C	0.729033	0.142330	-0.464664
N154	N	0.729069	0.092316	-0.514682
H155	H	0.225662	0.750225	0.059582
H156	H	1.217843	0.127353	-0.040114
H157	H	0.651486	0.328912	-0.213557
H158	H	0.806278	0.946380	0.274895
H159	H	0.651458	0.219431	-0.088551
C160	C	0.741671	0.700997	0.598322
N161	N	0.746731	0.747575	0.646602
H162	H	0.506942	0.856682	0.309432
C163	C	0.928512	0.319300	0.047003
N164	N	0.864256	0.348542	0.079752
H165	H	0.651524	0.219423	-0.323070
H166	H	0.651410	0.722143	0.676959
H167	H	1.232110	0.181135	-0.107652
H168	H	0.806305	0.209229	0.040460
H169	H	0.858621	-0.041332	-0.037915
C170	C	1.254328	0.171078	-0.340927
N171	N	1.318565	0.141847	-0.337403
H172	H	0.352141	0.741879	0.055400
H173	H	0.352107	0.866863	0.180399
H174	H	1.105655	0.298959	-0.103516
H175	H	0.728803	1.006258	0.399266
C176	C	0.818498	0.827473	0.145841
N177	N	0.853896	0.800134	0.089053
C178	C	1.075133	0.182846	-0.490301
N179	N	1.068684	0.158244	-0.545723
H180	H	0.651457	0.328925	-0.088556
C181	C	0.203445	0.994788	0.292822
N182	N	0.139208	1.024013	0.289298
C183	C	0.219813	1.057109	0.433287
N184	N	0.162024	1.110922	0.485184
C185	C	0.382640	0.983013	0.442197
N186	N	0.389089	1.007597	0.497618
C187	C	0.578711	0.100007	-0.008020
N188	N	0.519463	0.106742	-0.001706
C189	C	0.382905	0.982932	-0.090289
N190	N	0.389431	1.007483	-0.121139
C191	C	0.716070	0.464856	0.480314
N192	N	0.711027	0.418268	0.482032
C193	C	0.529229	0.440864	-0.095079
N194	N	0.593482	0.375376	-0.127823
H195	H	0.077172	0.694048	0.031513
C196	C	0.639129	0.744076	0.307004
N197	N	0.603747	0.807657	0.313796
H198	H	0.239930	1.038523	-0.007959
H199	H	0.380595	0.471802	-0.079612
C200	C	0.639280	-0.033964	-0.098734
N201	N	0.603936	-0.006649	-0.128209
H202	H	0.225663	0.984734	0.059572
C203	C	0.349870	0.858409	0.066045
N204	N	0.343342	0.833844	0.096879
H205	H	0.806434	0.318716	-0.352753
H206	H	0.651333	0.956643	0.414153
H207	H	0.105625	0.423971	-0.103512
H208	H	0.651336	0.847155	0.304674
C209	C	0.639156	0.744071	0.433741
N210	N	0.603777	0.807648	0.490530
H211	H	-0.049298	0.702399	0.035686
C212	C	0.741641	0.701000	0.471580
N213	N	0.746694	0.747578	0.469854
H214	H	0.858616	0.068174	-0.037898
C215	C	0.578703	0.226754	-0.008005
N216	N	0.519451	0.283498	-0.001674
C217	C	0.818511	-0.045768	0.050610
N218	N	0.853876	-0.023104	0.080067
H219	H	0.806297	0.318728	0.040468
H220	H	0.806324	-0.163091	0.040437
H221	H	0.651450	0.722137	0.786446
C222	C	0.716040	0.464859	0.353579
N223	N	0.710978	0.418278	0.305302
C224	C	0.818557	0.421783	0.518161
N225	N	0.853930	0.358204	0.461373
H226	H	0.806289	0.443713	0.165450
H227	H	0.806386	0.443710	0.647242
