data_functionalizedCrystal
_audit_creation_method	'MofGen! by Chris Wilmer'
_symmetry_space_group_name_H-M	'P1'
_symmetry_Int_Tables_number	1
_symmetry_cell_setting	triclinic
loop_
_symmetry_equiv_pos_as_xyz
  x,y,z
_cell_length_a	15.995350
_cell_length_b	16.992695
_cell_length_c	15.455313
_cell_angle_alpha	87.138508
_cell_angle_beta	92.667328
_cell_angle_gamma	87.080299
loop_
_atom_site_label
_atom_site_type_symbol
_atom_site_fract_x
_atom_site_fract_y
_atom_site_fract_z
O1	O	0.174112	1.043826	-0.072089
O2	O	0.507445	1.377160	0.261244
O3	O	0.840779	1.710493	0.594577
O4	O	0.172164	0.815541	-0.072099
O5	O	0.505497	1.148875	0.261235
O6	O	0.838831	1.482208	0.594568
O7	O	0.051668	0.935924	-0.072093
O8	O	0.385001	1.269257	0.261240
O9	O	0.718335	1.602591	0.594574
O10	O	0.294608	0.923443	-0.072095
O11	O	0.627941	1.256777	0.261238
O12	O	0.961275	1.590110	0.594572
O13	O	0.058528	0.929040	0.072169
O14	O	0.391862	1.262373	0.405502
O15	O	0.725195	1.595707	0.738835
O16	O	0.179024	0.808657	0.072163
O17	O	0.512357	1.141991	0.405496
O18	O	0.845691	1.475324	0.738830
O19	O	0.180972	1.036942	0.072172
O20	O	0.514306	1.370275	0.405506
O21	O	0.847639	1.703609	0.738839
Cu22	Cu	0.180625	0.922171	0.085340
Cu23	Cu	0.513958	1.255504	0.418673
Cu24	Cu	0.847291	1.588838	0.752007
Cu25	Cu	0.172512	0.930312	-0.085266
Cu26	Cu	0.505845	1.263646	0.248067
Cu27	Cu	0.839178	1.596979	0.581400
O28	O	0.301468	0.916559	0.072167
O29	O	0.634802	1.249893	0.405500
O30	O	0.968135	1.583226	0.738833
C31	C	0.023869	0.931966	0.000036
C32	C	0.357202	1.265299	0.333370
C33	C	0.690535	1.598633	0.666703
C34	C	-0.069185	0.930420	0.000031
C35	C	0.264148	1.263753	0.333365
C36	C	0.597481	1.597086	0.666698
C37	C	0.173088	0.782887	0.000031
C38	C	0.506422	1.116220	0.333364
C39	C	0.839755	1.449553	0.666698
C40	C	0.165612	0.695843	0.000027
C41	C	0.498945	1.029176	0.333361
C42	C	0.832279	1.362510	0.666694
C43	C	0.180048	1.069597	0.000041
C44	C	0.513381	1.402930	0.333374
C45	C	0.846715	1.736263	0.666708
C46	C	0.187524	1.156641	0.000039
C47	C	0.520857	1.489974	0.333372
C48	C	0.854191	1.823308	0.666706
C49	C	-0.407304	0.924864	0.000034
C50	C	-0.073971	1.258197	0.333367
C51	C	0.259362	1.591531	0.666701
C52	C	-0.365623	0.839145	-0.000293
C53	C	-0.032289	1.172478	0.333040
C54	C	0.301044	1.505812	0.666374
C55	C	-0.268814	0.840677	0.000032
C56	C	0.064520	1.174010	0.333365
C57	C	0.397853	1.507344	0.666699
C58	C	-0.239560	0.927620	0.000032
C59	C	0.093774	1.260953	0.333365
C60	C	0.427107	1.594286	0.666699
C61	C	-0.273890	0.965976	0.082413
C62	C	0.059443	1.299309	0.415746
C63	C	0.392777	1.632643	0.749080
C64	C	-0.370667	0.963819	0.082482
C65	C	-0.037333	1.297152	0.415815
C66	C	0.296000	1.630486	0.749148
C67	C	-0.378708	0.973418	-0.081571
C68	C	-0.045374	1.306752	0.251763
C69	C	0.287959	1.640085	0.585096
C70	C	-0.281815	0.973450	-0.082659
C71	C	0.051518	1.306783	0.250674
C72	C	0.384851	1.640117	0.584007
C73	C	-0.144758	0.929182	0.000034
C74	C	0.188576	1.262515	0.333367
C75	C	0.521909	1.595848	0.666701
C76	C	-0.502106	0.923305	0.000038
C77	C	-0.168773	1.256638	0.333371
C78	C	0.164560	1.589971	0.666705
C79	C	0.329267	0.920517	0.000036
C80	C	0.662601	1.253851	0.333369
C81	C	0.995934	1.587184	0.666702
C82	C	0.422321	0.922064	0.000035
C83	C	0.755655	1.255398	0.333368
C84	C	1.088988	1.588731	0.666702
N85	N	0.186331	0.916451	0.205335
N86	N	0.519664	1.249784	0.538669
N87	N	0.852997	1.583117	0.872002
C88	C	0.115389	1.206882	0.000037
C89	C	0.448722	1.540215	0.333370
C90	C	0.782055	1.873548	0.666703
C91	C	0.122418	1.288668	0.000040
C92	C	0.455752	1.622001	0.333373
C93	C	0.789085	1.955335	0.666706
C94	C	0.201584	1.320213	0.000039
C95	C	0.534918	1.653546	0.333372
C96	C	0.868251	1.986879	0.666706
C97	C	0.273725	1.269966	0.000044
C98	C	0.607058	1.603299	0.333377
C99	C	0.940392	1.936632	0.666710
C100	C	0.266695	1.188180	0.000047
C101	C	0.600028	1.521514	0.333380
C102	C	0.933361	1.854847	0.666714
C103	C	0.230722	1.563811	0.000035
C104	C	0.564056	1.897144	0.333369
C105	C	0.897389	2.230477	0.666702
C106	C	0.237747	1.645602	0.000030
C107	C	0.571081	1.978936	0.333363
C108	C	0.904414	2.312269	0.666696
C109	C	0.086440	1.664299	0.000027
C110	C	0.419773	1.997632	0.333360
C111	C	0.753107	2.330966	0.666694
C112	C	0.079416	1.582512	0.000025
C113	C	0.412750	1.915845	0.333358
C114	C	0.746083	2.249178	0.666692
C115	C	0.151557	1.532272	0.000034
C116	C	0.484891	1.865605	0.333368
C117	C	0.818224	2.198938	0.666701
N118	N	0.208772	1.403811	0.000039
N119	N	0.542105	1.737145	0.333373
N120	N	0.875438	2.070478	0.666706
N121	N	0.144370	1.448674	0.000040
N122	N	0.477703	1.782007	0.333374
N123	N	0.811036	2.115341	0.666707
N124	N	0.166799	0.936039	-0.205262
N125	N	0.500133	1.269372	0.128072
N126	N	0.833466	1.602706	0.461405
C127	C	0.135161	0.967611	0.250732
C128	C	0.468494	1.300945	0.584065
C129	C	0.801828	1.634278	0.917399
C130	C	0.139485	0.963293	0.341540
C131	C	0.472818	1.296626	0.674873
C132	C	0.806151	1.629959	1.008206
C133	C	0.194983	0.907816	0.386949
C134	C	0.528316	1.241150	0.720282
C135	C	0.861649	1.574483	1.053616
C136	C	0.246154	0.856650	0.341546
C137	C	0.579488	1.189984	0.674879
C138	C	0.912821	1.523317	1.008213
C139	C	0.241826	0.860966	0.250740
C140	C	0.575159	1.194299	0.584073
C141	C	0.908493	1.527633	0.917407
C142	C	0.213643	0.889189	0.658530
C143	C	0.546976	1.222522	0.991863
C144	C	0.880309	1.555855	1.325196
C145	C	0.217969	0.884878	0.749342
C146	C	0.551302	1.218212	1.082675
C147	C	0.884636	1.551545	1.416009
C148	C	0.111298	0.991520	0.749329
C149	C	0.444631	1.324853	1.082662
C150	C	0.777964	1.658187	1.415996
C151	C	0.106978	0.995834	0.658521
C152	C	0.440311	1.329167	0.991855
C153	C	0.773645	1.662501	1.325188
C154	C	0.158146	0.944665	0.613126
C155	C	0.491480	1.277999	0.946460
C156	C	0.824813	1.611332	1.279793
N157	N	0.199405	0.903402	0.479769
N158	N	0.532738	1.236736	0.813102
N159	N	0.866072	1.570069	1.146436
N160	N	0.153719	0.949076	0.520308
N161	N	0.487052	1.282410	0.853641
N162	N	0.820386	1.615743	1.186975
H163	H	-0.245424	0.810254	-0.059022
H164	H	0.087909	1.143588	0.274312
H165	H	0.421243	1.476921	0.607645
F166	F	0.322010	1.679172	0.000029
F167	F	0.655343	2.012505	0.333363
F168	F	0.988677	2.345838	0.666696
H169	H	0.050923	1.181205	0.000032
H170	H	0.384257	1.514538	0.333365
H171	H	0.717590	1.847872	0.666699
F172	F	0.009668	1.717773	0.000022
F173	F	0.343001	2.051106	0.333355
F174	F	0.676335	2.384440	0.666688
F175	F	-0.396512	0.798037	-0.077512
F176	F	-0.063179	1.131371	0.255822
F177	F	0.270155	1.464704	0.589155
H178	H	0.289465	1.522914	0.000039
H179	H	0.622798	1.856248	0.333372
H180	H	0.956132	2.189581	0.666705
H181	H	-0.240375	0.804390	0.059184
H182	H	0.092958	1.137723	0.392517
H183	H	0.426292	1.471057	0.725851
F184	F	0.305216	0.797604	0.389875
F185	F	0.638549	1.130937	0.723208
F186	F	0.971883	1.464270	1.056542
F187	F	0.296286	0.806511	0.202427
F188	F	0.629619	1.139844	0.535760
F189	F	0.962952	1.473178	0.869094
F190	F	0.357980	1.303540	0.000045
F191	F	0.691313	1.636873	0.333379
F192	F	1.024647	1.970206	0.666712
H193	H	0.063678	1.329571	0.000041
H194	H	0.397011	1.662904	0.333375
H195	H	0.730345	1.996238	0.666708
H196	H	0.325436	1.147274	0.000052
H197	H	0.658769	1.480608	0.333385
H198	H	0.992102	1.813941	0.666718
H199	H	-0.384706	0.802227	0.058452
H200	H	-0.051373	1.135560	0.391785
H201	H	0.281961	1.468893	0.725119
F202	F	-0.393460	0.919670	0.162970
F203	F	-0.060126	1.253004	0.496303
F204	F	0.273207	1.586337	0.829637
H205	H	-0.404092	0.948367	-0.144010
H206	H	-0.070759	1.281701	0.189323
H207	H	0.262575	1.615034	0.522656
F208	F	-0.407082	1.045857	0.087377
F209	F	-0.073748	1.379190	0.420710
F210	F	0.259585	1.712523	0.754043
H211	H	0.089973	1.012789	0.213765
H212	H	0.423306	1.346123	0.547099
H213	H	0.756639	1.679456	0.880432
F214	F	0.047912	1.054878	0.610194
F215	F	0.381245	1.388212	0.943528
F216	F	0.714579	1.721545	1.276861
H217	H	-0.259534	0.945441	-0.143603
H218	H	0.073800	1.278774	0.189731
H219	H	0.407133	1.612107	0.523064
H220	H	0.069638	1.033178	0.786298
H221	H	0.402971	1.366512	1.119631
H222	H	0.736304	1.699845	1.452965
H223	H	0.097818	1.004951	0.378501
H224	H	0.431151	1.338284	0.711834
H225	H	0.764484	1.671618	1.045168
F226	F	-0.249651	1.049274	0.086421
F227	F	0.083682	1.382607	0.419754
F228	F	0.417015	1.715941	0.753087
F229	F	0.277043	0.825830	0.797664
F230	F	0.610376	1.159163	1.130998
F231	F	0.943709	1.492497	1.464331
H232	H	0.255308	0.847526	0.621576
H233	H	0.588641	1.180860	0.954909
H234	H	0.921974	1.514193	1.288243
F235	F	-0.256497	1.056632	-0.089166
F236	F	0.076837	1.389965	0.244167
F237	F	0.410170	1.723298	0.577500
H238	H	-0.244559	0.933680	0.143718
H239	H	0.088775	1.267013	0.477051
H240	H	0.422108	1.600347	0.810384
H241	H	-0.406265	1.036656	-0.082124
H242	H	-0.072932	1.369990	0.251209
H243	H	0.260402	1.703323	0.584542
F244	F	-0.004844	1.548947	0.000001
F245	F	0.328490	1.882281	0.333335
F246	F	0.661823	2.215614	0.666668
