data_functionalizedCrystal
_audit_creation_method	'MofGen! by Chris Wilmer'
_symmetry_space_group_name_H-M	'P1'
_symmetry_Int_Tables_number	1
_symmetry_cell_setting	triclinic
loop_
_symmetry_equiv_pos_as_xyz
  x,y,z
_cell_length_a	10.654562
_cell_length_b	10.654541
_cell_length_c	9.730223
_cell_angle_alpha	89.998868
_cell_angle_beta	89.996961
_cell_angle_gamma	84.487016
loop_
_atom_site_label
_atom_site_type_symbol
_atom_site_fract_x
_atom_site_fract_y
_atom_site_fract_z
O1	O	1.667823	0.176470	-0.114380
O2	O	1.302347	0.193259	-0.114363
O3	O	1.493489	0.002125	-0.114363
O4	O	1.476680	0.367603	-0.114379
O5	O	1.493487	0.002130	0.114217
O6	O	1.302344	0.193264	0.114217
O7	O	1.667821	0.176474	0.114200
Zn8	Zn	1.485082	0.184870	0.150501
Zn9	Zn	1.485085	0.184863	-0.150663
O10	O	1.476678	0.367608	0.114201
C11	C	1.255548	0.192025	-0.000070
C12	C	1.116105	0.188327	-0.000064
C13	C	1.050573	0.186605	0.124525
C14	C	0.919551	0.183140	0.124502
C15	C	0.919604	0.183125	-0.124709
C16	C	1.050625	0.186581	-0.124684
C17	C	1.050541	0.186619	0.268404
C18	C	0.919519	0.183154	0.268382
C19	C	1.492255	-0.044671	-0.000074
C20	C	1.488564	-0.184114	-0.000076
C21	C	1.717127	-0.212075	-0.000069
C22	C	1.829670	-0.291564	-0.000063
C23	C	1.826194	-0.422582	-0.000067
C24	C	1.710164	-0.474113	-0.000082
C25	C	1.597621	-0.394623	-0.000088
C26	C	1.601109	-0.263604	-0.000080
C27	C	1.369061	-0.366663	-0.000105
C28	C	1.372534	-0.235645	-0.000091
C29	C	1.253031	-0.418194	-0.000119
C30	C	1.140485	-0.338704	-0.000115
C31	C	1.143966	-0.207679	-0.000110
C32	C	1.259991	-0.156156	-0.000097
C33	C	1.714620	0.177708	-0.000095
C34	C	1.854062	0.181406	-0.000111
C35	C	1.477913	0.414404	-0.000091
C36	C	1.481603	0.553848	-0.000098
N37	N	1.485089	0.184873	0.356037
N38	N	1.485088	0.184850	-0.356200
C39	C	1.569750	0.100268	0.427963
C40	C	1.569746	0.100253	0.571846
C41	C	1.400419	0.269459	0.571865
C42	C	1.400417	0.269467	0.427984
C43	C	1.667513	0.002582	0.427953
C44	C	1.667510	0.002567	0.571836
H45	H	0.873232	0.269952	0.323614
N46	N	1.627135	-0.118278	0.630960
H47	H	1.607625	-0.176656	0.553700
H48	H	1.697410	-0.160303	0.689394
N49	N	1.706416	-0.615424	-0.000086
H50	H	1.615839	-0.636007	-0.000091
H51	H	1.750514	-0.652372	-0.084826
N52	N	0.880305	0.061840	0.327527
H53	H	0.918570	-0.011781	0.271231
H54	H	0.910707	0.052414	0.425632
H55	H	1.262836	-0.049475	-0.000084
N56	N	1.954812	-0.235985	-0.000028
H57	H	1.961369	-0.182237	-0.084752
H58	H	1.961249	-0.182322	0.084774
N59	N	1.309084	0.360697	0.350404
H60	H	1.255447	0.414281	0.417818
H61	H	1.357623	0.416684	0.290700
N62	N	1.309094	0.360693	0.649465
H63	H	1.321937	0.347848	0.751527
H64	H	1.324366	0.449930	0.624324
H65	H	1.764021	0.024089	0.610881
N66	N	0.848979	0.181235	-0.259115
H67	H	0.756034	0.178779	-0.240228
H68	H	0.862394	0.259555	-0.313534
H69	H	1.096801	0.099825	0.323661
H70	H	1.080115	0.278215	0.313044
H71	H	1.103978	0.187964	-0.226136
N72	N	1.639112	-0.125282	0.376219
H73	H	1.559956	-0.115910	0.318540
H74	H	1.711992	-0.163185	0.318605
H75	H	1.719969	-0.105394	-0.000047
N76	N	1.947569	-0.508333	-0.000062
H77	H	1.998150	-0.491648	-0.084792
H78	H	1.998031	-0.491613	0.084733
N79	N	1.249274	-0.559504	-0.000131
H80	H	1.338173	-0.602044	-0.000120
H81	H	1.203498	-0.585466	0.084603
N82	N	1.015357	-0.394293	-0.000126
H83	H	0.965994	-0.365394	0.084611
H84	H	0.966103	-0.365361	-0.084915
N85	N	1.022568	-0.121963	-0.000100
H86	H	1.018907	-0.066991	0.084642
H87	H	1.018982	-0.067049	-0.084883
N88	N	1.788297	0.043088	0.368821
H89	H	1.783887	0.041614	0.265154
H90	H	1.799975	0.131349	0.400949
