data_functionalizedCrystal
_audit_creation_method	'MofGen! by Chris Wilmer'
_symmetry_space_group_name_H-M	'P1'
_symmetry_Int_Tables_number	1
_symmetry_cell_setting	triclinic
loop_
_symmetry_equiv_pos_as_xyz
  x,y,z
_cell_length_a	15.995350
_cell_length_b	15.995350
_cell_length_c	8.965430
_cell_angle_alpha	89.995459
_cell_angle_beta	89.999838
_cell_angle_gamma	96.507625
loop_
_atom_site_label
_atom_site_type_symbol
_atom_site_fract_x
_atom_site_fract_y
_atom_site_fract_z
O1	O	-1.110985	0.107920	0.123899
O2	O	-0.867210	0.121248	0.123928
O3	O	-0.995762	-0.007304	0.123919
O4	O	-0.982434	0.236472	0.123909
O5	O	-0.995751	-0.007295	-0.124160
O6	O	-0.867199	0.121256	-0.124151
O7	O	-1.110975	0.107929	-0.124180
Cu8	Cu	-0.989086	0.114593	-0.146817
Cu9	Cu	-0.989099	0.114583	0.146565
O10	O	-0.982423	0.236480	-0.124170
C11	C	-0.836010	0.120701	-0.000107
C12	C	-0.743060	0.119049	-0.000096
C13	C	-0.995205	-0.038494	-0.000116
C14	C	-0.993553	-0.131444	-0.000102
C15	C	-1.142175	0.108476	-0.000141
C16	C	-1.235125	0.110127	-0.000143
C17	C	-0.982980	0.267671	-0.000132
C18	C	-0.984631	0.360621	-0.000137
C19	C	-0.405312	0.113117	-0.000126
C20	C	-0.452746	0.021565	-0.000676
C21	C	-0.549436	0.023217	-0.000107
C22	C	-0.572873	0.116060	-0.000112
C23	C	-0.531792	0.161211	0.141545
C24	C	-0.435156	0.158911	0.141654
C25	C	-0.434805	0.160813	-0.140458
C26	C	-0.531750	0.160791	-0.142320
C27	C	-0.667570	0.117727	-0.000099
C28	C	-0.310614	0.111452	-0.000130
N29	N	-0.989083	0.114600	-0.353166
C30	C	-0.990564	0.698369	-0.000114
C31	C	-1.082116	0.650935	0.000429
C32	C	-1.080463	0.554244	-0.000138
C33	C	-0.987621	0.530808	-0.000124
C34	C	-0.942458	0.571896	-0.141779
C35	C	-0.944758	0.668532	-0.141890
C36	C	-0.942879	0.668869	0.140223
C37	C	-0.942901	0.571924	0.142087
C38	C	-0.985953	0.436111	-0.000135
C39	C	-0.992229	0.793066	-0.000113
C40	C	-0.929614	0.174031	-0.450467
C41	C	-1.005277	0.190278	-0.549891
C42	C	-0.913452	0.098360	-0.549870
C43	C	-1.064784	0.130885	-0.450401
C44	C	-0.972910	0.038933	-0.450370
C45	C	-1.048627	0.055148	-0.549749
N46	N	-0.989108	0.114570	0.352914
H47	H	-0.577861	-0.012275	-0.101653
H48	H	-0.977684	0.686840	-0.247789
H49	H	-0.875199	0.556557	0.150656
N50	N	-1.145060	0.148195	-0.395862
N51	N	-1.209738	0.100384	-0.428686
H52	H	-1.266432	0.112612	-0.390169
H53	H	-1.118708	0.669449	0.102028
N54	N	-0.428151	-0.024145	0.126040
N55	N	-0.352754	-0.035598	0.143441
H56	H	-0.335378	-0.067878	0.232936
H57	H	-0.973825	0.543530	-0.247209
H58	H	-1.098984	0.004873	-0.593068
N59	N	-1.125264	0.519278	-0.127766
N60	N	-1.131826	0.441699	-0.150368
H61	H	-1.163464	0.417003	-0.240515
N62	N	-0.833210	0.081144	-0.604715
N63	N	-0.791060	0.133485	-0.686301
H64	H	-0.734387	0.121333	-0.725038
N65	N	-0.429552	-0.024306	-0.128193
N66	N	-0.377787	0.009935	-0.220152
H67	H	-0.361421	-0.022452	-0.310242
N68	N	-0.584384	-0.021617	0.127512
N69	N	-0.537353	-0.054221	0.216443
H70	H	-0.562033	-0.085886	0.306582
H71	H	-0.875373	0.700617	0.141173
H72	H	-0.560171	0.129844	0.246973
N73	N	-1.125026	0.518575	0.127214
N74	N	-1.187958	0.465547	0.110212
H75	H	-1.219440	0.440360	0.200153
N76	N	-0.866571	0.237120	-0.395762
N77	N	-0.791081	0.234498	-0.429438
H78	H	-0.746558	0.279054	-0.390800
N79	N	-0.412201	0.117598	0.274505
N80	N	-0.467524	0.090659	0.366496
H81	H	-0.451317	0.061480	0.460325
H82	H	-0.877542	0.700780	-0.148320
N83	N	-1.127835	0.675508	-0.126289
N84	N	-1.193834	0.709330	-0.108355
H85	H	-1.226124	0.726685	-0.197850
H86	H	-0.874249	0.557771	-0.147036
H87	H	-1.018974	0.254255	-0.593604
N88	N	-0.980443	0.694628	0.274909
N89	N	-1.042821	0.735046	0.269098
H90	H	-1.069361	0.753236	0.364213
N91	N	-0.409048	0.123286	-0.275179
N92	N	-0.361811	0.165770	-0.364845
H93	H	-0.343621	0.139261	-0.459987
N94	N	-0.955709	-0.041305	-0.395501
N95	N	-0.942802	-0.098426	-0.484884
H96	H	-0.930646	-0.155096	-0.446132
H97	H	-0.545917	0.229420	0.146809
H98	H	-0.559062	0.127831	-0.247118
H99	H	-0.402908	0.226127	0.148079
N100	N	-0.984227	0.537480	0.273455
N101	N	-1.060236	0.545038	0.294728
H102	H	-1.089408	0.520632	0.387467
N103	N	-0.551030	0.245724	-0.153050
N104	N	-0.595587	0.274800	-0.055621
H105	H	-0.609204	0.334788	-0.063188
H106	H	-0.403043	0.228313	-0.141420
