data_functionalizedCrystal
_audit_creation_method	'MofGen! by Chris Wilmer'
_symmetry_space_group_name_H-M	'P1'
_symmetry_Int_Tables_number	1
_symmetry_cell_setting	triclinic
loop_
_symmetry_equiv_pos_as_xyz
  x,y,z
_cell_length_a	19.188930
_cell_length_b	8.559649
_cell_length_c	7.088929
_cell_angle_alpha	95.344185
_cell_angle_beta	83.831241
_cell_angle_gamma	76.461723
loop_
_atom_site_label
_atom_site_type_symbol
_atom_site_fract_x
_atom_site_fract_y
_atom_site_fract_z
O1	O	-0.907629	-0.216103	-0.159581
O2	O	-0.702920	-0.242953	-0.159448
O3	O	-0.823310	0.003199	-0.159524
O4	O	-0.787240	-0.462255	-0.159505
O5	O	-0.839403	0.036169	0.158441
O6	O	-0.719013	-0.209983	0.158517
O7	O	-0.923722	-0.183133	0.158384
Cu8	Cu	-0.822837	-0.193548	0.187483
Cu9	Cu	-0.803805	-0.232538	-0.188547
O10	O	-0.803333	-0.429285	0.158460
C11	C	-0.834090	0.079233	-0.000547
C12	C	-0.842226	0.256668	-0.000563
C13	C	-0.685002	-0.225596	-0.000449
C14	C	-0.607637	-0.222980	-0.000399
C15	C	-0.941640	-0.200490	-0.000620
C16	C	-1.019005	-0.203108	-0.000682
C17	C	-0.555159	-0.367421	-0.000422
C18	C	-0.482463	-0.364970	-0.000444
C19	C	-0.462245	-0.218073	-0.000479
C20	C	-0.514734	-0.073612	-0.000444
C21	C	-0.587430	-0.076065	-0.000404
N22	N	-0.354655	-0.117016	-0.108778
N23	N	-0.285596	-0.114695	-0.108820
C24	C	-0.243218	-0.210672	-0.000596
N25	N	-0.272505	-0.309083	0.107648
N26	N	-0.341570	-0.311409	0.107682
C27	C	-0.383421	-0.215396	-0.000522
C28	C	-0.111914	-0.352465	-0.000640
C29	C	-0.039217	-0.350006	-0.000650
C30	C	-0.071489	-0.058646	-0.000670
C31	C	-0.144185	-0.061107	-0.000641
C32	C	-0.164392	-0.208021	-0.000636
C33	C	-0.792553	-0.505319	-0.000521
C34	C	-0.784416	-0.682755	-0.000518
N35	N	-0.836228	-0.166122	0.451963
N36	N	-0.790421	-0.259951	-0.453027
H37	H	-0.571606	-0.487050	-0.000422
O38	O	-0.638505	0.064112	-0.000313
C39	C	-0.706999	0.030438	-0.000335
H40	H	-0.706099	-0.088849	0.059877
H41	H	-0.749593	0.132112	0.091979
H42	H	-0.720692	0.020824	-0.152873
H43	H	-0.883709	-0.068894	0.533589
H44	H	-0.897949	0.340561	-0.000584
H45	H	-0.728698	0.233363	-0.000475
O46	O	-0.431562	-0.505444	-0.000568
C47	C	-0.464989	-0.635632	-0.000504
H48	H	-0.518506	-0.600914	-0.060656
H49	H	-0.428043	-0.746365	-0.092849
H50	H	-0.475447	-0.664891	0.152039
H51	H	-0.055023	0.060948	-0.000817
H52	H	-0.128369	-0.472088	-0.000608
O53	O	-0.733843	-0.376158	0.449705
C54	C	-0.739251	-0.529245	0.498506
H55	H	-0.797911	-0.523863	0.553593
H56	H	-0.720339	-0.623080	0.366795
H57	H	-0.703877	-0.564584	0.614588
O58	O	-0.495045	0.069007	-0.000824
C59	C	-0.445640	0.062054	-0.165505
H60	H	-0.452587	-0.033285	-0.280586
H61	H	-0.456297	0.185192	-0.220788
H62	H	-0.388088	0.028634	-0.128309
O63	O	0.011675	-0.490480	-0.000753
C64	C	-0.021756	-0.620662	-0.000693
H65	H	-0.075268	-0.585943	-0.060870
H66	H	0.015191	-0.731403	-0.093018
H67	H	-0.032225	-0.649908	0.151852
H68	H	-0.186914	0.056512	-0.000632
