data_functionalizedCrystal
_audit_creation_method	'MofGen! by Chris Wilmer'
_symmetry_space_group_name_H-M	'P1'
_symmetry_Int_Tables_number	1
_symmetry_cell_setting	triclinic
loop_
_symmetry_equiv_pos_as_xyz
  x,y,z
_cell_length_a	10.540535
_cell_length_b	11.792241
_cell_length_c	10.868271
_cell_angle_alpha	90.005281
_cell_angle_beta	89.995021
_cell_angle_gamma	95.641471
loop_
_atom_site_label
_atom_site_type_symbol
_atom_site_fract_x
_atom_site_fract_y
_atom_site_fract_z
O1	O	1.685369	-0.159932	-0.102343
O2	O	2.018703	0.173401	0.230991
O3	O	2.352036	0.506734	0.564324
O4	O	1.315906	-0.175009	-0.102341
O5	O	1.649240	0.158325	0.230992
O6	O	1.982573	0.491658	0.564326
O7	O	1.509604	-0.002323	-0.102333
O8	O	1.842937	0.331010	0.231000
O9	O	2.176270	0.664344	0.564333
O10	O	1.491672	-0.332618	-0.102350
O11	O	1.825005	0.000716	0.230983
O12	O	2.158339	0.334049	0.564316
O13	O	1.509588	-0.002316	0.102311
O14	O	1.842921	0.331017	0.435645
O15	O	2.176254	0.664351	0.768978
O16	O	1.315890	-0.175002	0.102304
O17	O	1.649224	0.158332	0.435637
O18	O	1.982557	0.491665	0.768970
O19	O	1.685353	-0.159925	0.102302
O20	O	2.018687	0.173408	0.435635
O21	O	2.352020	0.506741	0.768969
Zn22	Zn	1.500619	-0.167462	0.134795
Zn23	Zn	1.833953	0.165871	0.468128
Zn24	Zn	2.167286	0.499204	0.801461
Zn25	Zn	1.500640	-0.167471	-0.134834
Zn26	Zn	1.833974	0.165862	0.198500
Zn27	Zn	2.167307	0.499195	0.531833
O28	O	1.491656	-0.332611	0.102294
O29	O	1.824989	0.000723	0.435628
O30	O	2.158323	0.334056	0.768961
C31	C	1.268599	-0.173876	-0.000018
C32	C	1.601932	0.159458	0.333315
C33	C	1.935266	0.492791	0.666648
C34	C	1.127662	-0.170496	-0.000017
C35	C	1.460995	0.162837	0.333316
C36	C	1.794328	0.496171	0.666649
C37	C	1.508469	0.039974	-0.000011
C38	C	1.841803	0.373308	0.333322
C39	C	2.175136	0.706641	0.666655
C40	C	1.505098	0.165997	-0.000012
C41	C	1.838431	0.499330	0.333321
C42	C	2.171765	0.832663	0.666654
C43	C	1.732661	-0.161058	-0.000023
C44	C	2.065994	0.172275	0.333310
C45	C	2.399327	0.505608	0.666643
C46	C	1.873598	-0.164438	-0.000032
C47	C	2.206931	0.168896	0.333301
C48	C	2.540265	0.502229	0.666634
C49	C	1.909858	-0.290519	-0.000036
C50	C	2.243191	0.042814	0.333297
C51	C	2.576525	0.376147	0.666631
C52	C	2.056447	-0.294075	0.000436
C53	C	2.389780	0.039258	0.333769
C54	C	2.723114	0.372591	0.667103
C55	C	2.083121	-0.106880	0.116614
C56	C	2.416454	0.226453	0.449947
C57	C	2.749787	0.559787	0.783281
C58	C	1.936364	-0.104197	0.116705
C59	C	2.269697	0.229136	0.450038
C60	C	2.603031	0.562469	0.783371
C61	C	1.936488	-0.102370	-0.116023
C62	C	2.269821	0.230963	0.217311
C63	C	2.603154	0.564297	0.550644
C64	C	2.082815	-0.108201	-0.117548
C65	C	2.416148	0.225132	0.215785
C66	C	2.749482	0.558465	0.549118
C67	C	1.492790	-0.374908	-0.000030
C68	C	1.826124	-0.041575	0.333303
C69	C	2.159457	0.291759	0.666636
C70	C	1.496162	-0.500931	-0.000037
C71	C	1.829495	-0.167597	0.333296
C72	C	2.162828	0.165736	0.666629
N73	N	1.500614	-0.167456	0.318809
N74	N	1.833947	0.165878	0.652142
N75	N	2.167281	0.499211	0.985475
C76	C	1.498899	0.396725	-0.000033
C77	C	1.832232	0.730058	0.333300
C78	C	2.165565	1.063392	0.666634
C79	C	1.502343	0.268331	-0.000022
C80	C	1.835676	0.601664	0.333312
C81	C	2.169010	0.934998	0.666645
N82	N	1.500656	-0.167469	-0.318848
N83	N	1.833989	0.165864	0.014486
N84	N	2.167322	0.499197	0.347819
C85	C	1.500634	-0.167469	0.569815
C86	C	1.833967	0.165864	0.903148
C87	C	2.167300	0.499198	1.236481
C88	C	1.500619	-0.167465	0.430137
C89	C	1.833952	0.165868	0.763471
C90	C	2.167285	0.499202	1.096804
H91	H	2.085624	-0.343820	-0.083158
H92	H	2.418957	-0.010487	0.250175
H93	H	2.752291	0.322846	0.583509
H94	H	2.084737	-0.343583	0.084525
H95	H	2.418070	-0.010250	0.417858
H96	H	2.751404	0.323083	0.751191
H97	H	2.111273	-0.154493	-0.203834
H98	H	2.444607	0.178840	0.129499
H99	H	2.777940	0.512173	0.462833
H100	H	2.113879	-0.150521	0.203738
H101	H	2.447213	0.182812	0.537072
H102	H	2.780546	0.516146	0.870405
H103	H	1.914598	-0.009607	-0.117149
H104	H	2.247931	0.323726	0.216184
H105	H	2.581265	0.657059	0.549518
H106	H	1.867738	-0.338936	-0.083664
H107	H	2.201071	-0.005603	0.249669
H108	H	2.534405	0.327730	0.583002
H109	H	1.893796	-0.141629	-0.204451
H110	H	2.227129	0.191704	0.128882
H111	H	2.560462	0.525038	0.462215
H112	H	1.866241	-0.338124	0.083472
H113	H	2.199574	-0.004790	0.416805
H114	H	2.532908	0.328543	0.750139
H115	H	2.130773	-0.015891	0.120626
H116	H	2.464106	0.317443	0.453959
H117	H	2.797440	0.650776	0.787293
H118	H	1.896052	-0.147153	0.204218
H119	H	2.229386	0.186180	0.537552
H120	H	2.562719	0.519513	0.870885
H121	H	1.913634	-0.011769	0.121678
H122	H	2.246968	0.321565	0.455011
H123	H	2.580301	0.654898	0.788345
H124	H	2.132139	-0.018003	-0.124937
H125	H	2.465473	0.315331	0.208396
H126	H	2.798806	0.648664	0.541729
