data_functionalizedCrystal
_audit_creation_method	'MofGen! by Chris Wilmer'
_symmetry_space_group_name_H-M	'P1'
_symmetry_Int_Tables_number	1
_symmetry_cell_setting	triclinic
loop_
_symmetry_equiv_pos_as_xyz
  x,y,z
_cell_length_a	18.366186
_cell_length_b	19.288862
_cell_length_c	19.288857
_cell_angle_alpha	96.865805
_cell_angle_beta	89.991598
_cell_angle_gamma	90.025700
loop_
_atom_site_label
_atom_site_type_symbol
_atom_site_fract_x
_atom_site_fract_y
_atom_site_fract_z
O1	O	-0.060834	-0.921351	0.086641
O2	O	-0.060774	-0.719090	0.098332
O3	O	-0.060797	-0.826068	-0.008644
O4	O	-0.060811	-0.814374	0.193617
O5	O	0.060302	-0.826050	-0.008650
O6	O	0.060325	-0.719072	0.098326
O7	O	0.060265	-0.921333	0.086636
Zn8	Zn	0.079522	-0.820200	0.092480
Zn9	Zn	-0.080031	-0.820224	0.092487
O10	O	0.060288	-0.814356	0.193612
C11	C	-0.000217	-0.693205	0.097953
C12	C	-0.000194	-0.616101	0.096825
N13	N	0.188414	-0.820189	0.092475
N14	N	-0.188922	-0.820240	0.092487
C15	C	-0.000247	-0.825684	-0.034523
C16	C	-0.000244	-0.824557	-0.111627
C17	C	0.226504	-0.867574	0.045129
C18	C	0.302732	-0.867578	0.045126
C19	C	0.340866	-0.820204	0.092481
C20	C	0.302767	-0.772810	0.139830
C21	C	0.226541	-0.772802	0.139827
C22	C	0.461624	-0.810904	0.155769
C23	C	0.537849	-0.810917	0.155773
C24	C	0.575974	-0.820224	0.092490
C25	C	0.537864	-0.829533	0.029200
C26	C	0.461638	-0.829525	0.029197
C27	C	0.423521	-0.820207	0.092489
C28	C	0.696719	-0.867616	0.045137
C29	C	0.772948	-0.867616	0.045133
C30	C	0.772982	-0.772851	0.139843
C31	C	0.696754	-0.772848	0.139841
C32	C	0.658627	-0.820234	0.092488
C33	C	-0.000207	-0.571403	0.159593
C34	C	-0.000212	-0.498956	0.158533
C35	C	-0.000217	-0.471210	0.094701
C36	C	-0.000199	-0.515918	0.031924
C37	C	-0.000187	-0.588363	0.032986
C38	C	-0.042659	-0.362956	0.044524
C39	C	-0.042675	-0.290511	0.043465
C40	C	-0.000249	-0.247764	0.091423
C41	C	0.042183	-0.277469	0.140452
C42	C	0.042195	-0.349915	0.141514
C43	C	-0.000229	-0.392656	0.093543
C44	C	-0.000266	-0.124510	0.153047
C45	C	-0.000266	-0.052062	0.151984
C46	C	-0.000261	-0.069026	0.025373
C47	C	-0.000254	-0.141472	0.026438
C48	C	-0.000260	-0.169210	0.090276
C49	C	-0.000281	0.052781	0.087017
C50	C	-0.000270	-0.024321	0.088151
C51	C	-0.066255	-0.824041	-0.147835
C52	C	-0.066260	-0.822972	-0.220281
C53	C	-0.000251	-0.822433	-0.256518
C54	C	0.065769	-0.822945	-0.220301
C55	C	0.065773	-0.824007	-0.147856
C56	C	0.050305	-0.861427	-0.376752
C57	C	0.050299	-0.860370	-0.449197
C58	C	-0.000258	-0.819156	-0.479964
C59	C	-0.050821	-0.779008	-0.438279
C60	C	-0.050818	-0.780069	-0.365833
C61	C	-0.000247	-0.821282	-0.335073
C62	C	-0.066279	-0.817480	-0.594726
C63	C	-0.066282	-0.816407	-0.667173
C64	C	0.065750	-0.816387	-0.667193
C65	C	0.065751	-0.817453	-0.594746
C66	C	-0.000266	-0.818003	-0.558518
C67	C	-0.000264	-0.814740	0.219491
C68	C	-0.000271	-0.815867	0.296595
H69	H	0.333751	-0.906166	0.006570
H70	H	0.333820	-0.734236	0.178386
C71	C	0.814848	-0.919744	-0.006949
H72	H	0.781221	-0.947966	-0.035144
H73	H	0.844604	-0.894860	-0.035804
H74	H	0.844562	-0.948577	0.017974
C75	C	0.419690	-0.800661	0.225383
H76	H	0.368835	-0.801982	0.216318
H77	H	0.432154	-0.836897	0.252511
H78	H	0.432205	-0.756772	0.250261
C79	C	-0.138893	-0.818076	-0.554871
H80	H	-0.178209	-0.817605	-0.586812
H81	H	-0.141649	-0.858988	-0.532036
H82	H	-0.141622	-0.777990	-0.521182
H83	H	0.076730	-0.242666	0.179504
H84	H	0.195527	-0.734215	0.178383
H85	H	-0.000214	-0.593982	0.211576
H86	H	0.119497	-0.815943	-0.696696
C87	C	-0.000264	-0.155029	0.223263
H88	H	-0.000266	-0.204577	0.214906
H89	H	0.041963	-0.139650	0.249097
H90	H	-0.042502	-0.139693	0.249100
H91	H	-0.000177	-0.624757	-0.018129
H92	H	-0.000221	-0.462556	0.209648
C93	C	0.088872	-0.382590	0.195435
H94	H	0.114144	-0.346761	0.223844
H95	H	0.058291	-0.407113	0.223896
H96	H	0.122994	-0.414047	0.171825
C97	C	0.419718	-0.839754	-0.040414
H98	H	0.453334	-0.845394	-0.078104
H99	H	0.389876	-0.880140	-0.041882
H100	H	0.390089	-0.800026	-0.044205
H101	H	0.119515	-0.822505	-0.249810
H102	H	-0.000273	-0.015669	0.203100
C103	C	0.654776	-0.919731	-0.006955
H104	H	0.688382	-0.947946	-0.035161
H105	H	0.625019	-0.948562	0.017956
H106	H	0.625061	-0.894830	-0.035807
C107	C	0.654849	-0.720738	0.191933
H108	H	0.603991	-0.727517	0.185148
H109	H	0.667332	-0.728139	0.238269
H110	H	0.667366	-0.674404	0.184510
H111	H	-0.120011	-0.824486	-0.118342
C112	C	0.138362	-0.818026	-0.554913
H113	H	0.128910	-0.818729	-0.506577
H114	H	0.165477	-0.858342	-0.572214
H115	H	0.165493	-0.777344	-0.561366
C116	C	0.105932	-0.904508	-0.495045
H117	H	0.098690	-0.897974	-0.542597
H118	H	0.153850	-0.890348	-0.481252
H119	H	0.099574	-0.952432	-0.489576
H120	H	-0.000213	-0.493323	-0.020048
H121	H	-0.000310	-0.046436	-0.026600
C122	C	-0.000250	-0.190642	-0.042608
H123	H	-0.000260	-0.163744	-0.080777
H124	H	0.041983	-0.219234	-0.044830
H125	H	-0.042482	-0.219277	-0.044821
C126	C	-0.089350	-0.257838	-0.010458
H127	H	-0.083290	-0.208569	-0.004216
H128	H	-0.074429	-0.275855	-0.056241
H129	H	-0.139136	-0.268924	-0.004174
H130	H	-0.120038	-0.815983	-0.696652
H131	H	0.091481	-0.894988	-0.351708
H132	H	-0.077211	-0.397755	0.005470
H133	H	0.119529	-0.824424	-0.118376
C134	C	0.579766	-0.800678	0.225385
H135	H	0.630623	-0.802024	0.216325
H136	H	0.567295	-0.756790	0.250262
H137	H	0.567245	-0.836915	0.252513
H138	H	0.568904	-0.837112	-0.022331
C139	C	0.184568	-0.919689	-0.006963
H140	H	0.218176	-0.947907	-0.035166
H141	H	0.154807	-0.948518	0.017945
H142	H	0.154857	-0.894788	-0.035819
C143	C	-0.138875	-0.822432	-0.260122
H144	H	-0.178191	-0.822922	-0.228171
H145	H	-0.141629	-0.781531	-0.282970
H146	H	-0.141609	-0.862529	-0.293798
C147	C	-0.106428	-0.735909	-0.319979
H148	H	-0.099186	-0.742450	-0.272428
H149	H	-0.100052	-0.687992	-0.325454
H150	H	-0.154358	-0.750051	-0.333758
H151	H	0.804031	-0.734275	0.178397
C152	C	-0.106436	-0.733668	-0.472112
H153	H	-0.099193	-0.738777	-0.521227
H154	H	-0.154363	-0.748153	-0.462150
H155	H	-0.100051	-0.686098	-0.453840
