data_functionalizedCrystal
_audit_creation_method	'MofGen! by Chris Wilmer'
_symmetry_space_group_name_H-M	'P1'
_symmetry_Int_Tables_number	1
_symmetry_cell_setting	triclinic
loop_
_symmetry_equiv_pos_as_xyz
  x,y,z
_cell_length_a	16.109301
_cell_length_b	10.489741
_cell_length_c	14.586319
_cell_angle_alpha	89.996488
_cell_angle_beta	89.999213
_cell_angle_gamma	84.000327
loop_
_atom_site_label
_atom_site_type_symbol
_atom_site_fract_x
_atom_site_fract_y
_atom_site_fract_z
O1	O	1.104141	0.163947	-0.076182
O2	O	0.862205	0.184350	-0.076196
O3	O	0.988678	-0.011529	-0.076183
O4	O	0.977668	0.359826	-0.076195
O5	O	0.988670	-0.011532	0.076298
O6	O	0.862196	0.184347	0.076284
O7	O	1.104132	0.163944	0.076299
Cu8	Cu	0.983164	0.174145	0.090214
Cu9	Cu	0.983174	0.174149	-0.090112
O10	O	0.977659	0.359823	0.076286
C11	C	0.831221	0.183522	0.000042
C12	C	0.738910	0.181044	0.000037
C13	C	0.517319	0.291514	0.000044
C14	C	0.430584	0.289175	0.000050
C15	C	0.449026	0.056771	0.000053
C16	C	0.535759	0.059111	0.000054
C17	C	0.569903	0.176486	0.000045
C18	C	0.396435	0.171808	0.000050
C19	C	0.302393	0.169272	0.000056
C20	C	0.663950	0.179022	0.000040
C21	C	0.987842	-0.059050	0.000057
C22	C	0.985354	-0.200644	0.000055
C23	C	0.904883	-0.267616	0.000043
C24	C	0.942893	-0.360292	0.075226
C25	C	0.942920	-0.360264	-0.075108
C26	C	1.023397	-0.291454	0.075300
C27	C	1.023414	-0.291417	-0.075102
C28	C	1.061482	-0.384066	0.000100
C29	C	1.135117	0.164772	0.000058
C30	C	1.227427	0.167250	0.000058
C31	C	0.978495	0.407344	0.000044
C32	C	0.980983	0.548938	0.000040
N33	N	0.983162	0.174142	0.217046
N34	N	0.983182	0.174142	-0.216944
C35	C	1.039183	0.087436	0.452058
C36	C	1.039186	0.087433	0.548040
C37	C	0.927155	0.260852	0.548038
C38	C	0.927149	0.260848	0.452058
C39	C	0.983168	0.174141	0.404071
C40	C	0.983176	0.174142	0.596032
C41	C	0.983178	0.174140	0.700099
C42	C	0.983165	0.174142	0.299997
H43	H	0.545116	0.387088	0.000043
C44	C	0.411905	-0.070620	-0.000136
C45	C	0.362670	-0.078757	-0.078598
C46	C	0.328472	-0.196101	-0.078812
H47	H	0.378393	-0.076495	0.052974
H48	H	0.455622	-0.138831	-0.000183
H49	H	0.318959	-0.010565	-0.078542
H50	H	0.396163	-0.072906	-0.131720
H51	H	0.372190	-0.264312	-0.078860
H52	H	0.294964	-0.201965	-0.025700
H53	H	0.295069	-0.201642	-0.132052
H54	H	1.084796	0.016832	0.412990
H55	H	1.084798	0.016828	0.587108
C56	C	0.373451	0.414024	0.000232
C57	C	0.323134	0.419489	0.078692
C58	C	0.270500	0.534492	0.078897
H59	H	0.339155	0.418063	-0.052879
H60	H	0.406181	0.484296	0.000275
H61	H	0.290407	0.349237	0.078640
H62	H	0.357407	0.415472	0.131815
H63	H	0.303230	0.604764	0.078940
H64	H	0.236210	0.538522	0.025783
H65	H	0.236359	0.538221	0.132135
C66	C	0.897523	-0.400663	-0.159942
C67	C	0.870940	-0.292147	-0.212299
C68	C	0.829123	-0.329308	-0.290456
H69	H	0.850499	-0.442300	-0.141995
H70	H	0.934223	-0.457833	-0.195403
H71	H	0.834243	-0.234999	-0.176845
H72	H	0.917948	-0.250497	-0.230270
H73	H	0.865822	-0.386478	-0.325917
H74	H	0.782102	-0.370946	-0.272500
H75	H	0.811088	-0.255688	-0.325994
H76	H	1.057438	-0.260864	-0.138663
C77	C	0.866436	0.354940	0.600306
C78	C	0.878445	0.336414	0.694632
C79	C	0.822534	0.423080	0.742808
H80	H	0.810829	0.341150	0.584695
H81	H	0.875982	0.440096	0.584620
H82	H	0.868893	0.251278	0.710312
H83	H	0.934040	0.350213	0.710270
H84	H	0.832080	0.508236	0.727122
H85	H	0.766931	0.409283	0.727190
H86	H	0.830680	0.410530	0.806813
C87	C	0.866293	0.355136	0.400116
C88	C	0.817254	0.431101	0.462681
C89	C	0.761193	0.517975	0.414866
H90	H	0.831332	0.309382	0.362678
H91	H	0.896494	0.408312	0.362686
H92	H	0.787054	0.377932	0.500095
H93	H	0.852192	0.476883	0.500121
H94	H	0.791395	0.571151	0.377436
H95	H	0.726238	0.472210	0.377429
H96	H	0.727919	0.569535	0.457309
H97	H	0.908840	-0.390811	0.138784
C98	C	1.068690	-0.250753	0.160118
C99	C	1.070445	-0.117592	0.159167
C100	C	1.112148	-0.080048	0.237291
H101	H	1.124182	-0.291545	0.160419
H102	H	1.040282	-0.274804	0.213463
H103	H	1.098854	-0.093554	0.105836
H104	H	1.014964	-0.076769	0.158879
H105	H	1.083740	-0.104099	0.290636
H106	H	1.167637	-0.120848	0.237586
H107	H	1.113337	0.010306	0.236661
C108	C	0.592718	-0.065923	0.000007
C109	C	0.544255	-0.169215	-0.000017
C110	C	0.596696	-0.284408	-0.000069
H111	H	0.626952	-0.070023	0.053167
H112	H	0.626925	-0.069904	-0.053187
H113	H	0.510062	-0.165236	0.053172
H114	H	0.510022	-0.165158	-0.053173
H115	H	0.630903	-0.288390	-0.053263
H116	H	0.630928	-0.288495	0.053092
H117	H	0.563822	-0.354506	-0.000094
C118	C	1.149835	-0.451050	0.000015
C119	C	1.192085	-0.414482	-0.078015
C120	C	1.273484	-0.476133	-0.078113
H121	H	1.147917	-0.541246	-0.000539
H122	H	1.178315	-0.427458	0.053433
H123	H	1.163613	-0.438083	-0.131419
H124	H	1.194026	-0.324296	-0.077477
H125	H	1.301964	-0.452540	-0.024695
H126	H	1.271558	-0.566326	-0.078664
H127	H	1.302164	-0.451321	-0.131050
H128	H	0.838720	-0.217005	0.000115
