data_functionalizedCrystal
_audit_creation_method	'MofGen! by Chris Wilmer'
_symmetry_space_group_name_H-M	'P1'
_symmetry_Int_Tables_number	1
_symmetry_cell_setting	triclinic
loop_
_symmetry_equiv_pos_as_xyz
  x,y,z
_cell_length_a	20.919309
_cell_length_b	14.628931
_cell_length_c	14.628931
_cell_angle_alpha	120.000164
_cell_angle_beta	90.001129
_cell_angle_gamma	57.441313
loop_
_atom_site_label
_atom_site_type_symbol
_atom_site_fract_x
_atom_site_fract_y
_atom_site_fract_z
Zr1	Zr	0.641765	0.929155	0.084267
O2	O	0.535395	1.131699	0.236144
O3	O	0.674374	0.734820	0.037708
O4	O	0.674374	0.925526	0.228414
O5	O	0.535394	0.940993	-0.104994
O6	O	0.784004	0.913325	0.222316
O7	O	0.535394	0.940993	0.045438
O8	O	0.784003	0.572187	-0.118822
O9	O	0.535395	1.282131	0.236144
O10	O	0.770096	0.802607	0.013301
O11	O	0.688281	0.811712	-0.094414
O12	O	0.688281	1.036244	0.130117
O13	O	0.606466	1.045349	0.022402
Zr14	Zr	0.816612	0.909696	-0.165380
Zr15	Zr	0.816612	0.909696	0.074541
Zr16	Zr	0.641765	0.929155	-0.155655
Zr17	Zr	0.641766	1.169076	0.084267
Zr18	Zr	0.816611	0.669774	-0.165380
O19	O	0.784003	1.104030	-0.118821
O20	O	0.784004	1.104030	0.222316
O21	O	0.535394	1.131699	-0.104993
O22	O	0.922982	0.707152	-0.317258
O23	O	0.922983	0.707152	0.023880
O24	O	0.674373	0.734820	-0.303430
O25	O	0.922983	0.897857	0.023880
O26	O	0.784003	0.913325	-0.309527
O27	O	0.674373	0.925526	-0.303429
O28	O	0.922983	0.897858	-0.126552
O29	O	0.674374	1.266663	0.228414
O30	O	0.784003	0.572187	-0.309528
O31	O	0.922982	0.556720	-0.317258
O32	O	0.922983	0.556720	-0.126552
O33	O	0.535394	1.282131	0.045439
O34	O	0.674374	1.266663	0.037708
O35	O	0.770096	0.802607	-0.211231
O36	O	0.851911	0.793502	-0.103516
O37	O	0.770096	1.027138	0.013301
O38	O	0.688281	1.036244	-0.094414
C39	C	0.729188	0.619320	-0.040557
C40	C	0.729188	0.517467	-0.040557
C41	C	0.769774	0.467541	0.012876
C42	C	0.769775	0.362271	0.012878
C43	C	0.510482	0.943766	-0.028392
C44	C	0.436255	0.952027	-0.024264
C45	C	0.444087	0.833955	-0.083295
C46	C	0.374341	0.841725	-0.079413
C47	C	0.296762	0.967568	-0.016493
C48	C	0.288931	1.085649	0.042541
C49	C	0.358677	1.077877	0.038652
C50	C	0.084037	0.997133	-0.001706
C51	C	0.014289	1.004896	0.002182
C52	C	0.099704	0.760971	-0.119775
C53	C	0.169447	0.753211	-0.123653
C54	C	0.161611	0.871291	-0.064624
C55	C	0.225468	0.975513	-0.012520
C56	C	0.232904	0.863345	-0.068604
C57	C	0.947895	0.895085	-0.052722
C58	C	1.022122	0.886824	-0.056850
C59	C	0.729189	0.919425	0.259548
C60	C	0.729189	0.919425	0.361401
C61	C	0.729189	1.219531	-0.040556
C62	C	0.729189	1.321384	-0.040556
C63	C	0.786585	0.913038	0.508883
C64	C	0.786586	0.913037	0.403613
C65	C	0.729188	0.919425	0.659338
C66	C	0.729188	0.919425	0.557485
C67	C	0.947895	0.594980	-0.052722
C68	C	1.022121	0.484866	-0.056851
C69	C	0.729188	0.619320	-0.340662
C70	C	0.729187	0.517467	-0.442516
C71	C	0.947894	0.594980	-0.352827
C72	C	1.022121	0.484866	-0.458809
C73	C	0.510483	1.243871	0.271714
C74	C	0.436256	1.353985	0.377695
C75	C	0.510482	1.243871	-0.028392
C76	C	0.436256	1.353985	-0.024263
C77	C	0.729189	1.219531	0.259549
C78	C	0.729190	1.321383	0.361402
C79	C	1.014273	0.437908	0.002197
C80	C	1.084010	0.334459	-0.001659
C81	C	1.161595	0.277962	-0.064571
C82	C	1.169443	0.324929	-0.123621
C83	C	1.099706	0.428384	-0.119757
C84	C	1.099693	0.428402	-0.452353
C85	C	1.169443	0.324951	-0.551926
C86	C	1.161620	0.277959	-0.657952
C87	C	1.084040	0.334434	-0.664405
C88	C	1.014291	0.437890	-0.564834
C89	C	0.358684	1.410461	0.371240
C90	C	0.288934	1.513942	0.470812
C91	C	0.296757	1.560938	0.576839
C92	C	0.374337	1.504457	0.583291
C93	C	0.444086	1.400985	0.483720
C94	C	0.444104	1.400952	-0.083301
C95	C	0.374367	1.504429	-0.079418
C96	C	0.296782	1.560929	-0.016503
C97	C	0.288934	1.513957	0.042542
C98	C	0.358671	1.410489	0.038665
C99	C	0.769773	0.467541	-0.545874
C100	C	0.769774	0.362271	-0.651145
H101	H	0.694436	0.364302	-0.086300
H102	H	0.352295	1.174024	0.086708
H103	H	0.680049	0.924887	0.403175
O104	O	1.229462	0.177406	-0.754560
C105	C	1.299603	0.137676	-0.726112
H106	H	1.283580	0.165842	-0.636882
H107	H	1.323085	0.191026	-0.729151
C108	C	1.385828	-0.050432	-0.921061
C109	C	1.366149	-0.015848	-0.811470
H110	H	1.426879	-0.145131	-0.973716
H111	H	1.338574	-0.023663	-0.940229
H112	H	1.405391	-0.005963	-0.923577
H113	H	1.346577	-0.060304	-0.808952
H114	H	1.413402	-0.042628	-0.792304
H115	H	0.680046	0.924902	0.521165
H116	H	0.804522	0.319351	-0.739809
H117	H	0.380773	1.542655	-0.127505
H118	H	0.951131	0.483851	-0.570106
O119	O	0.519527	1.345897	-0.144401
C120	C	0.579407	1.244522	-0.135153
H121	H	0.552233	1.205678	-0.112074
H122	H	0.601220	1.287875	-0.066197
C123	C	0.685436	1.175403	-0.277718
C124	C	0.652062	1.127686	-0.249382
H125	H	0.730255	1.103335	-0.348177
H126	H	0.645094	1.243704	-0.283946
H127	H	0.703606	1.211530	-0.220246
H128	H	0.633883	1.091576	-0.306846
H129	H	0.692403	1.059376	-0.243166
H130	H	0.694444	0.482273	-0.086306
O131	O	0.687663	0.475542	-0.430042
C132	C	0.627744	0.505636	-0.478586
H133	H	0.645712	0.515628	-0.544731
H134	H	0.566467	0.604438	-0.409393
C135	C	0.598727	0.379275	-0.454490
C136	C	0.620799	0.391536	-0.535738
H137	H	0.594439	0.308897	-0.489740
H138	H	0.639092	0.359004	-0.421781
H139	H	0.547664	0.461617	-0.396835
H140	H	0.671865	0.309201	-0.593383
H141	H	0.580442	0.411791	-0.568458
H142	H	0.507252	0.731480	-0.134537
O143	O	0.845276	0.906273	0.552135
C144	C	0.889396	0.790023	0.549391
H145	H	0.883508	0.712849	0.481899
H146	H	0.863922	0.818036	0.635896
C147	C	0.987185	0.824232	0.603607
C148	C	0.979959	0.729441	0.520705
H149	H	1.043048	0.786865	0.585918
H150	H	0.957459	0.902556	0.605460
H151	H	0.965952	0.847568	0.675687
H152	H	1.001182	0.706119	0.448631
H153	H	1.009690	0.651112	0.518840
H154	H	0.225755	1.559975	0.093767
O155	O	0.350895	1.364977	0.096033
C156	C	0.267460	1.437061	0.152408
H157	H	0.230279	1.480643	0.108509
H158	H	0.246910	1.522461	0.244513
C159	C	0.299971	1.288040	0.202790
C160	C	0.254306	1.341559	0.148866
H161	H	0.291857	1.229133	0.200611
H162	H	0.356183	1.239477	0.164813
H163	H	0.282842	1.359218	0.279539
H164	H	0.271443	1.270382	0.072115
H165	H	0.198096	1.390107	0.186830
H166	H	1.218373	0.193722	-0.067709
O167	O	0.687838	0.372355	-0.532864
C168	C	0.719210	0.266794	-0.522271
H169	H	0.784290	0.178145	-0.586527
H170	H	0.679569	0.233526	-0.538959
C171	C	0.639187	0.425054	-0.322434
C172	C	0.719121	0.316178	-0.401349
H173	H	0.639128	0.455516	-0.247843
H174	H	0.618047	0.496173	-0.329571
H175	H	0.606161	0.397315	-0.336355
H176	H	0.752142	0.343922	-0.387436
H177	H	0.740265	0.245064	-0.394207
H178	H	0.835729	0.907561	0.361826
H179	H	0.804519	0.319359	0.058630
H180	H	0.804525	0.502725	0.058618
O181	O	0.382095	0.726898	-0.136775
C182	C	0.465523	0.614161	-0.193158
H183	H	0.502719	0.644383	-0.149268
H184	H	0.486074	0.575822	-0.285264
C185	C	0.432964	0.464858	-0.243522
C186	C	0.478648	0.501974	-0.189610
H187	H	0.441061	0.395653	-0.241339
H188	H	0.376756	0.540810	-0.205540
H189	H	0.450095	0.432917	-0.320272
H190	H	0.461510	0.533930	-0.112858
H191	H	0.534853	0.426025	-0.227579
O192	O	0.244744	0.630857	-0.184868
C193	C	0.236702	0.528307	-0.236115
H194	H	0.174467	0.569593	-0.244259
H195	H	0.242412	0.491642	-0.181505
C196	C	0.380710	0.359333	-0.344859
C197	C	0.304275	0.410039	-0.354870
H198	H	0.422394	0.286377	-0.418111
H199	H	0.386130	0.428422	-0.310331
H200	H	0.385457	0.328790	-0.299346
H201	H	0.299525	0.440597	-0.400370
H202	H	0.298856	0.340952	-0.389409
H203	H	-0.048880	1.107378	0.053424
O204	O	0.107168	0.646407	-0.177094
C205	C	0.028976	0.680243	-0.160151
H206	H	-0.017254	0.786119	-0.135994
H207	H	0.011212	0.676661	-0.089001
C208	C	0.086788	0.448979	-0.300056
C209	C	0.030009	0.579015	-0.270396
H210	H	0.087425	0.386535	-0.368058
H211	H	0.139468	0.426182	-0.311469
H212	H	0.071978	0.446014	-0.240756
H213	H	0.044825	0.581982	-0.329689
H214	H	-0.022669	0.601810	-0.258996
O215	O	0.228959	1.661491	-0.012577
C216	C	0.158791	1.701278	0.055591
H217	H	0.174783	1.673132	0.116673
H218	H	0.135299	1.647951	-0.000803
C219	C	0.072631	1.889365	0.048699
C220	C	0.092272	1.854806	0.123728
H221	H	0.031597	1.984067	0.090726
H222	H	0.119904	1.862558	0.002770
H223	H	0.053060	1.844915	0.001709
H224	H	0.111852	1.899242	0.170706
H225	H	0.045000	1.881624	0.169667
O226	O	0.938972	0.492670	0.063410
C227	C	0.947016	0.429003	0.114672
H228	H	1.009252	0.382647	0.122812
H229	H	0.941302	0.346518	0.060076
C230	C	0.803009	0.590435	0.223426
C231	C	0.879446	0.533509	0.233432
H232	H	0.761327	0.654896	0.296680
H233	H	0.797589	0.633326	0.188887
H234	H	0.798259	0.521686	0.177925
H235	H	0.884199	0.602255	0.278920
H236	H	0.884866	0.490632	0.267982
H237	H	0.077646	1.093283	0.046380
O238	O	1.076522	0.288717	0.055666
C239	C	1.154703	0.185269	0.038755
H240	H	1.200940	0.195835	0.014625
H241	H	1.172477	0.083192	-0.032401
C242	C	1.096848	0.182908	0.178637
C243	C	1.153637	0.195892	0.149009
H244	H	1.096191	0.189455	0.246644
H245	H	1.044175	0.252599	0.190027
H246	H	1.111666	0.097843	0.119331
H247	H	1.138812	0.280962	0.208308
H248	H	1.206307	0.126216	0.137631
O249	O	0.381784	1.550227	0.686381
C250	C	0.303582	1.653680	0.772868
H251	H	0.257363	1.643101	0.738118
H252	H	0.285816	1.755755	0.803793
C253	C	0.361357	1.656086	0.915190
C254	C	0.304591	1.643085	0.872511
H255	H	0.361979	1.649556	0.976657
H256	H	0.414044	1.586391	0.856923
H257	H	0.346545	1.741148	0.940952
H258	H	0.319409	1.558018	0.846737
H259	H	0.251907	1.712766	0.930776
H260	H	0.804516	0.502737	-0.556426
O261	O	1.244873	0.269847	-0.184722
C262	C	1.304731	0.168487	-0.175442
H263	H	1.277533	0.129691	-0.152333
H264	H	1.326550	0.211838	-0.106496
C265	C	1.410792	0.099262	-0.318041
C266	C	1.377387	0.051605	-0.289667
H267	H	1.455611	0.027166	-0.388498
H268	H	1.370465	0.167553	-0.324291
H269	H	1.428967	0.135388	-0.260577
H270	H	1.359203	0.015496	-0.347123
H271	H	1.417713	-0.016696	-0.283430
H272	H	0.162296	1.077975	0.038709
H273	H	0.225760	1.188113	0.093766
H274	H	0.296071	0.760884	-0.119838
H275	H	1.106108	0.466603	-0.167848
H276	H	1.106078	0.466646	-0.366030
H277	H	1.232606	0.278979	-0.546651
H278	H	0.225772	1.559912	0.465536
H279	H	1.077683	0.296158	-0.750745
H280	H	0.352299	1.372203	0.284917
H281	H	0.239956	1.645192	0.657907
H282	H	0.507246	1.355002	0.488990
