data_functionalizedCrystal
_audit_creation_method	'MofGen! by Chris Wilmer'
_symmetry_space_group_name_H-M	'P1'
_symmetry_Int_Tables_number	1
_symmetry_cell_setting	triclinic
loop_
_symmetry_equiv_pos_as_xyz
  x,y,z
_cell_length_a	27.440280
_cell_length_b	27.440280
_cell_length_c	27.440280
_cell_angle_alpha	59.999099
_cell_angle_beta	90.008670
_cell_angle_gamma	59.992170
loop_
_atom_site_label
_atom_site_type_symbol
_atom_site_fract_x
_atom_site_fract_y
_atom_site_fract_z
Zr1	Zr	-0.063983	0.533431	0.469473
O2	O	-0.141827	0.635127	0.391639
O3	O	-0.040108	0.431747	0.493335
O4	O	-0.141798	0.533436	0.493318
O5	O	0.040065	0.533430	0.391668
O6	O	-0.141788	0.533427	0.573521
O7	O	-0.040137	0.533438	0.391657
O8	O	0.040117	0.351524	0.573552
O9	O	-0.141840	0.715333	0.391636
O10	O	-0.029932	0.473560	0.563364
O11	O	0.029914	0.473561	0.503517
O12	O	-0.089813	0.593287	0.503497
O13	O	-0.029966	0.593288	0.443650
Zr14	Zr	0.063946	0.533403	0.597404
Zr15	Zr	-0.063967	0.533416	0.597387
Zr16	Zr	0.063930	0.533418	0.469490
Zr17	Zr	-0.064003	0.661351	0.469468
Zr18	Zr	0.063967	0.405484	0.597409
O19	O	0.040072	0.635087	0.573541
O20	O	-0.141804	0.635106	0.573517
O21	O	0.040049	0.635109	0.391664
O22	O	0.141791	0.431708	0.675237
O23	O	-0.040085	0.431726	0.675213
O24	O	0.141768	0.431729	0.493360
O25	O	-0.040102	0.533405	0.675209
O26	O	0.141762	0.533398	0.573559
O27	O	0.141752	0.533408	0.493356
O28	O	0.040100	0.533397	0.675220
O29	O	-0.141827	0.715321	0.493311
O30	O	0.141791	0.351514	0.573566
O31	O	0.141803	0.351502	0.675240
O32	O	0.040130	0.351512	0.675227
O33	O	-0.040166	0.715323	0.391650
O34	O	-0.040153	0.715311	0.493325
O35	O	0.089776	0.473548	0.563380
O36	O	0.029929	0.473547	0.623226
O37	O	-0.029951	0.593274	0.563359
O38	O	0.029895	0.593275	0.503513
C39	C	0.000007	0.373410	0.533444
C40	C	0.000016	0.319105	0.533446
C41	C	-0.044232	0.026616	0.489245
C42	C	-0.044238	-0.024401	0.489245
O43	O	-0.081840	-0.013200	0.451674
N44	N	-0.000042	-0.094115	0.533436
C45	C	0.044161	-0.112812	0.577634
O46	O	0.081752	-0.176793	0.615223
C47	C	0.044164	-0.061795	0.577637
C48	C	-0.000032	0.007919	0.533439
C49	C	-0.088425	0.096326	0.445052
C50	C	-0.088418	0.147340	0.445052
C51	C	-0.044218	0.128643	0.489245
C52	C	-0.000025	0.058932	0.533439
C53	C	0.088363	-0.080492	0.621837
C54	C	0.088362	-0.029468	0.621835
C55	C	0.044166	0.040246	0.577638
C56	C	0.044182	0.091249	0.577632
N57	N	-0.000015	0.160962	0.533441
C58	C	-0.044215	0.179659	0.489248
C59	C	0.044150	-0.219947	0.577627
C60	C	0.044149	-0.270963	0.577622
C61	C	-0.044250	-0.182549	0.489234
C62	C	-0.044247	-0.131532	0.489236
C63	C	-0.000047	-0.150233	0.533435
C64	C	-0.044196	0.286788	0.489250
C65	C	-0.044184	0.337802	0.489253
C66	C	0.044214	0.249383	0.577643
C67	C	0.044203	0.198374	0.577639
C68	C	-0.000007	0.217081	0.533440
O69	O	0.081762	0.080100	0.615186
O70	O	-0.081805	0.243641	0.451670
C71	C	-0.160018	0.533434	0.533417
C72	C	-0.214321	0.533439	0.533409
C73	C	-0.551012	0.533397	0.577639
C74	C	-0.602030	0.533392	0.577644
O75	O	-0.628400	0.533361	0.615235
N76	N	-0.627554	0.533398	0.533459
C77	C	-0.602053	0.533403	0.489270
O78	O	-0.628447	0.533407	0.451688
C79	C	-0.551033	0.533403	0.489268
C80	C	-0.525516	0.533403	0.533452
C81	C	-0.525495	0.533397	0.621820
C82	C	-0.474481	0.533403	0.621814
C83	C	-0.448985	0.533409	0.577627
C84	C	-0.474503	0.533410	0.533446
C85	C	-0.525531	0.533402	0.445081
C86	C	-0.474508	0.533402	0.445083
C87	C	-0.448991	0.533402	0.489267
C88	C	-0.397993	0.533422	0.489252
N89	N	-0.372470	0.533416	0.533437
C90	C	-0.397966	0.533409	0.577625
C91	C	-0.709196	0.533401	0.489279
C92	C	-0.760217	0.533406	0.489278
C93	C	-0.760191	0.533394	0.577653
C94	C	-0.709171	0.533394	0.577651
C95	C	-0.683673	0.533395	0.533464
C96	C	-0.290834	0.533423	0.577608
C97	C	-0.239817	0.533433	0.577597
C98	C	-0.239846	0.533441	0.489223
C99	C	-0.290860	0.533435	0.489233
C100	C	-0.316352	0.533424	0.533430
O101	O	-0.371589	0.533450	0.451683
O102	O	-0.371561	0.533396	0.615205
C103	C	0.159981	0.533401	0.533460
C104	C	0.214284	0.533396	0.533467
C105	C	-0.000038	0.533436	0.373437
C106	C	-0.000045	0.533443	0.319134
C107	C	-0.000044	0.693425	0.533432
C108	C	-0.000053	0.747730	0.533430
C109	C	0.031255	0.470910	0.013687
C110	C	0.031260	0.470906	-0.037332
O111	O	0.057862	0.417756	-0.037143
N112	N	0.000003	0.533402	-0.094099
C113	C	-0.031257	0.595905	-0.099846
O114	O	-0.057843	0.649062	-0.152815
C115	C	-0.031259	0.595908	-0.048828
C116	C	-0.000004	0.533408	0.007938
C117	C	0.062508	0.408415	0.070450
C118	C	0.062502	0.408420	0.121465
C119	C	0.031242	0.470918	0.115716
C120	C	-0.000010	0.533412	0.058953
C121	C	-0.062515	0.658411	-0.054576
C122	C	-0.062513	0.658408	-0.003552
C123	C	-0.031258	0.595909	0.053214
C124	C	-0.031276	0.595915	0.104219
N125	N	-0.000018	0.533420	0.160985
C126	C	0.031241	0.470921	0.166734
C127	C	-0.031251	0.595894	-0.206985
C128	C	-0.031253	0.595891	-0.258002
C129	C	0.031265	0.470892	-0.195484
C130	C	0.031264	0.470895	-0.144466
C131	C	0.000007	0.533398	-0.150218
C132	C	0.031225	0.470934	0.273867
C133	C	0.031214	0.470944	0.324883
C134	C	-0.031302	0.595943	0.262361
C135	C	-0.031294	0.595933	0.211349
C136	C	-0.000026	0.533424	0.217105
O137	O	-0.057861	0.649038	0.104076
O138	O	0.057829	0.417773	0.219705
C139	C	0.000002	0.533399	0.693440
C140	C	0.000009	0.533392	0.747742
C141	C	0.000027	0.373391	0.693446
C142	C	0.000043	0.319080	0.747751
C143	C	0.160007	0.373394	0.533466
C144	C	0.214318	0.319083	0.533475
C145	C	0.160027	0.373375	0.693467
C146	C	0.214345	0.319058	0.747779
C147	C	-0.160064	0.693460	0.373410
C148	C	-0.214382	0.747777	0.319097
C149	C	-0.000064	0.693444	0.373431
C150	C	-0.000079	0.747755	0.319126
C151	C	-0.160044	0.693441	0.533411
C152	C	-0.214355	0.747752	0.533401
C153	C	-0.031202	0.293581	0.742005
C154	C	-0.031200	0.242557	0.793025
C155	C	0.000052	0.217028	0.849791
C156	C	0.031298	0.242532	0.855535
C157	C	0.031291	0.293559	0.804515
C158	C	0.271076	0.293572	0.564727
C159	C	0.322112	0.242548	0.564734
C160	C	0.316389	0.217034	0.533492
C161	C	0.259625	0.242550	0.502236
C162	C	0.208591	0.293576	0.502226
C163	C	0.208614	0.293550	0.804530
C164	C	0.259647	0.242520	0.855567
C165	C	0.316410	0.216997	0.849852
C166	C	0.322139	0.242510	0.793096
C167	C	0.271107	0.293542	0.742060
C168	C	-0.208651	0.773291	0.262347
C169	C	-0.259683	0.824337	0.211310
C170	C	-0.316446	0.849863	0.217024
C171	C	-0.322176	0.824346	0.273781
C172	C	-0.271144	0.773305	0.324816
C173	C	0.031160	0.773259	0.324872
C174	C	0.031144	0.824297	0.273851
C175	C	-0.000110	0.849828	0.217086
C176	C	-0.031353	0.824322	0.211342
C177	C	-0.031340	0.773288	0.262362
C178	C	-0.208613	0.773250	0.564650
C179	C	-0.259639	0.824274	0.564653
C180	C	-0.316407	0.849802	0.533403
C181	C	-0.322148	0.824299	0.502154
C182	C	-0.271122	0.773272	0.502155
H183	H	-0.080197	0.302030	0.453260
Br184	Br	-0.251834	0.858877	0.607063
H185	H	0.056742	0.221739	0.901760
H186	H	0.162378	0.314341	0.476779
Br187	Br	-0.073680	0.680727	-0.214800
H188	H	-0.080232	-0.074770	0.453243
Br189	Br	0.385657	0.147784	0.533511
Br190	Br	0.148349	-0.054855	0.681827
H191	H	-0.080242	-0.167332	0.453251
H192	H	-0.080173	0.394567	0.453258
H193	H	0.275747	0.314340	0.590169
H194	H	0.056738	0.314313	0.809202
Br195	Br	0.104141	-0.365571	0.637598
Br196	Br	-0.385699	0.919134	0.147755
Br197	Br	0.104940	0.323584	0.078268
Br198	Br	-0.148402	0.241947	0.385066
Br199	Br	-0.148419	0.121719	0.385066
Br200	Br	0.104145	-0.245338	0.637614
H201	H	0.275782	0.314304	0.695854
Br202	Br	0.251856	0.207904	0.932585
H203	H	0.162399	0.314324	0.809194
Br204	Br	0.073579	0.738624	0.401904
Br205	Br	-0.131578	0.738616	0.607065
H206	H	0.357958	0.175443	0.891414
Br207	Br	-0.439905	0.533399	0.385112
Br208	Br	-0.000122	0.919089	0.147850
H209	H	0.124352	-0.137249	0.657828
H210	H	-0.780958	0.533387	0.613634
Br211	Br	-0.674546	0.533395	0.637617
Br212	Br	0.251869	0.207916	0.459838
H213	H	-0.357950	0.891351	0.533407
Br214	Br	-0.278933	0.738681	0.401833
H215	H	0.368326	0.221778	0.590188
H216	H	0.368363	0.221721	0.788452
Br217	Br	-0.131622	0.738658	0.254575
Br218	Br	-0.251893	0.858954	0.134292
Br219	Br	-0.399216	0.858995	0.281526
H220	H	0.056588	0.845056	0.278540
H221	H	0.087950	0.357526	0.167683
Br222	Br	-0.073764	0.858976	0.134298
Br223	Br	-0.073738	0.738678	0.254553
H224	H	0.080197	0.141608	0.613623
Br225	Br	-0.399194	0.858957	0.459741
Br226	Br	-0.278925	0.738679	0.459736
H227	H	0.080201	0.234171	0.613623
Br228	Br	-0.205191	0.533437	0.637563
H229	H	-0.453707	0.533401	0.657794
Br230	Br	-0.560087	0.533386	0.681797
Br231	Br	-0.325420	0.533408	0.637591
Br232	Br	-0.073725	0.680755	0.134308
Br233	Br	-0.794851	0.533422	0.429303
Br234	Br	-0.674600	0.533409	0.429301
Br235	Br	0.073631	0.386118	0.401923
Br236	Br	-0.325496	0.533448	0.429260
Br237	Br	-0.205238	0.533453	0.429256
Br238	Br	0.073660	0.386099	0.281688
Br239	Br	0.073682	0.386072	-0.067431
Br240	Br	0.073688	0.386072	-0.187692
Br241	Br	-0.560151	0.533401	0.385114
Br242	Br	-0.073607	0.207954	0.785216
Br243	Br	-0.073683	0.680715	-0.335037
H244	H	-0.087965	0.709304	-0.100790
Br245	Br	-0.104933	0.743239	-0.011364
H246	H	-0.056754	0.646827	0.257690
H247	H	-0.056659	0.314366	0.695789
H248	H	0.000053	0.175478	0.891330
