data_functionalizedCrystal
_audit_creation_method	'MofGen! by Chris Wilmer'
_symmetry_space_group_name_H-M	'P1'
_symmetry_Int_Tables_number	1
_symmetry_cell_setting	triclinic
loop_
_symmetry_equiv_pos_as_xyz
  x,y,z
_cell_length_a	17.038272
_cell_length_b	17.038272
_cell_length_c	9.016244
_cell_angle_alpha	90.001386
_cell_angle_beta	90.000654
_cell_angle_gamma	91.111556
loop_
_atom_site_label
_atom_site_type_symbol
_atom_site_fract_x
_atom_site_fract_y
_atom_site_fract_z
O1	O	1.048755	0.170530	-0.123156
O2	O	0.820943	0.167822	-0.123200
O3	O	0.933495	0.055270	-0.123166
O4	O	0.936203	0.283081	-0.123189
O5	O	0.933484	0.055280	0.123514
O6	O	0.820932	0.167832	0.123481
O7	O	1.048743	0.170540	0.123525
Cu8	Cu	0.934837	0.169187	0.146027
Cu9	Cu	0.934850	0.169175	-0.145702
O10	O	0.936192	0.283091	0.123491
C11	C	0.791645	0.165364	0.000135
C12	C	0.704361	0.158016	0.000119
C13	C	0.658752	0.225479	0.000113
C14	C	0.576740	0.218570	0.000134
C15	C	0.540339	0.144197	0.000151
C16	C	0.585954	0.076728	0.000161
C17	C	0.667965	0.083638	0.000150
C18	C	0.292951	0.119787	0.000193
C19	C	0.210935	0.112882	0.000199
C20	C	0.201726	0.254725	0.000175
C21	C	0.283739	0.261628	0.000156
C22	C	0.329347	0.194159	0.000174
C23	C	0.456510	0.137133	0.000168
C24	C	0.413174	0.201224	0.000167
C25	C	0.931027	0.025982	0.000173
C26	C	0.923679	-0.061301	0.000172
C27	C	0.991142	-0.106911	0.000186
C28	C	0.984233	-0.188923	0.000171
C29	C	0.909860	-0.225324	0.000151
C30	C	0.842391	-0.179708	0.000132
C31	C	0.849301	-0.097698	0.000137
C32	C	0.885449	-0.472712	0.000126
C33	C	0.878545	-0.554728	0.000126
C34	C	1.020387	-0.563937	0.000161
C35	C	1.027291	-0.481924	0.000175
C36	C	0.959822	-0.436316	0.000148
C37	C	0.902796	-0.309153	0.000140
C38	C	0.966886	-0.352488	0.000149
C39	C	1.078042	0.172997	0.000187
C40	C	1.165326	0.180346	0.000193
C41	C	0.938660	0.312379	0.000148
C42	C	0.946008	0.399663	0.000141
N43	N	0.934833	0.169195	0.351213
C44	C	0.874596	0.229392	0.414165
C45	C	0.874365	0.229198	0.586056
C46	C	0.911831	0.085965	0.586692
C47	C	0.911383	0.086325	0.414748
C48	C	1.018238	0.191479	0.414564
C49	C	1.017819	0.193292	0.586520
N50	N	0.934849	0.169174	0.649112
H51	H	0.330076	0.064848	0.000209
C52	C	0.545915	-0.005080	0.000176
H53	H	0.490540	0.000465	0.000165
H54	H	0.561250	-0.033086	0.086199
H55	H	0.561247	-0.033089	-0.085858
C56	C	0.969262	0.023662	0.641789
H57	H	0.954272	-0.026195	0.602710
H58	H	0.968074	0.021669	0.747057
H59	H	1.020881	0.037076	0.609545
C60	C	1.094596	-0.614106	0.000169
H61	H	1.079832	-0.668162	0.000150
H62	H	1.124868	-0.602560	0.086194
H63	H	1.124866	-0.602556	-0.085863
H64	H	0.164583	0.309653	0.000164
C65	C	0.698786	0.307291	0.000095
H66	H	0.659874	0.346479	0.000108
H67	H	0.730584	0.312932	-0.085932
H68	H	0.730589	0.312938	0.086125
C69	C	0.893901	0.312966	0.358326
H70	H	0.856874	0.348404	0.397575
H71	H	0.891575	0.313868	0.253075
H72	H	0.945165	0.328195	0.389901
H73	H	0.817978	-0.584363	0.000134
C74	C	1.109099	-0.441885	0.000206
H75	H	1.103552	-0.386510	0.000225
H76	H	1.137119	-0.457214	-0.085805
H77	H	1.137094	-0.457221	0.086252
H78	H	0.781835	-0.209353	0.000107
C79	C	0.170895	0.031068	0.000220
H80	H	0.209802	-0.008125	0.000241
H81	H	0.139093	0.025420	-0.085802
H82	H	0.139095	0.025434	0.086255
C83	C	0.718135	0.009428	0.000141
H84	H	0.684712	-0.035856	0.000136
H85	H	0.750324	0.009177	0.086158
H86	H	0.750313	0.009174	-0.085899
H87	H	0.539608	0.273507	0.000128
H88	H	0.313370	0.322190	0.000125
C89	C	0.453209	0.283031	0.000145
H90	H	0.414303	0.322225	0.000149
H91	H	0.485009	0.288663	-0.085881
H92	H	0.485012	0.288679	0.086176
C93	C	0.811236	-0.422553	0.000123
H94	H	0.765955	-0.455980	0.000131
H95	H	0.810980	-0.390367	-0.085895
H96	H	0.810982	-0.390372	0.086161
H97	H	1.065149	0.152728	0.629442
H98	H	0.426863	0.076578	0.000223
C99	C	0.791602	0.209585	0.355843
H100	H	0.793502	0.164788	0.293299
H101	H	0.772535	0.252888	0.301153
H102	H	0.757569	0.198842	0.437109
H103	H	1.039170	-0.226054	0.000186
H104	H	0.812585	0.214355	0.627208
C105	C	1.072953	-0.066877	0.000207
H106	H	1.112142	-0.105789	0.000200
H107	H	1.078595	-0.035075	0.086231
H108	H	1.078600	-0.035077	-0.085826
H109	H	0.794365	-0.060564	0.000125
C110	C	1.041264	0.276016	0.641648
H111	H	1.000665	0.295779	0.702562
H112	H	1.049133	0.309856	0.559026
H113	H	1.088455	0.273443	0.697404
H114	H	1.027441	-0.322847	0.000132
C115	C	0.893906	0.312501	0.643081
H116	H	0.902053	0.346767	0.561160
H117	H	0.940166	0.311458	0.701798
H118	H	0.851542	0.330679	0.701443
C119	C	0.829002	0.060995	0.360584
H120	H	0.796122	0.050587	0.443664
H121	H	0.832706	0.014917	0.301885
H122	H	0.807345	0.101869	0.302808
C123	C	0.968030	0.023586	0.358477
H124	H	0.991209	-0.002012	0.440706
H125	H	1.007960	0.047907	0.299924
H126	H	0.939855	-0.013856	0.300105
H127	H	1.063126	0.147649	0.373841
H128	H	0.842241	-0.338800	0.000128
C129	C	0.830352	0.060204	0.644868
H130	H	0.810252	0.100039	0.707178
H131	H	0.834768	0.012912	0.699773
H132	H	0.795760	0.051786	0.563527
H133	H	1.039082	0.251176	0.371209
