data_functionalizedCrystal
_audit_creation_method	'MofGen! by Chris Wilmer'
_symmetry_space_group_name_H-M	'P1'
_symmetry_Int_Tables_number	1
_symmetry_cell_setting	triclinic
loop_
_symmetry_equiv_pos_as_xyz
  x,y,z
_cell_length_a	10.908937
_cell_length_b	11.026607
_cell_length_c	9.198806
_cell_angle_alpha	89.998911
_cell_angle_beta	89.994418
_cell_angle_gamma	84.335986
loop_
_atom_site_label
_atom_site_type_symbol
_atom_site_fract_x
_atom_site_fract_y
_atom_site_fract_z
O1	O	1.662447	-0.179061	-0.120937
O2	O	1.309515	-0.088525	-0.120929
O3	O	1.456730	-0.304543	-0.120927
O4	O	1.515231	0.036958	-0.120939
O5	O	1.456715	-0.304541	0.120858
O6	O	1.309500	-0.088522	0.120856
O7	O	1.662432	-0.179058	0.120848
Cu8	Cu	1.485964	-0.133790	0.142929
Cu9	Cu	1.485982	-0.133793	-0.143010
O10	O	1.515216	0.036960	0.120846
C11	C	1.263622	-0.080062	-0.000035
C12	C	1.126895	-0.054865	-0.000032
C13	C	0.915317	-0.120775	-0.000056
C14	C	1.056631	-0.146820	-0.000037
C15	C	1.445930	-0.347575	-0.000036
C16	C	1.413757	-0.475796	-0.000040
C17	C	1.502592	-0.567529	-0.000044
C18	C	1.469342	-0.700053	-0.000049
C19	C	1.708325	-0.187521	-0.000049
C20	C	1.845052	-0.212718	-0.000061
C21	C	1.526016	0.079992	-0.000048
C22	C	1.558189	0.208213	-0.000053
N23	N	1.485961	-0.133790	0.344043
N24	N	1.485993	-0.133804	-0.344124
C25	C	1.547700	-0.224818	0.416241
C26	C	1.547718	-0.224826	0.583653
H27	H	1.082440	0.043139	-0.000046
H28	H	1.433139	-0.055864	0.593799
H29	H	0.889514	-0.310715	-0.000060
H30	H	1.101088	-0.244824	-0.000037
O31	O	1.422826	-0.040969	0.418309
C32	C	1.332667	-0.087654	0.506345
H33	H	1.360307	-0.188287	0.528985
H34	H	1.324665	-0.035452	0.613443
H35	H	1.240126	-0.076972	0.447797
H36	H	1.600581	-0.302755	0.645740
H37	H	1.600539	-0.302748	0.354115
O38	O	0.862431	-0.003810	0.000123
C39	C	0.899649	0.056508	0.125365
H40	H	0.990181	0.008555	0.167132
H41	H	0.912881	0.155051	0.097197
H42	H	0.825982	0.054695	0.213039
H43	H	1.603262	-0.547952	-0.000038
O44	O	1.349296	-0.723602	0.000013
C45	C	1.342821	-0.850677	-0.000033
H46	H	1.432049	-0.898286	0.045740
H47	H	1.262026	-0.873345	0.070160
H48	H	1.329151	-0.883157	-0.116032
O49	O	1.293637	-0.499076	-0.000299
C50	C	1.234914	-0.447544	-0.125500
H51	H	1.306734	-0.435609	-0.213023
H52	H	1.165881	-0.510370	-0.167538
H53	H	1.184644	-0.354988	-0.097183
O54	O	1.678255	-0.768304	-0.000248
C55	C	1.702166	-0.700780	-0.125489
H56	H	1.612379	-0.651254	-0.167236
H57	H	1.769277	-0.631364	-0.097327
H58	H	1.744178	-0.765115	-0.213176
