data_functionalizedCrystal
_audit_creation_method	'MofGen! by Chris Wilmer'
_symmetry_space_group_name_H-M	'P1'
_symmetry_Int_Tables_number	1
_symmetry_cell_setting	triclinic
loop_
_symmetry_equiv_pos_as_xyz
  x,y,z
_cell_length_a	12.759401
_cell_length_b	12.645330
_cell_length_c	12.759393
_cell_angle_alpha	90.032183
_cell_angle_beta	90.019437
_cell_angle_gamma	90.012658
loop_
_atom_site_label
_atom_site_type_symbol
_atom_site_fract_x
_atom_site_fract_y
_atom_site_fract_z
Zn1	Zn	1.606270	-0.421976	0.594003
Zn2	Zn	1.606171	-0.599280	0.418321
Zn3	Zn	1.430572	-0.422032	0.418340
Zn4	Zn	1.430567	-0.599198	0.593960
O5	O	1.518395	-0.510622	0.506156
O6	O	1.753278	-0.445508	0.570709
O7	O	1.582838	-0.575825	0.271303
O8	O	1.453923	-0.273677	0.441668
O9	O	1.753205	-0.575772	0.441636
O10	O	1.583007	-0.273637	0.570727
O11	O	1.453826	-0.445601	0.271316
O12	O	1.283551	-0.445522	0.441626
O13	O	1.453914	-0.575632	0.740987
O14	O	1.283547	-0.575685	0.570653
O15	O	1.583002	-0.445428	0.741019
O16	O	1.582833	-0.747617	0.441595
O17	O	1.453818	-0.747557	0.570635
C18	C	1.245428	-0.510601	0.506137
C19	C	1.128651	-0.510618	0.506154
C20	C	0.964090	-0.578515	0.573251
C21	C	1.073814	-0.578501	0.573234
C22	C	1.073759	-0.442752	0.439079
C23	C	0.964037	-0.442772	0.439092
C24	C	0.909258	-0.646394	0.640343
C25	C	0.964143	-0.714262	0.707417
C26	C	1.073867	-0.714248	0.707400
C27	C	1.128707	-0.646367	0.640309
C28	C	1.518343	-0.786051	0.506131
C29	C	1.518416	-0.903881	0.506156
C30	C	1.599449	-1.071439	0.424811
C31	C	1.599713	-0.948879	0.425011
C32	C	1.548444	-0.948253	0.616900
C33	C	1.549087	-1.070852	0.616469
C34	C	1.407324	-1.071211	0.477847
C35	C	1.407856	-0.948607	0.475363
C36	C	1.792429	-0.510643	0.506176
C37	C	1.909205	-0.510652	0.506184
C38	C	1.518469	-0.510515	0.780190
C39	C	1.518500	-0.510469	0.896966
C40	C	1.518477	-0.234116	0.506204
C41	C	1.518511	-0.116286	0.506224
C42	C	1.518382	-0.510652	0.233189
C43	C	1.518555	-0.510399	0.116413
C44	C	1.585726	-0.442665	0.951847
C45	C	1.585751	-0.442627	1.061571
C46	C	1.451322	-0.578205	1.061525
C47	C	1.451292	-0.578238	0.951803
C48	C	1.652934	-0.374897	0.897010
C49	C	1.720166	-0.307088	0.951891
C50	C	1.720191	-0.307050	1.061615
C51	C	1.652984	-0.374820	1.116459
H52	H	1.218051	-0.646367	0.640295
H53	H	1.774926	-0.251830	1.106296
H54	H	1.774876	-0.251906	0.907230
H55	H	1.630360	-1.099362	0.640506
O56	O	1.653009	-0.374765	0.790426
C57	C	1.726761	-0.300434	0.753791
H58	H	1.741514	-0.238477	0.817035
H59	H	1.695058	-0.260228	0.680390
H60	H	1.803348	-0.342490	0.734322
O61	O	1.386148	-0.644007	1.114959
C62	C	1.400574	-0.629422	1.223571
H63	H	1.481668	-0.594702	1.238568
H64	H	1.393441	-0.708816	1.265249
H65	H	1.338281	-0.572957	1.254722
H66	H	1.118552	-0.769516	0.762007
O67	O	1.653173	-0.374685	1.223045
C68	C	1.726899	-0.300284	1.259728
H69	H	1.788268	-0.285460	1.196505
H70	H	1.766777	-0.332256	1.333126
H71	H	1.685269	-0.222976	1.279217
H72	H	1.396535	-0.633433	0.907118
H73	H	1.344298	-0.917988	0.530313
H74	H	0.819916	-0.646411	0.640367
O75	O	0.910715	-0.780101	0.772549
C76	C	0.802102	-0.765582	0.758167
H77	H	0.787106	-0.683733	0.723900
H78	H	0.760440	-0.772870	0.836858
H79	H	0.770932	-0.828401	0.702116
H80	H	0.919348	-0.387506	0.384485
O81	O	1.127144	-0.376960	0.373866
C82	C	1.190561	-0.437226	0.305884
H83	H	1.207007	-0.517605	0.342799
H84	H	1.267715	-0.394017	0.291875
H85	H	1.148243	-0.448787	0.228008
H86	H	1.580926	-0.918883	0.342895
O87	O	1.577457	-1.106584	0.326487
C88	C	1.651379	-1.065029	0.255462
H89	H	1.687173	-0.989906	0.289566
H90	H	1.610915	-1.045777	0.178121
H91	H	1.715823	-1.125799	0.241263
O92	O	1.697109	-1.108161	0.447111
C93	C	1.692602	-1.174267	0.535945
H94	H	1.620260	-1.153780	0.584267
H95	H	1.765919	-1.162105	0.585602
H96	H	1.687985	-1.260367	0.509803
H97	H	1.682066	-0.919469	0.443780
H98	H	1.492718	-1.100513	0.679217
H99	H	1.628799	-0.917463	0.641339
O100	O	1.480314	-0.913637	0.691331
C101	C	1.509558	-0.954917	0.789711
H102	H	1.558121	-1.029636	0.777895
H103	H	1.436209	-0.974774	0.836749
H104	H	1.557991	-0.893722	0.834041
H105	H	1.380017	-1.102228	0.398499
O106	O	1.335502	-1.105930	0.548653
C107	C	1.385424	-1.170600	0.623530
H108	H	1.460771	-1.204071	0.588842
H109	H	1.331023	-1.238340	0.646230
H110	H	1.404844	-1.121683	0.696064
H111	H	1.385215	-0.919618	0.393865
