data_functionalizedCrystal
_audit_creation_method	'MofGen! by Chris Wilmer'
_symmetry_space_group_name_H-M	'P1'
_symmetry_Int_Tables_number	1
_symmetry_cell_setting	triclinic
loop_
_symmetry_equiv_pos_as_xyz
  x,y,z
_cell_length_a	8.597366
_cell_length_b	8.597304
_cell_length_c	7.681481
_cell_angle_alpha	76.508647
_cell_angle_beta	103.474720
_cell_angle_gamma	86.359176
loop_
_atom_site_label
_atom_site_type_symbol
_atom_site_fract_x
_atom_site_fract_y
_atom_site_fract_z
O1	O	2.099835	0.220422	0.138716
O2	O	1.635775	0.245823	0.064455
O3	O	1.880497	0.001081	0.138718
O4	O	1.855113	0.465163	0.064453
O5	O	1.910618	-0.029110	0.440726
O6	O	1.665896	0.215631	0.366463
O7	O	2.129956	0.190230	0.440725
Zn8	Zn	1.902709	0.198137	0.451544
Zn9	Zn	1.863023	0.237916	0.053635
O10	O	1.885235	0.434971	0.366462
C11	C	1.591452	0.229682	0.206608
C12	C	1.414509	0.226548	0.180237
C13	C	1.894510	-0.073400	0.298570
C14	C	1.891369	-0.250350	0.324930
C15	C	2.174279	0.206371	0.298568
C16	C	2.351221	0.209506	0.324927
C17	C	1.871221	0.509453	0.206606
C18	C	1.874361	0.686404	0.180234
N19	N	1.929805	0.170988	0.723109
N20	N	1.835939	0.265052	-0.217926
H21	H	1.432415	0.197312	0.468997
H22	H	1.903512	-0.331583	0.468994
H23	H	1.862196	-0.232369	0.036175
N24	N	1.709012	0.392235	0.643928
H25	H	1.712083	0.389143	0.514127
H26	H	1.599187	0.370635	0.662696
N27	N	2.056757	0.043818	0.861268
H28	H	2.003575	-0.034523	0.941595
H29	H	2.116483	-0.015952	0.793035
N30	N	1.306988	0.242674	-0.010593
H31	H	1.191587	0.238062	-0.003025
H32	H	1.315865	0.349132	-0.095154
