data_functionalizedCrystal
_audit_creation_method	'MofGen! by Chris Wilmer'
_symmetry_space_group_name_H-M	'P1'
_symmetry_Int_Tables_number	1
_symmetry_cell_setting	triclinic
loop_
_symmetry_equiv_pos_as_xyz
  x,y,z
_cell_length_a	19.077105
_cell_length_b	29.839131
_cell_length_c	19.076929
_cell_angle_alpha	92.257200
_cell_angle_beta	90.078300
_cell_angle_gamma	87.731134
loop_
_atom_site_label
_atom_site_type_symbol
_atom_site_fract_x
_atom_site_fract_y
_atom_site_fract_z
Zn1	Zn	1.058192	-0.217322	-0.440347
Zn2	Zn	1.391526	0.116011	-0.107014
Zn3	Zn	1.724859	0.449344	0.226320
Zn4	Zn	1.062816	-0.289559	-0.322817
Zn5	Zn	1.396150	0.043775	0.010516
Zn6	Zn	1.729483	0.377108	0.343849
Zn7	Zn	0.945416	-0.211308	-0.318143
Zn8	Zn	1.278750	0.122025	0.015191
Zn9	Zn	1.612083	0.455359	0.348524
Zn10	Zn	0.940634	-0.289284	-0.435570
Zn11	Zn	1.273967	0.044049	-0.102237
Zn12	Zn	1.607300	0.377383	0.231097
O13	O	1.001765	-0.251868	-0.379219
O14	O	1.335098	0.081465	-0.045886
O15	O	1.668431	0.414798	0.287447
O16	O	1.157137	-0.229536	-0.428712
O17	O	1.490470	0.103797	-0.095379
O18	O	1.823803	0.437130	0.237954
O19	O	1.051180	-0.276777	-0.223867
O20	O	1.384513	0.056557	0.109466
O21	O	1.717846	0.389890	0.442800
O22	O	0.960443	-0.149242	-0.334396
O23	O	1.293776	0.184092	-0.001063
O24	O	1.627109	0.517425	0.332270
O25	O	1.160534	-0.282608	-0.342364
O26	O	1.493867	0.050725	-0.009030
O27	O	1.827200	0.384059	0.324303
O28	O	1.043299	-0.153660	-0.424179
O29	O	1.376632	0.179673	-0.090846
O30	O	1.709965	0.513007	0.242487
O31	O	0.964927	-0.219286	-0.220433
O32	O	1.298260	0.114047	0.112901
O33	O	1.631593	0.447380	0.446234
O34	O	0.846451	-0.219020	-0.329764
O35	O	1.179784	0.114313	0.003569
O36	O	1.513118	0.447647	0.336903
O37	O	0.952291	-0.282140	-0.534534
O38	O	1.285625	0.051193	-0.201201
O39	O	1.618958	0.384527	0.132133
O40	O	0.842937	-0.276308	-0.416037
O41	O	1.176271	0.057025	-0.082704
O42	O	1.509604	0.390358	0.250629
O43	O	1.038661	-0.229270	-0.538044
O44	O	1.371994	0.104063	-0.204710
O45	O	1.705328	0.437397	0.128623
O46	O	1.046542	-0.352387	-0.337731
O47	O	1.379875	-0.019053	-0.004398
O48	O	1.713209	0.314280	0.328935
O49	O	0.956775	-0.352185	-0.420570
O50	O	1.290108	-0.018851	-0.087237
O51	O	1.623442	0.314482	0.246097
C52	C	0.819198	-0.246982	-0.371875
C53	C	1.152531	0.086351	-0.038542
C54	C	1.485865	0.419685	0.294791
C55	C	0.741095	-0.244903	-0.368750
C56	C	1.074428	0.088430	-0.035417
C57	C	1.407761	0.421764	0.297916
C58	C	1.001660	-0.368587	-0.379156
C59	C	1.334993	-0.035253	-0.045822
C60	C	1.668327	0.298080	0.287511
C61	C	1.001678	-0.418521	-0.379155
C62	C	1.335012	-0.085188	-0.045821
C63	C	1.668345	0.248145	0.287512
C64	C	0.702593	-0.273795	-0.412129
C65	C	1.035927	0.059538	-0.078796
C66	C	1.369260	0.392872	0.254537
C67	C	0.629207	-0.271836	-0.409196
C68	C	0.962540	0.061498	-0.075863
C69	C	1.295873	0.394831	0.257470
C70	C	0.594323	-0.240986	-0.362880
C71	C	0.927656	0.092347	-0.029547
C72	C	1.260990	0.425680	0.303786
C73	C	0.632829	-0.212091	-0.319499
C74	C	0.966163	0.121242	0.013834
C75	C	1.299496	0.454575	0.347167
C76	C	0.706215	-0.214049	-0.322436
C77	C	1.039548	0.119285	0.010897
C78	C	1.372881	0.452618	0.344230
C79	C	0.375039	-0.231927	-0.349291
C80	C	0.708372	0.101407	-0.015957
C81	C	1.041705	0.434740	0.317376
C82	C	0.301648	-0.229972	-0.346355
C83	C	0.634982	0.103361	-0.013022
C84	C	0.968315	0.436694	0.320311
C85	C	0.298030	-0.289716	-0.436053
C86	C	0.631364	0.043617	-0.102720
C87	C	0.964697	0.376950	0.230613
C88	C	0.371417	-0.291673	-0.438983
C89	C	0.704751	0.041660	-0.105650
C90	C	1.038084	0.374994	0.227683
C91	C	0.409917	-0.262776	-0.395605
C92	C	0.743251	0.070557	-0.062272
C93	C	1.076584	0.403890	0.271061
N94	N	0.519310	-0.238984	-0.359880
N95	N	0.852643	0.094350	-0.026546
N96	N	1.185977	0.427683	0.306787
N97	N	0.484929	-0.264777	-0.398610
N98	N	0.818262	0.068556	-0.065277
N99	N	1.151595	0.401890	0.268057
C100	C	1.044895	-0.730436	-0.426033
C101	C	1.378229	-0.397102	-0.092700
C102	C	1.711562	-0.063769	0.240634
C103	C	1.044970	-0.918112	-0.426078
C104	C	1.378303	-0.584779	-0.092745
C105	C	1.711637	-0.251445	0.240588
O106	O	1.081611	-0.944304	-0.465888
O107	O	1.414945	-0.610970	-0.132554
O108	O	1.748278	-0.277637	0.200779
N109	N	1.001881	-0.939315	-0.379302
N110	N	1.335214	-0.605982	-0.045969
N111	N	1.668548	-0.272649	0.287365
C112	C	0.958767	-0.913597	-0.332514
C113	C	1.292100	-0.580263	0.000819
C114	C	1.625433	-0.246930	0.334152
O115	O	0.922113	-0.935938	-0.292734
O116	O	1.255447	-0.602605	0.040599
O117	O	1.588780	-0.269271	0.373932
C118	C	0.958689	-0.725922	-0.332473
C119	C	1.292022	-0.392588	0.000860
C120	C	1.625356	-0.059255	0.334194
C121	C	1.001786	-0.704721	-0.379247
C122	C	1.335119	-0.371387	-0.045914
C123	C	1.668453	-0.038054	0.287419
C124	C	1.087988	-0.709235	-0.472804
C125	C	1.421322	-0.375901	-0.139471
C126	C	1.754655	-0.042568	0.193863
C127	C	1.087972	-0.662318	-0.472790
C128	C	1.421305	-0.328985	-0.139456
C129	C	1.754639	0.004348	0.193877
C130	C	1.044863	-0.636603	-0.426004
C131	C	1.378196	-0.303270	-0.092671
C132	C	1.711530	0.030063	0.240662
C133	C	1.001770	-0.657804	-0.379233
C134	C	1.335103	-0.324471	-0.045900
C135	C	1.668436	0.008862	0.287434
C136	C	0.915572	-0.700204	-0.285689
C137	C	1.248905	-0.366871	0.047644
C138	C	1.582238	-0.033537	0.380977
C139	C	0.915555	-0.653282	-0.285684
C140	C	1.248888	-0.319949	0.047649
C141	C	1.582221	0.013384	0.380982
C142	C	0.958652	-0.632081	-0.332459
C143	C	1.291985	-0.298748	0.000875
C144	C	1.625318	0.034585	0.334208
C145	C	0.958644	-0.585173	-0.332433
C146	C	1.291978	-0.251840	0.000900
C147	C	1.625311	0.081494	0.334234
N148	N	1.001733	-0.563970	-0.379209
N149	N	1.335067	-0.230636	-0.045876
N150	N	1.668400	0.102697	0.287457
C151	C	1.044843	-0.589685	-0.425995
C152	C	1.378176	-0.256351	-0.092662
C153	C	1.711509	0.076982	0.240672
C154	C	0.958812	-1.012129	-0.332538
C155	C	1.292145	-0.678796	0.000795
C156	C	1.625478	-0.345463	0.334128
C157	C	0.958832	-1.059048	-0.332548
C158	C	1.292165	-0.725714	0.000786
C159	C	1.625498	-0.392381	0.334119
C160	C	1.045034	-1.063560	-0.426113
C161	C	1.378368	-0.730226	-0.092779
C162	C	1.711701	-0.396893	0.240554
C163	C	1.045017	-1.016640	-0.426099
C164	C	1.378351	-0.683307	-0.092766
C165	C	1.711684	-0.349973	0.240567
C166	C	1.001901	-0.990926	-0.379315
C167	C	1.335234	-0.657592	-0.045981
C168	C	1.668567	-0.324259	0.287352
C169	C	1.044806	-0.491157	-0.425961
C170	C	1.378139	-0.157824	-0.092627
C171	C	1.711472	0.175510	0.240706
C172	C	1.044788	-0.444236	-0.425940
C173	C	1.378121	-0.110903	-0.092607
C174	C	1.711454	0.222430	0.240726
C175	C	0.958583	-0.439729	-0.332378
C176	C	1.291916	-0.106395	0.000955
C177	C	1.625250	0.226938	0.334289
C178	C	0.958603	-0.486645	-0.332396
C179	C	1.291937	-0.153312	0.000938
C180	C	1.625270	0.180021	0.334271
C181	C	1.001717	-0.512358	-0.379193
C182	C	1.335050	-0.179025	-0.045860
C183	C	1.668383	0.154308	0.287474
O184	O	0.922016	-0.558953	-0.292650
O185	O	1.255350	-0.225620	0.040683
O186	O	1.588683	0.107713	0.374017
O187	O	1.081479	-0.567335	-0.465780
O188	O	1.414813	-0.234002	-0.132446
O189	O	1.748146	0.099332	0.200887
C190	C	1.044912	-0.777352	-0.426047
C191	C	1.378245	-0.444019	-0.092714
C192	C	1.711578	-0.110685	0.240619
C193	C	1.001819	-0.798553	-0.379276
C194	C	1.335152	-0.465220	-0.045943
C195	C	1.668485	-0.131886	0.287390
C196	C	0.958709	-0.772838	-0.332491
C197	C	1.292043	-0.439505	0.000843
C198	C	1.625376	-0.106171	0.334176
C199	C	1.001839	-0.845472	-0.379286
C200	C	1.335172	-0.512138	-0.045952
C201	C	1.668505	-0.178805	0.287381
C202	C	1.044948	-0.871187	-0.426071
C203	C	1.378281	-0.537853	-0.092738
C204	C	1.711615	-0.204520	0.240596
C205	C	1.088037	-0.849983	-0.472847
C206	C	1.421371	-0.516650	-0.139514
C207	C	1.754704	-0.183317	0.193819
C208	C	1.088021	-0.803067	-0.472833
C209	C	1.421354	-0.469734	-0.139500
C210	C	1.754688	-0.136400	0.193834
C211	C	0.915620	-0.794042	-0.285714
C212	C	1.248954	-0.460708	0.047619
C213	C	1.582287	-0.127375	0.380952
C214	C	0.915641	-0.840958	-0.285732
C215	C	1.248974	-0.507625	0.047601
C216	C	1.582307	-0.174291	0.380935
C217	C	0.958750	-0.866673	-0.332518
C218	C	1.292083	-0.533340	0.000816
C219	C	1.625417	-0.200006	0.334149
C220	C	1.185044	-0.256774	-0.386592
C221	C	1.518377	0.076560	-0.053259
C222	C	1.851711	0.409893	0.280074
C223	C	1.263147	-0.258864	-0.389734
C224	C	1.596480	0.074469	-0.056401
C225	C	1.929814	0.407802	0.276932
C226	C	0.994427	-0.256345	-0.562498
C227	C	1.327760	0.076988	-0.229164
C228	C	1.661094	0.410321	0.104169
C229	C	0.991300	-0.258253	-0.640600
C230	C	1.324633	0.075080	-0.307267
C231	C	1.657967	0.408413	0.026067
C232	C	1.001888	-0.134695	-0.379299
C233	C	1.335222	0.198638	-0.045966
C234	C	1.668555	0.531972	0.287367
C235	C	1.001941	-0.084763	-0.379333
C236	C	1.335274	0.248570	-0.046000
C237	C	1.668608	0.581904	0.287333
C238	C	0.968878	-0.271973	-1.080037
C239	C	1.302211	0.061361	-0.746704
C240	C	1.635544	0.394694	-0.413370
C241	C	0.971813	-0.270173	-1.006652
C242	C	1.305146	0.063160	-0.673318
C243	C	1.638480	0.396493	-0.339985
C244	C	1.018252	-0.241750	-0.971790
C245	C	1.351586	0.091583	-0.638456
C246	C	1.684919	0.424917	-0.305123
C247	C	1.061754	-0.215121	-1.010317
C248	C	1.395087	0.118213	-0.676984
C249	C	1.728420	0.451546	-0.343651
C250	C	1.058814	-0.216918	-1.083701
C251	C	1.392148	0.116416	-0.750368
C252	C	1.725481	0.449749	-0.417035
C253	C	1.031862	-0.233421	-0.752511
C254	C	1.365196	0.099912	-0.419178
C255	C	1.698529	0.433246	-0.085845
C256	C	1.034800	-0.231627	-0.679122
C257	C	1.368133	0.101706	-0.345789
C258	C	1.701467	0.435040	-0.012455
C259	C	0.944858	-0.286679	-0.675461
C260	C	1.278191	0.046654	-0.342128
C261	C	1.611524	0.379987	-0.008795
C262	C	0.941925	-0.288476	-0.748847
C263	C	1.275259	0.044857	-0.415514
C264	C	1.608592	0.378191	-0.082180
C265	C	0.985424	-0.261845	-0.787368
C266	C	1.318758	0.071488	-0.454035
C267	C	1.652091	0.404822	-0.120701
N268	N	1.021255	-0.239911	-0.896778
N269	N	1.354589	0.093422	-0.563445
N270	N	1.687922	0.426756	-0.230111
N271	N	0.982417	-0.263682	-0.862378
N272	N	1.315750	0.069652	-0.529045
N273	N	1.649084	0.402985	-0.195712
C274	C	1.009114	-0.247377	-0.196656
C275	C	1.342448	0.085956	0.136678
C276	C	1.675781	0.419289	0.470011
C277	C	1.012377	-0.245346	-0.118559
C278	C	1.345711	0.087987	0.214774
C279	C	1.679044	0.421320	0.548107
H280	H	0.597862	-0.295363	-0.444519
H281	H	0.931195	0.037971	-0.111186
H282	H	1.264529	0.371304	0.222147
N283	N	0.871502	-0.627023	-0.237892
N284	N	1.204835	-0.293690	0.095441
N285	N	1.538169	0.039644	0.428774
N286	N	0.833028	-0.645962	-0.196139
N287	N	1.166362	-0.312629	0.137195
N288	N	1.499695	0.020704	0.470528
H289	H	0.801916	-0.627418	-0.162385
H290	H	1.135249	-0.294085	0.170948
H291	H	1.468583	0.039249	0.504282
H292	H	1.072616	-0.208478	-0.650740
H293	H	1.405949	0.124855	-0.317407
H294	H	1.739283	0.458188	0.015927
N295	N	0.914617	-0.508312	-0.284594
N296	N	1.247951	-0.174978	0.048739
N297	N	1.581284	0.158355	0.382072
N298	N	0.921949	-0.501639	-0.219950
N299	N	1.255283	-0.168306	0.113384
N300	N	1.588616	0.165028	0.446717
H301	H	0.890888	-0.516941	-0.186188
H302	H	1.224222	-0.183608	0.147146
H303	H	1.557555	0.149726	0.480479
N304	N	0.914562	-0.413450	-0.284587
N305	N	1.247895	-0.080117	0.048746
N306	N	1.581229	0.253217	0.382080
N307	N	0.914560	-0.371559	-0.284586
N308	N	1.247893	-0.038226	0.048747
N309	N	1.581227	0.295107	0.382080
H310	H	0.883469	-0.352998	-0.250835
H311	H	1.216802	-0.019665	0.082499
H312	H	1.550136	0.313669	0.415832
H313	H	1.123093	-0.730167	-0.510907
H314	H	1.456426	-0.396834	-0.177573
H315	H	1.789760	-0.063501	0.155760
H316	H	0.931064	-0.295120	-1.108416
H317	H	1.264398	0.038213	-0.775083
H318	H	1.597731	0.371546	-0.441749
N319	N	1.103239	-0.189721	-1.123065
N320	N	1.436572	0.143613	-0.789732
N321	N	1.769906	0.476946	-0.456399
N322	N	1.076903	-0.161436	-1.163043
N323	N	1.410237	0.171897	-0.829709
N324	N	1.743570	0.505231	-0.496376
H325	H	1.108277	-0.142226	-1.190845
H326	H	1.441610	0.191108	-0.857511
H327	H	1.774943	0.524441	-0.524178
H328	H	1.123063	-0.645060	-0.510879
H329	H	1.456397	-0.311726	-0.177546
H330	H	1.789730	0.021607	0.155787
H331	H	0.399815	-0.316795	-0.476697
H332	H	0.733148	0.016539	-0.143364
H333	H	1.066481	0.349872	0.189969
N334	N	0.871545	-0.721849	-0.237908
N335	N	1.204878	-0.388516	0.095425
N336	N	1.538212	-0.055182	0.428758
N337	N	0.878835	-0.715167	-0.173260
N338	N	1.212169	-0.381834	0.160073
N339	N	1.545502	-0.048501	0.493406
H340	H	0.847735	-0.730452	-0.139514
H341	H	1.181068	-0.397119	0.193819
H342	H	1.514401	-0.063786	0.527152
N343	N	0.597210	-0.180579	-0.272180
N344	N	0.930544	0.152755	0.061153
N345	N	1.263877	0.486088	0.394486
N346	N	0.631598	-0.154785	-0.233452
N347	N	0.964931	0.178548	0.099881
N348	N	1.298264	0.511882	0.433214
H349	H	0.606444	-0.132529	-0.200030
H350	H	0.939777	0.200805	0.133303
H351	H	1.273110	0.534138	0.466636
H352	H	0.406377	-0.208400	-0.313964
H353	H	0.739710	0.124933	0.019370
H354	H	1.073044	0.458266	0.352703
H355	H	0.737562	-0.190520	-0.287116
H356	H	1.070895	0.142814	0.046217
H357	H	1.404228	0.476147	0.379550
H358	H	0.904110	-0.311622	-0.777226
H359	H	1.237443	0.021711	-0.443893
H360	H	1.570777	0.355045	-0.110560
N361	N	0.738234	-0.305308	-0.459431
N362	N	1.071568	0.028025	-0.126098
N363	N	1.404901	0.361359	0.207236
N364	N	0.780147	-0.334396	-0.436257
N365	N	1.113480	-0.001063	-0.102924
N366	N	1.446814	0.332270	0.230409
H367	H	0.805318	-0.356653	-0.469666
H368	H	1.138652	-0.023319	-0.136332
H369	H	1.471985	0.310014	0.197001
N370	N	0.258693	-0.319229	-0.480354
N371	N	0.592026	0.014104	-0.147021
N372	N	0.925359	0.347438	0.186312
N373	N	0.193171	-0.317479	-0.477728
N374	N	0.526504	0.015854	-0.144394
N375	N	0.859838	0.349187	0.188939
H376	H	0.165388	-0.338323	-0.509018
H377	H	0.498721	-0.004990	-0.175684
H378	H	0.832054	0.328343	0.157649
H379	H	0.936398	-0.291861	-0.975290
H380	H	1.269732	0.041473	-0.641957
H381	H	1.603065	0.374806	-0.308623
H382	H	1.079885	-0.426976	-0.464030
H383	H	1.413218	-0.093643	-0.130696
H384	H	1.746552	0.239690	0.202637
H385	H	1.079908	-0.512087	-0.464072
H386	H	1.413241	-0.178754	-0.130739
H387	H	1.746574	0.154579	0.202595
H388	H	0.273248	-0.204846	-0.308643
H389	H	0.606581	0.128487	0.024690
H390	H	0.939915	0.461821	0.358023
H391	H	1.080110	-0.999381	-0.464188
H392	H	1.413443	-0.666048	-0.130854
H393	H	1.746777	-0.332715	0.202479
N394	N	1.089056	-1.089832	-0.473916
N395	N	1.422389	-0.756499	-0.140583
N396	N	1.755722	-0.423166	0.192751
N397	N	1.081733	-1.086034	-0.538560
N398	N	1.415066	-0.752701	-0.205227
N399	N	1.748399	-0.419368	0.128107
H400	H	1.112817	-1.104592	-0.572323
H401	H	1.446150	-0.771258	-0.238990
H402	H	1.779483	-0.437925	0.094344
H403	H	0.923746	-1.076305	-0.294452
H404	H	1.257079	-0.742972	0.038881
H405	H	1.590412	-0.409639	0.372215
N406	N	0.900422	-0.313883	-0.636124
N407	N	1.233755	0.019450	-0.302791
N408	N	1.567088	0.352783	0.030542
N409	N	0.904704	-0.355661	-0.644476
N410	N	1.238037	-0.022328	-0.311143
N411	N	1.571370	0.311005	0.022190
H412	H	0.873317	-0.374875	-0.616696
H413	H	1.206650	-0.041542	-0.283362
H414	H	1.539983	0.291792	0.049971
H415	H	0.923700	-0.991195	-0.294439
H416	H	1.257033	-0.657862	0.038895
H417	H	1.590367	-0.324529	0.372228
N418	N	1.132050	-0.781422	-0.520615
N419	N	1.465384	-0.448088	-0.187282
N420	N	1.798717	-0.114755	0.146051
N421	N	1.170535	-0.804395	-0.562380
N422	N	1.503868	-0.471061	-0.229047
N423	N	1.837201	-0.137728	0.104286
H424	H	1.201633	-0.789111	-0.596130
H425	H	1.534966	-0.455777	-0.262796
H426	H	1.868300	-0.122444	0.070537
N427	N	1.132074	-0.876262	-0.520629
N428	N	1.465407	-0.542929	-0.187295
N429	N	1.798741	-0.209596	0.146038
N430	N	1.132077	-0.918153	-0.520625
N431	N	1.465411	-0.584820	-0.187292
N432	N	1.798744	-0.251486	0.146041
H433	H	1.163175	-0.936715	-0.554370
H434	H	1.496508	-0.603382	-0.221037
H435	H	1.829841	-0.270048	0.112297
N436	N	0.871616	-0.862604	-0.237939
N437	N	1.204949	-0.529270	0.095394
N438	N	1.538283	-0.195937	0.428728
N439	N	0.833131	-0.839633	-0.196173
N440	N	1.166464	-0.506300	0.137161
N441	N	1.499797	-0.172966	0.470494
H442	H	0.802035	-0.854918	-0.162423
H443	H	1.135369	-0.521585	0.170911
H444	H	1.468702	-0.188252	0.504244
H445	H	0.880514	-0.773108	-0.247617
H446	H	1.213848	-0.439774	0.085717
H447	H	1.547181	-0.106441	0.419050
N448	N	1.076301	-0.206218	-0.791843
N449	N	1.409635	0.127115	-0.458509
N450	N	1.742968	0.460449	-0.125176
N451	N	1.117764	-0.180845	-0.760705
N452	N	1.451097	0.152489	-0.427372
N453	N	1.784431	0.485822	-0.094038
H454	H	1.149153	-0.161632	-0.788484
H455	H	1.482486	0.171701	-0.455151
H456	H	1.815820	0.505035	-0.121818
N457	N	1.109181	-0.186085	-0.974698
N458	N	1.442515	0.147248	-0.641365
N459	N	1.775848	0.480582	-0.308031
N460	N	1.111801	-0.184484	-0.909177
N461	N	1.445134	0.148849	-0.575844
N462	N	1.778468	0.482183	-0.242511
H463	H	1.145299	-0.163978	-0.884021
H464	H	1.478632	0.169356	-0.550688
H465	H	1.811965	0.502689	-0.217354
