data_functionalizedCrystal
_audit_creation_method	'MofGen! by Chris Wilmer'
_symmetry_space_group_name_H-M	'P1'
_symmetry_Int_Tables_number	1
_symmetry_cell_setting	triclinic
loop_
_symmetry_equiv_pos_as_xyz
  x,y,z
_cell_length_a	12.594517
_cell_length_b	18.050590
_cell_length_c	12.594509
_cell_angle_alpha	89.967171
_cell_angle_beta	89.977786
_cell_angle_gamma	90.017985
loop_
_atom_site_label
_atom_site_type_symbol
_atom_site_fract_x
_atom_site_fract_y
_atom_site_fract_z
Zn1	Zn	1.627248	-0.295648	-0.601851
Zn2	Zn	2.127248	0.204352	-0.101851
Zn3	Zn	1.627132	-0.419852	-0.423858
Zn4	Zn	2.127132	0.080148	0.076142
Zn5	Zn	1.449252	-0.295679	-0.423877
Zn6	Zn	1.949252	0.204321	0.076123
Zn7	Zn	1.449227	-0.419800	-0.601786
Zn8	Zn	1.949227	0.080200	-0.101786
O9	O	1.538215	-0.357745	-0.512843
O10	O	2.038215	0.142255	-0.012843
O11	O	1.776179	-0.312133	-0.578260
O12	O	2.276179	0.187867	-0.078260
O13	O	1.603497	-0.403415	-0.274915
O14	O	2.103497	0.096585	0.225085
O15	O	1.472924	-0.191751	-0.447521
O16	O	1.972924	0.308249	0.052479
O17	O	1.776093	-0.403385	-0.447489
O18	O	2.276093	0.096615	0.052511
O19	O	1.603697	-0.191728	-0.578278
O20	O	2.103697	0.308272	-0.078278
O21	O	1.472810	-0.312186	-0.274929
O22	O	1.972810	0.187814	0.225071
O23	O	1.300303	-0.312135	-0.447458
O24	O	1.800303	0.187865	0.052542
O25	O	1.472880	-0.403296	-0.750740
O26	O	1.972880	0.096704	-0.250740
O27	O	1.300284	-0.403326	-0.578166
O28	O	1.800284	0.096674	-0.078166
O29	O	1.603672	-0.312082	-0.750788
O30	O	2.103672	0.187918	-0.250788
O31	O	1.603472	-0.523770	-0.447425
O32	O	2.103472	-0.023770	0.052575
O33	O	1.472767	-0.523731	-0.578148
O34	O	1.972767	-0.023731	-0.078148
C35	C	1.261674	-0.357729	-0.512808
C36	C	1.761674	0.142271	-0.012808
C37	C	1.143368	-0.357740	-0.512818
C38	C	1.643368	0.142260	-0.012818
C39	C	1.003331	-0.308087	-0.441888
C40	C	1.503331	0.191913	0.058112
C41	C	1.074191	-0.289992	-0.539016
C42	C	1.574191	0.210008	-0.039016
C43	C	1.074080	-0.375801	-0.415700
C44	C	1.574080	0.124199	0.084300
C45	C	1.003443	-0.339639	-0.610075
C46	C	1.503443	0.160361	-0.110075
C47	C	1.003326	-0.425480	-0.486694
C48	C	1.503326	0.074520	0.013306
C49	C	1.074154	-0.407411	-0.583889
C50	C	1.574154	0.092589	-0.083889
C51	C	1.538133	-0.550697	-0.512801
C52	C	2.038133	-0.050697	-0.012801
C53	C	1.538195	-0.633243	-0.512818
C54	C	2.038195	-0.133243	-0.012818
C55	C	1.609421	-0.832687	-0.441831
C56	C	2.109421	-0.332687	0.058169
C57	C	1.635423	-0.882015	-0.538974
C58	C	2.135423	-0.382015	-0.038974
C59	C	1.538256	-0.784373	-0.512861
C60	C	2.038256	-0.284373	-0.012861
C61	C	1.512362	-0.882127	-0.415761
C62	C	2.012362	-0.382127	0.084239
C63	C	1.538316	-0.930358	-0.512893
C64	C	2.038316	-0.430358	-0.012893
C65	C	1.564308	-0.832613	-0.610055
C66	C	2.064308	-0.332613	-0.110055
C67	C	1.441201	-0.832721	-0.486776
C68	C	1.941201	-0.332721	0.013224
C69	C	1.467167	-0.882027	-0.583987
C70	C	1.967167	-0.382027	-0.083987
C71	C	1.538224	-0.700275	-0.512841
C72	C	2.038224	-0.200275	-0.012841
C73	C	1.538348	-1.014455	-0.512924
C74	C	2.038348	-0.514455	-0.012924
C75	C	1.815836	-0.357762	-0.512880
C76	C	2.315836	0.142238	-0.012880
C77	C	1.934141	-0.357769	-0.512895
C78	C	2.434141	0.142231	-0.012895
C79	C	1.538286	-0.357680	-0.790464
C80	C	2.038286	0.142320	-0.290464
C81	C	1.538316	-0.357652	-0.908770
C82	C	2.038316	0.142348	-0.408770
C83	C	1.538326	-0.164039	-0.512909
C84	C	2.038326	0.335961	-0.012909
C85	C	1.538373	-0.081493	-0.512937
C86	C	2.038373	0.418507	-0.012937
C87	C	1.467201	-0.407235	-0.977997
C88	C	1.967201	0.092765	-0.477997
C89	C	1.564321	-0.425381	-1.048787
C90	C	2.064321	0.074619	-0.548787
C91	C	1.441273	-0.339461	-1.048779
C92	C	1.941273	0.160539	-0.548779
C93	C	1.635487	-0.375834	-0.978001
C94	C	2.135487	0.124166	-0.478001
C95	C	1.512373	-0.289882	-0.977988
C96	C	2.012373	0.210118	-0.477988
C97	C	1.609560	-0.308003	-1.048745
C98	C	2.109560	0.191997	-0.548745
C99	C	1.538205	-0.357756	-0.236302
C100	C	2.038205	0.142244	0.263698
C101	C	1.538381	-0.357575	-0.117997
C102	C	2.038381	0.142425	0.382003
H103	H	1.105052	-0.449413	-0.643973
H104	H	1.605052	0.050587	-0.143973
Cl105	Cl	1.478397	-0.201474	-0.929932
Cl106	Cl	1.978397	0.298526	-0.429932
H107	H	1.407010	-0.903554	-0.644138
H108	H	1.907010	-0.403554	-0.144138
H109	H	1.407108	-0.449231	-0.946933
H110	H	1.907108	0.050769	-0.446933
Cl111	Cl	0.955224	-0.513881	-0.452472
Cl112	Cl	1.455224	-0.013881	0.047528
Cl113	Cl	1.762271	-0.399648	-0.930209
Cl114	Cl	2.262271	0.100352	-0.430209
Cl115	Cl	0.955316	-0.243193	-0.349344
Cl116	Cl	1.455316	0.256807	0.150656
Cl117	Cl	1.121992	-0.399368	-0.288847
Cl118	Cl	1.621992	0.100632	0.211153
Cl119	Cl	1.702363	-0.799235	-0.349185
Cl120	Cl	2.202363	-0.299235	0.150815
Cl121	Cl	1.598255	-0.513812	-1.096803
Cl122	Cl	2.098255	-0.013812	-0.596803
H123	H	1.359122	-0.811051	-0.464664
H124	H	1.859122	-0.311051	0.035336
H125	H	1.105299	-0.232715	-0.561164
H126	H	1.605299	0.267285	-0.061164
Cl127	Cl	1.478508	-0.915706	-0.288961
Cl128	Cl	1.978508	-0.415706	0.211039
H129	H	1.669797	-0.266039	-1.079613
H130	H	2.169797	0.233961	-0.579613
H131	H	1.359177	-0.324108	-1.079870
H132	H	1.859177	0.175892	-0.579870
Cl133	Cl	1.598324	-0.799182	-0.736891
Cl134	Cl	2.098324	-0.299182	-0.236891
Cl135	Cl	0.955742	-0.315968	-0.736968
Cl136	Cl	1.455742	0.184032	-0.236968
Cl137	Cl	1.762187	-0.915431	-0.573089
Cl138	Cl	2.262187	-0.415431	-0.073089
