data_functionalizedCrystal
_audit_creation_method	'MofGen! by Chris Wilmer'
_symmetry_space_group_name_H-M	'P1'
_symmetry_Int_Tables_number	1
_symmetry_cell_setting	triclinic
loop_
_symmetry_equiv_pos_as_xyz
  x,y,z
_cell_length_a	6.817900
_cell_length_b	15.866870
_cell_length_c	16.255661
_cell_angle_alpha	112.481265
_cell_angle_beta	103.488922
_cell_angle_gamma	102.655915
loop_
_atom_site_label
_atom_site_type_symbol
_atom_site_fract_x
_atom_site_fract_y
_atom_site_fract_z
V1	V	-4.052302	-0.133532	-0.305528
O2	O	-4.013114	0.005619	-0.257095
O3	O	-4.028858	-0.264004	-0.344425
O4	O	-4.003538	-0.131828	-0.420080
O5	O	-4.038609	-0.127472	-0.180917
V6	V	-4.532744	-0.116847	-0.285644
O7	O	-4.320320	-0.170133	-0.349144
O8	O	-4.714923	-0.080246	-0.242028
O9	O	-4.332981	0.013626	-0.246747
O10	O	-4.689329	-0.255998	-0.334077
O11	O	-4.663834	-0.122906	-0.410255
O12	O	-4.358302	-0.118551	-0.171093
C13	C	-3.879942	-0.295800	-0.350182
C14	C	-3.942057	-0.402465	-0.382749
C15	C	-3.847642	-0.127194	-0.446685
C16	C	-3.889220	-0.126665	-0.540600
C17	C	-3.931920	-0.683662	-0.080662
C18	C	-3.990297	-0.783895	-0.111292
C19	C	-4.076067	-0.811728	-0.274974
C20	C	-4.017687	-0.711496	-0.244357
C21	C	-3.945618	-0.647470	-0.147200
C22	C	-4.031385	-0.675303	-0.310896
C23	C	-3.973020	-0.575079	-0.280281
C24	C	-3.900957	-0.511048	-0.183129
C25	C	-3.887253	-0.547246	-0.116586
C26	C	-4.103469	-0.739331	-0.408053
C27	C	-4.117168	-0.703138	-0.474591
C28	C	-4.058788	-0.602912	-0.443977
C29	C	-3.986724	-0.538881	-0.346824
C30	C	-4.072491	-0.566714	-0.510520
C31	C	-4.014126	-0.466491	-0.479906
C32	C	-3.928359	-0.438657	-0.316210
C33	C	-3.798563	-0.120335	-0.761444
C34	C	-3.970636	-0.202032	-0.856407
C35	C	-3.965414	-0.125671	-0.712539
C36	C	-3.867453	-0.043038	-0.784922
C37	C	-4.038997	-0.124707	-0.878622
C38	C	-4.136983	-0.207441	-0.806294
C39	C	-4.033723	-0.048376	-0.734772
C40	C	-4.205937	-0.130096	-0.829722
C41	C	-3.923020	-0.126227	-0.616863
C42	C	-4.081410	-0.124158	-0.974299
C43	C	-4.145241	0.045416	-0.240990
C44	C	-4.062363	0.152080	-0.208429
C45	C	-4.177540	-0.123187	-0.144484
C46	C	-4.115200	-0.123712	-0.050566
H47	H	-3.853443	-0.429440	-0.158205
O48	O	-4.146420	-0.873898	-0.369369
C49	C	-4.411480	-0.932970	-0.524125
C50	C	-4.332074	-0.862534	-0.417242
H51	H	-4.561564	-0.923792	-0.562864
H52	H	-4.451012	-1.010843	-0.534637
H53	H	-4.280532	-0.916370	-0.554012
H54	H	-4.462927	-0.879045	-0.387284
H55	H	-4.292478	-0.784682	-0.406794
H56	H	-3.626039	-0.116313	-0.731710
H57	H	-3.944413	-0.266995	-0.908759
H58	H	-4.059868	0.016591	-0.682396
O59	O	-4.411791	-0.134867	-0.865048
C60	C	-4.645139	-0.057150	-0.917401
C61	C	-4.411910	-0.051608	-0.877369
H62	H	-4.645313	0.010146	-0.927393
H63	H	-4.730326	-0.060947	-0.865660
H64	H	-4.732454	-0.124798	-0.988856
H65	H	-4.324414	0.016035	-0.805926
H66	H	-4.326886	-0.047863	-0.929175
O67	O	-4.159785	-0.836672	-0.437739
C68	C	-4.046071	-0.968202	-0.431265
C69	C	-3.981995	-0.857951	-0.397590
H70	H	-3.902378	-0.985439	-0.398803
H71	H	-4.099839	-1.007791	-0.512129
H72	H	-4.183508	-0.992993	-0.407741
H73	H	-3.844513	-0.833072	-0.421046
H74	H	-3.928360	-0.818426	-0.316728
H75	H	-3.753906	0.026423	-0.776863
O76	O	-4.272143	-0.290487	-0.816106
C77	C	-4.304711	-0.436307	-0.798220
C78	C	-4.151416	-0.342304	-0.787085
H79	H	-4.207163	-0.478218	-0.774744
H80	H	-4.413485	-0.483005	-0.875877
H81	H	-4.406991	-0.417251	-0.752218
H82	H	-4.048997	-0.361272	-0.833033
H83	H	-4.042787	-0.295632	-0.709405
H84	H	-3.979130	-0.813357	-0.057100
O85	O	-4.187520	-0.765308	-0.568987
C86	C	-4.452580	-0.824380	-0.723743
C87	C	-4.373174	-0.753944	-0.616859
H88	H	-4.602664	-0.815202	-0.762482
H89	H	-4.492112	-0.902253	-0.734254
H90	H	-4.321632	-0.807780	-0.753630
H91	H	-4.504027	-0.770455	-0.586902
H92	H	-4.333578	-0.676092	-0.606412
H93	H	-3.869641	-0.386522	-0.237094
H94	H	-3.873202	-0.631528	-0.001546
O95	O	-3.817393	-0.485181	-0.022174
C96	C	-3.738392	-0.468136	0.136966
C97	C	-3.817566	-0.538532	0.030081
H98	H	-3.738463	-0.511240	0.179246
H99	H	-3.849502	-0.424308	0.151012
H100	H	-3.568434	-0.416728	0.159773
H101	H	-3.987491	-0.589999	0.007201
H102	H	-3.706308	-0.582290	0.016094
H103	H	-4.131196	-0.618859	-0.589626
O104	O	-4.027736	-0.431287	-0.544511
C105	C	-4.185476	-0.338883	-0.610368
C106	C	-4.170292	-0.378712	-0.537175
H107	H	-4.300690	-0.296350	-0.604448
H108	H	-4.247124	-0.401823	-0.685094
H109	H	-4.019706	-0.288931	-0.595701
H110	H	-4.335992	-0.428650	-0.551753
H111	H	-4.108530	-0.315724	-0.462473
