data_functionalizedCrystal
_audit_creation_method	'MofGen! by Chris Wilmer'
_symmetry_space_group_name_H-M	'P1'
_symmetry_Int_Tables_number	1
_symmetry_cell_setting	triclinic
loop_
_symmetry_equiv_pos_as_xyz
  x,y,z
_cell_length_a	27.732048
_cell_length_b	27.732048
_cell_length_c	13.330367
_cell_angle_alpha	89.990394
_cell_angle_beta	89.997949
_cell_angle_gamma	82.642655
loop_
_atom_site_label
_atom_site_type_symbol
_atom_site_fract_x
_atom_site_fract_y
_atom_site_fract_z
O1	O	0.640929	0.057517	-0.083305
O2	O	1.140929	0.557517	0.416695
O3	O	0.500136	0.066262	-0.083337
O4	O	1.000136	0.566262	0.416663
O5	O	0.574905	-0.008507	-0.083301
O6	O	1.074905	0.491493	0.416699
O7	O	0.566160	0.132286	-0.083341
O8	O	1.066160	0.632286	0.416659
O9	O	0.574895	-0.008509	0.083546
O10	O	1.074895	0.491491	0.583546
O11	O	0.500125	0.066261	0.083510
O12	O	1.000125	0.566261	0.583510
O13	O	0.640919	0.057515	0.083542
O14	O	1.140919	0.557515	0.583542
Cu15	Cu	0.570521	0.061888	0.098761
Cu16	Cu	1.070521	0.561888	0.598761
Cu17	Cu	0.570534	0.061890	-0.098555
Cu18	Cu	1.070534	0.561890	0.401445
O19	O	0.566149	0.132285	0.083506
O20	O	1.066149	0.632285	0.583506
C21	C	0.482124	0.066078	0.000083
C22	C	0.982124	0.566078	0.500083
C23	C	0.428469	0.065525	0.000072
C24	C	0.928469	0.565525	0.500072
C25	C	0.089654	0.106229	0.000103
C26	C	0.589654	0.606229	0.500103
C27	C	-0.112006	0.104178	0.000113
C28	C	0.387994	0.604178	0.500113
O29	O	-0.143262	0.141398	0.000146
O30	O	0.356738	0.641398	0.500146
N31	N	-0.131130	0.059843	0.000124
N32	N	0.368870	0.559843	0.500124
C33	C	-0.099835	0.016017	0.000139
C34	C	0.400165	0.516017	0.500139
O35	O	-0.120728	-0.021740	0.000159
O36	O	0.379272	0.478260	0.500159
C37	C	0.101824	0.018068	0.000137
C38	C	0.601824	0.518068	0.500137
C39	C	0.120944	0.062407	0.000116
C40	C	0.620944	0.562407	0.500116
C41	C	0.108775	0.150563	0.000084
C42	C	0.608775	0.650563	0.500084
C43	C	0.159187	0.151075	0.000076
C44	C	0.659187	0.651075	0.500076
C45	C	0.190477	0.107253	0.000088
C46	C	0.690477	0.607253	0.500088
C47	C	0.171356	0.062919	0.000108
C48	C	0.671356	0.562919	0.500108
C49	C	0.133117	-0.025757	0.000159
C50	C	0.633117	0.474243	0.500159
C51	C	0.183535	-0.025240	0.000161
C52	C	0.683535	0.474760	0.500161
C53	C	0.202655	0.019098	0.000140
C54	C	0.702655	0.519098	0.500140
C55	C	0.253059	0.019609	0.000112
C56	C	0.753059	0.519609	0.500112
N57	N	0.272183	0.063944	0.000101
N58	N	0.772183	0.563944	0.500101
C59	C	0.240892	0.107766	0.000089
C60	C	0.740892	0.607766	0.500089
C61	C	-0.205709	0.014943	0.000138
C62	C	0.294291	0.514943	0.500138
C63	C	-0.256124	0.014430	0.000137
C64	C	0.243876	0.514430	0.500137
C65	C	-0.268291	0.102591	0.000113
C66	C	0.231709	0.602591	0.500113
C67	C	-0.217876	0.103104	0.000107
C68	C	0.282124	0.603104	0.500107
C69	C	-0.186585	0.059278	0.000127
C70	C	0.313415	0.559278	0.500127
C71	C	0.346761	0.108839	0.000072
C72	C	0.846761	0.608839	0.500072
C73	C	0.397178	0.109347	0.000060
C74	C	0.897178	0.609347	0.500060
C75	C	0.409341	0.021186	0.000089
C76	C	0.909341	0.521186	0.500089
C77	C	0.358929	0.020678	0.000096
C78	C	0.858929	0.520678	0.500096
C79	C	0.327639	0.064508	0.000090
C80	C	0.827639	0.564508	0.500090
O81	O	0.284343	-0.017592	0.000090
O82	O	0.784343	0.482408	0.500090
O83	O	0.261794	0.145518	0.000091
O84	O	0.761794	0.645518	0.500091
C85	C	0.039242	0.105716	0.000111
C86	C	0.539242	0.605716	0.500111
C87	C	0.020120	0.061382	0.000131
C88	C	0.520120	0.561382	0.500131
C89	C	0.051411	0.017560	0.000143
C90	C	0.551411	0.517560	0.500143
C91	C	-0.030294	0.060869	0.000130
C92	C	0.469706	0.560869	0.500130
C93	C	-0.061585	0.104691	0.000118
C94	C	0.438415	0.604691	0.500118
C95	C	-0.042461	0.149026	0.000107
C96	C	0.457539	0.649026	0.500107
C97	C	0.007951	0.149539	0.000099
C98	C	0.507951	0.649539	0.500099
C99	C	0.032287	-0.026775	0.000154
C100	C	0.532287	0.473225	0.500154
C101	C	-0.018125	-0.027284	0.000161
C102	C	0.481875	0.472716	0.500161
C103	C	-0.049416	0.016538	0.000149
C104	C	0.450584	0.516538	0.500149
C105	C	0.574716	-0.026515	0.000126
C106	C	1.074716	0.473485	0.500126
C107	C	0.574164	-0.080170	0.000134
C108	C	1.074164	0.419830	0.500134
C109	C	0.614867	-0.418985	0.000091
C110	C	1.114867	0.081015	0.500091
C111	C	0.612816	-0.620645	0.000077
C112	C	1.112816	-0.120645	0.500077
O113	O	0.650037	-0.651900	0.000041
O114	O	1.150037	-0.151900	0.500041
N115	N	0.568481	-0.639768	0.000068
N116	N	1.068481	-0.139768	0.500068
C117	C	0.524656	-0.608474	0.000056
C118	C	1.024656	-0.108474	0.500056
O119	O	0.486899	-0.629367	0.000037
O120	O	0.986899	-0.129367	0.500037
C121	C	0.526707	-0.406815	0.000063
C122	C	1.026707	0.093185	0.500063
C123	C	0.571045	-0.387694	0.000082
C124	C	1.071045	0.112306	0.500082
C125	C	0.659202	-0.399864	0.000110
C126	C	1.159202	0.100136	0.500110
C127	C	0.659714	-0.349452	0.000119
C128	C	1.159714	0.150548	0.500119
C129	C	0.615892	-0.318161	0.000110
C130	C	1.115892	0.181839	0.500110
C131	C	0.571557	-0.337282	0.000091
C132	C	1.071557	0.162718	0.500091
C133	C	0.482882	-0.375521	0.000044
C134	C	0.982882	0.124479	0.500044
C135	C	0.483399	-0.325104	0.000043
C136	C	0.983399	0.174896	0.500043
C137	C	0.527737	-0.305983	0.000062
C138	C	1.027737	0.194017	0.500062
C139	C	0.528247	-0.255580	0.000091
C140	C	1.028247	0.244420	0.500091
N141	N	0.572583	-0.236456	0.000100
N142	N	1.072583	0.263544	0.500100
C143	C	0.616405	-0.267747	0.000110
C144	C	1.116405	0.232253	0.500110
C145	C	0.523582	-0.714348	0.000054
C146	C	1.023582	-0.214348	0.500054
C147	C	0.523069	-0.764762	0.000054
C148	C	1.023069	-0.264762	0.500054
C149	C	0.611230	-0.776930	0.000073
C150	C	1.111230	-0.276930	0.500073
C151	C	0.611742	-0.726514	0.000080
C152	C	1.111742	-0.226514	0.500080
C153	C	0.567917	-0.695224	0.000063
C154	C	1.067917	-0.195224	0.500063
C155	C	0.617477	-0.161878	0.000129
C156	C	1.117477	0.338122	0.500129
C157	C	0.617986	-0.111461	0.000143
C158	C	1.117986	0.388539	0.500143
C159	C	0.529825	-0.099298	0.000118
C160	C	1.029825	0.400702	0.500118
C161	C	0.529316	-0.149710	0.000110
C162	C	1.029316	0.350290	0.500110
C163	C	0.573147	-0.180999	0.000112
C164	C	1.073147	0.319001	0.500112
O165	O	0.491047	-0.224296	0.000116
O166	O	0.991047	0.275704	0.500116
O167	O	0.654156	-0.246844	0.000106
O168	O	1.154156	0.253156	0.500106
C169	C	0.614355	-0.469397	0.000082
C170	C	1.114355	0.030603	0.500082
C171	C	0.570021	-0.488518	0.000064
C172	C	1.070021	0.011482	0.500064
C173	C	0.526198	-0.457228	0.000055
C174	C	1.026198	0.042772	0.500055
C175	C	0.569508	-0.538933	0.000064
C176	C	1.069508	-0.038933	0.500064
C177	C	0.613330	-0.570223	0.000073
C178	C	1.113330	-0.070223	0.500073
C179	C	0.657665	-0.551100	0.000082
C180	C	1.157665	-0.051100	0.500082
C181	C	0.658177	-0.500688	0.000091
C182	C	1.158177	-0.000688	0.500091
C183	C	0.481863	-0.476351	0.000046
C184	C	0.981863	0.023649	0.500046
C185	C	0.481355	-0.526764	0.000038
C186	C	0.981355	-0.026764	0.500038
C187	C	0.525177	-0.558054	0.000047
C188	C	1.025177	-0.058054	0.500047
C189	C	0.658931	0.057699	0.000120
C190	C	1.158931	0.557699	0.500120
C191	C	0.712586	0.058252	0.000125
C192	C	1.212586	0.558252	0.500125
C193	C	0.566338	0.150292	0.000078
C194	C	1.066338	0.650292	0.500078
C195	C	0.566891	0.203947	0.000063
C196	C	1.066891	0.703947	0.500063
N197	N	0.570515	0.061886	0.237542
N198	N	1.070515	0.561886	0.737542
N199	N	0.570543	0.061887	-0.237337
N200	N	1.070543	0.561887	0.262663
C201	C	0.537424	0.094985	0.710149
C202	C	1.037424	0.594985	1.210149
C203	C	0.603656	0.028791	0.710149
C204	C	1.103656	0.528791	1.210149
C205	C	0.603650	0.028789	0.605131
C206	C	1.103650	0.528789	1.105131
C207	C	0.570532	0.061886	0.552617
C208	C	1.070532	0.561886	1.052617
C209	C	0.537419	0.094985	0.605121
C210	C	1.037419	0.594985	1.105121
C211	C	0.636766	-0.004306	0.552619
C212	C	1.136766	0.495694	1.052619
C213	C	0.636762	-0.004308	0.447594
C214	C	1.136762	0.495692	0.947594
C215	C	0.603641	0.028787	0.395078
C216	C	1.103641	0.528787	0.895078
C217	C	0.570526	0.061887	0.447589
C218	C	1.070526	0.561887	0.947589
C219	C	0.537408	0.094984	0.395075
C220	C	1.037408	0.594984	0.895075
C221	C	0.504290	0.128082	0.447584
C222	C	1.004290	0.628082	0.947584
C223	C	0.504298	0.128080	0.552605
C224	C	1.004298	0.628080	1.052605
C225	C	0.603634	0.028789	0.290056
C226	C	1.103634	0.528789	0.790056
C227	C	0.537402	0.094985	0.290047
C228	C	1.037402	0.594985	0.790047
H229	H	0.321291	0.144530	0.000070
H230	H	0.821291	0.644530	0.500070
O231	O	0.114530	-0.068816	0.000006
O232	O	0.614530	0.431184	0.500006
C233	C	0.085724	-0.071757	-0.086388
C234	C	0.585724	0.428243	0.413612
H235	H	0.097456	-0.046588	-0.146800
H236	H	0.597456	0.453412	0.353200
H237	H	0.090544	-0.110750	-0.115372
H238	H	0.590544	0.389250	0.384628
H239	H	0.045879	-0.060313	-0.066853
H240	H	0.545879	0.439687	0.433147
O241	O	-0.072813	0.191627	0.000229
O242	O	0.427187	0.691627	0.500229
C243	C	-0.064207	0.218563	0.086646
C244	C	0.435793	0.718563	0.586646
H245	H	-0.025871	0.206407	0.115453
H246	H	0.474129	0.706407	0.615453
H247	H	-0.068056	0.258906	0.067202
H248	H	0.431944	0.758906	0.567202
H249	H	-0.091735	0.212157	0.147160
H250	H	0.408265	0.712157	0.647160
O251	O	-0.036615	-0.070400	0.000224
O252	O	0.463385	0.429600	0.500224
C253	C	0.001820	-0.108965	0.000210
C254	C	0.501820	0.391035	0.500210
H255	H	0.035972	-0.095672	0.031781
H256	H	0.535972	0.404328	0.531781
H257	H	-0.008485	-0.139942	0.048671
H258	H	0.491515	0.360058	0.548671
H259	H	0.009051	-0.122467	-0.079829
H260	H	0.509051	0.377533	0.420171
O261	O	0.635801	-0.003426	0.761052
O262	O	1.135801	0.496574	1.261052
C263	C	0.628288	-0.051223	0.735432
C264	C	1.128288	0.448777	1.235432
H265	H	0.609656	-0.051034	0.659180
H266	H	1.109656	0.448966	1.159180
H267	H	0.664796	-0.075285	0.731849
H268	H	1.164796	0.424715	1.231849
H269	H	0.604336	-0.065999	0.794549
H270	H	1.104336	0.434001	1.294549
H271	H	0.663733	-0.031250	0.595379
H272	H	1.163733	0.468750	1.095379
O273	O	0.668947	-0.036507	0.396747
O274	O	1.168947	0.463493	0.896747
C275	C	0.698187	-0.065710	0.465619
C276	C	1.198187	0.434290	0.965619
H277	H	0.678379	-0.066117	0.540491
H278	H	1.178379	0.433883	1.040491
H279	H	0.705848	-0.104366	0.435292
H280	H	1.205848	0.395634	0.935292
H281	H	0.733978	-0.050262	0.476767
H282	H	1.233978	0.449738	0.976767
O283	O	0.635753	-0.003419	0.239083
O284	O	1.135753	0.496581	0.739083
C285	C	0.628276	-0.051222	0.264770
C286	C	1.128276	0.448778	0.764770
H287	H	0.589583	-0.051202	0.293662
H288	H	1.089583	0.448798	0.793662
H289	H	0.634015	-0.075514	0.195701
H290	H	1.134015	0.424486	0.695701
H291	H	0.655184	-0.065605	0.325717
H292	H	1.155184	0.434395	0.825717
O293	O	0.472066	0.160182	0.603570
O294	O	0.972066	0.660182	1.103570
C295	C	0.424274	0.152661	0.577914
C296	C	0.924274	0.652661	1.077914
H297	H	0.424327	0.113961	0.549053
H298	H	0.924327	0.613961	1.049053
H299	H	0.399981	0.158384	0.646992
H300	H	0.899981	0.658384	1.146992
H301	H	0.409868	0.179554	0.516954
H302	H	0.909868	0.679554	1.016954
H303	H	-0.202311	0.139207	0.000096
H304	H	0.297689	0.639207	0.500096
O305	O	0.062700	-0.069333	0.000336
O306	O	0.562700	0.430667	0.500336
C307	C	0.092239	-0.071679	0.086727
C308	C	0.592239	0.428321	0.586727
H309	H	0.073600	-0.046822	0.147127
H310	H	0.573600	0.453178	0.647127
H311	H	0.098189	-0.110662	0.115733
H312	H	0.598189	0.389338	0.615733
H313	H	0.128814	-0.059452	0.067179
H314	H	0.628814	0.440548	0.567179
O315	O	-0.298760	0.145116	0.000148
O316	O	0.201240	0.645116	0.500148
C317	C	-0.347355	0.135150	0.000124
C318	C	0.152645	0.635150	0.500124
H319	H	-0.349005	0.097194	0.031715
H320	H	0.150995	0.597194	0.531715
H321	H	-0.370406	0.163101	0.048563
H322	H	0.129594	0.663101	0.548563
H323	H	-0.361950	0.137097	-0.079921
H324	H	0.138050	0.637097	0.420079
O325	O	0.438293	-0.545358	0.000196
O326	O	0.938293	-0.045358	0.500196
C327	C	0.435349	-0.574177	0.086583
C328	C	0.935349	-0.074177	0.586583
H329	H	0.460511	-0.562449	0.146999
H330	H	0.960511	-0.062449	0.646999
H331	H	0.396353	-0.569367	0.115567
H332	H	0.896353	-0.069367	0.615567
H333	H	0.446802	-0.614018	0.067040
H334	H	0.946802	-0.114018	0.567040
O335	O	0.213949	-0.067801	0.000354
O336	O	0.713949	0.432199	0.500354
C337	C	0.243485	-0.070139	0.086749
C338	C	0.743485	0.429861	0.586749
H339	H	0.224842	-0.045278	0.147139
H340	H	0.724842	0.454722	0.647139
H341	H	0.249435	-0.109120	0.115767
H342	H	0.749435	0.390880	0.615767
H343	H	0.280059	-0.057912	0.067202
H344	H	0.780059	0.442088	0.567202
O345	O	0.415670	0.152462	0.000087
O346	O	0.915670	0.652462	0.500087
C347	C	0.377238	0.191029	0.000056
C348	C	0.877238	0.691029	0.500056
H349	H	0.343086	0.177738	0.031652
H350	H	0.843086	0.677738	0.531652
H351	H	0.387547	0.222006	0.048485
H352	H	0.887547	0.722006	0.548485
H353	H	0.370003	0.204529	-0.079992
H354	H	0.870003	0.704529	0.420008
H355	H	0.446777	-0.391080	0.000022
H356	H	0.946777	0.108920	0.500022
H357	H	0.654093	-0.095896	0.000161
H358	H	1.154093	0.404104	0.500161
H359	H	-0.271687	-0.021674	0.000138
H360	H	0.228313	0.478326	0.500138
H361	H	0.447710	-0.299629	0.000027
H362	H	0.947710	0.200371	0.500027
H363	H	0.653168	-0.187348	0.000127
H364	H	1.153168	0.312652	0.500127
O365	O	0.701290	-0.482198	0.000059
O366	O	1.201290	0.017802	0.500059
C367	C	0.739853	-0.520634	0.000089
C368	C	1.239853	-0.020634	0.500089
H369	H	0.726561	-0.554782	-0.031503
H370	H	1.226561	-0.054782	0.468497
H371	H	0.770836	-0.510326	-0.048344
H372	H	1.270836	-0.010326	0.451656
H373	H	0.753347	-0.527876	0.080137
H374	H	1.253347	-0.027876	0.580137
H375	H	0.695819	-0.333889	0.000130
H376	H	1.195819	0.166111	0.500130
H377	H	0.494146	-0.073812	0.000114
H378	H	0.994146	0.426188	0.500114
H379	H	0.646911	-0.802415	0.000081
H380	H	1.146911	-0.302415	0.500081
O381	O	0.480975	-0.684005	-0.000088
O382	O	0.980975	-0.184005	0.499912
C383	C	0.454043	-0.692612	-0.086515
C384	C	0.954043	-0.192612	0.413485
H385	H	0.466213	-0.730943	-0.115325
H386	H	0.966213	-0.230943	0.384675
H387	H	0.413701	-0.688781	-0.067084
H388	H	0.913701	-0.188781	0.432916
H389	H	0.460438	-0.665074	-0.147021
H390	H	0.960438	-0.165074	0.352979
O391	O	0.486205	-0.168206	0.000051
O392	O	0.986205	0.331794	0.500051
C393	C	0.447637	-0.129775	0.000074
C394	C	0.947637	0.370225	0.500074
H395	H	0.460929	-0.095617	-0.031492
H396	H	0.960929	0.404383	0.468508
H397	H	0.416664	-0.140076	-0.048386
H398	H	0.916664	0.359924	0.451614
H399	H	0.434129	-0.122556	0.080116
H400	H	0.934129	0.377444	0.580116
H401	H	-0.180236	-0.020747	0.000155
H402	H	0.319764	0.479253	0.500155
O403	O	0.439260	-0.446009	-0.000091
O404	O	0.939260	0.053991	0.499909
C405	C	0.412328	-0.454611	-0.086520
C406	C	0.912328	0.045389	0.413480
H407	H	0.424497	-0.492940	-0.115338
H408	H	0.924497	0.007060	0.384662
H409	H	0.371985	-0.450780	-0.067087
H410	H	0.871985	0.049220	0.432913
H411	H	0.418723	-0.427070	-0.147020
H412	H	0.918723	0.072930	0.352980
O413	O	0.177676	0.194189	0.000112
O414	O	0.677676	0.694189	0.500112
C415	C	0.139240	0.232752	0.000081
C416	C	0.639240	0.732752	0.500081
H417	H	0.105089	0.219455	0.031668
H418	H	0.605089	0.719455	0.531668
H419	H	0.149543	0.263729	0.048519
H420	H	0.649543	0.763729	0.548519
H421	H	0.132007	0.246254	-0.079966
H422	H	0.632007	0.746254	0.420034
H423	H	0.477327	0.155032	0.404815
H424	H	0.977327	0.655032	0.904815
H425	H	0.343360	-0.015426	0.000098
H426	H	0.843360	0.484574	0.500098
O427	O	0.700222	-0.581520	-0.000089
O428	O	1.200222	-0.081520	0.499911
C429	C	0.702555	-0.611044	-0.086494
C430	C	1.202555	-0.111044	0.413506
H431	H	0.677700	-0.592387	-0.146890
H432	H	1.177700	-0.092387	0.353110
H433	H	0.741536	-0.617001	-0.115495
H434	H	1.241536	-0.117001	0.384505
H435	H	0.690317	-0.647616	-0.066965
H436	H	1.190317	-0.147616	0.433035
O437	O	0.078335	0.193105	-0.000068
O438	O	0.578335	0.693105	0.499932
C439	C	0.048823	0.195454	-0.086499
C440	C	0.548823	0.695454	0.413501
H441	H	0.046546	0.157106	-0.115287
H442	H	0.546546	0.657106	0.384713
H443	H	0.010798	0.213759	-0.067081
H444	H	0.510798	0.713759	0.432919
H445	H	0.065259	0.217396	-0.147017
H446	H	0.565259	0.717396	0.352983
H447	H	0.023514	0.185643	0.000084
H448	H	0.523514	0.685643	0.500084
H449	H	0.510431	0.121935	0.247296
H450	H	1.010431	0.621935	0.747296
H451	H	0.434827	-0.014492	0.000095
H452	H	0.934827	0.485508	0.500095
H453	H	0.510459	0.121931	0.752905
H454	H	1.010459	0.621931	1.252905
O455	O	0.701819	-0.430187	0.000166
O456	O	1.201819	0.069813	0.500166
C457	C	0.741053	-0.402488	0.000155
C458	C	1.241053	0.097512	0.500155
H459	H	0.728484	-0.364770	0.031733
H460	H	1.228484	0.135230	0.531733
H461	H	0.771732	-0.421306	0.048611
H462	H	1.271732	0.078694	0.548611
H463	H	0.754669	-0.398991	-0.079884
H464	H	1.254669	0.101009	0.420116
H465	H	0.647846	-0.710950	0.000095
H466	H	1.147846	-0.210950	0.500095
H467	H	0.486964	-0.780325	0.000056
H468	H	0.986964	-0.280325	0.500056
