data_functionalizedCrystal
_audit_creation_method	'MofGen! by Chris Wilmer'
_symmetry_space_group_name_H-M	'P1'
_symmetry_Int_Tables_number	1
_symmetry_cell_setting	triclinic
loop_
_symmetry_equiv_pos_as_xyz
  x,y,z
_cell_length_a	10.489711
_cell_length_b	10.489741
_cell_length_c	11.295483
_cell_angle_alpha	94.137284
_cell_angle_beta	85.851708
_cell_angle_gamma	84.533091
loop_
_atom_site_label
_atom_site_type_symbol
_atom_site_fract_x
_atom_site_fract_y
_atom_site_fract_z
O1	O	1.702593	0.171271	-0.099068
O2	O	1.331392	0.188204	-0.099060
O3	O	1.525438	-0.005860	-0.099057
O4	O	1.508546	0.365336	-0.099071
O5	O	1.508394	0.011158	0.098993
O6	O	1.314348	0.205223	0.098990
O7	O	1.685549	0.188290	0.098983
Cu8	Cu	1.498392	0.198310	0.117070
Cu9	Cu	1.518548	0.178184	-0.117148
O10	O	1.491503	0.382355	0.098980
C11	C	1.275337	0.195443	-0.000034
C12	C	1.133706	0.191641	-0.000031
C13	C	0.951321	0.308344	-0.000049
C14	C	1.051870	0.241658	-0.097695
C15	C	1.035039	0.258406	0.097568
C16	C	0.981926	0.118108	-0.097783
C17	C	0.965078	0.134880	0.097567
C18	C	1.065601	0.068102	-0.000102
C19	C	1.515640	-0.044883	-0.000033
C20	C	1.511823	-0.186512	-0.000035
C21	C	1.388358	-0.254639	-0.000041
C22	C	1.438279	-0.338377	0.097607
C23	C	1.455112	-0.355131	-0.097655
C24	C	1.561788	-0.268377	0.097694
C25	C	1.578612	-0.285129	-0.097656
C26	C	1.628620	-0.368837	0.000016
C27	C	1.741603	0.181051	-0.000046
C28	C	1.883236	0.184852	-0.000057
C29	C	1.501300	0.421377	-0.000048
C30	C	1.505118	0.563005	-0.000053
N31	N	1.484225	0.212466	0.281806
N32	N	1.532726	0.164019	-0.281884
C33	C	1.634711	0.062050	0.531098
C34	C	1.624014	0.072757	0.655762
C35	C	1.452127	0.244577	0.655799
C36	C	1.462825	0.233871	0.531135
C37	C	1.554121	0.142606	0.468789
C38	C	1.564823	0.131907	0.344124
C39	C	1.392932	0.303720	0.344163
C40	C	1.382234	0.314427	0.468827
H41	H	1.089969	0.286820	-0.180247
H42	H	1.606872	-0.230449	0.180340
C43	C	1.735138	-0.038331	0.462511
C44	C	1.730205	-0.182141	0.479652
C45	C	1.830634	-0.282524	0.411068
C46	C	1.935997	-0.239097	0.325344
C47	C	1.940934	-0.095280	0.308199
C48	C	1.840504	0.005103	0.376783
H49	H	1.652205	-0.214295	0.543114
H50	H	1.826979	-0.388987	0.423760
H51	H	2.010341	-0.313406	0.274574
H52	H	2.018933	-0.063127	0.244737
H53	H	1.844160	0.111566	0.364091
C54	C	1.067263	0.338595	0.209095
C55	C	0.958532	0.401409	0.299619
C56	C	0.990750	0.481608	0.411140
C57	C	1.131700	0.498993	0.432137
C58	C	1.240440	0.436178	0.341611
C59	C	1.208221	0.355979	0.230090
H60	H	0.854185	0.388541	0.284077
H61	H	0.910253	0.528107	0.478153
H62	H	1.155550	0.558361	0.514692
H63	H	1.344787	0.449046	0.357153
H64	H	1.288718	0.309479	0.163077
C65	C	1.712667	-0.015852	0.724303
C66	C	1.813103	-0.116218	0.655719
C67	C	1.901760	-0.204832	0.724261
C68	C	1.889981	-0.193080	0.861386
C69	C	1.789541	-0.092710	0.929977
C70	C	1.700884	-0.004096	0.861436
H71	H	1.821827	-0.124921	0.554205
H72	H	1.976112	-0.279132	0.673484
H73	H	1.955610	-0.258677	0.912124
H74	H	1.780817	-0.084006	1.031492
H75	H	1.626532	0.070205	0.912212
H76	H	1.377788	0.318875	0.706577
H77	H	1.639164	0.057597	0.293363
H78	H	0.901639	0.409837	-0.000150
H79	H	1.307899	0.388730	0.519603
H80	H	1.730220	-0.418268	0.000068
H81	H	1.115063	-0.033497	-0.000147
C82	C	1.251215	-0.187527	0.000087
C83	C	1.150720	-0.201092	0.103541
C84	C	1.013582	-0.133977	0.103675
C85	C	0.976939	-0.053297	0.000357
C86	C	1.077436	-0.039728	-0.103105
C87	C	1.214574	-0.106843	-0.103239
H88	H	1.177843	-0.260819	0.180030
H89	H	0.939187	-0.144022	0.180264
H90	H	0.875421	-0.003614	0.000456
H91	H	1.050313	0.019999	-0.179594
H92	H	1.288969	-0.096798	-0.179828
C93	C	1.394116	-0.406560	-0.209182
C94	C	1.255188	-0.357721	-0.230601
C95	C	1.194182	-0.409144	-0.342120
C96	C	1.272103	-0.509407	-0.432220
C97	C	1.411038	-0.558252	-0.410803
C98	C	1.472045	-0.506829	-0.299284
H99	H	1.197500	-0.283495	-0.163902
H100	H	1.091332	-0.372984	-0.357974
H101	H	1.226942	-0.547473	-0.514773
H102	H	1.468727	-0.632478	-0.477502
H103	H	1.574894	-0.542988	-0.283430
H104	H	0.958230	0.058802	-0.180431
H105	H	0.926950	0.089765	0.180128
H106	H	1.327313	0.369318	0.293417
H107	H	1.378933	-0.362289	0.180163
H108	H	1.637914	-0.261185	-0.180217
