data_functionalizedCrystal
_audit_creation_method	'MofGen! by Chris Wilmer'
_symmetry_space_group_name_H-M	'P1'
_symmetry_Int_Tables_number	1
_symmetry_cell_setting	triclinic
loop_
_symmetry_equiv_pos_as_xyz
  x,y,z
_cell_length_a	15.995350
_cell_length_b	10.723024
_cell_length_c	9.198806
_cell_angle_alpha	90.003648
_cell_angle_beta	89.999047
_cell_angle_gamma	96.019878
loop_
_atom_site_label
_atom_site_type_symbol
_atom_site_fract_x
_atom_site_fract_y
_atom_site_fract_z
O1	O	0.117435	-1.655690	-0.120875
O2	O	0.617435	-1.155690	0.379125
O3	O	0.128675	-1.292394	-0.120879
O4	O	0.628675	-0.792394	0.379121
O5	O	0.001224	-1.483973	-0.120876
O6	O	0.501224	-0.983973	0.379124
O7	O	0.244886	-1.464111	-0.120879
O8	O	0.744886	-0.964111	0.379121
O9	O	0.001224	-1.483957	0.120909
O10	O	0.501224	-0.983957	0.620909
O11	O	0.128675	-1.292379	0.120906
O12	O	0.628675	-0.792379	0.620906
O13	O	0.117434	-1.655674	0.120910
O14	O	0.617434	-1.155674	0.620910
Cu15	Cu	0.123055	-1.474025	0.142985
Cu16	Cu	0.623055	-0.974025	0.642985
Cu17	Cu	0.123055	-1.474043	-0.142954
Cu18	Cu	0.623055	-0.974043	0.357046
O19	O	0.244885	-1.464096	0.120906
O20	O	0.744885	-0.964096	0.620906
C21	C	0.127857	-1.245897	0.000013
C22	C	0.627857	-0.745897	0.500013
C23	C	0.125410	-1.107374	0.000011
C24	C	0.625410	-0.607374	0.500011
C25	C	-0.029975	-1.483144	0.000014
C26	C	0.470025	-0.983144	0.500014
C27	C	-0.122940	-1.480682	0.000006
C28	C	0.377060	-0.980682	0.500006
C29	C	0.118252	-1.702171	0.000015
C30	C	0.618252	-1.202171	0.500015
C31	C	0.120700	-1.840694	0.000007
C32	C	0.620700	-1.340694	0.500007
C33	C	-0.460738	-1.471842	0.000011
C34	C	0.039262	-0.971842	0.500011
C35	C	-0.414088	-1.335403	-0.000533
C36	C	0.085912	-0.835403	0.499467
C37	C	-0.317383	-1.337865	0.000012
C38	C	0.182617	-0.837865	0.500012
C39	C	-0.293152	-1.476227	0.000007
C40	C	0.206848	-0.976227	0.500007
C41	C	-0.333843	-1.543515	0.138077
C42	C	0.166157	-1.043515	0.638077
C43	C	-0.430499	-1.540087	0.138192
C44	C	0.069501	-1.040087	0.638192
C45	C	-0.430840	-1.542923	-0.136763
C46	C	0.069160	-1.042923	0.363237
C47	C	-0.333895	-1.542891	-0.138587
C48	C	0.166105	-1.042891	0.361413
C49	C	-0.198441	-1.478712	0.000010
C50	C	0.301559	-0.978712	0.500010
C51	C	-0.555450	-1.469360	0.000017
C52	C	-0.055450	-0.969360	0.500017
C53	C	0.276085	-1.464924	0.000013
C54	C	0.776085	-0.964924	0.500013
C55	C	0.369049	-1.467386	0.000012
C56	C	0.869049	-0.967386	0.500012
N57	N	0.123054	-1.474022	0.344099
N58	N	0.623054	-0.974022	0.844099
C59	C	0.196725	-1.031482	0.000009
C60	C	0.696725	-0.531482	0.500009
C61	C	0.194197	-0.888310	0.000007
C62	C	0.694197	-0.388310	0.500007
N63	N	0.123049	-1.474056	-0.344068
N64	N	0.623049	-0.974056	0.155932
C65	C	0.069305	-1.554463	0.416297
C66	C	0.569305	-1.054463	0.916297
C67	C	0.069302	-1.554482	0.583709
C68	C	0.569302	-1.054482	1.083709
H69	H	-0.289265	-1.284972	-0.098962
H70	H	0.210735	-0.784972	0.401038
Br71	Br	0.199761	-1.359269	0.552466
Br72	Br	0.699761	-0.859269	1.052466
H73	H	0.255248	-0.823099	-0.000000
H74	H	0.755248	-0.323099	0.500000
H75	H	-0.432932	-1.280876	-0.099545
H76	H	0.067068	-0.780876	0.400455
H77	H	0.259651	-1.072501	0.000016
H78	H	0.759651	-0.572501	0.500016
Br79	Br	-0.447665	-1.244640	0.163070
Br80	Br	0.052335	-0.744640	0.663070
Br81	Br	-0.007605	-1.668917	0.312762
Br82	Br	0.492395	-1.168917	0.812762
H83	H	-0.289825	-1.284604	0.099153
H84	H	0.210175	-0.784604	0.599153
H85	H	0.023288	-1.623356	0.645797
H86	H	0.523288	-1.123356	1.145797
H87	H	-0.449082	-1.491008	0.241404
H88	H	0.050918	-0.991008	0.741404
H89	H	0.059646	-0.905898	-0.000001
H90	H	0.559646	-0.405898	0.499999
H91	H	0.169065	-1.405162	0.406225
H92	H	0.669065	-0.905162	0.906225
Br93	Br	-0.482813	-1.710588	-0.138318
Br94	Br	0.017187	-1.210588	0.361682
H95	H	-0.462172	-1.640258	0.144454
H96	H	0.037828	-1.140258	0.644454
Br97	Br	-0.309332	-1.712942	0.146638
Br98	Br	0.190668	-1.212942	0.646638
H99	H	-0.305731	-1.496767	0.240826
H100	H	0.194269	-0.996767	0.740826
Br101	Br	0.020521	-1.039020	0.000028
Br102	Br	0.520521	-0.539020	0.500028
H103	H	-0.451636	-1.498321	-0.241411
H104	H	0.048364	-0.998321	0.258589
H105	H	-0.306929	-1.493695	-0.240727
H106	H	0.193071	-0.993695	0.259273
H107	H	-0.317954	-1.643790	-0.146927
H108	H	0.182046	-1.143790	0.353073
