data_functionalizedCrystal
_audit_creation_method	'MofGen! by Chris Wilmer'
_symmetry_space_group_name_H-M	'P1'
_symmetry_Int_Tables_number	1
_symmetry_cell_setting	triclinic
loop_
_symmetry_equiv_pos_as_xyz
  x,y,z
_cell_length_a	12.827893
_cell_length_b	16.625546
_cell_length_c	16.625539
_cell_angle_alpha	89.969603
_cell_angle_beta	89.981396
_cell_angle_gamma	90.022439
loop_
_atom_site_label
_atom_site_type_symbol
_atom_site_fract_x
_atom_site_fract_y
_atom_site_fract_z
Zn1	Zn	1.597611	-0.321001	-0.455855
Zn2	Zn	1.930945	0.012333	-0.122522
Zn3	Zn	2.264278	0.345666	0.210811
Zn4	Zn	1.597486	-0.455844	-0.321018
Zn5	Zn	1.930819	-0.122511	0.012316
Zn6	Zn	2.264153	0.210823	0.345649
Zn7	Zn	1.422855	-0.321029	-0.321040
Zn8	Zn	1.756188	0.012304	0.012293
Zn9	Zn	2.089521	0.345638	0.345626
Zn10	Zn	1.422816	-0.455795	-0.455812
Zn11	Zn	1.756150	-0.122462	-0.122479
Zn12	Zn	2.089483	0.210872	0.210855
O13	O	1.510192	-0.388417	-0.388431
O14	O	1.843525	-0.055084	-0.055098
O15	O	2.176859	0.278249	0.278235
O16	O	1.743831	-0.338897	-0.437977
O17	O	2.077164	-0.005563	-0.104644
O18	O	2.410497	0.327770	0.228689
O19	O	1.574284	-0.437993	-0.208188
O20	O	1.907618	-0.104659	0.125145
O21	O	2.240951	0.228674	0.458478
O22	O	1.446105	-0.208193	-0.338952
O23	O	1.779438	0.125141	-0.005618
O24	O	2.112772	0.458474	0.327715
O25	O	1.743739	-0.437965	-0.338913
O26	O	2.077072	-0.104632	-0.005579
O27	O	2.410405	0.228701	0.327754
O28	O	1.574498	-0.208172	-0.438000
O29	O	1.907831	0.125161	-0.104666
O30	O	2.241165	0.458495	0.228667
O31	O	1.445983	-0.338945	-0.208205
O32	O	1.779317	-0.005611	0.125128
O33	O	2.112650	0.327722	0.458462
O34	O	1.276614	-0.338897	-0.338910
O35	O	1.609947	-0.005564	-0.005576
O36	O	1.943280	0.327769	0.327757
O37	O	1.446040	-0.437882	-0.568650
O38	O	1.779373	-0.104549	-0.235317
O39	O	2.112706	0.228785	0.098016
O40	O	1.276585	-0.437909	-0.437926
O41	O	1.609919	-0.104576	-0.104593
O42	O	1.943252	0.228757	0.228741
O43	O	1.574461	-0.338849	-0.568682
O44	O	1.907794	-0.005516	-0.235349
O45	O	2.241128	0.327817	0.097985
O46	O	1.574247	-0.568670	-0.338871
O47	O	1.907580	-0.235337	-0.005537
O48	O	2.240914	0.097997	0.327796
O49	O	1.445918	-0.568634	-0.437904
O50	O	1.779251	-0.235301	-0.104570
O51	O	2.112585	0.098033	0.228763
C52	C	1.238682	-0.388402	-0.388416
C53	C	1.572016	-0.055068	-0.055083
C54	C	1.905349	0.278265	0.278251
C55	C	1.122529	-0.388414	-0.388429
C56	C	1.455862	-0.055081	-0.055095
C57	C	1.789196	0.278252	0.278238
C58	C	1.070758	-0.437485	-0.437349
C59	C	1.404091	-0.104152	-0.104016
C60	C	1.737425	0.229181	0.229317
C61	C	0.950708	-0.437500	-0.437363
C62	C	1.284041	-0.104166	-0.104030
C63	C	1.617374	0.229167	0.229303
C64	C	1.510093	-0.597908	-0.388398
C65	C	1.843427	-0.264575	-0.055064
C66	C	2.176760	0.068759	0.278269
C67	C	1.510146	-0.687529	-0.388410
C68	C	1.843480	-0.354196	-0.055077
C69	C	2.176813	-0.020863	0.278256
C70	C	1.510329	-1.015705	-0.388494
C71	C	1.843662	-0.682371	-0.055161
C72	C	2.176995	-0.349038	0.278173
C73	C	1.510275	-0.924396	-0.388473
C74	C	1.843608	-0.591063	-0.055140
C75	C	2.176941	-0.257730	0.278194
C76	C	1.510237	-0.851620	-0.388452
C77	C	1.843570	-0.518287	-0.055118
C78	C	2.176903	-0.184953	0.278215
C79	C	1.510184	-0.760306	-0.388431
C80	C	1.843518	-0.426972	-0.055098
C81	C	2.176851	-0.093639	0.278235
C82	C	1.782762	-0.388433	-0.388447
C83	C	2.116095	-0.055100	-0.055114
C84	C	2.449429	0.278233	0.278219
C85	C	1.898915	-0.388440	-0.388454
C86	C	2.232249	-0.055107	-0.055121
C87	C	2.565582	0.278226	0.278213
C88	C	1.510260	-0.388357	-0.598740
C89	C	1.843593	-0.055024	-0.265407
C90	C	2.176927	0.278310	0.067926
C91	C	1.510289	-0.388332	-0.688362
C92	C	1.843622	-0.054998	-0.355028
C93	C	2.176956	0.278335	-0.021695
C94	C	1.510320	-0.178108	-0.388483
C95	C	1.843653	0.155225	-0.055150
C96	C	2.176986	0.488558	0.278184
C97	C	1.510374	-0.088487	-0.388505
C98	C	1.843708	0.244846	-0.055172
C99	C	2.177041	0.578180	0.278162
C100	C	1.510337	-0.388241	-1.016537
C101	C	1.843670	-0.054908	-0.683204
C102	C	2.177004	0.278425	-0.349871
C103	C	1.510321	-0.388269	-0.925229
C104	C	1.843654	-0.054936	-0.591896
C105	C	2.176988	0.278398	-0.258562
C106	C	1.510314	-0.388287	-0.852452
C107	C	1.843647	-0.054954	-0.519119
C108	C	2.176980	0.278380	-0.185786
C109	C	1.510296	-0.388313	-0.761138
C110	C	1.843630	-0.054980	-0.427805
C111	C	2.176963	0.278353	-0.094471
C112	C	1.510185	-0.388419	-0.178941
C113	C	1.843518	-0.055086	0.154393
C114	C	2.176851	0.278248	0.487726
C115	C	1.510358	-0.388217	-0.089320
C116	C	1.843691	-0.054884	0.244013
C117	C	2.177025	0.278449	0.577347
H118	H	1.115312	-0.479483	-0.479225
H119	H	1.448645	-0.146150	-0.145891
H120	H	1.781978	0.187184	0.187442
Br121	Br	0.876509	-0.507533	-0.507169
Br122	Br	1.209842	-0.174199	-0.173835
Br123	Br	1.543176	0.159134	0.159498
Br124	Br	0.973107	-0.318419	-0.318633
Br125	Br	1.306440	0.014915	0.014700
Br126	Br	1.639774	0.348248	0.348034
H127	H	1.077975	-0.346410	-0.346560
H128	H	1.411309	-0.013077	-0.013226
H129	H	1.744642	0.320256	0.320107
