data_functionalizedCrystal
_audit_creation_method	'MofGen! by Chris Wilmer'
_symmetry_space_group_name_H-M	'P1'
_symmetry_Int_Tables_number	1
_symmetry_cell_setting	triclinic
loop_
_symmetry_equiv_pos_as_xyz
  x,y,z
_cell_length_a	12.594516
_cell_length_b	12.594517
_cell_length_c	16.625539
_cell_angle_alpha	89.982613
_cell_angle_beta	89.978538
_cell_angle_gamma	90.015853
loop_
_atom_site_label
_atom_site_type_symbol
_atom_site_fract_x
_atom_site_fract_y
_atom_site_fract_z
Zn1	Zn	-0.423765	1.627226	-0.455944
Zn2	Zn	0.076235	2.127226	0.044056
Zn3	Zn	-0.601761	1.627129	-0.321123
Zn4	Zn	-0.101761	2.127129	0.178877
Zn5	Zn	-0.423796	1.449242	-0.321124
Zn6	Zn	0.076204	1.949242	0.178876
Zn7	Zn	-0.601702	1.449212	-0.455912
Zn8	Zn	-0.101702	1.949212	0.044088
O9	O	-0.512756	1.538202	-0.388526
O10	O	-0.012756	2.038202	0.111474
O11	O	-0.447389	1.776158	-0.438073
O12	O	0.052611	2.276158	0.061927
O13	O	-0.578191	1.603504	-0.208291
O14	O	-0.078191	2.103504	0.291709
O15	O	-0.274846	1.472905	-0.339022
O16	O	0.225154	1.972905	0.160978
O17	O	-0.578161	1.776087	-0.339021
O18	O	-0.078161	2.276087	0.160979
O19	O	-0.274824	1.603669	-0.438074
O20	O	0.225176	2.103669	0.061926
O21	O	-0.447441	1.472811	-0.208292
O22	O	0.052559	1.972811	0.291708
O23	O	-0.447384	1.300292	-0.338991
O24	O	0.052616	1.800292	0.161009
O25	O	-0.578060	1.472854	-0.568749
O26	O	-0.078060	1.972854	-0.068749
O27	O	-0.578090	1.300270	-0.438019
O28	O	-0.078090	1.800270	0.061981
O29	O	-0.447331	1.603640	-0.568773
O30	O	0.052669	2.103640	-0.068773
O31	O	-0.750699	1.603474	-0.338990
O32	O	-0.250699	2.103474	0.161010
O33	O	-0.750655	1.472760	-0.438019
O34	O	-0.250655	1.972760	0.061981
C35	C	-0.512735	1.261661	-0.388502
C36	C	-0.012735	1.761661	0.111498
C37	C	-0.512751	1.143355	-0.388511
C38	C	-0.012751	1.643355	0.111489
C39	C	-0.441563	1.074083	-0.334752
C40	C	0.058437	1.574083	0.165248
C41	C	-0.538650	1.003274	-0.314923
C42	C	-0.038650	1.503274	0.185077
C43	C	-0.415712	1.003366	-0.408355
C44	C	0.084288	1.503366	0.091645
C45	C	-0.609889	1.074104	-0.368643
C46	C	-0.109889	1.574104	0.131357
C47	C	-0.486886	1.074202	-0.462109
C48	C	0.013114	1.574202	0.037891
C49	C	-0.584040	1.003425	-0.442308
C50	C	-0.084040	1.503425	0.057692
C51	C	-0.789297	1.538132	-0.388518
C52	C	-0.289297	2.038132	0.111482
C53	C	-0.907603	1.538200	-0.388542
C54	C	-0.407603	2.038200	0.111458
C55	C	-0.976871	1.467097	-0.442366
C56	C	-0.476871	1.967097	0.057634
C57	C	-1.047728	1.441170	-0.368791
C58	C	-0.547728	1.941170	0.131209
C59	C	-1.047544	1.564223	-0.462129
C60	C	-0.547544	2.064223	0.037871
C61	C	-0.976902	1.512222	-0.314928
C62	C	-0.476902	2.012222	0.185072
C63	C	-0.976712	1.635320	-0.408316
C64	C	-0.476712	2.135320	0.091684
C65	C	-1.047537	1.609430	-0.334690
C66	C	-0.547537	2.109430	0.165310
C67	C	-0.235135	1.538301	-0.388552
C68	C	0.264865	2.038301	0.111448
C69	C	-0.116830	1.538343	-0.388563
C70	C	0.383170	2.038343	0.111437
C71	C	-0.512686	1.538254	-0.598835
C72	C	-0.012686	2.038254	-0.098835
C73	C	-0.512656	1.538276	-0.688456
C74	C	-0.012656	2.038276	-0.188456
C75	C	-0.512778	1.815823	-0.388550
C76	C	-0.012778	2.315823	0.111450
C77	C	-0.512788	1.934128	-0.388561
C78	C	-0.012788	2.434128	0.111439
C79	C	-0.512632	1.538294	-0.761239
C80	C	-0.012632	2.038294	-0.261239
C81	C	-0.512593	1.538318	-0.852547
C82	C	-0.012593	2.038318	-0.352547
C83	C	-0.512555	1.538344	-0.925324
C84	C	-0.012555	2.038344	-0.425324
C85	C	-0.512517	1.538370	-1.016638
C86	C	-0.012517	2.038370	-0.516638
C87	C	-0.512749	1.538211	-0.179035
C88	C	-0.012749	2.038211	0.320965
C89	C	-0.512479	1.538395	-0.089415
C90	C	-0.012479	2.038395	0.410585
H91	H	-0.560550	0.972121	-0.252703
H92	H	-0.060550	1.472121	0.247297
H93	H	-0.464956	1.105381	-0.524310
H94	H	0.035044	1.605381	-0.024310
Cl95	Cl	-0.929198	1.478183	-0.218832
Cl96	Cl	-0.429198	1.978183	0.281168
H97	H	-0.644326	0.972595	-0.487791
H98	H	-0.144326	1.472595	0.012209
Cl99	Cl	-0.348707	1.121989	-0.264480
Cl100	Cl	0.151293	1.621989	0.235520
Cl101	Cl	-1.095458	1.598117	-0.558195
Cl102	Cl	-0.595458	2.098117	-0.058195
H103	H	-0.691993	1.105048	-0.351811
H104	H	-0.191993	1.605048	0.148189
Cl105	Cl	-0.288990	0.955383	-0.434235
Cl106	Cl	0.211010	1.455383	0.065765
Cl107	Cl	-0.928958	1.374102	-0.512539
Cl108	Cl	-0.428958	1.874102	-0.012539
Cl109	Cl	-1.095886	1.314461	-0.342973
Cl110	Cl	-0.595886	1.814461	0.157027
H111	H	-1.078370	1.669621	-0.289129
H112	H	-0.578370	2.169621	0.210871
Cl113	Cl	-0.928514	1.761996	-0.434166
Cl114	Cl	-0.428514	2.261996	0.065834
