data_functionalizedCrystal
_audit_creation_method	'MofGen! by Chris Wilmer'
_symmetry_space_group_name_H-M	'P1'
_symmetry_Int_Tables_number	1
_symmetry_cell_setting	triclinic
loop_
_symmetry_equiv_pos_as_xyz
  x,y,z
_cell_length_a	14.853558
_cell_length_b	13.330367
_cell_length_c	14.853559
_cell_angle_alpha	90.002448
_cell_angle_beta	83.631294
_cell_angle_gamma	90.007028
loop_
_atom_site_label
_atom_site_type_symbol
_atom_site_fract_x
_atom_site_fract_y
_atom_site_fract_z
O1	O	1.196370	0.083406	0.117664
O2	O	1.696370	0.583406	0.617664
O3	O	0.933909	0.083410	0.131694
O4	O	1.433909	0.583410	0.631694
O5	O	1.072155	0.083407	-0.006551
O6	O	1.572155	0.583407	0.493449
O7	O	1.058125	0.083409	0.255910
O8	O	1.558125	0.583409	0.755910
O9	O	1.072135	-0.083440	-0.006554
O10	O	1.572135	0.416560	0.493446
O11	O	0.933889	-0.083437	0.131691
O12	O	1.433889	0.416563	0.631691
O13	O	1.196350	-0.083441	0.117661
O14	O	1.696350	0.416559	0.617661
Cu15	Cu	1.065118	-0.098673	0.124676
Cu16	Cu	1.565118	0.401327	0.624676
Cu17	Cu	1.065142	0.098643	0.124680
Cu18	Cu	1.565142	0.598643	0.624680
O19	O	1.058105	-0.083438	0.255907
O20	O	1.558105	0.416562	0.755907
C21	C	0.900310	-0.000013	0.131059
C22	C	1.400310	0.499987	0.631059
C23	C	0.800226	-0.000011	0.129158
C24	C	1.300226	0.499989	0.629158
N25	N	1.065108	-0.237455	0.124673
N26	N	1.565108	0.262545	0.624673
C27	C	0.753217	0.090941	0.128269
C28	C	1.253217	0.590941	0.628269
C29	C	0.753194	-0.090962	0.128254
C30	C	1.253194	0.409038	0.628254
C31	C	0.659160	-0.090964	0.126464
C32	C	1.159160	0.409036	0.626464
C33	C	0.612151	-0.000011	0.125574
C34	C	1.112151	0.499989	0.625574
C35	C	0.659175	0.090942	0.126475
C36	C	1.159175	0.590942	0.626475
C37	C	0.612130	-0.181916	0.125554
C38	C	1.112130	0.318084	0.625554
C39	C	0.518091	-0.181921	0.123762
C40	C	1.018091	0.318079	0.623762
C41	C	0.471079	-0.090968	0.122879
C42	C	0.971079	0.409032	0.622879
C43	C	0.518109	-0.000010	0.123781
C44	C	1.018109	0.499990	0.623781
C45	C	0.471100	0.090942	0.122891
C46	C	0.971100	0.590942	0.622891
C47	C	0.518127	0.181900	0.123800
C48	C	1.018127	0.681900	0.623800
C49	C	0.612163	0.181896	0.125592
C50	C	1.112163	0.681896	0.625592
C51	C	0.377042	-0.090963	0.121087
C52	C	0.877042	0.409037	0.621087
C53	C	0.377058	0.090943	0.121098
C54	C	0.877058	0.590943	0.621098
C55	C	1.003924	-0.710076	0.185871
C56	C	1.503924	-0.210076	0.685871
C57	C	1.126384	-0.710047	0.063481
C58	C	1.626384	-0.210047	0.563481
C59	C	1.126373	-0.605029	0.063479
C60	C	1.626373	-0.105029	0.563479
C61	C	1.065139	-0.552529	0.124674
C62	C	1.565139	-0.052529	0.624674
C63	C	1.003914	-0.605048	0.185872
C64	C	1.503914	-0.105048	0.685872
C65	C	1.187603	-0.552502	0.002288
C66	C	1.687603	-0.052502	0.502288
C67	C	1.187596	-0.447477	0.002284
C68	C	1.687596	0.052523	0.502284
C69	C	1.126356	-0.394976	0.063475
C70	C	1.626356	0.105024	0.563475
C71	C	1.065128	-0.447501	0.124675
C72	C	1.565128	0.052499	0.624675
C73	C	1.003893	-0.395002	0.185870
C74	C	1.503893	0.104998	0.685870
C75	C	0.942660	-0.447525	0.247066
C76	C	1.442660	0.052475	0.747066
C77	C	0.942674	-0.552547	0.247063
C78	C	1.442674	-0.052547	0.747063
C79	C	1.126343	-0.289954	0.063478
C80	C	1.626343	0.210046	0.563478
C81	C	1.003883	-0.289974	0.185871
C82	C	1.503883	0.210026	0.685871
C83	C	1.229949	-0.000016	0.118297
C84	C	1.729949	0.499984	0.618297
C85	C	1.330033	-0.000011	0.120197
C86	C	1.830033	0.499989	0.620197
C87	C	1.071510	-0.000015	-0.040142
C88	C	1.571510	0.499985	0.459858
C89	C	1.069609	-0.000009	-0.140226
C90	C	1.569609	0.499991	0.359774
N91	N	1.065159	0.237424	0.124676
N92	N	1.565159	0.737424	0.624676
C93	C	1.061557	0.090940	-0.563399
C94	C	1.561557	0.590940	-0.063399
C95	C	1.061535	-0.090963	-0.563397
C96	C	1.561535	0.409037	-0.063397
C97	C	1.063328	-0.090964	-0.469364
C98	C	1.563328	0.409036	0.030636
C99	C	1.064234	-0.000012	-0.422343
C100	C	1.564234	0.499988	0.077657
C101	C	1.063347	0.090942	-0.469356
C102	C	1.563347	0.590942	0.030644
C103	C	1.064206	-0.181916	-0.422342
C104	C	1.564206	0.318084	0.077658
C105	C	1.065998	-0.181921	-0.328303
C106	C	1.565998	0.318079	0.171697
C107	C	1.066911	-0.090967	-0.281282
C108	C	1.566911	0.409033	0.218718
C109	C	1.066025	-0.000010	-0.328301
C110	C	1.566025	0.499990	0.171699
C111	C	1.066932	0.090943	-0.281281
C112	C	1.566932	0.590943	0.218719
C113	C	1.066052	0.181901	-0.328299
C114	C	1.566052	0.681901	0.171701
C115	C	1.064260	0.181895	-0.422335
C116	C	1.564260	0.681895	0.077665
C117	C	1.068703	-0.090961	-0.187246
C118	C	1.568703	0.409039	0.312754
C119	C	1.068722	0.090945	-0.187239
C120	C	1.568722	0.590945	0.312761
C121	C	1.058749	-0.000014	0.289497
C122	C	1.558749	0.499986	0.789497
C123	C	1.060650	-0.000013	0.389581
C124	C	1.560650	0.499987	0.889581
H125	H	0.338789	0.165008	0.120379
H126	H	0.838789	0.665008	0.620379
C127	C	1.193738	-0.767800	-0.003829
C128	C	1.693738	-0.267800	0.496171
N129	N	1.244471	-0.811304	-0.054532
N130	N	1.744471	-0.311304	0.445468
H131	H	0.892806	-0.404768	0.296895
H132	H	1.392806	0.095232	0.796895
H133	H	1.237463	-0.595250	-0.047531
H134	H	1.737463	-0.095250	0.452469
H135	H	1.060844	0.164996	-0.601685
H136	H	1.560844	0.664996	-0.101685
H137	H	1.237454	-0.404719	-0.047546
H138	H	1.737454	0.095281	0.452454
C139	C	0.875319	-0.610330	0.314368
C140	C	1.375319	-0.110330	0.814368
N141	N	0.824587	-0.653857	0.365061
N142	N	1.324587	-0.153857	0.865061
C143	C	0.936565	-0.767852	0.253177
C144	C	1.436565	-0.267852	0.753177
N145	N	0.885828	-0.811370	0.303871
N146	N	1.385828	-0.311370	0.803871
C147	C	1.063194	-0.281957	-0.474068
C148	C	1.563194	0.218043	0.025932
N149	N	1.062429	-0.357311	-0.513032
N150	N	1.562429	0.142689	-0.013032
C151	C	1.066972	-0.281976	-0.276593
C152	C	1.566972	0.218024	0.223407
N153	N	1.067709	-0.357338	-0.237644
N154	N	1.567709	0.142662	0.262356
C155	C	0.466405	0.281945	0.122818
C156	C	0.966405	0.781945	0.622818
N157	N	0.427444	0.357296	0.122078
N158	N	0.927444	0.857296	0.622078
C159	C	0.804901	-0.191004	0.129280
C160	C	1.304901	0.308996	0.629280
N161	N	0.843848	-0.266359	0.130074
N162	N	1.343848	0.233641	0.630074
H163	H	1.176202	-0.247194	0.013657
H164	H	1.676202	0.252806	0.513657
C165	C	1.069720	0.191002	-0.135524
C166	C	1.569720	0.691002	0.364476
N167	N	1.070470	0.266366	-0.096573
N168	N	1.570470	0.766366	0.403427
C169	C	0.936541	-0.232233	0.253214
C170	C	1.436541	0.267767	0.753214
N171	N	0.885828	-0.188743	0.303948
N172	N	1.385828	0.311257	0.803948
C173	C	0.663836	-0.281956	0.126605
C174	C	1.163836	0.218044	0.626605
N175	N	0.702781	-0.357310	0.127426
N176	N	1.202781	0.142690	0.627426
H177	H	1.066783	0.255954	-0.290002
H178	H	1.566783	0.755954	0.209998
C179	C	1.069670	-0.191009	-0.135530
C180	C	1.569670	0.308991	0.364470
N181	N	1.070402	-0.266371	-0.096579
N182	N	1.570402	0.233629	0.403421
C183	C	1.060527	-0.191005	-0.615121
C184	C	1.560527	0.308995	-0.115121
N185	N	1.059768	-0.266361	-0.654083
N186	N	1.559768	0.233639	-0.154083
C187	C	0.663902	0.281941	0.126580
C188	C	1.163902	0.781941	0.626580
N189	N	0.702876	0.357294	0.127318
N190	N	1.202876	0.857294	0.627318
H191	H	0.791511	0.164997	0.129012
H192	H	1.291511	0.664997	0.629012
H193	H	0.479809	-0.255985	0.123022
H194	H	0.979809	0.244015	0.623022
C195	C	0.325317	-0.191011	0.120086
C196	C	0.825317	0.308989	0.620086
N197	N	0.286358	-0.266373	0.119334
N198	N	0.786358	0.233627	0.619334
C199	C	1.063283	0.281940	-0.474061
C200	C	1.563283	0.781940	0.025939
N201	N	1.062542	0.357293	-0.513024
N202	N	1.562542	0.857293	-0.013024
