data_functionalizedCrystal
_audit_creation_method	'MofGen! by Chris Wilmer'
_symmetry_space_group_name_H-M	'P1'
_symmetry_Int_Tables_number	1
_symmetry_cell_setting	triclinic
loop_
_symmetry_equiv_pos_as_xyz
  x,y,z
_cell_length_a	31.640172
_cell_length_b	18.760492
_cell_length_c	31.640172
_cell_angle_alpha	60.005473
_cell_angle_beta	90.008445
_cell_angle_gamma	59.996993
loop_
_atom_site_label
_atom_site_type_symbol
_atom_site_fract_x
_atom_site_fract_y
_atom_site_fract_z
Zr1	Zr	0.407165	0.780154	-0.055424
Zr2	Zr	0.907165	1.280154	0.444576
O3	O	0.339671	0.928867	-0.122917
O4	O	0.839671	1.428867	0.377083
O5	O	0.427857	0.631442	-0.034731
O6	O	0.927857	1.131442	0.465269
O7	O	0.427853	0.780136	-0.122902
O8	O	0.927853	1.280136	0.377098
O9	O	0.339676	0.780188	0.034802
O10	O	0.839676	1.280188	0.534802
O11	O	0.497410	0.780121	-0.122893
O12	O	0.997410	1.280121	0.377107
O13	O	0.339675	0.780173	-0.034746
O14	O	0.839675	1.280173	0.465254
O15	O	0.497418	0.514135	0.034829
O16	O	0.997418	1.014135	0.534829
O17	O	0.339668	1.046174	-0.122920
O18	O	0.839668	1.546174	0.377080
O19	O	0.488589	0.692598	-0.025902
O20	O	0.988589	1.192598	0.474098
O21	O	0.436681	0.692621	0.025994
O22	O	0.936681	1.192621	0.525994
O23	O	0.436675	0.867688	-0.077816
O24	O	0.936675	1.367688	0.422184
O25	O	0.384766	0.867710	-0.025919
O26	O	0.884766	1.367710	0.474081
Zr27	Zr	0.518102	0.780154	0.055513
Zr28	Zr	1.018102	1.280154	0.555513
Zr29	Zr	0.518100	0.780131	-0.055409
Zr30	Zr	1.018100	1.280131	0.444591
Zr31	Zr	0.407166	0.780178	0.055498
Zr32	Zr	0.907166	1.280178	0.555498
Zr33	Zr	0.407161	0.967246	-0.055428
Zr34	Zr	0.907161	1.467246	0.444572
Zr35	Zr	0.518106	0.593063	0.055517
Zr36	Zr	1.018106	1.093063	0.555517
O37	O	0.497409	0.928867	0.034820
O38	O	0.997409	1.428867	0.534820
O39	O	0.497407	0.928833	-0.122896
O40	O	0.997407	1.428833	0.377104
O41	O	0.339673	0.928901	0.034799
O42	O	0.839673	1.428901	0.534799
O43	O	0.585595	0.631442	0.123006
O44	O	1.085595	1.131442	0.623006
O45	O	0.585593	0.631408	-0.034710
O46	O	1.085593	1.131408	0.465290
O47	O	0.427860	0.631475	0.122985
O48	O	0.927860	1.131475	0.622985
O49	O	0.585590	0.780121	-0.034713
O50	O	1.085590	1.280121	0.465287
O51	O	0.497413	0.780173	0.122991
O52	O	0.997413	1.280173	0.622991
O53	O	0.427856	0.780188	0.122982
O54	O	0.927856	1.280188	0.622982
O55	O	0.585591	0.780136	0.034835
O56	O	1.085591	1.280136	0.534835
O57	O	0.427847	1.046155	-0.122908
O58	O	0.927847	1.546155	0.377092
O59	O	0.497419	0.514154	0.122997
O60	O	0.997419	1.014154	0.622997
O61	O	0.585598	0.514135	0.123009
O62	O	1.085598	1.014135	0.623009
O63	O	0.585597	0.514116	0.034841
O64	O	1.085597	1.014116	0.534841
O65	O	0.339670	1.046193	-0.034752
O66	O	0.839670	1.546193	0.465248
O67	O	0.427848	1.046174	-0.034740
O68	O	0.927848	1.546174	0.465260
O69	O	0.488591	0.692621	0.077905
O70	O	0.988591	1.192621	0.577905
O71	O	0.540500	0.692598	0.026008
O72	O	1.040500	1.192598	0.526008
O73	O	0.488586	0.867688	-0.025906
O74	O	0.988586	1.367688	0.474094
O75	O	0.436677	0.867710	0.025991
O76	O	0.936677	1.367710	0.525991
C77	C	0.462638	0.546132	0.000050
C78	C	0.962638	1.046132	0.500050
C79	C	0.462640	0.466707	0.000051
C80	C	0.962640	0.966707	0.500051
C81	C	0.435531	0.130924	0.027129
C82	C	0.935531	0.630924	0.527129
C83	C	0.489724	0.130905	-0.027051
C84	C	0.989724	0.630905	0.472949
C85	C	0.489728	0.205521	-0.027048
C86	C	0.989728	0.705521	0.472952
C87	C	0.462632	0.242842	0.000043
C88	C	0.962632	0.742842	0.500043
C89	C	0.435532	0.205548	0.027132
C90	C	0.935532	0.705548	0.527132
C91	C	0.516823	0.242827	-0.054141
C92	C	1.016823	0.742827	0.445859
C93	C	0.516828	0.317448	-0.054139
C94	C	1.016828	0.817448	0.445861
C95	C	0.489735	0.354766	-0.027044
C96	C	0.989735	0.854766	0.472956
C97	C	0.462634	0.317467	0.000046
C98	C	0.962634	0.817467	0.500046
C99	C	0.435538	0.354788	0.027137
C100	C	0.935538	0.854788	0.527137
C101	C	0.408440	0.317485	0.054231
C102	C	0.908440	0.817485	0.554231
C103	C	0.408439	0.242866	0.054227
C104	C	0.908439	0.742866	0.554227
C105	C	0.489736	0.429385	-0.027040
C106	C	0.989736	0.929385	0.472960
C107	C	0.435540	0.429413	0.027140
C108	C	0.935540	0.929413	0.527140
C109	C	0.323870	0.780184	0.000026
C110	C	0.823870	1.280184	0.500026
C111	C	0.276775	0.780194	0.000020
C112	C	0.776775	1.280194	0.500020
C113	C	0.011867	0.688750	0.027153
C114	C	0.511867	1.188750	0.527153
C115	C	-0.165118	0.688732	0.027164
C116	C	0.334882	1.188732	0.527164
O117	O	-0.164957	0.611004	0.050229
O118	O	0.335043	1.111004	0.550229
N119	N	-0.214346	0.780127	0.000064
N120	N	0.285654	1.280127	0.500064
C121	C	-0.219327	0.871532	-0.027036
C122	C	0.280673	1.371532	0.472964
O123	O	-0.265260	0.949268	-0.050081
O124	O	0.234740	1.449268	0.449919
C125	C	-0.042343	0.871549	-0.027043
C126	C	0.457657	1.371549	0.472957
C127	C	0.006885	0.780148	0.000053
C128	C	0.506885	1.280148	0.500053
C129	C	0.061093	0.597357	0.054248
C130	C	0.561093	1.097357	0.554248
C131	C	0.105336	0.597362	0.054243
C132	C	0.605336	1.097362	0.554243
C133	C	0.100354	0.688760	0.027143
C134	C	0.600354	1.188760	0.527143
C135	C	0.051128	0.780153	0.000048
C136	C	0.551128	1.280153	0.500048
C137	C	-0.047324	0.962953	-0.054141
C138	C	0.452676	1.462953	0.445859
C139	C	-0.003073	0.962949	-0.054139
C140	C	0.496927	1.462949	0.445861
C141	C	0.046155	0.871548	-0.027042
C142	C	0.546155	1.371548	0.472958
C143	C	0.090389	0.871557	-0.027057
C144	C	0.590389	1.371557	0.472943
N145	N	0.139618	0.780163	0.000042
N146	N	0.639618	1.280163	0.500042
C147	C	0.144600	0.688764	0.027142
C148	C	0.644600	1.188764	0.527142
C149	C	-0.312245	0.871517	-0.027032
C150	C	0.187755	1.371517	0.472968
C151	C	-0.356491	0.871513	-0.027031
C152	C	0.143509	1.371513	0.472969
C153	C	-0.302278	0.688713	0.027170
C154	C	0.197722	1.188713	0.527170
C155	C	-0.258032	0.688718	0.027166
C156	C	0.241968	1.188718	0.527166
C157	C	-0.263016	0.780123	0.000067
C158	C	0.236984	1.280123	0.500067
C159	C	0.237512	0.688782	0.027129
C160	C	0.737512	1.188782	0.527129
C161	C	0.281757	0.688796	0.027120
C162	C	0.781757	1.188796	0.527120
C163	C	0.227541	0.871595	-0.027079
C164	C	0.727541	1.371595	0.472921
C165	C	0.183299	0.871582	-0.027072
C166	C	0.683299	1.371582	0.472928
C167	C	0.188289	0.780168	0.000036
C168	C	0.688289	1.280168	0.500036
O169	O	0.090268	0.949245	-0.050105
O170	O	0.590268	1.449245	0.449895
O171	O	0.190537	0.611040	0.050193
O172	O	0.690537	1.111040	0.550193
C173	C	-0.032376	0.688745	0.027159
C174	C	0.467624	1.188745	0.527159
C175	C	-0.081602	0.780138	0.000064
C176	C	0.418398	1.280138	0.500064
C177	C	-0.086584	0.871536	-0.027036
C178	C	0.413416	1.371536	0.472964
C179	C	-0.125848	0.780134	0.000065
C180	C	0.374152	1.280134	0.500065
C181	C	-0.120865	0.688735	0.027165
C182	C	0.379135	1.188735	0.527165
C183	C	-0.071637	0.597341	0.054264
C184	C	0.428363	1.097341	0.554264
C185	C	-0.027394	0.597346	0.054259
C186	C	0.472606	1.097346	0.554259
C187	C	-0.135812	0.962930	-0.054136
C188	C	0.364188	1.462930	0.445864
C189	C	-0.180053	0.962917	-0.054129
C190	C	0.319947	1.462917	0.445871
C191	C	-0.175071	0.871519	-0.027029
C192	C	0.324929	1.371519	0.472971
C193	C	0.601396	0.780125	0.000063
C194	C	1.101396	1.280125	0.500063
C195	C	0.648491	0.780115	0.000069
C196	C	1.148491	1.280115	0.500069
C197	C	0.462631	0.780125	-0.138701
C198	C	0.962631	1.280125	0.361299
C199	C	0.462631	0.780115	-0.185790
C200	C	0.962631	1.280115	0.314210
C201	C	0.462628	1.014177	0.000039
C202	C	0.962628	1.514177	0.500039
C203	C	0.462626	1.093602	0.000038
C204	C	0.962626	1.593602	0.500038
C205	C	0.435539	0.871559	-0.504924
C206	C	0.935539	1.371559	-0.004924
C207	C	0.435540	0.871577	-0.681919
C208	C	0.935540	1.371577	-0.181919
O209	O	0.412512	0.949305	-0.727852
O210	O	0.912512	1.449305	-0.227852
N211	N	0.462637	0.780182	-0.676951
N212	N	0.962637	1.280182	-0.176951
C213	C	0.489740	0.688777	-0.627729
C214	C	0.989740	1.188777	-0.127729
O215	O	0.512792	0.611041	-0.627565
O216	O	1.012792	1.111041	-0.127565
C217	C	0.489742	0.688760	-0.450735
C218	C	0.989742	1.188760	0.049265
C219	C	0.462638	0.780161	-0.455707
C220	C	0.962638	1.280161	0.044293
C221	C	0.408438	0.962952	-0.509894
C222	C	0.908438	1.462952	-0.009894
C223	C	0.408436	0.962947	-0.465648
C224	C	0.908436	1.462947	0.034352
C225	C	0.435535	0.871548	-0.416431
C226	C	0.935535	1.371548	0.083569
C227	C	0.462636	0.780155	-0.411461
C228	C	0.962636	1.280155	0.088539
C229	C	0.516847	0.597356	-0.401514
C230	C	1.016847	1.097356	0.098486
C231	C	0.516846	0.597360	-0.357265
C232	C	1.016846	1.097360	0.142735
C233	C	0.489742	0.688761	-0.362238
C234	C	0.989742	1.188761	0.137762
C235	C	0.489733	0.688752	-0.317998
C236	C	0.989733	1.188752	0.182002
N237	N	0.462635	0.780146	-0.322966
N238	N	0.962635	1.280146	0.177034
C239	C	0.435536	0.871545	-0.372183
C240	C	0.935536	1.371545	0.127817
C241	C	0.489736	0.688792	-0.720656
C242	C	0.989736	1.188792	-0.220656
C243	C	0.489735	0.688796	-0.764904
C244	C	0.989735	1.188796	-0.264904
C245	C	0.435535	0.871596	-0.819091
C246	C	0.935535	1.371596	-0.319091
C247	C	0.435534	0.871591	-0.774842
C248	C	0.935534	1.371591	-0.274842
C249	C	0.462638	0.780186	-0.725624
C250	C	0.962638	1.280186	-0.225624
C251	C	0.435533	0.871527	-0.279260
C252	C	0.935533	1.371527	0.220740
C253	C	0.435532	0.871513	-0.235007
C254	C	0.935532	1.371513	0.264993
C255	C	0.489733	0.688714	-0.180824
C256	C	0.989733	1.188714	0.319176
C257	C	0.489732	0.688726	-0.225073
C258	C	0.989732	1.188726	0.274927
C259	C	0.462632	0.780141	-0.274292
C260	C	0.962632	1.280141	0.225708
O261	O	0.512753	0.611064	-0.272050
O262	O	1.012753	1.111064	0.227950
O263	O	0.412496	0.949269	-0.372336
O264	O	0.912496	1.449269	0.127664
C265	C	0.435541	0.871564	-0.549170
C266	C	0.935541	1.371564	-0.049170
C267	C	0.462642	0.780171	-0.544200
C268	C	0.962642	1.280171	-0.044200
C269	C	0.489741	0.688773	-0.494984
C270	C	0.989741	1.188773	0.005016
C271	C	0.462641	0.780175	-0.588449
C272	C	0.962641	1.280175	-0.088449
C273	C	0.435542	0.871573	-0.637665
C274	C	0.935542	1.371573	-0.137665
C275	C	0.408445	0.962968	-0.642634
C276	C	0.908445	1.462968	-0.142634
C277	C	0.408443	0.962963	-0.598387
C278	C	0.908443	1.462963	-0.098387
C279	C	0.516839	0.597379	-0.490015
C280	C	1.016839	1.097379	0.009985
C281	C	0.516838	0.597391	-0.534264
C282	C	1.016838	1.097391	-0.034264
C283	C	0.489740	0.688790	-0.583481
C284	C	0.989740	1.188790	-0.083481
C285	C	0.462635	0.780184	0.138790
C286	C	0.962635	1.280184	0.638790
C287	C	0.462636	0.780194	0.185879
C288	C	0.962636	1.280194	0.685879
C289	C	0.601401	0.546102	0.000068
C290	C	1.101401	1.046102	0.500068
C291	C	0.648498	0.466667	0.000076
C292	C	1.148498	0.966667	0.500076
C293	C	0.462640	0.546161	0.138795
C294	C	0.962640	1.046161	0.638795
C295	C	0.462642	0.466746	0.185886
C296	C	0.962642	0.966746	0.685886
C297	C	0.601403	0.546132	0.138814
C298	C	1.101403	1.046132	0.638814
C299	C	0.648501	0.466707	0.185911
C300	C	1.148501	0.966707	0.685911
C301	C	0.323863	1.014177	-0.138725
C302	C	0.823863	1.514177	0.361275
C303	C	0.276766	1.093602	-0.185822
C304	C	0.776766	1.593602	0.314178
C305	C	0.323865	1.014207	0.000021
C306	C	0.823865	1.514207	0.500021
C307	C	0.276768	1.093642	0.000013
C308	C	0.776768	1.593642	0.500013
C309	C	0.462626	1.014148	-0.138706
C310	C	0.962626	1.514148	0.361294
C311	C	0.462624	1.093563	-0.185797
C312	C	0.962624	1.593563	0.314203
C313	C	0.643519	0.429364	-0.027021
C314	C	1.143519	0.929364	0.472979
C315	C	0.687767	0.354736	-0.027024
C316	C	1.187767	0.854736	0.472976
C317	C	0.736994	0.317409	0.000074
C318	C	1.236994	0.817409	0.500074
C319	C	0.741972	0.354720	0.027172
C320	C	1.241972	0.854720	0.527172
C321	C	0.697725	0.429351	0.027172
C322	C	1.197725	0.929351	0.527172
C323	C	0.489740	0.429452	0.235102
C324	C	0.989740	0.929452	0.735102
C325	C	0.489740	0.354844	0.279353
C326	C	0.989740	0.854844	0.779353
C327	C	0.462646	0.317526	0.274387
C328	C	0.962646	0.817526	0.774387
C329	C	0.435545	0.354827	0.225167
C330	C	0.935545	0.854827	0.725167
C331	C	0.435542	0.429439	0.180917
C332	C	0.935542	0.929439	0.680917
C333	C	0.697719	0.429396	0.180939
C334	C	1.197719	0.929396	0.680939
C335	C	0.741976	0.354778	0.225188
C336	C	1.241976	0.854778	0.725188
C337	C	0.737014	0.317467	0.274407
C338	C	1.237014	0.817467	0.774407
C339	C	0.687791	0.354785	0.279378
C340	C	1.187791	0.854785	0.779378
C341	C	0.643535	0.429407	0.235130
C342	C	1.143535	0.929407	0.735130
C343	C	0.227548	1.130922	-0.180850
C344	C	0.727548	1.630922	0.319150
C345	C	0.183290	1.205563	-0.225099
C346	C	0.683290	1.705563	0.274901
C347	C	0.188252	1.242878	-0.274319
C348	C	0.688252	1.742878	0.225681
C349	C	0.237475	1.205555	-0.279289
C350	C	0.737475	1.705555	0.220711
C351	C	0.281732	1.130921	-0.235042
C352	C	0.781732	1.630921	0.264958
C353	C	0.281748	1.130953	0.027106
C354	C	0.781748	1.630953	0.527106
C355	C	0.237500	1.205601	0.027096
C356	C	0.737500	1.705601	0.527096
C357	C	0.188272	1.242931	-0.000003
C358	C	0.688272	1.742931	0.499997
C359	C	0.183294	1.205617	-0.027099
C360	C	0.683294	1.705617	0.472901
C361	C	0.227542	1.130975	-0.027093
C362	C	0.727542	1.630975	0.472907
C363	C	0.489724	1.130857	-0.180815
C364	C	0.989724	1.630857	0.319185
C365	C	0.489732	1.205466	-0.225058
C366	C	0.989732	1.705466	0.274942
C367	C	0.462636	1.242784	-0.274282
C368	C	0.962636	1.742784	0.225718
C369	C	0.435535	1.205483	-0.279263
C370	C	0.935535	1.705483	0.220737
C371	C	0.435531	1.130870	-0.235021
C372	C	0.935531	1.630870	0.264979
H373	H	0.321841	0.614363	0.049187
H374	H	0.821841	1.114363	0.549187
H375	H	0.241509	1.235947	-0.319370
H376	H	0.741509	1.735947	0.180630
H377	H	0.143207	1.236022	-0.049163
H378	H	0.643207	1.736022	0.450837
H379	H	0.603439	0.459755	-0.049094
H380	H	1.103439	0.959755	0.450906
H381	H	0.223498	1.100544	-0.140777
H382	H	0.723498	1.600544	0.359223
H383	H	0.386368	1.037374	-0.469703
H384	H	0.886368	1.537374	0.030297
H385	H	0.511782	0.100521	-0.049112
H386	H	1.011782	0.600521	0.450888
H387	H	0.413475	1.235879	-0.319347
H388	H	0.913475	1.735879	0.180653
H389	H	0.413485	0.324432	0.221131
H390	H	0.913485	0.824432	0.721131
H391	H	0.511796	0.459759	-0.049102
H392	H	1.011796	0.959759	0.450898
H393	H	0.223493	0.946009	-0.049145
H394	H	0.723493	1.446009	0.450855
H395	H	0.683703	0.324367	-0.049091
H396	H	1.183703	0.824367	0.450909
H397	H	0.223480	1.100598	-0.049153
H398	H	0.723480	1.600598	0.450847
H399	H	0.511798	0.614368	-0.760849
H400	H	1.011798	1.114368	-0.260849
H401	H	0.413470	0.100545	0.049190
H402	H	0.913470	0.600545	0.549190
H403	H	0.773054	0.256705	0.310433
H404	H	1.273054	0.756705	0.810433
H405	H	0.538893	0.347815	-0.076200
H406	H	1.038893	0.847815	0.423800
H407	H	0.413477	0.459794	0.140845
H408	H	0.913477	0.959794	0.640845
H409	H	0.773019	0.256638	0.000071
H410	H	1.273019	0.756638	0.500071
H411	H	0.511809	0.614355	-0.680582
H412	H	1.011809	1.114355	-0.180582
H413	H	0.143215	1.235938	-0.221041
H414	H	0.643215	1.735938	0.278959
H415	H	-0.087401	1.037381	-0.076205
H416	H	0.412599	1.537381	0.423795
H417	H	0.321806	1.100536	-0.239096
H418	H	0.821806	1.600536	0.260904
H419	H	0.782059	0.324317	0.049234
H420	H	1.282059	0.824317	0.549234
H421	H	-0.007138	1.037383	-0.076200
H422	H	0.492862	1.537383	0.423800
H423	H	0.701786	0.459714	0.049240
H424	H	1.201786	0.959714	0.549240
H425	H	0.538918	0.522928	-0.397455
H426	H	1.038918	1.022928	0.102545
H427	H	0.511804	0.459828	0.239155
H428	H	1.011804	0.959828	0.739155
H429	H	0.603461	0.459775	0.239186
H430	H	1.103461	0.959775	0.739186
H431	H	-0.316312	0.945954	-0.049102
H432	H	0.183688	1.445954	0.450898
H433	H	0.321827	1.100564	0.049177
H434	H	0.821827	1.600564	0.549177
H435	H	0.241582	0.614344	0.049203
H436	H	0.741582	1.114344	0.549203
H437	H	0.511811	0.324482	0.319426
H438	H	1.011811	0.824482	0.819426
H439	H	0.462652	0.256772	0.310423
H440	H	0.962652	0.756772	0.810423
H441	H	0.241563	1.235970	0.049163
H442	H	0.741563	1.735970	0.549163
H443	H	0.145417	0.522934	0.076306
H444	H	0.645417	1.022934	0.576306
H445	H	0.511794	0.614300	-0.140744
H446	H	1.011794	1.114300	0.359256
H447	H	0.538881	0.212443	-0.076201
H448	H	1.038881	0.712443	0.423799
H449	H	0.065159	0.522925	0.076319
H450	H	0.565159	1.022925	0.576319
H451	H	0.701769	0.459764	0.140866
H452	H	1.201769	0.959764	0.640866
H453	H	0.413460	1.100513	-0.239085
H454	H	0.913460	1.600513	0.260915
H455	H	0.511788	1.100484	-0.140738
H456	H	1.011788	1.600484	0.359262
H457	H	0.012687	0.522919	0.076325
H458	H	0.512687	1.022919	0.576325
H459	H	0.782052	0.324402	0.221131
H460	H	1.282052	0.824402	0.721131
H461	H	0.152212	1.303650	-0.310344
H462	H	0.652212	1.803650	0.189656
H463	H	-0.396571	0.945941	-0.049102
H464	H	0.103429	1.445941	0.450898
H465	H	0.152247	1.303709	-0.000004
H466	H	0.652247	1.803709	0.499996
H467	H	0.511800	1.235829	-0.220992
H468	H	1.011800	1.735829	0.279008
H469	H	0.413476	0.459793	0.049202
H470	H	0.913476	0.959793	0.549202
H471	H	0.386378	0.212487	0.076285
H472	H	0.886378	0.712487	0.576285
H473	H	0.386376	0.347887	0.076286
H474	H	0.886376	0.847887	0.576286
H475	H	-0.217951	0.614292	0.049235
H476	H	0.282049	1.114292	0.549235
H477	H	-0.298228	0.614293	0.049233
H478	H	0.201772	1.114293	0.549233
H479	H	0.462644	1.303539	-0.310303
H480	H	0.962644	1.803539	0.189697
H481	H	0.143215	0.946008	-0.049143
H482	H	0.643215	1.446008	0.450857
H483	H	-0.067587	0.522921	0.076326
H484	H	0.432413	1.022921	0.576326
H485	H	0.683758	0.324395	0.319459
H486	H	1.183758	0.824395	0.819459
H487	H	0.538907	0.522950	-0.449944
H488	H	1.038907	1.022950	0.050056
H489	H	-0.139877	1.037359	-0.076205
H490	H	0.360123	1.537359	0.423795
H491	H	-0.220136	1.037352	-0.076199
H492	H	0.279864	1.537352	0.423801
H493	H	0.413465	0.945965	-0.319332
H494	H	0.913465	1.445965	0.180668
H495	H	0.386371	1.037384	-0.549966
H496	H	0.886371	1.537384	-0.049966
H497	H	0.413458	0.945946	-0.239062
H498	H	0.913458	1.445946	0.260938
H499	H	0.413468	0.946016	-0.859172
H500	H	0.913468	1.446016	-0.359172
H501	H	0.538918	0.522926	-0.317190
H502	H	1.038918	1.022926	0.182810
H503	H	0.511795	0.614301	-0.221023
H504	H	1.011795	1.114301	0.278977
H505	H	0.386372	1.037390	-0.602442
H506	H	0.886372	1.537390	-0.102442
H507	H	0.386377	1.037388	-0.682715
H508	H	0.886377	1.537388	-0.182715
H509	H	0.413463	0.946017	-0.778896
H510	H	0.913463	1.446017	-0.278896
H511	H	0.538908	0.522957	-0.530207
H512	H	1.038908	1.022957	-0.030207
