data_functionalizedCrystal
_audit_creation_method	'MofGen! by Chris Wilmer'
_symmetry_space_group_name_H-M	'P1'
_symmetry_Int_Tables_number	1
_symmetry_cell_setting	triclinic
loop_
_symmetry_equiv_pos_as_xyz
  x,y,z
_cell_length_a	16.992694
_cell_length_b	15.995350
_cell_length_c	16.053802
_cell_angle_alpha	92.567808
_cell_angle_beta	87.249047
_cell_angle_gamma	87.080299
loop_
_atom_site_label
_atom_site_type_symbol
_atom_site_fract_x
_atom_site_fract_y
_atom_site_fract_z
O1	O	1.043694	0.174244	-0.069318
O2	O	1.543694	0.674244	0.430682
O3	O	0.815410	0.172295	-0.069342
O4	O	1.315410	0.672295	0.430658
O5	O	0.935792	0.051799	-0.069329
O6	O	1.435792	0.551799	0.430671
O7	O	0.923312	0.294739	-0.069332
O8	O	1.423312	0.794739	0.430668
O9	O	0.929166	0.058403	0.069530
O10	O	1.429166	0.558403	0.569530
O11	O	0.808784	0.178898	0.069516
O12	O	1.308784	0.678898	0.569516
O13	O	1.037068	0.180847	0.069540
O14	O	1.537068	0.680847	0.569540
Zn15	Zn	0.921874	0.180921	0.091575
Zn16	Zn	1.421874	0.680921	0.591575
Zn17	Zn	0.930604	0.172221	-0.091377
Zn18	Zn	1.430604	0.672221	0.408623
O19	O	0.916685	0.301343	0.069527
O20	O	1.416685	0.801343	0.569527
C21	C	0.782884	0.173091	0.000083
C22	C	1.282884	0.673091	0.500083
C23	C	0.695841	0.165614	0.000074
C24	C	1.195841	0.665614	0.500074
C25	C	0.645600	0.237749	0.000074
C26	C	1.145600	0.737749	0.500074
C27	C	0.563813	0.230720	0.000085
C28	C	1.063813	0.730720	0.500085
C29	C	0.532268	0.151555	0.000091
C30	C	1.032268	0.651555	0.500091
C31	C	0.582515	0.079414	0.000094
C32	C	1.082515	0.579414	0.500094
C33	C	0.664300	0.086444	0.000088
C34	C	1.164300	0.586444	0.500088
C35	C	0.288669	0.122417	0.000114
C36	C	0.788669	0.622417	0.500114
C37	C	0.206878	0.115392	0.000117
C38	C	0.706878	0.615392	0.500117
C39	C	0.188181	0.266699	0.000110
C40	C	0.688181	0.766699	0.500110
C41	C	0.269969	0.273722	0.000099
C42	C	0.769969	0.773722	0.500099
C43	C	0.320209	0.201582	0.000106
C44	C	0.820209	0.701582	0.500106
N45	N	0.448669	0.144368	0.000100
N46	N	0.948669	0.644368	0.500100
N47	N	0.403806	0.208770	0.000103
N48	N	0.903806	0.708770	0.500103
C49	C	0.931963	0.023872	0.000099
C50	C	1.431963	0.523872	0.500099
C51	C	0.930417	-0.069182	0.000094
C52	C	1.430417	0.430818	0.500094
C53	C	0.924861	-0.407302	0.000096
C54	C	1.424861	0.092698	0.500096
C55	C	0.839142	-0.365620	-0.000225
C56	C	1.339142	0.134380	0.499775
C57	C	0.840674	-0.268811	0.000089
C58	C	1.340674	0.231189	0.500089
C59	C	0.927617	-0.239557	0.000095
C60	C	1.427617	0.260443	0.500095
C61	C	0.966120	-0.274034	0.079392
C62	C	1.466120	0.225966	0.579392
C63	C	0.963963	-0.370810	0.079459
C64	C	1.463963	0.129190	0.579459
C65	C	0.973269	-0.378559	-0.078449
C66	C	1.473269	0.121441	0.421551
C67	C	0.973299	-0.281665	-0.079497
C68	C	1.473299	0.218335	0.420503
C69	C	0.929179	-0.144755	0.000096
C70	C	1.429179	0.355245	0.500096
C71	C	0.923302	-0.502103	0.000100
C72	C	1.423302	-0.002103	0.500100
C73	C	1.069593	0.180051	0.000113
C74	C	1.569593	0.680051	0.500113
C75	C	1.156637	0.187528	0.000117
C76	C	1.656637	0.687528	0.500117
C77	C	0.920515	0.329270	0.000097
C78	C	1.420515	0.829270	0.500097
C79	C	0.922061	0.422324	0.000097
C80	C	1.422061	0.922324	0.500097
N81	N	0.915921	0.186859	0.216434
N82	N	1.415921	0.686859	0.716434
N83	N	0.936563	0.166277	-0.216236
N84	N	1.436563	0.666277	0.283764
C85	C	0.967163	0.135608	0.260134
C86	C	1.467163	0.635608	0.760134
C87	C	0.963006	0.139770	0.347541
C88	C	1.463006	0.639770	0.847541
C89	C	0.907611	0.195187	0.391245
C90	C	1.407611	0.695187	0.891245
C91	C	0.856364	0.246439	0.347539
C92	C	1.356364	0.746439	0.847539
C93	C	0.860518	0.242273	0.260135
C94	C	1.360518	0.742273	0.760135
C95	C	0.889469	0.213363	0.652653
C96	C	1.389469	0.713363	1.152653
C97	C	0.885321	0.217528	0.740064
C98	C	1.385321	0.717528	1.240064
C99	C	0.991962	0.110857	0.740059
C100	C	1.491962	0.610857	1.240059
C101	C	0.996114	0.106699	0.652652
C102	C	1.496114	0.606699	1.152652
C103	C	0.944864	0.157948	0.608954
C104	C	1.444864	0.657948	1.108954
N105	N	0.903363	0.199444	0.480589
N106	N	1.403363	0.699444	0.980589
N107	N	0.949109	0.153686	0.519612
N108	N	1.449109	0.653686	1.019612
H109	H	0.705206	0.027704	0.000088
H110	H	1.205206	0.527704	0.500088
H111	H	0.933934	-0.244811	0.138399
H112	H	1.433934	0.255189	0.638399
N113	N	0.172854	0.030003	0.000145
N114	N	0.672854	0.530003	0.500145
H115	H	0.113420	0.036499	0.000147
H116	H	0.613420	0.536499	0.500147
H117	H	0.193679	-0.004267	-0.051325
H118	H	0.693679	0.495733	0.448675
H119	H	1.004731	0.098037	0.383120
H120	H	1.504731	0.598037	0.883120
H121	H	1.033687	0.069131	0.775646
H122	H	1.533687	0.569131	1.275646
N123	N	1.026907	0.075822	0.213012
N124	N	1.526907	0.575822	0.713012
H125	H	0.998665	0.034998	0.176761
H126	H	1.498665	0.534998	0.676761
H127	H	1.063338	0.108482	0.176783
H128	H	1.563338	0.608482	0.676783
H129	H	0.671277	0.302214	0.000068
H130	H	1.171277	0.802214	0.500068
H131	H	0.807588	-0.389148	-0.057091
H132	H	1.307588	0.110852	0.442909
H133	H	0.840209	0.262658	0.775644
H134	H	1.340209	0.762658	1.275644
H135	H	0.930299	-0.388357	0.138731
H136	H	1.430299	0.111643	0.638731
H137	H	0.295647	0.338187	0.000085
H138	H	0.795647	0.838187	0.500085
N139	N	0.939946	-0.412036	-0.158065
N140	N	1.439946	0.087964	0.341935
H141	H	0.893128	-0.446178	-0.144022
H142	H	1.393128	0.053822	0.355978
H143	H	0.922701	-0.363680	-0.192476
H144	H	1.422701	0.136320	0.307524
N145	N	0.805245	0.297549	0.213003
N146	N	1.305245	0.797549	0.713003
H147	H	0.813547	0.358311	0.228202
H148	H	1.313547	0.858311	0.728202
H149	H	0.816305	0.286429	0.151016
H150	H	1.316305	0.786429	0.651016
N151	N	0.509591	0.308499	0.000098
N152	N	1.009591	0.808499	0.500098
H153	H	0.472805	0.311371	0.051583
H154	H	0.972805	0.811371	0.551583
H155	H	0.542007	0.359696	0.000063
H156	H	1.042007	0.859696	0.500063
N157	N	0.342840	0.044604	0.000109
N158	N	0.842840	0.544604	0.500109
H159	H	0.379639	0.041697	-0.051367
H160	H	0.879639	0.541697	0.448633
H161	H	0.374688	0.046633	0.051616
H162	H	0.874688	0.546633	0.551616
H163	H	1.041221	0.061574	0.617070
H164	H	1.541221	0.561574	1.117070
H165	H	0.847741	0.255094	0.617081
H166	H	1.347741	0.755094	1.117081
H167	H	0.147268	0.325432	0.000106
H168	H	0.647268	0.825432	0.500106
N169	N	0.548496	-0.005972	0.000114
N170	N	1.048496	0.494028	0.500114
H171	H	0.489061	0.000518	0.000117
H172	H	0.989061	0.500518	0.500117
H173	H	0.569323	-0.040234	-0.051360
H174	H	1.069323	0.459766	0.448640
N175	N	0.792758	-0.231268	0.075506
N176	N	1.292758	0.268732	0.575506
H177	H	0.736526	-0.248506	0.073063
H178	H	1.236526	0.251494	0.573063
H179	H	0.816155	-0.252008	0.127926
H180	H	1.316155	0.247992	0.627926
N181	N	1.057037	-0.415046	-0.079152
N182	N	1.557037	0.084954	0.420848
H183	H	1.068976	-0.451404	-0.131756
H184	H	1.568976	0.048596	0.368244
H185	H	1.094564	-0.368100	-0.077265
H186	H	1.594564	0.131900	0.422735
H187	H	1.029854	-0.255493	0.082346
H188	H	1.529854	0.244507	0.582346
N189	N	1.047106	-0.407724	0.084260
N190	N	1.547106	0.092276	0.584260
H191	H	1.046354	-0.470818	0.084345
H192	H	1.546354	0.029182	0.584345
H193	H	1.080340	-0.391170	0.034422
H194	H	1.580340	0.108830	0.534422
N195	N	0.796610	0.306205	0.394673
N196	N	1.296610	0.806205	0.894673
H197	H	0.801755	0.301071	0.456676
H198	H	1.301755	0.801071	0.956676
H199	H	0.806388	0.365488	0.379386
H200	H	1.306388	0.865488	0.879386
N201	N	0.936102	-0.251938	-0.157202
N202	N	1.436102	0.248062	0.342798
H203	H	0.938396	-0.189055	-0.158786
H204	H	1.438396	0.310945	0.341214
H205	H	0.965752	-0.279287	-0.208146
H206	H	1.465752	0.220713	0.291854
N207	N	0.800236	-0.237681	-0.075204
N208	N	1.300236	0.262319	0.424796
H209	H	0.781251	-0.286867	-0.108896
H210	H	1.281251	0.213133	0.391104
H211	H	0.753734	-0.198471	-0.056203
H212	H	1.253734	0.301529	0.443797
H213	H	1.036930	-0.262288	-0.084280
H214	H	1.536930	0.237712	0.415720
N215	N	0.790372	-0.391028	0.074670
N216	N	1.290372	0.108972	0.574670
H217	H	0.823563	-0.429422	0.108806
H218	H	1.323563	0.070578	0.608806
H219	H	0.771589	-0.339381	0.110013
H220	H	1.271589	0.160619	0.610013
