data_functionalizedCrystal
_audit_creation_method	'MofGen! by Chris Wilmer'
_symmetry_space_group_name_H-M	'P1'
_symmetry_Int_Tables_number	1
_symmetry_cell_setting	triclinic
loop_
_symmetry_equiv_pos_as_xyz
  x,y,z
_cell_length_a	14.853567
_cell_length_b	27.731996
_cell_length_c	13.330367
_cell_angle_alpha	89.989375
_cell_angle_beta	89.995418
_cell_angle_gamma	83.128159
loop_
_atom_site_label
_atom_site_type_symbol
_atom_site_fract_x
_atom_site_fract_y
_atom_site_fract_z
O1	O	1.195320	0.063108	-0.083368
O2	O	0.932736	0.070626	-0.083387
O3	O	1.072208	-0.003493	-0.083355
O4	O	1.055848	0.137227	-0.083400
O5	O	1.072188	-0.003495	0.083492
O6	O	0.932716	0.070624	0.083460
O7	O	1.195300	0.063106	0.083479
Cu8	Cu	1.064006	0.066865	0.098704
Cu9	Cu	1.064030	0.066867	-0.098612
O10	O	1.055828	0.137226	0.083447
C11	C	0.899143	0.070284	0.000035
C12	C	0.799076	0.069264	0.000028
C13	C	1.071862	-0.021503	0.000072
C14	C	1.070849	-0.075164	0.000082
C15	C	0.387345	0.020920	0.000066
C16	C	0.364601	0.108976	0.000037
C17	C	0.458619	0.109935	0.000034
C18	C	0.517005	0.066387	0.000045
C19	C	0.481372	0.021879	0.000060
C20	C	0.494259	0.154443	0.000009
C21	C	0.588282	0.155404	0.000004
C22	C	0.646669	0.111855	0.000023
C23	C	0.611031	0.067345	0.000039
C24	C	0.669417	0.023797	0.000050
C25	C	0.633781	-0.020714	0.000073
C26	C	0.539760	-0.021670	0.000078
C27	C	0.740691	0.112812	0.000017
C28	C	0.763444	0.024755	0.000043
C29	C	1.064492	-0.407909	-0.090916
C30	C	1.060648	-0.609585	-0.090934
O31	O	1.060122	-0.635658	-0.168283
N32	N	1.060160	-0.634806	0.000014
C33	C	1.060626	-0.609603	0.090972
O34	O	1.060114	-0.635682	0.168328
C35	C	1.064464	-0.407928	0.090989
C36	C	1.064961	-0.382711	0.000036
C37	C	1.064988	-0.382692	-0.181862
C38	C	1.065954	-0.332276	-0.181856
C39	C	1.066424	-0.307078	-0.090905
C40	C	1.065927	-0.332295	0.000041
C41	C	1.064924	-0.382726	0.181946
C42	C	1.065881	-0.332304	0.181943
C43	C	1.066379	-0.307087	0.090989
C44	C	1.067362	-0.256681	0.090998
N45	N	1.067851	-0.231461	0.000050
C46	C	1.067381	-0.256659	-0.090901
C47	C	1.058614	-0.715486	0.090957
C48	C	1.057656	-0.765905	0.090953
C49	C	1.057676	-0.765883	-0.090953
C50	C	1.058640	-0.715464	-0.090948
C51	C	1.059102	-0.690266	0.000009
C52	C	1.069410	-0.150783	-0.090883
C53	C	1.070380	-0.100363	-0.090869
C54	C	1.070355	-0.100388	0.091036
C55	C	1.069390	-0.150804	0.091023
C56	C	1.068915	-0.176000	0.000056
O57	O	1.067879	-0.230577	0.168306
O58	O	1.067874	-0.230571	-0.168246
C59	C	1.063526	-0.458325	-0.090921
C60	C	1.063030	-0.483542	0.000025
C61	C	1.063499	-0.458344	0.090976
C62	C	1.062072	-0.533961	0.000021
C63	C	1.061602	-0.559159	-0.090931
C64	C	1.062091	-0.533939	-0.181878
C65	C	1.063057	-0.483524	-0.181873
C66	C	1.063011	-0.483564	0.181924
C67	C	1.062046	-0.533980	0.181911
C68	C	1.061576	-0.559178	0.090959
C69	C	1.228893	0.063448	0.000055
C70	C	1.328960	0.064469	0.000055
C71	C	1.056174	0.155235	0.000018
C72	C	1.057187	0.208896	0.000002
N73	N	1.063996	0.066863	0.237486
N74	N	1.064047	0.066865	-0.237393
C75	C	1.002269	0.099674	0.710095
C76	C	1.125815	0.034056	0.710091
C77	C	1.125805	0.034055	0.605072
C78	C	1.064027	0.066864	0.552560
C79	C	1.002259	0.099675	0.605066
C80	C	1.187577	0.001248	0.552558
C81	C	1.187570	0.001246	0.447533
C82	C	1.125787	0.034053	0.395019
C83	C	1.064016	0.066864	0.447532
C84	C	1.002239	0.099674	0.395020
C85	C	0.940463	0.132483	0.447531
C86	C	0.940476	0.132482	0.552553
C87	C	1.125774	0.034054	0.289998
C88	C	1.002228	0.099674	0.289992
H89	H	0.810976	-0.010708	0.000056
Cl90	Cl	1.057080	-0.797570	-0.205292
Cl91	Cl	1.059262	-0.683768	-0.205294
Cl92	Cl	1.203435	-0.007186	0.223991
Cl93	Cl	0.862824	0.173727	0.618568
H94	H	0.681331	-0.056170	0.000075
H95	H	1.063461	-0.462996	-0.255936
H96	H	0.510736	-0.057908	0.000121
Cl97	Cl	1.071008	-0.068665	-0.205220
H98	H	0.951918	0.126390	0.247243
Cl99	Cl	1.066463	-0.300629	0.296297
Cl100	Cl	0.342549	-0.035033	0.000100
Cl101	Cl	0.291203	0.163719	0.000010
Cl102	Cl	1.066571	-0.300582	-0.296205
H103	H	1.061713	-0.554465	-0.255934
H104	H	1.237870	-0.025470	0.404786
H105	H	0.890166	0.159199	0.404763
Cl106	Cl	0.420858	0.209185	-0.000022
Cl107	Cl	1.063594	-0.451893	0.296275
Cl108	Cl	0.924608	0.140917	0.776102
H109	H	1.058994	-0.694975	0.165030
Cl110	Cl	1.203481	-0.007185	0.776103
Cl111	Cl	0.633073	0.211359	-0.000021
H112	H	0.769701	0.149052	0.000000
Cl113	Cl	1.068814	-0.182449	-0.205244
Cl114	Cl	1.057048	-0.797601	0.205299
Cl115	Cl	1.064400	-0.414361	-0.296217
Cl116	Cl	1.068782	-0.182508	0.205366
Cl117	Cl	1.064293	-0.414415	0.296296
Cl118	Cl	1.070945	-0.068701	0.205369
Cl119	Cl	1.061425	-0.565675	0.296265
Cl120	Cl	1.265244	-0.039993	0.618570
