data_functionalizedCrystal
_audit_creation_method	'MofGen! by Chris Wilmer'
_symmetry_space_group_name_H-M	'P1'
_symmetry_Int_Tables_number	1
_symmetry_cell_setting	triclinic
loop_
_symmetry_equiv_pos_as_xyz
  x,y,z
_cell_length_a	10.489741
_cell_length_b	14.044220
_cell_length_c	12.503572
_cell_angle_alpha	86.156832
_cell_angle_beta	93.551639
_cell_angle_gamma	88.864026
loop_
_atom_site_label
_atom_site_type_symbol
_atom_site_fract_x
_atom_site_fract_y
_atom_site_fract_z
O1	O	-1.714360	-0.128402	-0.089257
O2	O	-1.344439	-0.140964	-0.089274
O3	O	-1.523846	0.003339	-0.089255
O4	O	-1.534953	-0.272705	-0.089275
O5	O	-1.510356	-0.007531	0.089386
O6	O	-1.330949	-0.151834	0.089367
O7	O	-1.700869	-0.139273	0.089384
Cu8	Cu	-1.514677	-0.146546	0.105687
Cu9	Cu	-1.530631	-0.133690	-0.105576
O10	O	-1.521462	-0.283575	0.089365
C11	C	-1.290066	-0.145450	0.000045
C12	C	-1.148150	-0.142611	0.000038
C13	C	-1.755242	-0.134786	0.000063
C14	C	-1.897160	-0.137625	0.000062
C15	C	-1.070696	-0.050796	0.000055
C16	C	-0.989620	-0.088809	-0.088025
C17	C	-0.976355	-0.099548	0.088101
C18	C	-1.068948	-0.180657	-0.088114
C19	C	-1.055686	-0.191389	0.088090
C20	C	-0.974646	-0.229468	-0.000011
C21	C	-1.512240	0.033251	0.000066
C22	C	-1.497740	0.138576	0.000066
C23	C	-1.533069	-0.313487	0.000042
C24	C	-1.547569	-0.418812	0.000034
N25	N	-1.503465	-0.155587	0.254278
C26	C	-1.471233	0.331419	0.000050
C27	C	-1.574071	0.388351	0.000051
C28	C	-1.559322	0.495655	0.000042
C29	C	-1.485980	0.224105	0.000059
N30	N	-1.541853	-0.124641	-0.254168
C31	C	-1.486973	-0.168896	0.473391
C32	C	-1.558341	-0.111336	0.526726
C33	C	-1.549164	-0.118741	0.648648
C34	C	-1.496148	-0.161492	0.351458
H35	H	-1.112738	0.024690	-0.000049
H36	H	-1.626334	-0.056497	0.480820
C37	C	-1.023200	-0.252790	-0.250668
C38	C	-1.123467	-0.226933	-0.188760
H39	H	-1.056862	-0.281360	-0.312797
H40	H	-0.977665	-0.197548	-0.271706
H41	H	-0.967086	-0.297010	-0.209486
H42	H	-1.179576	-0.182707	-0.229939
H43	H	-1.169023	-0.282182	-0.167723
C44	C	-1.729566	0.294657	-0.091749
C45	C	-1.707881	0.345364	0.000072
H46	H	-1.812169	0.268112	-0.091727
H47	H	-1.724271	0.336622	-0.154039
H48	H	-1.666975	0.244838	-0.091741
H49	H	-1.770467	0.395188	0.000061
H50	H	-1.713187	0.303396	0.062379
H51	H	-1.418987	-0.223732	0.519292
C52	C	-0.784884	-0.328032	0.000805
C53	C	-0.918259	-0.331460	-0.000078
H54	H	-0.750074	-0.390997	0.000767
H55	H	-0.761197	-0.291408	-0.061164
H56	H	-0.752928	-0.299378	0.063424
H57	H	-0.950217	-0.360107	-0.062701
H58	H	-0.941957	-0.368098	0.061898
H59	H	-1.372122	0.363266	0.000043
H60	H	-0.960288	-0.045428	-0.162486
H61	H	-1.085046	-0.234738	0.162555
H62	H	-0.935812	-0.065213	0.162566
