data_functionalizedCrystal
_audit_creation_method	'MofGen! by Chris Wilmer'
_symmetry_space_group_name_H-M	'P1'
_symmetry_Int_Tables_number	1
_symmetry_cell_setting	triclinic
loop_
_symmetry_equiv_pos_as_xyz
  x,y,z
_cell_length_a	16.625546
_cell_length_b	16.625547
_cell_length_c	21.395356
_cell_angle_alpha	89.979278
_cell_angle_beta	89.971853
_cell_angle_gamma	90.022405
loop_
_atom_site_label
_atom_site_type_symbol
_atom_site_fract_x
_atom_site_fract_y
_atom_site_fract_z
Zn1	Zn	-0.321019	1.232648	-0.354332
Zn2	Zn	-0.455857	1.232561	-0.249555
Zn3	Zn	-0.321042	1.097819	-0.249561
Zn4	Zn	-0.455814	1.097780	-0.354287
O5	O	-0.388433	1.165202	-0.301934
O6	O	-0.338915	1.345469	-0.340449
O7	O	-0.438002	1.214667	-0.161878
O8	O	-0.208207	1.115758	-0.263481
O9	O	-0.437979	1.345405	-0.263470
O10	O	-0.208190	1.214815	-0.340456
O11	O	-0.338953	1.115673	-0.161883
O12	O	-0.338911	0.984982	-0.263437
O13	O	-0.437905	1.115691	-0.441971
O14	O	-0.437927	0.984953	-0.340379
O15	O	-0.338872	1.214777	-0.442004
O16	O	-0.568684	1.214629	-0.263426
O17	O	-0.568652	1.115606	-0.340373
C18	C	-0.388417	0.955711	-0.301904
C19	C	-0.388430	0.866090	-0.301907
C20	C	-0.388432	0.793308	-0.301914
C21	C	-0.388436	0.701999	-0.301930
C22	C	-0.388443	0.629223	-0.301946
C23	C	-0.388449	0.537908	-0.301961
C24	C	-0.597924	1.165126	-0.301908
C25	C	-0.687545	1.165167	-0.301917
C26	C	-1.015721	1.165307	-0.301983
C27	C	-0.924412	1.165266	-0.301966
C28	C	-0.851636	1.165237	-0.301950
C29	C	-0.760322	1.165196	-0.301934
C30	C	-0.178124	1.165301	-0.301974
C31	C	-0.088503	1.165343	-0.301991
C32	C	-0.388381	1.165239	-0.465357
C33	C	-0.388359	1.165255	-0.534999
C34	C	-0.388449	1.375511	-0.301964
C35	C	-0.388456	1.465132	-0.301977
C36	C	-0.336664	1.216926	-1.036813
C37	C	-0.336684	1.216919	-0.971378
C38	C	-0.388252	1.165324	-0.938637
C39	C	-0.439819	1.113747	-0.971337
C40	C	-0.439804	1.113760	-1.036771
C41	C	-0.394637	1.092656	-0.834957
C42	C	-0.394647	1.092641	-0.769524
C43	C	-0.388303	1.165283	-0.736816
C44	C	-0.381934	1.237943	-0.769550
C45	C	-0.381918	1.237956	-0.834984
C46	C	-0.388274	1.165304	-0.867685
C47	C	-0.336765	1.216855	-0.633171
C48	C	-0.336790	1.216850	-0.567735
C49	C	-0.439921	1.113670	-0.567696
C50	C	-0.439900	1.113682	-0.633131
C51	C	-0.388317	1.165273	-0.665865
C52	C	-0.388427	1.165211	-0.139146
C53	C	-0.388221	1.165351	-0.069505
H54	H	-0.294666	1.258939	-1.063461
Br55	Br	-0.266710	1.286919	-0.927000
H56	H	-0.376765	1.297095	-0.742920
Br57	Br	-0.509810	1.043729	-0.926906
H58	H	-0.481789	1.071761	-1.063389
H59	H	-0.399833	1.033477	-0.742877
H60	H	-0.294763	1.258863	-0.659825
Br61	Br	-0.373285	1.336561	-0.879406
H62	H	-0.294808	1.258853	-0.541118
H63	H	-0.481911	1.071663	-0.541039
Br64	Br	-0.403237	0.994059	-0.879339
Br65	Br	-0.509874	1.043685	-0.677502
