data_functionalizedCrystal
_audit_creation_method	'MofGen! by Chris Wilmer'
_symmetry_space_group_name_H-M	'P1'
_symmetry_Int_Tables_number	1
_symmetry_cell_setting	triclinic
loop_
_symmetry_equiv_pos_as_xyz
  x,y,z
_cell_length_a	18.215405
_cell_length_b	12.759401
_cell_length_c	18.215399
_cell_angle_alpha	89.986263
_cell_angle_beta	89.968171
_cell_angle_gamma	90.022906
loop_
_atom_site_label
_atom_site_type_symbol
_atom_site_fract_x
_atom_site_fract_y
_atom_site_fract_z
Zn1	Zn	-0.292992	1.606137	-0.416048
Zn2	Zn	-0.416069	1.606019	-0.292978
Zn3	Zn	-0.293019	1.430454	-0.293002
Zn4	Zn	-0.416020	1.430400	-0.416010
O5	O	-0.354525	1.518252	-0.354509
O6	O	-0.309328	1.753142	-0.399728
O7	O	-0.399777	1.582703	-0.189997
O8	O	-0.190031	1.453831	-0.309350
O9	O	-0.399752	1.753055	-0.309310
O10	O	-0.190012	1.582905	-0.399751
O11	O	-0.309373	1.453717	-0.190014
O12	O	-0.309325	1.283426	-0.309313
O13	O	-0.399668	1.453738	-0.518999
O14	O	-0.399694	1.283386	-0.399686
O15	O	-0.309281	1.582852	-0.519027
O16	O	-0.519047	1.582650	-0.309273
O17	O	-0.519010	1.453623	-0.399664
C18	C	-0.354508	1.245285	-0.354499
C19	C	-0.354518	1.128508	-0.354511
C20	C	-0.307537	0.963955	-0.401670
C21	C	-0.307522	1.073679	-0.401665
C22	C	-0.401537	1.073608	-0.307365
C23	C	-0.401554	0.963886	-0.307374
C24	C	-0.281313	1.223680	-0.488493
C25	C	-0.234288	1.278577	-0.535631
C26	C	-0.162499	1.242989	-0.547063
C27	C	-0.137721	1.152507	-0.511346
C28	C	-0.184742	1.097616	-0.464203
C29	C	-0.256541	1.133202	-0.452784
C30	C	-0.427756	0.813883	-0.220545
C31	C	-0.474774	0.758990	-0.173397
C32	C	-0.546564	0.794575	-0.161958
C33	C	-0.571339	0.885061	-0.197662
C34	C	-0.524321	0.939954	-0.244810
C35	C	-0.452532	0.904361	-0.256250
C36	C	-0.545731	1.518146	-0.354478
C37	C	-0.627530	1.518197	-0.354489
C38	C	-0.892582	1.585578	-0.307522
C39	C	-0.815723	1.585535	-0.307505
C40	C	-0.815727	1.451056	-0.401547
C41	C	-0.892584	1.451095	-0.401559
C42	C	-0.931010	1.518362	-0.354548
C43	C	-0.777293	1.518280	-0.354519
C44	C	-0.693960	1.518233	-0.354501
C45	C	-1.014348	1.518408	-0.354565
C46	C	-0.162572	1.518387	-0.354557
C47	C	-0.080773	1.518445	-0.354578
C48	C	-0.354466	1.518302	-0.546462
C49	C	-0.354441	1.518323	-0.628261
C50	C	-0.354543	1.792286	-0.354521
C51	C	-0.354550	1.909062	-0.354525
C52	C	-0.307336	1.451217	-0.816465
C53	C	-0.307321	1.451235	-0.893324
C54	C	-0.401459	1.585555	-0.893295
C55	C	-0.401477	1.585531	-0.816438
C56	C	-0.354411	1.518363	-0.778025
C57	C	-0.354378	1.518406	-0.931741
C58	C	-0.354362	1.518426	-1.015075
C59	C	-0.354427	1.518341	-0.694686
C60	C	-0.354530	1.518263	-0.163303
C61	C	-0.354348	1.518446	-0.081505
H62	H	-0.124211	1.287694	-0.585444
O63	O	-0.774275	1.378516	-0.452252
H64	H	-0.789072	1.296079	-0.439572
O65	O	-0.648764	0.923473	-0.185319
H66	H	-0.678600	0.924725	-0.238426
O67	O	-0.358748	1.262062	-0.476174
H68	H	-0.387289	1.208685	-0.437402
O69	O	-0.256539	1.378825	-0.934787
H70	H	-0.269150	1.296353	-0.920027
H71	H	-0.369299	0.784898	-0.229858
O72	O	-0.256841	0.904827	-0.452527
H73	H	-0.264743	0.819307	-0.444609
O74	O	-0.452214	1.658009	-0.934725
H75	H	-0.444288	1.646755	-0.994628
H76	H	-0.164607	1.023851	-0.435216
O77	O	-0.934041	1.378593	-0.452280
H78	H	-0.919250	1.396548	-0.510051
O79	O	-0.060286	1.114127	-0.523668
H80	H	-0.031754	1.167493	-0.562454
H81	H	-0.584843	0.749875	-0.123561
O82	O	-0.261014	1.376148	-0.574172
H83	H	-0.318842	1.391660	-0.558320
O84	O	-0.256575	1.378775	-0.775032
H85	H	-0.269193	1.296313	-0.789772
O86	O	-0.452223	1.132737	-0.256499
H87	H	-0.444307	1.218256	-0.264405
O88	O	-0.551042	1.037541	-0.283333
H89	H	-0.608865	1.053062	-0.267465
H90	H	-0.439814	1.640212	-0.785139
O91	O	-0.448058	0.661389	-0.134887
H92	H	-0.390242	0.645852	-0.150771
O93	O	-0.934024	1.658142	-0.256826
H94	H	-0.993925	1.646893	-0.264743
O95	O	-0.774273	1.658039	-0.256790
H96	H	-0.813908	1.704824	-0.224109
