data_functionalizedCrystal
_audit_creation_method	'MofGen! by Chris Wilmer'
_symmetry_space_group_name_H-M	'P1'
_symmetry_Int_Tables_number	1
_symmetry_cell_setting	triclinic
loop_
_symmetry_equiv_pos_as_xyz
  x,y,z
_cell_length_a	12.759401
_cell_length_b	10.686285
_cell_length_c	12.759393
_cell_angle_alpha	85.602987
_cell_angle_beta	89.980324
_cell_angle_gamma	85.632238
loop_
_atom_site_label
_atom_site_type_symbol
_atom_site_fract_x
_atom_site_fract_y
_atom_site_fract_z
Zn1	Zn	1.638403	-0.502274	-0.561967
Zn2	Zn	1.651797	-0.713314	-0.372834
Zn3	Zn	1.462706	-0.502337	-0.386302
Zn4	Zn	1.476190	-0.713221	-0.548481
O5	O	1.557274	-0.607787	-0.467396
O6	O	1.787201	-0.530281	-0.536886
O7	O	1.626675	-0.685392	-0.227596
O8	O	1.474763	-0.325753	-0.420885
O9	O	1.797042	-0.685331	-0.397931
O10	O	1.603847	-0.325706	-0.549945
O11	O	1.487751	-0.530389	-0.237490
O12	O	1.317473	-0.530299	-0.407808
O13	O	1.497746	-0.685174	-0.697296
O14	O	1.327380	-0.685235	-0.526960
O15	O	1.616923	-0.530192	-0.707203
O16	O	1.639751	-0.889878	-0.384854
O17	O	1.510734	-0.889810	-0.513901
C18	C	1.284305	-0.607765	-0.467383
C19	C	1.167530	-0.607786	-0.467400
C20	C	1.107554	-0.527198	-0.539848
C21	C	0.997831	-0.527210	-0.539854
C22	C	1.008070	-0.688411	-0.394961
C23	C	1.117790	-0.688391	-0.394950
C24	C	1.578187	-0.935628	-0.446476
C25	C	1.587230	-1.075880	-0.437561
C26	C	1.831309	-0.607809	-0.467410
C27	C	1.948086	-0.607819	-0.467416
C28	C	1.557345	-0.607666	-0.741437
C29	C	1.557375	-0.607614	-0.858217
C30	C	1.536307	-0.278665	-0.488421
C31	C	1.527373	-0.138413	-0.497381
C32	C	1.619434	-0.526902	-0.918241
C33	C	1.619449	-0.526848	-1.027969
C34	C	1.495342	-0.688228	-1.017639
C35	C	1.495322	-0.688275	-0.907914
C36	C	1.557258	-0.607816	-0.194427
C37	C	1.557408	-0.607512	-0.077670
H38	H	1.469208	-1.084654	-0.555417
O39	O	1.664291	-1.147099	-0.360693
H40	H	1.621138	-1.207251	-0.303421
H41	H	1.669959	-0.461219	-0.877782
O42	O	1.182489	-0.775308	-0.316800
H43	H	1.167782	-0.874376	-0.328360
O44	O	1.686390	-0.439802	-1.092712
H45	H	1.729539	-0.383733	-1.039716
H46	H	0.949003	-0.461585	-0.598847
H47	H	0.967558	-0.754038	-0.335976
H48	H	1.444823	-0.753902	-1.058115
O49	O	1.428351	-0.775296	-0.843164
H50	H	1.385205	-0.831376	-0.896152
H51	H	1.148048	-0.461560	-0.598838
