data_functionalizedCrystal
_audit_creation_method	'MofGen! by Chris Wilmer'
_symmetry_space_group_name_H-M	'P1'
_symmetry_Int_Tables_number	1
_symmetry_cell_setting	triclinic
loop_
_symmetry_equiv_pos_as_xyz
  x,y,z
_cell_length_a	12.759401
_cell_length_b	12.645330
_cell_length_c	12.759393
_cell_angle_alpha	89.969952
_cell_angle_beta	89.981504
_cell_angle_gamma	90.017853
loop_
_atom_site_label
_atom_site_type_symbol
_atom_site_fract_x
_atom_site_fract_y
_atom_site_fract_z
Zn1	Zn	1.606234	-0.421972	-0.593992
Zn2	Zn	1.606119	-0.599276	-0.418317
Zn3	Zn	1.430536	-0.422028	-0.418332
Zn4	Zn	1.430515	-0.599195	-0.593959
O5	O	1.518351	-0.510618	-0.506150
O6	O	1.753239	-0.445503	-0.570697
O7	O	1.582788	-0.575821	-0.271298
O8	O	1.453899	-0.273673	-0.441654
O9	O	1.753155	-0.575767	-0.441629
O10	O	1.582983	-0.273632	-0.570711
O11	O	1.453788	-0.445598	-0.271309
O12	O	1.283512	-0.445518	-0.441621
O13	O	1.453864	-0.575628	-0.740984
O14	O	1.283497	-0.575682	-0.570653
O15	O	1.582964	-0.445424	-0.741009
O16	O	1.582768	-0.747613	-0.441596
O17	O	1.453753	-0.747553	-0.570639
C18	C	1.245383	-0.510598	-0.506136
C19	C	1.128607	-0.510615	-0.506155
C20	C	1.073764	-0.578500	-0.573231
C21	C	0.964040	-0.578514	-0.573242
C22	C	0.964011	-0.442755	-0.439092
C23	C	1.073733	-0.442737	-0.439087
C24	C	1.128638	-0.646379	-0.640298
C25	C	1.073796	-0.714270	-0.707379
C26	C	0.964072	-0.714284	-0.707390
C27	C	0.909190	-0.646406	-0.640321
C28	C	1.518274	-0.786048	-0.506135
C29	C	1.518337	-0.903878	-0.506164
C30	C	1.437509	-1.071448	-0.587595
C31	C	1.437095	-0.948888	-0.587334
C32	C	1.488364	-0.948482	-0.395443
C33	C	1.487871	-1.071080	-0.395937
C34	C	1.629634	-1.070964	-0.534556
C35	C	1.628952	-0.948357	-0.536977
C36	C	1.792384	-0.510638	-0.506165
C37	C	1.909161	-0.510647	-0.506171
C38	C	1.518424	-0.510511	-0.780183
C39	C	1.518456	-0.510465	-0.896960
C40	C	1.518456	-0.234112	-0.506188
C41	C	1.518501	-0.116282	-0.506204
C42	C	1.585687	-0.442661	-0.951837
C43	C	1.585712	-0.442623	-1.061561
C44	C	1.451271	-0.578202	-1.061522
C45	C	1.451242	-0.578234	-0.951800
C46	C	1.652901	-0.374893	-0.896997
C47	C	1.720139	-0.307084	-0.951874
C48	C	1.720164	-0.307046	-1.061598
C49	C	1.652951	-0.374816	-1.116445
C50	C	1.518338	-0.510648	-0.233183
C51	C	1.518510	-0.510395	-0.116407
H52	H	1.118488	-0.769527	-0.761990
H53	H	1.652890	-0.374919	-0.807654
H54	H	1.455848	-0.918727	-0.669433
C55	C	1.378127	-1.109854	-0.363501
H56	H	1.376859	-1.184973	-0.363513
H57	H	1.327598	-1.083920	-0.411749
H58	H	1.362224	-1.084600	-0.295215
C59	C	1.794119	-0.232460	-1.121960
H60	H	1.834147	-0.192113	-1.073581
H61	H	1.753965	-0.186250	-1.164771
H62	H	1.839892	-0.273014	-1.164755
C63	C	0.903747	-0.788950	-0.781182
H64	H	0.952146	-0.829374	-0.821118
H65	H	0.860972	-0.748458	-0.827032
H66	H	0.860920	-0.835102	-0.740914
C67	C	0.788496	-0.646412	-0.640335
H68	H	0.763669	-0.596264	-0.590789
H69	H	0.763650	-0.714803	-0.622058
H70	H	0.763711	-0.628155	-0.708172
H71	H	0.919317	-0.387493	-0.384487
C72	C	1.462507	-1.111299	-0.698846
H73	H	1.522568	-1.155629	-0.696660
H74	H	1.475872	-1.052673	-0.743476
H75	H	1.404474	-1.150246	-0.725025
C76	C	1.794064	-0.232541	-0.891547
H77	H	1.784429	-0.242280	-0.818340
H78	H	1.778725	-0.161306	-0.909540
H79	H	1.864656	-0.248066	-0.909534
C80	C	1.134063	-0.368060	-0.365310
H81	H	1.085670	-0.327645	-0.325360
H82	H	1.176885	-0.321917	-0.405584
H83	H	1.176846	-0.408551	-0.319457
C84	C	1.377356	-0.652753	-1.121852
H85	H	1.387011	-0.643030	-1.195058
H86	H	1.306764	-0.637244	-1.103875
H87	H	1.392710	-0.723989	-1.103852
H88	H	1.407972	-0.917873	-0.370989
C89	C	1.652981	-0.374774	-1.237140
H90	H	1.702652	-0.324690	-1.261970
H91	H	1.585197	-0.356432	-1.261964
H92	H	1.671137	-0.443183	-1.261943
H93	H	1.355635	-1.102351	-0.569052
C94	C	1.666571	-1.112612	-0.641773
H95	H	1.614553	-1.158032	-0.670251
H96	H	1.730140	-1.150739	-0.633267
H97	H	1.677780	-1.054751	-0.687959
C98	C	1.714765	-0.906980	-0.462715
H99	H	1.684117	-0.861840	-0.411714
H100	H	1.765426	-0.868611	-0.501883
H101	H	1.747678	-0.964976	-0.428704
H102	H	1.396480	-0.633429	-0.907118
C103	C	1.325801	-0.909389	-0.561945
H104	H	1.280668	-0.968271	-0.551741
H105	H	1.300557	-0.867658	-0.618476
H106	H	1.327516	-0.867883	-0.499930
H107	H	1.544302	-1.100743	-0.333226
H108	H	1.545485	-0.919329	-0.333143
H109	H	1.651556	-0.919199	-0.618463
C110	C	1.711129	-1.110025	-0.454405
H111	H	1.677650	-1.153752	-0.403914
H112	H	1.742082	-1.051006	-0.420320
H113	H	1.763913	-1.149407	-0.489513
H114	H	1.217981	-0.646378	-0.640294
