data_functionalizedCrystal
_audit_creation_method	'MofGen! by Chris Wilmer'
_symmetry_space_group_name_H-M	'P1'
_symmetry_Int_Tables_number	1
_symmetry_cell_setting	triclinic
loop_
_symmetry_equiv_pos_as_xyz
  x,y,z
_cell_length_a	20.453700
_cell_length_b	19.453067
_cell_length_c	19.551833
_cell_angle_alpha	83.672880
_cell_angle_beta	78.336523
_cell_angle_gamma	101.708464
loop_
_atom_site_label
_atom_site_type_symbol
_atom_site_fract_x
_atom_site_fract_y
_atom_site_fract_z
V1	V	-1.332495	-0.097918	0.218183
V2	V	-0.832495	0.402082	0.718183
O3	O	-1.331534	0.003948	0.213698
O4	O	-0.831534	0.503948	0.713698
O5	O	-1.313501	-0.193427	0.217010
O6	O	-0.813501	0.306573	0.717010
O7	O	-1.313428	-0.096745	0.313194
O8	O	-0.813428	0.403255	0.813194
O9	O	-1.331607	-0.093404	0.116847
O10	O	-0.831607	0.406596	0.616847
V11	V	-1.494455	-0.085695	0.206024
V12	V	-0.994455	0.414305	0.706024
O13	O	-1.417857	-0.124732	0.244855
O14	O	-0.917857	0.375268	0.744855
O15	O	-1.559158	-0.058881	0.179351
O16	O	-1.059158	0.441119	0.679351
O17	O	-1.439047	0.009814	0.207197
O18	O	-0.939047	0.509814	0.707197
O19	O	-1.534548	-0.187561	0.210509
O20	O	-1.034548	0.312439	0.710509
O21	O	-1.534475	-0.090209	0.307359
O22	O	-1.034475	0.409791	0.807359
O23	O	-1.439119	-0.086868	0.111012
O24	O	-0.939119	0.413132	0.611012
V25	V	-0.999161	-0.097918	0.218183
V26	V	-0.499161	0.402082	0.718183
O27	O	-0.998200	0.003948	0.213698
O28	O	-0.498200	0.503948	0.713698
O29	O	-0.980167	-0.193427	0.217010
O30	O	-0.480167	0.306573	0.717010
O31	O	-0.980095	-0.096745	0.313194
O32	O	-0.480095	0.403255	0.813194
O33	O	-0.998273	-0.093404	0.116847
O34	O	-0.498273	0.406596	0.616847
V35	V	-1.161122	-0.085695	0.206024
V36	V	-0.661122	0.414305	0.706024
O37	O	-1.084524	-0.124732	0.244855
O38	O	-0.584524	0.375268	0.744855
O39	O	-1.225825	-0.058881	0.179351
O40	O	-0.725825	0.441119	0.679351
O41	O	-1.105714	0.009814	0.207197
O42	O	-0.605714	0.509814	0.707197
O43	O	-1.201215	-0.187561	0.210509
O44	O	-0.701215	0.312439	0.710509
O45	O	-1.201142	-0.090209	0.307359
O46	O	-0.701142	0.409791	0.807359
O47	O	-1.105786	-0.086868	0.111012
O48	O	-0.605786	0.413132	0.611012
V49	V	-0.665828	-0.097918	0.218183
V50	V	-0.165828	0.402082	0.718183
O51	O	-0.664867	0.003948	0.213698
O52	O	-0.164867	0.503948	0.713698
O53	O	-0.646834	-0.193427	0.217010
O54	O	-0.146834	0.306573	0.717010
O55	O	-0.646761	-0.096745	0.313194
O56	O	-0.146761	0.403255	0.813194
O57	O	-0.664940	-0.093404	0.116847
O58	O	-0.164940	0.406596	0.616847
V59	V	-0.827788	-0.085695	0.206024
V60	V	-0.327788	0.414305	0.706024
O61	O	-0.751191	-0.124732	0.244855
O62	O	-0.251191	0.375268	0.744855
O63	O	-0.892492	-0.058881	0.179351
O64	O	-0.392492	0.441119	0.679351
O65	O	-0.772380	0.009814	0.207197
O66	O	-0.272380	0.509814	0.707197
O67	O	-0.867882	-0.187561	0.210509
O68	O	-0.367882	0.312439	0.710509
O69	O	-0.867809	-0.090209	0.307359
O70	O	-0.367809	0.409791	0.807359
O71	O	-0.772453	-0.086868	0.111012
O72	O	-0.272453	0.413132	0.611012
C73	C	-1.261233	-0.216699	0.213650
C74	C	-0.761233	0.283301	0.713650
C75	C	-1.272779	-0.294781	0.213324
C76	C	-0.772779	0.205219	0.713324
C77	C	-1.344729	-0.841955	0.147055
C78	C	-0.844729	-0.341955	0.647055
C79	C	-1.333874	-0.768587	0.147354
C80	C	-0.833874	-0.268587	0.647354
C81	C	-1.338933	-0.742106	0.211487
C82	C	-0.838933	-0.242106	0.711487
C83	C	-1.354832	-0.788998	0.275325
C84	C	-0.854832	-0.288998	0.775325
C85	C	-1.365679	-0.862363	0.275024
C86	C	-0.865679	-0.362363	0.775024
N87	N	-1.367543	-0.636820	0.262183
N88	N	-0.867543	-0.136820	0.762183
N89	N	-1.357239	-0.567125	0.262465
N90	N	-0.857239	-0.067125	0.762465
C91	C	-1.306250	-0.521061	0.212399
C92	C	-0.806250	-0.021061	0.712399
N93	N	-1.265960	-0.547324	0.162030
N94	N	-0.765960	-0.047324	0.662030
N95	N	-1.276267	-0.617025	0.161746
N96	N	-0.776267	-0.117025	0.661746
C97	C	-1.327172	-0.662555	0.211821
C98	C	-0.827172	-0.162555	0.711821
C99	C	-1.278579	-0.394625	0.148889
C100	C	-0.778579	0.105375	0.648889
C101	C	-1.267720	-0.321257	0.149190
C102	C	-0.767720	0.178743	0.649190
C103	C	-1.288685	-0.341670	0.277164
C104	C	-0.788685	0.158330	0.777164
C105	C	-1.299536	-0.415036	0.276860
C106	C	-0.799536	0.084964	0.776860
C107	C	-1.294485	-0.441509	0.212721
C108	C	-0.794485	0.058491	0.712721
C109	C	-1.261140	-0.093371	0.336342
C110	C	-0.761140	0.406629	0.836342
C111	C	-1.272627	-0.093043	0.414017
C112	C	-0.772627	0.406957	0.914017
C113	C	-1.379095	0.033083	0.210554
C114	C	-0.879095	0.533083	0.710554
C115	C	-1.360628	0.111163	0.210885
C116	C	-0.860628	0.611163	0.710885
C117	C	-1.379188	-0.090245	0.087860
C118	C	-0.879188	0.409755	0.587860
C119	C	-1.360781	-0.090569	0.010185
C120	C	-0.860781	0.409431	0.510185
C121	C	-0.927900	-0.216699	0.213650
C122	C	-0.427900	0.283301	0.713650
C123	C	-0.939446	-0.294781	0.213324
C124	C	-0.439446	0.205219	0.713324
C125	C	-1.338509	-0.096415	0.454075
C126	C	-0.838509	0.403585	0.954075
C127	C	-1.349302	-0.096107	0.527059
C128	C	-0.849302	0.403893	1.027059
C129	C	-1.294211	-0.092441	0.559983
C130	C	-0.794211	0.407559	1.059983
C131	C	-1.228319	-0.089065	0.519915
C132	C	-0.728319	0.410935	1.019915
C133	C	-1.217527	-0.089366	0.446931
C134	C	-0.717527	0.410634	0.946931
C135	C	-1.272133	-0.130633	0.679422
C136	C	-0.772133	0.369367	1.179422
C137	C	-1.282928	-0.130337	0.752404
C138	C	-0.782928	0.369663	1.252404
C139	C	-1.327495	-0.091510	0.785087
C140	C	-0.827495	0.408490	1.285087
C141	C	-1.361277	-0.052990	0.744780
C142	C	-0.861277	0.447010	1.244780
C143	C	-1.350485	-0.053291	0.671797
C144	C	-0.850485	0.446709	1.171797
C145	C	-1.305907	-0.092114	0.639120
C146	C	-0.805907	0.407886	1.139120
C147	C	-1.405083	-0.094548	0.904282
C148	C	-0.905083	0.405452	1.404282
C149	C	-1.415873	-0.094235	0.977266
C150	C	-0.915873	0.405765	1.477266
C151	C	-1.294890	-0.087201	0.970122
C152	C	-0.794890	0.412799	1.470122
C153	C	-1.284101	-0.087506	0.897138
C154	C	-0.784101	0.412494	1.397138
C155	C	-1.339201	-0.091183	0.864223
C156	C	-0.839201	0.408817	1.364223
C157	C	-0.927807	-0.093371	0.336342
C158	C	-0.427807	0.406629	0.836342
C159	C	-0.939293	-0.093043	0.414017
C160	C	-0.439293	0.406957	0.914017
C161	C	-1.045762	0.033083	0.210554
C162	C	-0.545762	0.533083	0.710554
C163	C	-1.027295	0.111163	0.210885
C164	C	-0.527295	0.611163	0.710885
C165	C	-1.045855	-0.090245	0.087860
C166	C	-0.545855	0.409755	0.587860
C167	C	-1.027448	-0.090569	0.010185
C168	C	-0.527448	0.409431	0.510185
C169	C	-0.594566	-0.216699	0.213650
C170	C	-0.094566	0.283301	0.713650
C171	C	-0.606112	-0.294781	0.213324
C172	C	-0.106112	0.205219	0.713324
C173	C	-0.594474	-0.093371	0.336342
C174	C	-0.094474	0.406629	0.836342
C175	C	-0.605960	-0.093043	0.414017
C176	C	-0.105960	0.406957	0.914017
C177	C	-0.712428	0.033083	0.210554
C178	C	-0.212428	0.533083	0.710554
C179	C	-0.693962	0.111163	0.210885
C180	C	-0.193962	0.611163	0.710885
C181	C	-0.712521	-0.090245	0.087860
C182	C	-0.212521	0.409755	0.587860
C183	C	-0.694115	-0.090569	0.010185
C184	C	-0.194115	0.409431	0.510185
C185	C	-1.005361	-0.335042	0.216674
C186	C	-0.505361	0.164958	0.716674
C187	C	-1.016221	-0.408410	0.216379
C188	C	-0.516221	0.091590	0.716379
C189	C	-0.961164	-0.441515	0.212728
C190	C	-0.461164	0.058485	0.712728
C191	C	-0.895243	-0.401248	0.209380
C192	C	-0.395243	0.098752	0.709380
C193	C	-0.884385	-0.327883	0.209681
C194	C	-0.384385	0.172117	0.709681
C195	C	-1.005180	-0.096403	0.454067
C196	C	-0.505180	0.403597	0.954067
C197	C	-1.015980	-0.096086	0.527049
C198	C	-0.515980	0.403914	1.027049
C199	C	-0.960894	-0.092414	0.559981
C200	C	-0.460894	0.407586	1.059981
C201	C	-0.895002	-0.089051	0.519925
C202	C	-0.395002	0.410949	1.019925
C203	C	-0.884202	-0.089363	0.446943
C204	C	-0.384202	0.410637	0.946943
C205	C	-1.076375	0.151424	0.207537
C206	C	-0.576375	0.651424	0.707537
C207	C	-1.059030	0.224792	0.207835
C208	C	-0.559030	0.724792	0.707835
C209	C	-0.992605	0.257896	0.211487
C210	C	-0.492605	0.757896	0.711487
C211	C	-0.943521	0.217630	0.214834
C212	C	-0.443521	0.717630	0.714834
C213	C	-0.960865	0.144265	0.214530
C214	C	-0.460865	0.644265	0.714530
C215	C	-0.961046	-0.094233	-0.022729
C216	C	-0.461046	0.405767	0.477271
C217	C	-0.943740	-0.094529	-0.095714
C218	C	-0.443740	0.405471	0.404286
C219	C	-0.992837	-0.091166	-0.135782
C220	C	-0.492837	0.408834	0.364218
C221	C	-1.059244	-0.087499	-0.102864
C222	C	-0.559244	0.412501	0.397136
C223	C	-1.076548	-0.087198	-0.029881
C224	C	-0.576548	0.412802	0.470119
C225	C	-0.672028	-0.335042	0.216674
C226	C	-0.172028	0.164958	0.716674
C227	C	-0.682888	-0.408410	0.216379
C228	C	-0.182888	0.091590	0.716379
C229	C	-0.627830	-0.441515	0.212728
C230	C	-0.127830	0.058485	0.712728
C231	C	-0.561910	-0.401248	0.209380
C232	C	-0.061910	0.098752	0.709380
C233	C	-0.551052	-0.327883	0.209681
C234	C	-0.051052	0.172117	0.709681
C235	C	-0.671846	-0.096403	0.454067
C236	C	-0.171846	0.403597	0.954067
C237	C	-0.682647	-0.096086	0.527049
C238	C	-0.182647	0.403914	1.027049
C239	C	-0.627561	-0.092414	0.559981
C240	C	-0.127561	0.407586	1.059981
C241	C	-0.561669	-0.089051	0.519925
C242	C	-0.061669	0.410949	1.019925
C243	C	-0.550869	-0.089363	0.446943
C244	C	-0.050869	0.410637	0.946943
C245	C	-0.743042	0.151424	0.207537
C246	C	-0.243042	0.651424	0.707537
C247	C	-0.725696	0.224792	0.207835
C248	C	-0.225696	0.724792	0.707835
C249	C	-0.659272	0.257896	0.211487
C250	C	-0.159272	0.757896	0.711487
C251	C	-0.610188	0.217630	0.214834
C252	C	-0.110188	0.717630	0.714834
C253	C	-0.627532	0.144265	0.214530
C254	C	-0.127532	0.644265	0.714530
C255	C	-0.627713	-0.094233	-0.022729
C256	C	-0.127713	0.405767	0.477271
C257	C	-0.610406	-0.094529	-0.095714
C258	C	-0.110406	0.405471	0.404286
C259	C	-0.659504	-0.091166	-0.135782
C260	C	-0.159504	0.408834	0.364218
C261	C	-0.725910	-0.087499	-0.102864
C262	C	-0.225910	0.412501	0.397136
C263	C	-0.743214	-0.087198	-0.029881
C264	C	-0.243214	0.412802	0.470119
H265	H	-1.340614	-0.863504	0.094828
H266	H	-0.840614	-0.363504	0.594828
H267	H	-0.978740	-0.091421	-0.195208
H268	H	-0.478740	0.408579	0.304792
Cl269	Cl	-0.860257	-0.099145	-0.137080
Cl270	Cl	-0.360257	0.400855	0.362920
Cl271	Cl	-0.468178	-0.277276	0.205462
Cl272	Cl	0.031822	0.222724	0.705462
H273	H	-0.517086	-0.428214	0.206408
H274	H	-0.017086	0.071786	0.706408
Cl275	Cl	-1.417310	-0.004181	0.785858
Cl276	Cl	-0.917310	0.495819	1.285858
Cl277	Cl	-0.526924	-0.099145	-0.137080
Cl278	Cl	-0.026924	0.400855	0.362920
Cl279	Cl	-0.765762	-0.459015	0.220584
Cl280	Cl	-0.265762	0.040985	0.720584
H281	H	-0.850419	-0.428214	0.206408
H282	H	-0.350419	0.071786	0.706408
H283	H	-1.312487	-0.453209	0.328838
H284	H	-0.812487	0.046791	0.828838
H285	H	-1.130620	-0.084218	-0.003088
H286	H	-0.630620	0.415782	0.496912
H287	H	-0.920896	0.111489	0.217262
H288	H	-0.420896	0.611489	0.717262
H289	H	-0.830708	-0.295106	0.206949
H290	H	-0.330708	0.204894	0.706949
Cl291	Cl	-0.468035	-0.085148	0.396605
Cl292	Cl	0.031965	0.414852	0.896605
Cl293	Cl	-1.432131	-0.100342	0.577428
Cl294	Cl	-0.932131	0.399658	1.077428
H295	H	-0.516822	-0.086062	0.546750
H296	H	-0.016822	0.413938	1.046750
Cl297	Cl	-0.641492	-0.533748	0.212349
Cl298	Cl	-0.141492	-0.033748	0.712349
Cl299	Cl	-0.765487	-0.100319	0.577391
Cl300	Cl	-0.265487	0.399681	1.077391
H301	H	-0.645158	0.317636	0.211734
H302	H	-0.145158	0.817636	0.711734
Cl303	Cl	-0.787412	0.275396	0.203631
Cl304	Cl	-0.287412	0.775396	0.703631
Cl305	Cl	-1.498704	-0.098474	1.027627
Cl306	Cl	-0.998704	0.401526	1.527627
H307	H	-0.556104	0.244596	0.217806
H308	H	-0.056104	0.744596	0.717806
Cl309	Cl	-1.074442	-0.101019	0.412683
Cl310	Cl	-0.574442	0.398981	0.912683
H311	H	-0.921060	-0.096971	0.009886
H312	H	-0.421060	0.403029	0.509886
H313	H	-1.320923	-0.730408	0.095374
H314	H	-0.820923	-0.230408	0.595374
Cl315	Cl	-0.860017	0.259259	0.219421
Cl316	Cl	-0.360017	0.759259	0.719421
Cl317	Cl	-0.787627	-0.083281	-0.153245
Cl318	Cl	-0.287627	0.416719	0.346755
H319	H	-0.587563	0.111489	0.217262
H320	H	-0.087563	0.611489	0.717262
Cl321	Cl	-1.098821	-0.100319	0.577391
Cl322	Cl	-0.598821	0.399681	1.077391
Cl323	Cl	-0.825760	-0.084445	0.561338
Cl324	Cl	-0.325760	0.415555	1.061338
Cl325	Cl	-0.974826	-0.533748	0.212349
Cl326	Cl	-0.474826	-0.033748	0.712349
H327	H	-0.969698	-0.092161	0.619408
H328	H	-0.469698	0.407839	1.119408
Cl329	Cl	-0.741256	-0.293442	0.221271
Cl330	Cl	-0.241256	0.206558	0.721271
H331	H	-1.235835	-0.162245	0.652817
H332	H	-0.735835	0.337755	1.152817
Cl333	Cl	-1.225629	-0.082579	1.011503
Cl334	Cl	-0.725629	0.417421	1.511503
Cl335	Cl	-1.392952	-0.004868	0.621127
Cl336	Cl	-0.892952	0.495132	1.121127
H337	H	-0.797132	0.124480	0.204563
H338	H	-0.297132	0.624480	0.704563
H339	H	-0.636365	-0.092161	0.619408
H340	H	-0.136365	0.407839	1.119408
Cl341	Cl	-1.120961	-0.083281	-0.153245
Cl342	Cl	-0.620961	0.416719	0.346755
Cl343	Cl	-0.741108	-0.101019	0.412683
Cl344	Cl	-0.241108	0.398981	0.912683
Cl345	Cl	-0.565978	-0.098460	0.027628
Cl346	Cl	-0.065978	0.401540	0.527628
Cl347	Cl	-0.637739	-0.091549	-0.227532
Cl348	Cl	-0.137739	0.408451	0.272468
H349	H	-1.449949	-0.097539	0.877481
H350	H	-0.949949	0.402461	1.377481
Cl351	Cl	-1.295041	-0.308386	0.357790
Cl352	Cl	-0.795041	0.191614	0.857790
Cl353	Cl	-0.826700	-0.082603	0.011489
Cl354	Cl	-0.326700	0.417397	0.511489
H355	H	-1.163876	-0.086615	0.414315
H356	H	-0.663876	0.413385	0.914315
Cl357	Cl	-1.361186	-0.755708	0.355950
Cl358	Cl	-0.861186	-0.255708	0.855950
H359	H	-1.378625	-0.900536	0.327003
H360	H	-0.878625	-0.400536	0.827003
Cl361	Cl	-1.201275	-0.083279	0.846778
Cl362	Cl	-0.701275	0.416721	1.346778
Cl363	Cl	-0.801368	-0.085148	0.396605
Cl364	Cl	-0.301368	0.414852	0.896605
Cl365	Cl	-1.407777	-0.101033	0.412700
Cl366	Cl	-0.907777	0.398967	0.912700
Cl367	Cl	-1.120745	0.275396	0.203631
Cl368	Cl	-0.620745	0.775396	0.703631
Cl369	Cl	-1.272222	-0.427909	0.068258
Cl370	Cl	-0.772222	0.072091	0.568258
H371	H	-1.255423	-0.161707	0.785218
H372	H	-0.755423	0.338293	1.285218
Cl373	Cl	-1.247726	-0.262317	0.068939
Cl374	Cl	-0.747726	0.237683	0.568939
Cl375	Cl	-1.074589	-0.293442	0.221271
Cl376	Cl	-0.574589	0.206558	0.721271
Cl377	Cl	-1.099096	-0.459015	0.220584
Cl378	Cl	-0.599096	0.040985	0.720584
Cl379	Cl	-1.159062	-0.084455	0.561303
Cl380	Cl	-0.659062	0.415545	1.061303
Cl381	Cl	-1.159886	0.109823	0.202944
Cl382	Cl	-0.659886	0.609823	0.702944
Cl383	Cl	-0.970812	0.350129	0.211869
Cl384	Cl	-0.470812	0.850129	0.711869
