data_functionalizedCrystal
_audit_creation_method	'MofGen! by Chris Wilmer'
_symmetry_space_group_name_H-M	'P1'
_symmetry_Int_Tables_number	1
_symmetry_cell_setting	triclinic
loop_
_symmetry_equiv_pos_as_xyz
  x,y,z
_cell_length_a	19.077409
_cell_length_b	12.759400
_cell_length_c	19.076919
_cell_angle_alpha	92.275542
_cell_angle_beta	94.476475
_cell_angle_gamma	92.316286
loop_
_atom_site_label
_atom_site_type_symbol
_atom_site_fract_x
_atom_site_fract_y
_atom_site_fract_z
Zn1	Zn	1.061716	-0.375879	-0.355463
Zn2	Zn	1.561716	0.124121	0.144537
Zn3	Zn	1.066390	-0.544223	-0.237590
Zn4	Zn	1.566390	-0.044223	0.262410
Zn5	Zn	0.948571	-0.375914	-0.242312
Zn6	Zn	1.448571	0.124086	0.257688
Zn7	Zn	0.943820	-0.558874	-0.360153
Zn8	Zn	1.443820	-0.058874	0.139847
O9	O	1.005124	-0.463723	-0.298879
O10	O	1.505124	0.036277	0.201121
O11	O	1.160983	-0.392064	-0.335889
O12	O	1.660983	0.107936	0.164111
O13	O	1.054705	-0.515780	-0.139569
O14	O	1.554705	-0.015780	0.360431
O15	O	0.963612	-0.228887	-0.257335
O16	O	1.463612	0.271113	0.242665
O17	O	1.164417	-0.515746	-0.249287
O18	O	1.664417	-0.015746	0.250713
O19	O	1.046739	-0.228862	-0.340467
O20	O	1.546739	0.271138	0.159533
O21	O	0.968144	-0.392124	-0.143038
O22	O	1.468144	0.107876	0.356962
O23	O	0.849293	-0.406330	-0.261882
O24	O	1.349293	0.093670	0.238118
O25	O	0.955515	-0.540717	-0.458178
O26	O	1.455515	-0.040717	0.041822
O27	O	0.845803	-0.540750	-0.348459
O28	O	1.345803	-0.040750	0.151541
O29	O	1.042132	-0.406271	-0.454733
O30	O	1.542132	0.093729	0.045267
O31	O	1.050098	-0.693189	-0.253834
O32	O	1.550098	-0.193189	0.246166
O33	O	0.960047	-0.703953	-0.343881
O34	O	1.460047	-0.203953	0.156119
C35	C	0.821970	-0.475135	-0.306193
C36	C	1.321970	0.024865	0.193807
C37	C	0.743615	-0.480043	-0.309338
C38	C	1.243615	0.019957	0.190662
C39	C	0.302366	-0.515166	-0.331930
C40	C	0.802366	-0.015166	0.168070
C41	C	0.375989	-0.510561	-0.328961
C42	C	0.875989	-0.010561	0.171039
C43	C	0.414592	-0.438170	-0.282476
C44	C	0.914592	0.061830	0.217524
C45	C	0.379568	-0.370386	-0.238951
C46	C	0.879568	0.129614	0.261049
C47	C	0.305947	-0.374997	-0.241916
C48	C	0.805947	0.125003	0.258084
C49	C	0.634970	-0.416870	-0.268778
C50	C	1.134970	0.083130	0.231222
C51	C	0.708596	-0.412263	-0.265818
C52	C	1.208596	0.087737	0.234182
C53	C	0.705012	-0.552439	-0.355828
C54	C	1.205012	-0.052439	0.144172
C55	C	0.631389	-0.557039	-0.358792
C56	C	1.131389	-0.057039	0.141208
C57	C	0.596372	-0.489259	-0.315264
C58	C	1.096372	0.010741	0.184736
N59	N	0.489847	-0.433459	-0.279442
N60	N	0.989847	0.066541	0.220558
N61	N	0.521119	-0.493976	-0.318295
N62	N	1.021119	0.006024	0.181705
C63	C	1.005083	-0.736692	-0.298869
C64	C	1.505083	-0.236692	0.201131
C65	C	1.005129	-0.853467	-0.298885
C66	C	1.505129	-0.353467	0.201115
C67	C	1.048392	-0.908229	-0.342211
C68	C	1.548392	-0.408229	0.157789
C69	C	1.048431	-1.017952	-0.342228
C70	C	1.548431	-0.517952	0.157772
C71	C	0.961942	-1.018140	-0.255588
C72	C	1.461942	-0.518140	0.244412
C73	C	0.961900	-0.908420	-0.255575
C74	C	1.461900	-0.408420	0.244425
C75	C	1.070284	-1.171413	-0.424401
C76	C	1.570284	-0.671413	0.075599
C77	C	1.113558	-1.226178	-0.467720
C78	C	1.613558	-0.726178	0.032280
C79	C	1.181885	-1.186858	-0.475848
C80	C	1.681885	-0.686858	0.024152
C81	C	1.206953	-1.092773	-0.440645
C82	C	1.706953	-0.592773	0.059355
C83	C	1.163682	-1.038013	-0.397321
C84	C	1.663682	-0.538013	0.102679
C85	C	1.095345	-1.077333	-0.389207
C86	C	1.595345	-0.577333	0.110793
C87	C	0.940054	-0.754957	-0.173401
C88	C	1.440054	-0.254957	0.326599
C89	C	0.896787	-0.700194	-0.130072
C90	C	1.396787	-0.200194	0.369928
C91	C	0.828458	-0.739511	-0.121937
C92	C	1.328458	-0.239511	0.378063
C93	C	0.803394	-0.833599	-0.157127
C94	C	1.303394	-0.333599	0.342873
C95	C	0.846661	-0.888361	-0.200456
C96	C	1.346661	-0.388361	0.299544
C97	C	0.914989	-0.849036	-0.208592
C98	C	1.414989	-0.349036	0.291408
C99	C	1.188993	-0.452267	-0.291538
C100	C	1.688993	0.047733	0.208462
C101	C	1.267347	-0.447385	-0.288410
C102	C	1.767347	0.052615	0.211590
C103	C	0.997772	-0.475124	-0.482748
C104	C	1.497772	0.024876	0.017252
C105	C	0.994639	-0.479983	-0.561103
C106	C	1.494639	0.020017	-0.061103
C107	C	1.005184	-0.189687	-0.298905
C108	C	1.505184	0.310313	0.201095
C109	C	1.005210	-0.072910	-0.298916
C110	C	1.505210	0.427090	0.201084
C111	C	1.038262	-0.412270	-0.596121
C112	C	1.538262	0.087730	-0.096121
C113	C	1.035310	-0.416831	-0.669743
C114	C	1.535310	0.083169	-0.169743
C115	C	0.988738	-0.489112	-0.708346
C116	C	1.488738	0.010888	-0.208346
C117	C	0.945110	-0.556828	-0.673322
C118	C	1.445110	-0.056828	-0.173322
C119	C	0.948060	-0.552260	-0.599701
C120	C	1.448060	-0.052260	-0.099701
C121	C	0.975079	-0.510273	-0.928721
C122	C	1.475079	-0.010273	-0.428721
C123	C	0.972134	-0.514838	-1.002347
C124	C	1.472134	-0.014838	-0.502347
C125	C	1.062333	-0.374839	-0.998762
C126	C	1.562333	0.125161	-0.498762
C127	C	1.065281	-0.370283	-0.925140
C128	C	1.565281	0.129717	-0.425140
C129	C	1.021651	-0.437995	-0.890123
C130	C	1.521651	0.062005	-0.390123
N131	N	0.985721	-0.493778	-0.783599
N132	N	1.485721	0.006222	-0.283599
N133	N	1.024665	-0.433322	-0.814871
N134	N	1.524665	0.066678	-0.314871
C135	C	1.012488	-0.452288	-0.115724
C136	C	1.512488	0.047712	0.384276
C137	C	1.015757	-0.447125	-0.037365
C138	C	1.515757	0.052875	0.462635
H139	H	0.277435	-0.319800	-0.206479
H140	H	0.777435	0.180200	0.293521
H141	H	0.926747	-1.062896	-0.220325
H142	H	1.426747	-0.562896	0.279675
F143	F	1.094398	-0.849748	-0.388307
F144	F	1.594398	-0.349748	0.111693
H145	H	0.826248	-0.964972	-0.229110
H146	H	1.326248	-0.464972	0.270890
F147	F	0.922561	-0.591768	-1.043429
F148	F	1.422561	-0.091768	-0.543429
F149	F	1.227940	-1.245147	-0.521951
F150	F	1.727940	-0.745147	-0.021951
F151	F	0.782414	-0.681231	-0.075813
F152	F	1.282414	-0.181231	0.424187
H153	H	1.184092	-0.961413	-0.368658
H154	H	1.684092	-0.461413	0.131342
H155	H	0.404498	-0.565758	-0.364399
H156	H	0.904498	-0.065758	0.135601
H157	H	0.599964	-0.615990	-0.396644
H158	H	1.099964	-0.115990	0.103356
H159	H	1.262595	-1.060772	-0.447260
H160	H	1.762595	-0.560772	0.052740
F161	F	1.087835	-0.335343	-0.555044
F162	F	1.587835	0.164657	-0.055044
H163	H	0.939562	-0.565424	-0.900219
H164	H	1.439562	-0.065424	-0.400219
F165	F	0.895542	-0.633750	-0.714408
F166	F	1.395542	-0.133750	-0.214408
F167	F	1.114850	-0.293352	-0.884062
F168	F	1.614850	0.206648	-0.384062
H169	H	1.014644	-1.203430	-0.417795
H170	H	1.514644	-0.703430	0.082205
F171	F	1.108763	-0.302778	-1.036035
F172	F	1.608763	0.197222	-0.536035
H173	H	0.747756	-0.865614	-0.150502
H174	H	1.247756	-0.365614	0.349498
H175	H	0.912530	-0.607389	-0.571191
H176	H	1.412530	-0.107389	-0.071191
H177	H	0.270941	-0.574109	-0.369787
H178	H	0.770941	-0.074109	0.130213
F179	F	0.742286	-0.624576	-0.402145
F180	F	1.242286	-0.124576	0.097855
H181	H	0.740025	-0.353300	-0.227969
H182	H	1.240025	0.146700	0.272031
F183	F	1.081764	-0.344796	-0.707008
F184	F	1.581764	0.155204	-0.207008
H185	H	1.093142	-1.302782	-0.496383
H186	H	1.593142	-0.802782	0.003617
F187	F	1.012779	-0.713105	-0.182055
F188	F	1.512779	-0.213105	0.317945
F189	F	0.420654	-0.293346	-0.189475
F190	F	0.920654	0.206654	0.310525
F191	F	0.597711	-0.344724	-0.222458
F192	F	1.097711	0.155276	0.277542
H193	H	0.917202	-0.623586	-0.101415
H194	H	1.417202	-0.123586	0.398585
