data_functionalizedCrystal
_audit_creation_method	'MofGen! by Chris Wilmer'
_symmetry_space_group_name_H-M	'P1'
_symmetry_Int_Tables_number	1
_symmetry_cell_setting	triclinic
loop_
_symmetry_equiv_pos_as_xyz
  x,y,z
_cell_length_a	11.169417
_cell_length_b	18.050590
_cell_length_c	11.169409
_cell_angle_alpha	89.962075
_cell_angle_beta	89.979747
_cell_angle_gamma	90.019802
loop_
_atom_site_label
_atom_site_type_symbol
_atom_site_fract_x
_atom_site_fract_y
_atom_site_fract_z
Zn1	Zn	1.834903	-0.295575	-0.678486
Zn2	Zn	1.834761	-0.419790	-0.477783
Zn3	Zn	1.634186	-0.295621	-0.477821
Zn4	Zn	1.634167	-0.419730	-0.678429
O5	O	1.734504	-0.357679	-0.578130
O6	O	2.002833	-0.312058	-0.651870
O7	O	1.808102	-0.403363	-0.309838
O8	O	1.660879	-0.191690	-0.504480
O9	O	2.002729	-0.403318	-0.504414
O10	O	1.808344	-0.191656	-0.651907
O11	O	1.660741	-0.312136	-0.309866
O12	O	1.466234	-0.312079	-0.504424
O13	O	1.660847	-0.403217	-0.846386
O14	O	1.466220	-0.403261	-0.651810
O15	O	1.808326	-0.312000	-0.846428
O16	O	1.808084	-0.523707	-0.504359
O17	O	1.660709	-0.523663	-0.651773
C18	C	1.422679	-0.357669	-0.578116
C19	C	1.289279	-0.357683	-0.578138
C20	C	1.734412	-0.550631	-0.578082
C21	C	1.734482	-0.633177	-0.578101
C22	C	1.814791	-0.832624	-0.498050
C23	C	1.844117	-0.881945	-0.607586
C24	C	1.734550	-0.784307	-0.578149
C25	C	1.705347	-0.882068	-0.468663
C26	C	1.734618	-0.930292	-0.578186
C27	C	1.763932	-0.832541	-0.687743
C28	C	1.625111	-0.832659	-0.548746
C29	C	1.654395	-0.881958	-0.658357
C30	C	1.734514	-0.700209	-0.578127
C31	C	1.734654	-1.014389	-0.578221
C32	C	2.047546	-0.357690	-0.578144
C33	C	2.180946	-0.357694	-0.578150
C34	C	1.734600	-0.357597	-0.891172
C35	C	1.734641	-0.357562	-1.024572
C36	C	1.734629	-0.163973	-0.578204
C37	C	1.734683	-0.081428	-0.578236
C38	C	1.734477	-0.357707	-0.266305
C39	C	1.734669	-0.357533	-0.132905
H40	H	1.882672	-0.810962	-0.430382
H41	H	1.586567	-0.903483	-0.726189
H42	H	1.532558	-0.810992	-0.523820
H43	H	1.680619	-0.903822	-0.376056
H44	H	1.788568	-0.810879	-0.780429
F45	F	1.965128	-0.910232	-0.640140
