data_functionalizedCrystal
_audit_creation_method	'MofGen! by Chris Wilmer'
_symmetry_space_group_name_H-M	'P1'
_symmetry_Int_Tables_number	1
_symmetry_cell_setting	triclinic
loop_
_symmetry_equiv_pos_as_xyz
  x,y,z
_cell_length_a	19.805407
_cell_length_b	18.101395
_cell_length_c	19.805399
_cell_angle_alpha	89.974882
_cell_angle_beta	89.980427
_cell_angle_gamma	90.031104
loop_
_atom_site_label
_atom_site_type_symbol
_atom_site_fract_x
_atom_site_fract_y
_atom_site_fract_z
Zn1	Zn	1.034714	-0.294847	-0.382731
Zn2	Zn	1.034619	-0.418690	-0.269548
Zn3	Zn	0.921528	-0.294867	-0.269556
Zn4	Zn	0.921482	-0.418651	-0.382695
O5	O	0.978086	-0.356764	-0.326132
O6	O	1.129418	-0.311283	-0.367729
O7	O	1.019597	-0.402290	-0.174832
O8	O	0.936601	-0.191232	-0.284587
O9	O	1.129348	-0.402270	-0.284574
O10	O	1.019758	-0.191217	-0.367737
O11	O	0.936510	-0.311318	-0.174838
O12	O	0.826806	-0.311279	-0.284552
O13	O	0.936523	-0.402203	-0.477416
O14	O	0.826772	-0.402223	-0.367674
O15	O	1.019714	-0.311245	-0.477443
O16	O	1.019553	-0.522318	-0.284538
O17	O	0.936432	-0.522289	-0.367667
C18	C	0.802230	-0.356750	-0.326110
C19	C	0.726998	-0.356761	-0.326117
C20	C	0.691654	-0.404187	-0.369329
C21	C	0.620965	-0.404188	-0.369339
C22	C	0.585622	-0.356767	-0.326132
C23	C	0.620971	-0.309336	-0.282919
C24	C	0.691658	-0.309332	-0.282913
C25	C	0.335898	-0.309353	-0.282941
C26	C	0.265206	-0.309363	-0.282948
C27	C	0.265205	-0.404209	-0.369367
C28	C	0.335892	-0.404205	-0.369361
C29	C	0.371235	-0.356771	-0.326150
C30	C	0.447883	-0.356770	-0.326141
C31	C	0.508975	-0.356772	-0.326137
C32	C	0.977995	-0.549174	-0.326112
C33	C	0.978018	-0.631489	-0.326127
C34	C	0.978167	-0.930579	-0.326163
C35	C	0.925991	-0.899267	-0.378595
C36	C	0.925743	-0.813649	-0.378431
C37	C	0.978093	-0.782197	-0.326146
C38	C	0.958782	-0.813345	-0.254811
C39	C	0.958446	-0.898990	-0.255125
C40	C	1.049768	-0.898924	-0.344438
C41	C	1.049347	-0.813273	-0.346002
C42	C	0.978053	-0.698337	-0.326131
C43	C	0.978206	-1.014439	-0.326173
C44	C	1.154629	-0.356779	-0.326155
C45	C	1.229861	-0.356785	-0.326164
C46	C	0.978124	-0.356717	-0.502675
C47	C	0.978140	-0.356697	-0.577907
C48	C	0.978195	-0.163602	-0.326167
C49	C	0.978242	-0.081288	-0.326182
C50	C	1.021458	-0.309333	-0.613266
C51	C	1.021465	-0.309311	-0.683955
C52	C	0.978157	-0.356659	-0.719283
C53	C	0.934834	-0.404025	-0.683919
C54	C	0.934824	-0.404042	-0.613231
C55	C	0.934872	-0.403956	-0.968992
C56	C	0.934887	-0.403937	-1.039684
C57	C	1.021513	-0.309225	-1.039716
C58	C	1.021503	-0.309242	-0.969028
C59	C	0.978178	-0.356606	-0.933670
C60	C	0.978170	-0.356628	-0.857022
C61	C	0.978168	-0.356641	-0.795930
C62	C	0.978087	-0.356757	-0.150276
C63	C	0.978202	-0.356568	-0.075045
H64	H	0.236420	-0.442829	-0.404554
O65	O	0.726098	-0.263288	-0.240999
C66	C	0.834998	-0.221275	-0.202662
C67	C	0.796081	-0.273448	-0.250173
H68	H	0.891586	-0.229482	-0.210053
H69	H	0.821181	-0.161561	-0.214647
H70	H	0.821032	-0.234193	-0.148072
H71	H	0.810026	-0.260597	-0.304779
H72	H	0.809901	-0.333146	-0.238131
O73	O	1.001729	-0.923688	-0.206846
C74	C	1.029972	-0.925505	-0.088522
C75	C	0.980899	-0.897495	-0.143125
H76	H	1.013157	-0.904327	-0.036994
H77	H	1.030113	-0.988485	-0.088259
H78	H	1.083012	-0.904396	-0.099904
H79	H	0.927836	-0.918551	-0.131781
H80	H	0.980817	-0.834516	-0.143376
O81	O	0.230768	-0.263369	-0.240993
C82	C	0.121868	-0.221335	-0.202718
C83	C	0.160785	-0.273461	-0.250257
H84	H	0.065281	-0.229464	-0.210202
H85	H	0.135692	-0.234266	-0.148105
H86	H	0.135828	-0.161640	-0.214685
H87	H	0.146846	-0.333173	-0.238351
H88	H	0.146957	-0.260466	-0.304856
O89	O	0.892666	-0.449940	-0.718203
C90	C	0.777518	-0.485906	-0.739769
C91	C	0.825194	-0.433846	-0.700915
H92	H	0.722957	-0.472923	-0.725796
H93	H	0.784907	-0.477759	-0.796374
H94	H	0.789404	-0.545620	-0.725867
H95	H	0.813338	-0.374112	-0.714761
H96	H	0.817796	-0.442057	-0.644320
H97	H	0.592192	-0.442808	-0.404525
H98	H	0.995590	-0.792973	-0.214680
O99	O	0.863066	-0.925100	-0.364436
C100	C	0.767157	-0.994673	-0.403970
C101	C	0.838418	-0.965474	-0.420089
H102	H	0.747202	-1.027309	-0.448961
H103	H	0.769411	-1.032127	-0.357734
H104	H	0.732080	-0.946146	-0.393293
H105	H	0.873535	-1.013954	-0.430799
H106	H	0.836111	-0.927999	-0.466307
H107	H	0.592189	-0.270722	-0.247742
O108	O	1.063434	-0.263300	-0.578879
C109	C	1.072578	-0.163299	-0.499130
C110	C	1.024967	-0.215401	-0.538016
H111	H	1.041496	-0.124549	-0.466094
H112	H	1.107938	-0.197264	-0.465990
H113	H	1.103552	-0.129476	-0.536562
H114	H	0.993949	-0.249235	-0.500633
H115	H	0.989652	-0.181393	-0.571166
H116	H	0.937825	-0.792587	-0.431325
H117	H	0.364665	-0.442822	-0.404542
H118	H	1.056788	-0.270657	-1.068513
H119	H	1.063910	-0.792912	-0.398501
O120	O	0.892758	-0.450024	-0.934756
C121	C	0.806781	-0.543907	-0.942191
C122	C	0.854461	-0.491791	-0.981051
H123	H	0.775795	-0.577678	-0.979603
H124	H	0.837778	-0.582698	-0.909104
H125	H	0.771436	-0.509883	-0.909089
H126	H	0.889815	-0.525755	-1.014189
H127	H	0.823422	-0.452998	-1.014095
H128	H	1.067374	-0.920474	-0.395569
O129	O	0.892825	-0.450164	-0.578907
C130	C	0.859885	-0.576140	-0.557271
C131	C	0.907500	-0.523991	-0.596174
H132	H	0.871722	-0.635839	-0.571227
H133	H	0.867324	-0.568081	-0.500674
H134	H	0.805318	-0.563096	-0.571147
H135	H	0.962085	-0.537002	-0.582354
H136	H	0.900002	-0.532060	-0.652761
O137	O	0.940300	-0.923660	-0.441933
C138	C	0.969208	-0.890483	-0.556187
C139	C	0.953027	-0.862751	-0.484483
H140	H	0.979488	-0.841252	-0.590613
H141	H	1.015681	-0.927575	-0.554555
H142	H	0.924380	-0.923159	-0.576489
H143	H	0.997813	-0.830043	-0.464139
H144	H	0.906531	-0.825697	-0.486158
H145	H	0.899617	-0.442494	-1.068446
H146	H	0.872670	-0.793225	-0.366326
H147	H	0.364665	-0.270735	-0.247751
H148	H	0.906106	-0.919033	-0.239644
O149	O	0.896967	-0.787969	-0.235975
C150	C	0.782958	-0.819363	-0.204536
C151	C	0.852936	-0.848199	-0.225841
H152	H	0.747336	-0.868043	-0.196350
H153	H	0.787776	-0.786589	-0.155631
H154	H	0.761944	-0.782096	-0.245905
H155	H	0.873991	-0.885495	-0.184517
H156	H	0.848076	-0.880931	-0.274764
O157	O	1.098224	-0.787858	-0.303753
C158	C	1.184942	-0.819131	-0.223374
C159	C	1.129624	-0.848012	-0.271216
H160	H	1.210334	-0.867750	-0.197044
H161	H	1.224153	-0.786998	-0.253643
H162	H	1.161253	-0.781250	-0.183978
H163	H	1.153253	-0.885922	-0.310621
H164	H	1.090420	-0.880103	-0.240901
H165	H	1.088641	-0.919172	-0.306250
H166	H	1.056741	-0.270744	-0.712741
O167	O	0.726013	-0.450331	-0.411204
C168	C	0.805810	-0.550295	-0.420151
C169	C	0.766931	-0.498097	-0.372647
H170	H	0.838912	-0.588916	-0.388998
H171	H	0.768433	-0.584244	-0.451027
H172	H	0.838903	-0.516327	-0.455608
H173	H	0.733837	-0.532008	-0.337150
H174	H	0.804344	-0.464146	-0.341819
O175	O	1.063594	-0.263179	-0.934816
C176	C	1.149545	-0.169259	-0.942310
C177	C	1.101902	-0.221379	-0.981137
H178	H	1.180539	-0.135462	-0.979743
H179	H	1.118518	-0.130493	-0.909236
H180	H	1.184883	-0.203282	-0.909197
H181	H	1.066555	-0.187416	-1.014287
H182	H	1.132972	-0.260147	-1.014168
