data_functionalizedCrystal
_audit_creation_method	'MofGen! by Chris Wilmer'
_symmetry_space_group_name_H-M	'P1'
_symmetry_Int_Tables_number	1
_symmetry_cell_setting	triclinic
loop_
_symmetry_equiv_pos_as_xyz
  x,y,z
_cell_length_a	9.065218
_cell_length_b	9.198806
_cell_length_c	10.723024
_cell_angle_alpha	90.002012
_cell_angle_beta	84.741877
_cell_angle_gamma	90.004029
loop_
_atom_site_label
_atom_site_type_symbol
_atom_site_fract_x
_atom_site_fract_y
_atom_site_fract_z
O1	O	1.959362	0.120892	0.182983
O2	O	1.529992	0.120894	0.197992
O3	O	1.754581	0.120888	0.008952
O4	O	1.734773	0.120898	0.372024
O5	O	1.754563	-0.120897	0.008951
O6	O	1.529974	-0.120891	0.197992
O7	O	1.959344	-0.120893	0.182983
Cu8	Cu	1.744657	-0.142969	0.190487
Cu9	Cu	1.744678	0.142970	0.190488
O10	O	1.734755	-0.120887	0.372023
C11	C	1.475004	0.000002	0.196550
C12	C	1.311186	0.000002	0.192237
N13	N	1.744653	-0.344083	0.190486
C14	C	1.838951	-0.416283	0.110762
C15	C	1.838974	-0.583695	0.110757
C16	C	2.014331	0.000003	0.184425
C17	C	2.178150	0.000011	0.188738
C18	C	1.753130	-0.000003	-0.037554
C19	C	1.748817	0.000002	-0.176126
N20	N	1.744694	0.344084	0.190479
C21	C	1.874486	0.000003	-0.250598
C22	C	1.870031	0.000009	-0.393819
C23	C	1.736205	0.000007	0.418529
C24	C	1.740518	0.000012	0.557101
H25	H	1.919663	-0.354159	0.042504
N26	N	2.012543	0.000020	-0.478580
H27	H	2.099584	0.000018	-0.426142
H28	H	2.016623	-0.089612	-0.533184
N29	N	2.021376	-0.000011	-0.194617
H30	H	2.079390	-0.089643	-0.223065
H31	H	2.079299	0.089676	-0.223067
N32	N	1.637723	-0.426366	0.280889
H33	H	1.694922	-0.489508	0.336610
H34	H	1.574812	-0.355092	0.334008
N35	N	1.598007	-0.000010	-0.358138
H36	H	1.593787	0.089613	-0.303513
H37	H	1.511040	-0.000067	-0.410654
N38	N	1.945931	-0.665923	0.020347
H39	H	1.930789	-0.773861	0.033162
H40	H	1.927722	-0.639403	-0.068343
N41	N	1.637744	-0.573682	0.280891
H42	H	1.532787	-0.600116	0.265552
H43	H	1.656025	-0.600117	0.369584
N44	N	1.601934	-0.000004	-0.232118
H45	H	1.543902	-0.089637	-0.203686
H46	H	1.544022	0.089682	-0.203664
