data_functionalizedCrystal
_audit_creation_method	'MofGen! by Chris Wilmer'
_symmetry_space_group_name_H-M	'P1'
_symmetry_Int_Tables_number	1
_symmetry_cell_setting	triclinic
loop_
_symmetry_equiv_pos_as_xyz
  x,y,z
_cell_length_a	11.026607
_cell_length_b	16.992695
_cell_length_c	15.455313
_cell_angle_alpha	87.152573
_cell_angle_beta	86.733581
_cell_angle_gamma	80.372880
loop_
_atom_site_label
_atom_site_type_symbol
_atom_site_fract_x
_atom_site_fract_y
_atom_site_fract_z
O1	O	1.647502	-0.330183	-0.072122
O2	O	2.147502	0.169817	0.427878
O3	O	1.290520	-0.292276	-0.072126
O4	O	1.790520	0.207724	0.427874
O5	O	1.467580	-0.196885	-0.072117
O6	O	1.967580	0.303115	0.427883
O7	O	1.470443	-0.425574	-0.072131
O8	O	1.970443	0.074426	0.427869
O9	O	1.457452	-0.202311	0.072145
O10	O	1.957452	0.297689	0.572145
O11	O	1.280392	-0.297702	0.072136
O12	O	1.780392	0.202298	0.572136
O13	O	1.637374	-0.335609	0.072140
O14	O	2.137374	0.164391	0.572140
Cu15	Cu	1.457959	-0.317151	0.085310
Cu16	Cu	1.957959	0.182849	0.585310
Cu17	Cu	1.469936	-0.310734	-0.085296
Cu18	Cu	1.969936	0.189266	0.414704
O19	O	1.460315	-0.431000	0.072131
O20	O	1.960315	0.069000	0.572131
C21	C	1.239567	-0.287996	0.000005
C22	C	1.739567	0.212004	0.500005
C23	C	1.102832	-0.267149	0.000003
C24	C	1.602832	0.232851	0.500003
C25	C	1.458834	-0.169866	0.000014
C26	C	1.958834	0.330134	0.500014
C27	C	1.447848	-0.081271	0.000013
C28	C	1.947848	0.418729	0.500013
C29	C	1.688328	-0.339889	0.000008
C30	C	2.188328	0.160111	0.500008
C31	C	1.825064	-0.360736	0.000003
C32	C	2.325064	0.139264	0.500003
C33	C	1.893287	-0.303174	0.000005
C34	C	2.393287	0.196826	0.500005
C35	C	2.034611	-0.324719	0.000001
C36	C	2.534611	0.175281	0.500001
C37	C	1.469061	-0.458019	-0.000002
C38	C	1.969061	0.041981	0.499998
C39	C	1.480047	-0.546614	-0.000007
C40	C	1.980047	-0.046614	0.499993
N41	N	1.449543	-0.321665	0.205305
N42	N	1.949543	0.178335	0.705305
C43	C	1.553845	-0.045992	0.000015
C44	C	2.053845	0.454008	0.500015
C45	C	1.543516	0.037253	0.000007
C46	C	2.043516	0.537253	0.500007
C47	C	1.427189	0.085217	0.000003
C48	C	1.927189	0.585217	0.500003
C49	C	1.321184	0.049933	-0.000002
C50	C	1.821184	0.549933	0.499998
C51	C	1.331514	-0.033310	0.000000
C52	C	1.831514	0.466690	0.500000
C53	C	1.384373	0.334859	-0.000010
C54	C	1.884373	0.834859	0.499990
C55	C	1.374050	0.418107	-0.000009
C56	C	1.874050	0.918107	0.499991
C57	C	1.596384	0.405422	-0.000002
C58	C	2.096384	0.905422	0.499998
C59	C	1.606704	0.322177	0.000006
C60	C	2.106704	0.822177	0.500006
C61	C	1.500699	0.286900	-0.000004
C62	C	2.000699	0.786900	0.499996
N63	N	1.416628	0.170307	-0.000003
N64	N	1.916628	0.670307	0.499997
N65	N	1.511262	0.201812	-0.000004
N66	N	2.011262	0.701812	0.499996
N67	N	1.478360	-0.306215	-0.205291
N68	N	1.978360	0.193785	0.294709
C69	C	1.524794	-0.281163	0.250703
C70	C	2.024794	0.218837	0.750703
C71	C	1.518442	-0.284586	0.341511
C72	C	2.018442	0.215414	0.841511
C73	C	1.436845	-0.328516	0.386919
C74	C	1.936845	0.171484	0.886919
C75	C	1.361586	-0.369019	0.341514
C76	C	1.861586	0.130981	0.841514
C77	C	1.367932	-0.365591	0.250708
C78	C	1.867932	0.134409	0.750708
C79	C	1.409448	-0.343290	0.658499
C80	C	1.909448	0.156710	1.158499
C81	C	1.403110	-0.346717	0.749311
C82	C	1.903110	0.153283	1.249311
C83	C	1.559965	-0.262282	0.749301
C84	C	2.059965	0.237718	1.249301
C85	C	1.566310	-0.258862	0.658493
C86	C	2.066310	0.241138	1.158493
C87	C	1.491046	-0.299362	0.613097
C88	C	1.991046	0.200638	1.113097
N89	N	1.430353	-0.332018	0.479739
N90	N	1.930353	0.167982	0.979739
N91	N	1.497533	-0.295855	0.520279
N92	N	1.997533	0.204145	1.020279
H93	H	1.847068	-0.237944	0.000024
H94	H	2.347068	0.262056	0.500024
H95	H	1.648572	-0.085040	0.000024
H96	H	2.148572	0.414960	0.500024
H97	H	1.591245	-0.245394	0.213738
H98	H	2.091245	0.254606	0.713738
H99	H	2.080823	-0.389954	0.000001
H100	H	2.580823	0.110046	0.500001
H101	H	1.336660	-0.382493	0.786278
H102	H	1.836660	0.117507	1.286278
H103	H	1.306653	-0.398571	0.213746
H104	H	1.806653	0.101429	0.713746
H105	H	2.056625	-0.201911	-0.000049
H106	H	2.556625	0.298089	0.499951
H107	H	1.701430	0.283129	0.000009
H108	H	2.201430	0.783129	0.500009
H109	H	1.629831	0.065973	0.000011
H110	H	2.129831	0.565973	0.500011
H111	H	1.226467	0.088993	-0.000011
H112	H	1.726467	0.588993	0.499989
H113	H	1.579716	-0.251605	0.378473
H114	H	2.079716	0.248395	0.878473
H115	H	1.348168	-0.376269	0.621544
H116	H	1.848168	0.123731	1.121544
H117	H	1.632753	-0.223090	0.621524
H118	H	2.132753	0.276910	1.121524
H119	H	1.871281	-0.425967	0.000003
H120	H	2.371281	0.074033	0.500003
H121	H	1.682687	0.434153	0.000004
H122	H	2.182687	0.934153	0.500004
H123	H	1.279316	0.457158	0.000002
H124	H	1.779316	0.957158	0.500002
H125	H	1.295141	-0.404785	0.378491
H126	H	1.795141	0.095215	0.878491
H127	H	1.245200	-0.062033	-0.000002
H128	H	1.745200	0.437967	0.499998
H129	H	1.298056	0.306147	-0.000017
H130	H	1.798056	0.806147	0.499983
H131	H	1.621240	-0.229308	0.786271
H132	H	2.121240	0.270692	1.286271
