data_functionalizedCrystal
_audit_creation_method	'MofGen! by Chris Wilmer'
_symmetry_space_group_name_H-M	'P1'
_symmetry_Int_Tables_number	1
_symmetry_cell_setting	triclinic
loop_
_symmetry_equiv_pos_as_xyz
  x,y,z
_cell_length_a	10.654550
_cell_length_b	14.044190
_cell_length_c	9.730223
_cell_angle_alpha	89.993542
_cell_angle_beta	89.996251
_cell_angle_gamma	88.838339
loop_
_atom_site_label
_atom_site_type_symbol
_atom_site_fract_x
_atom_site_fract_y
_atom_site_fract_z
O1	O	1.681227	0.133228	-0.114421
O2	O	1.317024	0.145921	-0.114401
O3	O	1.493654	0.001554	-0.114384
O4	O	1.504597	0.277595	-0.114438
O5	O	1.493652	0.001557	0.114196
O6	O	1.317022	0.145925	0.114179
O7	O	1.681225	0.133231	0.114159
Zn8	Zn	1.499123	0.139579	0.150461
Zn9	Zn	1.499126	0.139574	-0.150703
O10	O	1.504595	0.277599	0.114142
C11	C	1.270131	0.144991	-0.000108
C12	C	1.130408	0.142203	-0.000099
C13	C	1.488866	-0.033790	-0.000089
C14	C	1.474587	-0.139110	-0.000077
C15	C	1.059467	0.227204	-0.000136
C16	C	0.928182	0.224578	-0.000159
C17	C	0.938791	0.051942	-0.000114
C18	C	1.070074	0.054569	-0.000081
C19	C	1.119801	0.314837	-0.000154
C20	C	1.048859	0.399846	-0.000192
C21	C	0.917574	0.397220	-0.000215
C22	C	0.857231	0.309586	-0.000200
C23	C	1.549752	-0.388903	-0.000135
C24	C	1.448502	-0.331939	-0.000119
C25	C	1.463019	-0.224639	-0.000096
C26	C	1.535237	-0.496212	-0.000159
C27	C	1.728117	0.134161	-0.000137
C28	C	1.867841	0.136950	-0.000155
C29	C	1.509383	0.312943	-0.000156
C30	C	1.523662	0.418263	-0.000178
N31	N	1.499131	0.139581	0.355997
N32	N	1.499127	0.139564	-0.356239
C33	C	1.577366	0.075677	0.427931
C34	C	1.577362	0.075666	0.571814
C35	C	1.420883	0.203471	0.571817
C36	C	1.420881	0.203477	0.427937
C37	C	1.655616	0.011782	0.355992
C38	C	1.733859	-0.052127	0.427925
C39	C	1.733854	-0.052138	0.571808
C40	C	1.655607	0.011759	0.643758
H41	H	1.226699	0.316985	-0.000141
C42	C	1.146885	-0.037821	-0.000124
C43	C	1.065951	-0.115129	-0.000168
C44	C	1.136665	-0.200255	-0.000223
H45	H	1.198313	-0.040519	0.079577
H46	H	1.198314	-0.040433	-0.079855
H47	H	1.014544	-0.112518	0.079555
H48	H	1.014523	-0.112463	-0.079863
H49	H	1.188094	-0.202867	-0.079955
H50	H	1.188090	-0.202942	0.079479
H51	H	1.081762	-0.252718	-0.000266
C52	C	1.818706	-0.121434	0.349568
C53	C	1.801967	-0.107749	0.208166
C54	C	1.880095	-0.171589	0.135945
H55	H	1.797997	-0.184867	0.373015
H56	H	1.903778	-0.110574	0.373035
H57	H	1.716914	-0.118616	0.184709
H58	H	1.822685	-0.044329	0.184679
H59	H	1.965167	-0.160729	0.159412
H60	H	1.859379	-0.235017	0.159403
H61	H	1.868757	-0.162307	0.039997
H62	H	1.647330	-0.357088	-0.000126
C63	C	1.318303	-0.374227	0.000102
C64	C	1.253192	-0.343869	0.117699
C65	C	1.133250	-0.382800	0.117946
H66	H	1.325533	-0.441752	0.000160
H67	H	1.273866	-0.353688	-0.079558
H68	H	1.297618	-0.364414	0.197337
H69	H	1.245928	-0.276350	0.117665
H70	H	1.088814	-0.362261	0.038287
H71	H	1.140493	-0.450323	0.118001
H72	H	1.089054	-0.362201	0.197727
H73	H	0.750330	0.307455	-0.000198
H74	H	1.097999	0.471194	-0.000193
C75	C	1.655492	0.011976	0.199777
C76	C	1.570250	0.081634	0.152176
C77	C	1.570118	0.081854	0.008280
H78	H	1.631471	-0.048713	0.167048
H79	H	1.737251	0.025581	0.167183
H80	H	1.488509	0.068023	0.184755
H81	H	1.594251	0.142333	0.184867
H82	H	1.651877	0.095459	-0.024313
H83	H	1.546100	0.021162	-0.024435
H84	H	1.512292	0.129122	-0.024035
H85	H	0.859817	0.466438	-0.000233
C86	C	1.818931	-0.121566	0.649662
C87	C	1.887475	-0.177502	0.555859
C88	C	1.965879	-0.241458	0.627524
H89	H	1.769442	-0.161467	0.705798
H90	H	1.875131	-0.087099	0.705756
H91	H	1.831283	-0.211966	0.499788
H92	H	1.936989	-0.137626	0.499720
H93	H	2.022078	-0.206992	0.683618
H94	H	1.916380	-0.281353	0.683658
H95	H	2.012404	-0.279412	0.563890
H96	H	1.655600	0.011737	0.760917
C97	C	0.873211	-0.043170	-0.000397
C98	C	0.798213	-0.049729	-0.118035
C99	C	0.737797	-0.137339	-0.118357
H100	H	0.822096	-0.047877	0.079206
H101	H	0.934227	-0.093448	-0.000445
H102	H	0.737205	0.000535	-0.117974
H103	H	0.849297	-0.045039	-0.197657
H104	H	0.798812	-0.187617	-0.118405
H105	H	0.686689	-0.142038	-0.038749
H106	H	0.686913	-0.141805	-0.198179
C107	C	1.335864	0.272694	0.650107
C108	C	1.253300	0.221618	0.732749
C109	C	1.174976	0.285358	0.804902
H110	H	1.289147	0.310782	0.586818
H111	H	1.385463	0.312481	0.706306
H112	H	1.203706	0.181847	0.676555
H113	H	1.299983	0.183533	0.796064
H114	H	1.224576	0.325145	0.861101
H115	H	1.128268	0.323442	0.741603
H116	H	1.118956	0.250713	0.860992
C117	C	1.335901	0.272968	0.350075
C118	C	1.267408	0.328947	0.443868
C119	C	1.189120	0.392979	0.372192
H120	H	1.279661	0.238588	0.293948
H121	H	1.385508	0.312826	0.293970
H122	H	1.217805	0.289094	0.499949
H123	H	1.323616	0.363347	0.499998
H124	H	1.238726	0.432837	0.316087
H125	H	1.132887	0.358591	0.316067
H126	H	1.142646	0.430974	0.435819
