data_functionalizedCrystal
_audit_creation_method	'MofGen! by Chris Wilmer'
_symmetry_space_group_name_H-M	'P1'
_symmetry_Int_Tables_number	1
_symmetry_cell_setting	triclinic
loop_
_symmetry_equiv_pos_as_xyz
  x,y,z
_cell_length_a	10.654550
_cell_length_b	10.723024
_cell_length_c	9.730223
_cell_angle_alpha	89.996766
_cell_angle_beta	89.999957
_cell_angle_gamma	84.476400
loop_
_atom_site_label
_atom_site_type_symbol
_atom_site_fract_x
_atom_site_fract_y
_atom_site_fract_z
O1	O	1.667813	0.175275	-0.114183
O2	O	1.302332	0.191974	-0.114208
O3	O	1.493503	0.002049	-0.114190
O4	O	1.476642	0.365199	-0.114202
O5	O	1.493490	0.002044	0.114390
O6	O	1.302319	0.191968	0.114372
O7	O	1.667800	0.175269	0.114396
Zn8	Zn	1.485058	0.183618	0.150676
Zn9	Zn	1.485074	0.183625	-0.150488
O10	O	1.476629	0.365194	0.114378
C11	C	1.255528	0.190745	0.000078
C12	C	1.116085	0.187077	0.000069
C13	C	1.036583	0.298901	0.000069
C14	C	0.905562	0.295447	0.000093
C15	C	0.933560	0.068334	0.000111
C16	C	1.064577	0.071789	0.000097
C17	C	1.492269	-0.044453	0.000098
C18	C	1.488598	-0.183008	0.000093
C19	C	1.595567	-0.257975	0.000098
C20	C	1.591776	-0.401179	0.000093
C21	C	1.714604	0.176498	0.000107
C22	C	1.854047	0.180167	0.000107
C23	C	1.477863	0.411696	0.000087
C24	C	1.481534	0.550251	0.000083
N25	N	1.485056	0.183613	0.356212
N26	N	1.485086	0.183621	-0.356024
C27	C	1.569735	0.099550	0.428146
C28	C	1.569748	0.099550	0.572029
C29	C	1.400397	0.267687	0.572032
C30	C	1.400380	0.267680	0.428151
H31	H	0.891606	-0.025530	0.000142
C32	C	1.308270	0.358814	0.650072
C33	C	1.184685	0.337405	0.615126
C34	C	1.099785	0.421318	0.687001
H35	H	1.322443	0.442282	0.626540
H36	H	1.320327	0.346773	0.746077
H37	H	1.172634	0.349458	0.519142
H38	H	1.170473	0.253955	0.638662
H39	H	1.111841	0.409276	0.783006
H40	H	1.113969	0.504780	0.663463
H41	H	1.015923	0.406796	0.663310
H42	H	1.389955	-0.385337	0.000088
H43	H	1.331417	0.336134	0.369579
C44	C	1.714026	-0.486855	0.000167
C45	C	1.816465	-0.414283	0.000209
C46	C	1.929105	-0.493167	0.000294
H47	H	1.717548	-0.538237	-0.079523
H48	H	1.717433	-0.538202	0.079909
H49	H	1.813060	-0.362958	-0.079525
H50	H	1.812985	-0.362903	0.079893
H51	H	1.932512	-0.544513	0.080037
H52	H	1.932614	-0.544545	-0.079397
H53	H	1.998623	-0.443938	0.000336
H54	H	1.689955	-0.216138	0.000113
C55	C	1.092749	0.423941	-0.000021
C56	C	1.224506	0.403040	-0.000074
C57	C	1.276285	0.518200	-0.000173
H58	H	1.065674	0.470131	0.079668
H59	H	1.065586	0.470043	-0.079764
H60	H	1.251658	0.356958	0.079662
H61	H	1.251616	0.356870	-0.079757
H62	H	1.249122	0.564302	-0.079917
H63	H	1.249201	0.564380	0.079517
H64	H	1.365686	0.504034	-0.000222
C65	C	1.362609	-0.238537	0.000010
C66	C	1.264658	-0.141622	-0.000028
C67	C	1.148576	-0.192723	-0.000124
H68	H	1.356394	-0.288750	0.079695
H69	H	1.356517	-0.288715	-0.079737
H70	H	1.270747	-0.091465	0.079711
H71	H	1.270830	-0.091401	-0.079707
H72	H	1.142484	-0.242901	-0.079871
H73	H	1.142374	-0.242936	0.079562
H74	H	1.082102	-0.126975	-0.000162
H75	H	0.840836	0.386506	0.000097
H76	H	1.638682	0.031096	0.369577
C77	C	1.661628	0.008084	0.649953
C78	C	1.640238	-0.114737	0.614940
C79	C	1.724866	-0.199033	0.686681
H80	H	1.649601	0.019947	0.745968
H81	H	1.745580	0.022341	0.626330
H82	H	1.556305	-0.128989	0.638572
H83	H	1.652274	-0.126640	0.518938
H84	H	1.808818	-0.184776	0.663059
H85	H	1.712832	-0.187159	0.782692
H86	H	1.710372	-0.282376	0.662926
H87	H	1.129312	-0.019278	0.000100
