data_functionalizedCrystal
_audit_creation_method	'MofGen! by Chris Wilmer'
_symmetry_space_group_name_H-M	'P1'
_symmetry_Int_Tables_number	1
_symmetry_cell_setting	triclinic
loop_
_symmetry_equiv_pos_as_xyz
  x,y,z
_cell_length_a	13.897449
_cell_length_b	17.077402
_cell_length_c	13.897441
_cell_angle_alpha	89.968703
_cell_angle_beta	89.978743
_cell_angle_gamma	90.026055
loop_
_atom_site_label
_atom_site_type_symbol
_atom_site_fract_x
_atom_site_fract_y
_atom_site_fract_z
Zn1	Zn	1.474632	-0.312473	-0.545438
Zn2	Zn	1.974632	0.187527	-0.045438
Zn3	Zn	1.474511	-0.443753	-0.384135
Zn4	Zn	1.974511	0.056247	0.115865
Zn5	Zn	1.313327	-0.312507	-0.384149
Zn6	Zn	1.813327	0.187493	0.115851
Zn7	Zn	1.313281	-0.443703	-0.545380
Zn8	Zn	1.813281	0.056297	-0.045380
O9	O	1.393938	-0.378109	-0.464776
O10	O	1.893938	0.121891	0.035224
O11	O	1.609597	-0.329895	-0.524060
O12	O	2.109597	0.170105	-0.024060
O13	O	1.453098	-0.426379	-0.249155
O14	O	1.953098	0.073621	0.250845
O15	O	1.334794	-0.202656	-0.405575
O16	O	1.834794	0.297344	0.094425
O17	O	1.609508	-0.426346	-0.405551
O18	O	2.109508	0.073654	0.094449
O19	O	1.453304	-0.202631	-0.524073
O20	O	1.953304	0.297369	-0.024073
O21	O	1.334677	-0.329953	-0.249166
O22	O	1.834677	0.170047	0.250834
O23	O	1.178339	-0.329904	-0.405519
O24	O	1.678339	0.170096	0.094481
O25	O	1.334717	-0.426260	-0.680370
O26	O	1.834717	0.073740	-0.180370
O27	O	1.178306	-0.426293	-0.523974
O28	O	1.678306	0.073707	-0.023974
O29	O	1.453260	-0.329846	-0.680412
O30	O	1.953260	0.170154	-0.180412
O31	O	1.453053	-0.553594	-0.405494
O32	O	1.953053	-0.053594	0.094506
O33	O	1.334599	-0.553557	-0.523960
O34	O	1.834599	-0.053557	-0.023960
C35	C	1.143323	-0.378097	-0.464742
C36	C	1.643323	0.121903	0.035258
C37	C	1.036109	-0.378111	-0.464751
C38	C	1.536109	0.121889	0.035249
C39	C	1.393834	-0.582057	-0.464741
C40	C	1.893834	-0.082057	0.035259
C41	C	1.393878	-0.669307	-0.464758
C42	C	1.893878	-0.169307	0.035242
C43	C	1.455752	-1.045045	-0.526591
C44	C	1.955752	-0.545045	-0.026591
C45	C	1.455708	-0.963064	-0.526568
C46	C	1.955708	-0.463064	-0.026568
C47	C	1.394031	-0.922156	-0.464815
C48	C	1.894031	-0.422156	0.035185
C49	C	1.332400	-0.963232	-0.403074
C50	C	1.832400	-0.463232	0.096926
C51	C	1.332449	-1.045211	-0.403093
C52	C	1.832449	-0.545211	0.096907
C53	C	1.332300	-0.792362	-0.403041
C54	C	1.832300	-0.292362	0.096959
C55	C	1.332250	-0.710378	-0.403024
C56	C	1.832250	-0.210378	0.096976
C57	C	1.455560	-0.710215	-0.526516
C58	C	1.955560	-0.210215	-0.026516
C59	C	1.455609	-0.792194	-0.526535
C60	C	1.955609	-0.292194	-0.026535
C61	C	1.393976	-0.833265	-0.464795
C62	C	1.893976	-0.333265	0.035205
C63	C	0.949040	-0.378114	-0.464767
C64	C	1.449040	0.121886	0.035233
C65	C	0.839807	-0.378119	-0.464796
C66	C	1.339807	0.121881	0.035204
C67	C	1.645531	-0.378122	-0.464810
C68	C	2.145531	0.121878	0.035190
C69	C	1.752745	-0.378127	-0.464825
C70	C	2.252745	0.121873	0.035175
C71	C	1.393997	-0.378043	-0.716369
C72	C	1.893997	0.121957	-0.216369
C73	C	1.394022	-0.378015	-0.823583
C74	C	1.894022	0.121985	-0.323583
C75	C	1.394068	-0.173365	-0.464832
C76	C	1.894068	0.326635	0.035168
C77	C	1.394123	-0.086115	-0.464856
C78	C	1.894123	0.413885	0.035144
C79	C	1.394042	-0.377993	-0.910653
C80	C	1.894042	0.122007	-0.410653
C81	C	1.394069	-0.377958	-1.019885
C82	C	1.894069	0.122042	-0.519885
C83	C	1.393934	-0.378118	-0.214161
C84	C	1.893934	0.121882	0.285839
C85	C	1.394096	-0.377925	-0.106948
C86	C	1.894096	0.122075	0.393052
H87	H	1.505967	-1.078346	-0.576886
H88	H	2.005967	-0.578346	-0.076886
H89	H	1.505830	-0.825500	-0.576822
H90	H	2.005830	-0.325500	-0.076822
H91	H	1.282027	-0.677074	-0.352737
H92	H	1.782027	-0.177074	0.147263
H93	H	1.505744	-0.676771	-0.576787
H94	H	2.005744	-0.176771	-0.076787
O95	O	1.522205	-0.918763	-0.593125
O96	O	2.022205	-0.418763	-0.093125
H97	H	1.565102	-0.960982	-0.636067
H98	H	2.065102	-0.460982	-0.136067
H99	H	1.282114	-0.825799	-0.352764
H100	H	1.782114	-0.325799	0.147236
H101	H	1.282184	-0.929920	-0.352789
H102	H	1.782184	-0.429920	0.147211
O103	O	1.265974	-1.089515	-0.336513
O104	O	1.765974	-0.589515	0.163487
H105	H	1.223070	-1.047298	-0.293576
H106	H	1.723070	-0.547298	0.206424
