data_functionalizedCrystal
_audit_creation_method	'MofGen! by Chris Wilmer'
_symmetry_space_group_name_H-M	'P1'
_symmetry_Int_Tables_number	1
_symmetry_cell_setting	triclinic
loop_
_symmetry_equiv_pos_as_xyz
  x,y,z
_cell_length_a	11.792254
_cell_length_b	12.503572
_cell_length_c	14.044220
_cell_angle_alpha	86.156832
_cell_angle_beta	91.306263
_cell_angle_gamma	86.456155
loop_
_atom_site_label
_atom_site_type_symbol
_atom_site_fract_x
_atom_site_fract_y
_atom_site_fract_z
O1	O	-1.525103	0.089354	0.124589
O2	O	-1.191770	0.422688	0.457923
O3	O	-0.858437	0.756021	0.791256
O4	O	-1.196020	0.089350	0.137974
O5	O	-0.862687	0.422684	0.471307
O6	O	-0.529354	0.756017	0.804640
O7	O	-1.355622	0.089342	-0.006728
O8	O	-1.022288	0.422675	0.326605
O9	O	-0.688955	0.756008	0.659939
O10	O	-1.365502	0.089363	0.269291
O11	O	-1.032169	0.422696	0.602624
O12	O	-0.698835	0.756030	0.935958
O13	O	-1.343620	-0.089300	0.004173
O14	O	-1.010287	0.244034	0.337506
O15	O	-0.676954	0.577367	0.670839
O16	O	-1.184019	-0.089291	0.148874
O17	O	-0.850686	0.244042	0.482208
O18	O	-0.517353	0.577376	0.815541
O19	O	-1.513102	-0.089287	0.135490
O20	O	-1.179769	0.244046	0.468823
O21	O	-0.846436	0.577380	0.802157
Cu22	Cu	-1.347465	-0.105600	0.143177
Cu23	Cu	-1.014132	0.227733	0.476511
Cu24	Cu	-0.680798	0.561066	0.809844
Cu25	Cu	-1.361658	0.105664	0.130286
Cu26	Cu	-1.028324	0.438997	0.463620
Cu27	Cu	-0.694991	0.772330	0.796953
O28	O	-1.353501	-0.089278	0.280192
O29	O	-1.020168	0.244055	0.613525
O30	O	-0.686834	0.577388	0.946858
C31	C	-1.147650	0.000029	0.142581
C32	C	-0.814317	0.333362	0.475914
C33	C	-0.480983	0.666696	0.809248
C34	C	-1.021400	0.000027	0.140057
C35	C	-0.688067	0.333360	0.473391
C36	C	-0.354733	0.666694	0.806724
C37	C	-0.918871	0.000029	0.138007
C38	C	-0.585538	0.333363	0.471340
C39	C	-0.252204	0.666696	0.804674
C40	C	-0.790244	0.000027	0.135443
C41	C	-0.456910	0.333361	0.468777
C42	C	-0.123577	0.666694	0.802110
N43	N	-1.337491	-0.254192	0.152244
N44	N	-1.004157	0.079141	0.485577
N45	N	-0.670824	0.412475	0.818910
C46	C	-1.322819	-0.473306	0.165589
C47	C	-0.989486	-0.139973	0.498922
C48	C	-0.656152	0.193360	0.832256
C49	C	-1.386308	-0.526637	0.107870
C50	C	-1.052975	-0.193304	0.441204
C51	C	-0.719642	0.140030	0.774537
C52	C	-1.378145	-0.648560	0.115296
C53	C	-1.044811	-0.315226	0.448629
C54	C	-0.711478	0.018107	0.781962
C55	C	-1.330981	-0.351373	0.158165
C56	C	-0.997648	-0.018039	0.491498
C57	C	-0.664315	0.315294	0.824831
C58	C	-0.561473	0.000032	0.130883
C59	C	-0.228139	0.333365	0.464216
C60	C	0.105194	0.666698	0.797550
C61	C	-0.687722	0.000025	0.133407
C62	C	-0.354389	0.333358	0.466740
C63	C	-0.021055	0.666692	0.800074
C64	C	-1.345297	0.000021	-0.036615
C65	C	-1.011963	0.333354	0.296719
C66	C	-0.678630	0.666687	0.630052
C67	C	-1.332398	0.000019	-0.141907
C68	C	-0.999064	0.333352	0.191426
C69	C	-0.665731	0.666686	0.524760
N70	N	-1.371640	0.254255	0.121212
N71	N	-1.038307	0.587589	0.454546
N72	N	-0.704973	0.920922	0.787879
C73	C	-1.308817	0.000034	-0.334691
C74	C	-0.975483	0.333368	-0.001358
C75	C	-0.642150	0.666701	0.331975
C76	C	-1.400302	0.000039	-0.391851
C77	C	-1.066968	0.333372	-0.058518
C78	C	-0.733635	0.666705	0.274815
C79	C	-1.387181	0.000047	-0.499123
C80	C	-1.053847	0.333380	-0.165790
C81	C	-0.720514	0.666714	0.167544
C82	C	-1.321936	0.000026	-0.227409
C83	C	-0.988602	0.333359	0.105924
C84	C	-0.655269	0.666692	0.439257
C85	C	-1.363826	0.000045	0.310078
C86	C	-1.030493	0.333379	0.643411
C87	C	-0.697159	0.666712	0.976745
C88	C	-1.376726	0.000054	0.415370
C89	C	-1.043392	0.333387	0.748703
C90	C	-0.710059	0.666720	1.082037
H91	H	-1.446795	-0.480727	0.052880
H92	H	-1.113462	-0.147394	0.386214
H93	H	-0.780128	0.185939	0.719547
H94	H	-1.488483	0.000112	-0.360228
H95	H	-1.155150	0.333445	-0.026895
H96	H	-0.821817	0.666778	0.306439
H97	H	-1.220647	0.000036	-0.366317
H98	H	-0.887313	0.333369	-0.032984
H99	H	-0.553980	0.666702	0.300349
H100	H	-1.262338	-0.519211	0.220577
H101	H	-0.929005	-0.185877	0.553910
H102	H	-0.595671	0.147456	0.887243
