data_functionalizedCrystal
_audit_creation_method	'MofGen! by Chris Wilmer'
_symmetry_space_group_name_H-M	'P1'
_symmetry_Int_Tables_number	1
_symmetry_cell_setting	triclinic
loop_
_symmetry_equiv_pos_as_xyz
  x,y,z
_cell_length_a	25.639242
_cell_length_b	19.805405
_cell_length_c	19.805399
_cell_angle_alpha	89.970699
_cell_angle_beta	89.972605
_cell_angle_gamma	90.021937
loop_
_atom_site_label
_atom_site_type_symbol
_atom_site_fract_x
_atom_site_fract_y
_atom_site_fract_z
Zn1	Zn	0.799297	-0.269560	-0.382853
Zn2	Zn	1.299297	0.230440	0.117147
Zn3	Zn	0.799231	-0.382748	-0.269661
Zn4	Zn	1.299231	0.117252	0.230339
Zn5	Zn	0.711865	-0.269569	-0.269662
Zn6	Zn	1.211865	0.230431	0.230338
Zn7	Zn	0.711837	-0.382703	-0.382792
Zn8	Zn	1.211837	0.117297	0.117208
O9	O	0.755557	-0.326145	-0.326242
O10	O	1.255557	0.173855	0.173758
O11	O	0.872453	-0.284589	-0.367863
O12	O	1.372453	0.215411	0.132137
O13	O	0.787626	-0.367757	-0.174945
O14	O	1.287626	0.132243	0.325055
O15	O	0.723502	-0.174852	-0.284703
O16	O	1.223502	0.325148	0.215297
O17	O	0.872405	-0.367748	-0.284701
O18	O	1.372405	0.132252	0.215299
O19	O	0.787738	-0.174844	-0.367863
O20	O	1.287738	0.325156	0.132137
O21	O	0.723439	-0.284606	-0.174945
O22	O	1.223439	0.215394	0.325055
O23	O	0.638696	-0.284562	-0.284644
O24	O	1.138696	0.215438	0.215356
O25	O	0.723454	-0.367672	-0.477517
O26	O	1.223454	0.132328	0.022483
O27	O	0.638675	-0.367681	-0.367760
O28	O	1.138675	0.132319	0.132240
O29	O	0.787711	-0.284545	-0.477561
O30	O	1.287711	0.215455	0.022439
O31	O	0.787599	-0.477459	-0.284643
O32	O	1.287599	0.022541	0.215357
O33	O	0.723391	-0.477426	-0.367760
O34	O	1.223391	0.022574	0.132240
C35	C	0.755499	-0.502001	-0.326209
C36	C	1.255499	-0.002001	0.173791
C37	C	0.755521	-0.577233	-0.326218
C38	C	1.255521	-0.077233	0.173782
C39	C	0.619715	-0.326118	-0.326196
C40	C	1.119715	0.173882	0.173804
C41	C	0.561601	-0.326123	-0.326193
C42	C	1.061601	0.173877	0.173807
C43	C	0.788987	-0.612572	-0.282984
C44	C	1.288987	-0.112572	0.217016
C45	C	0.789009	-0.683260	-0.282999
C46	C	1.289009	-0.183260	0.217001
C47	C	0.755563	-0.718609	-0.326245
C48	C	1.255563	-0.218609	0.173755
C49	C	0.722095	-0.683265	-0.369483
C50	C	1.222095	-0.183265	0.130517
C51	C	0.722076	-0.612578	-0.369471
C52	C	1.222076	-0.112578	0.130529
C53	C	0.722173	-0.968338	-0.369534
C54	C	1.222173	-0.468338	0.130466
C55	C	0.722193	-1.039030	-0.369541
C56	C	1.222193	-0.539030	0.130459
C57	C	0.789105	-1.039021	-0.283061
C58	C	1.289105	-0.539021	0.216939
C59	C	0.789086	-0.968334	-0.283049
C60	C	1.289086	-0.468334	0.216951
C61	C	0.755621	-0.932996	-0.326290
C62	C	1.255621	-0.432996	0.173710
C63	C	0.755598	-0.856348	-0.326274
C64	C	1.255598	-0.356348	0.173726
C65	C	0.755583	-0.795256	-0.326258
C66	C	1.255583	-0.295256	0.173742
C67	C	0.201236	-0.369497	-0.369480
C68	C	0.701236	0.130503	0.130520
C69	C	0.146631	-0.369502	-0.369490
C70	C	0.646631	0.130498	0.130510
O71	O	0.118393	-0.406347	-0.406256
O72	O	0.618393	0.093653	0.093744
N73	N	0.119318	-0.326164	-0.326286
N74	N	0.619318	0.173836	0.173714
C75	C	0.146612	-0.282814	-0.283073
C76	C	0.646612	0.217186	0.216927
O77	O	0.118366	-0.245952	-0.246326
O78	O	0.618366	0.254048	0.253674
C79	C	0.201216	-0.282807	-0.283067
C80	C	0.701216	0.217193	0.216933
C81	C	0.228526	-0.326152	-0.326269
C82	C	0.728526	0.173848	0.173731
C83	C	0.228546	-0.412839	-0.412679
C84	C	0.728546	0.087161	0.087321
C85	C	0.283147	-0.412835	-0.412667
C86	C	0.783147	0.087165	0.087333
C87	C	0.310437	-0.369491	-0.369456
C88	C	0.810437	0.130509	0.130544
C89	C	0.283126	-0.326149	-0.326257
C90	C	0.783126	0.173851	0.173743
C91	C	0.228508	-0.239454	-0.239858
C92	C	0.728508	0.260546	0.260142
C93	C	0.283116	-0.239451	-0.239855
C94	C	0.783116	0.260549	0.260145
C95	C	0.310426	-0.282796	-0.283057
C96	C	0.810426	0.217204	0.216943
C97	C	0.365017	-0.282801	-0.283034
C98	C	0.865017	0.217199	0.216966
N99	N	0.392330	-0.326139	-0.326239
N100	N	0.892330	0.173861	0.173761
C101	C	0.365040	-0.369483	-0.369450
C102	C	0.865040	0.130517	0.130550
C103	C	0.031942	-0.282831	-0.283092
C104	C	0.531942	0.217169	0.216908
C105	C	-0.022661	-0.282841	-0.283094
C106	C	0.477339	0.217159	0.216906
C107	C	-0.022638	-0.369528	-0.369513
C108	C	0.477362	0.130472	0.130487
C109	C	0.031966	-0.369521	-0.369506
C110	C	0.531966	0.130479	0.130494
C111	C	0.059255	-0.326169	-0.326296
C112	C	0.559255	0.173831	0.173704
C113	C	0.479705	-0.369473	-0.369421
C114	C	0.979705	0.130527	0.130579
C115	C	0.534311	-0.369468	-0.369404
C116	C	1.034311	0.130532	0.130596
C117	C	0.534283	-0.282779	-0.282988
C118	C	1.034283	0.217221	0.217012
C119	C	0.479682	-0.282787	-0.283003
C120	C	0.979682	0.217213	0.216997
C121	C	0.452395	-0.326136	-0.326225
C122	C	0.952395	0.173864	0.173775
O123	O	0.393290	-0.245973	-0.246290
O124	O	0.893290	0.254027	0.253710
O125	O	0.393293	-0.406333	-0.406197
O126	O	0.893293	0.093667	0.093803
C127	C	0.891930	-0.326172	-0.326289
C128	C	1.391930	0.173828	0.173711
C129	C	0.950044	-0.326184	-0.326308
C130	C	1.450044	0.173816	0.173692
C131	C	0.755587	-0.326102	-0.502785
C132	C	1.255587	0.173898	-0.002785
C133	C	0.755599	-0.326084	-0.578017
C134	C	1.255599	0.173916	-0.078017
C135	C	0.755631	-0.149602	-0.326290
C136	C	1.255631	0.350398	0.173710
C137	C	0.755662	-0.074370	-0.326310
C138	C	1.255662	0.425630	0.173690
C139	C	0.789058	-0.282798	-0.613385
C140	C	1.289058	0.217202	-0.113385
C141	C	0.789064	-0.282779	-0.684074
C142	C	1.289064	0.217221	-0.184074
C143	C	0.755612	-0.326049	-0.719393
C144	C	1.255612	0.173951	-0.219393
C145	C	0.722149	-0.369337	-0.684019
C146	C	1.222149	0.130663	-0.184019
C147	C	0.722142	-0.369352	-0.613332
C148	C	1.222142	0.130648	-0.113332
C149	C	0.722179	-0.369274	-0.969093
C150	C	1.222179	0.130726	-0.469093
C151	C	0.722190	-0.369256	-1.039785
C152	C	1.222190	0.130744	-0.539785
C153	C	0.789101	-0.282700	-1.039834
C154	C	1.289101	0.217300	-0.539834
C155	C	0.789093	-0.282716	-0.969147
C156	C	1.289093	0.217284	-0.469147
C157	C	0.755629	-0.326001	-0.933780
C158	C	1.255629	0.173999	-0.433780
C159	C	0.755623	-0.326020	-0.857132
C160	C	1.255623	0.173980	-0.357132
C161	C	0.755621	-0.326033	-0.796040
C162	C	1.255621	0.173967	-0.296040
C163	C	0.755558	-0.326139	-0.150386
C164	C	1.255558	0.173861	0.349614
C165	C	0.755647	-0.325966	-0.075154
C166	C	1.255647	0.174034	0.424846
H167	H	0.816220	-0.583796	-0.247766
H168	H	1.316220	-0.083796	0.252234
H169	H	0.816300	-0.247565	-0.584634
H170	H	1.316300	0.252435	-0.084634
F171	F	0.824693	-0.236731	-0.721712
F172	F	1.324693	0.263269	-0.221712
F173	F	0.686546	-0.415386	-0.721610
F174	F	1.186546	0.084614	-0.221610
F175	F	0.686563	-0.415341	-0.931461
F176	F	1.186563	0.084659	-0.431461
F177	F	0.824629	-0.720867	-0.236986
F178	F	1.324629	-0.220867	0.263014
F179	F	0.199510	-0.458976	-0.458675
F180	F	0.699510	0.041024	0.041325
H181	H	0.694826	-0.583805	-0.404678
H182	H	1.194826	-0.083805	0.095322
H183	H	0.556544	-0.404768	-0.404585
H184	H	1.056544	0.095232	0.095415
F185	F	0.199454	-0.193316	-0.193878
F186	F	0.699454	0.306684	0.306122
F187	F	0.061026	-0.415654	-0.415488
F188	F	0.561026	0.084346	0.084512
F189	F	0.312206	-0.458967	-0.458652
F190	F	0.812206	0.041033	0.041348
H191	H	0.305332	-0.204144	-0.204671
H192	H	0.805332	0.295856	0.295329
H193	H	0.816334	-0.247483	-0.940394
H194	H	1.316334	0.252517	-0.440394
F195	F	0.450672	-0.415611	-0.415423
F196	F	0.950672	0.084389	0.084577
H197	H	-0.044892	-0.247552	-0.247908
H198	H	0.455108	0.252448	0.252092
F199	F	0.060980	-0.236691	-0.237094
F200	F	0.560980	0.263309	0.262906
F201	F	-0.051691	-0.415655	-0.415507
F202	F	0.448309	0.084345	0.084493
H203	H	0.694891	-0.404593	-0.584536
H204	H	1.194891	0.095407	-0.084536
F205	F	0.450616	-0.236664	-0.237013
F206	F	0.950616	0.263336	0.262987
F207	F	0.824684	-0.930717	-0.237021
F208	F	1.324684	-0.430717	0.262979
H209	H	0.694865	-0.712051	-0.404698
H210	H	1.194865	-0.212051	0.095302
F211	F	0.686556	-0.930738	-0.415554
F212	F	1.186556	-0.430738	0.084446
F213	F	0.824724	-1.076635	-0.237043
F214	F	1.324724	-0.576635	0.262957
F215	F	0.563337	-0.236651	-0.237002
F216	F	1.063337	0.263349	0.262998
F217	F	0.824715	-0.236629	-1.077480
F218	F	1.324715	0.263371	-0.577480
F219	F	0.686594	-1.076649	-0.415572
F220	F	1.186594	-0.576649	0.084428
F221	F	0.686584	-0.415312	-1.077372
F222	F	1.186584	0.084688	-0.577372
