data_functionalizedCrystal
_audit_creation_method	'MofGen! by Chris Wilmer'
_symmetry_space_group_name_H-M	'P1'
_symmetry_Int_Tables_number	1
_symmetry_cell_setting	triclinic
loop_
_symmetry_equiv_pos_as_xyz
  x,y,z
_cell_length_a	27.440280
_cell_length_b	17.917603
_cell_length_c	27.440280
_cell_angle_alpha	90.004663
_cell_angle_beta	59.999523
_cell_angle_gamma	57.020305
loop_
_atom_site_label
_atom_site_type_symbol
_atom_site_fract_x
_atom_site_fract_y
_atom_site_fract_z
Zr1	Zr	0.488535	0.755020	-0.041556
O2	O	0.597626	0.629919	-0.123093
O3	O	0.384594	0.793353	-0.016555
O4	O	0.486247	0.793375	-0.118226
O5	O	0.495983	0.629900	0.058772
O6	O	0.478583	0.922330	-0.114393
O7	O	0.495974	0.629898	-0.021422
O8	O	0.296745	0.922292	0.067478
O9	O	0.677821	0.629938	-0.123099
O10	O	0.419720	0.905960	-0.003038
O11	O	0.425446	0.809724	0.053949
O12	O	0.545129	0.809749	-0.065756
O13	O	0.550855	0.713512	-0.008769
Zr14	Zr	0.476328	0.960692	0.092457
Zr15	Zr	0.476313	0.960689	-0.035443
Zr16	Zr	0.488550	0.755023	0.086344
Zr17	Zr	0.616436	0.755050	-0.041566
Zr18	Zr	0.348426	0.960662	0.092467
O19	O	0.580269	0.922359	0.067455
O20	O	0.580248	0.922354	-0.114401
O21	O	0.597647	0.629924	0.058764
O22	O	0.367236	1.085793	0.173994
O23	O	0.367215	1.085788	-0.007863
O24	O	0.384615	0.793358	0.165302
O25	O	0.468880	1.085812	-0.007871
O26	O	0.478616	0.922337	0.169126
O27	O	0.486280	0.793382	0.165294
O28	O	0.468889	1.085814	0.072322
O29	O	0.668106	0.793418	-0.118240
O30	O	0.296757	0.922294	0.169141
O31	O	0.287042	1.085774	0.174000
O32	O	0.287030	1.085771	0.072337
O33	O	0.677833	0.629941	-0.021436
O34	O	0.668117	0.793420	-0.016577
O35	O	0.419734	0.905963	0.116657
O36	O	0.414008	1.002200	0.059670
O37	O	0.539417	0.905988	-0.003048
O38	O	0.545143	0.809752	0.053939
C39	C	0.322446	0.857818	0.025463
C40	C	0.268149	0.857806	0.025468
C41	C	-0.014954	0.928899	0.071748
C42	C	0.036069	0.928890	0.071750
O43	O	0.021305	0.989314	0.111110
N44	N	0.109976	0.857847	0.025457
C45	C	0.132862	0.786813	-0.020844
O46	O	0.200411	0.726385	-0.060220
C47	C	0.081839	0.786827	-0.020848
C48	C	0.007931	0.857869	0.025451
C49	C	-0.088858	0.999936	0.118042
C50	C	-0.139877	0.999943	0.118041
C51	C	-0.116991	0.928914	0.071744
C52	C	-0.043087	0.857877	0.025450
C53	C	0.104725	0.715798	-0.067151
C54	C	0.053695	0.715818	-0.067151
C55	C	-0.020213	0.786860	-0.020852
C56	C	-0.071221	0.786854	-0.020849
N57	N	-0.145128	0.857898	0.025444
C58	C	-0.168014	0.928927	0.071741
C59	C	0.240008	0.786791	-0.020833
C60	C	0.291031	0.786773	-0.020827
C61	C	0.194234	0.928851	0.071766
C62	C	0.143211	0.928864	0.071762
C63	C	0.166101	0.857834	0.025460
C64	C	-0.275153	0.928937	0.071734
C65	C	-0.326172	0.928936	0.071730
C66	C	-0.229371	0.786861	-0.020865
C67	C	-0.178356	0.786859	-0.020859
C68	C	-0.201253	0.857905	0.025443
O69	O	-0.056511	0.726463	-0.060190
O70	O	-0.235563	0.989353	0.111105
C71	C	0.497720	0.600595	0.017804
C72	C	0.502908	0.513283	0.015209
C73	C	0.512386	0.353441	0.010470
C74	C	0.452479	0.362264	0.040430
C75	C	0.457753	0.273322	0.037793
C76	C	0.507114	0.442389	0.013106
C77	C	0.642416	0.857894	0.025437
C78	C	0.696714	0.857906	0.025433
C79	C	0.482413	0.857852	-0.134532
C80	C	0.482407	0.857851	-0.188829
C81	C	0.467143	1.115117	0.033097
C82	C	0.461954	1.202429	0.035692
C83	C	0.547904	0.807643	-0.558300
C84	C	0.547908	0.807646	-0.609323
O85	O	0.603579	0.764964	-0.663552
N86	N	0.482447	0.857865	-0.602102
C87	C	0.416977	0.908093	-0.543854
O88	O	0.361297	0.950810	-0.542398
C89	C	0.416974	0.908096	-0.492833
C90	C	0.482440	0.857865	-0.500059
C91	C	0.613365	0.757418	-0.565523
C92	C	0.613361	0.757414	-0.514504
C93	C	0.547897	0.807635	-0.456263
C94	C	0.482436	0.857861	-0.449040
C95	C	0.351504	0.958329	-0.434587
C96	C	0.351507	0.958327	-0.383565
C97	C	0.416973	0.908096	-0.390791
C98	C	0.416968	0.908079	-0.339780
N99	N	0.482429	0.857859	-0.347000
C100	C	0.547894	0.807637	-0.405242
C101	C	0.416989	0.908086	-0.651005
C102	C	0.416991	0.908079	-0.702024
C103	C	0.547923	0.807633	-0.767489
C104	C	0.547919	0.807635	-0.716468
C105	C	0.482450	0.857867	-0.658225
C106	C	0.547881	0.807632	-0.298096
C107	C	0.547871	0.807629	-0.247070
C108	C	0.416940	0.908079	-0.181610
C109	C	0.416949	0.908078	-0.232632
C110	C	0.482425	0.857853	-0.290876
O111	O	0.361324	0.950742	-0.285532
O112	O	0.603563	0.764938	-0.406687
C113	C	0.482450	0.857860	0.185433
C114	C	0.482456	0.857861	0.239729
C115	C	0.307158	1.115079	0.033110
C116	C	0.247672	1.202378	0.035709
C117	C	0.322465	0.857822	0.185446
C118	C	0.268174	0.857811	0.239747
C119	C	0.307177	1.115083	0.193092
C120	C	0.247697	1.202383	0.249988
C121	C	0.657686	0.600629	-0.142191
C122	C	0.717166	0.513329	-0.199087
C123	C	0.657705	0.600633	0.017791
C124	C	0.717191	0.513334	0.015192
C125	C	0.642398	0.857890	-0.134545
C126	C	0.696689	0.857901	-0.188846
C127	C	0.222718	1.193139	0.004192
C128	C	0.166832	1.275158	0.006622
C129	C	0.135897	1.366415	0.040574
C130	C	0.160856	1.375653	0.072092
C131	C	0.216745	1.293635	0.069658
C132	C	0.239696	0.908041	0.297985
C133	C	0.188692	0.908027	0.349012
C134	C	0.166161	0.857787	0.341798
C135	C	0.194644	0.807550	0.283554
C136	C	0.245652	0.807559	0.232528
C137	C	0.216775	1.293624	0.246961
C138	C	0.160894	1.375660	0.300416
C139	C	0.135932	1.366453	0.356898
C140	C	0.166860	1.275203	0.359924
C141	C	0.222743	1.193169	0.306469
C142	C	0.748094	0.422088	-0.196060
C143	C	0.803991	0.340052	-0.249515
C144	C	0.828955	0.349259	-0.305997
C145	C	0.798024	0.440509	-0.309023
C146	C	0.742132	0.522543	-0.255569
C147	C	0.742150	0.522573	0.046704
C148	C	0.798050	0.440554	0.044259
C149	C	0.828987	0.349297	0.010306
C150	C	0.804025	0.340059	-0.021210
C151	C	0.748130	0.422077	-0.018769
C152	C	0.719202	0.908151	-0.181613
C153	C	0.770207	0.908181	-0.232629
C154	C	0.798700	0.857954	-0.290878
C155	C	0.776182	0.807703	-0.298109
C156	C	0.725175	0.807680	-0.247094
H157	H	-0.386353	0.986788	0.109434
F158	F	0.111873	0.857786	0.396110
F159	F	-0.299530	1.004553	0.121014
H160	H	0.176292	0.766646	0.277689
H161	H	0.135718	1.449952	0.297941
F162	F	0.836898	0.242947	-0.246282
H163	H	0.247913	1.118880	0.308943
H164	H	0.247905	1.118840	-0.023463
F165	F	0.076454	1.453770	0.413785
F166	F	0.584596	0.256266	-0.025643
F167	F	0.806519	0.754245	-0.360107
H168	H	0.874466	0.282454	-0.349519
H169	H	0.601184	0.766721	-0.252961
H170	H	0.601197	0.766734	-0.345516
F171	F	0.617596	0.754177	-0.724164
H172	H	0.601228	0.766738	-0.814921
H173	H	0.818358	0.447994	-0.355017
H174	H	0.363672	0.948986	-0.603581
F175	F	0.275951	0.754099	0.170548
F176	F	0.380265	0.459443	0.076536
F177	F	0.158385	0.961501	0.410994
F178	F	0.709236	0.619688	0.082842
H179	H	0.237090	1.301138	0.200975
F180	F	0.721569	0.412229	-0.052307
F181	F	0.721534	0.412268	-0.135953
F182	F	0.701225	0.754186	-0.254801
F183	F	0.140286	1.265420	0.420042
H184	H	0.258035	0.948953	0.303870
F185	F	0.683048	0.703960	-0.627506
F186	F	0.888475	0.262013	0.007714
F187	F	0.709218	0.619646	-0.258800
H188	H	0.829223	0.265746	-0.048854
F189	F	-0.218532	1.075559	0.167318
H190	H	0.696010	0.949051	-0.134189
H191	H	0.788536	0.949100	-0.226729
F192	F	0.683041	0.703937	-0.522203
H193	H	0.363683	0.948969	-0.696134
H194	H	0.351208	0.728912	-0.058522
H195	H	0.818363	0.448094	0.069926
H196	H	0.840234	0.857981	-0.332413
H197	H	-0.107505	1.057782	0.155744
F198	F	0.281822	1.011800	-0.321578
F199	F	0.169885	1.004450	0.121038
F200	F	0.264380	0.711180	-0.070114
F201	F	0.064555	1.004478	0.121038
F202	F	0.347274	0.961529	-0.224942
H203	H	0.072341	0.657978	-0.104858
F204	F	-0.099695	0.711242	-0.070132
F205	F	0.183376	0.640182	-0.116429
F206	F	-0.205026	0.711267	-0.070133
H207	H	0.363641	0.948966	-0.134182
F208	F	0.140278	1.265307	-0.026924
F209	F	0.281825	1.011791	-0.426883
H210	H	0.090389	1.433192	0.042551
H211	H	0.237054	1.301171	0.095327
F212	F	0.127924	1.472784	0.108225
