data_functionalizedCrystal
_audit_creation_method	'MofGen! by Chris Wilmer'
_symmetry_space_group_name_H-M	'P1'
_symmetry_Int_Tables_number	1
_symmetry_cell_setting	triclinic
loop_
_symmetry_equiv_pos_as_xyz
  x,y,z
_cell_length_a	15.021413
_cell_length_b	14.519709
_cell_length_c	14.519731
_cell_angle_alpha	96.315501
_cell_angle_beta	90.003039
_cell_angle_gamma	90.001715
loop_
_atom_site_label
_atom_site_type_symbol
_atom_site_fract_x
_atom_site_fract_y
_atom_site_fract_z
O1	O	-0.073918	-1.223882	0.120878
O2	O	0.426082	-0.723882	0.620878
O3	O	-0.073946	-0.955406	0.135114
O4	O	0.426054	-0.455406	0.635114
O5	O	-0.073923	-1.096752	-0.006241
O6	O	0.426077	-0.596752	0.493759
O7	O	-0.073941	-1.082536	0.262233
O8	O	0.426059	-0.582536	0.762233
O9	O	0.074141	-1.096729	-0.006221
O10	O	0.574141	-0.596729	0.493779
O11	O	0.074119	-0.955384	0.135134
O12	O	0.574119	-0.455384	0.635134
O13	O	0.074146	-1.223859	0.120898
O14	O	0.574146	-0.723859	0.620898
Zn15	Zn	0.097641	-1.089618	0.128019
Zn16	Zn	0.597641	-0.589618	0.628019
Zn17	Zn	-0.097440	-1.089648	0.127993
Zn18	Zn	0.402560	-0.589648	0.627993
O19	O	0.074124	-1.082513	0.262253
O20	O	0.574124	-0.582513	0.762253
C21	C	0.000083	-0.921035	0.134461
C22	C	0.500083	-0.421035	0.634461
C23	C	0.000073	-0.818654	0.132473
C24	C	0.500073	-0.318654	0.632473
N25	N	0.230778	-1.089604	0.128037
N26	N	0.730778	-0.589604	0.628037
N27	N	-0.230578	-1.089668	0.127968
N28	N	0.269422	-0.589668	0.627968
C29	C	0.470451	-1.024236	0.193369
C30	C	0.970451	-0.524236	0.693369
C31	C	0.529793	-1.107600	0.211406
C32	C	1.029793	-0.607600	0.711406
C33	C	0.412385	-1.089628	0.128014
C34	C	0.912385	-0.589628	0.628014
C35	C	0.529785	-1.006287	0.109998
C36	C	1.029785	-0.506287	0.609998
C37	C	0.587809	-1.089643	0.127994
C38	C	1.087809	-0.589643	0.627994
C39	C	0.470420	-1.173034	0.146092
C40	C	0.970420	-0.673034	0.646092
C41	C	0.470408	-1.071666	0.044648
C42	C	0.970408	-0.571666	0.544648
C43	C	0.529723	-1.155090	0.062650
C44	C	1.029723	-0.655090	0.562650
C45	C	0.311328	-1.089618	0.128028
C46	C	0.811328	-0.589618	0.628028
C47	C	0.688865	-1.089663	0.127979
C48	C	1.188865	-0.589663	0.627979
C49	C	0.000109	-1.096075	-0.040591
C50	C	0.500109	-0.596075	0.459409
C51	C	0.000110	-1.094079	-0.142971
C52	C	0.500110	-0.594079	0.357029
C53	C	0.000115	-1.258230	0.121551
C54	C	0.500115	-0.758230	0.621551
C55	C	0.000120	-1.360612	0.123539
C56	C	0.500120	-0.860612	0.623539
C57	C	0.000114	-0.443757	0.125153
C58	C	0.500114	0.056243	0.625153
C59	C	0.000102	-0.548065	0.127186
C60	C	0.500102	-0.048065	0.627186
C61	C	0.000093	-0.631202	0.128813
C62	C	0.500093	-0.131202	0.628813
C63	C	0.000082	-0.735517	0.130846
C64	C	0.500082	-0.235517	0.630846
C65	C	0.000107	-1.092457	-0.226115
C66	C	0.500107	-0.592457	0.273885
C67	C	0.000100	-1.090430	-0.330424
C68	C	0.500100	-0.590430	0.169576
C69	C	0.000094	-1.088822	-0.413563
C70	C	0.500094	-0.588822	0.086437
C71	C	0.000089	-1.086795	-0.517878
C72	C	0.500089	-0.586795	-0.017878
C73	C	0.000089	-1.083191	0.296603
C74	C	0.500089	-0.583191	0.796603
C75	C	0.000083	-1.085187	0.398983
C76	C	0.500083	-0.585187	0.898983
H77	H	0.444427	-0.968992	0.248682
H78	H	0.944427	-0.468992	0.748682
Br79	Br	0.426894	-1.046280	-0.072808
Br80	Br	0.926894	-0.546280	0.427192
H81	H	0.555864	-0.935800	0.094769
H82	H	1.055864	-0.435800	0.594769
H83	H	0.555877	-1.122806	0.281897
H84	H	1.055877	-0.622806	0.781897
H85	H	0.555584	-1.210457	0.007369
H86	H	1.055584	-0.710457	0.507369
Br87	Br	0.427148	-1.290546	0.171611
Br88	Br	0.927148	-0.790546	0.671611
