data_functionalizedCrystal
_audit_creation_method	'MofGen! by Chris Wilmer'
_symmetry_space_group_name_H-M	'P1'
_symmetry_Int_Tables_number	1
_symmetry_cell_setting	triclinic
loop_
_symmetry_equiv_pos_as_xyz
  x,y,z
_cell_length_a	11.026623
_cell_length_b	9.483335
_cell_length_c	10.967829
_cell_angle_alpha	111.321163
_cell_angle_beta	83.619121
_cell_angle_gamma	101.374660
loop_
_atom_site_label
_atom_site_type_symbol
_atom_site_fract_x
_atom_site_fract_y
_atom_site_fract_z
O1	O	-1.573999	0.260272	0.556392
O2	O	-1.073999	0.760272	1.056392
O3	O	-1.222598	0.244851	0.494830
O4	O	-0.722598	0.744851	0.994830
O5	O	-1.413701	0.206038	0.339918
O6	O	-0.913701	0.706038	0.839918
O7	O	-1.382896	0.299086	0.711304
O8	O	-0.882896	0.799086	1.211304
O9	O	-1.452564	-0.043640	0.308380
O10	O	-0.952564	0.456360	0.808380
O11	O	-1.261460	-0.004826	0.463292
O12	O	-0.761460	0.495174	0.963292
O13	O	-1.612862	0.010595	0.524854
O14	O	-1.112862	0.510595	1.024854
Cu15	Cu	-1.440709	-0.019913	0.491193
Cu16	Cu	-0.940709	0.480087	0.991193
Cu17	Cu	-1.394750	0.275359	0.528491
Cu18	Cu	-0.894750	0.775359	1.028491
O19	O	-1.421758	0.049408	0.679765
O20	O	-0.921758	0.549408	1.179765
C21	C	-1.197169	0.117168	0.467704
C22	C	-0.697169	0.617168	0.967704
C23	C	-1.063502	0.108687	0.433848
C24	C	-0.563502	0.608687	0.933848
C25	C	-0.986805	0.132108	0.527327
C26	C	-0.486805	0.632108	1.027327
C27	C	-0.848653	0.123344	0.492338
C28	C	-0.348653	0.623344	0.992338
N29	N	-1.473043	-0.227592	0.464961
N30	N	-0.973043	0.272408	0.964961
C31	C	-1.433827	0.069105	0.275865
C32	C	-0.933827	0.569105	0.775865
C33	C	-1.435883	0.033068	0.131990
C34	C	-0.935883	0.533068	0.631990
C35	C	-0.638290	0.138281	0.551979
C36	C	-0.138290	0.638281	1.051979
C37	C	-0.771956	0.146768	0.585831
C38	C	-0.271956	0.646768	1.085831
C39	C	-1.431196	-0.458713	0.498926
C40	C	-0.931196	0.041287	0.998926
C41	C	-1.404263	-0.285837	0.520758
C42	C	-0.904263	0.214163	1.020758
N43	N	-1.362426	0.483036	0.554715
N44	N	-0.862426	0.983036	1.054715
C45	C	-1.416668	0.146343	0.084191
C46	C	-0.916668	0.646343	0.584191
C47	C	-1.418792	0.109100	-0.064511
C48	C	-0.918792	0.609100	0.435489
C49	C	-1.401631	0.186344	0.743819
C50	C	-0.901631	0.686344	1.243819
C51	C	-1.399574	0.222391	0.887695
C52	C	-0.899574	0.722391	1.387695
H53	H	-1.026882	0.082185	0.327919
H54	H	-0.526882	0.582185	0.827919
H55	H	-1.023420	0.158641	0.633260
H56	H	-0.523420	0.658641	1.133260
H57	H	-1.551870	-0.305698	0.401036
H58	H	-1.051870	0.194302	0.901036
O59	O	-1.535601	-0.562175	0.414249
O60	O	-1.035601	-0.062175	0.914249
H61	H	-1.624356	-0.522455	0.456475
H62	H	-1.124356	-0.022455	0.956475
H63	H	-0.812039	0.096840	0.386402
H64	H	-0.312039	0.596840	0.886402
O65	O	-1.299834	-0.182398	0.605421
O66	O	-0.799834	0.317602	1.105421
H67	H	-1.295053	-0.062852	0.609265
H68	H	-0.795053	0.437148	1.109265
H69	H	-1.283613	-0.438851	0.618647
H70	H	-0.783613	0.061149	1.118647
H71	H	-1.436809	-0.015460	-0.133673
H72	H	-0.936809	0.484540	0.366327
O73	O	-1.392788	0.311335	0.175790
O74	O	-0.892788	0.811335	0.675790
H75	H	-1.394872	0.314696	0.278212
H76	H	-0.894872	0.814696	0.778212
O77	O	-1.375700	0.387392	-0.020712
O78	O	-0.875700	0.887392	0.479288
H79	H	-1.377786	0.390758	0.081712
H80	H	-0.877786	0.890758	0.581712
H81	H	-0.808564	0.173301	0.691771
H82	H	-0.308564	0.673301	1.191771
O83	O	-1.459776	-0.131923	0.040393
O84	O	-0.959776	0.368077	0.540393
H85	H	-1.457712	-0.135284	-0.062028
H86	H	-0.957712	0.364716	0.437972
