data_functionalizedCrystal
_audit_creation_method	'MofGen! by Chris Wilmer'
_symmetry_space_group_name_H-M	'P1'
_symmetry_Int_Tables_number	1
_symmetry_cell_setting	triclinic
loop_
_symmetry_equiv_pos_as_xyz
  x,y,z
_cell_length_a	12.759401
_cell_length_b	12.759400
_cell_length_c	12.759393
_cell_angle_alpha	89.969761
_cell_angle_beta	89.981266
_cell_angle_gamma	90.014845
loop_
_atom_site_label
_atom_site_type_symbol
_atom_site_fract_x
_atom_site_fract_y
_atom_site_fract_z
Zn1	Zn	1.606258	-0.418214	-0.593981
Zn2	Zn	1.606152	-0.593928	-0.418301
Zn3	Zn	1.430559	-0.418265	-0.418321
Zn4	Zn	1.430549	-0.593852	-0.593943
O5	O	1.518379	-0.506065	-0.506137
O6	O	1.753265	-0.441533	-0.570685
O7	O	1.582819	-0.570680	-0.271283
O8	O	1.453915	-0.271237	-0.441647
O9	O	1.753187	-0.570630	-0.441614
O10	O	1.583000	-0.271199	-0.570704
O11	O	1.453812	-0.441620	-0.271297
O12	O	1.283537	-0.441546	-0.441609
O13	O	1.453897	-0.570499	-0.740969
O14	O	1.283529	-0.570549	-0.570638
O15	O	1.582990	-0.441459	-0.740997
O16	O	1.582809	-0.740939	-0.441577
O17	O	1.453794	-0.740883	-0.570620
C18	C	1.245412	-0.506045	-0.506122
C19	C	1.128635	-0.506062	-0.506141
C20	C	1.073797	-0.573342	-0.573215
C21	C	0.964073	-0.573355	-0.573227
C22	C	0.964035	-0.438806	-0.439081
C23	C	1.073758	-0.438789	-0.439075
C24	C	1.128675	-0.640615	-0.640281
C25	C	1.073836	-0.707901	-0.707360
C26	C	0.964112	-0.707914	-0.707371
C27	C	0.909226	-0.640642	-0.640304
C28	C	1.518317	-0.779032	-0.506115
C29	C	1.518386	-0.895808	-0.506140
C30	C	1.585639	-0.950665	-0.439022
C31	C	1.585703	-1.060389	-0.439054
C32	C	1.451254	-1.060390	-0.573327
C33	C	1.451196	-0.950668	-0.573299
C34	C	1.652830	-0.895805	-0.371864
C35	C	1.720087	-0.950662	-0.304739
C36	C	1.720152	-1.060386	-0.304771
C37	C	1.652959	-1.115253	-0.371929
C38	C	1.792413	-0.506085	-0.506152
C39	C	1.909189	-0.506093	-0.506158
C40	C	1.518454	-0.505965	-0.780170
C41	C	1.518486	-0.505922	-0.896947
C42	C	1.518471	-0.232031	-0.506182
C43	C	1.518509	-0.115255	-0.506201
C44	C	1.585733	-0.438671	-1.061550
C45	C	1.585710	-0.438717	-0.951826
C46	C	1.451287	-0.573094	-0.951797
C47	C	1.451316	-0.573052	-1.061520
C48	C	1.652954	-0.371453	-1.116424
C49	C	1.720155	-0.304283	-1.061581
C50	C	1.720133	-0.304329	-0.951857
C51	C	1.652909	-0.371545	-0.896975
C52	C	1.518365	-0.506088	-0.233169
C53	C	1.518537	-0.505834	-0.116393
H54	H	0.919465	-0.762694	-0.761998
H55	H	0.919339	-0.384037	-0.384477
N56	N	1.378785	-0.645586	-0.892610
H57	H	1.388962	-0.635419	-0.814779
H58	H	1.303761	-0.629221	-0.911786
N59	N	1.247018	-0.640607	-0.640279
H60	H	1.273468	-0.568557	-0.659719
H61	H	1.273331	-0.659869	-0.568155
N62	N	1.792562	-0.891484	-0.232321
H63	H	1.749867	-0.846036	-0.183582
H64	H	1.835167	-0.942952	-0.189880
N65	N	1.792696	-1.119556	-0.232387
H66	H	1.835250	-1.068149	-0.189842
H67	H	1.749980	-1.165155	-0.183745
H68	H	0.819882	-0.640649	-0.640328
N69	N	1.132914	-0.366222	-0.366736
H70	H	1.081502	-0.323613	-0.324245
H71	H	1.178418	-0.408923	-0.318041
H72	H	1.653025	-1.204598	-0.371958
N73	N	1.652974	-0.371416	-1.234767
H74	H	1.580909	-0.352095	-1.261183
H75	H	1.705797	-0.318655	-1.261135
H76	H	1.396433	-0.906004	-0.627954
N77	N	1.133024	-0.780460	-0.779691
H78	H	1.113965	-0.764238	-0.854789
H79	H	1.210835	-0.770214	-0.769417
H80	H	1.396548	-1.105072	-0.628002
N81	N	1.652761	-0.777462	-0.371837
H82	H	1.580682	-0.751111	-0.352463
H83	H	1.705576	-0.751112	-0.319120
N84	N	1.792666	-0.231797	-1.120766
H85	H	1.782485	-0.241957	-1.198597
H86	H	1.776335	-0.156770	-1.101593
H87	H	1.774857	-0.249643	-0.907206
H88	H	1.396599	-0.627743	-1.106174
N89	N	1.652893	-0.371608	-0.778630
H90	H	1.705666	-0.318864	-0.752212
H91	H	1.580786	-0.352335	-0.752275
