data_functionalizedCrystal
_audit_creation_method	'MofGen! by Chris Wilmer'
_symmetry_space_group_name_H-M	'P1'
_symmetry_Int_Tables_number	1
_symmetry_cell_setting	triclinic
loop_
_symmetry_equiv_pos_as_xyz
  x,y,z
_cell_length_a	9.730223
_cell_length_b	17.699083
_cell_length_c	10.654551
_cell_angle_alpha	83.884188
_cell_angle_beta	90.002469
_cell_angle_gamma	89.994664
loop_
_atom_site_label
_atom_site_type_symbol
_atom_site_fract_x
_atom_site_fract_y
_atom_site_fract_z
O1	O	0.114089	1.005082	0.158807
O2	O	0.114132	0.784835	0.179469
O3	O	0.114110	0.900021	-0.013690
O4	O	0.114111	0.889895	0.351966
O5	O	-0.114470	0.900020	-0.013699
O6	O	-0.114447	0.784833	0.179459
O7	O	-0.114491	1.005080	0.158798
Zn8	Zn	-0.150761	0.894956	0.169127
Zn9	Zn	0.150403	0.894958	0.169140
O10	O	-0.114469	0.889893	0.351956
C11	C	-0.000152	0.756632	0.178724
C12	C	-0.000135	0.672600	0.176503
N13	N	-0.356298	0.894960	0.169118
N14	N	0.355939	0.894960	0.169139
C15	C	-0.000135	0.624700	0.289883
C16	C	-0.000153	0.545743	0.287788
C17	C	-0.000160	0.514688	0.172313
C18	C	-0.000164	0.562594	0.058924
C19	C	-0.000156	0.641549	0.061020
C20	C	-0.000198	0.244177	0.050470
C21	C	-0.000202	0.165216	0.048383
C22	C	-0.000195	0.148371	0.277238
C23	C	-0.000187	0.227327	0.279334
C24	C	-0.000198	0.275226	0.165946
C25	C	-0.000181	0.360839	0.168218
C26	C	-0.000167	0.429076	0.170039
C27	C	0.427855	0.946061	0.083773
C28	C	0.571738	0.946063	0.083765
C29	C	0.571776	0.843857	0.254493
C30	C	0.427896	0.843859	0.254506
C31	C	0.427834	1.005066	-0.014799
C32	C	0.571717	1.005068	-0.014807
C33	C	-0.000177	0.899277	-0.060479
C34	C	-0.000167	0.897052	-0.199884
C35	C	-0.000204	1.033282	0.159543
C36	C	-0.000212	1.117315	0.161764
C37	C	0.124430	0.896009	-0.265372
C38	C	0.124424	0.893911	-0.396356
C39	C	-0.124786	0.893904	-0.396351
C40	C	-0.124779	0.895995	-0.265369
C41	C	0.268310	0.896017	-0.265376
C42	C	0.268304	0.893919	-0.396360
C43	C	-0.000179	0.890638	0.398746
C44	C	-0.000180	0.892863	0.538150
H45	H	-0.000151	0.506746	0.380114
C46	C	0.342909	0.827522	-0.070643
C47	C	0.342904	0.825415	-0.201646
H48	H	0.388967	0.783939	-0.031302
H49	H	0.250875	0.827989	-0.041028
H50	H	0.388912	0.872064	-0.050756
H51	H	0.296892	0.780876	-0.221534
H52	H	0.434955	0.824941	-0.231271
C53	C	0.587451	1.088807	0.147695
C54	C	0.631930	1.079197	0.025422
H55	H	0.624609	1.134572	0.172534
H56	H	0.617629	1.047067	0.204429
H57	H	0.489947	1.091311	0.149037
H58	H	0.729434	1.076688	0.024082
H59	H	0.601760	1.120947	-0.031327
C60	C	0.768337	0.987790	-0.144893
C61	C	0.624431	0.987775	-0.144899
H62	H	0.800877	0.977121	-0.225207
H63	H	0.800885	0.950040	-0.081854
H64	H	0.800843	1.036226	-0.127634
H65	H	0.591926	0.939337	-0.162148
H66	H	0.591870	1.025527	-0.207958
H67	H	-0.226238	0.896841	-0.212052
H68	H	0.388786	1.063194	0.005880
C69	C	0.223839	0.981624	-0.131388
C70	C	0.367556	0.980381	-0.137587
H71	H	0.186628	0.966378	-0.207189
H72	H	0.193701	1.031629	-0.121052
H73	H	0.193723	0.947696	-0.061729
H74	H	0.397672	1.014313	-0.207241
H75	H	0.397707	0.930368	-0.147937
H76	H	-0.000155	0.680549	-0.031306
H77	H	-0.000128	0.649978	0.383916
C78	C	0.443268	0.835692	-0.512570
C79	C	0.328602	0.819407	-0.434982
H80	H	0.480482	0.789692	-0.536419
H81	H	0.510699	0.860973	-0.467943
H82	H	0.416378	0.867447	-0.585981
H83	H	0.355494	0.787657	-0.361566
H84	H	0.261158	0.794114	-0.479610
H85	H	-0.226241	0.893042	-0.449685
C86	C	0.388056	1.009453	-0.367746
C87	C	0.342848	0.964527	-0.460097
H88	H	0.434067	1.053042	-0.407098
H89	H	0.449416	0.980871	-0.311902
H90	H	0.311338	1.024922	-0.321620
H91	H	0.419567	0.949053	-0.506218
H92	H	0.281484	0.993114	-0.515963
H93	H	0.312940	0.951217	-0.236775
H94	H	-0.000210	0.139935	-0.045657
H95	H	-0.000193	0.109362	0.369564
H96	H	-0.000174	0.252607	0.373366
H97	H	-0.000209	0.283168	-0.041858
H98	H	0.369343	0.802256	0.324028
C99	C	-0.000167	0.449043	-0.045910
C100	C	-0.000170	0.528460	-0.068011
H101	H	-0.000159	0.427973	-0.124278
H102	H	-0.079874	0.432652	0.000751
H103	H	0.079549	0.432645	0.000768
H104	H	-0.079892	0.544859	-0.114682
H105	H	0.079544	0.544858	-0.114692
H106	H	0.630379	0.802253	0.323997
