data_functionalizedCrystal
_audit_creation_method	'MofGen! by Chris Wilmer'
_symmetry_space_group_name_H-M	'P1'
_symmetry_Int_Tables_number	1
_symmetry_cell_setting	triclinic
loop_
_symmetry_equiv_pos_as_xyz
  x,y,z
_cell_length_a	19.288835
_cell_length_b	27.732048
_cell_length_c	18.366186
_cell_angle_alpha	89.988789
_cell_angle_beta	90.017524
_cell_angle_gamma	97.116693
loop_
_atom_site_label
_atom_site_type_symbol
_atom_site_fract_x
_atom_site_fract_y
_atom_site_fract_z
O1	O	-0.920990	0.060231	-0.060700
O2	O	-0.718676	0.068380	-0.060671
O3	O	-0.826117	-0.006073	-0.060673
O4	O	-0.813550	0.134684	-0.060699
O5	O	-0.826099	-0.006077	0.060427
O6	O	-0.718658	0.068376	0.060428
O7	O	-0.920972	0.060227	0.060399
Zn8	Zn	-0.819812	0.064301	0.079641
Zn9	Zn	-0.819836	0.064306	-0.079913
O10	O	-0.813532	0.134680	0.060401
C11	C	-0.692792	0.068119	-0.000118
C12	C	-0.615692	0.067339	-0.000106
C13	C	-0.579500	0.066966	-0.066118
C14	C	-0.507058	0.066228	-0.066126
C15	C	-0.470812	0.065853	-0.000117
C16	C	-0.507011	0.066228	0.065904
C17	C	-0.579451	0.066971	0.065910
C18	C	-0.361660	0.036361	0.050453
C19	C	-0.289222	0.035615	0.050445
C20	C	-0.247382	0.063563	-0.000130
C21	C	-0.277990	0.092251	-0.050709
C22	C	-0.350430	0.092994	-0.050704
C23	C	-0.392262	0.065047	-0.000115
C24	C	-0.132640	0.062391	-0.066155
C25	C	-0.060195	0.061655	-0.066159
C26	C	-0.060151	0.061651	0.065873
C27	C	-0.132593	0.062391	0.065875
C28	C	-0.168834	0.062758	-0.000140
C29	C	-0.825844	-0.024082	-0.000121
C30	C	-0.825049	-0.077740	-0.000115
C31	C	-0.883539	-0.416382	-0.000161
C32	C	-0.880592	-0.618051	-0.000170
O33	O	-0.934077	-0.649149	-0.000210
N34	N	-0.816884	-0.637362	-0.000161
C35	C	-0.753908	-0.606253	-0.000153
O36	O	-0.699653	-0.627306	-0.000153
C37	C	-0.756856	-0.404586	-0.000149
C38	C	-0.820568	-0.385277	-0.000151
C39	C	-0.947246	-0.397073	-0.000164
C40	C	-0.947982	-0.346659	-0.000157
C41	C	-0.885011	-0.315554	-0.000148
C42	C	-0.821305	-0.334863	-0.000145
C43	C	-0.693882	-0.373477	-0.000146
C44	C	-0.694624	-0.323058	-0.000147
C45	C	-0.758336	-0.303750	-0.000150
C46	C	-0.759070	-0.253344	-0.000129
N47	N	-0.822778	-0.234032	-0.000138
C48	C	-0.885748	-0.265138	-0.000148
C49	C	-0.752365	-0.712132	-0.000154
C50	C	-0.751628	-0.762548	-0.000154
C51	C	-0.878312	-0.774342	-0.000173
C52	C	-0.879048	-0.723925	-0.000167
C53	C	-0.816073	-0.692820	-0.000164
C54	C	-0.887290	-0.159264	-0.000134
C55	C	-0.888020	-0.108845	-0.000125
C56	C	-0.761337	-0.097055	-0.000110
C57	C	-0.760606	-0.147470	-0.000115
C58	C	-0.823588	-0.178573	-0.000130
O59	O	-0.705614	-0.222217	-0.000097
O60	O	-0.939996	-0.244075	-0.000165
C61	C	-0.882803	-0.466797	-0.000167
C62	C	-0.819096	-0.486105	-0.000164
C63	C	-0.756125	-0.455000	-0.000154
C64	C	-0.818359	-0.536522	-0.000164
C65	C	-0.881330	-0.567627	-0.000173
C66	C	-0.945038	-0.548316	-0.000183
C67	C	-0.945774	-0.497902	-0.000177
C68	C	-0.692418	-0.474312	-0.000145
C69	C	-0.691687	-0.524726	-0.000150
C70	C	-0.754657	-0.555832	-0.000160
C71	C	0.053144	0.060492	-0.000150
C72	C	-0.023954	0.061281	-0.000149
C73	C	-0.813804	0.152689	-0.000153
C74	C	-0.814599	0.206347	-0.000164
N75	N	-0.819801	0.064298	0.188532
N76	N	-0.819853	0.064306	-0.188804
C77	C	-0.867391	0.031346	0.226632
C78	C	-0.867395	0.031344	0.302859
C79	C	-0.819816	0.064302	0.340985
C80	C	-0.772217	0.097256	0.302876
C81	C	-0.772210	0.097254	0.226649
C82	C	-0.810243	0.108345	0.461738
C83	C	-0.810256	0.108348	0.537963
C84	C	-0.819836	0.064308	0.576092
C85	C	-0.829419	0.020263	0.537987
C86	C	-0.829411	0.020261	0.461761
C87	C	-0.819819	0.064307	0.423639
C88	C	-0.867434	0.031351	0.696847
C89	C	-0.867433	0.031348	0.773076
C90	C	-0.772258	0.097264	0.773091
C91	C	-0.772256	0.097263	0.696863
C92	C	-0.819847	0.064307	0.658746
H93	H	-0.938576	-0.184583	-0.000149
H94	H	-0.477585	0.065925	-0.119882
H95	H	-0.906141	0.004510	0.195599
O96	O	-0.799935	0.155850	0.579061
H97	H	-0.793263	0.186473	0.539743
H98	H	-0.906150	0.004510	0.333886
H99	H	-0.906183	0.004514	0.665810
H100	H	-0.264307	0.012254	0.091626
H101	H	-0.375348	0.116353	-0.091885
O102	O	-0.720927	0.132809	0.655771
H103	H	-0.687381	0.112522	0.621071
O104	O	-0.839756	-0.027246	0.579091
H105	H	-0.793398	-0.030271	0.613833
H106	H	-0.699747	-0.778264	-0.000139
H107	H	-0.708726	-0.163191	-0.000093
O108	O	-0.021012	0.061273	0.137041
H109	H	-0.041412	0.028486	0.168749
H110	H	-0.930928	-0.708208	-0.000170
O111	O	-0.406786	0.006218	0.105008
H112	H	-0.445095	-0.020026	0.075707
O113	O	-0.232874	0.122401	-0.105260
H114	H	-0.177359	0.117072	-0.096762
H115	H	-0.477495	0.065924	0.119649
O116	O	-0.171735	0.062796	-0.137352
H117	H	-0.134393	0.062421	-0.183257
H118	H	-0.030729	0.061355	-0.119916
H119	H	-0.162061	0.062691	0.119630
H120	H	-0.608918	0.067275	0.119666
H121	H	-0.939904	-0.093127	-0.000125
O122	O	-0.720884	0.132799	0.185548
H123	H	-0.687801	0.155719	0.224862
O124	O	-0.693422	-0.063499	-0.000102
H125	H	-0.662898	-0.070347	0.049261
O126	O	-1.016700	-0.325836	-0.000181
H127	H	-1.060357	-0.355942	-0.000201
O128	O	-1.015170	-0.430620	-0.000164
H129	H	-1.059586	-0.408714	-0.000159
O130	O	-1.014492	-0.477079	-0.000183
H131	H	-1.017865	-0.454382	-0.049538
H132	H	-0.701080	-0.686810	-0.000151
O133	O	-0.618589	0.067369	-0.137317
H134	H	-0.581246	0.066990	-0.183222
H135	H	-0.929585	-0.799677	-0.000180
H136	H	-0.643341	-0.297734	-0.000145
H137	H	-0.642001	-0.389189	-0.000149
H138	H	-0.996310	-0.573651	-0.000188
O139	O	-0.622964	-0.545550	-0.000146
H140	H	-0.579305	-0.515446	-0.000145
O141	O	-0.624496	-0.440765	-0.000121
H142	H	-0.580078	-0.462668	-0.000107
H143	H	-0.837211	-0.015602	0.430739
O144	O	-0.918772	-0.004189	0.814176
H145	H	-0.951868	-0.027099	0.774861
H146	H	-0.802430	0.144210	0.430699
O147	O	-0.720940	0.132814	0.814199
H148	H	-0.728942	0.127283	0.873606
H149	H	-0.733477	0.124090	0.333921
