data_functionalizedCrystal
_audit_creation_method	'MofGen! by Chris Wilmer'
_symmetry_space_group_name_H-M	'P1'
_symmetry_Int_Tables_number	1
_symmetry_cell_setting	triclinic
loop_
_symmetry_equiv_pos_as_xyz
  x,y,z
_cell_length_a	17.699083
_cell_length_b	14.472311
_cell_length_c	17.699083
_cell_angle_alpha	89.989453
_cell_angle_beta	96.716985
_cell_angle_gamma	89.998109
loop_
_atom_site_label
_atom_site_type_symbol
_atom_site_fract_x
_atom_site_fract_y
_atom_site_fract_z
O1	O	1.004075	0.076713	-0.095717
O2	O	1.504075	0.576713	0.404283
O3	O	0.783696	0.076744	-0.108169
O4	O	1.283696	0.576744	0.391831
O5	O	0.900112	0.076719	0.008246
O6	O	1.400112	0.576719	0.508246
O7	O	0.887659	0.076738	-0.212132
O8	O	1.387659	0.576738	0.287868
O9	O	0.900104	-0.076963	0.008261
O10	O	1.400104	0.423037	0.508261
O11	O	0.783688	-0.076938	-0.108155
O12	O	1.283688	0.423062	0.391845
O13	O	1.004067	-0.076969	-0.095702
O14	O	1.504067	0.423031	0.404298
Cu15	Cu	0.893877	-0.090986	-0.101927
Cu16	Cu	1.393877	0.409014	0.398073
Cu17	Cu	0.893886	0.090761	-0.101944
Cu18	Cu	1.393886	0.590761	0.398056
O19	O	0.887651	-0.076944	-0.212118
O20	O	1.387651	0.423056	0.287882
C21	C	0.755495	-0.000093	-0.107716
C22	C	1.255495	0.499907	0.392284
C23	C	0.671477	-0.000082	-0.106377
C24	C	1.171477	0.499918	0.393623
C25	C	0.622856	-0.000077	-0.174710
C26	C	1.122856	0.499923	0.325290
C27	C	0.543913	-0.000089	-0.173448
C28	C	1.043913	0.499911	0.326552
C29	C	0.513592	-0.000100	-0.103852
C30	C	1.013592	0.499900	0.396148
C31	C	0.562219	-0.000108	-0.035513
C32	C	1.062219	0.499892	0.464487
C33	C	0.641161	-0.000102	-0.036776
C34	C	1.141161	0.499898	0.463224
C35	C	0.243856	-0.000131	-0.030418
C36	C	0.743856	0.499869	0.469582
C37	C	0.164908	-0.000134	-0.029160
C38	C	0.664908	0.499866	0.470840
C39	C	0.146608	-0.000118	-0.167090
C40	C	0.646608	0.499882	0.332910
C41	C	0.225550	-0.000112	-0.168353
C42	C	0.725550	0.499888	0.331647
C43	C	0.274170	-0.000125	-0.100015
C44	C	0.774170	0.499875	0.399985
C45	C	0.359769	-0.000114	-0.101384
C46	C	0.859769	0.499886	0.398616
C47	C	0.427995	-0.000104	-0.102481
C48	C	0.927995	0.499896	0.397519
N49	N	0.893876	-0.218817	-0.101914
N50	N	1.393876	0.281183	0.398086
C51	C	0.893887	-0.592908	-0.101939
C52	C	1.393887	-0.092908	0.398061
C53	C	0.956380	-0.553726	-0.039854
C54	C	1.456380	-0.053726	0.460146
C55	C	0.956218	-0.446638	-0.039626
C56	C	1.456218	0.053362	0.460374
C57	C	0.893882	-0.407317	-0.101927
C58	C	1.393882	0.092683	0.398073
C59	C	0.814949	-0.446198	-0.084824
C60	C	1.314949	0.053802	0.415176
C61	C	0.815319	-0.553320	-0.084385
C62	C	1.315319	-0.053320	0.415615
C63	C	0.909615	-0.553409	-0.181310
C64	C	1.409615	-0.053409	0.318690
C65	C	0.911409	-0.446281	-0.180775
C66	C	1.411409	0.053719	0.319225
C67	C	0.893874	-0.302429	-0.101921
C68	C	1.393874	0.197571	0.398079
C69	C	0.893890	-0.697796	-0.101942
C70	C	1.393890	-0.197796	0.398058
C71	C	1.032268	-0.000130	-0.096156
C72	C	1.532268	0.499870	0.403844
C73	C	1.116286	-0.000135	-0.097494
C74	C	1.616286	0.499865	0.402506
C75	C	0.899662	-0.000122	0.036451
C76	C	1.399662	0.499878	0.536451
C77	C	0.898323	-0.000122	0.120469
C78	C	1.398323	0.499878	0.620469
N79	N	0.893893	0.218592	-0.101951
N80	N	1.393893	0.718592	0.398049
C81	C	0.888102	-0.000101	-0.240322
C82	C	1.388102	0.499899	0.259678
C83	C	0.889440	-0.000095	-0.324340
C84	C	1.389440	0.499905	0.175660
C85	C	0.966656	-0.000133	0.169090
C86	C	1.466656	0.499867	0.669090
C87	C	0.965394	-0.000124	0.248033
C88	C	1.465394	0.499876	0.748033
C89	C	0.895798	-0.000112	0.278354
C90	C	1.395798	0.499888	0.778354
C91	C	0.827459	-0.000098	0.229727
C92	C	1.327459	0.499902	0.729727
C93	C	0.828722	-0.000100	0.150785
C94	C	1.328722	0.499900	0.650785
C95	C	0.822364	-0.000090	0.548090
C96	C	1.322364	0.499910	1.048090
C97	C	0.821106	-0.000091	0.627038
C98	C	1.321106	0.499909	1.127038
C99	C	0.959036	-0.000114	0.645338
C100	C	1.459036	0.499886	1.145338
C101	C	0.960299	-0.000116	0.566396
C102	C	1.460299	0.499884	1.066396
C103	C	0.891961	-0.000098	0.517776
C104	C	1.391961	0.499902	1.017776
C105	C	0.893330	-0.000105	0.432177
C106	C	1.393330	0.499895	0.932177
C107	C	0.894427	-0.000111	0.363951
C108	C	1.394427	0.499889	0.863951
H109	H	0.537526	-0.000130	0.021154
H110	H	1.037526	0.499870	0.521154
N111	N	0.988318	-0.412606	-0.197972
N112	N	1.488318	0.087394	0.302028
H113	H	0.982194	-0.375652	-0.246719
H114	H	1.482194	0.124348	0.253281
H115	H	1.022538	-0.467359	-0.203806
H116	H	1.522538	0.032641	0.296194
N117	N	0.296291	-0.000151	0.043286
N118	N	0.796291	0.499849	0.543286
H119	H	0.265101	-0.000157	0.087564
H120	H	0.765101	0.499843	0.587564
H121	H	0.329443	0.056819	0.045768
H122	H	0.829443	0.556819	0.545768
H123	H	0.140225	-0.000144	0.027517
H124	H	0.640225	0.499856	0.527517
N125	N	0.855011	-0.410831	-0.244829
N126	N	1.355011	0.089169	0.255171
H127	H	0.817129	-0.368826	-0.223548
H128	H	1.317129	0.131174	0.276452
H129	H	0.827326	-0.464724	-0.271683
H130	H	1.327326	0.035276	0.228317
N131	N	0.849250	-0.586967	-0.242510
N132	N	1.349250	-0.086967	0.257490
H133	H	0.811890	-0.627556	-0.218980
H134	H	1.311890	-0.127556	0.281020
H135	H	0.873960	-0.623572	-0.281544
H136	H	1.373960	-0.123572	0.218456
H137	H	1.014680	-0.000125	0.684934
H138	H	1.514680	0.499875	1.184934
N139	N	0.748658	-0.000074	0.495658
N140	N	1.248658	0.499926	0.995658
H141	H	0.760013	-0.000070	0.441047
H142	H	1.260013	0.499930	0.941047
H143	H	0.718330	0.056905	0.505459
H144	H	1.218330	0.556905	1.005459
N145	N	0.796942	-0.586442	-0.007715
N146	N	1.296942	-0.086442	0.492285
H147	H	0.788677	-0.531456	0.025480
H148	H	1.288677	-0.031456	0.525480
H149	H	0.840619	-0.624753	0.017234
H150	H	1.340619	-0.124753	0.517234
H151	H	0.946493	-0.580660	0.018717
H152	H	1.446493	-0.080660	0.518717
H153	H	0.767427	-0.579239	-0.127892
H154	H	1.267427	-0.079239	0.372108
N155	N	0.693606	-0.000115	0.036926
N156	N	1.193606	0.499885	0.536926
H157	H	0.662421	-0.000122	0.081207
H158	H	1.162421	0.499878	0.581207
H159	H	0.726757	0.056856	0.039404
H160	H	1.226757	0.556856	0.539404
N161	N	0.751867	-0.412457	-0.143124
N162	N	1.251867	0.087543	0.356876
H163	H	0.773902	-0.371544	-0.181275
H164	H	1.273902	0.128456	0.318725
H165	H	0.713815	-0.376146	-0.116814
H166	H	1.213815	0.123854	0.383186
N167	N	0.258244	-0.000103	-0.243422
N168	N	0.758244	0.499897	0.256578
H169	H	0.290593	-0.057071	-0.247015
H170	H	0.790593	0.442929	0.252985
H171	H	0.290546	0.056907	-0.246984
H172	H	0.790546	0.556907	0.253016
N173	N	1.033943	-0.411807	-0.053085
N174	N	1.533943	0.088193	0.446915
H175	H	1.068619	-0.466040	-0.059219
H176	H	1.568619	0.033960	0.440781
H177	H	1.055762	-0.373149	-0.008261
H178	H	1.555762	0.126851	0.491739
H179	H	0.647537	-0.000067	-0.231384
H180	H	1.147537	0.499933	0.268616
N181	N	1.041722	-0.000155	0.136389
N182	N	1.541722	0.499845	0.636389
H183	H	1.084819	-0.000159	0.179172
H184	H	1.584819	0.499841	0.679172
H185	H	1.045255	0.056815	0.104025
H186	H	1.545255	0.556815	0.604025
N187	N	1.039096	-0.000144	0.300476
N188	N	1.539096	0.499856	0.800476
H189	H	1.069476	0.056815	0.290728
H190	H	1.569476	0.556815	0.790728
H191	H	1.069395	-0.057163	0.290721
H192	H	1.569395	0.442837	0.790721
H193	H	1.015256	-0.579488	-0.049851
H194	H	1.515256	-0.079488	0.450149
N195	N	0.755020	-0.000083	0.098340
N196	N	1.255020	0.499917	0.598340
H197	H	0.710739	-0.000076	0.129525
H198	H	1.210739	0.499924	0.629525
H199	H	0.752534	-0.057053	0.065194
H200	H	1.252534	0.442947	0.565194
H201	H	0.764429	-0.000083	0.651721
H202	H	1.264429	0.499917	1.151721
N203	N	0.094155	-0.000132	-0.240793
N204	N	0.594155	0.499868	0.259207
H205	H	0.103902	-0.057101	-0.271153
H206	H	0.603902	0.442899	0.228847
H207	H	0.103900	0.056876	-0.271117
H208	H	0.603900	0.556876	0.228883
H209	H	0.946184	-0.421024	0.019279
H210	H	1.446184	0.078976	0.519279
N211	N	0.796092	-0.410693	-0.009029
N212	N	1.296092	0.089307	0.490971
H213	H	0.793778	-0.340970	-0.010240
H214	H	1.293778	0.159030	0.489760
H215	H	0.836683	-0.431286	0.032432
H216	H	1.336683	0.068714	0.532432
N217	N	0.984216	-0.589190	-0.203134
N218	N	1.484216	-0.089190	0.296866
H219	H	1.027004	-0.569701	-0.163540
H220	H	1.527004	-0.069701	0.336460
H221	H	0.993111	-0.562977	-0.254239
H222	H	1.493111	-0.062977	0.245761
N223	N	0.752390	-0.000084	0.262421
N224	N	1.252390	0.499916	0.762421
H225	H	0.748794	0.056885	0.294759
H226	H	1.248794	0.556885	0.794759
H227	H	0.748833	-0.057093	0.294735
H228	H	1.248833	0.442907	0.794735
N229	N	0.491471	-0.000187	-0.247150
N230	N	0.991471	0.499813	0.252850
H231	H	0.522658	-0.000208	-0.291430
H232	H	1.022658	0.499792	0.208570
H233	H	0.458270	0.056747	-0.249692
H234	H	0.958270	0.556747	0.250308
N235	N	1.035363	-0.000137	0.533693
N236	N	1.535363	0.499863	1.033693
H237	H	1.078462	-0.000141	0.576473
H238	H	1.578462	0.499859	1.076473
H239	H	1.038893	0.056833	0.501328
H240	H	1.538893	0.556833	1.001328
