data_functionalizedCrystal
_audit_creation_method	'MofGen! by Chris Wilmer'
_symmetry_space_group_name_H-M	'P1'
_symmetry_Int_Tables_number	1
_symmetry_cell_setting	triclinic
loop_
_symmetry_equiv_pos_as_xyz
  x,y,z
_cell_length_a	14.044191
_cell_length_b	23.532357
_cell_length_c	13.101039
_cell_angle_alpha	93.334957
_cell_angle_beta	86.337551
_cell_angle_gamma	88.010034
loop_
_atom_site_label
_atom_site_type_symbol
_atom_site_fract_x
_atom_site_fract_y
_atom_site_fract_z
O1	O	1.261616	0.134378	-0.085188
O2	O	0.985695	0.129421	-0.085200
O3	O	1.131999	0.049419	-0.085173
O4	O	1.115312	0.214380	-0.085215
O5	O	1.121502	0.055170	0.085255
O6	O	0.975198	0.135172	0.085228
O7	O	1.251119	0.140129	0.085240
Zn8	Zn	1.111492	0.138563	0.112293
Zn9	Zn	1.125322	0.130987	-0.112253
O10	O	1.104815	0.220131	0.085212
C11	C	0.945153	0.130128	0.000013
C12	C	0.839990	0.123661	0.000009
C13	C	0.589373	0.157706	0.000010
C14	C	0.647447	0.111846	0.000020
C15	C	0.754588	0.118421	0.000014
C16	C	0.482222	0.151132	0.000017
C17	C	1.126333	0.031055	0.000045
C18	C	1.125077	-0.032231	0.000054
C19	C	1.122923	-0.427806	-0.092902
C20	C	1.121730	-0.487270	-0.092908
O21	O	1.125947	-0.520688	-0.171916
N22	N	1.115417	-0.513879	-0.000009
C23	C	1.110286	-0.481020	0.092902
O24	O	1.104805	-0.509113	0.171919
C25	C	1.111472	-0.421556	0.092907
C26	C	1.117795	-0.394951	0.000002
C27	C	1.129245	-0.401200	-0.185799
C28	C	1.130440	-0.341740	-0.185793
C29	C	1.125312	-0.308885	-0.092889
C30	C	1.118990	-0.335491	0.000008
C31	C	1.106334	-0.388698	0.185817
C32	C	1.107520	-0.329231	0.185814
C33	C	1.113844	-0.302626	0.092909
C34	C	1.115057	-0.243176	0.092918
N35	N	1.121370	-0.216567	0.000019
C36	C	1.126498	-0.249422	-0.092884
C37	C	1.107794	-0.605897	0.092885
C38	C	1.106615	-0.665360	0.092881
C39	C	1.118057	-0.671606	-0.092929
C40	C	1.119243	-0.612142	-0.092924
C41	C	1.114107	-0.579288	-0.000014
C42	C	1.129007	-0.124551	-0.092864
C43	C	1.130205	-0.065086	-0.092850
C44	C	1.118757	-0.058844	0.092960
C45	C	1.117564	-0.118305	0.092946
C46	C	1.122686	-0.151157	0.000026
O47	O	1.110839	-0.209722	0.171886
O48	O	1.131965	-0.221321	-0.171888
C49	C	1.291661	0.139422	0.000025
C50	C	1.396824	0.145889	0.000022
C51	C	1.110481	0.238495	-0.000007
C52	C	1.111737	0.301781	-0.000023
N53	N	1.102060	0.143734	0.265540
N54	N	1.134762	0.125812	-0.265500
C55	C	1.089227	0.150774	0.474580
C56	C	1.147592	0.118773	0.525466
C57	C	1.140451	0.122691	0.641784
C58	C	1.096366	0.146858	0.358252
H59	H	1.135357	-0.043427	-0.168507
H60	H	1.033901	0.181111	0.518367
N61	N	1.217010	0.080709	0.470557
N62	N	1.190839	0.041876	0.410675
H63	H	1.239870	0.014995	0.371898
N64	N	1.102550	-0.572348	0.187806
N65	N	1.096913	-0.596119	0.270738
H66	H	1.093207	-0.572428	0.337778
N67	N	0.627921	0.213157	-0.000003
N68	N	0.604663	0.249260	0.071823
H69	H	0.631896	0.288422	0.071812
H70	H	1.133173	-0.151293	-0.168529
H71	H	0.616705	0.067643	-0.000040
N72	N	1.099854	-0.415873	0.280710
N73	N	1.098781	-0.468964	0.280714
H74	H	1.094199	-0.488157	0.347737
N75	N	1.102296	-0.295674	0.280723
N76	N	1.168478	-0.263659	0.301468
H77	H	1.164793	-0.239961	0.368498
H78	H	1.133417	-0.427945	-0.261457
N79	N	1.136896	-0.314577	-0.280703
N80	N	1.141469	-0.343928	-0.363639
H81	H	1.146026	-0.324748	-0.430675
H82	H	1.124391	-0.590485	-0.168576
N83	N	1.123308	-0.705181	-0.187822
N84	N	1.122252	-0.758272	-0.187802
H85	H	1.125966	-0.781988	-0.254816
H86	H	1.112424	-0.139968	0.168597
N87	N	1.100176	-0.692524	0.187791
N88	N	1.095603	-0.663176	0.270729
H89	H	1.091052	-0.682358	0.337763
N90	N	1.113529	-0.025270	0.187845
N91	N	1.114594	0.027821	0.187826
H92	H	1.110898	0.051536	0.254839
