data_functionalizedCrystal
_audit_creation_method	'MofGen! by Chris Wilmer'
_symmetry_space_group_name_H-M	'P1'
_symmetry_Int_Tables_number	1
_symmetry_cell_setting	triclinic
loop_
_symmetry_equiv_pos_as_xyz
  x,y,z
_cell_length_a	17.640280
_cell_length_b	19.805407
_cell_length_c	19.805399
_cell_angle_alpha	90.021064
_cell_angle_beta	78.776890
_cell_angle_gamma	101.201178
loop_
_atom_site_label
_atom_site_type_symbol
_atom_site_fract_x
_atom_site_fract_y
_atom_site_fract_z
Zn1	Zn	-0.314702	-1.089284	-0.328342
Zn2	Zn	0.018631	-0.755951	0.004992
Zn3	Zn	0.351965	-0.422618	0.338325
Zn4	Zn	-0.446876	-1.112110	-0.192304
Zn5	Zn	-0.113543	-0.778776	0.141030
Zn6	Zn	0.219790	-0.445443	0.474363
Zn7	Zn	-0.314722	-0.976102	-0.215160
Zn8	Zn	0.018612	-0.642769	0.118173
Zn9	Zn	0.351945	-0.309436	0.451507
Zn10	Zn	-0.446832	-0.998965	-0.305455
Zn11	Zn	-0.113499	-0.665632	0.027878
Zn12	Zn	0.219835	-0.332299	0.361212
O13	O	-0.380783	-1.044115	-0.260315
O14	O	-0.047450	-0.710782	0.073018
O15	O	0.285884	-0.377449	0.406352
O16	O	-0.332246	-1.187031	-0.310309
O17	O	0.001088	-0.853697	0.023025
O18	O	0.334421	-0.520364	0.356358
O19	O	-0.429372	-1.094052	-0.100614
O20	O	-0.096039	-0.760719	0.232719
O21	O	0.237294	-0.427386	0.566052
O22	O	-0.204115	-0.971996	-0.249318
O23	O	0.129219	-0.638662	0.084016
O24	O	0.462552	-0.305329	0.417349
O25	O	-0.429354	-1.203800	-0.210362
O26	O	-0.096020	-0.870467	0.122971
O27	O	0.237313	-0.537134	0.456305
O28	O	-0.204100	-1.055150	-0.332472
O29	O	0.129233	-0.721817	0.000862
O30	O	0.462566	-0.388483	0.334195
O31	O	-0.332279	-0.994128	-0.117407
O32	O	0.001054	-0.660795	0.215926
O33	O	0.334388	-0.327462	0.549260
O34	O	-0.332236	-0.884417	-0.227125
O35	O	0.001097	-0.551084	0.106208
O36	O	0.334431	-0.217750	0.439541
O37	O	-0.429278	-1.010962	-0.403212
O38	O	-0.095945	-0.677629	-0.069879
O39	O	0.237389	-0.344295	0.263454
O40	O	-0.429297	-0.901214	-0.293465
O41	O	-0.095964	-0.567881	0.039869
O42	O	0.237370	-0.234547	0.373202
O43	O	-0.332203	-1.077319	-0.420027
O44	O	0.001131	-0.743986	-0.086694
O45	O	0.334464	-0.410652	0.246640
O46	O	-0.557475	-1.116221	-0.188170
O47	O	-0.224141	-0.782888	0.145164
O48	O	0.109192	-0.449555	0.478497
O49	O	-0.557442	-1.033095	-0.271302
O50	O	-0.224109	-0.699761	0.062032
O51	O	0.109225	-0.366428	0.395365
C52	C	-0.380764	-0.868256	-0.260292
C53	C	-0.047431	-0.534923	0.073041
C54	C	0.285902	-0.201590	0.406375
C55	C	-0.380775	-0.793026	-0.260295
C56	C	-0.047442	-0.459693	0.073039
C57	C	0.285891	-0.126359	0.406372
C58	C	-0.586137	-1.079634	-0.224787
C59	C	-0.252803	-0.746301	0.108547
C60	C	0.080530	-0.412968	0.441880
C61	C	-0.673988	-1.094891	-0.209610
C62	C	-0.340655	-0.761558	0.123723
C63	C	-0.007321	-0.428225	0.457057
C64	C	-0.431390	-0.766459	-0.294754
C65	C	-0.098057	-0.433126	0.038580
C66	C	0.235276	-0.099792	0.371913
C67	C	-0.431390	-0.695771	-0.294761
C68	C	-0.098057	-0.362437	0.038572
C69	C	0.235276	-0.029104	0.371905
C70	C	-0.380778	-0.651651	-0.260306
C71	C	-0.047445	-0.318318	0.073028
C72	C	0.285888	0.015016	0.406361
C73	C	-0.330158	-0.678222	-0.225846
C74	C	0.003175	-0.344889	0.107487
C75	C	0.336509	-0.011555	0.440821
C76	C	-0.330155	-0.748909	-0.225843
C77	C	0.003179	-0.415575	0.107491
C78	C	0.336512	-0.082242	0.440824
C79	C	-0.330169	-0.393151	-0.225859
C80	C	0.003164	-0.059818	0.107475
C81	C	0.336497	0.273516	0.440808
C82	C	-0.330178	-0.322460	-0.225863
C83	C	0.003155	0.010873	0.107470
C84	C	0.336488	0.344206	0.440804
C85	C	-0.431405	-0.340013	-0.294778
C86	C	-0.098072	-0.006679	0.038556
C87	C	0.235262	0.326654	0.371889
C88	C	-0.431402	-0.410699	-0.294774
C89	C	-0.098068	-0.077366	0.038559
C90	C	0.235265	0.255967	0.371892
C91	C	-0.380779	-0.437264	-0.260318
C92	C	-0.047445	-0.103930	0.073016
C93	C	0.285888	0.229403	0.406349
C94	C	-0.380778	-0.513912	-0.260311
C95	C	-0.047445	-0.180579	0.073022
C96	C	0.285888	0.152755	0.406356
C97	C	-0.380782	-0.575005	-0.260308
C98	C	-0.047449	-0.241671	0.073025
C99	C	0.285884	0.091662	0.406359
C100	C	-0.962972	-0.928487	-0.375856
C101	C	-0.629639	-0.595154	-0.042523
C102	C	-0.296306	-0.261821	0.290811
C103	C	-1.045522	-0.942825	-0.361574
C104	C	-0.712188	-0.609492	-0.028240
C105	C	-0.378855	-0.276158	0.305093
C106	C	-1.045490	-1.029439	-0.275096
C107	C	-0.712157	-0.696105	0.058237
C108	C	-0.378824	-0.362772	0.391571
C109	C	-0.962939	-1.015111	-0.289373
C110	C	-0.629606	-0.681777	0.043960
C111	C	-0.296272	-0.348444	0.377293
C112	C	-0.921686	-0.964634	-0.339754
C113	C	-0.588353	-0.631300	-0.006420
C114	C	-0.255020	-0.297967	0.326913
C115	C	-0.921653	-1.051257	-0.253271
C116	C	-0.588320	-0.717924	0.080062
C117	C	-0.254987	-0.384590	0.413396
C118	C	-0.839109	-1.036927	-0.267545
C119	C	-0.505776	-0.703594	0.065788
C120	C	-0.172443	-0.370261	0.399122
C121	C	-0.797851	-0.986451	-0.317921
C122	C	-0.464518	-0.653118	0.015412
C123	C	-0.131184	-0.319785	0.348745
C124	C	-0.839142	-0.950304	-0.354028
C125	C	-0.505809	-0.616971	-0.020694
C126	C	-0.172476	-0.283637	0.312639
C127	C	-0.962907	-1.101730	-0.202888
C128	C	-0.629574	-0.768397	0.130446
C129	C	-0.296241	-0.435063	0.463779
C130	C	-0.921622	-1.137876	-0.166785
C131	C	-0.588288	-0.804543	0.166548
C132	C	-0.254955	-0.471210	0.499881
C133	C	-0.839076	-1.123550	-0.181062
C134	C	-0.505743	-0.790217	0.152271
C135	C	-0.172409	-0.456884	0.485604
C136	C	-0.797818	-1.073074	-0.231439
C137	C	-0.464484	-0.739741	0.101895
C138	C	-0.131151	-0.406408	0.435228
C139	C	-0.797785	-1.159698	-0.144956
C140	C	-0.464451	-0.826364	0.188377
C141	C	-0.131118	-0.493031	0.521711
C142	C	-0.715241	-1.145368	-0.159230
C143	C	-0.381907	-0.812035	0.174103
C144	C	-0.048574	-0.478701	0.507437
C145	C	-0.715274	-1.058745	-0.245713
C146	C	-0.381940	-0.725412	0.087621
C147	C	-0.048607	-0.392078	0.420954
C148	C	-0.174627	-1.008476	-0.295997
C149	C	0.158706	-0.675143	0.037336
C150	C	0.492039	-0.341810	0.370670
C151	C	-0.086776	-0.993289	-0.311203
C152	C	0.246557	-0.659956	0.022131
C153	C	0.579891	-0.326623	0.355464
C154	C	-0.380733	-1.044145	-0.436867
C155	C	-0.047400	-0.710811	-0.103533
C156	C	0.285933	-0.377478	0.229800
C157	C	-0.380712	-1.044157	-0.512102
C158	C	-0.047379	-0.710824	-0.178769
C159	C	0.285955	-0.377491	0.154564
C160	C	-0.380797	-0.220661	-0.260333
C161	C	-0.047464	0.112673	0.073000
C162	C	0.285869	0.446006	0.406334
C163	C	-0.380790	-0.295891	-0.260326
C164	C	-0.047457	0.037442	0.073007
C165	C	0.285877	0.370775	0.406340
C166	C	-0.330162	-1.078710	-0.556203
C167	C	0.003171	-0.745377	-0.222870
C168	C	0.336504	-0.412043	0.110463
C169	C	-0.330139	-1.078713	-0.626896
C170	C	0.003194	-0.745380	-0.293562
C171	C	0.336527	-0.412046	0.039771
C172	C	-0.380671	-1.044167	-0.653485
C173	C	-0.047337	-0.710834	-0.320152
C174	C	0.285996	-0.377500	0.013182
C175	C	-0.431223	-1.009610	-0.609379
C176	C	-0.097889	-0.676277	-0.276045
C177	C	0.235444	-0.342943	0.057288
C178	C	-0.431241	-1.009603	-0.538688
C179	C	-0.097908	-0.676270	-0.205355
C180	C	0.235426	-0.342937	0.127978
C181	C	-0.431149	-1.009635	-0.894465
C182	C	-0.097816	-0.676302	-0.561131
C183	C	0.235518	-0.342969	-0.227798
C184	C	-0.431128	-1.009646	-0.965160
C185	C	-0.097795	-0.676313	-0.631827
C186	C	0.235538	-0.342980	-0.298494
C187	C	-0.330047	-1.078745	-0.982672
C188	C	0.003286	-0.745412	-0.649339
C189	C	0.336619	-0.412078	-0.316006
C190	C	-0.330066	-1.078738	-0.911982
C191	C	0.003268	-0.745405	-0.578649
C192	C	0.336601	-0.412072	-0.245315
C193	C	-0.380614	-1.044179	-0.867882
C194	C	-0.047281	-0.710845	-0.534549
C195	C	0.286052	-0.377512	-0.201216
C196	C	-0.380638	-1.044175	-0.791230
C197	C	-0.047304	-0.710841	-0.457896
C198	C	0.286029	-0.377508	-0.124563
C199	C	-0.380652	-1.044175	-0.730135
C200	C	-0.047319	-0.710841	-0.396802
C201	C	0.286015	-0.377508	-0.063469
C202	C	-0.380776	-1.044115	-0.084460
C203	C	-0.047442	-0.710782	0.248873
C204	C	0.285891	-0.377449	0.582206
C205	C	-0.380574	-1.044195	-0.009264
C206	C	-0.047241	-0.710862	0.324070
C207	C	0.286093	-0.377529	0.657403
H208	H	-0.472607	-0.802378	-0.322809
H209	H	-0.139274	-0.469044	0.010525
H210	H	0.194060	-0.135711	0.343858
H211	H	-0.730638	-0.974780	-0.329537
H212	H	-0.397305	-0.641447	0.003796
H213	H	-0.063972	-0.308114	0.337129
H214	H	-1.079134	-0.913395	-0.390985
H215	H	-0.745800	-0.580061	-0.057651
H216	H	-0.412467	-0.246728	0.275682
Cl217	Cl	-0.663407	-0.995294	-0.309055
Cl218	Cl	-0.330074	-0.661960	0.024278
Cl219	Cl	0.003260	-0.328627	0.357611
H220	H	-0.831385	-1.200791	-0.103932
H221	H	-0.498051	-0.867458	0.229401
H222	H	-0.164718	-0.534124	0.562735
Cl223	Cl	-0.266526	-0.622756	-0.182535
Cl224	Cl	0.066807	-0.289423	0.150798
Cl225	Cl	0.400141	0.043910	0.484132
Cl226	Cl	-0.266541	-1.122172	-0.878559
Cl227	Cl	0.066793	-0.788838	-0.545226
Cl228	Cl	0.400126	-0.455505	-0.211893
H229	H	-0.472607	-0.674144	-0.322820
H230	H	-0.139273	-0.340810	0.010513
H231	H	0.194060	-0.007477	0.343846
Cl232	Cl	-0.787276	-0.886853	-0.417370
Cl233	Cl	-0.453942	-0.553519	-0.084037
Cl234	Cl	-0.120609	-0.220186	0.249296
Cl235	Cl	-0.494696	-0.966189	-0.839034
Cl236	Cl	-0.161363	-0.632856	-0.505701
Cl237	Cl	0.171970	-0.299522	-0.172367
Cl238	Cl	-1.097358	-1.092894	-0.211765
Cl239	Cl	-0.764025	-0.759561	0.121568
Cl240	Cl	-0.430691	-0.426228	0.454901
H241	H	-0.472622	-0.318375	-0.322837
H242	H	-0.139289	0.014958	0.010497
H243	H	0.194045	0.348291	0.343830
Cl244	Cl	-0.266637	-1.122146	-0.522784
Cl245	Cl	0.066696	-0.788813	-0.189451
Cl246	Cl	0.400029	-0.455479	0.143883
Cl247	Cl	-0.495033	-0.466161	-0.338089
Cl248	Cl	-0.161700	-0.132828	-0.004756
Cl249	Cl	0.171634	0.200506	0.328578
H250	H	-0.288959	-0.286538	-0.197806
H251	H	0.044374	0.046795	0.135528
H252	H	0.377707	0.380128	0.468861
Cl253	Cl	-0.266623	-1.122189	-0.682329
Cl254	Cl	0.066710	-0.788855	-0.348995
Cl255	Cl	0.400043	-0.455522	-0.015662
H256	H	-0.288885	-1.106883	-1.018588
H257	H	0.044448	-0.773549	-0.685254
H258	H	0.377781	-0.440216	-0.351921
H259	H	-0.472279	-0.981512	-0.986806
H260	H	-0.138945	-0.648179	-0.653473
H261	H	0.194388	-0.314846	-0.320139
H262	H	-0.288955	-0.414772	-0.197796
H263	H	0.044378	-0.081438	0.135537
H264	H	0.377712	0.251895	0.468871
Cl265	Cl	-0.266519	-0.782307	-0.182523
Cl266	Cl	0.066814	-0.448973	0.150810
Cl267	Cl	0.400147	-0.115640	0.484144
Cl268	Cl	-0.494745	-0.966177	-0.642806
Cl269	Cl	-0.161412	-0.632844	-0.309472
Cl270	Cl	0.171921	-0.299511	0.023861
H271	H	-0.929383	-0.887389	-0.416886
H272	H	-0.596049	-0.554056	-0.083552
H273	H	-0.262716	-0.220722	0.249781
Cl274	Cl	-0.494789	-0.966161	-0.483246
Cl275	Cl	-0.161456	-0.632828	-0.149913
Cl276	Cl	0.171877	-0.299495	0.183420
H277	H	-1.030120	-1.113397	-0.191269
H278	H	-0.696787	-0.780064	0.142064
H279	H	-0.363453	-0.446730	0.475397
H280	H	-0.681625	-1.174802	-0.129831
H281	H	-0.348292	-0.841468	0.203503
H282	H	-0.014959	-0.508135	0.536836
Cl283	Cl	-0.973489	-1.201332	-0.103454
Cl284	Cl	-0.640156	-0.867999	0.229879
Cl285	Cl	-0.306823	-0.534666	0.563212
