data_functionalizedCrystal
_audit_creation_method	'MofGen! by Chris Wilmer'
_symmetry_space_group_name_H-M	'P1'
_symmetry_Int_Tables_number	1
_symmetry_cell_setting	triclinic
loop_
_symmetry_equiv_pos_as_xyz
  x,y,z
_cell_length_a	9.065218
_cell_length_b	14.519709
_cell_length_c	13.596369
_cell_angle_alpha	89.993066
_cell_angle_beta	89.994623
_cell_angle_gamma	84.348015
loop_
_atom_site_label
_atom_site_type_symbol
_atom_site_fract_x
_atom_site_fract_y
_atom_site_fract_z
O1	O	1.957869	0.135228	-0.081796
O2	O	2.207869	0.385228	0.168204
O3	O	2.457869	0.635228	0.418204
O4	O	2.707869	0.885228	0.668204
O5	O	1.528376	0.146320	-0.081798
O6	O	1.778376	0.396320	0.168202
O7	O	2.028376	0.646320	0.418202
O8	O	2.278376	0.896320	0.668202
O9	O	1.754510	0.006619	-0.081788
O10	O	2.004510	0.256619	0.168212
O11	O	2.254510	0.506619	0.418212
O12	O	2.504510	0.756619	0.668212
O13	O	1.731735	0.274929	-0.081806
O14	O	1.981735	0.524929	0.168194
O15	O	2.231735	0.774929	0.418194
O16	O	2.481735	1.024929	0.668194
O17	O	1.754487	0.006611	0.081795
O18	O	2.004487	0.256611	0.331795
O19	O	2.254487	0.506611	0.581795
O20	O	2.504487	0.756611	0.831795
O21	O	1.528354	0.146312	0.081785
O22	O	1.778354	0.396312	0.331785
O23	O	2.028354	0.646312	0.581785
O24	O	2.278354	0.896312	0.831785
O25	O	1.957846	0.135221	0.081786
O26	O	2.207846	0.385221	0.331786
O27	O	2.457846	0.635221	0.581786
O28	O	2.707846	0.885221	0.831786
Zn29	Zn	1.743096	0.140765	0.107758
Zn30	Zn	1.993096	0.390765	0.357758
Zn31	Zn	2.243096	0.640765	0.607758
Zn32	Zn	2.493096	0.890765	0.857758
Zn33	Zn	1.743126	0.140775	-0.107770
Zn34	Zn	1.993126	0.390775	0.142230
Zn35	Zn	2.243126	0.640775	0.392230
Zn36	Zn	2.493126	0.890775	0.642230
O37	O	1.731713	0.274922	0.081777
O38	O	1.981713	0.524922	0.331777
O39	O	2.231713	0.774922	0.581777
O40	O	2.481713	1.024922	0.831777
C41	C	1.473398	0.145250	-0.000007
C42	C	1.723398	0.395250	0.249993
C43	C	1.973398	0.645250	0.499993
C44	C	2.223398	0.895250	0.749993
C45	C	1.309615	0.142063	-0.000007
C46	C	1.559615	0.392063	0.249993
C47	C	1.809615	0.642063	0.499993
C48	C	2.059615	0.892063	0.749993
C49	C	1.753437	-0.027752	0.000003
C50	C	2.003437	0.222248	0.250003
C51	C	2.253437	0.472248	0.500003
C52	C	2.503437	0.722248	0.750003
C53	C	1.750257	-0.130157	0.000004
C54	C	2.000257	0.119843	0.250004
C55	C	2.250257	0.369843	0.500004
C56	C	2.500257	0.619843	0.750004
C57	C	1.738547	-0.505138	-0.000022
C58	C	1.988547	-0.255138	0.249978
C59	C	2.238547	-0.005138	0.499978
C60	C	2.488547	0.244862	0.749978
C61	C	1.741799	-0.400807	-0.000014
C62	C	1.991799	-0.150807	0.249986
C63	C	2.241799	0.099193	0.499986
C64	C	2.491799	0.349193	0.749986
C65	C	1.744402	-0.317651	-0.000008
C66	C	1.994402	-0.067651	0.249992
C67	C	2.244402	0.182349	0.499992
C68	C	2.494402	0.432349	0.749992
C69	C	1.747654	-0.213313	-0.000003
C70	C	1.997654	0.036687	0.249997
C71	C	2.247654	0.286687	0.499997
C72	C	2.497654	0.536687	0.749997
C73	C	2.012824	0.136290	-0.000007
C74	C	2.262824	0.386290	0.249993
C75	C	2.512824	0.636290	0.499993
C76	C	2.762824	0.886290	0.749993
C77	C	2.176607	0.139478	-0.000013
C78	C	2.426607	0.389478	0.249987
C79	C	2.676607	0.639478	0.499987
C80	C	2.926607	0.889478	0.749987
C81	C	1.732785	0.309293	-0.000017
C82	C	1.982785	0.559293	0.249983
C83	C	2.232785	0.809293	0.499983
C84	C	2.482785	1.059293	0.749983
C85	C	1.735966	0.411697	-0.000024
C86	C	1.985966	0.661697	0.249976
C87	C	2.235966	0.911697	0.499976
C88	C	2.485966	1.161697	0.749976
N89	N	1.743087	0.140758	0.254850
N90	N	1.993087	0.390758	0.504850
N91	N	2.243087	0.640758	0.754850
N92	N	2.493087	0.890758	1.004850
N93	N	1.743147	0.140775	-0.254861
N94	N	1.993147	0.390775	-0.004861
N95	N	2.243147	0.640775	0.245139
N96	N	2.493147	0.890775	0.495139
C97	C	1.743124	0.140776	0.656141
C98	C	1.993124	0.390776	0.906141
C99	C	2.243124	0.640776	1.156141
C100	C	2.493124	0.890776	1.406141
C101	C	1.743109	0.140774	0.544489
C102	C	1.993109	0.390774	0.794489
C103	C	2.243109	0.640774	1.044489
C104	C	2.493109	0.890774	1.294489
C105	C	1.743106	0.140768	0.455499
C106	C	1.993106	0.390768	0.705499
C107	C	2.243106	0.640768	0.955499
C108	C	2.493106	0.890768	1.205499
C109	C	1.743090	0.140764	0.343840
C110	C	1.993090	0.390764	0.593840
C111	C	2.243090	0.640764	0.843840
C112	C	2.493090	0.890764	1.093840
