data_functionalizedCrystal
_audit_creation_method	'MofGen! by Chris Wilmer'
_symmetry_space_group_name_H-M	'P1'
_symmetry_Int_Tables_number	1
_symmetry_cell_setting	triclinic
loop_
_symmetry_equiv_pos_as_xyz
  x,y,z
_cell_length_a	12.827893
_cell_length_b	16.625546
_cell_length_c	12.827885
_cell_angle_alpha	89.964876
_cell_angle_beta	89.980538
_cell_angle_gamma	90.022439
loop_
_atom_site_label
_atom_site_type_symbol
_atom_site_fract_x
_atom_site_fract_y
_atom_site_fract_z
Zn1	Zn	1.597620	-0.320963	-0.590810
Zn2	Zn	1.597492	-0.455817	-0.416054
Zn3	Zn	1.422861	-0.321002	-0.416084
Zn4	Zn	1.422825	-0.455757	-0.590754
O5	O	1.510200	-0.388385	-0.503425
O6	O	1.743839	-0.338861	-0.567639
O7	O	1.574288	-0.437976	-0.269822
O8	O	1.446112	-0.208165	-0.439297
O9	O	1.743745	-0.437937	-0.439247
O10	O	1.574507	-0.208136	-0.567668
O11	O	1.445988	-0.338928	-0.269843
O12	O	1.276620	-0.338869	-0.439243
O13	O	1.446051	-0.437835	-0.736997
O14	O	1.276594	-0.437873	-0.567572
O15	O	1.574472	-0.338802	-0.737039
O16	O	1.574254	-0.568642	-0.439192
O17	O	1.445927	-0.568598	-0.567544
C18	C	1.238690	-0.388370	-0.503405
C19	C	1.122537	-0.388382	-0.503422
C20	C	1.070766	-0.437449	-0.566825
C21	C	0.950716	-0.437464	-0.566844
C22	C	1.510101	-0.597876	-0.503382
C23	C	1.510154	-0.687497	-0.503398
C24	C	1.510336	-1.015673	-0.503507
C25	C	1.510282	-0.924364	-0.503479
C26	C	1.510244	-0.851588	-0.503452
C27	C	1.510192	-0.760274	-0.503425
C28	C	1.782770	-0.388401	-0.503446
C29	C	1.898923	-0.388408	-0.503455
C30	C	1.510272	-0.388308	-0.775996
C31	C	1.510302	-0.388275	-0.892149
C32	C	1.510327	-0.178076	-0.503492
C33	C	1.510382	-0.088455	-0.503521
C34	C	1.446835	-0.339253	-0.943944
C35	C	1.446866	-0.339218	-1.063995
C36	C	1.510188	-0.388404	-0.231915
C37	C	1.510360	-0.388210	-0.115763
H38	H	0.943437	-0.346401	-0.449166
O39	O	1.382080	-0.289238	-0.890666
C40	C	1.322933	-0.243730	-0.722437
C41	C	1.396340	-0.300401	-0.782640
H42	H	1.334420	-0.252747	-0.635088
H43	H	1.341312	-0.178676	-0.743777
H44	H	1.238658	-0.257853	-0.743888
H45	H	1.480639	-0.286350	-0.761222
H46	H	1.377870	-0.365438	-0.761295
H47	H	1.392534	-0.297245	-1.108538
O48	O	1.069514	-0.338317	-0.438525
C49	C	1.035807	-0.299081	-0.260885
C50	C	1.095930	-0.355819	-0.334268
H51	H	1.057126	-0.313223	-0.176577
H52	H	1.057259	-0.234051	-0.279276
H53	H	0.948459	-0.308002	-0.272483
H54	H	1.183292	-0.346970	-0.322711
H55	H	1.074392	-0.420828	-0.315860
H56	H	1.115321	-0.479444	-0.621098
O57	O	1.575136	-0.438397	-1.062753
C58	C	1.625692	-0.575544	-1.029066
C59	C	1.552286	-0.518798	-1.089192
H60	H	1.607229	-0.640561	-1.050403
H61	H	1.710007	-0.561468	-1.050496
H62	H	1.614134	-0.566609	-0.941718
H63	H	1.563751	-0.527702	-1.176554
H64	H	1.467998	-0.532888	-1.067676
H65	H	1.564660	-0.430219	-0.936682
H66	H	0.906195	-0.479474	-0.621123
