data_functionalizedCrystal
_audit_creation_method	'MofGen! by Chris Wilmer'
_symmetry_space_group_name_H-M	'P1'
_symmetry_Int_Tables_number	1
_symmetry_cell_setting	triclinic
loop_
_symmetry_equiv_pos_as_xyz
  x,y,z
_cell_length_a	13.897449
_cell_length_b	13.897448
_cell_length_c	13.897441
_cell_angle_alpha	90.030599
_cell_angle_beta	90.022859
_cell_angle_gamma	90.017525
loop_
_atom_site_label
_atom_site_type_symbol
_atom_site_fract_x
_atom_site_fract_y
_atom_site_fract_z
Zn1	Zn	-1.474703	0.383988	-0.545436
Zn2	Zn	-1.474597	0.545310	-0.384137
Zn3	Zn	-1.313392	0.384030	-0.384148
Zn4	Zn	-1.313373	0.545243	-0.545384
O5	O	-1.394016	0.464643	-0.464776
O6	O	-1.609670	0.405399	-0.524056
O7	O	-1.453176	0.523962	-0.249157
O8	O	-1.334842	0.249043	-0.405570
O9	O	-1.609592	0.523921	-0.405551
O10	O	-1.453356	0.249012	-0.524067
O11	O	-1.334739	0.405470	-0.249165
O12	O	-1.178408	0.405405	-0.405519
O13	O	-1.334811	0.523806	-0.680372
O14	O	-1.178394	0.523847	-0.523978
O15	O	-1.453339	0.405333	-0.680411
O16	O	-1.453158	0.680283	-0.405501
O17	O	-1.334708	0.680233	-0.523968
C18	C	-1.143402	0.464624	-0.464745
C19	C	-1.036188	0.464639	-0.464755
C20	C	-0.839893	0.464637	-0.464773
C21	C	-0.949125	0.464635	-0.464760
C22	C	-1.393946	0.715257	-0.464748
C23	C	-1.394004	0.822471	-0.464769
C24	C	-1.394085	0.464558	-0.716369
C25	C	-1.394114	0.464521	-0.823583
C26	C	-0.645609	0.464656	-0.464799
C27	C	-0.752823	0.464646	-0.464785
C28	C	-1.394113	0.213050	-0.464825
C29	C	-1.394154	0.105836	-0.464846
C30	C	-1.394105	1.018766	-0.464829
C31	C	-1.394046	0.909534	-0.464798
C32	C	-1.394140	0.464456	-1.019879
C33	C	-1.394122	0.464495	-0.910646
C34	C	-1.394003	0.464658	-0.214162
C35	C	-1.394161	0.464423	-0.106949
