data_functionalizedCrystal
_audit_creation_method	'MofGen! by Chris Wilmer'
_symmetry_space_group_name_H-M	'P1'
_symmetry_Int_Tables_number	1
_symmetry_cell_setting	triclinic
loop_
_symmetry_equiv_pos_as_xyz
  x,y,z
_cell_length_a	10.967819
_cell_length_b	17.038272
_cell_length_c	9.482900
_cell_angle_alpha	100.012096
_cell_angle_beta	68.706355
_cell_angle_gamma	87.839191
loop_
_atom_site_label
_atom_site_type_symbol
_atom_site_fract_x
_atom_site_fract_y
_atom_site_fract_z
O1	O	1.751444	0.053520	-0.559689
O2	O	1.375093	0.073489	-0.465405
O3	O	1.561030	-0.050265	-0.511975
O4	O	1.565507	0.177275	-0.513119
O5	O	1.523273	-0.025030	-0.260725
O6	O	1.337336	0.098724	-0.214155
O7	O	1.713687	0.078755	-0.308440
Cu8	Cu	1.522064	0.091044	-0.238357
Cu9	Cu	1.566716	0.061201	-0.535488
O10	O	1.527750	0.202510	-0.261870
C11	C	1.307822	0.086560	-0.327656
C12	C	1.163627	0.087900	-0.291532
C13	C	0.969878	0.076816	-0.368273
C14	C	1.118910	0.075426	-0.405601
C15	C	1.538083	-0.066695	-0.385331
C16	C	1.525944	-0.153247	-0.382290
C17	C	1.637395	-0.205572	-0.410210
C18	C	1.625984	-0.286897	-0.407365
C19	C	1.503118	-0.315896	-0.376589
C20	C	1.391658	-0.263565	-0.348672
C21	C	1.403073	-0.182242	-0.351528
C22	C	1.462794	-0.560856	-0.366507
C23	C	1.451387	-0.642185	-0.363648
C24	C	1.685714	-0.665512	-0.422344
C25	C	1.697116	-0.584185	-0.425189
C26	C	1.585658	-0.531863	-0.397279
C27	C	1.491449	-0.399023	-0.373675
C28	C	1.597329	-0.448738	-0.400204
C29	C	1.780958	0.065685	-0.446192
C30	C	1.925155	0.064343	-0.482326
C31	C	1.550698	0.218939	-0.388517
C32	C	1.562838	0.305491	-0.391568
N33	N	1.490667	0.112033	-0.029373
N34	N	1.598122	0.040205	-0.744474
C35	C	1.557446	0.067388	0.026101
C36	C	1.531334	0.084857	0.200058
H37	H	1.091588	0.099613	-0.166243
O38	O	1.011275	0.050354	-0.631704
C39	C	1.238324	0.036295	-0.805103
C40	C	1.140945	0.052129	-0.635863
H41	H	1.343182	0.037742	-0.808521
H42	H	1.227854	-0.025059	-0.867532
H43	H	1.216009	0.084541	-0.864554
H44	H	1.163198	0.003933	-0.576279
H45	H	1.151436	0.113508	-0.573549
O46	O	1.294666	-0.131514	-0.324306
C47	C	1.061058	-0.116964	-0.265889
C48	C	1.183717	-0.174495	-0.296643
H49	H	0.971330	-0.151695	-0.243548
H50	H	1.044641	-0.067758	-0.160566
H51	H	1.076423	-0.088851	-0.370906
H52	H	1.168444	-0.202666	-0.191718
H53	H	1.200097	-0.223654	-0.402024
O54	O	1.648573	0.006271	-0.070798
C55	C	1.716351	-0.135801	-0.134673
C56	C	1.613031	-0.066670	-0.024826
H57	H	1.687668	-0.194788	-0.097526
H58	H	1.721120	-0.139062	-0.257694
H59	H	1.816819	-0.124715	-0.130059
H60	H	1.512510	-0.077707	-0.029304
H61	H	1.608378	-0.063427	0.098146
O62	O	1.793980	-0.716398	-0.449726
C63	C	1.936604	-0.834849	-0.610689
C64	C	1.813978	-0.777272	-0.579866
H65	H	1.952795	-0.884089	-0.715886
H66	H	2.026440	-0.800204	-0.633288
H67	H	1.921302	-0.862909	-0.505624
H68	H	1.829151	-0.749196	-0.684882
H69	H	1.724185	-0.811957	-0.557202
O70	O	1.756858	-0.177545	-0.440201
C71	C	1.988061	-0.209269	-0.498050
C72	C	1.852851	-0.241113	-0.464130
H73	H	2.065702	-0.260644	-0.517373
H74	H	2.015151	-0.182369	-0.606049
H75	H	1.983404	-0.161196	-0.395718
H76	H	1.857404	-0.289212	-0.566367
H77	H	1.825811	-0.267962	-0.356076
O78	O	1.439879	0.145809	0.297003
C79	C	1.212263	0.201208	0.400863
C80	C	1.315692	0.132124	0.291044
H81	H	1.111839	0.190176	0.396058
H82	H	1.207348	0.204428	0.523929
H83	H	1.241061	0.260203	0.363819
H84	H	1.286969	0.073093	0.327947
H85	H	1.320588	0.128976	0.168003
O86	O	1.371996	-0.427076	-0.343553
C87	C	1.148691	-0.418996	-0.162300
C88	C	1.283892	-0.387138	-0.196223
H89	H	1.077429	-0.386731	-0.043173
H90	H	1.108858	-0.407777	-0.253438
H91	H	1.159728	-0.486115	-0.165144
H92	H	1.272966	-0.320015	-0.193356
H93	H	1.323677	-0.398417	-0.105082
O94	O	1.734254	-0.337781	-0.434746
C95	C	1.876896	-0.456223	-0.595715
C96	C	1.754264	-0.398652	-0.564894
H97	H	1.893097	-0.505461	-0.700919
H98	H	1.966726	-0.421573	-0.618302
H99	H	1.861593	-0.484287	-0.490654
H100	H	1.769438	-0.370572	-0.669905
H101	H	1.664478	-0.433342	-0.542241
O102	O	1.816577	-0.556157	-0.455171
C103	C	2.047775	-0.587868	-0.512973
C104	C	1.912573	-0.619721	-0.479089
H105	H	2.125419	-0.639240	-0.532288
H106	H	2.074877	-0.560963	-0.620968
H107	H	2.043096	-0.539797	-0.410629
H108	H	1.917148	-0.667818	-0.581339
H109	H	1.885522	-0.646574	-0.371040
O110	O	1.331941	-0.670231	-0.333809
C111	C	1.100716	-0.638511	-0.275837
C112	C	1.235902	-0.606645	-0.309640
H113	H	1.023027	-0.587115	-0.256255
H114	H	1.105253	-0.686533	-0.378188
H115	H	1.073775	-0.665474	-0.167924
H116	H	1.262925	-0.579642	-0.417505
H117	H	1.231293	-0.558660	-0.207204
O118	O	1.689404	-0.020882	0.158788
C119	C	1.849937	-0.128145	0.134277
C120	C	1.746579	-0.059004	0.244007
H121	H	1.896212	-0.158976	0.203127
H122	H	1.800541	-0.173357	0.075448
H123	H	1.929645	-0.103248	0.042986
H124	H	1.666842	-0.083829	0.335384
H125	H	1.796070	-0.013804	0.302720
O126	O	1.354601	-0.510034	-0.339663
C127	C	1.251066	-0.417722	-0.438951
C128	C	1.373671	-0.475270	-0.469569
H129	H	1.266453	-0.389587	-0.543945
H130	H	1.161266	-0.452394	-0.416545
H131	H	1.234746	-0.368538	-0.333629
H132	H	1.390114	-0.524466	-0.574904
H133	H	1.463403	-0.440543	-0.491882
O134	O	0.884079	0.090687	-0.218754
C135	C	0.814343	0.046719	0.023927
C136	C	0.911608	0.030928	-0.145363
H137	H	0.836548	-0.001595	0.083305
H138	H	0.824931	0.108030	0.086409
H139	H	0.709469	0.045387	0.027362
H140	H	1.016523	0.032219	-0.148940
H141	H	0.900905	-0.030372	-0.207772
O142	O	1.399308	0.173071	0.067392
C143	C	1.238886	0.280397	0.091884
C144	C	1.342295	0.211285	-0.017863
H145	H	1.192782	0.311323	0.022994
H146	H	1.159048	0.255548	0.183123
H147	H	1.288350	0.325524	0.150782
H148	H	1.292948	0.166133	-0.076869
H149	H	1.422124	0.236192	-0.109007
H150	H	1.291619	-0.287183	-0.323623
O151	O	1.716718	-0.420648	-0.429918
C152	C	1.900881	-0.402580	-0.350734
C153	C	1.765699	-0.434452	-0.316931
H154	H	1.940509	-0.413713	-0.259386
H155	H	1.972298	-0.434894	-0.469742
H156	H	1.889864	-0.335476	-0.348046
H157	H	1.776588	-0.501548	-0.319536
H158	H	1.694332	-0.402077	-0.197945
H159	H	1.190950	0.063722	-0.530888
