data_functionalizedCrystal
_audit_creation_method	'MofGen! by Chris Wilmer'
_symmetry_space_group_name_H-M	'P1'
_symmetry_Int_Tables_number	1
_symmetry_cell_setting	triclinic
loop_
_symmetry_equiv_pos_as_xyz
  x,y,z
_cell_length_a	11.792241
_cell_length_b	10.723024
_cell_length_c	9.198806
_cell_angle_alpha	89.997723
_cell_angle_beta	90.000241
_cell_angle_gamma	84.330643
loop_
_atom_site_label
_atom_site_type_symbol
_atom_site_fract_x
_atom_site_fract_y
_atom_site_fract_z
O1	O	-1.507282	-0.171036	0.120747
O2	O	-1.007282	0.328964	0.620747
O3	O	-1.176980	-0.188664	0.120781
O4	O	-0.676980	0.311336	0.620781
O5	O	-1.349750	0.001746	0.120758
O6	O	-0.849750	0.501746	0.620758
O7	O	-1.334512	-0.361446	0.120770
O8	O	-0.834512	0.138554	0.620770
O9	O	-1.349736	0.001748	-0.121027
O10	O	-0.849736	0.501748	0.378973
O11	O	-1.176966	-0.188662	-0.121004
O12	O	-0.676966	0.311338	0.378996
O13	O	-1.507269	-0.171035	-0.121038
O14	O	-1.007269	0.328965	0.378962
Cu15	Cu	-1.342116	-0.179848	-0.143098
Cu16	Cu	-0.842116	0.320152	0.356902
Cu17	Cu	-1.342133	-0.179850	0.142841
Cu18	Cu	-0.842133	0.320150	0.642841
O19	O	-1.334499	-0.361445	-0.121015
O20	O	-0.834499	0.138555	0.378985
C21	C	-1.134680	-0.187556	-0.000108
C22	C	-0.634680	0.312444	0.499892
C23	C	-1.008659	-0.184242	-0.000095
C24	C	-0.508659	0.315758	0.499905
C25	C	-1.348634	0.048244	-0.000133
C26	C	-0.848634	0.548244	0.499867
C27	C	-1.345317	0.186789	-0.000127
C28	C	-0.845317	0.686789	0.499873
C29	C	-1.549569	-0.172143	-0.000146
C30	C	-1.049569	0.327857	0.499854
C31	C	-1.675590	-0.175457	-0.000150
C32	C	-1.175590	0.324543	0.499850
C33	C	-0.777933	-0.178147	-0.000137
C34	C	-0.277933	0.321853	0.499863
C35	C	-0.906326	-0.181533	-0.000114
C36	C	-0.406326	0.318467	0.499886
C37	C	-1.335614	-0.407942	-0.000121
C38	C	-0.835614	0.092058	0.499879
C39	C	-1.338932	-0.546488	-0.000117
C40	C	-0.838932	-0.046488	0.499883
N41	N	-1.342113	-0.179847	-0.344212
N42	N	-0.842113	0.320153	0.155788
C43	C	-1.441990	0.262028	-0.000135
C44	C	-0.941990	0.762028	0.499865
C45	C	-1.438563	0.405222	-0.000130
C46	C	-0.938563	0.905222	0.499870
C47	C	-1.408296	-0.252033	-0.416414
C48	C	-0.908296	0.247967	0.083586
C49	C	-1.408313	-0.252031	-0.583827
C50	C	-0.908313	0.247969	-0.083827
N51	N	-1.342145	-0.179842	0.343955
N52	N	-0.842145	0.320158	0.843955
H53	H	-1.521323	0.469873	-0.000143
H54	H	-1.021323	0.969873	0.499857
H55	H	-1.260014	0.228386	-0.000109
H56	H	-0.760014	0.728386	0.499891
H57	H	-1.256168	0.388868	-0.000120
H58	H	-0.756168	0.888868	0.499880
H59	H	-1.527292	0.220431	-0.000153
H60	H	-1.027292	0.720431	0.499847
H61	H	-1.464949	-0.313830	-0.354289
H62	H	-0.964949	0.186170	0.145711
C63	C	-1.483909	-0.334575	-0.666344
C64	C	-0.983909	0.165425	-0.166344
C65	C	-1.544930	-0.401195	-0.567261
C66	C	-1.044930	0.098805	-0.067261
C67	C	-1.614571	-0.477261	-0.643225
C68	C	-1.114571	0.022739	-0.143225
H69	H	-1.535692	-0.283768	-0.725722
H70	H	-1.035692	0.216232	-0.225722
H71	H	-1.437965	-0.391812	-0.725693
H72	H	-0.937965	0.108188	-0.225693
H73	H	-1.590871	-0.343965	-0.507937
H74	H	-1.090871	0.156035	-0.007937
H75	H	-1.493176	-0.452026	-0.507880
H76	H	-0.993176	0.047974	-0.007880
H77	H	-1.568627	-0.534498	-0.702574
H78	H	-1.068627	-0.034498	-0.202574
H79	H	-1.666348	-0.426444	-0.702601
H80	H	-1.166348	0.073556	-0.202601
H81	H	-1.655974	-0.522480	-0.576009
H82	H	-1.155974	-0.022480	-0.076009
H83	H	-1.285475	-0.118044	-0.593962
H84	H	-0.785475	0.381956	-0.093962
H85	H	-1.285468	-0.118041	-0.406337
H86	H	-0.785468	0.381959	0.093663
