data_functionalizedCrystal
_audit_creation_method	'MofGen! by Chris Wilmer'
_symmetry_space_group_name_H-M	'P1'
_symmetry_Int_Tables_number	1
_symmetry_cell_setting	triclinic
loop_
_symmetry_equiv_pos_as_xyz
  x,y,z
_cell_length_a	16.974800
_cell_length_b	10.654559
_cell_length_c	15.455313
_cell_angle_alpha	92.693692
_cell_angle_beta	90.973911
_cell_angle_gamma	83.938039
loop_
_atom_site_label
_atom_site_type_symbol
_atom_site_fract_x
_atom_site_fract_y
_atom_site_fract_z
O1	O	1.049953	0.160090	0.001605
O2	O	1.549953	0.660090	0.501605
O3	O	0.820625	0.179269	-0.014500
O4	O	1.320625	0.679269	0.485500
O5	O	0.940558	-0.013114	-0.006077
O6	O	1.440558	0.486886	0.493923
O7	O	0.930020	0.352472	-0.006817
O8	O	1.430020	0.852472	0.493183
O9	O	0.933699	-0.002158	0.137703
O10	O	1.433699	0.497842	0.637703
O11	O	0.813767	0.190224	0.129280
O12	O	1.313767	0.690224	0.629280
O13	O	1.043094	0.171046	0.145386
O14	O	1.543094	0.671046	0.645386
Cu15	Cu	0.927804	0.181635	0.150461
Cu16	Cu	1.427804	0.681635	0.650461
Cu17	Cu	0.935915	0.168679	-0.019576
Cu18	Cu	1.435915	0.668679	0.480424
O19	O	0.923161	0.363428	0.136963
O20	O	1.423161	0.863428	0.636963
C21	C	0.787831	0.183816	0.055328
C22	C	1.287831	0.683816	0.555328
C23	C	0.700334	0.181030	0.049183
C24	C	1.200334	0.681030	0.549183
C25	C	0.655494	0.185690	0.124673
C26	C	1.155494	0.685690	0.624673
C27	C	0.573283	0.183051	0.118902
C28	C	1.073283	0.683051	0.618902
C29	C	0.535913	0.175762	0.037640
C30	C	1.035913	0.675762	0.537640
C31	C	0.580759	0.171098	-0.037856
C32	C	1.080759	0.671098	0.462144
C33	C	0.662970	0.173727	-0.032084
C34	C	1.162970	0.673727	0.467916
C35	C	0.290442	0.167249	0.011972
C36	C	0.790442	0.667249	0.511972
C37	C	0.208225	0.164624	0.006205
C38	C	0.708225	0.664624	0.506205
C39	C	0.200755	0.176575	0.162964
C40	C	0.700755	0.676575	0.662964
C41	C	0.282966	0.179212	0.168729
C42	C	0.782966	0.679212	0.668729
C43	C	0.327806	0.174541	0.093233
C44	C	0.827806	0.674541	0.593233
N45	N	0.451880	0.173069	0.031738
N46	N	0.951880	0.673069	0.531738
N47	N	0.411839	0.177225	0.099135
N48	N	0.911839	0.677225	0.599135
C49	C	0.936353	-0.054426	0.065757
C50	C	1.436353	0.445574	0.565757
C51	C	0.934034	-0.193845	0.065588
C52	C	1.434034	0.306155	0.565588
C53	C	0.861240	-0.244632	0.060474
C54	C	1.361240	0.255368	0.560474
C55	C	0.859065	-0.375631	0.060328
C56	C	1.359065	0.124369	0.560328
C57	C	1.002485	-0.405046	0.070407
C58	C	1.502485	0.094954	0.570407
C59	C	1.004659	-0.274049	0.070560
C60	C	1.504659	0.225951	0.570560
C61	C	0.790615	-0.164428	0.055503
C62	C	1.290615	0.335572	0.555503
C63	C	0.717814	-0.215213	0.050387
C64	C	1.217814	0.284787	0.550387
C65	C	0.715639	-0.346213	0.050241
C66	C	1.215639	0.153787	0.550241
C67	C	0.786265	-0.426426	0.055210
C68	C	1.286265	0.073574	0.555210
C69	C	1.075888	0.166498	0.075556
C70	C	1.575888	0.666498	0.575556
C71	C	1.163385	0.169284	0.081695
C72	C	1.663385	0.669284	0.581695
C73	C	0.927366	0.404740	0.065127
C74	C	1.427366	0.904740	0.565127
C75	C	0.929685	0.544159	0.065290
C76	C	1.429685	1.044159	0.565290
N77	N	0.922105	0.190748	0.270057
N78	N	1.422105	0.690748	0.770057
N79	N	0.941620	0.159557	-0.139170
N80	N	1.441620	0.659557	0.360830
C81	C	0.973075	0.109047	0.319030
C82	C	1.473075	0.609047	0.819030
C83	C	0.968772	0.115950	0.409536
C84	C	1.468772	0.615950	0.909536
C85	C	0.913503	0.204560	0.451067
C86	C	1.413503	0.704560	0.951067
C87	C	0.862528	0.286264	0.402086
C88	C	1.362528	0.786264	0.902086
C89	C	0.866827	0.279355	0.311582
C90	C	1.366827	0.779355	0.811582
C91	C	0.894945	0.234351	0.721345
C92	C	1.394945	0.734351	1.221345
C93	C	0.890651	0.241257	0.811856
C94	C	1.390651	0.741257	1.311856
C95	C	0.996894	0.070940	0.819299
C96	C	1.496894	0.570940	1.319299
C97	C	1.001192	0.064044	0.728793
C98	C	1.501192	0.564044	1.228793
C99	C	0.950214	0.145743	0.679821
C100	C	1.450214	0.645743	1.179821
N101	N	0.909105	0.211621	0.543578
N102	N	1.409105	0.711621	1.043578
N103	N	0.954609	0.138676	0.587311
N104	N	1.454609	0.638676	1.087311
H105	H	0.685914	0.191635	0.190845
H106	H	1.185914	0.691635	0.690845
H107	H	0.699478	0.169935	-0.093556
H108	H	1.199478	0.669935	0.406444
N109	N	1.078655	-0.491554	0.075769
N110	N	1.578655	0.008446	0.575769
H111	H	1.066232	-0.582247	0.074895
H112	H	1.566232	-0.082247	0.574895
H113	H	1.112895	-0.479143	0.024695
H114	H	1.612895	0.020857	0.524695
N115	N	0.152399	0.181594	0.244390
N116	N	0.652399	0.681594	0.744390
H117	H	0.159957	0.261624	0.279813
H118	H	0.659957	0.761624	0.779813
H119	H	0.094544	0.180501	0.228338
H120	H	0.594544	0.680501	0.728338
N121	N	0.811848	0.367473	0.258762
N122	N	1.311848	0.867473	0.758762
H123	H	0.820659	0.457851	0.275170
H124	H	1.320659	0.957851	0.775170
H125	H	0.822981	0.349542	0.195143
H126	H	1.322981	0.849542	0.695143
N127	N	0.792961	-0.023139	0.055653
N128	N	1.292961	0.476861	0.555653
H129	H	0.737177	0.019966	0.051727
H130	H	1.237177	0.519966	0.551727
H131	H	0.819127	0.006606	0.110971
H132	H	1.319127	0.506606	0.610971
N133	N	1.032683	0.013452	0.274254
N134	N	1.532683	0.513452	0.774254
H135	H	1.004045	-0.045152	0.234584
H136	H	1.504045	0.454848	0.734584
H137	H	1.069614	0.058803	0.239205
H138	H	1.569614	0.558803	0.739205
N139	N	0.783924	-0.567719	0.055054
N140	N	1.283924	-0.067719	0.555054
H141	H	0.809012	-0.600979	0.110296
H142	H	1.309012	-0.100979	0.610296
H143	H	0.727075	-0.587624	0.051029
H144	H	1.227075	-0.087624	0.551029
H145	H	1.010275	0.049422	0.449410
H146	H	1.510275	0.549422	0.949410
H147	H	0.817523	0.358409	0.435905
H148	H	1.317523	0.858409	0.935905
H149	H	1.046196	-0.008110	0.694981
H150	H	1.546196	0.491890	1.194981
N151	N	0.641642	-0.128706	0.045050
N152	N	1.141642	0.371294	0.545050
H153	H	0.654064	-0.038013	0.045922
H154	H	1.154064	0.461987	0.545922
H155	H	0.612482	-0.149238	-0.010472
H156	H	1.112482	0.350762	0.489528
H157	H	0.853438	0.300877	0.681478
H158	H	1.353438	0.800877	1.181478
N159	N	0.167915	0.156772	-0.081445
N160	N	0.667915	0.656772	0.418555
H161	H	0.208795	0.154213	-0.128396
H162	H	0.708795	0.654213	0.371604
H163	H	0.139927	0.077647	-0.086833
H164	H	0.639927	0.577647	0.413167
H165	H	0.536779	0.186825	0.180374
H166	H	1.036779	0.686825	0.680374
H167	H	0.656362	-0.387558	0.046084
H168	H	1.156362	0.112442	0.546084
H169	H	0.313388	0.185141	0.234901
H170	H	0.813388	0.685141	0.734901
H171	H	1.063935	-0.232698	0.074725
H172	H	1.563935	0.267302	0.574725
H173	H	0.845642	0.313420	0.845665
H174	H	1.345642	0.813420	1.345665
N175	N	0.338799	0.162202	-0.069451
N176	N	0.838799	0.662202	0.430549
H177	H	0.302648	0.157187	-0.121804
H178	H	0.802648	0.657187	0.378196
H179	H	0.367112	0.240807	-0.070898
H180	H	0.867112	0.740807	0.429102
N181	N	0.540459	0.163221	-0.125504
N182	N	1.040459	0.663221	0.374496
H183	H	0.481574	0.162264	-0.117708
H184	H	0.981574	0.662264	0.382292
H185	H	0.550496	0.238849	-0.159144
H186	H	1.050496	0.738849	0.340856
H187	H	1.038397	0.004423	0.859181
H188	H	1.538397	0.504423	1.359181
