data_functionalizedCrystal
_audit_creation_method	'MofGen! by Chris Wilmer'
_symmetry_space_group_name_H-M	'P1'
_symmetry_Int_Tables_number	1
_symmetry_cell_setting	triclinic
loop_
_symmetry_equiv_pos_as_xyz
  x,y,z
_cell_length_a	11.792241
_cell_length_b	11.792241
_cell_length_c	10.868271
_cell_angle_alpha	89.999942
_cell_angle_beta	89.998922
_cell_angle_gamma	95.806584
loop_
_atom_site_label
_atom_site_type_symbol
_atom_site_fract_x
_atom_site_fract_y
_atom_site_fract_z
O1	O	0.155561	-1.506910	-0.102185
O2	O	0.171594	-1.176569	-0.102218
O3	O	-0.001593	-1.349756	-0.102192
O4	O	0.328748	-1.333723	-0.102211
O5	O	-0.001585	-1.349738	0.102453
O6	O	0.171602	-1.176551	0.102427
O7	O	0.155569	-1.506893	0.102460
Zn8	Zn	0.163586	-1.341719	0.134935
Zn9	Zn	0.163577	-1.341742	-0.134693
O10	O	0.328756	-1.333706	0.102434
C11	C	0.170591	-1.134269	0.000101
C12	C	0.167576	-1.008255	0.000088
C13	C	0.162034	-0.777543	0.000121
C14	C	0.165113	-0.905928	0.000103
C15	C	-0.043880	-1.348740	0.000130
C16	C	-0.169894	-1.345726	0.000129
C17	C	-0.400606	-1.340183	0.000107
C18	C	-0.272221	-1.343262	0.000119
C19	C	0.371043	-1.334721	0.000109
C20	C	0.497057	-1.337736	0.000103
N21	N	0.163592	-1.341712	0.318949
C22	C	0.156572	-0.549192	0.000136
C23	C	0.159587	-0.675206	0.000131
C24	C	0.163594	-1.341720	0.430287
C25	C	0.163584	-1.341734	0.569964
N26	N	0.163570	-1.341751	0.681293
