data_functionalizedCrystal
_audit_creation_method	'MofGen! by Chris Wilmer'
_symmetry_space_group_name_H-M	'P1'
_symmetry_Int_Tables_number	1
_symmetry_cell_setting	triclinic
loop_
_symmetry_equiv_pos_as_xyz
  x,y,z
_cell_length_a	27.732048
_cell_length_b	27.732048
_cell_length_c	12.996460
_cell_angle_alpha	90.005247
_cell_angle_beta	90.000676
_cell_angle_gamma	82.642655
loop_
_atom_site_label
_atom_site_type_symbol
_atom_site_fract_x
_atom_site_fract_y
_atom_site_fract_z
O1	O	0.640929	0.057514	0.085445
O2	O	0.974262	0.390847	0.418779
O3	O	1.307595	0.724180	0.752112
O4	O	0.500135	0.066259	0.085478
O5	O	0.833469	0.399592	0.418811
O6	O	1.166802	0.732926	0.752145
O7	O	0.574905	-0.008510	0.085441
O8	O	0.908238	0.324823	0.418774
O9	O	1.241571	0.658156	0.752108
O10	O	0.566159	0.132283	0.085482
O11	O	0.899493	0.465616	0.418815
O12	O	1.232826	0.798950	0.752149
O13	O	0.574895	-0.008506	-0.085693
O14	O	0.908228	0.324827	0.247640
O15	O	1.241562	0.658161	0.580974
O16	O	0.500126	0.066264	-0.085656
O17	O	0.833459	0.399597	0.247677
O18	O	1.166792	0.732930	0.581011
O19	O	0.640919	0.057518	-0.085689
O20	O	0.974252	0.390851	0.247645
O21	O	1.307586	0.724185	0.580978
Cu22	Cu	0.570522	0.061891	-0.101298
Cu23	Cu	0.903855	0.395225	0.232035
Cu24	Cu	1.237188	0.728558	0.565369
Cu25	Cu	0.570533	0.061886	0.101087
Cu26	Cu	0.903866	0.395219	0.434421
Cu27	Cu	1.237200	0.728553	0.767754
O28	O	0.566150	0.132288	-0.085652
O29	O	0.899483	0.465621	0.247682
O30	O	1.232816	0.798954	0.581015
C31	C	0.482124	0.066078	-0.000085
C32	C	0.815457	0.399411	0.333248
C33	C	1.148790	0.732744	0.666582
C34	C	0.428469	0.065525	-0.000073
C35	C	0.761802	0.398858	0.333260
C36	C	1.095135	0.732192	0.666593
C37	C	0.089654	0.106229	-0.000106
C38	C	0.422987	0.439562	0.333227
C39	C	0.756320	0.772895	0.666561
C40	C	-0.112006	0.104178	-0.000116
C41	C	0.221327	0.437511	0.333217
C42	C	0.554661	0.770844	0.666551
O43	O	-0.143262	0.141398	-0.000150
O44	O	0.190072	0.474732	0.333184
O45	O	0.523405	0.808065	0.666517
N46	N	-0.131130	0.059843	-0.000127
N47	N	0.202204	0.393176	0.333206
N48	N	0.535537	0.726509	0.666540
C49	C	-0.099835	0.016017	-0.000143
C50	C	0.233498	0.349350	0.333191
C51	C	0.566832	0.682684	0.666524
O52	O	-0.120728	-0.021740	-0.000163
O53	O	0.212605	0.311593	0.333170
O54	O	0.545938	0.644927	0.666504
C55	C	0.101824	0.018068	-0.000140
C56	C	0.435157	0.351402	0.333193
C57	C	0.768490	0.684735	0.666527
C58	C	0.120944	0.062407	-0.000119
C59	C	0.454278	0.395740	0.333215
C60	C	0.787611	0.729073	0.666548
C61	C	0.108775	0.150563	-0.000086
C62	C	0.442108	0.483897	0.333248
C63	C	0.775442	0.817230	0.666581
C64	C	0.159187	0.151075	-0.000078
C65	C	0.492520	0.484409	0.333256
C66	C	0.825853	0.817742	0.666589
C67	C	0.190477	0.107253	-0.000090
C68	C	0.523811	0.440587	0.333243
C69	C	0.857144	0.773920	0.666577
C70	C	0.171356	0.062919	-0.000110
C71	C	0.504690	0.396252	0.333223
C72	C	0.838023	0.729585	0.666556
C73	C	0.133117	-0.025757	-0.000163
C74	C	0.466451	0.307577	0.333170
C75	C	0.799784	0.640910	0.666504
C76	C	0.183535	-0.025240	-0.000165
C77	C	0.516868	0.308094	0.333168
C78	C	0.850201	0.641427	0.666502
C79	C	0.202655	0.019098	-0.000143
C80	C	0.535989	0.352432	0.333190
C81	C	0.869322	0.685765	0.666523
C82	C	0.253059	0.019609	-0.000115
C83	C	0.586392	0.352942	0.333219
C84	C	0.919725	0.686276	0.666552
N85	N	0.272183	0.063944	-0.000104
N86	N	0.605516	0.397277	0.333230
N87	N	0.938849	0.730611	0.666563
C88	C	0.240892	0.107766	-0.000091
C89	C	0.574225	0.441100	0.333242
C90	C	0.907559	0.774433	0.666575
C91	C	-0.205709	0.014943	-0.000142
C92	C	0.127624	0.348276	0.333192
C93	C	0.460957	0.681610	0.666525
C94	C	-0.256124	0.014430	-0.000141
C95	C	0.077210	0.347763	0.333193
C96	C	0.410543	0.681097	0.666526
C97	C	-0.268291	0.102591	-0.000116
C98	C	0.065042	0.435924	0.333217
C99	C	0.398376	0.769258	0.666551
C100	C	-0.217876	0.103104	-0.000110
C101	C	0.115458	0.436437	0.333224
C102	C	0.448791	0.769770	0.666557
C103	C	-0.186585	0.059278	-0.000131
C104	C	0.146748	0.392612	0.333203
C105	C	0.480081	0.725945	0.666536
C106	C	0.346761	0.108839	-0.000073
C107	C	0.680094	0.442172	0.333260
C108	C	1.013428	0.775505	0.666593
C109	C	0.397178	0.109347	-0.000061
C110	C	0.730511	0.442681	0.333272
C111	C	1.063845	0.776014	0.666606
C112	C	0.409341	0.021186	-0.000091
C113	C	0.742674	0.354520	0.333242
C114	C	1.076008	0.687853	0.666575
C115	C	0.358929	0.020678	-0.000098
C116	C	0.692262	0.354011	0.333235
C117	C	1.025595	0.687344	0.666569
C118	C	0.327639	0.064508	-0.000093
C119	C	0.660973	0.397841	0.333241
C120	C	0.994306	0.731175	0.666574
O121	O	0.284343	-0.017592	-0.000093
O122	O	0.617676	0.315741	0.333241
O123	O	0.951009	0.649075	0.666574
O124	O	0.261794	0.145518	-0.000094
O125	O	0.595128	0.478851	0.333240
O126	O	0.928461	0.812184	0.666573
C127	C	0.039242	0.105716	-0.000114
C128	C	0.372575	0.439050	0.333219
C129	C	0.705908	0.772383	0.666552
C130	C	0.020120	0.061382	-0.000135
C131	C	0.353454	0.394715	0.333199
C132	C	0.686787	0.728049	0.666532
C133	C	0.051411	0.017560	-0.000147
C134	C	0.384744	0.350893	0.333186
C135	C	0.718078	0.684226	0.666520
C136	C	-0.030294	0.060869	-0.000133
C137	C	0.303039	0.394202	0.333200
C138	C	0.636373	0.727536	0.666533
C139	C	-0.061585	0.104691	-0.000121
C140	C	0.271749	0.438025	0.333212
C141	C	0.605082	0.771358	0.666546
C142	C	-0.042461	0.149026	-0.000110
C143	C	0.290872	0.482360	0.333223
C144	C	0.624206	0.815693	0.666557
C145	C	0.007951	0.149539	-0.000102
C146	C	0.341284	0.482872	0.333232
C147	C	0.674618	0.816205	0.666565
C148	C	0.032287	-0.026775	-0.000158
C149	C	0.365621	0.306558	0.333175
C150	C	0.698954	0.639891	0.666509
C151	C	-0.018125	-0.027284	-0.000165
C152	C	0.315208	0.306049	0.333168
C153	C	0.648541	0.639383	0.666502
C154	C	-0.049416	0.016538	-0.000153
C155	C	0.283917	0.349871	0.333181
C156	C	0.617251	0.683205	0.666514
C157	C	0.574716	-0.026515	-0.000129
C158	C	0.908050	0.306818	0.333205
C159	C	1.241383	0.640152	0.666538
C160	C	0.574164	-0.080170	-0.000137
C161	C	0.907497	0.253163	0.333196
C162	C	1.240830	0.586497	0.666530
C163	C	0.614867	-0.418985	-0.000094
C164	C	0.948201	-0.085652	0.333240
C165	C	1.281534	0.247682	0.666573
C166	C	0.612816	-0.620645	-0.000079
C167	C	0.946150	-0.287311	0.333254
C168	C	1.279483	0.046022	0.666588
O169	O	0.650037	-0.651900	-0.000042
O170	O	0.983370	-0.318567	0.333291
O171	O	1.316704	0.014766	0.666624
N172	N	0.568481	-0.639768	-0.000070
N173	N	0.901814	-0.306435	0.333264
N174	N	1.235148	0.026898	0.666597
C175	C	0.524656	-0.608474	-0.000057
C176	C	0.857989	-0.275140	0.333276
C177	C	1.191322	0.058193	0.666609
O178	O	0.486899	-0.629367	-0.000038
O179	O	0.820232	-0.296033	0.333295
O180	O	1.153565	0.037300	0.666628
C181	C	0.526707	-0.406815	-0.000065
C182	C	0.860040	-0.073482	0.333269
C183	C	1.193374	0.259852	0.666602
C184	C	0.571045	-0.387694	-0.000084
C185	C	0.904378	-0.054361	0.333249
C186	C	1.237712	0.278972	0.666582
C187	C	0.659202	-0.399864	-0.000112
C188	C	0.992535	-0.066530	0.333221
C189	C	1.325868	0.266803	0.666554
C190	C	0.659714	-0.349452	-0.000122
C191	C	0.993047	-0.016118	0.333212
C192	C	1.326381	0.317215	0.666545
C193	C	0.615892	-0.318161	-0.000112
C194	C	0.949225	0.015172	0.333221
C195	C	1.282559	0.348506	0.666554
C196	C	0.571557	-0.337282	-0.000094
C197	C	0.904891	-0.003949	0.333240
C198	C	1.238224	0.329384	0.666573
C199	C	0.482882	-0.375521	-0.000045
C200	C	0.816215	-0.042188	0.333288
C201	C	1.149549	0.291145	0.666622
C202	C	0.483399	-0.325104	-0.000044
C203	C	0.816732	0.008229	0.333289
C204	C	1.150066	0.341563	0.666623
C205	C	0.527737	-0.305983	-0.000064
C206	C	0.861070	0.027350	0.333269
C207	C	1.194404	0.360683	0.666603
C208	C	0.528247	-0.255580	-0.000094
C209	C	0.861581	0.077754	0.333240
C210	C	1.194914	0.411087	0.666573
N211	N	0.572583	-0.236456	-0.000103
N212	N	0.905916	0.096877	0.333230
N213	N	1.239249	0.430211	0.666564
C214	C	0.616405	-0.267747	-0.000112
C215	C	0.949738	0.065587	0.333221
C216	C	1.283072	0.398920	0.666554
C217	C	0.523582	-0.714348	-0.000055
C218	C	0.856915	-0.381014	0.333278
C219	C	1.190248	-0.047681	0.666611
C220	C	0.523069	-0.764762	-0.000055
C221	C	0.856402	-0.431429	0.333278
C222	C	1.189735	-0.098096	0.666611
C223	C	0.611230	-0.776930	-0.000075
C224	C	0.944563	-0.443596	0.333258
C225	C	1.277896	-0.110263	0.666592
C226	C	0.611742	-0.726514	-0.000082
C227	C	0.945075	-0.393181	0.333251
C228	C	1.278409	-0.059848	0.666584
C229	C	0.567917	-0.695224	-0.000065
C230	C	0.901250	-0.361891	0.333269
C231	C	1.234583	-0.028557	0.666602
C232	C	0.617477	-0.161878	-0.000133
C233	C	0.950811	0.171456	0.333201
C234	C	1.284144	0.504789	0.666534
C235	C	0.617986	-0.111461	-0.000146
C236	C	0.951319	0.221873	0.333187
C237	C	1.284652	0.555206	0.666520
C238	C	0.529825	-0.099298	-0.000121
C239	C	0.863158	0.234036	0.333212
C240	C	1.196492	0.567369	0.666545
C241	C	0.529316	-0.149710	-0.000113
C242	C	0.862650	0.183623	0.333220
C243	C	1.195983	0.516957	0.666554
C244	C	0.573147	-0.180999	-0.000115
C245	C	0.906480	0.152334	0.333218
C246	C	1.239813	0.485667	0.666551
O247	O	0.491047	-0.224296	-0.000119
O248	O	0.824380	0.109038	0.333215
O249	O	1.157713	0.442371	0.666548
O250	O	0.654156	-0.246844	-0.000108
O251	O	0.987490	0.086489	0.333225
O252	O	1.320823	0.419823	0.666558
C253	C	0.614355	-0.469397	-0.000084
C254	C	0.947688	-0.136064	0.333249
C255	C	1.281022	0.197270	0.666582
C256	C	0.570021	-0.488518	-0.000066
C257	C	0.903354	-0.155185	0.333268
C258	C	1.236687	0.178148	0.666601
C259	C	0.526198	-0.457228	-0.000056
C260	C	0.859532	-0.123894	0.333277
C261	C	1.192865	0.209439	0.666610
C262	C	0.569508	-0.538933	-0.000066
C263	C	0.902841	-0.205599	0.333268
C264	C	1.236174	0.127734	0.666601
C265	C	0.613330	-0.570223	-0.000075
C266	C	0.946663	-0.236890	0.333258
C267	C	1.279996	0.096443	0.666592
C268	C	0.657665	-0.551100	-0.000084
C269	C	0.990998	-0.217766	0.333249
C270	C	1.324332	0.115567	0.666582
C271	C	0.658177	-0.500688	-0.000094
C272	C	0.991511	-0.167354	0.333240
C273	C	1.324844	0.165979	0.666573
C274	C	0.481863	-0.476351	-0.000047
C275	C	0.815197	-0.143018	0.333286
C276	C	1.148530	0.190315	0.666620
C277	C	0.481355	-0.526764	-0.000039
C278	C	0.814688	-0.193430	0.333294
C279	C	1.148021	0.139903	0.666628
C280	C	0.525177	-0.558054	-0.000048
C281	C	0.858510	-0.224721	0.333285
C282	C	1.191843	0.108612	0.666618
C283	C	0.658931	0.057699	-0.000123
C284	C	0.992264	0.391033	0.333210
C285	C	1.325598	0.724366	0.666543
C286	C	0.712586	0.058252	-0.000128
C287	C	1.045919	0.391586	0.333205
C288	C	1.379252	0.724919	0.666538
C289	C	0.566338	0.150292	-0.000080
C290	C	0.899671	0.483626	0.333254
C291	C	1.233005	0.816959	0.666587
C292	C	0.566891	0.203947	-0.000065
C293	C	0.900224	0.537280	0.333269
C294	C	1.233557	0.870614	0.666602
N295	N	0.570517	0.061895	-0.243645
N296	N	0.903850	0.395228	0.089688
N297	N	1.237184	0.728561	0.423021
C298	C	0.570519	0.061896	-0.336751
C299	C	0.903853	0.395229	-0.003418
C300	C	1.237186	0.728562	0.329915
C301	C	0.570524	0.061892	-0.453556
C302	C	0.903857	0.395226	-0.120223
C303	C	1.237190	0.728559	0.213110
C304	C	0.570530	0.061887	-0.546655
C305	C	0.903863	0.395220	-0.213321
C306	C	1.237197	0.728554	0.120012
C307	C	0.570535	0.061884	-0.663467
C308	C	0.903868	0.395218	-0.330134
C309	C	1.237202	0.728551	0.003199
N310	N	0.570541	0.061879	0.243435
N311	N	0.903875	0.395212	0.576768
N312	N	1.237208	0.728546	0.910101
H313	H	0.117558	-0.061861	-0.000181
H314	H	0.450892	0.271472	0.333152
H315	H	0.784225	0.604805	0.666485
F316	F	0.476933	-0.681052	-0.000036
F317	F	0.810267	-0.347718	0.333297
F318	F	1.143600	-0.014385	0.666631
F319	F	-0.197531	0.150294	-0.000089
F320	F	0.135803	0.483627	0.333245
F321	F	0.469136	0.816960	0.666578
H322	H	0.647846	-0.710950	-0.000098
H323	H	0.981179	-0.377617	0.333236
H324	H	1.314513	-0.044283	0.666569
F325	F	-0.075772	0.195665	-0.000091
F326	F	0.257562	0.528999	0.333242
F327	F	0.590895	0.862332	0.666575
F328	F	0.216833	-0.071886	-0.000190
F329	F	0.550167	0.261447	0.333144
F330	F	0.883500	0.594781	0.666477
F331	F	0.705848	-0.433159	-0.000121
F332	F	1.039181	-0.099826	0.333212
F333	F	1.372514	0.233508	0.666545
H334	H	0.646911	-0.802415	-0.000083
H335	H	0.980245	-0.469082	0.333250
H336	H	1.313578	-0.135749	0.666584
H337	H	0.694282	-0.485125	-0.000109
H338	H	1.027615	-0.151791	0.333224
H339	H	1.360949	0.181542	0.666557
F340	F	0.435691	-0.395860	-0.000019
F341	F	0.769024	-0.062526	0.333314
F342	F	1.102357	0.270807	0.666647
H343	H	0.447710	-0.299629	-0.000028
H344	H	0.781043	0.033704	0.333305
H345	H	1.114377	0.367037	0.666639
H346	H	0.174750	0.187180	-0.000060
H347	H	0.508083	0.520513	0.333274
H348	H	0.841417	0.853847	0.666607
F349	F	-0.038469	-0.074478	-0.000175
F350	F	0.294865	0.258855	0.333158
F351	F	0.628198	0.592188	0.666492
F352	F	0.065583	-0.073420	-0.000173
F353	F	0.398917	0.259914	0.333160
F354	F	0.732250	0.593247	0.666493
H355	H	0.321291	0.144530	-0.000072
H356	H	0.654624	0.477863	0.333261
H357	H	0.987957	0.811196	0.666594
H358	H	0.486964	-0.780325	-0.000057
H359	H	0.820297	-0.446992	0.333276
H360	H	1.153631	-0.113659	0.666610
F361	F	0.338578	-0.026511	-0.000122
F362	F	0.671911	0.306822	0.333212
F363	F	1.005245	0.640155	0.666545
H364	H	0.083302	0.186251	-0.000079
H365	H	0.416636	0.519584	0.333254
H366	H	0.749969	0.852917	0.666587
H367	H	0.493213	-0.165279	-0.000126
H368	H	0.826546	0.168055	0.333208
H369	H	1.159879	0.501388	0.666541
F370	F	-0.276468	-0.032761	-0.000140
F371	F	0.056866	0.300573	0.333193
F372	F	0.390199	0.633906	0.666526
H373	H	0.695819	-0.333889	-0.000134
H374	H	1.029152	-0.000555	0.333200
H375	H	1.362485	0.332778	0.666533
H376	H	0.494146	-0.073812	-0.000117
H377	H	0.827480	0.259522	0.333216
H378	H	1.160813	0.592855	0.666549
F379	F	0.028294	0.196730	-0.000079
F380	F	0.361627	0.530063	0.333254
F381	F	0.694961	0.863396	0.666588
F382	F	-0.301601	0.149230	-0.000104
F383	F	0.031732	0.482563	0.333229
F384	F	0.365065	0.815897	0.666563
F385	F	-0.172413	-0.031705	-0.000163
F386	F	0.160920	0.301628	0.333170
F387	F	0.494254	0.634962	0.666504
H388	H	0.693347	-0.576585	-0.000096
H389	H	1.026680	-0.243252	0.333237
H390	H	1.360013	0.090081	0.666570
F391	F	0.434160	-0.547107	-0.000025
F392	F	0.767494	-0.213774	0.333309
F393	F	1.100827	0.119559	0.666642
H394	H	0.654093	-0.095896	-0.000165
H395	H	0.987426	0.237438	0.333168
H396	H	1.320759	0.570771	0.666502
H397	H	0.434827	-0.014492	-0.000097
H398	H	0.768160	0.318841	0.333236
H399	H	1.101494	0.652174	0.666569
F400	F	0.435219	-0.443055	-0.000034
F401	F	0.768552	-0.109722	0.333299
F402	F	1.101886	0.223611	0.666633
H403	H	0.412743	0.145454	-0.000043
H404	H	0.746076	0.478787	0.333290
H405	H	1.079410	0.812121	0.666624
F406	F	0.664126	-0.195171	-0.000135
F407	F	0.997460	0.138162	0.333198
F408	F	1.330793	0.471496	0.666532
