data_functionalizedCrystal
_audit_creation_method	'MofGen! by Chris Wilmer'
_symmetry_space_group_name_H-M	'P1'
_symmetry_Int_Tables_number	1
_symmetry_cell_setting	triclinic
loop_
_symmetry_equiv_pos_as_xyz
  x,y,z
_cell_length_a	14.519731
_cell_length_b	14.519731
_cell_length_c	12.996460
_cell_angle_alpha	89.992872
_cell_angle_beta	90.006690
_cell_angle_gamma	96.311147
loop_
_atom_site_label
_atom_site_type_symbol
_atom_site_fract_x
_atom_site_fract_y
_atom_site_fract_z
O1	O	-1.223866	0.120985	-0.085596
O2	O	-0.723866	0.620985	0.414404
O3	O	-0.955393	0.135201	-0.085592
O4	O	-0.455393	0.635201	0.414408
O5	O	-1.096737	-0.006143	-0.085585
O6	O	-0.596737	0.493857	0.414415
O7	O	-1.082521	0.262330	-0.085603
O8	O	-0.582521	0.762330	0.414397
O9	O	-1.096723	-0.006151	0.085549
O10	O	-0.596723	0.493849	0.585549
O11	O	-0.955378	0.135193	0.085542
O12	O	-0.455378	0.635193	0.585542
O13	O	-1.223851	0.120977	0.085538
O14	O	-0.723851	0.620977	0.585538
Cu15	Cu	-1.089613	0.128085	0.101166
Cu16	Cu	-0.589613	0.628085	0.601166
Cu17	Cu	-1.089631	0.128094	-0.101220
Cu18	Cu	-0.589631	0.628094	0.398780
O19	O	-1.082507	0.262322	0.085531
O20	O	-0.582507	0.762322	0.585531
C21	C	-0.921026	0.134531	-0.000025
C22	C	-0.421026	0.634531	0.499975
C23	C	-0.818645	0.132535	-0.000023
C24	C	-0.318645	0.632535	0.499977
C25	C	-1.096064	-0.040507	-0.000018
C26	C	-0.596064	0.459493	0.499982
C27	C	-1.094068	-0.142887	-0.000017
C28	C	-0.594068	0.357113	0.499983
C29	C	-0.735501	0.130913	-0.000026
C30	C	-0.235501	0.630913	0.499974
C31	C	-0.631192	0.128887	-0.000024
C32	C	-0.131192	0.628887	0.499976
C33	C	-0.548053	0.127278	-0.000022
C34	C	-0.048053	0.627278	0.499978
C35	C	-0.443738	0.125252	-0.000022
C36	C	0.056262	0.625252	0.499978
C37	C	-1.092446	-0.226031	-0.000019
C38	C	-0.592446	0.273969	0.499981
C39	C	-1.090419	-0.330340	-0.000027
C40	C	-0.590419	0.169660	0.499973
C41	C	-1.088811	-0.413479	-0.000034
C42	C	-0.588811	0.086521	0.499966
C43	C	-1.086785	-0.517795	-0.000040
C44	C	-0.586785	-0.017795	0.499960
C45	C	-0.258218	0.121648	-0.000027
C46	C	0.241782	0.621648	0.499973
C47	C	-0.360598	0.123644	-0.000020
C48	C	0.139402	0.623644	0.499980
C49	C	-1.083180	0.296685	-0.000039
C50	C	-0.583180	0.796685	0.499961
C51	C	-1.085176	0.399066	-0.000046
C52	C	-0.585176	0.899066	0.499954
N53	N	-1.089608	0.128078	0.243513
N54	N	-0.589608	0.628078	0.743513
N55	N	-1.089644	0.128094	-0.243567
N56	N	-0.589644	0.628094	0.256433
C57	C	-1.089629	0.128095	0.663327
C58	C	-0.589629	0.628095	1.163327
C59	C	-1.089621	0.128093	0.546522
C60	C	-0.589621	0.628093	1.046522
C61	C	-1.089619	0.128087	0.453424
C62	C	-0.589619	0.628087	0.953424
C63	C	-1.089609	0.128084	0.336611
C64	C	-0.589609	0.628084	0.836611
