data_functionalizedCrystal
_audit_creation_method	'MofGen! by Chris Wilmer'
_symmetry_space_group_name_H-M	'P1'
_symmetry_Int_Tables_number	1
_symmetry_cell_setting	triclinic
loop_
_symmetry_equiv_pos_as_xyz
  x,y,z
_cell_length_a	10.654550
_cell_length_b	6.394989
_cell_length_c	9.730223
_cell_angle_alpha	90.001437
_cell_angle_beta	89.999957
_cell_angle_gamma	94.508679
loop_
_atom_site_label
_atom_site_type_symbol
_atom_site_fract_x
_atom_site_fract_y
_atom_site_fract_z
O1	O	1.670947	-0.293441	-0.114177
O2	O	1.305765	-0.321399	-0.114202
O3	O	1.493539	-0.003431	-0.114190
O4	O	1.483172	-0.611409	-0.114189
O5	O	1.493527	-0.003422	0.114390
O6	O	1.305752	-0.321390	0.114378
O7	O	1.670934	-0.293433	0.114403
Zn8	Zn	1.488341	-0.307410	0.150682
Zn9	Zn	1.488358	-0.307421	-0.150482
O10	O	1.483160	-0.611400	0.114391
C11	C	1.258939	-0.319341	0.000085
C12	C	1.119430	-0.313200	0.000075
C13	C	1.041927	-0.500414	0.000080
C14	C	0.910845	-0.494631	0.000104
C15	C	0.934782	-0.114403	0.000113
C16	C	1.065861	-0.120188	0.000099
C17	C	1.717760	-0.295490	0.000113
C18	C	1.857269	-0.301631	0.000113
C19	C	1.491483	0.074425	0.000094
C20	C	1.485219	0.310750	0.000093
N21	N	1.488339	-0.307401	0.356219
N22	N	1.488369	-0.307414	-0.356018
C23	C	1.571516	-0.166665	0.428150
C24	C	1.571528	-0.166665	0.572033
C25	C	1.405184	-0.448157	0.572041
C26	C	1.405166	-0.448144	0.428161
H27	H	0.891149	0.042741	0.000141
F28	F	1.148351	0.079082	0.000104
F29	F	0.828366	-0.693891	0.000110
F30	F	1.660032	-0.016867	0.351589
F31	F	1.316673	-0.597945	0.648616
H32	H	1.639256	-0.052063	0.630595
H33	H	1.085539	-0.657577	0.000071
H34	H	1.337428	-0.562749	0.369590
