data_functionalizedCrystal
_audit_creation_method	'MofGen! by Chris Wilmer'
_symmetry_space_group_name_H-M	'P1'
_symmetry_Int_Tables_number	1
_symmetry_cell_setting	triclinic
loop_
_symmetry_equiv_pos_as_xyz
  x,y,z
_cell_length_a	19.188930
_cell_length_b	17.699083
_cell_length_c	16.176319
_cell_angle_alpha	90.007696
_cell_angle_beta	90.021299
_cell_angle_gamma	83.213897
loop_
_atom_site_label
_atom_site_type_symbol
_atom_site_fract_x
_atom_site_fract_y
_atom_site_fract_z
O1	O	-0.926253	-0.094493	-0.069014
O2	O	-0.426253	0.405507	0.430986
O3	O	-0.722956	-0.107214	-0.068957
O4	O	-0.222956	0.392786	0.431043
O5	O	-0.830349	0.009343	-0.068980
O6	O	-0.330349	0.509343	0.431020
O7	O	-0.818861	-0.211050	-0.068991
O8	O	-0.318861	0.288950	0.431009
O9	O	-0.830334	0.009351	0.068513
O10	O	-0.330334	0.509351	0.568513
O11	O	-0.722942	-0.107206	0.068536
O12	O	-0.222942	0.392794	0.568536
O13	O	-0.926239	-0.094486	0.068479
O14	O	-0.426239	0.405514	0.568479
Cu15	Cu	-0.824589	-0.100845	0.081062
Cu16	Cu	-0.324589	0.399155	0.581062
Cu17	Cu	-0.824606	-0.100854	-0.081540
Cu18	Cu	-0.324606	0.399146	0.418460
O19	O	-0.818847	-0.211043	0.068502
O20	O	-0.318847	0.288957	0.568502
C21	C	-0.829930	0.037543	-0.000233
C22	C	-0.329930	0.537543	0.499767
C23	C	-0.828695	0.121560	-0.000233
C24	C	-0.328695	0.621560	0.499767
C25	C	-0.696938	-0.106798	-0.000204
C26	C	-0.196938	0.393202	0.499796
C27	C	-0.619432	-0.105561	-0.000182
C28	C	-0.119432	0.394439	0.499818
C29	C	-0.952258	-0.094902	-0.000276
C30	C	-0.452258	0.405098	0.499724
C31	C	-1.029763	-0.096138	-0.000304
C32	C	-0.529763	0.403862	0.499696
C33	C	-0.574584	-0.173953	-0.000198
C34	C	-0.074584	0.326047	0.499802
C35	C	-0.501759	-0.172791	-0.000207
C36	C	-0.001759	0.327209	0.499793
C37	C	-0.473785	-0.103234	-0.000216
C38	C	0.026215	0.396766	0.499784
C39	C	-0.518642	-0.034833	-0.000195
C40	C	-0.018642	0.465167	0.499805
C41	C	-0.591465	-0.035997	-0.000178
C42	C	-0.091465	0.464003	0.499822
N43	N	-0.365750	-0.050069	-0.047042
N44	N	0.134250	0.449931	0.452958
N45	N	-0.296570	-0.048968	-0.047060
N46	N	0.203430	0.451032	0.452940
C47	C	-0.254372	-0.099724	-0.000267
C48	C	0.245628	0.400276	0.499733
N49	N	-0.283966	-0.151634	0.046535
N50	N	0.216034	0.348366	0.546535
N51	N	-0.353152	-0.152737	0.046550
N52	N	0.146848	0.347263	0.546550
C53	C	-0.394821	-0.101965	-0.000235
C54	C	0.105179	0.398035	0.499765
C55	C	-0.130559	-0.166861	-0.000292
C56	C	0.369441	0.333139	0.499708
C57	C	-0.057733	-0.165696	-0.000296
C58	C	0.442267	0.334304	0.499704
C59	C	-0.074617	-0.027736	-0.000292
C60	C	0.425383	0.472264	0.499708
C61	C	-0.147442	-0.028903	-0.000280
C62	C	0.352558	0.471097	0.499720
C63	C	-0.175408	-0.098467	-0.000284
C64	C	0.324592	0.401533	0.499716
C65	C	-0.819266	-0.239243	-0.000247
C66	C	-0.319266	0.260757	0.499753
C67	C	-0.820500	-0.323259	-0.000253
C68	C	-0.320500	0.176741	0.499747
N69	N	-0.824582	-0.100839	0.195427
N70	N	-0.324582	0.399161	0.695427
C71	C	-0.891732	0.170264	-0.000249
C72	C	-0.391732	0.670264	0.499751
C73	C	-0.890567	0.249206	-0.000256
C74	C	-0.390567	0.749206	0.499744
C75	C	-0.826365	0.279442	-0.000241
C76	C	-0.326365	0.779442	0.499759
C77	C	-0.763323	0.230732	-0.000227
C78	C	-0.263323	0.730732	0.499773
C79	C	-0.764489	0.151791	-0.000226
C80	C	-0.264489	0.651791	0.499774
C81	C	-0.758623	0.549089	-0.000232
C82	C	-0.258623	1.049089	0.499768
C83	C	-0.757463	0.628035	-0.000231
C84	C	-0.257463	1.128035	0.499769
C85	C	-0.884702	0.646503	-0.000262
C86	C	-0.384702	1.146503	0.499738
C87	C	-0.885867	0.567563	-0.000261
C88	C	-0.385867	1.067563	0.499739
C89	C	-0.822826	0.518859	-0.000252
C90	C	-0.322826	1.018859	0.499748
C91	C	-0.824089	0.433262	-0.000246
C92	C	-0.324089	0.933262	0.499754
C93	C	-0.825101	0.365038	-0.000241
C94	C	-0.325101	0.865038	0.499759
N95	N	-0.824619	-0.100855	-0.195905
N96	N	-0.324619	0.399145	0.304095
C97	C	-0.872149	-0.049248	0.238681
C98	C	-0.372149	0.450752	0.738681
C99	C	-0.872153	-0.049248	0.325228
C100	C	-0.372153	0.450752	0.825228
C101	C	-0.824592	-0.100841	0.368520
C102	C	-0.324592	0.399159	0.868520
C103	C	-0.777019	-0.152434	0.325259
C104	C	-0.277019	0.347566	0.825259
C105	C	-0.777013	-0.152431	0.238714
C106	C	-0.277013	0.347569	0.738714
C107	C	-0.777043	-0.152448	0.674288
C108	C	-0.277043	0.347552	1.174288
C109	C	-0.777054	-0.152449	0.760839
C110	C	-0.277054	0.347551	1.260839
C111	C	-0.872183	-0.049265	0.760802
C112	C	-0.372183	0.450735	1.260802
C113	C	-0.872177	-0.049262	0.674256
C114	C	-0.372177	0.450738	1.174256
C115	C	-0.824602	-0.100852	0.631004
C116	C	-0.324602	0.399148	1.131004
C117	C	-0.824598	-0.100851	0.537160
C118	C	-0.324598	0.399149	1.037160
C119	C	-0.824599	-0.100846	0.462362
C120	C	-0.324599	0.399154	0.962362
H121	H	-0.597349	-0.230598	-0.000203
H122	H	-0.097349	0.269402	0.499797
H123	H	-0.910882	-0.007238	0.203439
H124	H	-0.410882	0.492762	0.703439
Br125	Br	-0.673067	0.483001	-0.000224
Br126	Br	-0.173067	0.983001	0.499776
H127	H	-0.936033	0.686167	-0.000274
H128	H	-0.436033	1.186167	0.499726
H129	H	-0.944012	0.145652	-0.000256
H130	H	-0.444012	0.645652	0.499744
Br131	Br	-0.036660	0.066665	-0.000291
Br132	Br	0.463340	0.566665	0.499709
H133	H	-0.738322	-0.194465	0.796085
H134	H	-0.238322	0.305535	1.296085
Br135	Br	-0.973001	0.526532	-0.000283
Br136	Br	-0.473001	1.026532	0.499717
Br137	Br	-0.678935	0.085692	-0.000210
Br138	Br	-0.178935	0.585692	0.499790
Br139	Br	-0.936707	0.020771	0.383933
Br140	Br	-0.436707	0.520771	0.883933
Br141	Br	-0.712481	-0.222462	0.615592
Br142	Br	-0.212481	0.277538	1.115592
H143	H	-0.465238	-0.228486	-0.000218
H144	H	0.034762	0.271514	0.499782
Br145	Br	-0.480679	0.059567	-0.000199
Br146	Br	0.019321	0.559567	0.499801
H147	H	-0.021218	-0.221391	-0.000305
H148	H	0.478782	0.278609	0.499695
Br149	Br	-0.976121	0.315302	-0.000278
Br150	Br	-0.476121	0.815302	0.499722
Br151	Br	-0.712465	-0.222451	0.384008
Br152	Br	-0.212465	0.277549	0.884008
Br153	Br	-0.712449	-0.222445	0.180011
Br154	Br	-0.212449	0.277555	0.680011
Br155	Br	-0.168518	-0.261267	-0.000291
Br156	Br	0.331482	0.238733	0.499709
Br157	Br	-0.208310	0.063920	-0.000260
Br158	Br	0.291690	0.563920	0.499740
Br159	Br	-0.670325	0.669069	-0.000209
Br160	Br	-0.170325	1.169069	0.499791
H161	H	-0.711049	0.255356	-0.000219
H162	H	-0.211049	0.755356	0.499781
Br163	Br	-0.936729	0.020756	0.615506
Br164	Br	-0.436729	0.520756	1.115506
H165	H	-0.627981	0.019698	-0.000165
H166	H	-0.127981	0.519698	0.499835
Br167	Br	-0.936749	0.020753	0.819506
Br168	Br	-0.436749	0.520753	1.319506
