data_functionalizedCrystal
_audit_creation_method	'MofGen! by Chris Wilmer'
_symmetry_space_group_name_H-M	'P1'
_symmetry_Int_Tables_number	1
_symmetry_cell_setting	triclinic
loop_
_symmetry_equiv_pos_as_xyz
  x,y,z
_cell_length_a	10.967926
_cell_length_b	10.967971
_cell_length_c	9.482900
_cell_angle_alpha	111.340423
_cell_angle_beta	92.549900
_cell_angle_gamma	82.166319
loop_
_atom_site_label
_atom_site_type_symbol
_atom_site_fract_x
_atom_site_fract_y
_atom_site_fract_z
O1	O	1.603209	0.229200	0.338187
O2	O	1.253909	0.232047	0.251386
O3	O	1.443860	0.042098	0.251395
O4	O	1.413258	0.419149	0.338179
O5	O	1.405272	0.080844	0.493225
O6	O	1.215320	0.270793	0.493216
O7	O	1.564621	0.267946	0.580017
Cu8	Cu	1.386447	0.272907	0.558698
Cu9	Cu	1.432082	0.227086	0.272706
O10	O	1.374669	0.457895	0.580009
C11	C	1.425255	0.013056	0.360351
C12	C	1.427294	-0.131205	0.324716
C13	C	1.190023	0.248285	0.360344
C14	C	1.057155	0.238929	0.324711
C15	C	1.408214	-0.175457	0.434102
C16	C	1.410321	-0.324558	0.397273
C17	C	0.977929	0.254829	0.434100
C18	C	0.840602	0.245159	0.397275
C19	C	1.628507	0.251707	0.471056
C20	C	1.761376	0.261062	0.506679
C21	C	1.393275	0.486936	0.471049
C22	C	1.391237	0.631196	0.506675
N23	N	1.354359	0.305134	0.759851
N24	N	1.464181	0.194848	0.071552
C25	C	1.422610	0.236584	0.831979
C26	C	1.395920	0.263409	0.999429
H27	H	1.428223	-0.397054	0.276352
N28	N	1.012353	0.211400	0.164537
H29	H	0.920603	0.208390	0.160934
H30	H	1.031139	0.283647	0.129746
N31	N	1.451041	-0.227231	0.164556
H32	H	1.463501	-0.177217	0.096620
H33	H	1.527265	-0.291089	0.162034
N34	N	1.526157	0.132502	0.749568
H35	H	1.530534	0.128079	0.641622
H36	H	1.606534	0.155832	0.802038
N37	N	1.022734	0.282339	0.594271
H38	H	1.114484	0.285348	0.597874
H39	H	0.979619	0.369982	0.663010
N40	N	1.292337	0.367456	1.081826
H41	H	1.307740	0.456057	1.081467
H42	H	1.211966	0.344036	1.029395
N43	N	1.567762	0.090799	0.989153
H44	H	1.648183	0.114099	1.041530
H45	H	1.552245	0.002243	0.989530
H46	H	1.276163	0.383677	0.822065
H47	H	1.373346	-0.296311	0.627600
N48	N	1.384520	-0.079430	0.594270
H49	H	1.308289	-0.015520	0.596979
H50	H	1.372137	-0.129538	0.662124
N51	N	0.795806	0.217629	0.237092
H52	H	0.704056	0.214619	0.233489
H53	H	0.814592	0.289876	0.202301
N54	N	0.806174	0.288565	0.666857
H55	H	0.897925	0.291572	0.670463
H56	H	0.763060	0.376206	0.735602
