data_functionalizedCrystal
_audit_creation_method	'MofGen! by Chris Wilmer'
_symmetry_space_group_name_H-M	'P1'
_symmetry_Int_Tables_number	1
_symmetry_cell_setting	triclinic
loop_
_symmetry_equiv_pos_as_xyz
  x,y,z
_cell_length_a	16.992694
_cell_length_b	23.532407
_cell_length_c	16.053802
_cell_angle_alpha	92.544672
_cell_angle_beta	87.249047
_cell_angle_gamma	86.758451
loop_
_atom_site_label
_atom_site_type_symbol
_atom_site_fract_x
_atom_site_fract_y
_atom_site_fract_z
O1	O	1.042772	0.118472	-0.069339
O2	O	0.814498	0.117146	-0.069363
O3	O	0.935518	0.035219	-0.069335
O4	O	0.921752	0.200399	-0.069367
O5	O	0.928857	0.039709	0.069523
O6	O	0.807837	0.121636	0.069494
O7	O	1.036111	0.122961	0.069519
Zn8	Zn	0.920917	0.123011	0.091553
Zn9	Zn	0.929693	0.117096	-0.091397
O10	O	0.915091	0.204888	0.069490
C11	C	0.781969	0.117687	0.000063
C12	C	0.694964	0.112604	0.000054
C13	C	0.931837	0.016231	0.000096
C14	C	0.930783	-0.047038	0.000102
C15	C	0.644342	0.161650	0.000045
C16	C	0.562592	0.156871	0.000058
C17	C	0.531466	0.103045	0.000073
C18	C	0.582095	0.053995	0.000084
C19	C	0.663843	0.058775	0.000078
C20	C	0.288022	0.083234	0.000099
C21	C	0.206267	0.078457	0.000103
C22	C	0.186770	0.181334	0.000078
C23	C	0.268521	0.186109	0.000066
C24	C	0.319142	0.137059	0.000082
N25	N	0.447905	0.098158	0.000083
N26	N	0.402702	0.141946	0.000078
C27	C	0.995791	-0.442917	0.000063
C28	C	0.994812	-0.502366	0.000057
O29	O	1.055075	-0.536121	0.000033
N30	N	0.922865	-0.528562	0.000050
C31	C	0.851893	-0.495307	0.000041
O32	O	0.790607	-0.523048	0.000033
C33	C	0.852873	-0.435859	0.000041
C34	C	0.924824	-0.409666	0.000057
C35	C	1.067736	-0.416723	0.000078
C36	C	1.068715	-0.357278	0.000086
C37	C	0.997748	-0.324027	0.000079
C38	C	0.925803	-0.350221	0.000065
C39	C	0.781902	-0.402605	0.000026
C40	C	0.782889	-0.343154	0.000026
C41	C	0.854840	-0.316960	0.000042
C42	C	0.855814	-0.257525	0.000066
N43	N	0.927761	-0.231328	0.000073
C44	C	0.998728	-0.264579	0.000080
C45	C	0.849841	-0.620151	0.000038
C46	C	0.848860	-0.679598	0.000044
C47	C	0.991779	-0.686653	0.000058
C48	C	0.992759	-0.627205	0.000059
C49	C	0.921788	-0.593955	0.000045
C50	C	1.000777	-0.139740	0.000097
C51	C	1.001749	-0.080289	0.000109
C52	C	0.858831	-0.073240	0.000090
C53	C	0.857858	-0.132685	0.000083
C54	C	0.928838	-0.165934	0.000084
O55	O	0.795583	-0.223734	0.000087
O56	O	1.060004	-0.236831	0.000076
C57	C	1.068641	0.122420	0.000091
C58	C	1.155645	0.127503	0.000094
C59	C	0.918773	0.223877	0.000058
C60	C	0.919827	0.287146	0.000046
N61	N	0.914933	0.127048	0.216412
N62	N	0.935683	0.113055	-0.216256
C63	C	0.966445	0.092202	0.260118
C64	C	0.962267	0.095032	0.347524
C65	C	0.906579	0.132711	0.391222
C66	C	0.855061	0.167558	0.347510
C67	C	0.859236	0.164725	0.260106
C68	C	0.888340	0.145069	0.652627
C69	C	0.884170	0.147901	0.740038
C70	C	0.991376	0.075374	0.740045
C71	C	0.995550	0.072546	0.652640
C72	C	0.944029	0.107392	0.608935
N73	N	0.902308	0.135606	0.480565
N74	N	0.948296	0.104494	0.519594
H75	H	0.521379	0.196809	0.000049
H76	H	0.145546	0.221267	0.000067
C77	C	1.047267	0.037441	0.787393
C78	C	1.036017	-0.019773	0.766135
C79	C	1.087494	-0.054737	0.809727
H80	H	1.036859	0.044446	0.845718
H81	H	1.100231	0.045524	0.773044
H82	H	0.983064	-0.027853	0.780489
H83	H	1.046430	-0.026796	0.707817
H84	H	1.140459	-0.046654	0.795378
H85	H	1.077082	-0.047727	0.868050
H86	H	1.079873	-0.093560	0.795304
H87	H	0.792043	-0.593082	0.000034
H88	H	0.329228	0.043294	0.000113
C89	C	0.548454	-0.004495	0.000140
C90	C	0.610286	-0.046424	0.000168
C91	C	0.579329	-0.100313	0.000226
H92	H	0.519299	-0.010144	-0.048268
H93	H	0.514674	-0.006963	0.048583
H94	H	0.644053	-0.043959	-0.048270
H95	H	0.639447	-0.040795	0.048573
H96	H	0.545548	-0.102780	0.048670
H97	H	0.550174	-0.105956	-0.048183
H98	H	0.621276	-0.128768	0.000253
H99	H	0.817288	0.193100	0.224521
C100	C	0.832544	0.182941	0.605083
C101	C	0.876422	0.218073	0.554873
C102	C	0.825050	0.252968	0.511054
H103	H	0.798770	0.205839	0.643537
H104	H	0.801712	0.159879	0.570948
H105	H	0.907241	0.241132	0.589005
H106	H	0.910193	0.195191	0.516404
H107	H	0.794218	0.229906	0.476919
H108	H	0.791279	0.275861	0.549514
H109	H	0.854814	0.276805	0.476976
C110	C	0.677978	0.220144	0.000070
C111	C	0.616143	0.262073	0.000088
C112	C	0.647094	0.315965	0.000125
H113	H	0.711765	0.222663	-0.048342
H114	H	0.707123	0.225743	0.048509
H115	H	0.587010	0.256476	-0.048346
H116	H	0.582351	0.259572	0.048497
H117	H	0.676239	0.321565	0.048565
H118	H	0.680880	0.318479	-0.048288
H119	H	0.605143	0.344421	0.000146
H120	H	0.723313	-0.423922	0.000008
H121	H	1.127305	-0.335957	0.000095
H122	H	0.705059	0.018836	0.000085
H123	H	0.725094	-0.316084	0.000014
H124	H	0.838820	0.178586	0.775613
C125	C	1.079955	-0.051960	0.000079
C126	C	1.141893	-0.093809	0.000058
C127	C	1.213944	-0.067737	0.000017
H128	H	1.081101	-0.027361	0.048491
H129	H	1.085674	-0.030490	-0.048360
H130	H	1.136175	-0.115270	0.048492
H131	H	1.140773	-0.118411	-0.048351
H132	H	1.219664	-0.046267	-0.048422
H133	H	1.215082	-0.043138	0.048430
H134	H	1.255978	-0.096127	-0.000005
H135	H	0.180928	0.034624	0.000115
H136	H	0.801051	-0.046156	0.000087
H137	H	1.011796	0.061523	0.224545
C138	C	0.779806	-0.161209	-0.000057
C139	C	0.778506	-0.197439	-0.071494
C140	C	0.706622	-0.223727	-0.071654
H141	H	0.737614	-0.132955	-0.000099
H142	H	0.774124	-0.182731	0.048334
H143	H	0.784179	-0.175918	-0.119873
H144	H	0.820681	-0.225704	-0.071467
H145	H	0.700940	-0.245249	-0.023263
H146	H	0.664436	-0.195468	-0.071694
H147	H	0.705733	-0.248315	-0.120119
C148	C	1.070960	-0.598878	0.000023
C149	C	1.132895	-0.640729	0.000010
C150	C	1.204949	-0.614660	-0.000038
H151	H	1.072109	-0.574274	0.048431
H152	H	1.076682	-0.577413	-0.048421
H153	H	1.127176	-0.662184	0.048449
H154	H	1.131773	-0.665335	-0.048394
H155	H	1.210670	-0.593195	-0.048482
H156	H	1.206090	-0.590057	0.048370
H157	H	1.246981	-0.643052	-0.000055
C158	C	0.302351	0.244533	-0.000146
C159	C	0.352100	0.247965	-0.071613
C160	C	0.383264	0.301782	-0.071859
H161	H	0.331584	0.250178	0.048208
H162	H	0.260508	0.273068	-0.000203
H163	H	0.393937	0.219439	-0.071549
H164	H	0.322886	0.242331	-0.119978
H165	H	0.341420	0.330317	-0.071915
H166	H	0.412492	0.307422	-0.023502
H167	H	0.417015	0.304120	-0.120352
H168	H	0.809714	0.198235	0.383094
H169	H	1.125529	-0.443790	0.000080
C170	C	1.077824	-0.175867	-0.000068
C171	C	1.084887	-0.212494	-0.071520
C172	C	1.155856	-0.245776	-0.071701
H173	H	1.078171	-0.197697	0.048296
H174	H	1.120831	-0.151767	-0.000102
H175	H	1.041891	-0.236592	-0.071478
H176	H	1.084555	-0.190679	-0.119896
H177	H	1.198863	-0.221676	-0.071734
H178	H	1.156196	-0.267602	-0.023333
H179	H	1.160661	-0.270627	-0.120183
C180	C	1.018230	0.057299	0.395088
C181	C	1.063551	0.091460	0.445267
C182	C	1.115106	0.056720	0.489105
H183	H	1.052071	0.034445	0.356645
H184	H	0.988612	0.033420	0.429245
H185	H	1.093167	0.115330	0.411113
H186	H	1.029731	0.114314	0.483725
H187	H	1.085489	0.032841	0.523262
H188	H	1.148942	0.033867	0.450656
H189	H	1.145858	0.079893	0.523162
H190	H	1.049564	-0.713737	0.000061
H191	H	0.790270	-0.700919	0.000046
H192	H	1.040895	0.041865	0.617062
