data_functionalizedCrystal
_audit_creation_method	'MofGen! by Chris Wilmer'
_symmetry_space_group_name_H-M	'P1'
_symmetry_Int_Tables_number	1
_symmetry_cell_setting	triclinic
loop_
_symmetry_equiv_pos_as_xyz
  x,y,z
_cell_length_a	13.635800
_cell_length_b	11.353959
_cell_length_c	19.551833
_cell_angle_alpha	73.966100
_cell_angle_beta	78.336523
_cell_angle_gamma	107.526623
loop_
_atom_site_label
_atom_site_type_symbol
_atom_site_fract_x
_atom_site_fract_y
_atom_site_fract_z
V1	V	-2.022474	-0.182415	0.240051
O2	O	-1.996344	0.007354	0.212816
O3	O	-2.017131	-0.360340	0.260208
O4	O	-1.993590	-0.180228	0.334800
O5	O	-2.020048	-0.174005	0.137707
V6	V	-2.262452	-0.159643	0.225162
O7	O	-2.157017	-0.232366	0.272712
O8	O	-2.353008	-0.109691	0.192501
O9	O	-2.156192	0.018282	0.205005
O10	O	-2.347281	-0.349412	0.252397
O11	O	-2.323577	-0.168053	0.327505
O12	O	-2.179733	-0.161830	0.130412
V13	V	-1.522474	-0.182415	0.240051
O14	O	-1.496344	0.007354	0.212816
O15	O	-1.517131	-0.360340	0.260208
O16	O	-1.493590	-0.180228	0.334800
O17	O	-1.520048	-0.174005	0.137707
V18	V	-1.762452	-0.159643	0.225162
O19	O	-1.657017	-0.232366	0.272712
O20	O	-1.853008	-0.109691	0.192501
O21	O	-1.656192	0.018282	0.205005
O22	O	-1.847281	-0.349412	0.252397
O23	O	-1.823577	-0.168053	0.327505
O24	O	-1.679733	-0.161830	0.130412
C25	C	-1.944371	-0.403695	0.262046
C26	C	-1.980614	-0.549156	0.279158
C27	C	-1.978579	-0.595866	0.223770
C28	C	-2.016038	-0.746206	0.241454
C29	C	-1.914341	-0.173943	0.357195
C30	C	-1.931491	-0.173332	0.434796
C31	C	-2.060624	0.061631	0.203166
C32	C	-2.014000	0.207090	0.186059
C33	C	-2.090654	-0.168119	0.108015
C34	C	-2.063123	-0.168723	0.030412
C35	C	-1.444371	-0.403695	0.262046
C36	C	-1.480614	-0.549156	0.279158
C37	C	-1.414341	-0.173943	0.357195
C38	C	-1.431491	-0.173332	0.434796
C39	C	-2.031131	-0.179614	0.475608
C40	C	-2.047246	-0.179040	0.548522
C41	C	-1.963721	-0.172212	0.580628
C42	C	-1.864065	-0.165922	0.539805
C43	C	-1.847950	-0.166482	0.466889
C44	C	-1.939861	-0.243360	0.708596
C45	C	-1.955982	-0.242808	0.781512
C46	C	-2.013421	-0.170477	0.805524
C47	C	-2.054759	-0.098717	0.756614
C48	C	-2.038644	-0.099277	0.683698
C49	C	-1.981185	-0.171603	0.659692
C50	C	-2.130541	-0.176136	0.925398
C51	C	-2.146649	-0.175554	0.998312
C52	C	-1.963470	-0.162449	0.989596
C53	C	-1.947360	-0.163017	0.916681
C54	C	-2.030901	-0.169867	0.884587
C55	C	-1.560624	0.061631	0.203166
C56	C	-1.514000	0.207090	0.186059
C57	C	-1.590654	-0.168119	0.108015
C58	C	-1.563123	-0.168723	0.030412
C59	C	-1.589245	-0.624159	0.291499
C60	C	-1.623317	-0.760839	0.307589
C61	C	-1.548755	-0.822510	0.311332
C62	C	-1.440115	-0.747497	0.298991
C63	C	-1.406046	-0.610822	0.282907
C64	C	-1.531135	-0.179592	0.475596
C65	C	-1.547258	-0.179001	0.548508
C66	C	-1.463740	-0.172160	0.580620
C67	C	-1.364087	-0.165896	0.539813
C68	C	-1.347962	-0.166477	0.466901
C69	C	-1.577862	0.282092	0.173719
C70	C	-1.534062	0.418771	0.157633
C71	C	-1.426402	0.480442	0.153892
C72	C	-1.362535	0.405430	0.166230
C73	C	-1.406333	0.268756	0.182311
C74	C	-1.464409	-0.175549	-0.001684
C75	C	-1.438521	-0.176101	-0.074602
C76	C	-1.511351	-0.169836	-0.115422
C77	C	-1.610072	-0.163005	-0.083323
C78	C	-1.635956	-0.162444	-0.010407
H79	H	-1.949110	-0.524555	0.163258
Cl80	Cl	-1.326033	0.174481	0.197825
H81	H	-1.317586	-0.549762	0.272855
H82	H	-1.576510	-0.933801	0.324429
Cl83	Cl	-1.636146	-0.188191	0.435243
H84	H	-1.866227	-0.157916	0.883454
H85	H	-1.669363	-0.157900	-0.116570
Cl86	Cl	-2.026127	-0.659245	0.372588
H87	H	-1.716342	-0.156893	0.015720
Cl88	Cl	-1.713211	0.204593	0.178417
H89	H	-1.893075	-0.302252	0.689051
H90	H	-1.379414	-0.797731	0.302041
H91	H	-1.266820	-0.161383	0.433687
H92	H	-2.045516	-0.817514	0.301971
Cl93	Cl	-1.672545	-0.186888	0.599795
H94	H	-1.586082	0.479827	0.147589
Cl95	Cl	-1.259107	-0.157315	0.580197
Cl96	Cl	-1.968472	-0.682827	0.092623
H97	H	-1.895459	-0.156877	1.015733
Cl98	Cl	-1.683005	-0.546662	0.286805
Cl99	Cl	-1.371357	0.652265	0.133675
H100	H	-2.099157	-0.185186	0.449481
Cl101	Cl	-1.227189	0.482981	0.161521
H102	H	-2.128389	-0.184163	0.581759
H103	H	-1.405093	-0.180651	0.031543
H104	H	-2.072301	-0.040845	0.643878
Cl105	Cl	-2.126979	-0.007789	0.786792
Cl106	Cl	-1.478797	-0.170549	-0.207087
Cl107	Cl	-1.484031	-0.171437	0.672284
Cl108	Cl	-1.314415	-0.184700	-0.114938
H109	H	-2.198563	-0.181709	0.899265
Cl110	Cl	-2.271922	-0.183449	1.049619
H111	H	-1.711780	-0.821896	0.317633
H112	H	-1.922328	-0.301248	0.821332
Cl113	Cl	-1.722679	-0.158592	0.415582
Cl114	Cl	-1.759062	-0.157333	0.580165
