data_functionalizedCrystal
_audit_creation_method	'MofGen! by Chris Wilmer'
_symmetry_space_group_name_H-M	'P1'
_symmetry_Int_Tables_number	1
_symmetry_cell_setting	triclinic
loop_
_symmetry_equiv_pos_as_xyz
  x,y,z
_cell_length_a	19.121241
_cell_length_b	29.839131
_cell_length_c	19.120904
_cell_angle_alpha	87.590850
_cell_angle_beta	90.124528
_cell_angle_gamma	92.475545
loop_
_atom_site_label
_atom_site_type_symbol
_atom_site_fract_x
_atom_site_fract_y
_atom_site_fract_z
Zn1	Zn	1.054797	-0.162207	0.442177
Zn2	Zn	1.059685	-0.234002	0.324933
Zn3	Zn	0.942563	-0.161940	0.319947
Zn4	Zn	0.937491	-0.240367	0.437119
O5	O	0.998634	-0.199629	0.381044
O6	O	1.153554	-0.169178	0.430828
O7	O	1.048317	-0.221668	0.226167
O8	O	0.957529	-0.099107	0.336191
O9	O	1.157145	-0.221926	0.344689
O10	O	1.039986	-0.099303	0.425993
O11	O	0.962268	-0.168724	0.222504
O12	O	0.843782	-0.174895	0.331286
O13	O	0.948883	-0.232774	0.535894
O14	O	0.840055	-0.232515	0.417372
O15	O	1.035067	-0.175350	0.539610
O16	O	1.043398	-0.297715	0.339784
O17	O	0.953623	-0.302391	0.422207
C18	C	0.816480	-0.204367	0.373240
C19	C	0.738553	-0.206406	0.369918
C20	C	0.700071	-0.179948	0.413273
C21	C	0.626850	-0.181861	0.410146
C22	C	0.592113	-0.210235	0.363666
C23	C	0.630601	-0.236693	0.320305
C24	C	0.703820	-0.234778	0.323430
C25	C	0.371132	-0.217388	0.351982
C26	C	0.297908	-0.219303	0.348862
C27	C	0.294162	-0.164470	0.438702
C28	C	0.367383	-0.162559	0.441825
C29	C	0.405864	-0.189016	0.398462
C30	C	0.517270	-0.212192	0.360470
C31	C	0.480706	-0.187056	0.401656
C32	C	0.998509	-0.316354	0.381004
C33	C	0.998518	-0.366288	0.381013
C34	C	1.045459	-0.673481	0.338195
C35	C	1.045544	-0.861153	0.338226
O36	O	1.085355	-0.883337	0.301791
N37	N	0.998777	-0.887069	0.381103
C38	C	0.951988	-0.866063	0.423978
O39	O	0.912217	-0.892412	0.460454
C40	C	0.951907	-0.678393	0.423951
C41	C	0.998672	-0.652479	0.381066
C42	C	1.092221	-0.647568	0.295315
C43	C	1.092196	-0.600653	0.295305
C44	C	1.045410	-0.579651	0.338175
C45	C	0.998648	-0.605564	0.381056
C46	C	0.905122	-0.657389	0.466829
C47	C	0.905107	-0.610468	0.466820
C48	C	0.951873	-0.584554	0.423935
C49	C	0.951837	-0.537647	0.423916
N50	N	0.998604	-0.511732	0.381040
C51	C	1.045391	-0.532734	0.338169
C52	C	0.952034	-0.964593	0.423989
C53	C	0.952053	-1.011511	0.423995
C54	C	1.045610	-1.006597	0.338244
C55	C	1.045586	-0.959679	0.338234
C56	C	0.998801	-0.938678	0.381112
C57	C	1.045335	-0.434209	0.338151
C58	C	1.045305	-0.387290	0.338142
C59	C	0.951751	-0.392208	0.423896
C60	C	0.951779	-0.439123	0.423902
C61	C	0.998577	-0.460122	0.381027
O62	O	0.912052	-0.515434	0.460339
O63	O	1.085167	-0.506377	0.301711
C64	C	1.045483	-0.720396	0.338206
C65	C	0.998721	-0.746310	0.381086
C66	C	0.951935	-0.725308	0.423957
C67	C	0.998741	-0.793227	0.381092
C68	C	1.045527	-0.814229	0.338222
C69	C	1.092294	-0.788313	0.295345
C70	C	1.092270	-0.741398	0.295335
C71	C	0.905168	-0.751223	0.466833
C72	C	0.905195	-0.798138	0.466839
C73	C	0.951982	-0.819140	0.423969
C74	C	1.181499	-0.194872	0.388879
C75	C	1.259425	-0.192845	0.392218
C76	C	0.990864	-0.204801	0.563901
C77	C	0.987553	-0.207006	0.641823
C78	C	0.998778	-0.082448	0.381100
C79	C	0.998839	-0.032513	0.381124
C80	C	1.006414	-0.194443	0.198900
C81	C	1.009861	-0.192108	0.120984
C82	C	1.030867	-0.178145	0.680367
C83	C	1.027747	-0.180215	0.753584
C84	C	0.981317	-0.211148	0.788254
C85	C	0.937999	-0.240009	0.749705
C86	C	0.941115	-0.237937	0.676490
C87	C	0.969659	-0.218898	1.009219
C88	C	0.966547	-0.220969	1.082440
C89	C	1.056295	-0.161174	1.086313
C90	C	1.059411	-0.159106	1.013097
C91	C	1.016090	-0.187966	0.974554
C92	C	0.978129	-0.213265	0.863093
C93	C	1.019275	-0.185846	0.899716
H94	H	0.735152	-0.256322	0.288124
H95	H	1.083387	-0.366192	0.303218
H96	H	0.402455	-0.238932	0.316673
H97	H	1.083705	-1.023704	0.303337
H98	H	0.602312	-0.259793	0.282457
H99	H	0.269627	-0.242410	0.311012
H100	H	1.063020	-0.156715	0.784963
H101	H	0.488979	-0.235293	0.322625
H102	H	0.867069	-0.734127	0.501745
H103	H	0.913966	-1.032606	0.458909
H104	H	1.068678	-0.152958	0.652144
H105	H	0.913701	-0.460223	0.458824
H106	H	0.867009	-0.593371	0.501738
H107	H	0.913656	-0.375101	0.458798
H108	H	1.097221	-0.133918	0.984873
H109	H	0.508992	-0.163952	0.439497
H110	H	0.940328	-0.238452	0.891331
H111	H	0.395660	-0.139456	0.479677
H112	H	1.083444	-0.451301	0.303240
H113	H	1.057075	-0.160659	0.871484
H114	H	1.130387	-0.805421	0.260436
H115	H	0.728348	-0.156845	0.451124
H116	H	1.130279	-0.579557	0.260387
H117	H	0.928736	-0.246159	1.110666
H118	H	1.130324	-0.664663	0.260404
H119	H	1.091564	-0.137677	1.117703
H120	H	0.934394	-0.242404	0.977847
H121	H	1.083667	-0.938582	0.303315
H122	H	0.913933	-0.947498	0.458906
H123	H	0.867038	-0.678479	0.501747
H124	H	1.130350	-0.720303	0.260415
H125	H	0.867107	-0.819233	0.501760
H126	H	0.900192	-0.265194	0.777940
H127	H	0.905837	-0.261434	0.645108
H128	H	0.595521	-0.160317	0.445452
H129	H	0.262823	-0.142929	0.474005
