data_functionalizedCrystal
_audit_creation_method	'MofGen! by Chris Wilmer'
_symmetry_space_group_name_H-M	'P1'
_symmetry_Int_Tables_number	1
_symmetry_cell_setting	triclinic
loop_
_symmetry_equiv_pos_as_xyz
  x,y,z
_cell_length_a	34.408637
_cell_length_b	34.407814
_cell_length_c	34.404193
_cell_angle_alpha	60.004510
_cell_angle_beta	60.009006
_cell_angle_gamma	59.994604
loop_
_atom_site_label
_atom_site_type_symbol
_atom_site_fract_x
_atom_site_fract_y
_atom_site_fract_z
O1	O	0.053973	-0.567860	0.474801
O2	O	0.020377	-0.442124	0.382567
O3	O	0.100004	-0.521670	0.382483
O4	O	-0.025653	-0.488314	0.474886
O5	O	0.126426	-0.495253	0.408816
O6	O	0.046800	-0.415707	0.408900
O7	O	0.080396	-0.541443	0.501134
Zn8	Zn	0.067793	-0.474381	0.459198
Zn9	Zn	0.032980	-0.509186	0.424503
O10	O	0.000769	-0.461897	0.501219
N11	N	0.091552	-0.450631	0.482879
N12	N	0.009225	-0.532940	0.400823
C13	C	0.142848	-0.268847	0.534081
C14	C	0.142979	-0.399386	0.664559
C15	C	0.142862	-0.399365	0.534081
C16	C	0.273409	-0.399338	0.533986
C17	C	0.157225	-0.311914	0.548422
C18	C	0.157300	-0.385019	0.621491
C19	C	0.230339	-0.384991	0.548370
C20	C	0.157235	-0.385007	0.548422
C21	C	0.124548	-0.214028	0.515827
C22	C	0.124571	-0.417639	0.515827
C23	C	0.175526	-0.366733	0.566676
C24	C	0.353121	-0.385580	0.491988
C25	C	0.402952	-0.402180	0.475348
C26	C	0.402981	-0.482812	0.506096
C27	C	0.353151	-0.466211	0.522737
C28	C	0.136544	-0.189099	0.466839
C29	C	0.119905	-0.139265	0.450247
C30	C	0.079280	-0.139291	0.531632
C31	C	0.095918	-0.189125	0.548224
C32	C	0.075577	-0.405615	0.527900
C33	C	0.058953	-0.422228	0.511301
C34	C	0.140315	-0.462889	0.470566
C35	C	0.156941	-0.446276	0.487159
C36	C	0.075772	-0.405653	0.744326
C37	C	0.059206	-0.422280	0.794159
C38	C	0.140607	-0.462951	0.794094
C39	C	0.157172	-0.446325	0.744260
C40	C	0.124753	-0.417674	0.719377
C41	C	0.328223	-0.417595	0.515681
C42	C	-0.172390	-0.583988	0.349141
C43	C	-0.041751	-0.584138	0.218783
C44	C	-0.041941	-0.584130	0.349402
C45	C	-0.041957	-0.714607	0.349338
C46	C	-0.129326	-0.598388	0.334853
C47	C	-0.056165	-0.598473	0.261852
C48	C	-0.056282	-0.671535	0.334962
C49	C	-0.056272	-0.598469	0.334999
C50	C	-0.227205	-0.565659	0.367327
C51	C	-0.023703	-0.565882	0.367734
C52	C	-0.074511	-0.616717	0.316667
C53	C	-0.055754	-0.794298	0.391257
C54	C	-0.039181	-0.844132	0.407888
C55	C	0.041447	-0.844215	0.377269
C56	C	0.024873	-0.794381	0.360637
C57	C	-0.252183	-0.577666	0.416302
C58	C	-0.302014	-0.561001	0.432833
C59	C	-0.301886	-0.520329	0.351410
C60	C	-0.252055	-0.536994	0.334880
C61	C	-0.035709	-0.516892	0.355682
C62	C	-0.019129	-0.500308	0.372353
C63	C	0.021465	-0.581700	0.413115
C64	C	0.004884	-0.598286	0.396450
C65	C	-0.035389	-0.516907	0.139026
C66	C	-0.018707	-0.500324	0.089193
C67	C	0.021949	-0.581721	0.089240
C68	C	0.005268	-0.598303	0.139074
C69	C	-0.023402	-0.565894	0.163965
C70	C	-0.023728	-0.769425	0.367633
N71	N	0.427173	-0.450553	0.482630
O72	O	0.589997	-0.458460	0.365361
O73	O	0.590185	-0.550997	0.490963
O74	O	0.590104	-0.550786	0.411309
O75	O	0.590077	-0.458671	0.445016
O76	O	0.510940	-0.524462	0.437777
O77	O	0.511020	-0.524674	0.517432
O78	O	0.510832	-0.432136	0.391830
Zn79	Zn	0.498357	-0.474225	0.458833
Zn80	Zn	0.602660	-0.508908	0.423960
O81	O	0.510913	-0.432348	0.471484
N82	N	0.673844	-0.532580	0.400158
N83	N	0.091520	-0.115070	0.482873
O84	O	-0.025663	0.047841	0.474857
O85	O	0.099940	0.047877	0.382299
O86	O	0.020247	0.047844	0.382560
O87	O	0.054030	0.047874	0.474596
O88	O	0.046674	-0.031326	0.408942
O89	O	0.126367	-0.031293	0.408680
O90	O	0.000764	-0.031329	0.501238
Zn91	Zn	0.067761	-0.043881	0.459148
Zn92	Zn	0.032943	0.060429	0.424389
O93	O	0.080457	-0.031296	0.500977
N94	N	0.009178	0.131618	0.400665
N95	N	0.091852	-0.450680	0.818332
O96	O	0.083862	-0.567845	0.981235
O97	O	-0.008657	-0.442198	0.981276
O98	O	-0.008441	-0.521875	0.981252
O99	O	0.083646	-0.488168	0.981258
O100	O	0.017919	-0.495468	0.902085
O101	O	0.017703	-0.415791	0.902109
O102	O	0.110222	-0.541438	0.902067
Zn103	Zn	0.068148	-0.474422	0.889518
Zn104	Zn	0.033417	-0.509214	0.993825
O105	O	0.110006	-0.461761	0.902091
N106	N	0.009712	-0.532961	1.065011
C107	C	0.030439	-0.413071	0.383027
C108	C	0.129046	-0.511580	0.382922
C109	C	0.070334	-0.570496	0.500675
C110	C	-0.028274	-0.471987	0.500780
C111	C	0.550625	-0.550579	0.520021
C112	C	0.550527	-0.550317	0.421379
C113	C	0.550389	-0.432554	0.362773
C114	C	0.550491	-0.432816	0.461414
C115	C	0.128944	0.008394	0.382712
C116	C	0.030287	0.008256	0.383068
C117	C	-0.028273	0.008252	0.500793
C118	C	0.070417	0.008292	0.500470
C119	C	-0.008218	-0.413165	0.941698
C120	C	-0.007945	-0.511830	0.941653
C121	C	0.109783	-0.570471	0.941646
C122	C	0.109516	-0.471800	0.941673
H123	H	0.049370	-0.382321	0.724071
C124	C	0.149026	-0.619218	0.941629
C125	C	0.169524	-0.649877	0.982732
C126	C	0.208767	-0.698625	0.982715
C127	C	0.227511	-0.716714	0.941596
C128	C	0.207013	-0.686055	0.900491
C129	C	0.167771	-0.637307	0.900507
H130	H	0.155648	-0.636486	1.013173
H131	H	0.223941	-0.721320	1.013145
H132	H	0.256561	-0.752800	0.941584
H133	H	0.220889	-0.699446	0.870049
H134	H	0.152597	-0.614612	0.870078
C135	C	0.020744	-0.364278	0.343888
C136	C	0.059848	-0.354621	0.295074
C137	C	0.050154	-0.305827	0.255935
C138	C	0.001356	-0.266692	0.265610
C139	C	-0.037751	-0.276349	0.314427
C140	C	-0.028057	-0.325142	0.353565
H141	H	0.095975	-0.383592	0.287909
H142	H	0.079104	-0.298679	0.219798
H143	H	-0.005821	-0.230573	0.236638
H144	H	-0.073878	-0.247378	0.321591
H145	H	-0.057007	-0.332290	0.389703
H146	H	0.081021	-0.864532	0.371574
H147	H	0.165136	-0.518689	0.353905
C148	C	-0.047461	-0.364417	0.941714
C149	C	-0.067959	-0.333759	0.900612
C150	C	-0.107202	-0.285011	0.900628
C151	C	-0.125947	-0.266922	0.941748
C152	C	-0.105448	-0.297581	0.982853
C153	C	-0.066205	-0.346329	0.982837
H154	H	-0.054083	-0.347149	0.870170
H155	H	-0.122376	-0.262316	0.870199
H156	H	-0.154996	-0.230836	0.941760
H157	H	-0.119324	-0.284191	1.013295
H158	H	-0.051031	-0.369024	1.013266
H159	H	-0.095331	-0.773979	0.396956
C160	C	0.550695	-0.589828	0.568753
C161	C	0.509624	-0.610349	0.599432
C162	C	0.509694	-0.649598	0.648163
C163	C	0.550835	-0.668326	0.666216
C164	C	0.591909	-0.647804	0.635537
C165	C	0.591839	-0.608555	0.586805
H166	H	0.479167	-0.596486	0.586068
H167	H	0.479288	-0.664789	0.670874
H168	H	0.550887	-0.697380	0.702290
H169	H	0.622367	-0.661667	0.648900
H170	H	0.622245	-0.593364	0.564094
H171	H	0.550540	-0.579254	0.414165
C172	C	0.080188	0.008299	0.539536
C173	C	0.093320	0.049421	0.530719
C174	C	0.103090	0.049429	0.569785
C175	C	0.099729	0.008315	0.617667
C176	C	0.086597	-0.032809	0.626485
C177	C	0.076826	-0.032817	0.587420
H178	H	0.095808	0.079858	0.495272
H179	H	0.112812	0.079872	0.563257
H180	H	0.106962	0.008321	0.646586
H181	H	0.084108	-0.063247	0.661932
H182	H	0.067105	-0.063260	0.593948
H183	H	-0.064365	-0.464880	0.529794
H184	H	0.550329	-0.403500	0.326702
H185	H	0.138447	-0.464586	0.941669
H186	H	0.077514	-0.606615	0.529644
H187	H	0.550485	-0.403881	0.468626
H188	H	0.164941	0.008624	0.353583
H189	H	0.023050	0.008252	0.354152
H190	H	-0.036863	-0.519031	0.941619
C191	C	-0.077002	0.008240	0.540049
C192	C	-0.116247	0.008223	0.530567
C193	C	-0.164976	0.008211	0.569823
C194	C	-0.174459	0.008216	0.618561
C195	C	-0.135212	0.008234	0.628046
C196	C	-0.086484	0.008246	0.588790
H197	H	-0.109228	0.008219	0.494486
H198	H	-0.194029	0.008198	0.562802
H199	H	-0.210531	0.008208	0.647621
H200	H	-0.142231	0.008238	0.664127
H201	H	-0.057431	0.008258	0.595811
H202	H	0.019320	-0.412483	0.814467
H203	H	0.197059	-0.456117	0.723950
C204	C	0.176266	-0.494457	0.821467
C205	C	0.212114	-0.475376	0.814591
C206	C	0.247772	-0.506885	0.841964
C207	C	0.247582	-0.557475	0.876215
C208	C	0.211733	-0.576559	0.883093
C209	C	0.176075	-0.545050	0.855719
H210	H	0.212255	-0.437923	0.789235
H211	H	0.274310	-0.492757	0.836873
H212	H	0.273978	-0.580800	0.896478
H213	H	0.211592	-0.614011	0.908448
H214	H	0.149537	-0.559177	0.860811
C215	C	0.039968	-0.374111	0.559428
C216	C	0.004149	-0.393191	0.607505
C217	C	-0.031461	-0.361685	0.639033
C218	C	-0.031251	-0.311099	0.622486
C219	C	0.004570	-0.292016	0.574407
C220	C	0.040180	-0.323522	0.542879
H221	H	0.003992	-0.430640	0.619756
H222	H	-0.057978	-0.375812	0.674625
H223	H	-0.057611	-0.287777	0.645825
H224	H	0.004727	-0.254567	0.562156
H225	H	0.066697	-0.309395	0.507287
C226	C	0.005059	-0.409006	0.524577
C227	C	-0.026184	-0.423532	0.577218
C228	C	-0.080077	-0.410311	0.590492
C229	C	-0.102726	-0.382565	0.551125
C230	C	-0.071483	-0.368038	0.498481
C231	C	-0.017590	-0.381259	0.485206
H232	H	-0.009418	-0.444072	0.606362
H233	H	-0.103205	-0.421065	0.629463
H234	H	-0.142621	-0.372778	0.560952
H235	H	-0.088249	-0.347497	0.469336
H236	H	0.005539	-0.370505	0.446235
H237	H	0.196836	-0.456064	0.477324
C238	C	0.175925	-0.494393	0.439034
C239	C	0.211805	-0.542456	0.458071
C240	C	0.247413	-0.573958	0.426538
C241	C	0.247140	-0.557398	0.375970
C242	C	0.211258	-0.509333	0.356930
C243	C	0.175651	-0.477831	0.388462
H244	H	0.212009	-0.554717	0.495507
H245	H	0.273975	-0.609539	0.440633
H246	H	0.273498	-0.580718	0.352628
H247	H	0.211055	-0.497072	0.319494
H248	H	0.149089	-0.442250	0.374368
H249	H	0.332881	-0.492283	0.542031
H250	H	0.423275	-0.522397	0.511838
H251	H	0.423225	-0.376108	0.456057
H252	H	0.159856	-0.209371	0.440456
C253	C	0.325698	-0.332101	0.484229
C254	C	0.332509	-0.295861	0.433382
C255	C	0.305088	-0.242383	0.425621
C256	C	0.270856	-0.225144	0.468707
C257	C	0.264043	-0.261384	0.519557
C258	C	0.291464	-0.314863	0.527319
H259	H	0.357851	-0.308622	0.401484
H260	H	0.310132	-0.215555	0.387977
H261	H	0.250557	-0.185556	0.462962
H262	H	0.238700	-0.248624	0.551456
H263	H	0.286420	-0.341690	0.564962
C264	C	0.133100	-0.111838	0.396359
C265	C	0.185717	-0.118666	0.365045
C266	C	0.198911	-0.091241	0.311156
C267	C	0.159487	-0.056988	0.288581
C268	C	0.106867	-0.050158	0.319895
C269	C	0.093673	-0.077584	0.373784
H270	H	0.214903	-0.144024	0.381756
H271	H	0.237864	-0.096297	0.287976
H272	H	0.169254	-0.036686	0.248690
H273	H	0.077680	-0.024801	0.303184
H274	H	0.054719	-0.072528	0.396965
C275	C	0.047791	-0.111896	0.567268
C276	C	0.029489	-0.057080	0.549019
C277	C	-0.002000	-0.029687	0.584656
C278	C	-0.015187	-0.057108	0.638543
C279	C	0.003115	-0.111927	0.656795
C280	C	0.034604	-0.139320	0.621158
H281	H	0.039251	-0.036778	0.509126
H282	H	-0.015548	0.010894	0.571144
H283	H	-0.038497	-0.036830	0.664924
H284	H	-0.006647	-0.132229	0.696688
H285	H	0.048153	-0.179901	0.634670
C286	C	0.082723	-0.216544	0.602112
C287	C	0.122144	-0.250798	0.624689
C288	C	0.108947	-0.278217	0.678579
C289	C	0.056329	-0.271383	0.709891
C290	C	0.016904	-0.237128	0.687314
C291	C	0.030101	-0.209709	0.633424
H292	H	0.161099	-0.255858	0.601510
H293	H	0.138132	-0.303575	0.695292
H294	H	0.046560	-0.291681	0.749784
H295	H	-0.022050	-0.232068	0.710494
H296	H	0.000916	-0.184351	0.616711
C297	C	-0.066927	-0.481254	0.166402
C298	C	-0.047853	-0.445433	0.159594
C299	C	-0.079387	-0.409780	0.186970
C300	C	-0.129996	-0.409947	0.221154
C301	C	-0.149073	-0.445768	0.227962
C302	C	-0.117538	-0.481422	0.200587
H303	H	-0.010387	-0.445309	0.134289
H304	H	-0.065265	-0.383263	0.181930
H305	H	-0.153340	-0.383554	0.241419
H306	H	-0.186539	-0.445893	0.253268
H307	H	-0.131661	-0.507939	0.205627
C308	C	0.053477	-0.617372	0.061861
C309	C	0.036984	-0.617128	0.027542
C310	C	0.068516	-0.652779	0.000164
C311	C	0.116541	-0.688674	0.007104
C312	C	0.133036	-0.688919	0.041424
C313	C	0.101505	-0.653268	0.068802
H314	H	0.001431	-0.590556	0.022404
H315	H	0.056304	-0.652597	-0.025242
H316	H	0.139882	-0.715065	-0.013164
H317	H	0.168589	-0.715492	0.046562
H318	H	0.113716	-0.653450	0.094208
C319	C	0.018453	-0.652193	0.166507
C320	C	0.049983	-0.687839	0.139126
C321	C	0.063167	-0.741728	0.166557
C322	C	0.044821	-0.759971	0.221370
C323	C	0.013289	-0.724325	0.248755
C324	C	0.000105	-0.670436	0.221323
H325	H	0.063565	-0.674334	0.098547
H326	H	0.086509	-0.768115	0.146285
H327	H	0.054580	-0.799863	0.241677
H328	H	-0.000294	-0.737829	0.289334
H329	H	-0.023237	-0.644048	0.241596
H330	H	-0.028474	-0.460433	0.068892
H331	H	-0.058984	-0.490504	0.332300
H332	H	0.044746	-0.608091	0.436494
C333	C	-0.032333	-0.446418	0.359104
C334	C	0.007085	-0.423865	0.331440
C335	C	-0.006120	-0.369977	0.318193
C336	C	-0.058744	-0.338642	0.332610
C337	C	-0.098166	-0.361195	0.360275
C338	C	-0.084961	-0.415083	0.373522
H339	H	0.046043	-0.447061	0.320767
H340	H	0.023063	-0.353281	0.297714
H341	H	-0.068519	-0.298751	0.322804
H342	H	-0.137124	-0.337999	0.370949
H343	H	-0.114144	-0.431779	0.394002
C344	C	0.018097	-0.652177	0.409697
C345	C	0.049547	-0.687820	0.441278
C346	C	0.062764	-0.741710	0.454521
C347	C	0.044531	-0.759956	0.436184
C348	C	0.013079	-0.724312	0.404601
C349	C	-0.000138	-0.670422	0.391357
H350	H	0.063046	-0.674314	0.454854
H351	H	0.086047	-0.768096	0.477901
H352	H	0.054315	-0.799848	0.445988
H353	H	-0.000419	-0.737818	0.391025
H354	H	-0.023420	-0.644036	0.367978
H355	H	-0.065262	-0.864385	0.427124
C356	C	0.060105	-0.767022	0.334648
C357	C	0.113564	-0.794479	0.326957
C358	C	0.148798	-0.767120	0.300968
C359	C	0.130574	-0.712304	0.282670
C360	C	0.077112	-0.684845	0.290361
C361	C	0.041878	-0.712204	0.316350
H362	H	0.127058	-0.835059	0.340503
H363	H	0.188374	-0.787448	0.295275
H364	H	0.156656	-0.692052	0.263431
H365	H	0.063618	-0.644264	0.276815
H366	H	0.002302	-0.691876	0.322043
H367	H	-0.231954	-0.601008	0.442726
H368	H	-0.322352	-0.570775	0.472713
H369	H	-0.322118	-0.496994	0.324987
H370	H	-0.231721	-0.527215	0.295000
