data_functionalizedCrystal
_audit_creation_method	'MofGen! by Chris Wilmer'
_symmetry_space_group_name_H-M	'P1'
_symmetry_Int_Tables_number	1
_symmetry_cell_setting	triclinic
loop_
_symmetry_equiv_pos_as_xyz
  x,y,z
_cell_length_a	14.519709
_cell_length_b	18.366186
_cell_length_c	19.288874
_cell_angle_alpha	90.005656
_cell_angle_beta	83.410185
_cell_angle_gamma	90.003469
loop_
_atom_site_label
_atom_site_type_symbol
_atom_site_fract_x
_atom_site_fract_y
_atom_site_fract_z
O1	O	1.223300	0.060456	0.091049
O2	O	1.723300	0.560456	0.591049
O3	O	0.954756	0.060478	0.101772
O4	O	1.454756	0.560478	0.601772
O5	O	1.096783	0.060461	-0.004692
O6	O	1.596783	0.560461	0.495308
O7	O	1.081273	0.060473	0.197512
O8	O	1.581273	0.560473	0.697512
O9	O	1.096758	-0.060639	-0.004695
O10	O	1.596758	0.439361	0.495305
O11	O	0.954731	-0.060621	0.101769
O12	O	1.454731	0.439379	0.601769
O13	O	1.223276	-0.060644	0.091046
O14	O	1.723276	0.439356	0.591046
Zn15	Zn	1.089000	-0.079860	0.096407
Zn16	Zn	1.589000	0.420140	0.596407
Zn17	Zn	1.089032	0.079694	0.096411
Zn18	Zn	1.589032	0.579694	0.596411
O19	O	1.081249	-0.060626	0.197509
O20	O	1.581249	0.439374	0.697509
C21	C	0.920387	-0.000069	0.101270
C22	C	1.420387	0.499931	0.601270
C23	C	0.818015	-0.000060	0.099773
C24	C	1.318015	0.499940	0.599773
C25	C	0.443154	-0.000094	0.094260
C26	C	0.943154	0.499906	0.594260
C27	C	0.547452	-0.000084	0.095791
C28	C	1.047452	0.499916	0.595791
C29	C	0.630581	-0.000076	0.097016
C30	C	1.130581	0.499924	0.597016
C31	C	0.734886	-0.000068	0.098548
C32	C	1.234886	0.499932	0.598548
N33	N	1.088984	-0.188751	0.096404
N34	N	1.588984	0.311249	0.596404
C35	C	1.144734	-0.226847	0.138628
C36	C	1.644734	0.273153	0.638628
C37	C	1.144749	-0.303075	0.138626
C38	C	1.644749	0.196925	0.638626
C39	C	1.088997	-0.341203	0.096408
C40	C	1.588997	0.158797	0.596408
C41	C	1.033244	-0.303098	0.054175
C42	C	1.533244	0.196902	0.554175
C43	C	1.033238	-0.226871	0.054173
C44	C	1.533238	0.273129	0.554173
C45	C	1.005866	-0.461978	0.094352
C46	C	1.505866	0.038022	0.594352
C47	C	1.005871	-0.538203	0.094359
C48	C	1.505871	-0.038203	0.594359
C49	C	1.089018	-0.576311	0.096410
C50	C	1.589018	-0.076311	0.596410
C51	C	1.172162	-0.538185	0.098469
C52	C	1.672162	-0.038185	0.598469
C53	C	1.172155	-0.461959	0.098467
C54	C	1.672155	0.038041	0.598467
C55	C	1.088998	-0.423858	0.096405
C56	C	1.588998	0.076142	0.596405
C57	C	1.144789	-0.697062	0.138635
C58	C	1.644789	-0.197062	0.638635
C59	C	1.144806	-0.773292	0.138628
C60	C	1.644806	-0.273292	0.638628
C61	C	1.033292	-0.773313	0.054181
C62	C	1.533292	-0.273313	0.554181
C63	C	1.033284	-0.697085	0.054184
C64	C	1.533284	-0.197085	0.554184
C65	C	1.089031	-0.658964	0.096415
C66	C	1.589031	-0.158964	0.596415
C67	C	1.257645	-0.000095	0.091548
C68	C	1.757645	0.499905	0.591548
C69	C	1.360016	-0.000099	0.093045
C70	C	1.860016	0.499901	0.593045
C71	C	1.096270	-0.000089	-0.030571
C72	C	1.596270	0.499911	0.469429
C73	C	1.094768	-0.000089	-0.107680
C74	C	1.594768	0.499911	0.392320
N75	N	1.089055	0.188585	0.096409
N76	N	1.589055	0.688585	0.596409
C77	C	1.083966	-0.066081	-0.663290
C78	C	1.583966	0.433919	-0.163290
C79	C	1.085367	-0.066085	-0.590837
C80	C	1.585367	0.433915	-0.090837
C81	C	1.086086	-0.000075	-0.554601
C82	C	1.586086	0.499925	-0.054601
C83	C	1.085379	0.065945	-0.590822
C84	C	1.585379	0.565945	-0.090822
C85	C	1.083968	0.065947	-0.663273
C86	C	1.583968	0.565947	-0.163273
C87	C	1.142345	0.050492	-0.445066
C88	C	1.642345	0.550492	0.054934
C89	C	1.143762	0.050487	-0.372618
C90	C	1.643762	0.550487	0.127382
C91	C	1.090434	-0.000079	-0.331140
C92	C	1.590434	0.499921	0.168860
C93	C	1.035701	-0.050652	-0.362120
C94	C	1.535701	0.449348	0.137880
C95	C	1.034290	-0.050649	-0.434571
C96	C	1.534290	0.449351	0.065429
C97	C	1.087616	-0.000070	-0.476041
C98	C	1.587616	0.499930	0.023959
C99	C	1.092654	-0.066098	-0.216365
C100	C	1.592654	0.433902	0.283635
C101	C	1.094051	-0.066100	-0.143910
C102	C	1.594051	0.433900	0.356090
C103	C	1.094071	0.065932	-0.143898
C104	C	1.594071	0.565932	0.356102
C105	C	1.092666	0.065931	-0.216351
C106	C	1.592666	0.565931	0.283649
C107	C	1.091962	-0.000086	-0.252580
C108	C	1.591962	0.499914	0.247420
C109	C	1.081761	-0.000075	0.223389
C110	C	1.581761	0.499925	0.723389
C111	C	1.083264	-0.000071	0.300498
C112	C	1.583264	0.499929	0.800498
H113	H	1.190131	-0.195814	0.173013
H114	H	1.690131	0.304186	0.673013
Cl115	Cl	1.083088	0.148939	-0.708800
Cl116	Cl	1.583088	0.648939	-0.208800
H117	H	1.094646	0.119679	-0.114395
H118	H	1.594646	0.619679	0.385605
Cl119	Cl	1.214840	-0.350978	0.191712
Cl120	Cl	1.714840	0.149022	0.691712
H121	H	1.085961	0.119691	-0.561315
H122	H	1.585961	0.619691	-0.061315
H123	H	1.085922	-0.119841	-0.561345
H124	H	1.585922	0.380159	-0.061345
Cl125	Cl	1.214902	-0.821185	0.191712
Cl126	Cl	1.714902	-0.321185	0.691712
H127	H	1.092101	0.119685	-0.245836
H128	H	1.592101	0.619685	0.254164
Cl129	Cl	1.276674	-0.414031	0.101054
Cl130	Cl	1.776674	0.085969	0.601054
H131	H	1.083391	-0.119838	-0.692783
H132	H	1.583391	0.380162	-0.192783
H133	H	1.239868	-0.569211	0.100143
H134	H	1.739868	-0.069211	0.600143
Cl135	Cl	1.212572	0.114060	-0.333678
Cl136	Cl	1.712572	0.614060	0.166322
H137	H	1.190182	-0.666023	0.173021
H138	H	1.690182	-0.166023	0.673021
Cl139	Cl	1.209374	0.114079	-0.497201
Cl140	Cl	1.709374	0.614079	0.002799
Cl141	Cl	0.968660	-0.114228	-0.309985
Cl142	Cl	1.468660	0.385772	0.190015
Cl143	Cl	0.963214	-0.821239	0.001098
Cl144	Cl	1.463214	-0.321239	0.501098
Cl145	Cl	0.963176	-0.649190	0.001113
Cl146	Cl	1.463176	-0.149190	0.501113
Cl147	Cl	1.091764	-0.149090	-0.261913
Cl148	Cl	1.591764	0.350910	0.238087
H149	H	0.987838	-0.195854	0.019788
H150	H	1.487838	0.304146	0.519788
Cl151	Cl	0.901348	-0.586125	0.091778
Cl152	Cl	1.401348	-0.086125	0.591778
H153	H	0.938152	-0.430956	0.092686
H154	H	1.438152	0.069044	0.592686
Cl155	Cl	1.094916	-0.149093	-0.098383
Cl156	Cl	1.594916	0.350907	0.401617
Cl157	Cl	0.963159	-0.351030	0.001099
Cl158	Cl	1.463159	0.148970	0.501099
Cl159	Cl	0.965480	-0.114219	-0.473515
Cl160	Cl	1.465480	0.385781	0.026485
