data_functionalizedCrystal
_audit_creation_method	'MofGen! by Chris Wilmer'
_symmetry_space_group_name_H-M	'P1'
_symmetry_Int_Tables_number	1
_symmetry_cell_setting	triclinic
loop_
_symmetry_equiv_pos_as_xyz
  x,y,z
_cell_length_a	14.446369
_cell_length_b	14.446369
_cell_length_c	14.446369
_cell_angle_alpha	60.003968
_cell_angle_beta	89.999999
_cell_angle_gamma	59.998616
loop_
_atom_site_label
_atom_site_type_symbol
_atom_site_fract_x
_atom_site_fract_y
_atom_site_fract_z
Zr1	Zr	0.891678	1.013281	-0.121509
O2	O	0.743869	1.206384	-0.269300
O3	O	0.936995	0.820168	-0.076205
O4	O	0.936987	1.013276	-0.269313
O5	O	0.743877	1.013284	0.076136
O6	O	1.089316	1.013284	-0.269321
O7	O	0.743877	1.013276	-0.076192
O8	O	1.089331	0.667849	0.076114
O9	O	0.743862	1.358719	-0.269299
O10	O	1.069997	0.899608	-0.056887
O11	O	0.956316	0.899608	0.056800
O12	O	0.956306	1.126968	-0.170560
O13	O	0.842625	1.126968	-0.056873
Zr14	Zr	1.134625	1.013308	0.121425
Zr15	Zr	1.134625	1.013295	-0.121522
Zr16	Zr	0.891678	1.013295	0.121438
Zr17	Zr	0.891668	1.256239	-0.121506
Zr18	Zr	1.134635	0.770351	0.121422
O19	O	1.089307	1.206422	0.076120
O20	O	1.089308	1.206403	-0.269319
O21	O	0.743868	1.206403	0.076139
O22	O	1.282434	0.820205	0.269216
O23	O	1.282435	0.820187	-0.076223
O24	O	0.936995	0.820187	0.269234
O25	O	1.282426	1.013305	-0.076221
O26	O	1.089315	1.013314	0.269228
O27	O	0.936987	1.013305	0.269236
O28	O	1.282426	1.013314	0.076108
O29	O	0.936972	1.358730	-0.269309
O30	O	1.089330	0.667860	0.269224
O31	O	1.282441	0.667870	0.269214
O32	O	1.282441	0.667860	0.076104
O33	O	0.743862	1.358730	-0.076188
O34	O	0.936972	1.358740	-0.076199
O35	O	1.069997	0.899621	0.170475
O36	O	1.183678	0.899621	0.056788
O37	O	1.069987	1.126981	-0.056885
O38	O	0.956306	1.126981	0.056803
C39	C	1.013165	0.709392	-0.000046
C40	C	1.013169	0.606250	-0.000047
C41	C	1.084502	0.459934	-0.072100
C42	C	1.084906	0.566859	-0.071793
C43	C	1.065471	0.479403	0.123474
C44	C	1.065991	0.372024	0.123084
C45	C	0.889433	0.546980	-0.050502
C46	C	0.889631	0.655453	-0.053007
C47	C	0.709262	1.013278	-0.000026
C48	C	0.606125	1.013272	-0.000021
C49	C	0.531148	0.869891	0.071301
C50	C	0.638477	0.869795	0.071709
C51	C	0.531562	1.084503	0.052279
C52	C	0.424703	1.083593	0.052794
C53	C	0.423130	1.086536	-0.123756
C54	C	0.531801	1.083834	-0.123554
C55	C	1.317041	1.013311	-0.000059
C56	C	1.420178	1.013317	-0.000064
C57	C	1.013152	1.013278	-0.303932
C58	C	1.013152	1.013272	-0.407069
C59	C	1.013138	1.317197	-0.000039
C60	C	1.013134	1.420339	-0.000038
C61	C	1.085214	0.869892	-0.482057
C62	C	1.084902	0.869795	-0.374728
C63	C	0.889626	1.084493	-0.481621
C64	C	0.890021	1.083583	-0.588480
C65	C	1.063618	1.086545	-0.590063
C66	C	1.066118	1.083843	-0.481392
C67	C	1.013151	1.013311	0.303847
C68	C	1.013151	1.013317	0.406984
C69	C	1.317054	0.709409	-0.000062
C70	C	1.420196	0.606273	-0.000069
C71	C	1.013164	0.709409	0.303843
C72	C	1.013168	0.606273	0.406980
C73	C	1.317054	0.709425	0.303827
C74	C	1.420195	0.606295	0.406958
C75	C	0.709249	1.317164	-0.303912
C76	C	0.606108	1.420294	-0.407043
C77	C	0.709249	1.317180	-0.000023
C78	C	0.606107	1.420317	-0.000016
C79	C	1.013139	1.317180	-0.303928
C80	C	1.013134	1.420317	-0.407064
C81	C	1.638559	0.459976	0.071242
C82	C	1.531328	0.566892	0.071660
C83	C	1.423529	0.479417	0.052226
C84	C	1.531297	0.372046	0.052732
C85	C	1.529916	0.547015	-0.123817
C86	C	1.423948	0.655481	-0.123605
C87	C	0.941130	0.459955	0.481964
C88	C	0.941429	0.566875	0.374637
C89	C	1.136700	0.479427	0.481525
C90	C	1.136317	0.372052	0.588383
C91	C	0.962712	0.547015	0.589980
C92	C	0.960200	0.655484	0.481310
C93	C	1.495184	0.459969	0.625309
C94	C	1.387850	0.566901	0.518090
C95	C	1.494740	0.479450	0.410263
C96	C	1.601603	0.372064	0.518019
C97	C	1.603210	0.547008	0.516683
C98	C	1.494534	0.655489	0.410726
H99	H	1.176159	0.529400	-0.036791
N100	N	0.425052	1.016550	0.173357
H101	H	0.494483	0.987864	0.225669
H102	H	0.426173	0.937544	0.195739
H103	H	0.504327	1.189997	0.002807
N104	N	0.831547	0.599405	-0.169166
H105	H	0.827485	0.530860	-0.167590
H106	H	0.876106	0.621846	-0.219428
H107	H	1.157018	0.281277	0.163485
N108	N	1.001611	0.332315	0.198089
H109	H	1.001451	0.262314	0.198424
H110	H	0.921009	0.411011	0.168179
H111	H	0.850559	0.745937	-0.144008
H112	H	0.419012	1.040637	-0.167448
H113	H	0.583166	1.035035	0.142440
H114	H	0.344911	1.192193	-0.177178
N115	N	1.204654	0.341192	-0.026178
H116	H	1.222607	0.326344	-0.087069
H117	H	1.212985	0.261923	0.041118
N118	N	0.835713	1.018970	-0.413287
H119	H	0.832678	1.023016	-0.345462
H120	H	0.882129	0.924513	-0.386692
H121	H	1.175863	0.813916	-0.320460
H122	H	1.607338	0.586567	0.566710
H123	H	1.011361	1.192213	-0.668258
H124	H	1.345265	0.501656	0.002754
H125	H	1.192717	0.501678	0.508753
H126	H	0.833602	1.189987	-0.508848
H127	H	1.176727	0.281301	0.588105
H128	H	0.583226	1.031898	-0.162625
N129	N	1.598073	0.251894	0.173309
H130	H	1.557357	0.269032	0.225632
H131	H	1.675923	0.230764	0.195582
H132	H	1.692511	0.497218	0.036336
H133	H	0.873124	0.586582	0.594102
H134	H	1.579930	0.586588	-0.167508
H135	H	0.506276	1.188509	-0.181196
N136	N	1.038304	0.685224	-0.192292
H137	H	0.968696	0.763707	-0.201766
H138	H	1.017424	0.668057	-0.245935
N139	N	0.999956	0.508860	0.197697
H140	H	0.935587	0.604946	0.151855
H141	H	1.052121	0.486320	0.263382
N142	N	1.206018	0.795317	-0.478955
H143	H	1.215210	0.853775	-0.549446
H144	H	1.224568	0.716122	-0.475533
H145	H	1.192926	0.342103	0.666959
H146	H	1.157128	1.031903	-0.429980
N147	N	1.022487	0.698056	0.515104
H148	H	0.968270	0.793350	0.484897
H149	H	1.086203	0.685900	0.482561
H150	H	0.346119	1.188822	0.004174
H151	H	0.831984	0.687578	-0.005973
N152	N	1.184905	0.428325	0.177376
H153	H	1.205325	0.487143	0.121990
H154	H	1.239192	0.336656	0.198422
N155	N	1.496009	0.332344	-0.011664
H156	H	1.410581	0.384600	-0.040251
H157	H	1.529082	0.235964	0.040264
N158	N	1.706817	0.514173	0.480328
H159	H	1.704466	0.595900	0.431426
H160	H	1.708026	0.477872	0.435696
N161	N	1.039271	0.795689	-0.480672
H162	H	1.086034	0.703664	-0.409117
H163	H	1.043131	0.792399	-0.548864
H164	H	1.019087	1.188517	-0.506903
N165	N	0.839642	0.775318	0.413207
H166	H	0.838847	0.846951	0.344297
H167	H	0.806073	0.806416	0.461528
H168	H	0.836009	0.522189	0.001736
N169	N	0.710377	0.795778	0.025240
H170	H	0.672475	0.762917	0.004306
H171	H	0.787472	0.719057	0.084667
H172	H	1.421398	0.440863	0.142388
H173	H	0.849935	0.497189	0.479635
H174	H	1.680184	0.342106	0.491362
N175	N	0.534266	0.795312	0.025070
H176	H	0.463774	0.853767	-0.042580
H177	H	0.537695	0.716116	0.085710
N178	N	0.815023	1.222963	-0.692565
H179	H	0.814694	1.223459	-0.762725
H180	H	0.844943	1.273641	-0.694455
N181	N	1.492097	0.509277	0.696799
H182	H	1.420220	0.534153	0.716696
H183	H	1.494151	0.588451	0.652864
H184	H	1.502471	0.522221	-0.177241
N185	N	0.532499	0.796560	0.191559
H186	H	0.464349	0.793156	0.191623
H187	H	0.530023	0.843217	0.226235
N188	N	1.190611	0.428343	0.413173
H189	H	1.135223	0.487156	0.333937
H190	H	1.211667	0.336673	0.450554
H191	H	0.850465	0.656218	0.320375
H192	H	1.014949	0.522231	0.668191
H193	H	1.333588	0.656242	0.519719
H194	H	0.849618	1.032962	-0.588209
H195	H	1.344793	0.687599	-0.181246
N196	N	1.038268	0.509272	-0.192900
H197	H	0.970614	0.506432	-0.202090
H198	H	1.098910	0.452062	-0.211465
N199	N	1.182286	1.025766	-0.595526
H200	H	1.204534	0.950139	-0.599973
H201	H	1.236790	0.993049	-0.525343
N202	N	0.709740	0.795289	0.192575
H203	H	0.671468	0.762391	0.245796
H204	H	0.718529	0.855113	0.202667
N205	N	1.038536	0.795292	-0.303473
H206	H	1.018213	0.762393	-0.341747
H207	H	0.968621	0.855121	-0.294684
H208	H	1.532938	0.656241	0.036586
N209	N	1.711397	0.341221	0.191375
H210	H	1.723456	0.261882	0.199768
H211	H	1.672347	0.355954	0.245452
N212	N	1.601225	0.251869	0.584693
H213	H	1.600068	0.230536	0.662593
H214	H	1.671573	0.175616	0.592123
N215	N	1.426454	0.775323	0.411460
H216	H	1.347783	0.797667	0.409354
H217	H	1.421094	0.851311	0.342891
N218	N	1.424651	0.775329	-0.175356
H219	H	1.422541	0.797669	-0.119025
H220	H	1.356068	0.851311	-0.245976
H221	H	1.533787	0.529430	0.162910
H222	H	0.975818	0.370291	0.480926
N223	N	1.528345	0.698050	0.305882
H224	H	1.495812	0.685986	0.254226
H225	H	1.613736	0.643312	0.328458
H226	H	0.976442	0.529408	0.320849
N227	N	1.493792	0.341218	0.698120
H228	H	1.564729	0.261882	0.710162
H229	H	1.424976	0.355968	0.659063
H230	H	1.521976	0.501697	0.332002
N231	N	1.426360	0.428408	0.407411
H232	H	1.399672	0.406978	0.475214
H233	H	1.475112	0.346819	0.409528
N234	N	1.316584	0.517304	0.521310
H235	H	1.293561	0.496511	0.591327
H236	H	1.362023	0.435558	0.523124
