data_functionalizedCrystal
_audit_creation_method	'MofGen! by Chris Wilmer'
_symmetry_space_group_name_H-M	'P1'
_symmetry_Int_Tables_number	1
_symmetry_cell_setting	triclinic
loop_
_symmetry_equiv_pos_as_xyz
  x,y,z
_cell_length_a	19.805407
_cell_length_b	13.897448
_cell_length_c	19.805399
_cell_angle_alpha	89.974981
_cell_angle_beta	89.980427
_cell_angle_gamma	90.017692
loop_
_atom_site_label
_atom_site_type_symbol
_atom_site_fract_x
_atom_site_fract_y
_atom_site_fract_z
Zn1	Zn	1.034777	-0.384037	-0.382732
Zn2	Zn	1.034709	-0.545343	-0.269549
Zn3	Zn	0.921591	-0.384064	-0.269556
Zn4	Zn	0.921572	-0.545292	-0.382695
O5	O	0.978162	-0.464684	-0.326133
O6	O	1.129484	-0.405445	-0.367730
O7	O	1.019683	-0.523982	-0.174833
O8	O	0.936642	-0.249079	-0.284588
O9	O	1.129434	-0.523956	-0.284575
O10	O	1.019799	-0.249059	-0.367737
O11	O	0.936576	-0.405490	-0.174839
O12	O	0.826872	-0.405441	-0.284552
O13	O	0.936609	-0.523869	-0.477417
O14	O	0.826858	-0.523894	-0.367675
O15	O	1.019780	-0.405395	-0.477443
O16	O	1.019664	-0.680318	-0.284539
O17	O	0.936543	-0.680280	-0.367668
C18	C	0.802306	-0.464666	-0.326111
C19	C	0.727074	-0.464681	-0.326118
C20	C	0.691740	-0.526453	-0.369330
C21	C	0.621052	-0.526454	-0.369339
C22	C	0.585699	-0.464688	-0.326133
C23	C	0.621037	-0.402910	-0.282919
C24	C	0.691725	-0.402904	-0.282913
C25	C	0.335964	-0.402931	-0.282941
C26	C	0.265272	-0.402944	-0.282949
C27	C	0.265292	-0.526481	-0.369367
C28	C	0.335979	-0.526476	-0.369362
C29	C	0.371311	-0.464694	-0.326151
C30	C	0.447960	-0.464692	-0.326142
C31	C	0.509051	-0.464695	-0.326138
C32	C	0.978113	-0.715298	-0.326113
C33	C	0.978154	-0.822512	-0.326128
C34	C	0.978225	-1.018807	-0.326170
C35	C	0.978183	-0.909575	-0.326149
C36	C	1.154705	-0.464703	-0.326155
C37	C	1.229937	-0.464711	-0.326165
C38	C	0.978200	-0.464623	-0.502676
C39	C	0.978216	-0.464597	-0.577908
C40	C	0.978230	-0.213091	-0.326167
C41	C	0.978259	-0.105877	-0.326182
C42	C	1.021524	-0.402905	-0.613267
C43	C	1.021531	-0.402877	-0.683955
C44	C	0.978233	-0.464547	-0.719283
C45	C	0.934920	-0.526242	-0.683919
C46	C	0.934910	-0.526264	-0.613232
C47	C	0.934958	-0.526152	-0.968993
C48	C	0.934973	-0.526127	-1.039685
C49	C	1.021579	-0.402765	-1.039716
C50	C	1.021570	-0.402787	-0.969029
C51	C	0.978255	-0.464478	-0.933671
C52	C	0.978247	-0.464507	-0.857022
C53	C	0.978244	-0.464524	-0.795931
C54	C	0.978163	-0.464675	-0.150277
C55	C	0.978278	-0.464429	-0.075045
H56	H	0.236515	-0.576783	-0.404554
H57	H	0.899664	-0.576451	-0.712689
H58	H	1.056799	-0.352644	-0.712742
H59	H	0.899699	-0.576398	-0.940213
C60	C	0.901911	-0.689608	-0.591428
C61	C	0.887317	-0.594087	-0.574356
H62	H	0.872531	-0.731478	-0.567423
H63	H	0.895713	-0.698418	-0.638575
H64	H	0.947387	-0.703711	-0.579852
H65	H	0.841842	-0.579982	-0.585936
H66	H	0.893510	-0.585273	-0.527198
C67	C	0.599234	-0.355702	-0.168369
C68	C	0.582178	-0.335013	-0.235426
H69	H	0.575247	-0.313781	-0.139049
H70	H	0.587632	-0.420486	-0.158388
H71	H	0.646391	-0.346853	-0.162190
H72	H	0.535022	-0.343869	-0.241607
H73	H	0.593776	-0.270214	-0.245410
H74	H	1.056830	-0.352573	-0.940268
C75	C	0.771189	-0.389330	-0.191883
C76	C	0.730570	-0.335008	-0.235413
H77	H	0.795173	-0.347409	-0.162562
H78	H	0.743595	-0.431299	-0.165943
H79	H	0.802354	-0.426112	-0.217624
H80	H	0.699401	-0.298231	-0.209672
H81	H	0.758167	-0.293022	-0.261356
H82	H	0.720520	-0.576753	-0.404511
H83	H	0.592286	-0.576756	-0.404526
H84	H	0.236489	-0.352641	-0.247765
C85	C	0.444307	-0.348058	-0.244556
C86	C	0.374797	-0.335031	-0.235439
H87	H	0.468281	-0.306133	-0.215230
H88	H	0.455875	-0.412840	-0.234570
H89	H	0.455908	-0.334019	-0.290051
H90	H	0.363195	-0.349077	-0.189946
H91	H	0.363225	-0.270233	-0.245420
C92	C	0.843943	-0.539486	-1.119173
C93	C	0.887376	-0.593915	-1.078523
H94	H	0.814565	-0.581337	-1.143153
H95	H	0.818059	-0.497476	-1.091600
H96	H	0.869750	-0.502745	-1.150341
H97	H	0.861569	-0.630652	-1.047351
H98	H	0.913263	-0.635943	-1.106098
C99	C	1.107129	-0.280954	-0.620405
C100	C	1.069119	-0.335113	-0.574438
H101	H	1.136508	-0.239095	-0.596434
H102	H	1.133012	-0.322974	-0.647973
H103	H	1.077644	-0.244051	-0.647977
H104	H	1.098603	-0.372022	-0.546869
H105	H	1.043234	-0.293087	-0.546859
C106	C	1.031034	-0.272973	-1.119222
C107	C	1.069187	-0.334939	-1.078582
H108	H	1.060426	-0.231099	-1.143210
H109	H	1.005256	-0.309694	-1.150377
H110	H	1.001552	-0.236088	-1.091636
H111	H	1.098665	-0.371829	-1.106168
H112	H	1.094976	-0.298214	-1.047423
C113	C	0.328896	-0.648584	-0.454792
C114	C	0.374838	-0.594367	-0.416858
H115	H	0.352887	-0.690491	-0.484119
H116	H	0.301309	-0.685430	-0.425261
H117	H	0.301341	-0.606597	-0.480733
H118	H	0.402390	-0.636354	-0.390913
H119	H	0.402436	-0.557518	-0.446393
