data_functionalizedCrystal
_audit_creation_method	'MofGen! by Chris Wilmer'
_symmetry_space_group_name_H-M	'P1'
_symmetry_Int_Tables_number	1
_symmetry_cell_setting	triclinic
loop_
_symmetry_equiv_pos_as_xyz
  x,y,z
_cell_length_a	14.628931
_cell_length_b	14.628931
_cell_length_c	14.628931
_cell_angle_alpha	90.000118
_cell_angle_beta	119.999807
_cell_angle_gamma	120.000028
loop_
_atom_site_label
_atom_site_type_symbol
_atom_site_fract_x
_atom_site_fract_y
_atom_site_fract_z
Zr1	Zr	-1.000578	0.880616	-0.119957
O2	O	-1.191283	0.734656	-0.265918
O3	O	-0.809873	0.925361	-0.075213
O4	O	-1.000578	0.925361	-0.265918
O5	O	-1.000579	0.734655	0.075219
O6	O	-1.000578	1.075793	-0.265917
O7	O	-1.000578	0.734656	-0.075213
O8	O	-0.659441	1.075793	0.075219
O9	O	-1.341715	0.734655	-0.265918
O10	O	-0.888313	1.056710	-0.056129
O11	O	-0.888313	0.944444	0.056136
O12	O	-1.112844	0.944444	-0.168395
O13	O	-1.112844	0.832178	-0.056129
Zr14	Zr	-1.000579	1.120538	0.119964
Zr15	Zr	-1.000578	1.120538	-0.119957
Zr16	Zr	-1.000579	0.880616	0.119964
Zr17	Zr	-1.240500	0.880616	-0.119957
Zr18	Zr	-0.760657	1.120538	0.119964
O19	O	-1.191284	1.075793	0.075220
O20	O	-1.191283	1.075793	-0.265917
O21	O	-1.191284	0.734655	0.075219
O22	O	-0.809874	1.266498	0.265925
O23	O	-0.809873	1.266499	-0.075212
O24	O	-0.809874	0.925361	0.265924
O25	O	-1.000578	1.266499	-0.075212
O26	O	-1.000579	1.075793	0.265925
O27	O	-1.000579	0.925361	0.265925
O28	O	-1.000579	1.266498	0.075220
O29	O	-1.341715	0.925361	-0.265917
O30	O	-0.659442	1.075793	0.265924
O31	O	-0.659442	1.266499	0.265925
O32	O	-0.659441	1.266499	0.075219
O33	O	-1.341716	0.734655	-0.075212
O34	O	-1.341716	0.925361	-0.075212
O35	O	-0.888313	1.056710	0.168402
O36	O	-0.888313	1.168976	0.056136
O37	O	-1.112844	1.056710	-0.056129
O38	O	-1.112844	0.944444	0.056136
C39	C	-0.700473	1.000577	0.000003
C40	C	-0.598620	1.000578	0.000003
C41	C	-0.553211	0.944886	0.055694
C42	C	-0.447941	0.944885	0.055695
C43	C	-1.000578	0.700472	0.000003
C44	C	-1.000578	0.598619	0.000003
C45	C	-0.300684	1.000577	0.000004
C46	C	-0.402537	1.000576	0.000004
C47	C	-1.000578	0.447945	-0.078755
C48	C	-1.000578	0.553215	-0.078757
C49	C	-1.000578	1.000577	-0.300101
C50	C	-1.000577	1.000578	-0.401954
C51	C	-1.000578	1.300682	0.000004
C52	C	-1.000578	1.402535	0.000004
C53	C	-1.111960	0.944886	-0.503055
C54	C	-1.111962	0.944885	-0.608326
C55	C	-1.000579	1.000577	0.300108
C56	C	-1.000580	1.000576	0.401961
C57	C	-0.700473	1.300683	0.000004
C58	C	-0.598620	1.402536	0.000004
C59	C	-0.700474	1.000577	0.300108
C60	C	-0.598621	1.000577	0.401961
C61	C	-0.700474	1.300682	0.300108
C62	C	-0.598621	1.402535	0.401961
C63	C	-1.300683	0.700472	-0.300101
C64	C	-1.402536	0.598619	-0.401954
C65	C	-1.300684	0.700471	0.000003
C66	C	-1.402537	0.598618	0.000003
C67	C	-1.300683	1.000577	-0.300101
C68	C	-1.402536	1.000577	-0.401954
C69	C	-0.553211	1.392254	-0.055688
C70	C	-0.447941	1.497523	-0.055689
C71	C	-0.553213	1.056268	0.503061
C72	C	-0.447942	1.056270	0.608332
C73	C	-0.553212	1.503636	0.391679
C74	C	-0.447942	1.608908	0.496948
H75	H	-1.000585	0.408885	-0.146187
C76	C	-0.545866	1.519706	0.064419
C77	C	-0.479986	1.554996	0.191727
C78	C	-0.427235	1.672166	0.256144
C79	C	-0.440362	1.754044	0.193253
C80	C	-0.506244	1.718755	0.065938
C81	C	-0.558996	1.601586	0.001521
H82	H	-0.470266	1.494383	0.238288
H83	H	-0.378464	1.698288	0.350391
H84	H	-0.401312	1.840780	0.240939
H85	H	-0.515964	1.779369	0.019377
H86	H	-0.607766	1.575463	-0.092726
H87	H	-1.000572	0.559578	0.067439
C88	C	-0.871742	1.064995	-0.480880
C89	C	-0.839624	1.160003	-0.399000
C90	C	-0.710786	1.224422	-0.281833
C91	C	-0.614068	1.193833	-0.246546
C92	C	-0.646184	1.098820	-0.328427
C93	C	-0.775021	1.034402	-0.445594
H94	H	-0.911223	1.182651	-0.425120
H95	H	-0.687012	1.294757	-0.221219
H96	H	-0.518695	1.241519	-0.159811
H97	H	-0.574585	1.076172	-0.302307
H98	H	-0.798795	0.964067	-0.506208
C99	C	-0.605972	0.880471	0.120105
C100	C	-0.513962	0.911056	0.247414
C101	C	-0.566723	0.846638	0.311825
C102	C	-0.711494	0.751635	0.248929
C103	C	-0.803513	0.721044	0.121614
C104	C	-0.750752	0.785463	0.057202
H105	H	-0.406786	0.981387	0.293980
H106	H	-0.498603	0.869283	0.406073
H107	H	-0.750551	0.703948	0.296610
H108	H	-0.910689	0.650713	0.075047
H109	H	-0.818871	0.762817	-0.037046
H110	H	-0.592273	1.512259	0.304944
C111	C	-0.455279	1.481461	0.609721
C112	C	-0.600048	1.399581	0.559961
C113	C	-0.652796	1.282414	0.571631
C114	C	-0.560776	1.247126	0.633061
C115	C	-0.415999	1.329007	0.682826
C116	C	-0.363250	1.446175	0.671156
H117	H	-0.668174	1.425701	0.514482
H118	H	-0.759970	1.221800	0.534791
H119	H	-0.599824	1.160392	0.641700
H120	H	-0.347872	1.302887	0.728305
H121	H	-0.256076	1.506789	0.707996
H122	H	-0.441576	1.048264	-0.047673
H123	H	-0.559568	0.952894	0.393340
H124	H	-0.408887	0.897208	0.103377
H125	H	-0.408886	1.488895	-0.103364
H126	H	-0.592275	1.103942	0.511681
H127	H	-0.559568	1.048252	-0.047681
H128	H	-1.000571	0.592268	-0.146182
H129	H	-0.592274	1.305517	-0.103371
H130	H	-0.408887	1.695637	0.488319
H131	H	-1.000586	0.441589	0.067429
H132	H	-1.207316	0.897213	-0.511675
H133	H	-1.207320	0.897199	-0.695056
H134	H	-0.559568	1.393915	0.488698
H135	H	-0.905221	1.048259	-0.393334
H136	H	-0.408890	1.103950	0.695063
H137	H	-0.441573	1.607255	0.047693
H138	H	-0.441577	0.952903	0.511318
