data_functionalizedCrystal
_audit_creation_method	'MofGen! by Chris Wilmer'
_symmetry_space_group_name_H-M	'P1'
_symmetry_Int_Tables_number	1
_symmetry_cell_setting	triclinic
loop_
_symmetry_equiv_pos_as_xyz
  x,y,z
_cell_length_a	17.077404
_cell_length_b	19.805405
_cell_length_c	17.077396
_cell_angle_alpha	89.968350
_cell_angle_beta	89.980499
_cell_angle_gamma	90.026635
loop_
_atom_site_label
_atom_site_type_symbol
_atom_site_fract_x
_atom_site_fract_y
_atom_site_fract_z
Zn1	Zn	1.200035	-0.269459	-0.443825
Zn2	Zn	1.450035	-0.019459	-0.193825
Zn3	Zn	1.700035	0.230541	0.056175
Zn4	Zn	1.950035	0.480541	0.306175
Zn5	Zn	1.199934	-0.382652	-0.312552
Zn6	Zn	1.449934	-0.132652	-0.062552
Zn7	Zn	1.699934	0.117348	0.187448
Zn8	Zn	1.949934	0.367348	0.437448
Zn9	Zn	1.068767	-0.269483	-0.312573
Zn10	Zn	1.318767	-0.019483	-0.062573
Zn11	Zn	1.568767	0.230517	0.187427
Zn12	Zn	1.818767	0.480517	0.437427
Zn13	Zn	1.068727	-0.382612	-0.443776
Zn14	Zn	1.318727	-0.132612	-0.193776
Zn15	Zn	1.568727	0.117388	0.056224
Zn16	Zn	1.818727	0.367388	0.306224
O17	O	1.134366	-0.326052	-0.378182
O18	O	1.384366	-0.076052	-0.128182
O19	O	1.634366	0.173948	0.121818
O20	O	1.884366	0.423948	0.371818
O21	O	1.309869	-0.284481	-0.426424
O22	O	1.559869	-0.034481	-0.176424
O23	O	1.809869	0.215519	0.073576
O24	O	2.059869	0.465519	0.323576
O25	O	1.182509	-0.367667	-0.202708
O26	O	1.432509	-0.117667	0.047292
O27	O	1.682509	0.132333	0.297292
O28	O	1.932509	0.382333	0.547292
O29	O	1.086239	-0.174763	-0.330014
O30	O	1.336239	0.075237	-0.080014
O31	O	1.586239	0.325237	0.169986
O32	O	1.836239	0.575237	0.419986
O33	O	1.309795	-0.367644	-0.329978
O34	O	1.559795	-0.117644	-0.079978
O35	O	1.809795	0.132356	0.170022
O36	O	2.059795	0.382356	0.420022
O37	O	1.182681	-0.174746	-0.426444
O38	O	1.432681	0.075254	-0.176444
O39	O	1.682681	0.325254	0.073556
O40	O	1.932681	0.575254	0.323556
O41	O	1.086141	-0.284522	-0.202724
O42	O	1.336141	-0.034522	0.047276
O43	O	1.586141	0.215478	0.297276
O44	O	1.836141	0.465478	0.547276
O45	O	0.958915	-0.284483	-0.329966
O46	O	1.208915	-0.034483	-0.079966
O47	O	1.458915	0.215517	0.170034
O48	O	1.708915	0.465517	0.420034
O49	O	1.086171	-0.367575	-0.553629
O50	O	1.336171	-0.117575	-0.303629
O51	O	1.586171	0.132425	-0.053629
O52	O	1.836171	0.382425	0.196371
O53	O	0.958886	-0.367598	-0.426360
O54	O	1.208886	-0.117598	-0.176360
O55	O	1.458886	0.132402	0.073640
O56	O	1.708886	0.382402	0.323640
O57	O	1.182643	-0.284442	-0.553666
O58	O	1.432643	-0.034442	-0.303666
O59	O	1.682643	0.215558	-0.053666
O60	O	1.932643	0.465558	0.196334
O61	O	1.182470	-0.477363	-0.329930
O62	O	1.432470	-0.227363	-0.079930
O63	O	1.682470	0.022637	0.170070
O64	O	1.932470	0.272637	0.420070
O65	O	1.086073	-0.477334	-0.426339
O66	O	1.336073	-0.227334	-0.176339
O67	O	1.586073	0.022666	0.073661
O68	O	1.836073	0.272666	0.323661
C69	C	0.930418	-0.326039	-0.378160
C70	C	1.180418	-0.076039	-0.128160
C71	C	1.430418	0.173961	0.121840
C72	C	1.680418	0.423961	0.371840
C73	C	0.843168	-0.326050	-0.378169
C74	C	1.093168	-0.076050	-0.128169
C75	C	1.343168	0.173950	0.121831
C76	C	1.593168	0.423950	0.371831
C77	C	0.802183	-0.369394	-0.428281
C78	C	1.052183	-0.119394	-0.178281
C79	C	1.302183	0.130606	0.071719
C80	C	1.552183	0.380606	0.321719
C81	C	0.720203	-0.369395	-0.428294
C82	C	0.970203	-0.119395	-0.178294
C83	C	1.220203	0.130605	0.071706
C84	C	1.470203	0.380605	0.321706
C85	C	0.679209	-0.326056	-0.378190
C86	C	0.929209	-0.076056	-0.128190
C87	C	1.179209	0.173944	0.121810
C88	C	1.429209	0.423944	0.371810
C89	C	0.720200	-0.282708	-0.328076
C90	C	0.970200	-0.032708	-0.078076
C91	C	1.220200	0.217292	0.171924
C92	C	1.470200	0.467292	0.421924
C93	C	0.802179	-0.282703	-0.328068
C94	C	1.052179	-0.032703	-0.078068
C95	C	1.302179	0.217297	0.171932
C96	C	1.552179	0.467297	0.421932
C97	C	0.549330	-0.282721	-0.328095
C98	C	0.799330	-0.032721	-0.078095
C99	C	1.049330	0.217279	0.171905
C100	C	1.299330	0.467279	0.421905
C101	C	0.467345	-0.282726	-0.328102
C102	C	0.717345	-0.032726	-0.078102
C103	C	0.967345	0.217274	0.171898
C104	C	1.217345	0.467274	0.421898
C105	C	0.467354	-0.369413	-0.428321
C106	C	0.717354	-0.119413	-0.178321
C107	C	0.967354	0.130587	0.071679
C108	C	1.217354	0.380587	0.321679
C109	C	0.549333	-0.369409	-0.428313
C110	C	0.799333	-0.119409	-0.178313
C111	C	1.049333	0.130591	0.071687
C112	C	1.299333	0.380591	0.321687
C113	C	0.590318	-0.326061	-0.378197
C114	C	0.840318	-0.076061	-0.128197
C115	C	1.090318	0.173939	0.121803
C116	C	1.340318	0.423939	0.371803
C117	C	1.134278	-0.501908	-0.378144
C118	C	1.384278	-0.251908	-0.128144
C119	C	1.634278	-0.001908	0.121856
C120	C	1.884278	0.248092	0.371856
C121	C	1.134312	-0.577140	-0.378154
C122	C	1.384312	-0.327140	-0.128154
C123	C	1.634312	-0.077140	0.121846
C124	C	1.884312	0.172860	0.371846
C125	C	1.184555	-0.612477	-0.328006
C126	C	1.434555	-0.362477	-0.078006
C127	C	1.684555	-0.112477	0.171994
C128	C	1.934555	0.137523	0.421994
C129	C	1.184588	-0.683165	-0.328023
C130	C	1.434588	-0.433165	-0.078023
C131	C	1.684588	-0.183165	0.171977
C132	C	1.934588	0.066835	0.421977
C133	C	1.134374	-0.718515	-0.378185
C134	C	1.384374	-0.468515	-0.128185
C135	C	1.634374	-0.218515	0.121815
C136	C	1.884374	0.031485	0.371815
C137	C	1.084129	-0.683173	-0.428338
C138	C	1.334129	-0.433173	-0.178338
C139	C	1.584129	-0.183173	0.071662
C140	C	1.834129	0.066827	0.321662
C141	C	1.084100	-0.612486	-0.428324
C142	C	1.334100	-0.362486	-0.178324
C143	C	1.584100	-0.112486	0.071676
C144	C	1.834100	0.137514	0.321676
C145	C	1.084245	-0.968246	-0.428397
C146	C	1.334245	-0.718246	-0.178397
C147	C	1.584245	-0.468246	0.071603
C148	C	1.834245	-0.218246	0.321603
C149	C	1.084276	-1.038938	-0.428405
C150	C	1.334276	-0.788938	-0.178405
C151	C	1.584276	-0.538938	0.071595
C152	C	1.834276	-0.288938	0.321595
C153	C	1.184733	-1.038925	-0.328095
C154	C	1.434733	-0.788925	-0.078095
C155	C	1.684733	-0.538925	0.171905
C156	C	1.934733	-0.288925	0.421905
C157	C	1.184704	-0.968238	-0.328081
C158	C	1.434704	-0.718238	-0.078081
C159	C	1.684704	-0.468238	0.171919
C160	C	1.934704	-0.218238	0.421919
C161	C	1.134462	-0.932902	-0.378237
C162	C	1.384462	-0.682902	-0.128237
C163	C	1.634462	-0.432902	0.121763
C164	C	1.884462	-0.182902	0.371763
C165	C	1.134427	-0.856254	-0.378219
C166	C	1.384427	-0.606254	-0.128219
C167	C	1.634427	-0.356254	0.121781
C168	C	1.884427	-0.106254	0.371781
C169	C	1.134404	-0.795162	-0.378200
C170	C	1.384404	-0.545162	-0.128200
C171	C	1.634404	-0.295162	0.121800
C172	C	1.884404	-0.045162	0.371800
C173	C	1.339110	-0.326064	-0.378204
C174	C	1.589110	-0.076064	-0.128204
C175	C	1.839110	0.173936	0.121796
C176	C	2.089110	0.423936	0.371796
C177	C	1.426360	-0.326070	-0.378213
C178	C	1.676360	-0.076070	-0.128213
C179	C	1.926360	0.173930	0.121787
C180	C	2.176360	0.423930	0.371787
C181	C	1.134414	-0.326002	-0.582926
C182	C	1.384414	-0.076002	-0.332926
C183	C	1.634414	0.173998	-0.082926
C184	C	1.884414	0.423998	0.167074
C185	C	1.134434	-0.325980	-0.670176
C186	C	1.384434	-0.075980	-0.420176
C187	C	1.634434	0.174020	-0.170176
C188	C	1.884434	0.424020	0.079824
C189	C	1.134476	-0.149509	-0.378237
C190	C	1.384476	0.100491	-0.128237
C191	C	1.634476	0.350491	0.121763
C192	C	1.884476	0.600491	0.371763
C193	C	1.134523	-0.074277	-0.378261
C194	C	1.384523	0.175723	-0.128261
C195	C	1.634523	0.425723	0.121739
C196	C	1.884523	0.675723	0.371739
C197	C	1.184668	-0.282690	-0.711186
C198	C	1.434668	-0.032690	-0.461186
C199	C	1.684668	0.217310	-0.211186
C200	C	1.934668	0.467310	0.038814
C201	C	1.184678	-0.282667	-0.793167
C202	C	1.434678	-0.032667	-0.543167
C203	C	1.684678	0.217333	-0.293167
C204	C	1.934678	0.467333	-0.043167
C205	C	1.134456	-0.325939	-0.834135
C206	C	1.384456	-0.075939	-0.584135
C207	C	1.634456	0.174061	-0.334135
C208	C	1.884456	0.424061	-0.084135
C209	C	1.084216	-0.369232	-0.793119
C210	C	1.334216	-0.119232	-0.543119
C211	C	1.584216	0.130768	-0.293119
C212	C	1.834216	0.380768	-0.043119
C213	C	1.084203	-0.369251	-0.711140
C214	C	1.334203	-0.119251	-0.461140
C215	C	1.584203	0.130749	-0.211140
C216	C	1.834203	0.380749	0.038860
C217	C	1.084248	-0.369191	-0.963989
C218	C	1.334248	-0.119191	-0.713989
C219	C	1.584248	0.130809	-0.463989
C220	C	1.834248	0.380809	-0.213989
C221	C	1.084261	-0.369174	-1.045974
C222	C	1.334261	-0.119174	-0.795974
C223	C	1.584261	0.130826	-0.545974
C224	C	1.834261	0.380826	-0.295974
C225	C	1.184722	-0.282608	-1.046016
C226	C	1.434722	-0.032608	-0.796016
C227	C	1.684722	0.217392	-0.546016
C228	C	1.934722	0.467392	-0.296016
C229	C	1.184709	-0.282626	-0.964037
C230	C	1.434709	-0.032626	-0.714037
C231	C	1.684709	0.217374	-0.464037
C232	C	1.934709	0.467374	-0.214037
C233	C	1.134470	-0.325920	-0.923026
C234	C	1.384470	-0.075920	-0.673026
C235	C	1.634470	0.174080	-0.423026
C236	C	1.884470	0.424080	-0.173026
C237	C	1.134364	-0.326052	-0.174234
C238	C	1.384364	-0.076052	0.075766
C239	C	1.634364	0.173948	0.325766
C240	C	1.884364	0.423948	0.575766
C241	C	1.134496	-0.325883	-0.086984
C242	C	1.384496	-0.075883	0.163016
C243	C	1.634496	0.174117	0.413016
C244	C	1.884496	0.424117	0.663016
H245	H	0.582697	-0.247417	-0.287293
H246	H	0.832697	0.002583	-0.037293
H247	H	1.082697	0.252583	0.212707
H248	H	1.332697	0.502583	0.462707
F249	F	0.845805	-0.415525	-0.481605
F250	F	1.095805	-0.165525	-0.231605
F251	F	1.345805	0.084475	0.018395
F252	F	1.595805	0.334475	0.268395
H253	H	1.043364	-0.404408	-1.079328
H254	H	1.293364	-0.154408	-0.829328
H255	H	1.543364	0.095592	-0.579328
H256	H	1.793364	0.345592	-0.329328
F257	F	1.030763	-0.415283	-0.836723
F258	F	1.280763	-0.165283	-0.586723
F259	F	1.530763	0.084717	-0.336723
F260	F	1.780763	0.334717	-0.086723
F261	F	1.030775	-0.415268	-0.920345
F262	F	1.280775	-0.165268	-0.670345
F263	F	1.530775	0.084732	-0.420345
F264	F	1.780775	0.334732	-0.170345
F265	F	1.030772	-0.930648	-0.481776
F266	F	1.280772	-0.680648	-0.231776
F267	F	1.530772	-0.430648	0.018224
F268	F	1.780772	-0.180648	0.268224
H269	H	1.225586	-0.247417	-0.826554
H270	H	1.475586	0.002583	-0.576554
H271	H	1.725586	0.252583	-0.326554
H272	H	1.975586	0.502583	-0.076554
H273	H	1.043188	-0.583715	-0.469161
H274	H	1.293188	-0.333715	-0.219161
H275	H	1.543188	-0.083715	0.030839
H276	H	1.793188	0.166285	0.280839
H277	H	1.225645	-1.067704	-0.287259
H278	H	1.475645	-0.817704	-0.037259
H279	H	1.725645	-0.567704	0.212741
H280	H	1.975645	-0.317704	0.462741
F281	F	0.423718	-0.236603	-0.274773
F282	F	0.673718	0.013397	-0.024773
F283	F	0.923718	0.263397	0.225227
F284	F	1.173718	0.513397	0.475227
F285	F	0.676569	-0.236579	-0.274757
F286	F	0.926569	0.013421	-0.024757
F287	F	1.176569	0.263421	0.225243
F288	F	1.426569	0.513421	0.475243
F289	F	1.030691	-0.720797	-0.481729
F290	F	1.280691	-0.470797	-0.231729
F291	F	1.530691	-0.220797	0.018271
F292	F	1.780691	0.029203	0.268271
F293	F	0.845797	-0.236570	-0.274734
F294	F	1.095797	0.013430	-0.024734
F295	F	1.345797	0.263430	0.225266
F296	F	1.595797	0.513430	0.475266
H297	H	1.225500	-0.711933	-0.287187
H298	H	1.475500	-0.461933	-0.037187
H299	H	1.725500	-0.211933	0.212813
H300	H	1.975500	0.038067	0.462813
H301	H	1.043386	-1.067719	-0.469259
H302	H	1.293386	-0.817719	-0.219259
H303	H	1.543386	-0.567719	0.030741
H304	H	1.793386	-0.317719	0.280741
F305	F	1.238126	-0.236636	-0.667592
F306	F	1.488126	0.013364	-0.417592
F307	F	1.738126	0.263364	-0.167592
F308	F	1.988126	0.513364	0.082408
F309	F	1.238166	-0.236575	-0.920437
F310	F	1.488166	0.013425	-0.670437
F311	F	1.738166	0.263425	-0.420437
F312	F	1.988166	0.513425	-0.170437
H313	H	1.043289	-0.404496	-0.677751
H314	H	1.293289	-0.154496	-0.427751
H315	H	1.543289	0.095504	-0.177751
H316	H	1.793289	0.345504	0.072249
H317	H	1.225590	-0.939458	-0.287232
H318	H	1.475590	-0.689458	-0.037232
H319	H	1.725590	-0.439458	0.212768
H320	H	1.975590	-0.189458	0.462768
H321	H	0.686837	-0.404691	-0.469099
H322	H	0.936837	-0.154691	-0.219099
H323	H	1.186837	0.095309	0.030901
H324	H	1.436837	0.345309	0.280901
F325	F	0.592960	-0.415539	-0.481633
F326	F	0.842960	-0.165539	-0.231633
F327	F	1.092960	0.084461	0.018367
F328	F	1.342960	0.334461	0.268367
F329	F	0.423734	-0.415539	-0.481666
F330	F	0.673734	-0.165539	-0.231666
F331	F	0.923734	0.084461	0.018334
F332	F	1.173734	0.334461	0.268334
F333	F	1.237995	-0.574861	-0.274611
F334	F	1.487995	-0.324861	-0.024611
F335	F	1.737995	-0.074861	0.225389
F336	F	1.987995	0.175139	0.475389
F337	F	1.238192	-0.236531	-1.089663
F338	F	1.488192	0.013469	-0.839663
F339	F	1.738192	0.263469	-0.589663
F340	F	1.988192	0.513469	-0.339663
