data_functionalizedCrystal
_audit_creation_method	'MofGen! by Chris Wilmer'
_symmetry_space_group_name_H-M	'P1'
_symmetry_Int_Tables_number	1
_symmetry_cell_setting	triclinic
loop_
_symmetry_equiv_pos_as_xyz
  x,y,z
_cell_length_a	16.959455
_cell_length_b	13.897447
_cell_length_c	16.959447
_cell_angle_alpha	89.971904
_cell_angle_beta	89.979626
_cell_angle_gamma	90.016550
loop_
_atom_site_label
_atom_site_type_symbol
_atom_site_fract_x
_atom_site_fract_y
_atom_site_fract_z
Zn1	Zn	1.208387	-0.384072	-0.447049
Zn2	Zn	1.708387	0.115928	0.052951
Zn3	Zn	1.208311	-0.545391	-0.314875
Zn4	Zn	1.708311	-0.045391	0.185125
Zn5	Zn	1.076215	-0.384103	-0.314872
Zn6	Zn	1.576215	0.115897	0.185128
Zn7	Zn	1.076181	-0.545319	-0.447000
Zn8	Zn	1.576181	-0.045319	0.053000
O9	O	1.142273	-0.464721	-0.380949
O10	O	1.642273	0.035279	0.119051
O11	O	1.318988	-0.405489	-0.429537
O12	O	1.818988	0.094511	0.070463
O13	O	1.190770	-0.524038	-0.204264
O14	O	1.690770	-0.024038	0.295736
O15	O	1.093794	-0.249117	-0.332425
O16	O	1.593794	0.250883	0.167575
O17	O	1.318932	-0.524009	-0.332430
O18	O	1.818932	-0.024009	0.167570
O19	O	1.190900	-0.249095	-0.429534
O20	O	1.690900	0.250905	0.070466
O21	O	1.093720	-0.405541	-0.204262
O22	O	1.593720	0.094459	0.295738
O23	O	0.965600	-0.405471	-0.332377
O24	O	1.465600	0.094529	0.167623
O25	O	1.093736	-0.523886	-0.557617
O26	O	1.593736	-0.023886	-0.057617
O27	O	0.965575	-0.523916	-0.429451
O28	O	1.465575	-0.023916	0.070549
O29	O	1.190867	-0.405419	-0.557653
O30	O	1.690867	0.094581	-0.057653
O31	O	1.190737	-0.680363	-0.332383
O32	O	1.690737	-0.180363	0.167617
O33	O	1.093662	-0.680310	-0.429454
O34	O	1.593662	-0.180310	0.070546
C35	C	0.936907	-0.464690	-0.380909
C36	C	1.436907	0.035310	0.119091
C37	C	0.849051	-0.464700	-0.380911
C38	C	1.349051	0.035300	0.119089
C39	C	0.477535	-0.526373	-0.330359
C40	C	0.977535	-0.026373	0.169641
C41	C	0.477615	-0.403149	-0.431635
C42	C	0.977615	0.096851	0.068365
C43	C	0.560161	-0.403133	-0.431615
C44	C	1.060161	0.096867	0.068385
C45	C	0.601398	-0.464739	-0.380968
C46	C	1.101398	0.035261	0.119032
C47	C	0.560089	-0.526361	-0.330340
C48	C	1.060089	-0.026361	0.169660
C49	C	0.601476	-0.341519	-0.482248
C50	C	1.101476	0.158481	0.017752
C51	C	0.684027	-0.341502	-0.482232
C52	C	1.184027	0.158498	0.017768
C53	C	0.725265	-0.403104	-0.431580
C54	C	1.225265	0.096896	0.068420
C55	C	0.683951	-0.464727	-0.380949
C56	C	1.183951	0.035273	0.119051
C57	C	0.725188	-0.526334	-0.330302
C58	C	1.225188	-0.026334	0.169698
C59	C	0.683876	-0.587953	-0.279667
C60	C	1.183876	-0.087953	0.220333
C61	C	0.601327	-0.587963	-0.279688
C62	C	1.101327	-0.087963	0.220312
C63	C	0.807814	-0.403093	-0.431558
C64	C	1.307814	0.096907	0.068442
C65	C	0.807742	-0.526322	-0.330283
C66	C	1.307742	-0.026322	0.169717
C67	C	1.142209	-0.715336	-0.380931
C68	C	1.642209	-0.215336	0.119069
C69	C	1.142254	-0.822550	-0.380949
C70	C	1.642254	-0.322550	0.119051
C71	C	1.142292	-0.909619	-0.380967
C72	C	1.642292	-0.409619	0.119033
C73	C	1.142348	-1.018852	-0.380987
C74	C	1.642348	-0.518852	0.119013
C75	C	1.348442	-0.464754	-0.380989
C76	C	1.848442	0.035246	0.119011
C77	C	1.436298	-0.464767	-0.381007
C78	C	1.936298	0.035233	0.118993
C79	C	1.142306	-0.464641	-0.587117
C80	C	1.642306	0.035359	-0.087117
C81	C	1.142320	-0.464607	-0.674974
C82	C	1.642320	0.035393	-0.174974
C83	C	1.142360	-0.213128	-0.380985
C84	C	1.642360	0.286872	0.119015
C85	C	1.142396	-0.105914	-0.381000
C86	C	1.642396	0.394086	0.119000
C87	C	1.091843	-0.526186	-1.046433
C88	C	1.591843	-0.026186	-0.546433
C89	C	1.192986	-0.402825	-1.046466
C90	C	1.692986	0.097175	-0.546466
C91	C	1.192965	-0.402846	-0.963920
C92	C	1.692965	0.097154	-0.463920
C93	C	1.142383	-0.464538	-0.922627
C94	C	1.642383	0.035462	-0.422627
C95	C	1.091822	-0.526210	-0.963880
C96	C	1.591822	-0.026210	-0.463880
C97	C	1.243531	-0.341182	-0.922661
C98	C	1.743531	0.158818	-0.422661
C99	C	1.243513	-0.341201	-0.840110
C100	C	1.743513	0.158799	-0.340110
C101	C	1.192926	-0.402889	-0.798815
C102	C	1.692926	0.097111	-0.298815
C103	C	1.142362	-0.464563	-0.840073
C104	C	1.642362	0.035437	-0.340073
C105	C	1.091780	-0.526255	-0.798780
C106	C	1.591780	-0.026255	-0.298780
C107	C	1.041212	-0.587925	-0.840037
C108	C	1.541212	-0.087925	-0.340037
C109	C	1.041235	-0.587899	-0.922585
C110	C	1.541235	-0.087899	-0.422585
C111	C	1.192903	-0.402915	-0.716267
C112	C	1.692903	0.097085	-0.216267
C113	C	1.091759	-0.526279	-0.716227
C114	C	1.591759	-0.026279	-0.216227
C115	C	1.142286	-0.464731	-0.175583
C116	C	1.642286	0.035269	0.324417
C117	C	1.142425	-0.464493	-0.087726
C118	C	1.642425	0.035507	0.412274
H119	H	0.717656	-0.291327	-0.523461
H120	H	1.217656	0.208673	-0.023461
H121	H	1.284688	-0.290985	-0.806526
H122	H	1.784688	0.209015	-0.306526
F123	F	1.246821	-0.337178	-1.090415
F124	F	1.746821	0.162822	-0.590415
F125	F	0.851778	-0.337523	-0.485447
F126	F	1.351778	0.162477	0.014553
H127	H	1.284717	-0.290961	-0.956288
H128	H	1.784717	0.209039	-0.456288
H129	H	0.567683	-0.638130	-0.238464
H130	H	1.067683	-0.138130	0.261536
F131	F	1.038025	-0.591813	-1.090341
F132	F	1.538025	-0.091813	-0.590341
H133	H	1.000068	-0.638110	-0.956184
H134	H	1.500068	-0.138110	-0.456184
H135	H	1.234077	-0.352707	-0.682679
H136	H	1.734077	0.147293	-0.182679
F137	F	0.557585	-0.275970	-0.536156
F138	F	1.057585	0.224030	-0.036156
F139	F	0.987385	-0.653585	-0.796080
F140	F	1.487385	-0.153585	-0.296080
F141	F	0.433568	-0.591946	-0.276469
F142	F	0.933568	-0.091946	0.223531
H143	H	1.050561	-0.576509	-0.682612
H144	H	1.550561	-0.076509	-0.182612
H145	H	0.841311	-0.576486	-0.289036
H146	H	1.341311	-0.076486	0.210964
F147	F	0.727772	-0.653522	-0.225771
F148	F	1.227772	-0.153522	0.274229
H149	H	0.444035	-0.352998	-0.472874
H150	H	0.944035	0.147002	0.027126
