data_functionalizedCrystal
_audit_creation_method	'MofGen! by Chris Wilmer'
_symmetry_space_group_name_H-M	'P1'
_symmetry_Int_Tables_number	1
_symmetry_cell_setting	triclinic
loop_
_symmetry_equiv_pos_as_xyz
  x,y,z
_cell_length_a	15.995350
_cell_length_b	13.339070
_cell_length_c	14.472310
_cell_angle_alpha	90.004068
_cell_angle_beta	89.990621
_cell_angle_gamma	99.560835
loop_
_atom_site_label
_atom_site_type_symbol
_atom_site_fract_x
_atom_site_fract_y
_atom_site_fract_z
O1	O	-1.141288	-0.130389	0.076757
O2	O	-0.901254	-0.146491	0.076776
O3	O	-0.993723	0.008823	0.076766
O4	O	-1.048819	-0.285704	0.076767
O5	O	-0.993692	0.008814	-0.076916
O6	O	-0.901223	-0.146500	-0.076906
O7	O	-1.141257	-0.130398	-0.076925
Cu8	Cu	-1.021237	-0.138450	-0.090948
Cu9	Cu	-1.021274	-0.138439	0.090799
O10	O	-1.048788	-0.285713	-0.076915
C11	C	-0.869889	-0.145830	-0.000063
C12	C	-0.776475	-0.143834	-0.000056
C13	C	-0.984400	0.046508	-0.000073
C14	C	-0.956659	0.158810	-0.000067
C15	C	-1.172622	-0.131059	-0.000084
C16	C	-1.266036	-0.133055	-0.000085
C17	C	-0.437062	-0.136667	-0.000075
C18	C	-0.458799	-0.026055	-0.000418
C19	C	-0.555953	-0.028051	-0.000065
C20	C	-0.605449	-0.140222	-0.000066
C21	C	-0.577054	-0.194775	0.087691
C22	C	-0.479773	-0.191996	0.087758
C23	C	-0.479930	-0.194292	-0.087008
C24	C	-0.576869	-0.194265	-0.088161
C25	C	-0.700614	-0.142237	-0.000058
C26	C	-0.341897	-0.134655	-0.000077
C27	C	-1.058111	-0.323397	-0.000074
C28	C	-1.085852	-0.435699	-0.000074
N29	N	-1.021217	-0.138457	-0.218779
C30	C	-1.172362	0.523603	-0.000084
C31	C	-1.198430	0.418090	-0.000095
C32	C	-1.137989	0.353265	-0.000088
C33	C	-1.051477	0.393963	-0.000070
C34	C	-1.025407	0.499486	-0.000067
C35	C	-0.991034	0.329148	-0.000070
C36	C	-0.904522	0.369846	-0.000053
C37	C	-0.878457	0.475359	-0.000049
C38	C	-0.938897	0.540184	-0.000056
C39	C	-1.017104	0.223625	-0.000074
C40	C	-0.870149	0.199508	-0.000056
C41	C	-0.844081	0.305021	-0.000046
C42	C	-1.021272	-0.138435	-0.592870
C43	C	-0.971498	-0.221262	-0.553699
C44	C	-0.971727	-0.221564	-0.446611
C45	C	-1.021244	-0.138446	-0.407279
C46	C	-1.113965	-0.161500	-0.446123
C47	C	-1.113714	-0.162089	-0.553244
C48	C	-0.979047	-0.032308	-0.553398
C49	C	-0.977208	-0.033016	-0.446270
C50	C	-1.021233	-0.138450	-0.302391
C51	C	-1.021289	-0.138433	-0.697758
N52	N	-1.021298	-0.138424	0.218630
H53	H	-0.574406	0.014831	-0.062973
H54	H	-1.000756	-0.299574	-0.580609
H55	H	-0.429992	0.018156	-0.063352
Br56	Br	-1.169488	-0.291089	-0.594879
Br57	Br	-1.030572	0.074533	-0.401666
Br58	Br	-1.254378	0.611581	-0.000116
H59	H	-1.159218	0.267352	-0.000097
Br60	Br	-0.761048	0.530590	-0.000043
Br61	Br	-0.903522	0.683387	0.000083
H62	H	-0.467114	-0.275845	-0.087601
Br63	Br	-1.020886	-0.352842	-0.403878
H64	H	-0.452235	-0.152206	0.153358
Br65	Br	-0.606811	-0.127778	-0.196369
Br66	Br	-1.134508	0.168405	-0.000100
H67	H	-0.466392	-0.273205	0.091740
H68	H	-0.611236	-0.276065	-0.093462
Br69	Br	-0.863316	-0.003850	-0.403961
H70	H	-0.820933	0.146727	-0.000055
Br71	Br	-0.632529	-0.332119	0.093155
Br72	Br	-0.726675	0.360266	-0.000017
Br73	Br	-0.431682	-0.134024	-0.197876
Br74	Br	-1.178875	-0.063625	-0.403665
Br75	Br	-1.179300	-0.065254	-0.596436
H76	H	-0.903597	-0.207828	-0.420350
Br77	Br	-0.857666	-0.198730	-0.596644
Br78	Br	-1.170019	-0.289030	-0.401396
Br79	Br	-0.866574	0.004622	-0.598471
Br80	Br	-1.039066	0.070425	-0.595614
H81	H	-0.596638	-0.156878	0.153001
H82	H	-0.428993	0.017960	0.062168
H83	H	-1.268867	0.384962	-0.000110
H84	H	-0.573793	0.015128	0.062951
