data_functionalizedCrystal
_audit_creation_method	'MofGen! by Chris Wilmer'
_symmetry_space_group_name_H-M	'P1'
_symmetry_Int_Tables_number	1
_symmetry_cell_setting	triclinic
loop_
_symmetry_equiv_pos_as_xyz
  x,y,z
_cell_length_a	11.792241
_cell_length_b	11.792254
_cell_length_c	9.798715
_cell_angle_alpha	90.000223
_cell_angle_beta	90.006712
_cell_angle_gamma	84.196007
loop_
_atom_site_label
_atom_site_type_symbol
_atom_site_fract_x
_atom_site_fract_y
_atom_site_fract_z
O1	O	0.155640	1.506893	0.113490
O2	O	0.171658	1.176554	0.113493
O3	O	-0.001521	1.349740	0.113482
O4	O	0.328819	1.333707	0.113502
O5	O	-0.001534	1.349739	-0.113500
O6	O	0.171645	1.176553	-0.113489
O7	O	0.155627	1.506892	-0.113492
Zn8	Zn	0.163634	1.341723	-0.149529
Zn9	Zn	0.163651	1.341723	0.149530
O10	O	0.328806	1.333706	-0.113481
C11	C	0.170642	1.134263	0.000003
C12	C	0.167622	1.008250	0.000004
C13	C	0.165168	0.905913	0.000009
C14	C	0.162100	0.777527	0.000010
C15	C	-0.043819	1.348732	-0.000008
C16	C	-0.169832	1.345718	-0.000007
C17	C	-0.400545	1.340175	0.000016
C18	C	-0.272160	1.343255	0.000003
C19	C	0.371104	1.334714	0.000013
C20	C	0.497118	1.337728	0.000021
C21	C	0.156643	1.549183	0.000002
C22	C	0.159663	1.675196	0.000010
N23	N	0.163654	1.341724	0.353630
N24	N	0.163622	1.341731	-0.353628
C25	C	0.090779	1.414599	0.421402
C26	C	0.090761	1.414603	0.578565
H27	H	0.028365	1.476990	0.636846
N28	N	0.246266	1.259073	0.569188
H29	H	0.296763	1.302808	0.509914
H30	H	0.294808	1.210462	0.636125
N31	N	0.008154	1.497252	0.344156
H32	H	0.019881	1.485535	0.242833
H33	H	-0.072472	1.483647	0.369032
N34	N	0.246278	1.259080	0.430890
H35	H	0.232704	1.178423	0.406092
H36	H	0.326906	1.272741	0.406093
