data_functionalizedCrystal
_audit_creation_method	'MofGen! by Chris Wilmer'
_symmetry_space_group_name_H-M	'P1'
_symmetry_Int_Tables_number	1
_symmetry_cell_setting	triclinic
loop_
_symmetry_equiv_pos_as_xyz
  x,y,z
_cell_length_a	19.077115
_cell_length_b	12.827892
_cell_length_c	19.076919
_cell_angle_alpha	92.275345
_cell_angle_beta	90.076897
_cell_angle_gamma	87.711885
loop_
_atom_site_label
_atom_site_type_symbol
_atom_site_fract_x
_atom_site_fract_y
_atom_site_fract_z
Zn1	Zn	1.058323	-0.505562	-0.440427
Zn2	Zn	1.062980	-0.673587	-0.322927
Zn3	Zn	0.945539	-0.491562	-0.318221
Zn4	Zn	0.940802	-0.672956	-0.435681
O5	O	1.001911	-0.585917	-0.379314
O6	O	1.157273	-0.533973	-0.428796
O7	O	1.051333	-0.643846	-0.223971
O8	O	0.960534	-0.347186	-0.334448
O9	O	1.160695	-0.657420	-0.342469
O10	O	1.043395	-0.357471	-0.424232
O11	O	0.965050	-0.510113	-0.220513
O12	O	0.846578	-0.509502	-0.329846
O13	O	0.952460	-0.656346	-0.534642
O14	O	0.843098	-0.642772	-0.416144
O15	O	1.038802	-0.533362	-0.538129
O16	O	1.046740	-0.819736	-0.337867
O17	O	0.956976	-0.819273	-0.420707
C18	C	0.819342	-0.574550	-0.371970
C19	C	0.741237	-0.569714	-0.368845
C20	C	1.001868	-0.857423	-0.379299
C21	C	1.001912	-0.973580	-0.379319
C22	C	0.301783	-0.534980	-0.346438
C23	C	0.375170	-0.539531	-0.349378
C24	C	0.410071	-0.611298	-0.395706
C25	C	0.371580	-0.678512	-0.439101
C26	C	0.298194	-0.673956	-0.436164
C27	C	0.629360	-0.632371	-0.409303
C28	C	0.702752	-0.636925	-0.412235
C29	C	0.706337	-0.497942	-0.322513
C30	C	0.632949	-0.493396	-0.319577
C31	C	0.594464	-0.560606	-0.362975
N32	N	0.485085	-0.615953	-0.398710
N33	N	0.519452	-0.555945	-0.359973
C34	C	1.042894	-1.030372	-0.423784
C35	C	1.042942	-1.150426	-0.423806
C36	C	1.185193	-0.597328	-0.386687
C37	C	1.263297	-0.602191	-0.389829
C38	C	0.994583	-0.596345	-0.562594
C39	C	0.991460	-0.600789	-0.640698
C40	C	1.001973	-0.313352	-0.379345
C41	C	1.002000	-0.197201	-0.379358
C42	C	1.034944	-0.538849	-0.679207
C43	C	1.032001	-0.543020	-0.752593
C44	C	0.985577	-0.609138	-0.787469
C45	C	0.942088	-0.671081	-0.748954
C46	C	0.945028	-0.666903	-0.675569
C47	C	0.971961	-0.628492	-1.006751
C48	C	0.969026	-0.632667	-1.080141
C49	C	1.058939	-0.504604	-1.083775
C50	C	1.061877	-0.500437	-1.010389
C51	C	1.018386	-0.562376	-0.971880
N52	N	0.982570	-0.613405	-0.862481
N53	N	1.021390	-0.558102	-0.896869
C54	C	1.009251	-0.575456	-0.196748
C55	C	1.012510	-0.570726	-0.118650
H56	H	0.273372	-0.476541	-0.308712
H57	H	1.077943	-0.990116	-0.461840
F58	F	0.892677	-0.741444	-0.786072
F59	F	0.416126	-0.467989	-0.303200
H60	H	1.099683	-0.446600	-0.981999
H61	H	0.604538	-0.434963	-0.281847
H62	H	1.072750	-0.485011	-0.650817
H63	H	1.078031	-1.199247	-0.461872
F64	F	0.898744	-0.732826	-0.634584
F65	F	0.739894	-0.713313	-0.461545
H66	H	0.966914	-1.148388	-0.341284
F67	F	0.747300	-0.426414	-0.276331
H68	H	0.966858	-1.013838	-0.341269
F69	F	1.105220	-0.438686	-1.124764
H70	H	0.400002	-0.736942	-0.476825
F71	F	1.078307	-0.477131	-0.793576
F72	F	0.925673	-0.694413	-0.965776
F73	F	0.588411	-0.703907	-0.455489
F74	F	0.257235	-0.745488	-0.482348
H75	H	0.931220	-0.686510	-1.108534
