data_functionalizedCrystal
_audit_creation_method	'MofGen! by Chris Wilmer'
_symmetry_space_group_name_H-M	'P1'
_symmetry_Int_Tables_number	1
_symmetry_cell_setting	triclinic
loop_
_symmetry_equiv_pos_as_xyz
  x,y,z
_cell_length_a	27.732048
_cell_length_b	14.519709
_cell_length_c	12.996460
_cell_angle_alpha	90.007090
_cell_angle_beta	89.991924
_cell_angle_gamma	96.838601
loop_
_atom_site_label
_atom_site_type_symbol
_atom_site_fract_x
_atom_site_fract_y
_atom_site_fract_z
O1	O	0.641452	-0.109733	-0.085627
O2	O	0.500739	-0.126418	-0.085617
O3	O	0.574826	0.016228	-0.085613
O4	O	0.567365	-0.252379	-0.085631
O5	O	0.574818	0.016236	0.085521
O6	O	0.500731	-0.126410	0.085517
O7	O	0.641445	-0.109725	0.085507
Cu8	Cu	0.571087	-0.118067	0.101138
Cu9	Cu	0.571096	-0.118076	-0.101248
O10	O	0.567357	-0.252371	0.085503
C11	C	0.574475	0.050586	-0.000046
C12	C	0.573433	0.152949	-0.000045
C13	C	0.659457	-0.110079	-0.000064
C14	C	0.713117	-0.111134	-0.000075
C15	C	0.482726	-0.126064	-0.000049
C16	C	0.429066	-0.125009	-0.000044
C17	C	1.051561	-0.033479	-0.000035
C18	C	1.253239	-0.037392	-0.000031
O19	O	1.284155	0.033618	0.000017
N20	N	1.272767	-0.121975	-0.000040
C21	C	1.241872	-0.205586	-0.000043
O22	O	1.263110	-0.277619	-0.000040
C23	C	1.040195	-0.201672	-0.000039
C24	C	1.020670	-0.117083	-0.000040
C25	C	1.032035	0.051103	-0.000035
C26	C	0.981619	0.052080	-0.000042
C27	C	0.950728	-0.031524	-0.000047
C28	C	0.970253	-0.116106	-0.000047
C29	C	1.009301	-0.285282	-0.000034
C30	C	0.958879	-0.284296	-0.000030
C31	C	0.939354	-0.199707	-0.000032
C32	C	0.888945	-0.198733	-0.000059
N33	N	0.869417	-0.114150	-0.000050
C34	C	0.900309	-0.030546	-0.000044
C35	C	1.347756	-0.207635	-0.000047
C36	C	1.398175	-0.208613	-0.000050
C37	C	1.409539	-0.040419	-0.000037
C38	C	1.359119	-0.039441	-0.000041
C39	C	1.328228	-0.123052	-0.000038
C40	C	0.794430	-0.028500	-0.000059
C41	C	0.744008	-0.027530	-0.000069
C42	C	0.732649	-0.195723	-0.000077
C43	C	0.783066	-0.196694	-0.000072
C44	C	0.813956	-0.113074	-0.000059
O45	O	0.858001	-0.269705	-0.000096
O46	O	0.879062	0.041477	-0.000025
C47	C	1.101977	-0.034456	-0.000028
C48	C	1.121503	-0.119038	-0.000028
C49	C	1.090612	-0.202642	-0.000033
C50	C	1.171922	-0.120017	-0.000030
C51	C	1.202813	-0.036412	-0.000025
C52	C	1.183285	0.048171	-0.000016
C53	C	1.132869	0.049148	-0.000022
C54	C	1.110140	-0.287225	-0.000042
C55	C	1.160557	-0.288196	-0.000037
C56	C	1.191448	-0.204591	-0.000031
C57	C	0.567708	-0.286729	-0.000067
C58	C	0.568751	-0.389092	-0.000074
N59	N	0.571084	-0.118060	0.243485
C60	C	0.569596	0.527778	-0.000072
C61	C	0.570662	0.423488	-0.000064
C62	C	0.571514	0.340367	-0.000058
C63	C	0.572580	0.236071	-0.000052
N64	N	0.571103	-0.118076	-0.243595
C65	C	0.571095	-0.118077	0.663299
C66	C	0.571091	-0.118075	0.546494
C67	C	0.571090	-0.118069	0.453396
C68	C	0.571085	-0.118066	0.336583
H69	H	0.728114	0.041355	-0.000073
N70	N	0.804129	-0.287925	-0.000085
H71	H	0.776907	-0.340739	-0.000093
H72	H	0.824792	-0.291991	0.063363
H73	H	1.208446	0.116244	-0.000017
H74	H	1.434699	0.027655	-0.000036
H75	H	1.025189	-0.354162	-0.000037
N76	N	0.699326	-0.285893	-0.000088
H77	H	0.664424	-0.272431	-0.000087
H78	H	0.705651	-0.322781	0.063355
N79	N	1.181613	-0.379436	-0.000051
H80	H	1.154389	-0.432246	-0.000055
H81	H	1.202278	-0.383507	0.063393
N82	N	1.419232	-0.299847	-0.000075
H83	H	1.392007	-0.352657	-0.000078
H84	H	1.439900	-0.303922	0.063363
H85	H	1.322609	-0.275724	-0.000046
H86	H	1.084993	-0.355308	-0.000045
N87	N	0.925561	-0.374477	-0.000003
H88	H	0.945584	-0.428205	0.000004
H89	H	0.904394	-0.377757	-0.063440
H90	H	1.057182	0.119187	-0.000027
H91	H	1.116976	0.118029	-0.000024
N92	N	0.827743	0.061685	-0.000057
H93	H	0.848911	0.065043	0.063384
H94	H	0.807684	0.115358	-0.000099
N95	N	0.960563	0.143315	-0.000034
H96	H	0.987789	0.196122	-0.000025
H97	H	0.939889	0.147387	0.063411
H98	H	1.343225	0.029438	-0.000042
