data_functionalizedCrystal
_audit_creation_method	'MofGen! by Chris Wilmer'
_symmetry_space_group_name_H-M	'P1'
_symmetry_Int_Tables_number	1
_symmetry_cell_setting	triclinic
loop_
_symmetry_equiv_pos_as_xyz
  x,y,z
_cell_length_a	10.540510
_cell_length_b	14.519709
_cell_length_c	12.996460
_cell_angle_alpha	89.999398
_cell_angle_beta	89.997788
_cell_angle_gamma	95.903272
loop_
_atom_site_label
_atom_site_type_symbol
_atom_site_fract_x
_atom_site_fract_y
_atom_site_fract_z
O1	O	0.166391	-1.224754	0.085427
O2	O	0.499725	-0.891421	0.418760
O3	O	0.833058	-0.558087	0.752094
O4	O	0.185987	-0.956381	0.085458
O5	O	0.519320	-0.623048	0.418791
O6	O	0.852654	-0.289715	0.752124
O7	O	-0.008582	-1.096705	0.085441
O8	O	0.324751	-0.763371	0.418775
O9	O	0.658084	-0.430038	0.752108
O10	O	0.360961	-1.084431	0.085443
O11	O	0.694294	-0.751097	0.418777
O12	O	1.027627	-0.417764	0.752110
O13	O	-0.008571	-1.096687	-0.085693
O14	O	0.324762	-0.763353	0.247641
O15	O	0.658095	-0.430020	0.580974
O16	O	0.185998	-0.956363	-0.085676
O17	O	0.519332	-0.623030	0.247657
O18	O	0.852665	-0.289696	0.580991
O19	O	0.166402	-1.224736	-0.085707
O20	O	0.499736	-0.891403	0.247627
O21	O	0.833069	-0.558069	0.580960
Cu22	Cu	0.176201	-1.090548	-0.101317
Cu23	Cu	0.509535	-0.757215	0.232016
Cu24	Cu	0.842868	-0.423881	0.565349
Cu25	Cu	0.176188	-1.090569	0.101068
Cu26	Cu	0.509521	-0.757236	0.434402
Cu27	Cu	0.842855	-0.423903	0.767735
O28	O	0.360972	-1.084412	-0.085690
O29	O	0.694305	-0.751079	0.247643
O30	O	1.027639	-0.417746	0.580976
C31	C	0.185079	-0.922008	-0.000105
C32	C	0.518413	-0.588674	0.333228
C33	C	0.851746	-0.255341	0.666562
C34	C	0.182343	-0.819612	-0.000093
C35	C	0.515676	-0.486278	0.333240
C36	C	0.849009	-0.152945	0.666573
N37	N	0.176210	-1.090539	-0.243664
N38	N	0.509543	-0.757206	0.089669
N39	N	0.842877	-0.423873	0.423002
C40	C	-0.055871	-1.095781	-0.000123
C41	C	0.277462	-0.762448	0.333210
C42	C	0.610796	-0.429114	0.666543
C43	C	-0.196793	-1.093044	-0.000117
C44	C	0.136540	-0.759711	0.333216
C45	C	0.469874	-0.426378	0.666550
C46	C	-0.415244	-1.190527	-0.000520
C47	C	-0.081910	-0.857193	0.332813
C48	C	0.251423	-0.523860	0.666147
C49	C	-0.268678	-1.193446	-0.000129
C50	C	0.064655	-0.860112	0.333204
C51	C	0.397989	-0.526779	0.666537
C52	C	-0.241033	-1.041659	0.097613
C53	C	0.092300	-0.708326	0.430946
C54	C	0.425633	-0.374992	0.764279
C55	C	-0.387772	-1.039451	0.097689
C56	C	-0.054439	-0.706118	0.431023
C57	C	0.278895	-0.372785	0.764356
C58	C	-0.387546	-1.037340	-0.096921
C59	C	-0.054213	-0.704006	0.236412
C60	C	0.279120	-0.370673	0.569745
C61	C	-0.241254	-1.042102	-0.098208
C62	C	0.092080	-0.708768	0.235125
C63	C	0.425413	-0.375435	0.568458
C64	C	0.408261	-1.085336	-0.000123
C65	C	0.741594	-0.752003	0.333210
C66	C	1.074927	-0.418670	0.666543
C67	C	0.549183	-1.088073	-0.000123
C68	C	0.882516	-0.754739	0.333210
C69	C	1.215849	-0.421406	0.666544
C70	C	0.167310	-1.259110	-0.000142
C71	C	0.500643	-0.925776	0.333192
C72	C	0.833977	-0.592443	0.666525
C73	C	0.170047	-1.361505	-0.000147
C74	C	0.503380	-1.028172	0.333186
C75	C	0.836713	-0.694839	0.666520
C76	C	0.172268	-0.444662	-0.000140
C77	C	0.505601	-0.111329	0.333193
C78	C	0.838935	0.222004	0.666527
C79	C	0.175066	-0.548985	-0.000127
C80	C	0.508399	-0.215652	0.333207
C81	C	0.841732	0.117681	0.666540
C82	C	0.177305	-0.632134	-0.000116
C83	C	0.510638	-0.298800	0.333218
C84	C	0.843972	0.034533	0.666551
C85	C	0.180103	-0.736463	-0.000104
C86	C	0.513437	-0.403130	0.333229
C87	C	0.846770	-0.069797	0.666562
C88	C	0.176213	-1.090544	-0.336770
C89	C	0.509546	-0.757210	-0.003437
C90	C	0.842880	-0.423877	0.329896
C91	C	0.176205	-1.090552	-0.453575
C92	C	0.509538	-0.757219	-0.120242
C93	C	0.842871	-0.423885	0.213091
C94	C	0.176191	-1.090564	-0.546674
C95	C	0.509524	-0.757230	-0.213340
C96	C	0.842857	-0.423897	0.119993
C97	C	0.176183	-1.090573	-0.663486
C98	C	0.509517	-0.757240	-0.330153
C99	C	0.842850	-0.423907	0.003180
N100	N	0.176169	-1.090585	0.243415
N101	N	0.509503	-0.757252	0.576749
N102	N	0.842836	-0.423918	0.910082
H103	H	-0.239740	-1.233652	-0.070185
H104	H	0.093594	-0.900319	0.263149
H105	H	0.426927	-0.566985	0.596482
Br106	Br	-0.424830	-0.914295	0.105102
Br107	Br	-0.091497	-0.580962	0.438435
Br108	Br	0.241836	-0.247628	0.771769
Br109	Br	-0.458924	-1.090144	-0.220384
Br110	Br	-0.125591	-0.756811	0.112949
Br111	Br	0.207743	-0.423477	0.446282
H112	H	-0.213019	-1.079492	-0.170508
H113	H	0.120315	-0.746158	0.162826
H114	H	0.453648	-0.412825	0.496159
Br115	Br	-0.485824	-1.255716	-0.117340
Br116	Br	-0.152491	-0.922382	0.215993
Br117	Br	0.180843	-0.589049	0.549327
H118	H	-0.192890	-0.967746	0.101255
H119	H	0.140443	-0.634412	0.434588
H120	H	0.473776	-0.301079	0.767922
H121	H	-0.191438	-0.968800	-0.104101
H122	H	0.141895	-0.635467	0.229232
H123	H	0.475228	-0.302134	0.562566
H124	H	-0.459151	-1.229424	0.069162
H125	H	-0.125818	-0.896090	0.402495
H126	H	0.207516	-0.562757	0.735828
H127	H	-0.428351	-1.074583	0.170736
H128	H	-0.095017	-0.741250	0.504069
H129	H	0.238316	-0.407916	0.837402
Br130	Br	-0.222017	-1.260871	0.116825
Br131	Br	0.111316	-0.927538	0.450158
Br132	Br	0.444650	-0.594204	0.783491
Br133	Br	-0.190228	-1.101160	0.218825
Br134	Br	0.143105	-0.767827	0.552158
Br135	Br	0.476438	-0.434494	0.885491
Br136	Br	-0.423180	-0.911699	-0.098007
Br137	Br	-0.089847	-0.578366	0.235326
Br138	Br	0.243486	-0.245032	0.568660
