data_functionalizedCrystal
_audit_creation_method	'MofGen! by Chris Wilmer'
_symmetry_space_group_name_H-M	'P1'
_symmetry_Int_Tables_number	1
_symmetry_cell_setting	triclinic
loop_
_symmetry_equiv_pos_as_xyz
  x,y,z
_cell_length_a	13.897449
_cell_length_b	12.594516
_cell_length_c	13.897441
_cell_angle_alpha	89.973623
_cell_angle_beta	89.979267
_cell_angle_gamma	90.017332
loop_
_atom_site_label
_atom_site_type_symbol
_atom_site_fract_x
_atom_site_fract_y
_atom_site_fract_z
Zn1	Zn	1.474714	-0.423672	-0.545409
Zn2	Zn	1.724714	-0.173672	-0.295409
Zn3	Zn	1.974714	0.076328	-0.045409
Zn4	Zn	2.224714	0.326328	0.204591
Zn5	Zn	1.474612	-0.601683	-0.384123
Zn6	Zn	1.724612	-0.351683	-0.134123
Zn7	Zn	1.974612	-0.101683	0.115877
Zn8	Zn	2.224612	0.148317	0.365877
Zn9	Zn	1.313403	-0.423722	-0.384128
Zn10	Zn	1.563403	-0.173722	-0.134128
Zn11	Zn	1.813403	0.076278	0.115872
Zn12	Zn	2.063403	0.326278	0.365872
Zn13	Zn	1.313389	-0.601613	-0.545375
Zn14	Zn	1.563389	-0.351613	-0.295375
Zn15	Zn	1.813389	-0.101613	-0.045375
Zn16	Zn	2.063389	0.148387	0.204625
O17	O	1.394029	-0.512672	-0.464759
O18	O	1.644029	-0.262672	-0.214759
O19	O	1.894029	-0.012672	0.035241
O20	O	2.144029	0.237328	0.285241
O21	O	1.609682	-0.447293	-0.524027
O22	O	1.859682	-0.197293	-0.274027
O23	O	2.109682	0.052707	-0.024027
O24	O	2.359682	0.302707	0.225973
O25	O	1.453191	-0.578126	-0.249142
O26	O	1.703191	-0.328126	0.000858
O27	O	1.953191	-0.078126	0.250858
O28	O	2.203191	0.171874	0.500858
O29	O	1.334849	-0.274770	-0.405539
O30	O	1.584849	-0.024770	-0.155539
O31	O	1.834849	0.225230	0.094461
O32	O	2.084849	0.475230	0.344461
O33	O	1.609607	-0.578077	-0.405530
O34	O	1.859607	-0.328077	-0.155530
O35	O	2.109607	-0.078077	0.094470
O36	O	2.359607	0.171923	0.344470
O37	O	1.453364	-0.274733	-0.524032
O38	O	1.703364	-0.024733	-0.274032
O39	O	1.953364	0.225267	-0.024032
O40	O	2.203364	0.475267	0.225968
O41	O	1.334751	-0.447380	-0.249145
O42	O	1.584751	-0.197380	0.000855
O43	O	1.834751	0.052620	0.250855
O44	O	2.084751	0.302620	0.500855
O45	O	1.178419	-0.447312	-0.405506
O46	O	1.428419	-0.197312	-0.155506
O47	O	1.678419	0.052688	0.094494
O48	O	1.928419	0.302688	0.344494
O49	O	1.334826	-0.577958	-0.680362
O50	O	1.584826	-0.327958	-0.430362
O51	O	1.834826	-0.077958	-0.180362
O52	O	2.084826	0.172042	0.069638
O53	O	1.178409	-0.578007	-0.523973
O54	O	1.428409	-0.328007	-0.273973
O55	O	1.678409	-0.078007	-0.023973
O56	O	1.928409	0.171993	0.226027
O57	O	1.453350	-0.447226	-0.680387
O58	O	1.703350	-0.197226	-0.430387
O59	O	1.953350	0.052774	-0.180387
O60	O	2.203350	0.302774	0.069613
O61	O	1.453177	-0.750619	-0.405497
O62	O	1.703177	-0.500619	-0.155497
O63	O	1.953177	-0.250619	0.094503
O64	O	2.203177	-0.000619	0.344503
O65	O	1.334728	-0.750568	-0.523968
O66	O	1.584728	-0.500568	-0.273968
O67	O	1.834728	-0.250568	-0.023968
O68	O	2.084728	-0.000568	0.226032
C69	C	1.143415	-0.512658	-0.464737
C70	C	1.393415	-0.262658	-0.214737
C71	C	1.643415	-0.012658	0.035263
C72	C	1.893415	0.237342	0.285263
C73	C	1.036201	-0.512678	-0.464750
C74	C	1.286201	-0.262678	-0.214750
C75	C	1.536201	-0.012678	0.035250
C76	C	1.786201	0.237322	0.285250
C77	C	0.839906	-0.512682	-0.464776
C78	C	1.089906	-0.262682	-0.214776
C79	C	1.339906	-0.012682	0.035224
C80	C	1.589906	0.237318	0.285224
C81	C	0.949139	-0.512676	-0.464759
C82	C	1.199139	-0.262676	-0.214759
C83	C	1.449139	-0.012676	0.035241
C84	C	1.699139	0.237324	0.285241
C85	C	1.393966	-0.789213	-0.464749
C86	C	1.643966	-0.539213	-0.214749
C87	C	1.893966	-0.289213	0.035251
C88	C	2.143966	-0.039213	0.285251
C89	C	1.394027	-0.907519	-0.464778
C90	C	1.644027	-0.657519	-0.214778
C91	C	1.894027	-0.407519	0.035222
C92	C	2.144027	-0.157519	0.285222
C93	C	1.329596	-0.976783	-0.529169
C94	C	1.579596	-0.726783	-0.279169
C95	C	1.829596	-0.476783	-0.029169
C96	C	2.079596	-0.226783	0.220831
C97	C	1.306093	-1.047649	-0.441152
C98	C	1.556093	-0.797649	-0.191152
C99	C	1.806093	-0.547649	0.058848
C100	C	2.056093	-0.297649	0.308848
C101	C	1.417619	-1.047452	-0.552810
C102	C	1.667619	-0.797452	-0.302810
C103	C	1.917619	-0.547452	-0.052810
C104	C	2.167619	-0.297452	0.197190
C105	C	1.370477	-0.976827	-0.376714
C106	C	1.620477	-0.726827	-0.126714
C107	C	1.870477	-0.476827	0.123286
C108	C	2.120477	-0.226827	0.373286
C109	C	1.482044	-0.976623	-0.488431
C110	C	1.732044	-0.726623	-0.238431
C111	C	1.982044	-0.476623	0.011569
C112	C	2.232044	-0.226623	0.261569
C113	C	1.458574	-1.047457	-0.400353
C114	C	1.708574	-0.797457	-0.150353
C115	C	1.958574	-0.547457	0.099647
C116	C	2.208574	-0.297457	0.349647
C117	C	1.645622	-0.512687	-0.464781
C118	C	1.895622	-0.262687	-0.214781
C119	C	2.145622	-0.012687	0.035219
C120	C	2.395622	0.237313	0.285219
C121	C	1.752836	-0.512694	-0.464791
C122	C	2.002836	-0.262694	-0.214791
C123	C	2.252836	-0.012694	0.035209
C124	C	2.502836	0.237306	0.285209
C125	C	1.394098	-0.512578	-0.716352
C126	C	1.644098	-0.262578	-0.466352
C127	C	1.894098	-0.012578	-0.216352
C128	C	2.144098	0.237422	0.033648
C129	C	1.394127	-0.512538	-0.823566
C130	C	1.644127	-0.262538	-0.573566
C131	C	1.894127	-0.012538	-0.323566
C132	C	2.144127	0.237462	-0.073566
C133	C	1.394119	-0.235052	-0.464789
C134	C	1.644119	0.014948	-0.214789
C135	C	1.894119	0.264948	0.035211
C136	C	2.144119	0.514948	0.285211
C137	C	1.394157	-0.116746	-0.464802
C138	C	1.644157	0.133254	-0.214802
C139	C	1.894157	0.383254	0.035198
C140	C	2.144157	0.633254	0.285198
C141	C	1.394153	-0.512466	-1.019861
C142	C	1.644153	-0.262466	-0.769861
C143	C	1.894153	-0.012466	-0.519861
C144	C	2.144153	0.237534	-0.269861
C145	C	1.394136	-0.512509	-0.910629
C146	C	1.644136	-0.262509	-0.660629
C147	C	1.894136	-0.012509	-0.410629
C148	C	2.144136	0.237491	-0.160629
C149	C	1.394017	-0.512689	-0.214145
C150	C	1.644017	-0.262689	0.035855
C151	C	1.894017	-0.012689	0.285855
C152	C	2.144017	0.237311	0.535855
C153	C	1.394174	-0.512430	-0.106931
C154	C	1.644174	-0.262430	0.143069
C155	C	1.894174	-0.012430	0.393069
C156	C	2.144174	0.237570	0.643069
H157	H	1.231719	-1.078870	-0.421166
H158	H	1.481719	-0.828870	-0.171166
H159	H	1.731719	-0.578870	0.078834
H160	H	1.981719	-0.328870	0.328834
H161	H	1.275011	-0.945749	-0.583543
H162	H	1.525011	-0.695749	-0.333543
H163	H	1.775011	-0.445749	-0.083543
H164	H	2.025011	-0.195749	0.166457
H165	H	1.350490	-0.945932	-0.302256
H166	H	1.600490	-0.695932	-0.052256
H167	H	1.850490	-0.445932	0.197744
H168	H	2.100490	-0.195932	0.447744
H169	H	1.556401	-0.945405	-0.508459
H170	H	1.806401	-0.695405	-0.258459
H171	H	2.056401	-0.445405	-0.008459
H172	H	2.306401	-0.195405	0.241541
H173	H	1.513117	-1.078294	-0.345847
H174	H	1.763117	-0.828294	-0.095847
H175	H	2.013117	-0.578294	0.154153
H176	H	2.263117	-0.328294	0.404153
C177	C	1.444029	-1.088672	-0.652146
C178	C	1.694029	-0.838672	-0.402146
C179	C	1.944029	-0.588672	-0.152146
C180	C	2.194029	-0.338672	0.097854
C181	C	1.376278	-1.052839	-0.719248
C182	C	1.626278	-0.802839	-0.469248
C183	C	1.876278	-0.552839	-0.219248
C184	C	2.126278	-0.302839	0.030752
C185	C	1.400575	-1.090774	-0.810769
C186	C	1.650575	-0.840774	-0.560769
C187	C	1.900575	-0.590774	-0.310769
C188	C	2.150575	-0.340774	-0.060769
H189	H	1.444446	-1.164088	-0.651432
H190	H	1.694446	-0.914088	-0.401432
H191	H	1.944446	-0.664088	-0.151432
H192	H	2.194446	-0.414088	0.098568
H193	H	1.506052	-1.063276	-0.669434
H194	H	1.756052	-0.813276	-0.419434
H195	H	2.006052	-0.563276	-0.169434
H196	H	2.256052	-0.313276	0.080566
H197	H	1.314272	-1.078240	-0.701965
H198	H	1.564272	-0.828240	-0.451965
H199	H	1.814272	-0.578240	-0.201965
H200	H	2.064272	-0.328240	0.048035
H201	H	1.375852	-0.977428	-0.719992
H202	H	1.625852	-0.727428	-0.469992
H203	H	1.875852	-0.477428	-0.219992
H204	H	2.125852	-0.227428	0.030008
H205	H	1.462598	-1.065378	-0.828057
H206	H	1.712598	-0.815378	-0.578057
H207	H	1.962598	-0.565378	-0.328057
H208	H	2.212598	-0.315378	-0.078057
H209	H	1.400991	-1.166188	-0.810045
H210	H	1.650991	-0.916188	-0.560045
H211	H	1.900991	-0.666188	-0.310045
H212	H	2.150991	-0.416188	-0.060045
H213	H	1.354615	-1.066458	-0.856310
H214	H	1.604615	-0.816458	-0.606310
H215	H	1.854615	-0.566458	-0.356310
H216	H	2.104615	-0.316458	-0.106310
