data_functionalizedCrystal
_audit_creation_method	'MofGen! by Chris Wilmer'
_symmetry_space_group_name_H-M	'P1'
_symmetry_Int_Tables_number	1
_symmetry_cell_setting	triclinic
loop_
_symmetry_equiv_pos_as_xyz
  x,y,z
_cell_length_a	19.188930
_cell_length_b	19.188940
_cell_length_c	15.021413
_cell_angle_alpha	90.003568
_cell_angle_beta	89.978833
_cell_angle_gamma	83.146747
loop_
_atom_site_label
_atom_site_type_symbol
_atom_site_fract_x
_atom_site_fract_y
_atom_site_fract_z
O1	O	0.926152	0.087158	-0.074319
O2	O	1.426152	0.587158	0.425681
O3	O	0.722841	0.098892	-0.074258
O4	O	1.222841	0.598892	0.425742
O5	O	0.830360	-0.008630	-0.074284
O6	O	1.330360	0.491370	0.425716
O7	O	0.818633	0.194680	-0.074294
O8	O	1.318633	0.694680	0.425706
O9	O	0.830343	-0.008615	0.073781
O10	O	1.330343	0.491385	0.573781
O11	O	0.722824	0.098907	0.073806
O12	O	1.222824	0.598907	0.573806
O13	O	0.926135	0.087173	0.073745
O14	O	1.426135	0.587173	0.573745
Zn15	Zn	0.824477	0.093043	0.097284
Zn16	Zn	1.324477	0.593043	0.597284
Zn17	Zn	0.824499	0.093023	-0.097797
Zn18	Zn	1.324499	0.593023	0.402203
O19	O	0.818616	0.194695	0.073771
O20	O	1.318616	0.694695	0.573771
C21	C	0.696821	0.098520	-0.000218
C22	C	1.196821	0.598520	0.499782
C23	C	0.619317	0.097379	-0.000195
C24	C	1.119317	0.597379	0.499805
C25	C	0.574395	0.160470	-0.000212
C26	C	1.074395	0.660470	0.499788
C27	C	0.501571	0.159398	-0.000222
C28	C	1.001571	0.659398	0.499778
C29	C	0.473672	0.095232	-0.000232
C30	C	0.973672	0.595232	0.499768
C31	C	0.518604	0.032133	-0.000210
C32	C	1.018604	0.532133	0.499790
C33	C	0.591426	0.033207	-0.000191
C34	C	1.091426	0.533207	0.499809
N35	N	0.365696	0.046180	-0.050658
N36	N	0.865696	0.546180	0.449342
N37	N	0.296518	0.045165	-0.050678
N38	N	0.796518	0.545165	0.449322
C39	C	0.254264	0.091994	-0.000286
C40	C	0.754264	0.591994	0.499714
N41	N	0.283800	0.139888	0.050114
N42	N	0.783800	0.639888	0.550114
N43	N	0.352985	0.140905	0.050130
N44	N	0.852985	0.640905	0.550130
C45	C	0.394710	0.094061	-0.000252
C46	C	0.894710	0.594061	0.499748
C47	C	0.130377	0.153927	-0.000313
C48	C	0.630377	0.653927	0.499687
C49	C	0.057553	0.152853	-0.000317
C50	C	0.557553	0.652853	0.499683
C51	C	0.074587	0.025586	-0.000314
C52	C	0.574587	0.525586	0.499686
C53	C	0.147410	0.026662	-0.000301
C54	C	0.647410	0.526662	0.499699
C55	C	0.175301	0.090835	-0.000305
C56	C	0.675301	0.590835	0.499695
C57	C	0.829970	-0.034633	-0.000251
C58	C	1.329970	0.465367	0.499749
C59	C	0.828827	-0.112138	-0.000252
C60	C	1.328827	0.387862	0.499748
C61	C	0.820683	-0.665389	0.080440
C62	C	1.320683	-0.165389	0.580440
C63	C	0.821750	-0.592564	0.080444
C64	C	1.321750	-0.092564	0.580444
C65	C	0.822296	-0.556153	-0.000265
C66	C	1.322296	-0.056153	0.499735
C67	C	0.821757	-0.592570	-0.080984
C68	C	1.321757	-0.092570	0.419016
C69	C	0.820683	-0.665392	-0.080987
C70	C	1.320683	-0.165392	0.419013
N71	N	0.863719	-0.447135	-0.060350
N72	N	1.363719	0.052865	0.439650
N73	N	0.864741	-0.377957	-0.060343
N74	N	1.364741	0.122043	0.439657
C75	C	0.825530	-0.336744	-0.000263
C76	C	1.325530	0.163256	0.499737
N77	N	0.785267	-0.367322	0.059823
N78	N	1.285267	0.132678	0.559823
N79	N	0.784249	-0.436507	0.059818
N80	N	1.284249	0.063493	0.559818
C81	C	0.823460	-0.477189	-0.000271
C82	C	1.323460	0.022811	0.499729
C83	C	0.827220	-0.221370	0.080457
C84	C	1.327220	0.278630	0.580457
C85	C	0.828282	-0.148544	0.080458
C86	C	1.328282	0.351456	0.580458
C87	C	0.828297	-0.148552	-0.080973
C88	C	1.328297	0.351448	0.419027
C89	C	0.827227	-0.221376	-0.080972
C90	C	1.327227	0.278624	0.419028
C91	C	0.826692	-0.257781	-0.000254
C92	C	1.326692	0.242219	0.499746
C93	C	0.952154	0.087546	-0.000297
C94	C	1.452154	0.587546	0.499703
C95	C	1.029659	0.088686	-0.000326
C96	C	1.529659	0.588686	0.499674
C97	C	0.819005	0.220699	-0.000263
C98	C	1.319005	0.720699	0.499737
C99	C	0.820148	0.298203	-0.000269
C100	C	1.320148	0.798203	0.499731
N101	N	0.824466	0.093056	0.230422
N102	N	1.324466	0.593056	0.730422
N103	N	0.824515	0.093004	-0.230935
N104	N	1.324515	0.593004	0.269065
C105	C	0.774742	0.142751	0.470117
C106	C	1.274742	0.642751	0.970117
C107	C	0.837791	0.156110	0.529431
C108	C	1.337791	0.656110	1.029431
C109	C	0.824484	0.093039	0.412028
C110	C	1.324484	0.593039	0.912028
C111	C	0.761452	0.079696	0.529456
C112	C	1.261452	0.579696	1.029456
C113	C	0.824496	0.093023	0.587453
C114	C	1.324496	0.593023	1.087453
C115	C	0.887565	0.106428	0.470037
C116	C	1.387565	0.606428	0.970037
C117	C	0.811185	0.029987	0.470056
C118	C	1.311185	0.529987	0.970056
C119	C	0.874279	0.043319	0.529344
C120	C	1.374279	0.543319	1.029344
C121	C	0.824476	0.093049	0.310971
C122	C	1.324476	0.593049	0.810971
C123	C	0.824511	0.093012	0.688508
C124	C	1.324511	0.593012	1.188508
H125	H	0.628002	-0.018171	-0.000178
H126	H	1.128002	0.481829	0.499822
N127	N	0.828864	-0.109270	0.167512
N128	N	1.328864	0.390730	0.667512
H129	H	0.786036	-0.073267	0.171134
H130	H	1.286036	0.426733	0.671134
H131	H	0.828391	-0.143433	0.218591
H132	H	1.328391	0.356567	0.718591
N133	N	0.160462	0.223139	-0.000311
N134	N	0.660462	0.723139	0.499689
H135	H	0.144044	0.250775	0.054575
H136	H	0.644044	0.750775	0.554575
H137	H	0.213407	0.214189	-0.000337
H138	H	0.713407	0.714189	0.499663
N139	N	0.453111	0.227450	-0.000243
N140	N	0.953111	0.727450	0.499757
H141	H	0.462088	0.255444	-0.055134
H142	H	0.962088	0.755444	0.444866
H143	H	0.402767	0.216974	-0.000223
H144	H	0.902767	0.716974	0.499777
H145	H	0.708143	0.068417	0.555558
H146	H	1.208143	0.568417	1.055558
N147	N	0.820085	-0.704649	0.167497
N148	N	1.320085	-0.204649	0.667497
H149	H	0.819321	-0.756307	0.155252
H150	H	1.319321	-0.256307	0.655252
H151	H	0.863541	-0.697713	0.202734
H152	H	1.363541	-0.197713	0.702734
H153	H	0.020977	0.204231	-0.000326
H154	H	0.520977	0.704231	0.499674
H155	H	0.916396	0.001269	0.555186
H156	H	1.416396	0.501269	1.055186
H157	H	0.822172	-0.562913	0.146169
H158	H	1.322172	-0.062913	0.646169
N159	N	0.796252	-0.040614	0.435481
N160	N	1.296252	0.459386	0.935481
H161	H	0.748598	-0.050644	0.457058
H162	H	1.248598	0.449356	0.957058
H163	H	0.796856	-0.040172	0.368254
H164	H	1.296856	0.459828	0.868254
N165	N	0.044504	-0.043622	-0.000329
N166	N	0.544504	0.456378	0.499671
H167	H	0.084016	-0.083428	-0.000319
H168	H	0.584016	0.416572	0.499681
H169	H	0.014637	-0.046833	0.054554
H170	H	0.514637	0.453167	0.554554
H171	H	0.849050	0.209424	0.555511
H172	H	1.349050	0.709424	1.055511
N173	N	0.826667	-0.260651	-0.168024
N174	N	1.326667	0.239349	0.331976
H175	H	0.825904	-0.312308	-0.155780
H176	H	1.325904	0.187692	0.344220
H177	H	0.783586	-0.242133	-0.203258
H178	H	1.283586	0.257867	0.296742
N179	N	0.958198	0.121450	0.435621
N180	N	1.458198	0.621450	0.935621
H181	H	0.957752	0.121383	0.368387
H182	H	1.457752	0.621383	0.868387
H183	H	0.968322	0.168898	0.457808
H184	H	1.468322	0.668898	0.957808
H185	H	0.183987	-0.024713	-0.000292
H186	H	0.683987	0.475287	0.499708
N187	N	0.828890	-0.109289	-0.168024
N188	N	1.328890	0.390711	0.331976
H189	H	0.828392	-0.143408	-0.219155
H190	H	1.328392	0.356592	0.280845
H191	H	0.786063	-0.073284	-0.171525
H192	H	1.286063	0.426716	0.328475
H193	H	0.822199	-0.562919	-0.146698
H194	H	1.322199	-0.062919	0.353302
H195	H	0.820247	-0.695035	-0.146712
H196	H	1.320247	-0.195035	0.353288
H197	H	0.826778	-0.251012	0.146182
H198	H	1.326778	0.248988	0.646182
N199	N	0.719071	0.198475	0.435671
N200	N	1.219071	0.698475	0.935671
H201	H	0.729216	0.246080	0.457273
H202	H	1.229216	0.746080	0.957273
H203	H	0.719182	0.197734	0.368443
H204	H	1.219182	0.697734	0.868443
H205	H	0.597098	0.212724	-0.000216
H206	H	1.097098	0.712724	0.499784
H207	H	0.495884	-0.020111	-0.000231
H208	H	0.995884	0.479889	0.499769
