data_functionalizedCrystal
_audit_creation_method	'MofGen! by Chris Wilmer'
_symmetry_space_group_name_H-M	'P1'
_symmetry_Int_Tables_number	1
_symmetry_cell_setting	triclinic
loop_
_symmetry_equiv_pos_as_xyz
  x,y,z
_cell_length_a	20.919309
_cell_length_b	18.878441
_cell_length_c	20.919309
_cell_angle_alpha	62.593795
_cell_angle_beta	90.173912
_cell_angle_gamma	57.440168
loop_
_atom_site_label
_atom_site_type_symbol
_atom_site_fract_x
_atom_site_fract_y
_atom_site_fract_z
Zr1	Zr	0.644054	0.714912	-0.056702
O2	O	0.541824	0.862690	-0.158924
O3	O	0.675394	0.567134	-0.025368
O4	O	0.680594	0.703394	-0.153724
O5	O	0.532520	0.735517	0.070683
O6	O	0.790058	0.694308	-0.149620
O7	O	0.536623	0.726431	-0.030568
O8	O	0.780755	0.450565	0.079985
O9	O	0.541822	0.979260	-0.158921
O10	O	0.770450	0.621137	-0.008939
O11	O	0.685696	0.634698	0.063561
O12	O	0.691819	0.795126	-0.087561
O13	O	0.607065	0.808688	-0.015061
Zr14	Zr	0.812091	0.714912	0.111327
Zr15	Zr	0.818635	0.700421	-0.050157
Zr16	Zr	0.637509	0.729403	0.104782
Zr17	Zr	0.644051	0.900827	-0.056699
Zr18	Zr	0.812093	0.528997	0.111324
O19	O	0.780750	0.862689	0.079993
O20	O	0.790056	0.842085	-0.149617
O21	O	0.532518	0.883294	0.070686
O22	O	0.914321	0.567134	0.213548
O23	O	0.923627	0.546530	-0.016061
O24	O	0.666088	0.587739	0.204242
O25	O	0.923625	0.694307	-0.016059
O26	O	0.775550	0.726430	0.208349
O27	O	0.666086	0.735516	0.204245
O28	O	0.919521	0.703393	0.085193
O29	O	0.680591	0.967741	-0.153719
O30	O	0.775553	0.462083	0.208343
O31	O	0.914322	0.450564	0.213546
O32	O	0.919525	0.439046	0.085188
O33	O	0.536620	0.990778	-0.030563
O34	O	0.675389	0.979259	-0.025360
O35	O	0.764325	0.634698	0.142186
O36	O	0.849079	0.621136	0.069686
O37	O	0.770448	0.795126	-0.008936
O38	O	0.685694	0.808687	0.063564
C39	C	0.728075	0.482361	0.027308
C40	C	0.728076	0.403435	0.027306
C41	C	0.772315	0.359276	-0.010539
C42	C	0.772318	0.285112	-0.010533
C43	C	0.728077	0.255113	0.027314
C44	C	0.683836	0.299275	0.065164
C45	C	0.683839	0.373433	0.065162
C46	C	0.683833	0.144709	0.065163
C47	C	0.683829	0.070548	0.065164
C48	C	0.772312	0.056389	-0.010532
C49	C	0.772315	0.130546	-0.010534
C50	C	0.728073	0.174704	0.027315
C51	C	0.509697	0.733039	0.019125
C52	C	0.435583	0.739191	0.016346
C53	C	0.441806	0.651262	0.056077
C54	C	0.372165	0.657049	0.053464
C55	C	0.296302	0.750764	0.011116
C56	C	0.290080	0.838699	-0.028615
C57	C	0.359720	0.832912	-0.025998
C58	C	0.083980	0.772781	0.001164
C59	C	0.014338	0.778562	-0.001452
C60	C	0.096428	0.596910	0.080629
C61	C	0.166066	0.591131	0.083239
C62	C	0.159839	0.679067	0.043511
C63	C	0.225116	0.756681	0.008443
C64	C	0.231023	0.673149	0.046189
C65	C	0.946447	0.696785	0.035500
C66	C	1.020562	0.690633	0.038278
C67	C	0.736259	0.696786	-0.174680
C68	C	0.739037	0.690634	-0.243234
C69	C	0.728069	0.947463	0.027317
C70	C	0.728068	1.026389	0.027319
C71	C	0.699299	0.778563	-0.316481
C72	C	0.701920	0.772776	-0.380892
C73	C	0.744275	0.679060	-0.372055
C74	C	0.784018	0.591125	-0.298800
C75	C	0.781401	0.596913	-0.234391
C76	C	0.754234	0.657042	-0.564477
C77	C	0.756845	0.651261	-0.628894
C78	C	0.674749	0.832913	-0.710982
C79	C	0.672132	0.838692	-0.646567
C80	C	0.711878	0.750757	-0.573318
C81	C	0.746953	0.673143	-0.437892
C82	C	0.709204	0.756675	-0.507482
C83	C	0.719886	0.733038	0.229305
C84	C	0.717107	0.739190	0.297859
C85	C	0.946450	0.464234	0.035495
C86	C	1.020565	0.379156	0.038272
C87	C	0.719889	0.500486	0.229300
C88	C	0.717111	0.427712	0.297853
C89	C	0.938264	0.482360	0.237487
C90	C	1.009601	0.403434	0.308819
C91	C	0.517881	0.947464	-0.182863
C92	C	0.446544	1.026390	-0.254194
C93	C	0.509694	0.965590	0.019130
C94	C	0.435579	1.050668	0.016353
C95	C	0.736256	0.929338	-0.174675
C96	C	0.739033	1.002112	-0.243228
C97	C	1.014328	0.339202	-0.001472
C98	C	1.083961	0.259272	0.001122
C99	C	1.159831	0.219293	0.043465
C100	C	1.166067	0.259254	0.083211
C101	C	1.096435	0.339187	0.080612
C102	C	0.756850	0.393537	0.371095
C103	C	0.754237	0.325170	0.435513
C104	C	0.711890	0.290973	0.426689
C105	C	0.672146	0.325155	0.353439
C106	C	0.674754	0.393527	0.289022
C107	C	1.087349	0.359290	0.304473
C108	C	1.154385	0.285139	0.371491
C109	C	1.143670	0.255130	0.442853
C110	C	1.065913	0.299282	0.447197
C111	C	0.998880	0.373436	0.380181
C112	C	0.368795	1.070543	-0.249848
C113	C	0.301760	1.144717	-0.316866
C114	C	0.312474	1.174730	-0.388228
C115	C	0.390231	1.130573	-0.392573
C116	C	0.457265	1.056407	-0.325556
C117	C	0.441817	1.090629	0.056090
C118	C	0.372184	1.170578	0.053478
C119	C	0.296314	1.210560	0.011133
C120	C	0.290078	1.170595	-0.028610
C121	C	0.359710	1.090652	-0.026002
C122	C	0.781388	1.036287	-0.234379
C123	C	0.784013	1.104655	-0.298785
C124	C	0.744279	1.138853	-0.372039
C125	C	0.701922	1.104670	-0.380887
C126	C	0.699302	1.036298	-0.316481
H127	H	0.808334	0.154976	-0.041356
H128	H	0.642397	0.421342	0.229388
H129	H	0.238453	1.180658	-0.313314
O130	O	0.357220	1.038190	-0.172886
H131	H	0.385626	0.956729	-0.140544
H132	H	1.096089	0.383712	0.246372
H133	H	0.746418	1.194526	-0.424476
H134	H	0.818508	0.514820	-0.291609
O135	O	0.659089	1.141558	-0.459907
H136	H	0.684010	1.076677	-0.465543
H137	H	0.664809	1.008481	-0.323697
H138	H	0.935575	0.409369	0.383730
O139	O	0.352970	1.047555	-0.068862
H140	H	0.414131	0.985252	-0.059945
O141	O	1.238246	0.237514	0.366797
H142	H	1.234427	0.270830	0.305914
H143	H	0.808335	0.020430	-0.041350
H144	H	0.664804	0.854877	-0.323686
H145	H	0.520570	1.020457	-0.329103
O146	O	0.523645	1.047527	0.101752
H147	H	0.516271	1.088768	0.128931
O148	O	0.221223	1.296774	0.008343
H149	H	0.186823	1.362148	-0.051763
O150	O	0.820033	0.391632	-0.051359
H151	H	0.850801	0.348456	-0.077668
H152	H	1.198260	0.194748	0.497417
O153	O	0.820023	0.237492	-0.051361
H154	H	0.850775	0.270823	-0.077689
H155	H	0.647804	0.046125	0.095981
O156	O	0.378888	0.562204	0.096315
H157	H	0.347444	0.564222	0.138806
H158	H	0.647805	0.180663	0.095982
H159	H	0.637644	0.915005	-0.653771
O160	O	0.636109	0.266933	0.105979
H161	H	0.677385	0.185465	0.151185
H162	H	0.647812	0.409389	0.095977
H163	H	1.057201	0.274837	0.505310
O164	O	0.240170	1.254736	-0.460510
H165	H	0.184309	1.280389	-0.445491
O166	O	0.797093	0.562200	-0.485481
H167	H	0.772174	0.521295	-0.479861
H168	H	0.669563	0.844376	-0.440531
H169	H	0.503574	0.574949	0.090565
H170	H	0.674722	0.832977	-0.514674
H171	H	0.398946	1.155020	-0.450684
H172	H	0.377278	1.203104	0.085845
O173	O	1.077226	0.216172	-0.041741
H174	H	1.012769	0.257393	-0.071607
H175	H	0.709772	0.235300	0.479148
H176	H	0.813745	1.008454	-0.174738
O177	O	0.208245	1.213722	-0.074282
H178	H	0.160881	1.276017	-0.069408
O179	O	0.824298	0.502054	-0.155395
H180	H	0.870170	0.496616	-0.122420
O181	O	1.103171	0.382265	0.123492
H182	H	1.071722	0.374400	0.165977
H183	H	0.818503	1.132479	-0.291566
H184	H	0.101490	0.525319	0.112974
O185	O	0.247891	0.490053	0.128911
H186	H	0.240519	0.429881	0.156103
H187	H	0.078899	0.844383	-0.031199
O188	O	-0.067493	0.879645	-0.047123
H189	H	-0.060125	0.939822	-0.074302
O190	O	0.208259	0.939782	-0.074301
H191	H	0.160878	0.929035	-0.069456
H192	H	0.354647	0.904514	-0.058341
O193	O	0.312845	0.572075	0.091862
H194	H	0.305479	0.511897	0.119054
O195	O	0.143289	0.857755	-0.037245
H196	H	0.107899	0.868478	0.001303
O197	O	0.631897	0.927753	-0.789982
H198	H	0.640839	0.907989	-0.833287
O199	O	0.802533	0.550178	-0.619365
H200	H	0.829738	0.490002	-0.557609
O201	O	0.792632	0.572062	-0.428358
H202	H	0.750693	0.568827	-0.457430
O203	O	0.932501	0.382324	-0.047153
H204	H	0.939875	0.341112	-0.074359
O205	O	1.234933	0.133071	0.046273
H206	H	1.217841	0.112004	0.011526
H207	H	1.227850	0.226691	0.117685
H208	H	0.791334	0.421373	0.378294
H209	H	0.786605	0.297346	0.495150
H210	H	0.637667	0.297301	0.346266
