data_functionalizedCrystal
_audit_creation_method	'MofGen! by Chris Wilmer'
_symmetry_space_group_name_H-M	'P1'
_symmetry_Int_Tables_number	1
_symmetry_cell_setting	triclinic
loop_
_symmetry_equiv_pos_as_xyz
  x,y,z
_cell_length_a	10.654550
_cell_length_b	14.044220
_cell_length_c	9.730223
_cell_angle_alpha	89.997406
_cell_angle_beta	89.996251
_cell_angle_gamma	88.836890
loop_
_atom_site_label
_atom_site_type_symbol
_atom_site_fract_x
_atom_site_fract_y
_atom_site_fract_z
O1	O	1.681222	0.133227	-0.114408
O2	O	1.317019	0.145921	-0.114387
O3	O	1.493654	0.001554	-0.114384
O4	O	1.504587	0.277595	-0.114411
O5	O	1.493652	0.001557	0.114196
O6	O	1.317017	0.145925	0.114193
O7	O	1.681220	0.133231	0.114172
Zn8	Zn	1.499118	0.139578	0.150474
Zn9	Zn	1.499121	0.139574	-0.150689
O10	O	1.504585	0.277598	0.114169
C11	C	1.270127	0.144991	-0.000094
C12	C	1.130403	0.142202	-0.000085
C13	C	1.059459	0.227203	-0.000114
C14	C	0.928175	0.224578	-0.000137
C15	C	0.938790	0.051942	-0.000109
C16	C	1.070072	0.054569	-0.000076
C17	C	1.119790	0.314837	-0.000123
C18	C	1.048846	0.399845	-0.000153
C19	C	0.917561	0.397219	-0.000177
C20	C	0.857221	0.309585	-0.000170
C21	C	1.488867	-0.033790	-0.000093
C22	C	1.474592	-0.139110	-0.000090
C23	C	1.448493	-0.331943	-0.000108
C24	C	1.549741	-0.388911	-0.000119
C25	C	1.535219	-0.496210	-0.000129
C26	C	1.463013	-0.224634	-0.000098
C27	C	1.728113	0.134161	-0.000124
C28	C	1.867836	0.136950	-0.000142
C29	C	1.509372	0.312942	-0.000125
C30	C	1.523648	0.418262	-0.000137
N31	N	1.499126	0.139581	0.356011
N32	N	1.499123	0.139563	-0.356226
C33	C	1.577364	0.075677	0.427938
C34	C	1.577359	0.075666	0.571821
C35	C	1.420876	0.203470	0.571837
C36	C	1.420875	0.203477	0.427956
C37	C	1.655615	0.011782	0.355993
C38	C	1.733861	-0.052127	0.427920
C39	C	1.733856	-0.052138	0.571803
C40	C	1.655606	0.011759	0.643759
H41	H	1.226688	0.316985	-0.000110
H42	H	1.350913	-0.363754	-0.000106
O43	O	1.809671	-0.114313	0.641737
C44	C	1.735823	-0.173303	0.724988
H45	H	1.636534	-0.175602	0.681635
H46	H	1.732557	-0.143670	0.834036
C47	C	1.915643	-0.271838	0.780432
C48	C	1.793696	-0.274669	0.727178
H49	H	1.951342	-0.334365	0.781789
H50	H	1.965397	-0.232094	0.724349
H51	H	1.912904	-0.247140	0.871300
H52	H	1.796437	-0.299356	0.636306
H53	H	1.743943	-0.314420	0.783246
O54	O	1.139047	-0.027975	0.000189
C55	C	1.215293	-0.031606	0.118575
H56	H	1.172694	0.016586	0.201302
H57	H	1.313370	-0.006424	0.091833
C58	C	1.275960	-0.193878	0.070661
C59	C	1.223633	-0.134694	0.172272
H60	H	1.281110	-0.257467	0.103782
H61	H	1.224595	-0.191431	-0.009101
H62	H	1.357686	-0.172882	0.048385
H63	H	1.141904	-0.155683	0.194534
H64	H	1.274985	-0.137146	0.252040
O65	O	1.345055	0.265593	0.357923
C66	C	1.418910	0.324605	0.274715
H67	H	1.513025	0.287519	0.253161
H68	H	1.435289	0.394775	0.330158
C69	C	1.234733	0.389927	0.164516
C70	C	1.350323	0.344373	0.138034
H71	H	1.192424	0.402125	0.080207
H72	H	1.184974	0.350172	0.220579
H73	H	1.248398	0.448396	0.210722
H74	H	1.336655	0.285900	0.091844
H75	H	1.400078	0.384118	0.081960
H76	H	1.097984	0.471193	-0.000147
H77	H	1.647328	-0.357098	-0.000217
O78	O	0.880378	-0.033261	-0.000057
C79	C	0.971149	-0.107724	-0.000063
H80	H	1.063163	-0.080551	0.043240
H81	H	0.986776	-0.133984	-0.109719
C82	C	0.811881	-0.223676	0.036380
C83	C	0.924892	-0.190302	0.089576
H84	H	0.783348	-0.274616	0.091668
H85	H	0.750726	-0.173509	0.036378
H86	H	0.824919	-0.245552	-0.054999
H87	H	0.911849	-0.168417	0.180947
H88	H	0.986044	-0.240467	0.089595
O89	O	1.810020	-0.114155	0.358155
C90	C	1.936167	-0.097867	0.393247
H91	H	1.940139	-0.061325	0.497725
H92	H	1.980306	-0.050365	0.312270
C93	C	2.004098	-0.238488	0.271514
C94	C	2.008976	-0.193613	0.399841
H95	H	2.049012	-0.297547	0.275576
H96	H	1.919111	-0.249460	0.247867
H97	H	2.040878	-0.198893	0.204046
H98	H	1.972182	-0.233203	0.467302
H99	H	2.093959	-0.182650	0.423500
O100	O	1.344994	0.265506	0.641943
C101	C	1.361752	0.251782	0.784359
H102	H	1.457699	0.217028	0.803998
H103	H	1.285294	0.203704	0.825197
C104	C	1.235885	0.391368	0.834113
C105	C	1.353734	0.348690	0.858234
H106	H	1.230934	0.451144	0.879685
H107	H	1.224590	0.400613	0.738165
H108	H	1.172183	0.351293	0.868145
H109	H	1.417432	0.388759	0.824187
H110	H	1.365039	0.339454	0.954179
H111	H	0.859801	0.466437	-0.000187
H112	H	1.655600	0.011737	0.760918
H113	H	0.750320	0.307454	-0.000168
H114	H	1.655629	0.011787	0.238836
