data_functionalizedCrystal
_audit_creation_method	'MofGen! by Chris Wilmer'
_symmetry_space_group_name_H-M	'P1'
_symmetry_Int_Tables_number	1
_symmetry_cell_setting	triclinic
loop_
_symmetry_equiv_pos_as_xyz
  x,y,z
_cell_length_a	18.101395
_cell_length_b	12.759401
_cell_length_c	12.759393
_cell_angle_alpha	90.018496
_cell_angle_beta	89.966555
_cell_angle_gamma	89.968735
loop_
_atom_site_label
_atom_site_type_symbol
_atom_site_fract_x
_atom_site_fract_y
_atom_site_fract_z
Zn1	Zn	-0.294783	-1.606136	-0.593968
Zn2	Zn	0.205217	-1.106136	-0.093968
Zn3	Zn	-0.418644	-1.605980	-0.418282
Zn4	Zn	0.081356	-1.105980	0.081718
Zn5	Zn	-0.294822	-1.430438	-0.418307
Zn6	Zn	0.205178	-0.930438	0.081693
Zn7	Zn	-0.418587	-1.430376	-0.593923
Zn8	Zn	0.081413	-0.930376	-0.093923
O9	O	-0.356709	-1.518232	-0.506120
O10	O	0.143291	-1.018232	-0.006120
O11	O	-0.311221	-1.753136	-0.570671
O12	O	0.188779	-1.253136	-0.070671
O13	O	-0.402259	-1.582654	-0.271264
O14	O	0.097741	-1.082654	0.228736
O15	O	-0.191183	-1.453835	-0.441638
O16	O	0.308817	-0.953835	0.058362
O17	O	-0.402221	-1.753021	-0.441595
O18	O	0.097779	-1.253021	0.058405
O19	O	-0.191155	-1.582920	-0.570695
O20	O	0.308845	-1.082920	-0.070695
O21	O	-0.311287	-1.453684	-0.271283
O22	O	0.188713	-0.953684	0.228717
O23	O	-0.311232	-1.283408	-0.441595
O24	O	0.188768	-0.783408	0.058405
O25	O	-0.402124	-1.453730	-0.740950
O26	O	0.097876	-0.953730	-0.240950
O27	O	-0.402162	-1.283363	-0.570619
O28	O	0.097838	-0.783363	-0.070619
O29	O	-0.311166	-1.582860	-0.740983
O30	O	0.188834	-1.082860	-0.240983
O31	O	-0.522270	-1.582594	-0.441552
O32	O	-0.022270	-1.082594	0.058448
O33	O	-0.522228	-1.453579	-0.570595
O34	O	-0.022228	-0.953579	-0.070595
C35	C	-0.356695	-1.245265	-0.506106
C36	C	0.143305	-0.745265	-0.006106
C37	C	-0.356707	-1.128488	-0.506125
C38	C	0.143293	-0.628488	-0.006125
C39	C	-0.549120	-1.518092	-0.506089
C40	C	-0.049120	-1.018092	-0.006089
C41	C	-0.631434	-1.518128	-0.506111
C42	C	-0.131434	-1.018128	-0.006111
C43	C	-0.356634	-1.518306	-0.780153
C44	C	0.143366	-1.018306	-0.280153
C45	C	-0.356602	-1.518337	-0.896930
C46	C	0.143398	-1.018337	-0.396930
C47	C	-0.930525	-1.518358	-0.506168
C48	C	-0.430525	-1.018358	-0.006168
C49	C	-0.899204	-1.437374	-0.587559
C50	C	-0.399204	-0.937374	-0.087559
C51	C	-0.813586	-1.436989	-0.587305
C52	C	-0.313586	-0.936989	-0.087305
C53	C	-0.782142	-1.518244	-0.506140
C54	C	-0.282142	-1.018244	-0.006140
C55	C	-0.813302	-1.488263	-0.395415
C56	C	-0.313302	-0.988263	0.104585
C57	C	-0.898947	-1.487741	-0.395903
C58	C	-0.398947	-0.987741	0.104097
C59	C	-0.898866	-1.629501	-0.534526
C60	C	-0.398866	-1.129501	-0.034526
C61	C	-0.813215	-1.628847	-0.536954
C62	C	-0.313215	-1.128847	-0.036954
C63	C	-0.698283	-1.518181	-0.506118
C64	C	-0.198283	-1.018181	-0.006118
C65	C	-1.014384	-1.518418	-0.506182
C66	C	-0.514384	-1.018418	-0.006182
C67	C	-0.163547	-1.518402	-0.506174
C68	C	0.336453	-1.018402	-0.006174
C69	C	-0.081233	-1.518474	-0.506197
C70	C	0.418767	-1.018474	-0.006197
C71	C	-0.356723	-1.792265	-0.506135
C72	C	0.143277	-1.292265	-0.006135
C73	C	-0.356729	-1.909042	-0.506141
C74	C	0.143271	-1.409042	-0.006141
C75	C	-0.404131	-1.073630	-0.573197
C76	C	0.095869	-0.573630	-0.073197
C77	C	-0.404140	-0.963906	-0.573208
C78	C	0.095860	-0.463906	-0.073208
C79	C	-0.309301	-0.963908	-0.439066
C80	C	0.190699	-0.463908	0.060934
C81	C	-0.309288	-1.073630	-0.439061
C82	C	0.190712	-0.573630	0.060939
C83	C	-0.451550	-1.128488	-0.640260
C84	C	0.048450	-0.628488	-0.140260
C85	C	-0.498977	-1.073630	-0.707337
C86	C	0.001023	-0.573630	-0.207337
C87	C	-0.498987	-0.963906	-0.707348
C88	C	0.001013	-0.463906	-0.207348
C89	C	-0.451568	-0.909040	-0.640283
C90	C	0.048432	-0.409040	-0.140283
C91	C	-0.309236	-1.585584	-0.951811
C92	C	0.190764	-1.085584	-0.451811
C93	C	-0.309209	-1.585609	-1.061535
C94	C	0.190791	-1.085609	-0.561535
C95	C	-0.403922	-1.451137	-1.061488
C96	C	0.096078	-0.951137	-0.561488
C97	C	-0.403944	-1.451108	-0.951766
C98	C	0.096056	-0.951108	-0.451766
C99	C	-0.261894	-1.652814	-0.896975
C100	C	0.238106	-1.152814	-0.396975
C101	C	-0.214524	-1.720068	-0.951856
C102	C	0.285476	-1.220068	-0.451856
C103	C	-0.214497	-1.720092	-1.061580
C104	C	0.285503	-1.220092	-0.561580
C105	C	-0.261840	-1.652864	-1.116423
C106	C	0.238160	-1.152864	-0.616423
C107	C	-0.356730	-1.518219	-0.233153
C108	C	0.143270	-1.018219	0.266847
C109	C	-0.356553	-1.518392	-0.116376
C110	C	0.143447	-1.018392	0.383624
H111	H	-0.792516	-1.455746	-0.669407
H112	H	-0.292516	-0.955746	-0.169407
Cl113	Cl	-0.249696	-0.894933	-0.354759
Cl114	Cl	0.250304	-0.394933	0.145241
H115	H	-0.270667	-1.118297	-0.384453
H116	H	0.229333	-0.618297	0.115547
Cl117	Cl	-0.261794	-1.652883	-1.254364
Cl118	Cl	0.238206	-1.152883	-0.754364
H119	H	-0.919120	-1.689837	-0.475245
H120	H	-0.419120	-1.189837	0.024755
H121	H	-0.175974	-1.774796	-0.907195
H122	H	0.324026	-1.274796	-0.407195
H123	H	-0.791806	-1.692377	-0.481993
H124	H	-0.291806	-1.192377	0.018007
H125	H	-0.537599	-0.919243	-0.761972
H126	H	-0.037599	-0.419243	-0.261972
H127	H	-0.919669	-1.544168	-0.333192
H128	H	-0.419669	-1.044168	0.166808
Cl129	Cl	-0.451543	-1.266427	-0.640247
Cl130	Cl	0.048457	-0.766427	-0.140247
H131	H	-0.261912	-1.652803	-0.807632
H132	H	0.238088	-1.152803	-0.307632
Cl133	Cl	-0.154950	-1.804641	-1.130570
Cl134	Cl	0.345050	-1.304641	-0.630570
Cl135	Cl	-0.781767	-1.663758	-0.662765
Cl136	Cl	-0.281767	-1.163758	-0.162765
Cl137	Cl	-0.558581	-1.142602	-0.791648
Cl138	Cl	-0.058581	-0.642602	-0.291648
Cl139	Cl	-0.451576	-0.771100	-0.640308
Cl140	Cl	0.048424	-0.271100	-0.140308
Cl141	Cl	-0.930921	-1.466039	-0.714733
Cl142	Cl	-0.430921	-0.966039	-0.214733
Cl143	Cl	-0.463438	-1.366632	-1.130435
Cl144	Cl	0.036562	-0.866632	-0.630435
Cl145	Cl	-0.929898	-1.362306	-0.358815
Cl146	Cl	-0.429898	-0.862306	0.141185
Cl147	Cl	-0.932549	-1.310959	-0.558947
Cl148	Cl	-0.432549	-0.810959	-0.058947
Cl149	Cl	-0.782051	-1.309797	-0.558308
Cl150	Cl	-0.282051	-0.809797	-0.058308
H151	H	-0.920408	-1.656833	-0.613890
H152	H	-0.420408	-1.156833	-0.113890
Cl153	Cl	-0.781861	-1.576463	-0.299229
Cl154	Cl	-0.281861	-1.076463	0.200771
H155	H	-0.442503	-1.396333	-0.907081
H156	H	0.057497	-0.896333	-0.407081
H157	H	-0.791919	-1.407879	-0.370962
H158	H	-0.291919	-0.907879	0.129038
