data_functionalizedCrystal
_audit_creation_method	'MofGen! by Chris Wilmer'
_symmetry_space_group_name_H-M	'P1'
_symmetry_Int_Tables_number	1
_symmetry_cell_setting	triclinic
loop_
_symmetry_equiv_pos_as_xyz
  x,y,z
_cell_length_a	8.559649
_cell_length_b	8.559649
_cell_length_c	13.101018
_cell_angle_alpha	92.886499
_cell_angle_beta	92.887776
_cell_angle_gamma	110.221336
loop_
_atom_site_label
_atom_site_type_symbol
_atom_site_fract_x
_atom_site_fract_y
_atom_site_fract_z
O1	O	-2.136912	-0.065076	-0.085199
O2	O	-1.661428	0.018704	-0.085203
O3	O	-1.941060	-0.260928	-0.085199
O4	O	-1.857280	0.214556	-0.085203
O5	O	-1.920975	-0.240847	0.085231
O6	O	-1.641342	0.038786	0.085227
O7	O	-2.116826	-0.044995	0.085231
Zn8	Zn	-1.875895	0.000084	0.112289
Zn9	Zn	-1.902359	-0.026374	-0.112260
O10	O	-1.837194	0.234638	0.085227
C11	C	-1.591076	0.035094	0.000012
C12	C	-1.411377	0.053993	0.000010
C13	C	-1.937367	-0.311197	0.000015
C14	C	-1.956267	-0.490897	0.000010
C15	C	-2.187178	-0.061385	0.000015
C16	C	-2.366878	-0.080285	0.000010
N17	N	-1.857846	0.018138	0.265537
C18	C	-1.840888	0.284906	0.000012
C19	C	-1.821989	0.464605	0.000010
N20	N	-1.920422	-0.044443	-0.265509
C21	C	-1.944971	-0.069013	0.525448
C22	C	-1.833304	0.042702	0.474574
C23	C	-1.846963	0.029031	0.358255
C24	C	-1.931314	-0.055344	0.641777
H25	H	-1.311989	0.183420	0.000003
H26	H	-2.085685	0.409726	0.000017
H27	H	-1.466257	-0.209705	0.000006
O28	O	-2.071125	-0.195533	0.473237
C29	C	-2.061417	-0.349875	0.499360
H30	H	-1.928221	-0.331342	0.528953
H31	H	-2.149996	-0.401378	0.561519
C32	C	-2.274674	-0.496695	0.367604
C33	C	-2.111077	-0.473935	0.403943
H34	H	-2.305313	-0.573224	0.308749
H35	H	-2.281220	-0.392713	0.350007
H36	H	-2.348470	-0.539607	0.419413
H37	H	-2.037282	-0.431004	0.352140
H38	H	-2.104519	-0.577912	0.421529
H39	H	-1.692560	0.563994	0.000014
O40	O	-1.707161	0.168998	0.526981
C41	C	-1.721413	0.154699	0.633135
H42	H	-1.856119	0.079907	0.647651
H43	H	-1.635996	0.088150	0.663594
C44	C	-1.504955	0.421869	0.670511
C45	C	-1.670406	0.330020	0.688341
H46	H	-1.473484	0.530014	0.704566
H47	H	-1.495347	0.431501	0.598993
H48	H	-1.433793	0.366393	0.695893
H49	H	-1.741566	0.385485	0.662947
H50	H	-1.680024	0.320401	0.759856
