data_functionalizedCrystal
_audit_creation_method	'MofGen! by Chris Wilmer'
_symmetry_space_group_name_H-M	'P1'
_symmetry_Int_Tables_number	1
_symmetry_cell_setting	triclinic
loop_
_symmetry_equiv_pos_as_xyz
  x,y,z
_cell_length_a	6.817900
_cell_length_b	16.305597
_cell_length_c	16.305550
_cell_angle_alpha	95.371930
_cell_angle_beta	103.455250
_cell_angle_gamma	103.455834
loop_
_atom_site_label
_atom_site_type_symbol
_atom_site_fract_x
_atom_site_fract_y
_atom_site_fract_z
V1	V	-4.026184	-0.117429	-0.263322
O2	O	-4.013844	0.004910	-0.258012
O3	O	-3.977574	-0.232137	-0.261808
O4	O	-3.977591	-0.115944	-0.378036
O5	O	-4.013827	-0.112087	-0.140980
V6	V	-4.509864	-0.102758	-0.248654
O7	O	-4.287097	-0.149611	-0.295498
O8	O	-4.699147	-0.070575	-0.216479
O9	O	-4.335267	0.011951	-0.250169
O10	O	-4.639601	-0.225097	-0.253965
O11	O	-4.639617	-0.108099	-0.370997
O12	O	-4.335250	-0.104243	-0.133941
C13	C	-3.822530	-0.260091	-0.257728
C14	C	-3.864072	-0.353868	-0.257254
C15	C	-4.015199	-0.694622	-0.255573
C16	C	-3.779480	-0.653779	-0.250966
C17	C	-3.735942	-0.556181	-0.251124
C18	C	-3.940222	-0.525570	-0.256407
C19	C	-4.023196	-0.550725	-0.177802
C20	C	-4.065002	-0.648256	-0.177220
C21	C	-4.153223	-0.674025	-0.338559
C22	C	-4.106392	-0.576516	-0.340014
C23	C	-3.897858	-0.430029	-0.256876
C24	C	-4.057566	-0.790162	-0.255098
C25	C	-3.822550	-0.111874	-0.405987
C26	C	-3.864102	-0.111419	-0.499768
C27	C	-4.015190	-0.109655	-0.840509
C28	C	-3.779145	-0.104421	-0.799567
C29	C	-3.735951	-0.105243	-0.702074
C30	C	-3.940232	-0.110530	-0.671463
C31	C	-4.107221	-0.193843	-0.722296
C32	C	-4.149085	-0.193372	-0.819844
C33	C	-4.069986	-0.032242	-0.794473
C34	C	-4.022057	-0.031583	-0.696629
C35	C	-3.897882	-0.111027	-0.575926
C36	C	-4.057549	-0.109164	-0.936046
C37	C	-4.153653	0.039900	-0.254247
C38	C	-4.091350	0.133676	-0.254726
C39	C	-4.153633	-0.108316	-0.105985
C40	C	-4.091320	-0.108767	-0.012204
H41	H	-3.609149	-0.521585	-0.191100
H42	H	-4.242049	-0.035336	-0.821297
H43	H	-4.173224	-0.530875	-0.178660
H44	H	-4.047529	-0.560983	-0.398178
C45	C	-4.115829	-0.718161	-0.419095
C46	C	-3.895663	-0.697592	-0.433798
C47	C	-3.858243	-0.741727	-0.514328
C48	C	-4.040989	-0.806430	-0.580156
C49	C	-4.261170	-0.827001	-0.565456
C50	C	-4.298590	-0.782867	-0.484925
H51	H	-3.760371	-0.649692	-0.385066
H52	H	-3.695250	-0.726498	-0.525210
H53	H	-4.013288	-0.839101	-0.639770
H54	H	-4.396463	-0.874901	-0.614187
H55	H	-4.461583	-0.798096	-0.474043
H56	H	-3.905201	-0.514946	-0.115910
C57	C	-4.312225	-0.549771	-0.351816
C58	C	-4.333117	-0.480896	-0.285443
C59	C	-4.538959	-0.454153	-0.297236
C60	C	-4.723909	-0.496286	-0.375401
C61	C	-4.703022	-0.565165	-0.441779
C62	C	-4.497180	-0.591907	-0.429986
H63	H	-4.196201	-0.449704	-0.227576
H64	H	-4.554420	-0.403164	-0.248098
H65	H	-4.876285	-0.476489	-0.384130
H66	H	-4.839938	-0.596357	-0.499646
H67	H	-4.481720	-0.642896	-0.479124
C68	C	-3.635781	-0.023118	-0.816069
C69	C	-3.731280	0.039517	-0.866923
C70	C	-3.587916	0.120823	-0.883430
C71	C	-3.349053	0.139493	-0.849083
C72	C	-3.253541	0.076856	-0.798225
C73	C	-3.396905	-0.004450	-0.781718
H74	H	-3.908112	0.025698	-0.892352
H75	H	-3.658621	0.167191	-0.921079
H76	H	-3.242926	0.199680	-0.861303
H77	H	-3.076709	0.090675	-0.772797
H78	H	-3.326200	-0.050818	-0.744070
H79	H	-3.734025	-0.160039	-0.831217
C80	C	-3.646171	-0.181246	-0.680242
C81	C	-3.613614	-0.241383	-0.751571
C82	C	-3.523834	-0.317390	-0.729740
C83	C	-3.466610	-0.333259	-0.636580
C84	C	-3.499165	-0.273120	-0.565245
C85	C	-3.588946	-0.197114	-0.587076
H86	H	-3.655976	-0.229637	-0.820539
H87	H	-3.499734	-0.361908	-0.782547
H88	H	-3.400149	-0.389524	-0.620419
H89	H	-3.456804	-0.284866	-0.496277
H90	H	-3.613046	-0.152595	-0.534268
H91	H	-4.325854	-0.701034	-0.342754
C92	C	-3.946534	0.053046	-0.812297
C93	C	-3.705863	0.077858	-0.785447
C94	C	-3.582380	0.163143	-0.803263
C95	C	-3.699569	0.223616	-0.847928
C96	C	-3.940254	0.198805	-0.874780
C97	C	-4.063736	0.113520	-0.856964
H98	H	-3.619100	0.033091	-0.752382
H99	H	-3.404208	0.181509	-0.783385
H100	H	-3.608160	0.286749	-0.861116
H101	H	-4.027016	0.243573	-0.907845
H102	H	-4.241908	0.095154	-0.876842
H103	H	-4.112909	-0.251976	-0.850371
H104	H	-3.669702	-0.539416	-0.307294
H105	H	-3.609485	-0.045341	-0.666902
H106	H	-4.169345	-0.030546	-0.675279
C107	C	-4.032303	-0.273039	-0.699788
C108	C	-3.987779	-0.290297	-0.606890
C109	C	-3.912847	-0.369490	-0.584384
C110	C	-3.882439	-0.431425	-0.654775
C111	C	-3.926963	-0.414170	-0.747679
C112	C	-4.001895	-0.334976	-0.770186
H113	H	-4.010288	-0.244447	-0.554777
H114	H	-3.879887	-0.382264	-0.515609
H115	H	-3.826969	-0.490049	-0.638114
H116	H	-3.904453	-0.460019	-0.799793
H117	H	-4.034855	-0.322203	-0.838960
H118	H	-4.322917	-0.200679	-0.847854
C119	C	-3.858576	0.051672	-0.649991
C120	C	-3.901926	0.138571	-0.664006
C121	C	-3.738436	0.221823	-0.617364
C122	C	-3.531596	0.218177	-0.556708
C123	C	-3.488236	0.131274	-0.542690
C124	C	-3.651726	0.048022	-0.589332
H125	H	-4.055050	0.141273	-0.708909
H126	H	-3.770535	0.286154	-0.627741
H127	H	-3.410571	0.279805	-0.522181
H128	H	-3.335112	0.128572	-0.497786
H129	H	-3.619627	-0.016309	-0.578955
C130	C	-3.637568	-0.671793	-0.170114
C131	C	-3.734799	-0.723385	-0.108344
C132	C	-3.592893	-0.741404	-0.027493
C133	C	-3.353756	-0.707830	-0.008411
C134	C	-3.256512	-0.656235	-0.070182
C135	C	-3.398418	-0.638217	-0.151034
H136	H	-3.911834	-0.748241	-0.122469
H137	H	-3.664881	-0.779598	0.018234
H138	H	-3.248709	-0.721168	0.051440
H139	H	-3.079477	-0.631379	-0.056058
H140	H	-3.326430	-0.600023	-0.196761
H141	H	-3.733628	-0.684409	-0.306909
H142	H	-3.966022	-0.659587	-0.114785
H143	H	-4.235016	-0.675100	-0.177167
H144	H	-4.260373	-0.200725	-0.703400
