data_functionalizedCrystal
_audit_creation_method	'MofGen! by Chris Wilmer'
_symmetry_space_group_name_H-M	'P1'
_symmetry_Int_Tables_number	1
_symmetry_cell_setting	triclinic
loop_
_symmetry_equiv_pos_as_xyz
  x,y,z
_cell_length_a	10.654550
_cell_length_b	8.559649
_cell_length_c	9.730223
_cell_angle_alpha	90.000781
_cell_angle_beta	89.996251
_cell_angle_gamma	77.131784
loop_
_atom_site_label
_atom_site_type_symbol
_atom_site_fract_x
_atom_site_fract_y
_atom_site_fract_z
O1	O	1.644677	0.224178	-0.114394
O2	O	1.276992	0.245537	-0.114371
O3	O	1.493228	0.002614	-0.114383
O4	O	1.428441	0.467100	-0.114382
O5	O	1.493225	0.002620	0.114197
O6	O	1.276989	0.245543	0.114209
O7	O	1.644674	0.224184	0.114186
Zn8	Zn	1.460831	0.234864	0.150489
Zn9	Zn	1.460835	0.234856	-0.150675
O10	O	1.428438	0.467106	0.114198
C11	C	1.230355	0.243972	-0.000079
C12	C	1.091396	0.239279	-0.000070
C13	C	1.498136	-0.056858	-0.000096
C14	C	1.512750	-0.234076	-0.000105
C15	C	0.997136	0.382308	-0.000090
C16	C	0.866571	0.377890	-0.000114
C17	C	0.924542	0.087401	-0.000104
C18	C	1.055103	0.091821	-0.000070
C19	C	0.963666	0.550020	-0.000101
C20	C	0.833101	0.545601	-0.000125
C21	C	1.691311	0.225749	-0.000110
C22	C	1.830270	0.230441	-0.000128
C23	C	1.423530	0.526579	-0.000092
C24	C	1.408916	0.703797	-0.000093
N25	N	1.460838	0.234869	0.356026
N26	N	1.460839	0.234839	-0.356211
C27	C	1.556605	0.127340	0.427946
C28	C	1.556604	0.127320	0.571829
C29	C	1.365062	0.342373	0.571858
C30	C	1.365060	0.342384	0.427978
C31	C	1.667193	0.003185	0.427931
C32	C	1.667192	0.003165	0.571814
H33	H	1.131848	-0.024647	-0.000034
H34	H	0.784843	0.608790	-0.095793
H35	H	1.287069	0.429929	0.369421
C36	C	1.275388	-0.186548	-0.000307
C37	C	1.208616	-0.216262	-0.117884
C38	C	1.085600	-0.115283	-0.118119
H39	H	1.282786	-0.077990	-0.000386
H40	H	1.229824	-0.206476	0.079366
H41	H	1.254169	-0.196322	-0.197536
H42	H	1.201182	-0.324801	-0.117830
H43	H	1.040035	-0.135211	-0.038446
H44	H	1.093011	-0.006731	-0.118194
H45	H	1.040276	-0.135441	-0.197886
H46	H	0.894975	-0.032654	-0.000125
C47	C	1.261047	0.458848	0.650159
C48	C	1.192494	0.372898	0.732781
C49	C	1.096675	0.480142	0.804942
H50	H	1.203883	0.522937	0.586875
H51	H	1.299724	0.525798	0.706373
H52	H	1.153817	0.305975	0.676573
H53	H	1.249621	0.308814	0.796091
H54	H	1.135352	0.547093	0.861156
H55	H	1.039521	0.544226	0.741649
H56	H	1.050158	0.421841	0.861019
C57	C	0.993513	0.637452	0.127572
C58	C	0.881241	0.686517	0.205636
C59	C	0.908691	0.767040	0.323264
H60	H	1.024847	0.728615	0.101192
H61	H	1.056948	0.567607	0.180807
H62	H	0.817828	0.756358	0.152411
H63	H	0.849890	0.595385	0.232051
H64	H	0.972126	0.697195	0.376499
H65	H	0.940027	0.858196	0.296871
H66	H	0.832524	0.800327	0.376251
H67	H	1.612835	-0.316473	-0.000100
H68	H	1.658424	-0.119498	0.388878
H69	H	1.754362	0.042060	0.383299
H70	H	1.648655	-0.112769	0.616431
C71	C	1.792164	0.039720	0.623620
C72	C	1.868607	0.062101	0.511466
C73	C	1.983727	0.095794	0.559137
H74	H	1.837040	-0.047247	0.677810
H75	H	1.773520	0.134389	0.677831
H76	H	1.887254	-0.032556	0.457278
H77	H	1.823770	0.149073	0.457265
H78	H	1.965084	0.190462	0.613348
H79	H	2.028592	0.008821	0.613326
H80	H	2.035603	0.110998	0.483049
H81	H	0.993806	0.603419	-0.098789
H82	H	0.782193	0.596288	0.098559
