data_functionalizedCrystal
_audit_creation_method	'MofGen! by Chris Wilmer'
_symmetry_space_group_name_H-M	'P1'
_symmetry_Int_Tables_number	1
_symmetry_cell_setting	triclinic
loop_
_symmetry_equiv_pos_as_xyz
  x,y,z
_cell_length_a	12.759395
_cell_length_b	12.645330
_cell_length_c	12.759395
_cell_angle_alpha	90.007741
_cell_angle_beta	90.005123
_cell_angle_gamma	90.019229
loop_
_atom_site_label
_atom_site_type_symbol
_atom_site_fract_x
_atom_site_fract_y
_atom_site_fract_z
Zn1	Zn	1.606087	-0.422167	0.594015
Zn2	Zn	2.106087	0.077833	1.094015
Zn3	Zn	1.606016	-0.599402	0.418340
Zn4	Zn	2.106016	-0.099402	0.918340
Zn5	Zn	1.430433	-0.422158	0.418352
Zn6	Zn	1.930433	0.077842	0.918352
Zn7	Zn	1.430369	-0.599393	0.593978
Zn8	Zn	1.930369	-0.099393	1.093978
O9	O	1.518226	-0.510780	0.506171
O10	O	2.018226	-0.010780	1.006171
O11	O	1.753099	-0.445685	0.570721
O12	O	2.253099	0.054315	1.070721
O13	O	1.582721	-0.575890	0.271320
O14	O	2.082721	-0.075890	0.771320
O15	O	1.453790	-0.273811	0.441674
O16	O	1.953790	0.226189	0.941674
O17	O	1.753046	-0.575898	0.441653
O18	O	2.253046	-0.075898	0.941653
O19	O	1.582843	-0.273818	0.570733
O20	O	2.082843	0.226182	1.070733
O21	O	1.453721	-0.445669	0.271329
O22	O	1.953721	0.054331	0.771329
O23	O	1.283403	-0.445661	0.441639
O24	O	1.783403	0.054339	0.941639
O25	O	1.453681	-0.575884	0.741004
O26	O	1.953681	-0.075884	1.241004
O27	O	1.283356	-0.575875	0.570671
O28	O	1.783356	-0.075875	1.070671
O29	O	1.582781	-0.445677	0.741031
O30	O	2.082781	0.054323	1.241031
O31	O	1.582659	-0.747748	0.441618
O32	O	2.082659	-0.247748	0.941618
O33	O	1.453612	-0.747742	0.570659
O34	O	1.953612	-0.247742	1.070659
C35	C	1.245259	-0.510767	0.506153
C36	C	1.745259	-0.010767	1.006153
C37	C	1.128482	-0.510787	0.506170
C38	C	1.628482	-0.010787	1.006170
C39	C	1.128472	-0.646598	0.640314
C40	C	1.628472	-0.146598	1.140314
C41	C	1.073606	-0.714512	0.707389
C42	C	1.573606	-0.214512	1.207389
C43	C	0.963884	-0.714525	0.707402
C44	C	1.463884	-0.214525	1.207402
C45	C	0.909026	-0.646615	0.640335
C46	C	1.409026	-0.146615	1.140335
C47	C	0.963892	-0.578701	0.573260
C48	C	1.463892	-0.078701	1.073260
C49	C	1.073616	-0.578697	0.573252
C50	C	1.573616	-0.078697	1.073252
C51	C	0.963902	-0.442885	0.439123
C52	C	1.463902	0.057115	0.939123
C53	C	1.073624	-0.442876	0.439103
C54	C	1.573624	0.057124	0.939103
C55	C	0.909044	-0.374975	0.372056
C56	C	1.409044	0.125025	0.872056
C57	C	0.963910	-0.307064	0.304974
C58	C	1.463910	0.192936	0.804974
C59	C	1.073638	-0.307055	0.304963
C60	C	1.573638	0.192945	0.804963
C61	C	1.128490	-0.374962	0.372028
C62	C	1.628490	0.125038	0.872028
C63	C	1.518149	-0.786210	0.506156
C64	C	2.018149	-0.286210	1.006156
C65	C	1.518213	-0.904040	0.506185
C66	C	2.018213	-0.404040	1.006185
C67	C	1.437364	-1.071644	0.587615
C68	C	1.937364	-0.571644	1.087615
C69	C	1.436950	-0.949084	0.587354
C70	C	1.936950	-0.449084	1.087354
C71	C	1.488267	-0.948601	0.395463
C72	C	1.988267	-0.448601	0.895463
C73	C	1.487773	-1.071200	0.395958
C74	C	1.987773	-0.571200	0.895958
C75	C	1.629502	-1.071134	0.534579
C76	C	2.129502	-0.571134	1.034579
C77	C	1.628820	-0.948528	0.537000
C78	C	2.128820	-0.448528	1.037000
C79	C	1.792259	-0.510794	0.506190
C80	C	2.292259	-0.010794	1.006190
C81	C	1.909036	-0.510799	0.506198
C82	C	2.409036	-0.010799	1.006198
C83	C	1.518232	-0.510781	0.780204
C84	C	2.018232	-0.010781	1.280204
C85	C	1.518234	-0.510781	0.896981
C86	C	2.018234	-0.010781	1.396981
C87	C	1.518332	-0.234275	0.506209
C88	C	2.018332	0.265725	1.006209
C89	C	1.518377	-0.116445	0.506225
C90	C	2.018377	0.383555	1.006225
C91	C	1.652675	-0.375205	0.897029
C92	C	2.152675	0.124795	1.397029
C93	C	1.719895	-0.307422	0.951913
C94	C	2.219895	0.192578	1.451913
C95	C	1.719891	-0.307425	1.061635
C96	C	2.219891	0.192575	1.561635
C97	C	1.652658	-0.375216	1.116474
C98	C	2.152658	0.124784	1.616474
C99	C	1.585437	-0.442999	1.061590
C100	C	2.085437	0.057001	1.561590
C101	C	1.585451	-0.442991	0.951866
C102	C	2.085451	0.057009	1.451866
C103	C	1.450993	-0.578568	1.061542
C104	C	1.950993	-0.078568	1.561542
C105	C	1.451001	-0.578572	0.951821
C106	C	1.951001	-0.078572	1.451821
C107	C	1.383759	-0.646360	1.116382
C108	C	1.883759	-0.146360	1.616382
C109	C	1.316543	-0.714150	1.061497
C110	C	1.816543	-0.214150	1.561497
C111	C	1.316550	-0.714145	0.951769
C112	C	1.816550	-0.214145	1.451769
C113	C	1.383780	-0.646355	0.896936
C114	C	1.883780	-0.146355	1.396936
C115	C	1.518213	-0.510799	1.233204
C116	C	2.018213	-0.010799	1.733204
C117	C	1.518213	-0.510785	1.116427
C118	C	2.018213	-0.010785	1.616427
H119	H	0.919236	-0.251772	0.250378
H120	H	1.419236	0.248228	0.750378
H121	H	0.819685	-0.646622	0.640360
H122	H	1.319685	-0.146622	1.140360
F123	F	1.132022	-0.234765	0.233576
F124	F	1.632022	0.265235	0.733576
F125	F	1.383799	-0.646349	0.780160
F126	F	1.883799	-0.146349	1.280160
H127	H	1.217831	-0.374964	0.372023
H128	H	1.717831	0.125036	0.872023
F129	F	1.461433	-0.909699	0.694664
F130	F	1.961433	-0.409699	1.194664
H131	H	1.354566	-0.919846	0.568569
H132	H	1.854566	-0.419846	1.068569
H133	H	1.407881	-0.917985	0.371009
H134	H	1.907881	-0.417985	0.871009
H135	H	1.217813	-0.646603	0.640303
H136	H	1.717813	-0.146603	1.140303
H137	H	1.261801	-0.769334	1.106156
H138	H	1.761801	-0.269334	1.606156
F139	F	1.708397	-1.109015	0.457109
F140	F	2.208397	-0.609015	0.957109
H141	H	1.118283	-0.769802	0.761995
H142	H	1.618283	-0.269802	1.261995
F143	F	1.330357	-1.112047	0.563395
F144	F	1.830357	-0.612047	1.063395
F145	F	1.461619	-1.110121	0.695280
F146	F	1.961619	-0.610121	1.195280
F147	F	0.905490	-0.786801	0.778795
F148	F	1.405490	-0.286801	1.278795
H149	H	1.406540	-1.099886	0.371938
H150	H	1.906540	-0.599886	0.871938
F151	F	1.561544	-1.109941	0.313986
F152	F	2.061544	-0.609941	0.813986
H153	H	1.656825	-1.102002	0.613945
H154	H	2.156825	-0.602002	1.113945
F155	F	1.791426	-0.235256	0.893542
F156	F	2.291426	0.264744	1.393542
F157	F	1.562946	-0.910465	0.314031
F158	F	2.062946	-0.410465	0.814031
H159	H	1.651404	-0.919402	0.618486
H160	H	2.151404	-0.419402	1.118486
F161	F	1.711869	-0.908436	0.465165
F162	F	2.211869	-0.408436	0.965165
F163	F	1.652697	-0.375209	0.780253
F164	F	2.152697	0.124791	1.280253
F165	F	0.792268	-0.374984	0.372077
F166	F	1.292268	0.125016	0.872077
H167	H	1.261800	-0.769331	0.907089
H168	H	1.761800	-0.269331	1.407089
F169	F	1.791420	-0.235269	1.120049
F170	F	2.291420	0.264731	1.620049
F171	F	1.652648	-0.375207	1.233250
F172	F	2.152648	0.124793	1.733250
H173	H	1.383757	-0.646354	1.205723
H174	H	1.883757	-0.146354	1.705723
