data_functionalizedCrystal
_audit_creation_method	'MofGen! by Chris Wilmer'
_symmetry_space_group_name_H-M	'P1'
_symmetry_Int_Tables_number	1
_symmetry_cell_setting	triclinic
loop_
_symmetry_equiv_pos_as_xyz
  x,y,z
_cell_length_a	10.654550
_cell_length_b	9.730217
_cell_length_c	10.654551
_cell_angle_alpha	90.000440
_cell_angle_beta	84.485132
_cell_angle_gamma	90.004938
loop_
_atom_site_label
_atom_site_type_symbol
_atom_site_fract_x
_atom_site_fract_y
_atom_site_fract_z
O1	O	1.667837	0.114394	0.176396
O2	O	1.302358	0.114371	0.193203
O3	O	1.493500	0.114383	0.002060
O4	O	1.476695	0.114381	0.367539
O5	O	1.493494	-0.114197	0.002059
O6	O	1.302352	-0.114209	0.193201
O7	O	1.667831	-0.114186	0.176395
Zn8	Zn	1.485090	-0.150490	0.184797
Zn9	Zn	1.485098	0.150674	0.184800
O10	O	1.476689	-0.114199	0.367537
C11	C	1.255557	0.000078	0.191968
C12	C	1.116114	0.000069	0.188276
N13	N	1.485094	-0.356026	0.184795
C14	C	1.036629	0.000089	0.300817
C15	C	0.905608	0.000113	0.297341
C16	C	0.933570	0.000104	0.068771
C17	C	1.064589	0.000070	0.072249
C18	C	1.088154	0.000088	0.416844
C19	C	1.008667	0.000109	0.529395
C20	C	0.877647	0.000133	0.525918
C21	C	0.826112	0.000136	0.409891
C22	C	1.654420	-0.356006	0.015588
C23	C	1.739091	-0.427935	-0.069011
C24	C	1.739104	-0.571815	-0.069012
C25	C	1.654434	-0.643769	0.015594
C26	C	1.569763	-0.571839	0.100193
C27	C	1.569762	-0.427956	0.100187
C28	C	1.400433	-0.571860	0.269392
C29	C	1.400424	-0.427980	0.269401
C30	C	1.315763	-0.643813	0.353997
C31	C	1.231096	-0.571884	0.438605
C32	C	1.231087	-0.427995	0.438603
C33	C	1.315753	-0.356050	0.354000
C34	C	1.714632	0.000109	0.177629
C35	C	1.854075	0.000127	0.181321
C36	C	1.492263	0.000096	-0.044739
C37	C	1.488570	0.000105	-0.184182
N38	N	1.485104	0.356211	0.184792
C39	C	1.486841	0.124702	-0.249693
C40	C	1.483361	0.124695	-0.380713
C41	C	1.483344	-0.124515	-0.380701
C42	C	1.486815	-0.124507	-0.249681
C43	C	1.488596	0.249315	-0.184193
C44	C	1.486868	0.373921	-0.249704
C45	C	1.483388	0.373915	-0.380725
C46	C	1.481635	0.249301	-0.446234
C47	C	1.477926	0.000091	0.414336
C48	C	1.481619	0.000091	0.553779
H49	H	1.194836	0.000075	0.419687
F50	F	1.315757	-0.202920	0.353996
F51	F	1.477919	0.249301	-0.585677
F52	F	1.481480	-0.257127	-0.450424
F53	F	0.878719	0.000111	-0.054704
F54	F	1.149187	0.000047	-0.047530
F55	F	1.492306	0.249332	-0.044751
H56	H	1.488283	0.475376	-0.196357
F57	F	1.488661	-0.257117	-0.179956
F58	F	0.686666	0.000143	0.406196
F59	F	1.829196	-0.351351	-0.159055
H60	H	1.050636	0.000095	0.623860
H61	H	0.812931	0.000136	0.617562
H62	H	1.162133	-0.369438	0.507490
H63	H	1.315772	-0.760968	0.353988
F64	F	1.829214	-0.648368	-0.159058
F65	F	1.654429	-0.202876	0.015594
F66	F	1.654436	-0.796899	0.015576
H67	H	1.162158	-0.630477	0.507479
F68	F	1.481536	0.506529	-0.450442
