data_functionalizedCrystal
_audit_creation_method	'MofGen! by Chris Wilmer'
_symmetry_space_group_name_H-M	'P1'
_symmetry_Int_Tables_number	1
_symmetry_cell_setting	triclinic
loop_
_symmetry_equiv_pos_as_xyz
  x,y,z
_cell_length_a	8.597213
_cell_length_b	8.559649
_cell_length_c	7.088929
_cell_angle_alpha	84.655815
_cell_angle_beta	88.663806
_cell_angle_gamma	77.624681
loop_
_atom_site_label
_atom_site_type_symbol
_atom_site_fract_x
_atom_site_fract_y
_atom_site_fract_z
O1	O	1.998338	0.287610	-0.488143
O2	O	1.547628	0.298332	-0.413905
O3	O	1.812691	0.061665	-0.457563
O4	O	1.733275	0.524277	-0.444486
O5	O	1.848123	0.029963	-0.145423
O6	O	1.583060	0.266630	-0.101766
O7	O	2.033770	0.255908	-0.176004
Cu8	Cu	1.811650	0.258375	-0.110384
Cu9	Cu	1.769748	0.295866	-0.479525
O10	O	1.768707	0.492575	-0.132346
C11	C	1.508177	0.279564	-0.248419
C12	C	1.337840	0.270852	-0.220363
C13	C	1.836425	-0.013519	-0.302488
C14	C	1.854338	-0.190313	-0.305449
C15	C	2.073220	0.274677	-0.341493
C16	C	2.243555	0.283390	-0.369562
C17	C	1.744972	0.567760	-0.287425
C18	C	1.727058	0.744555	-0.284476
N19	N	1.841133	0.232005	0.149248
N20	N	1.740278	0.322224	-0.739159
H21	H	1.293144	0.300802	-0.518754
H22	H	1.604382	-0.175952	-0.264264
H23	H	1.288241	0.253458	-0.071160
O24	O	2.016859	-0.295602	-0.332205
H25	H	2.005906	-0.422601	-0.330399
O26	O	1.979614	0.108161	0.234571
H27	H	1.934046	0.019714	0.333284
H28	H	1.635755	0.415717	0.196410
