data_functionalizedCrystal
_audit_creation_method	'MofGen! by Chris Wilmer'
_symmetry_space_group_name_H-M	'P1'
_symmetry_Int_Tables_number	1
_symmetry_cell_setting	triclinic
loop_
_symmetry_equiv_pos_as_xyz
  x,y,z
_cell_length_a	16.120530
_cell_length_b	29.839125
_cell_length_c	16.120484
_cell_angle_alpha	87.117439
_cell_angle_beta	89.832673
_cell_angle_gamma	87.091446
loop_
_atom_site_label
_atom_site_type_symbol
_atom_site_fract_x
_atom_site_fract_y
_atom_site_fract_z
Zn1	Zn	1.254394	-0.299056	0.395737
Zn2	Zn	1.504394	-0.049056	0.645737
Zn3	Zn	1.754394	0.200944	0.895737
Zn4	Zn	2.004394	0.450944	1.145737
Zn5	Zn	1.247256	-0.227530	0.534766
Zn6	Zn	1.497256	0.022470	0.784766
Zn7	Zn	1.747256	0.272470	1.034766
Zn8	Zn	1.997256	0.522470	1.284766
Zn9	Zn	1.115354	-0.219950	0.388670
Zn10	Zn	1.365354	0.030050	0.638670
Zn11	Zn	1.615354	0.280050	0.888670
Zn12	Zn	1.865354	0.530050	1.138670
Zn13	Zn	1.108246	-0.298644	0.527690
Zn14	Zn	1.358246	-0.048644	0.777690
Zn15	Zn	1.608246	0.201356	1.027690
Zn16	Zn	1.858246	0.451356	1.277690
O17	O	1.181313	-0.261295	0.461716
O18	O	1.431313	-0.011295	0.711716
O19	O	1.681313	0.238705	0.961716
O20	O	1.931313	0.488705	1.211716
O21	O	1.369812	-0.292912	0.420099
O22	O	1.619812	-0.042912	0.670099
O23	O	1.869812	0.207088	0.920099
O24	O	2.119812	0.457088	1.170099
O25	O	1.229747	-0.163657	0.515389
O26	O	1.479747	0.086343	0.765389
O27	O	1.729747	0.336343	1.015389
O28	O	1.979747	0.586343	1.265389
O29	O	1.139760	-0.227444	0.273243
O30	O	1.389760	0.022556	0.523243
O31	O	1.639760	0.272556	0.773243
O32	O	1.889760	0.522556	1.023243
O33	O	1.364568	-0.240362	0.522242
O34	O	1.614568	0.009638	0.772242
O35	O	1.864568	0.259638	1.022242
O36	O	2.114568	0.509638	1.272242
O37	O	1.241912	-0.285562	0.278435
O38	O	1.491912	-0.035562	0.528435
O39	O	1.741912	0.214438	0.778435
O40	O	1.991912	0.464438	1.028435
O41	O	1.132839	-0.158088	0.408053
O42	O	1.382839	0.091912	0.658053
O43	O	1.632839	0.341912	0.908053
O44	O	1.882839	0.591912	1.158053
O45	O	0.998047	-0.227045	0.401192
O46	O	1.248047	0.022955	0.651192
O47	O	1.498047	0.272955	0.901192
O48	O	1.748047	0.522955	1.151192
O49	O	1.127645	-0.361566	0.510183
O50	O	1.377645	-0.111566	0.760183
O51	O	1.627645	0.138434	1.010183
O52	O	1.877645	0.388434	1.260183
O53	O	0.992824	-0.284861	0.503330
O54	O	1.242824	-0.034861	0.753330
O55	O	1.492824	0.215139	1.003330
O56	O	1.742824	0.465139	1.253330
O57	O	1.235019	-0.361868	0.413238
O58	O	1.485019	-0.111868	0.663238
O59	O	1.735019	0.138132	0.913238
O60	O	1.985019	0.388132	1.163238
O61	O	1.222854	-0.239964	0.650192
O62	O	1.472854	0.010036	0.900192
O63	O	1.722854	0.260036	1.150192
O64	O	1.972854	0.510036	1.400192
O65	O	1.120724	-0.292211	0.644993
O66	O	1.370724	-0.042211	0.894993
O67	O	1.620724	0.207789	1.144993
O68	O	1.870724	0.457789	1.394993
C69	C	0.965264	-0.255086	0.450727
C70	C	1.215264	-0.005086	0.700727
C71	C	1.465264	0.244914	0.950727
C72	C	1.715264	0.494914	1.200727
C73	C	0.872836	-0.252441	0.446046
C74	C	1.122836	-0.002441	0.696046
C75	C	1.372836	0.247559	0.946046
C76	C	1.622836	0.497559	1.196046
C77	C	1.181335	-0.378474	0.461710
C78	C	1.431335	-0.128474	0.711710
C79	C	1.681335	0.121526	0.961710
C80	C	1.931335	0.371526	1.211710
C81	C	1.181345	-0.428409	0.461707
C82	C	1.431345	-0.178409	0.711707
C83	C	1.681345	0.071591	0.961707
C84	C	1.931345	0.321591	1.211707
C85	C	0.703610	-0.247616	0.437480
C86	C	0.953610	0.002384	0.687480
C87	C	1.203610	0.252384	0.937480
C88	C	1.453610	0.502384	1.187480
C89	C	0.659853	-0.275009	0.486013
C90	C	0.909853	-0.025009	0.736013
C91	C	1.159853	0.224991	0.986013
C92	C	1.409853	0.474991	1.236013
C93	C	0.565690	-0.272324	0.481247
C94	C	0.815690	-0.022324	0.731247
C95	C	1.065690	0.227676	0.981247
C96	C	1.315690	0.477676	1.231247
C97	C	0.797782	-0.250300	0.442245
C98	C	1.047782	-0.000300	0.692245
C99	C	1.297782	0.249700	0.942245
C100	C	1.547782	0.499700	1.192245
C101	C	1.237318	-0.738210	0.411091
C102	C	1.487318	-0.488210	0.661091
C103	C	1.737318	-0.238210	0.911091
C104	C	1.987318	0.011790	1.161091
C105	C	1.237363	-0.925883	0.411022
C106	C	1.487363	-0.675883	0.661022
C107	C	1.737363	-0.425883	0.911022
C108	C	1.987363	-0.175883	1.161022
O109	O	1.284887	-0.950283	0.368062
O110	O	1.534887	-0.700283	0.618062
O111	O	1.784887	-0.450283	0.868062
O112	O	2.034887	-0.200283	1.118062
N113	N	1.181467	-0.949191	0.461490
N114	N	1.431467	-0.699191	0.711490
N115	N	1.681467	-0.449191	0.961490
N116	N	1.931467	-0.199191	1.211490
C117	C	1.125552	-0.925579	0.511974
C118	C	1.375552	-0.675579	0.761974
C119	C	1.625552	-0.425579	1.011974
C120	C	1.875552	-0.175579	1.261974
O121	O	1.078004	-0.949710	0.554892
O122	O	1.328004	-0.699710	0.804892
O123	O	1.578004	-0.449710	1.054892
O124	O	1.828004	-0.199710	1.304892
C125	C	1.125504	-0.737907	0.512038
C126	C	1.375504	-0.487907	0.762038
C127	C	1.625504	-0.237907	1.012038
C128	C	1.875504	0.012093	1.262038
C129	C	1.181409	-0.714601	0.461573
C130	C	1.431409	-0.464601	0.711573
C131	C	1.681409	-0.214601	0.961573
C132	C	1.931409	0.035399	1.211573
C133	C	1.293218	-0.714905	0.360630
C134	C	1.543218	-0.464905	0.610630
C135	C	1.793218	-0.214905	0.860630
C136	C	2.043218	0.035095	1.110630
C137	C	1.293209	-0.667989	0.360651
C138	C	1.543209	-0.417989	0.610651
C139	C	1.793209	-0.167989	0.860651
C140	C	2.043209	0.082011	1.110651
C141	C	1.237300	-0.644380	0.411133
C142	C	1.487300	-0.394380	0.661133
C143	C	1.737300	-0.144380	0.911133
C144	C	1.987300	0.105620	1.161133
C145	C	1.181400	-0.667686	0.461594
C146	C	1.431400	-0.417686	0.711594
C147	C	1.681400	-0.167686	0.961594
C148	C	1.931400	0.082314	1.211594
C149	C	1.069586	-0.714295	0.562517
C150	C	1.319586	-0.464295	0.812517
C151	C	1.569586	-0.214295	1.062517
C152	C	1.819586	0.035705	1.312517
C153	C	1.069577	-0.667374	0.562527
C154	C	1.319577	-0.417374	0.812527
C155	C	1.569577	-0.167374	1.062527
C156	C	1.819577	0.082626	1.312527
C157	C	1.125482	-0.644068	0.512062
C158	C	1.375482	-0.394068	0.762062
C159	C	1.625482	-0.144068	1.012062
C160	C	1.875482	0.105932	1.262062
C161	C	1.125483	-0.597161	0.512098
C162	C	1.375483	-0.347161	0.762098
C163	C	1.625483	-0.097161	1.012098
C164	C	1.875483	0.152839	1.262098
N165	N	1.181379	-0.573853	0.461630
N166	N	1.431379	-0.323853	0.711630
N167	N	1.681379	-0.073853	0.961630
N168	N	1.931379	0.176147	1.211630
C169	C	1.237288	-0.597462	0.411148
C170	C	1.487288	-0.347462	0.661148
C171	C	1.737288	-0.097462	0.911148
C172	C	1.987288	0.152538	1.161148
C173	C	1.125582	-1.024109	0.511938
C174	C	1.375582	-0.774109	0.761938
C175	C	1.625582	-0.524109	1.011938
C176	C	1.875582	-0.274109	1.261938
C177	C	1.125595	-1.071027	0.511924
C178	C	1.375595	-0.821027	0.761924
C179	C	1.625595	-0.571027	1.011924
C180	C	1.875595	-0.321027	1.261924
C181	C	1.237405	-1.071328	0.410970
C182	C	1.487405	-0.821328	0.660970
C183	C	1.737405	-0.571328	0.910970
C184	C	1.987405	-0.321328	1.160970
C185	C	1.237396	-1.024409	0.410990
C186	C	1.487396	-0.774409	0.660990
C187	C	1.737396	-0.524409	0.910990
C188	C	1.987396	-0.274409	1.160990
C189	C	1.181478	-1.000801	0.461471
C190	C	1.431478	-0.750801	0.711471
C191	C	1.681478	-0.500801	0.961471
C192	C	1.931478	-0.250801	1.211471
C193	C	1.237266	-0.498937	0.411197
C194	C	1.487266	-0.248937	0.661197
C195	C	1.737266	0.001063	0.911197
C196	C	1.987266	0.251063	1.161197
C197	C	1.237254	-0.452018	0.411225
C198	C	1.487254	-0.202018	0.661225
C199	C	1.737254	0.047982	0.911225
C200	C	1.987254	0.297982	1.161225
C201	C	1.125442	-0.451721	0.512174
C202	C	1.375442	-0.201721	0.762174
C203	C	1.625442	0.048279	1.012174
C204	C	1.875442	0.298279	1.262174
C205	C	1.125455	-0.498636	0.512150
C206	C	1.375455	-0.248636	0.762150
C207	C	1.625455	0.001364	1.012150
C208	C	1.875455	0.251364	1.262150
C209	C	1.181371	-0.522243	0.461654
C210	C	1.431371	-0.272243	0.711654
C211	C	1.681371	-0.022243	0.961654
C212	C	1.931371	0.227757	1.211654
O213	O	1.077977	-0.572733	0.555028
O214	O	1.327977	-0.322733	0.805028
O215	O	1.577977	-0.072733	1.055028
O216	O	1.827977	0.177267	1.305028
O217	O	1.284816	-0.573322	0.368223
O218	O	1.534816	-0.323322	0.618223
O219	O	1.784816	-0.073322	0.868223
O220	O	2.034816	0.176678	1.118223
C221	C	1.237327	-0.785126	0.411070
C222	C	1.487327	-0.535126	0.661070
C223	C	1.737327	-0.285126	0.911070
C224	C	1.987327	-0.035126	1.161070
C225	C	1.181427	-0.808431	0.461531
C226	C	1.431427	-0.558431	0.711531
C227	C	1.681427	-0.308431	0.961531
C228	C	1.931427	-0.058431	1.211531
C229	C	1.125518	-0.784822	0.512013
C230	C	1.375518	-0.534822	0.762013
C231	C	1.625518	-0.284822	1.012013
C232	C	1.875518	-0.034822	1.262013
C233	C	1.181439	-0.855349	0.461516
C234	C	1.431439	-0.605349	0.711516
C235	C	1.681439	-0.355349	0.961516
C236	C	1.931439	-0.105349	1.211516
C237	C	1.237348	-0.878958	0.411034
C238	C	1.487348	-0.628958	0.661034
C239	C	1.737348	-0.378958	0.911034
C240	C	1.987348	-0.128958	1.161034
C241	C	1.293244	-0.855650	0.360567
C242	C	1.543244	-0.605650	0.610567
C243	C	1.793244	-0.355650	0.860567
C244	C	2.043244	-0.105650	1.110567
C245	C	1.293236	-0.808735	0.360588
C246	C	1.543236	-0.558735	0.610588
C247	C	1.793236	-0.308735	0.860588
C248	C	2.043236	-0.058735	1.110588
C249	C	1.069622	-0.808130	0.562481
C250	C	1.319622	-0.558130	0.812481
C251	C	1.569622	-0.308130	1.062481
C252	C	1.819622	-0.058130	1.312481
C253	C	1.069636	-0.855046	0.562456
C254	C	1.319636	-0.605046	0.812456
C255	C	1.569636	-0.355046	1.062456
C256	C	1.819636	-0.105046	1.312456
C257	C	1.125544	-0.878655	0.511974
C258	C	1.375544	-0.628655	0.761974
C259	C	1.625544	-0.378655	1.011974
C260	C	1.875544	-0.128655	1.261974
C261	C	1.398205	-0.267528	0.472748
C262	C	1.648205	-0.017528	0.722748
C263	C	1.898205	0.232472	0.972748
C264	C	2.148205	0.482472	1.222748
C265	C	1.490632	-0.270185	0.477450
C266	C	1.740632	-0.020185	0.727450
C267	C	1.990632	0.229815	0.977450
C268	C	2.240632	0.479815	1.227450
C269	C	1.170266	-0.266876	0.677766
C270	C	1.420266	-0.016876	0.927766
C271	C	1.670266	0.233124	1.177766
C272	C	1.920266	0.483124	1.427766
C273	C	1.165616	-0.269281	0.770197
C274	C	1.415616	-0.019281	1.020197
C275	C	1.665616	0.230719	1.270197
C276	C	1.915616	0.480719	1.520197
C277	C	1.181341	-0.144572	0.461665
C278	C	1.431341	0.105428	0.711665
C279	C	1.681341	0.355428	0.961665
C280	C	1.931341	0.605428	1.211665
C281	C	1.181504	-0.094636	0.461441
C282	C	1.431504	0.155364	0.711441
C283	C	1.681504	0.405364	0.961441
C284	C	1.931504	0.655364	1.211441
C285	C	1.192425	-0.255703	0.244824
C286	C	1.442425	-0.005703	0.494824
C287	C	1.692425	0.244297	0.744824
C288	C	1.942425	0.494297	0.994824
C289	C	1.197161	-0.253320	0.152397
C290	C	1.447161	-0.003320	0.402397
C291	C	1.697161	0.246680	0.652397
C292	C	1.947161	0.496680	0.902397
C293	C	1.157131	-0.273680	0.939430
C294	C	1.407131	-0.023680	1.189430
C295	C	1.657131	0.226320	1.439430
C296	C	1.907131	0.476320	1.689430
C297	C	1.205643	-0.248922	0.983169
C298	C	1.455643	0.001078	1.233169
C299	C	1.705643	0.251078	1.483169
C300	C	1.955643	0.501078	1.733169
C301	C	1.200922	-0.251370	1.077336
C302	C	1.450922	-0.001370	1.327336
C303	C	1.700922	0.248630	1.577336
C304	C	1.950922	0.498630	1.827336
C305	C	1.161851	-0.271233	0.845254
C306	C	1.411851	-0.021233	1.095254
C307	C	1.661851	0.228767	1.345254
C308	C	1.911851	0.478767	1.595254
H309	H	0.693109	-0.300478	0.531141
H310	H	0.943109	-0.050478	0.781141
H311	H	1.193109	0.199522	1.031141
H312	H	1.443109	0.449522	1.281141
H313	H	1.250720	-0.225887	0.949894
H314	H	1.500720	0.024113	1.199894
H315	H	1.750720	0.274113	1.449894
H316	H	2.000720	0.524113	1.699894
H317	H	1.282917	-1.005437	0.369896
H318	H	1.532917	-0.755437	0.619896
H319	H	1.782917	-0.505437	0.869896
H320	H	2.032917	-0.255437	1.119896
H321	H	0.670355	-0.222149	0.392355
H322	H	0.920355	0.027851	0.642355
H323	H	1.170355	0.277851	0.892355
H324	H	1.420355	0.527851	1.142355
Cl325	Cl	1.307542	-0.422722	0.347780
Cl326	Cl	1.557542	-0.172722	0.597780
Cl327	Cl	1.807542	0.077278	0.847780
Cl328	Cl	2.057542	0.327278	1.097780
Cl329	Cl	1.055323	-1.100320	0.575381
Cl330	Cl	1.305323	-0.850320	0.825381
Cl331	Cl	1.555323	-0.600320	1.075381
Cl332	Cl	1.805323	-0.350320	1.325381
H333	H	1.282794	-0.518152	0.370075
H334	H	1.532794	-0.268152	0.620075
H335	H	1.782794	-0.018152	0.870075
H336	H	2.032794	0.231848	1.120075
H337	H	1.338732	-0.649018	0.319556
H338	H	1.588732	-0.399018	0.569556
H339	H	1.838732	-0.149018	0.819556
H340	H	2.088732	0.100982	1.069556
H341	H	1.338746	-0.734122	0.319517
H342	H	1.588746	-0.484122	0.569517
H343	H	1.838746	-0.234122	0.819517
H344	H	2.088746	0.015878	1.069517
H345	H	1.024112	-0.874017	0.603559
H346	H	1.274112	-0.624017	0.853559
H347	H	1.524112	-0.374017	1.103559
H348	H	1.774112	-0.124017	1.353559
Cl349	Cl	1.087537	-0.309241	0.990801
Cl350	Cl	1.337537	-0.059241	1.240801
Cl351	Cl	1.587537	0.190759	1.490801
Cl352	Cl	1.837537	0.440759	1.740801
H353	H	1.282929	-1.090559	0.369866
H354	H	1.532929	-0.840559	0.619866
H355	H	1.782929	-0.590559	0.869866
H356	H	2.032929	-0.340559	1.119866
Cl357	Cl	1.055280	-0.994436	0.575408
Cl358	Cl	1.305280	-0.744436	0.825408
Cl359	Cl	1.555280	-0.494436	1.075408
Cl360	Cl	1.805280	-0.244436	1.325408
Cl361	Cl	0.999302	-0.743582	0.625966
Cl362	Cl	1.249302	-0.493582	0.875966
Cl363	Cl	1.499302	-0.243582	1.125966
Cl364	Cl	1.749302	0.006418	1.375966
H365	H	1.024033	-0.648153	0.603626
H366	H	1.274033	-0.398153	0.853626
H367	H	1.524033	-0.148153	1.103626
H368	H	1.774033	0.101847	1.353626
H369	H	1.079940	-0.517613	0.553250
H370	H	1.329940	-0.267613	0.803250
H371	H	1.579940	-0.017613	1.053250
H372	H	1.829940	0.232387	1.303250
H373	H	1.079924	-0.432490	0.553278
H374	H	1.329924	-0.182490	0.803278
H375	H	1.579924	0.067510	1.053278
H376	H	1.829924	0.317510	1.303278
H377	H	1.338770	-0.874881	0.319465
H378	H	1.588770	-0.624881	0.569465
H379	H	1.838770	-0.374881	0.819465
H380	H	2.088770	-0.124881	1.069465
Cl381	Cl	1.363519	-0.779443	0.297141
Cl382	Cl	1.613519	-0.529443	0.547141
Cl383	Cl	1.863519	-0.279443	0.797141
Cl384	Cl	2.113519	-0.029443	1.047141
Cl385	Cl	0.999328	-0.778457	0.625951
Cl386	Cl	1.249328	-0.528457	0.875951
Cl387	Cl	1.499328	-0.278457	1.125951
Cl388	Cl	1.749328	-0.028457	1.375951
