data_functionalizedCrystal
_audit_creation_method	'MofGen! by Chris Wilmer'
_symmetry_space_group_name_H-M	'P1'
_symmetry_Int_Tables_number	1
_symmetry_cell_setting	triclinic
loop_
_symmetry_equiv_pos_as_xyz
  x,y,z
_cell_length_a	18.050591
_cell_length_b	18.050589
_cell_length_c	16.120297
_cell_angle_alpha	87.124470
_cell_angle_beta	92.873600
_cell_angle_gamma	89.968854
loop_
_atom_site_label
_atom_site_type_symbol
_atom_site_fract_x
_atom_site_fract_y
_atom_site_fract_z
Zn1	Zn	1.113992	0.317045	-0.471516
Zn2	Zn	1.120176	0.434941	-0.332115
Zn3	Zn	0.996099	0.310761	-0.332108
Zn4	Zn	0.989747	0.441188	-0.471468
O5	O	1.055004	0.375984	-0.401802
O6	O	1.218736	0.332700	-0.453046
O7	O	1.108963	0.413223	-0.215451
O8	O	1.011808	0.207671	-0.350617
O9	O	1.223279	0.419317	-0.350629
O10	O	1.098423	0.212288	-0.453040
O11	O	1.017804	0.321989	-0.215446
O12	O	0.891333	0.328047	-0.350571
O13	O	1.000982	0.429965	-0.588137
O14	O	0.886666	0.423871	-0.452959
O15	O	1.092265	0.338758	-0.588172
O16	O	1.102804	0.539693	-0.350583
O17	O	1.006979	0.544283	-0.452966
C18	C	0.862053	0.375956	-0.401760
C19	C	0.779508	0.375963	-0.401762
C20	C	0.533192	0.323808	-0.346215
C21	C	0.579195	0.309159	-0.422297
C22	C	0.482384	0.376004	-0.401830
C23	C	0.583465	0.390598	-0.325719
C24	C	0.628371	0.375981	-0.401792
C25	C	0.527298	0.361321	-0.477952
C26	C	0.531566	0.442789	-0.381323
C27	C	0.577543	0.428168	-0.457457
C28	C	0.398285	0.376014	-0.401850
C29	C	0.712468	0.375971	-0.401780
C30	C	1.054893	0.568935	-0.401788
C31	C	1.054912	0.651482	-0.401811
C32	C	1.002829	0.853455	-0.457468
C33	C	0.988157	0.899456	-0.381393
C34	C	1.054967	0.802613	-0.401822
C35	C	1.069659	0.903694	-0.477907
C36	C	1.055019	0.948599	-0.401840
C37	C	1.040262	0.847525	-0.325707
C38	C	1.121793	0.851761	-0.422272
C39	C	1.107149	0.897737	-0.346145
C40	C	1.054936	0.718514	-0.401813
C41	C	1.055051	1.032695	-0.401840
C42	C	1.248707	0.376013	-0.401844
C43	C	1.331252	0.376025	-0.401862
C44	C	1.045225	0.385759	-0.619250
C45	C	1.041058	0.389925	-0.711913
C46	C	1.055106	1.182280	-0.401834
C47	C	1.055077	1.099735	-0.401850
C48	C	1.033423	0.397514	-0.881571
C49	C	1.076731	0.354231	-0.922884
C50	C	1.072483	0.358454	-1.017287
C51	C	1.037670	0.393292	-0.787159
C52	C	1.064787	0.366193	-0.185199
C53	C	1.069098	0.361818	-0.092536
H54	H	0.596960	0.472302	-0.504527
F55	F	0.945133	0.827926	-0.518889
F56	F	1.023962	0.815544	-0.241590
H57	H	0.502828	0.348902	-0.542321
H58	H	0.993159	0.437737	-0.917098
H59	H	1.151265	0.917125	-0.299040
F60	F	0.914321	0.926877	-0.358786
F61	F	1.129377	0.301665	-0.876447
F62	F	1.195607	0.824319	-0.444907
F63	F	0.507625	0.266090	-0.284839
H64	H	0.608025	0.402951	-0.261368
F65	F	0.504159	0.516601	-0.358636
F66	F	0.606572	0.235324	-0.444960
H67	H	1.082065	0.928253	-0.542243
