data_functionalizedCrystal
_audit_creation_method	'MofGen! by Chris Wilmer'
_symmetry_space_group_name_H-M	'P1'
_symmetry_Int_Tables_number	1
_symmetry_cell_setting	triclinic
loop_
_symmetry_equiv_pos_as_xyz
  x,y,z
_cell_length_a	14.044220
_cell_length_b	15.995350
_cell_length_c	13.101039
_cell_angle_alpha	93.364563
_cell_angle_beta	86.340132
_cell_angle_gamma	88.340626
loop_
_atom_site_label
_atom_site_type_symbol
_atom_site_fract_x
_atom_site_fract_y
_atom_site_fract_z
O1	O	1.262914	0.197637	-0.085096
O2	O	1.762914	0.697637	0.414904
O3	O	0.986946	0.190352	-0.085122
O4	O	1.486946	0.690352	0.414878
O5	O	1.132474	0.072670	-0.085107
O6	O	1.632474	0.572670	0.414893
O7	O	1.117386	0.315319	-0.085111
O8	O	1.617386	0.815319	0.414889
O9	O	1.122032	0.081129	0.085321
O10	O	1.622032	0.581129	0.585321
O11	O	0.976505	0.198810	0.085307
O12	O	1.476505	0.698810	0.585307
O13	O	1.252472	0.206096	0.085333
O14	O	1.752472	0.706096	0.585333
Zn15	Zn	1.112831	0.203796	0.112379
Zn16	Zn	1.612831	0.703796	0.612379
Zn17	Zn	1.126588	0.192651	-0.112168
Zn18	Zn	1.626588	0.692651	0.387832
O19	O	1.106945	0.323777	0.085318
O20	O	1.606945	0.823777	0.585318
C21	C	0.946411	0.191392	0.000089
C22	C	1.446411	0.691392	0.500089
C23	C	0.841186	0.181881	0.000079
C24	C	1.341186	0.681881	0.500079
C25	C	0.648524	0.164494	0.000099
C26	C	1.148524	0.664494	0.500099
C27	C	0.590890	0.231950	0.000102
C28	C	1.090890	0.731950	0.500102
C29	C	0.483686	0.222275	0.000114
C30	C	0.983686	0.722275	0.500114
C31	C	0.755738	0.174167	0.000088
C32	C	1.255738	0.674167	0.500088
C33	C	1.126629	0.045658	0.000105
C34	C	1.626629	0.545658	0.500105
C35	C	1.124760	-0.047432	0.000099
C36	C	1.624760	0.452568	0.500099
C37	C	1.118044	-0.385681	0.000102
C38	C	1.618044	0.114319	0.500102
C39	C	1.014425	-0.346007	-0.000290
C40	C	1.514425	0.153993	0.499710
C41	C	1.016272	-0.249158	0.000094
C42	C	1.516272	0.250842	0.500094
C43	C	1.121375	-0.217872	0.000100
C44	C	1.621375	0.282128	0.500100
C45	C	1.166533	-0.250301	0.097426
C46	C	1.666533	0.249699	0.597426
C47	C	1.163924	-0.347127	0.097507
C48	C	1.663924	0.152873	0.597507
C49	C	1.177939	-0.356944	-0.096302
C50	C	1.677939	0.143056	0.403698
C51	C	1.177993	-0.260065	-0.097588
C52	C	1.677993	0.239935	0.402412
C53	C	1.123263	-0.123033	0.000102
C54	C	1.623263	0.376967	0.500102
C55	C	1.116159	-0.480519	0.000106
C56	C	1.616159	0.019481	0.500106
C57	C	1.293008	0.205055	0.000120
C58	C	1.793008	0.705055	0.500120
C59	C	1.398233	0.214566	0.000123
C60	C	1.898233	0.714566	0.500123
C61	C	1.112789	0.350789	0.000103
C62	C	1.612789	0.850789	0.500103
C63	C	1.114659	0.443879	0.000103
C64	C	1.614659	0.943879	0.500103
N65	N	1.103449	0.211402	0.265626
N66	N	1.603449	0.711402	0.765626
N67	N	1.135977	0.185039	-0.265416
N68	N	1.635977	0.685039	0.234584
C69	C	1.090685	0.221758	0.474668
C70	C	1.590685	0.721758	0.974668
C71	C	1.148739	0.174686	0.525549
C72	C	1.648739	0.674686	1.025549
C73	C	1.141636	0.180448	0.641867
C74	C	1.641636	0.680448	1.141867
C75	C	1.097786	0.215997	0.358340
C76	C	1.597786	0.715997	0.858340
H77	H	0.980363	-0.227200	-0.069674
H78	H	1.480363	0.272800	0.430326
H79	H	1.145029	-0.239181	-0.169587
H80	H	1.645029	0.260819	0.330413
H81	H	0.977276	-0.371097	-0.070085
H82	H	1.477276	0.128903	0.429915
H83	H	1.254394	-0.383030	-0.096952
H84	H	1.754394	0.116970	0.403048
C85	C	0.607629	0.358917	-0.087536
C86	C	1.107629	0.858917	0.412464
C87	C	0.632952	0.319726	0.000080
C88	C	1.132952	0.819726	0.500080
H89	H	0.633593	0.413106	-0.087549
H90	H	1.133593	0.913106	0.412451
H91	H	0.632059	0.326404	-0.146952
H92	H	1.132059	0.826404	0.353048
H93	H	0.540058	0.363830	-0.087514
H94	H	1.040058	0.863830	0.412486
H95	H	0.700524	0.314807	0.000054
H96	H	1.200524	0.814807	0.500054
H97	H	0.608526	0.352247	0.059512
H98	H	1.108526	0.852247	0.559512
H99	H	1.254999	-0.239269	-0.103460
H100	H	1.754999	0.260731	0.396540
C101	C	1.324429	-0.256268	0.014905
C102	C	1.824429	0.243732	0.514905
C103	C	1.270471	-0.223201	0.102328
C104	C	1.770471	0.276799	0.602328
H105	H	1.388594	-0.239531	0.017929
H106	H	1.888594	0.260469	0.517929
H107	H	1.322801	-0.315679	0.011997
H108	H	1.822801	0.184321	0.511997
H109	H	1.298492	-0.236006	-0.044500
H110	H	1.798492	0.263994	0.455500
H111	H	1.296404	-0.243467	0.161733
H112	H	1.796404	0.256533	0.661733
H113	H	1.272104	-0.163778	0.105246
H114	H	1.772104	0.336222	0.605246
H115	H	1.203775	0.130059	0.481753
H116	H	1.703775	0.630059	0.981753
H117	H	1.035653	0.266383	0.518459
H118	H	1.535653	0.766383	1.018459
H119	H	0.617354	0.099482	0.000106
H120	H	1.117354	0.599482	0.500106
C121	C	1.209154	-0.443063	-0.251879
C122	C	1.709154	0.056937	0.248121
C123	C	1.138297	-0.393028	-0.195887
C124	C	1.638297	0.106972	0.304113
H125	H	1.184668	-0.465342	-0.313350
H126	H	1.684668	0.034658	0.186650
H127	H	1.262602	-0.410118	-0.268129
H128	H	1.762602	0.089882	0.231871
H129	H	1.228232	-0.487671	-0.212133
H130	H	1.728232	0.012329	0.287867
H131	H	1.119223	-0.348416	-0.235631
H132	H	1.619223	0.151584	0.264369
H133	H	1.084831	-0.425975	-0.179639
H134	H	1.584831	0.074025	0.320361
H135	H	0.968933	-0.365237	0.069108
H136	H	1.468933	0.134763	0.569108
H137	H	0.971537	-0.220847	0.069973
H138	H	1.471537	0.279153	0.569973
H139	H	1.122190	-0.364602	0.170256
H140	H	1.622190	0.135398	0.670256
H141	H	1.239746	-0.373472	0.101927
H142	H	1.739746	0.126528	0.601927
H143	H	1.126590	-0.220977	0.169849
H144	H	1.626590	0.279023	0.669849
