data_functionalizedCrystal
_audit_creation_method	'MofGen! by Chris Wilmer'
_symmetry_space_group_name_H-M	'P1'
_symmetry_Int_Tables_number	1
_symmetry_cell_setting	triclinic
loop_
_symmetry_equiv_pos_as_xyz
  x,y,z
_cell_length_a	29.839131
_cell_length_b	25.639242
_cell_length_c	25.639233
_cell_angle_alpha	89.977834
_cell_angle_beta	89.980415
_cell_angle_gamma	90.036947
loop_
_atom_site_label
_atom_site_type_symbol
_atom_site_fract_x
_atom_site_fract_y
_atom_site_fract_z
Zn1	Zn	-0.178962	0.799215	-0.295739
Zn2	Zn	0.154372	1.132548	0.037594
Zn3	Zn	0.487705	1.465882	0.370927
Zn4	Zn	-0.254076	0.799134	-0.208302
Zn5	Zn	0.079257	1.132468	0.125031
Zn6	Zn	0.412591	1.465801	0.458364
Zn7	Zn	-0.178955	0.711791	-0.208303
Zn8	Zn	0.154378	1.045125	0.125030
Zn9	Zn	0.487712	1.378458	0.458363
Zn10	Zn	-0.254059	0.711732	-0.295692
Zn11	Zn	0.079274	1.045066	0.037641
Zn12	Zn	0.412607	1.378399	0.370975
O13	O	-0.216513	0.755468	-0.252009
O14	O	0.116820	1.088802	0.081324
O15	O	0.450154	1.422135	0.414657
O16	O	-0.188935	0.872370	-0.284160
O17	O	0.144398	1.205703	0.049174
O18	O	0.477731	1.539036	0.382507
O19	O	-0.244115	0.787539	-0.135137
O20	O	0.089218	1.120872	0.198196
O21	O	0.422551	1.454206	0.531530
O22	O	-0.116089	0.723447	-0.219922
O23	O	0.217245	1.056780	0.113411
O24	O	0.550578	1.390114	0.446745
O25	O	-0.244122	0.872310	-0.219920
O26	O	0.089212	1.205644	0.113413
O27	O	0.422545	1.538977	0.446746
O28	O	-0.116094	0.787677	-0.284161
O29	O	0.217240	1.121010	0.049173
O30	O	0.550573	1.454343	0.382506
O31	O	-0.188924	0.723369	-0.135138
O32	O	0.144409	1.056702	0.198195
O33	O	0.477742	1.390035	0.531529
O34	O	-0.188908	0.638618	-0.219876
O35	O	0.144425	0.971952	0.113457
O36	O	0.477759	1.305285	0.446790
O37	O	-0.244093	0.723346	-0.368864
O38	O	0.089240	1.056680	-0.035530
O39	O	0.422573	1.390013	0.297803
O40	O	-0.244087	0.638575	-0.284081
O41	O	0.089246	0.971908	0.049253
O42	O	0.422580	1.305242	0.382586
O43	O	-0.188919	0.787619	-0.368898
O44	O	0.144414	1.120953	-0.035565
O45	O	0.477747	1.454286	0.297769
O46	O	-0.316941	0.787482	-0.219875
O47	O	0.016392	1.120815	0.113459
O48	O	0.349726	1.454149	0.446792
O49	O	-0.316929	0.723268	-0.284080
O50	O	0.016405	1.056601	0.049254
O51	O	0.349738	1.389935	0.382587
C52	C	-0.216495	0.619626	-0.251974
C53	C	0.116838	0.952959	0.081360
C54	C	0.450171	1.286292	0.414693
C55	C	-0.216499	0.561512	-0.251971
C56	C	0.116835	0.894845	0.081362
C57	C	0.450168	1.228178	0.414696
C58	C	-0.245293	0.201135	-0.285409
C59	C	0.088041	0.534468	0.047925
C60	C	0.421374	0.867802	0.381258
C61	C	-0.245295	0.146531	-0.285417
C62	C	0.088038	0.479864	0.047916
C63	C	0.421371	0.813197	0.381250
O64	O	-0.269755	0.118282	-0.313817
O65	O	0.063578	0.451616	0.019517
O66	O	0.396911	0.784949	0.352850
N67	N	-0.216525	0.119229	-0.252043
N68	N	0.116808	0.452563	0.081290
N69	N	0.450141	0.785896	0.414623
C70	C	-0.187748	0.146535	-0.218663
C71	C	0.145586	0.479868	0.114670
C72	C	0.478919	0.813202	0.448004
O73	O	-0.163276	0.118299	-0.190277
O74	O	0.170057	0.451632	0.143056
O75	O	0.503390	0.784966	0.476389
C76	C	-0.187743	0.201138	-0.218658
C77	C	0.145590	0.534472	0.114676
C78	C	0.478924	0.867805	0.448009
C79	C	-0.216518	0.228437	-0.252030
C80	C	0.116815	0.561770	0.081303
C81	C	0.450149	0.895104	0.414637
C82	C	-0.274065	0.228434	-0.318778
C83	C	0.059268	0.561767	0.014555
C84	C	0.392602	0.895100	0.347888
C85	C	-0.274063	0.283034	-0.318769
C86	C	0.059270	0.616367	0.014564
C87	C	0.392604	0.949701	0.347897
C88	C	-0.245288	0.310336	-0.285390
C89	C	0.088045	0.643669	0.047943
C90	C	0.421379	0.977003	0.381276
C91	C	-0.216516	0.283037	-0.252021
C92	C	0.116818	0.616371	0.081313
C93	C	0.450151	0.949704	0.414646
C94	C	-0.158963	0.228443	-0.185281
C95	C	0.174370	0.561776	0.148053
C96	C	0.507704	0.895110	0.481386
C97	C	-0.158961	0.283050	-0.185279
C98	C	0.174373	0.616383	0.148055
C99	C	0.507706	0.949717	0.481388
C100	C	-0.187736	0.310349	-0.218651
C101	C	0.145598	0.643682	0.114683
C102	C	0.478931	0.977015	0.448016
C103	C	-0.187739	0.364940	-0.218633
C104	C	0.145595	0.698273	0.114700
C105	C	0.478928	1.031607	0.448034
N106	N	-0.216509	0.392241	-0.252006
N107	N	0.116825	0.725575	0.081327
N108	N	0.450158	1.058908	0.414660
C109	C	-0.245283	0.364939	-0.285385
C110	C	0.088050	0.698273	0.047948
C111	C	0.421383	1.031606	0.381281
C112	C	-0.187759	0.031864	-0.218677
C113	C	0.145574	0.365198	0.114656
C114	C	0.478908	0.698531	0.447989
C115	C	-0.187766	-0.022738	-0.218679
C116	C	0.145568	0.310595	0.114654
C117	C	0.478901	0.643929	0.447987
C118	C	-0.245313	-0.022739	-0.285434
C119	C	0.088020	0.310595	0.047899
C120	C	0.421354	0.643928	0.381233
C121	C	-0.245308	0.031865	-0.285429
C122	C	0.088025	0.365198	0.047904
C123	C	0.421358	0.698531	0.381238
C124	C	-0.216529	0.059166	-0.252051
C125	C	0.116804	0.392499	0.081283
C126	C	0.450138	0.725832	0.414616
C127	C	-0.245277	0.479604	-0.285363
C128	C	0.088057	0.812938	0.047970
C129	C	0.421390	1.146271	0.381303
C130	C	-0.245273	0.534210	-0.285350
C131	C	0.088060	0.867543	0.047984
C132	C	0.421393	1.200876	0.381317
C133	C	-0.187724	0.534206	-0.218597
C134	C	0.145609	0.867539	0.114736
C135	C	0.478942	1.200872	0.448069
C136	C	-0.187729	0.479605	-0.218609
C137	C	0.145604	0.812938	0.114725
C138	C	0.478937	1.146272	0.448058
C139	C	-0.216507	0.452306	-0.251996
C140	C	0.116826	0.785639	0.081337
C141	C	0.450160	1.118972	0.414671
O142	O	-0.163290	0.393223	-0.190249
O143	O	0.170043	0.726556	0.143084
O144	O	0.503377	1.059890	0.476418
O145	O	-0.269746	0.393182	-0.313771
O146	O	0.063587	0.726515	0.019562
O147	O	0.396920	1.059849	0.352896
C148	C	-0.333236	0.755374	-0.251983
C149	C	0.000098	1.088707	0.081350
C150	C	0.333431	1.422041	0.414683
C151	C	-0.383170	0.755381	-0.251990
C152	C	-0.049837	1.088715	0.081344
C153	C	0.283497	1.422048	0.414677
C154	C	-0.692807	0.788965	-0.218627
C155	C	-0.359474	1.122299	0.114707
C156	C	-0.026140	1.455632	0.448040
C157	C	-0.880480	0.789030	-0.218647
C158	C	-0.547147	1.122363	0.114686
C159	C	-0.213814	1.455696	0.448020
O160	O	-0.904740	0.817509	-0.190260
O161	O	-0.571406	1.150843	0.143073
O162	O	-0.238073	1.484176	0.476406
N163	N	-0.903955	0.755577	-0.252049
N164	N	-0.570622	1.088910	0.081285
N165	N	-0.237288	1.422243	0.414618
C166	C	-0.880509	0.722108	-0.285450
C167	C	-0.547176	1.055441	0.047883
C168	C	-0.213842	1.388774	0.381216
O169	O	-0.904782	0.693659	-0.313865
O170	O	-0.571449	1.026992	0.019469
O171	O	-0.238115	1.360326	0.352802
C172	C	-0.692837	0.722046	-0.285432
C173	C	-0.359503	1.055379	0.047901
C174	C	-0.026170	1.388713	0.381235
C175	C	-0.669364	0.755498	-0.252024
C176	C	-0.336031	1.088831	0.081309
C177	C	-0.002698	1.422164	0.414642
C178	C	-0.669335	0.822415	-0.185222
C179	C	-0.336001	1.155748	0.148111
C180	C	-0.002668	1.489081	0.481445
C181	C	-0.622419	0.822396	-0.185215
C182	C	-0.289086	1.155729	0.148118
C183	C	0.044247	1.489063	0.481451
C184	C	-0.598976	0.788928	-0.218613
C185	C	-0.265643	1.122262	0.114720
C186	C	0.067690	1.455595	0.448054
C187	C	-0.622449	0.755479	-0.252018
C188	C	-0.289115	1.088812	0.081316
C189	C	0.044218	1.422146	0.414649
C190	C	-0.669391	0.688580	-0.318836
C191	C	-0.336058	1.021913	0.014497
C192	C	-0.002725	1.355247	0.347831
C193	C	-0.622470	0.688568	-0.318829
C194	C	-0.289137	1.021902	0.014504
C195	C	0.044196	1.355235	0.347837
C196	C	-0.598998	0.722020	-0.285422
C197	C	-0.265664	1.055353	0.047912
C198	C	0.067669	1.388687	0.381245
C199	C	-0.552090	0.721993	-0.285409
C200	C	-0.218757	1.055326	0.047925
C201	C	0.114576	1.388660	0.381258
N202	N	-0.528615	0.755446	-0.252007
N203	N	-0.195282	1.088779	0.081326
N204	N	0.138051	1.422113	0.414660
C205	C	-0.552058	0.788914	-0.218609
C206	C	-0.218725	1.122247	0.114724
C207	C	0.114608	1.455580	0.448058
C208	C	-0.979039	0.722141	-0.285457
C209	C	-0.645706	1.055475	0.047877
C210	C	-0.312373	1.388808	0.381210
C211	C	-1.025957	0.722156	-0.285461
C212	C	-0.692624	1.055489	0.047873
C213	C	-0.359291	1.388823	0.381206
C214	C	-1.025925	0.789079	-0.218658
C215	C	-0.692592	1.122413	0.114676
C216	C	-0.359259	1.455746	0.448009
C217	C	-0.979007	0.789062	-0.218652
C218	C	-0.645673	1.122395	0.114682
C219	C	-0.312340	1.455728	0.448015
C220	C	-0.955565	0.755595	-0.252055
C221	C	-0.622231	1.088928	0.081279
C222	C	-0.288898	1.422261	0.414612
C223	C	-0.453533	0.788872	-0.218597
C224	C	-0.120199	1.122205	0.114736
C225	C	0.213134	1.455539	0.448070
C226	C	-0.406613	0.788849	-0.218592
C227	C	-0.073280	1.122182	0.114742
C228	C	0.260054	1.455516	0.448075
C229	C	-0.406649	0.721928	-0.285396
C230	C	-0.073316	1.055261	0.047937
C231	C	0.260018	1.388595	0.381270
C232	C	-0.453564	0.721949	-0.285400
C233	C	-0.120231	1.055282	0.047933
C234	C	0.213102	1.388616	0.381267
C235	C	-0.477005	0.755425	-0.251999
C236	C	-0.143672	1.088758	0.081335
C237	C	0.189662	1.422092	0.414668
O238	O	-0.527802	0.693533	-0.313784
O239	O	-0.194469	1.026866	0.019549
O240	O	0.138865	1.360199	0.352882
O241	O	-0.527777	0.817366	-0.190207
O242	O	-0.194444	1.150700	0.143126
O243	O	0.138889	1.484033	0.476460
C244	C	-0.739723	0.788984	-0.218633
C245	C	-0.406389	1.122317	0.114700
C246	C	-0.073056	1.455650	0.448033
C247	C	-0.763195	0.755535	-0.252038
C248	C	-0.429862	1.088868	0.081295
C249	C	-0.096528	1.422201	0.414629
C250	C	-0.739752	0.722067	-0.285436
C251	C	-0.406419	1.055400	0.047898
C252	C	-0.073085	1.388733	0.381231
C253	C	-0.810113	0.755549	-0.252042
C254	C	-0.476780	1.088882	0.081291
C255	C	-0.143446	1.422216	0.414625
C256	C	-0.833556	0.789017	-0.218644
C257	C	-0.500223	1.122350	0.114689
C258	C	-0.166889	1.455684	0.448023
C259	C	-0.810081	0.822470	-0.185242
C260	C	-0.476748	1.155803	0.148091
C261	C	-0.143414	1.489137	0.481424
C262	C	-0.763166	0.822451	-0.185235
C263	C	-0.429832	1.155785	0.148098
C264	C	-0.096499	1.489118	0.481431
C265	C	-0.763227	0.688614	-0.318838
C266	C	-0.429894	1.021947	0.014496
C267	C	-0.096560	1.355280	0.347829
C268	C	-0.810143	0.688635	-0.318841
C269	C	-0.476809	1.021968	0.014492
C270	C	-0.143476	1.355301	0.347825
C271	C	-0.833585	0.722102	-0.285443
C272	C	-0.500252	1.055436	0.047890
C273	C	-0.166919	1.388769	0.381223
C274	C	-0.099335	0.755577	-0.252047
C275	C	0.233999	1.088911	0.081287
C276	C	0.567332	1.422244	0.414620
C277	C	-0.049400	0.755624	-0.252063
C278	C	0.283933	1.088957	0.081271
C279	C	0.617266	1.422290	0.414604
C280	C	-0.216505	0.755485	-0.388382
C281	C	0.116828	1.088819	-0.055049
C282	C	0.450162	1.422152	0.278284
C283	C	-0.216502	0.755492	-0.446496
C284	C	0.116832	1.088826	-0.113163
C285	C	0.450165	1.422159	0.220170
C286	C	-0.216531	0.891841	-0.252045
C287	C	0.116802	1.225175	0.081288
C288	C	0.450136	1.558508	0.414622
C289	C	-0.216539	0.949955	-0.252060
C290	C	0.116794	1.283289	0.081273
C291	C	0.450128	1.616622	0.414606
C292	C	-0.187687	0.789002	-0.806883
C293	C	0.145646	1.122335	-0.473550
C294	C	0.478979	1.455669	-0.140217
C295	C	-0.187675	0.789008	-0.861488
C296	C	0.145658	1.122342	-0.528154
C297	C	0.478992	1.455675	-0.194821
O298	O	-0.163229	0.817457	-0.889744
O299	O	0.170105	1.150790	-0.556411
O300	O	0.503438	1.484124	-0.223078
N301	N	-0.216396	0.755550	-0.888779
N302	N	0.116937	1.088883	-0.555446
N303	N	0.450270	1.422217	-0.222112
C304	C	-0.245129	0.722079	-0.861463
C305	C	0.088204	1.055413	-0.528130
C306	C	0.421538	1.388746	-0.194797
O307	O	-0.269558	0.693621	-0.889691
O308	O	0.063776	1.026954	-0.556358
O309	O	0.397109	1.360287	-0.223024
C310	C	-0.245139	0.722071	-0.806860
C311	C	0.088194	1.055404	-0.473527
C312	C	0.421528	1.388737	-0.140193
C313	C	-0.216419	0.755535	-0.779571
C314	C	0.116915	1.088868	-0.446238
C315	C	0.450248	1.422202	-0.112905
C316	C	-0.158969	0.822463	-0.779594
C317	C	0.174364	1.155796	-0.446261
C318	C	0.507698	1.489130	-0.112928
C319	C	-0.158982	0.822457	-0.724994
C320	C	0.174351	1.155790	-0.391661
C321	C	0.507685	1.489124	-0.058327
C322	C	-0.187714	0.788990	-0.697682
C323	C	0.145620	1.122323	-0.364349
C324	C	0.478953	1.455657	-0.031015
C325	C	-0.216432	0.755529	-0.724971
C326	C	0.116901	1.088862	-0.391637
C327	C	0.450235	1.422196	-0.058304
C328	C	-0.273869	0.688598	-0.779545
C329	C	0.059464	1.021931	-0.446212
C330	C	0.392798	1.355264	-0.112879
C331	C	-0.273876	0.688592	-0.724938
C332	C	0.059457	1.021925	-0.391605
C333	C	0.392791	1.355258	-0.058272
C334	C	-0.245156	0.722056	-0.697650
C335	C	0.088177	1.055389	-0.364316
C336	C	0.421511	1.388722	-0.030983
C337	C	-0.245176	0.722056	-0.643058
C338	C	0.088157	1.055389	-0.309725
C339	C	0.421490	1.388723	0.023608
N340	N	-0.216455	0.755514	-0.615767
N341	N	0.116879	1.088848	-0.282434
N342	N	0.450212	1.422181	0.050900
C343	C	-0.187723	0.788981	-0.643079
C344	C	0.145610	1.122315	-0.309745
C345	C	0.478943	1.455648	0.023588
C346	C	-0.245106	0.722100	-0.976134
C347	C	0.088228	1.055433	-0.642801
C348	C	0.421561	1.388766	-0.309467
C349	C	-0.245099	0.722110	-1.030736
C350	C	0.088235	1.055444	-0.697403
C351	C	0.421568	1.388777	-0.364070
C352	C	-0.187644	0.789039	-1.030757
C353	C	0.145690	1.122372	-0.697423
C354	C	0.479023	1.455706	-0.364090
C355	C	-0.187653	0.789030	-0.976153
C356	C	0.145680	1.122364	-0.642820
C357	C	0.479013	1.455697	-0.309487
C358	C	-0.216384	0.755558	-0.948843
C359	C	0.116949	1.088891	-0.615509
C360	C	0.450282	1.422224	-0.282176
C361	C	-0.187753	0.788967	-0.528414
C362	C	0.145580	1.122300	-0.195080
C363	C	0.478913	1.455633	0.138253
C364	C	-0.187770	0.788959	-0.473808
C365	C	0.145563	1.122293	-0.140475
C366	C	0.478896	1.455626	0.192859
C367	C	-0.245223	0.722029	-0.473793
C368	C	0.088110	1.055363	-0.140459
C369	C	0.421443	1.388696	0.192874
C370	C	-0.245208	0.722038	-0.528393
C371	C	0.088125	1.055372	-0.195060
C372	C	0.421458	1.388705	0.138274
C373	C	-0.216470	0.755509	-0.555702
C374	C	0.116864	1.088842	-0.222369
C375	C	0.450197	1.422175	0.110964
O376	O	-0.269609	0.693620	-0.614767
O377	O	0.063725	1.026954	-0.281433
O378	O	0.397058	1.360287	0.051900
O379	O	-0.163295	0.817430	-0.614845
O380	O	0.170039	1.150764	-0.281511
O381	O	0.503372	1.484097	0.051822
C382	C	-0.216488	0.755482	-0.116167
C383	C	0.116845	1.088815	0.217167
C384	C	0.450178	1.422148	0.550500
C385	C	-0.216365	0.755576	-0.058053
C386	C	0.116968	1.088909	0.275280
C387	C	0.450301	1.422242	0.608614
H388	H	-0.135532	0.206226	-0.158104
H389	H	0.197801	0.539559	0.175229
H390	H	0.531134	0.872893	0.508563
F391	F	-0.157145	-0.051785	-0.183154
F392	F	0.176189	0.281548	0.150179
F393	F	0.509522	0.614881	0.483513
H394	H	-0.268490	0.694866	-1.052950
H395	H	0.064843	1.028200	-0.719617
H396	H	0.398176	1.361533	-0.386284
F397	F	-0.738284	0.652991	-0.354387
F398	F	-0.404950	0.986325	-0.021053
F399	F	-0.071617	1.319658	0.312280
H400	H	-0.135522	0.305276	-0.158101
H401	H	0.197812	0.638609	0.175233
H402	H	0.531145	0.971942	0.508566
H403	H	-0.164324	0.054089	-0.191493
H404	H	0.169010	0.387423	0.141840
H405	H	0.502343	0.720756	0.475174
F406	F	-0.128411	0.858072	-0.695958
F407	F	0.204922	1.191405	-0.362625
F408	F	0.538255	1.524739	-0.029291
H409	H	-0.472612	0.816133	-0.191400
H410	H	-0.139279	1.149466	0.141934
H411	H	0.194054	1.482799	0.475267
H412	H	-0.297256	0.661347	-0.801754
H413	H	0.036077	0.994681	-0.468421
H414	H	0.369411	1.328014	-0.135088
F415	F	-0.478546	0.686337	-0.320946
F416	F	-0.145213	1.019670	0.012387
F417	F	0.188120	1.353003	0.345720
F418	F	-0.694362	0.652980	-0.354398
F419	F	-0.361029	0.986313	-0.021065
F420	F	-0.027696	1.319647	0.312268
F421	F	-0.157064	0.824657	-1.059834
F422	F	0.176269	1.157990	-0.726500
F423	F	0.509603	1.491324	-0.393167
F424	F	-0.157111	0.450551	-0.183083
F425	F	0.176223	0.783884	0.150250
F426	F	0.509556	1.117218	0.483584
H427	H	-0.164298	0.556445	-0.191419
H428	H	0.169035	0.889778	0.141914
H429	H	0.502368	1.223111	0.475247
F430	F	-0.304693	0.199385	-0.354308
F431	F	0.028640	0.532718	-0.020975
F432	F	0.361973	0.866052	0.312358
H433	H	-0.135570	0.849716	-0.801826
H434	H	0.197763	1.183049	-0.468493
H435	H	0.531097	1.516383	-0.135159
F436	F	-0.275905	0.450558	-0.320898
F437	F	0.057428	0.783892	0.012435
F438	F	0.390761	1.117225	0.345769
F439	F	-0.381634	0.824454	-0.183033
F440	F	-0.048301	1.157787	0.150300
F441	F	0.285032	1.491121	0.483634
F442	F	-0.275934	0.060913	-0.320948
F443	F	0.057399	0.394246	0.012385
F444	F	0.390733	0.727580	0.345718
F445	F	-0.597444	0.858006	-0.149664
F446	F	-0.264111	1.191339	0.183670
F447	F	0.069223	1.524673	0.517003
F448	F	-0.157085	0.824646	-0.947116
F449	F	0.176248	1.157980	-0.613782
F450	F	0.509581	1.491313	-0.280449
F451	F	-0.694277	0.858040	-0.149673
F452	F	-0.360944	1.191373	0.183660
F453	F	-0.027611	1.524706	0.516994
H454	H	-0.387554	0.694677	-0.312587
H455	H	-0.054221	1.028011	0.020746
H456	H	0.279112	1.361344	0.354080
H457	H	-0.603386	0.661316	-0.346032
H458	H	-0.270053	0.994649	-0.012699
H459	H	0.063281	1.327983	0.320635
H460	H	-0.959956	0.694887	-0.312658
H461	H	-0.626623	1.028221	0.020675
H462	H	-0.293289	1.361554	0.354008
H463	H	-0.164382	0.816212	-0.451592
H464	H	0.168951	1.149545	-0.118259
H465	H	0.502284	1.482879	0.215075
H466	H	-0.164350	0.816220	-0.550642
H467	H	0.168983	1.149553	-0.217309
H468	H	0.502317	1.482887	0.116024
F469	F	-0.275690	0.686475	-0.947072
F470	F	0.057643	1.019808	-0.613739
F471	F	0.390977	1.353141	-0.280406
H472	H	-0.959898	0.816301	-0.191448
H473	H	-0.626565	1.149634	0.141885
H474	H	-0.293231	1.482968	0.475218
F475	F	-1.050883	0.824697	-0.183112
F476	F	-0.717550	1.158030	0.150222
F477	F	-0.384216	1.491364	0.483555
H478	H	-0.297268	0.661328	-0.702705
H479	H	0.036065	0.994661	-0.369371
H480	H	0.369399	1.327995	-0.036038
F481	F	-0.738190	0.858057	-0.149680
F482	F	-0.404857	1.191390	0.183654
F483	F	-0.071524	1.524724	0.516987
F484	F	-0.835039	0.858087	-0.149696
F485	F	-0.501706	1.191421	0.183637
F486	F	-0.168372	1.524754	0.516970
F487	F	-0.304688	0.312080	-0.354291
F488	F	0.028646	0.645414	-0.020958
F489	F	0.361979	0.978747	0.312376
H490	H	-0.268707	0.556434	-0.312526
H491	H	0.064626	0.889767	0.020808
H492	H	0.397960	1.223101	0.354141
F493	F	-0.275934	-0.051805	-0.320963
F494	F	0.057399	0.281528	0.012370
F495	F	0.390732	0.614862	0.345704
F496	F	-1.050933	0.686547	-0.321012
F497	F	-0.717600	1.019880	0.012322
F498	F	-0.384267	1.353213	0.345655
F499	F	-0.275778	0.686426	-0.557437
F500	F	0.057555	1.019759	-0.224103
F501	F	0.390888	1.353092	0.109230
F502	F	-0.835119	0.653027	-0.354400
F503	F	-0.501785	0.986360	-0.021066
F504	F	-0.168452	1.319693	0.312267
F505	F	-0.275800	0.686413	-0.444716
F506	F	0.057534	1.019746	-0.111382
F507	F	0.390867	1.353079	0.221951
