data_functionalizedCrystal
_audit_creation_method	'MofGen! by Chris Wilmer'
_symmetry_space_group_name_H-M	'P1'
_symmetry_Int_Tables_number	1
_symmetry_cell_setting	triclinic
loop_
_symmetry_equiv_pos_as_xyz
  x,y,z
_cell_length_a	13.635800
_cell_length_b	19.453172
_cell_length_c	19.453114
_cell_angle_alpha	83.682936
_cell_angle_beta	78.290712
_cell_angle_gamma	101.710488
loop_
_atom_site_label
_atom_site_type_symbol
_atom_site_fract_x
_atom_site_fract_y
_atom_site_fract_z
V1	V	-1.999002	-0.097914	0.219330
O2	O	-1.997549	0.003953	0.214817
O3	O	-1.970516	-0.193423	0.218154
O4	O	-1.970513	-0.096738	0.314839
O5	O	-1.997552	-0.093402	0.117463
V6	V	-2.241928	-0.085691	0.207106
O7	O	-2.127079	-0.124727	0.246143
O8	O	-2.338950	-0.058877	0.180293
O9	O	-2.158811	0.009819	0.208281
O10	O	-2.302080	-0.187557	0.211619
O11	O	-2.302076	-0.090203	0.308973
O12	O	-2.158814	-0.086867	0.111597
V13	V	-1.499002	-0.097914	0.219330
O14	O	-1.497549	0.003953	0.214817
O15	O	-1.470516	-0.193423	0.218154
O16	O	-1.470513	-0.096738	0.314839
O17	O	-1.497552	-0.093402	0.117463
V18	V	-1.741928	-0.085691	0.207106
O19	O	-1.627079	-0.124727	0.246143
O20	O	-1.838950	-0.058877	0.180293
O21	O	-1.658811	0.009819	0.208281
O22	O	-1.802080	-0.187557	0.211619
O23	O	-1.802076	-0.090203	0.308973
O24	O	-1.658814	-0.086867	0.111597
C25	C	-1.892112	-0.216696	0.214778
C26	C	-1.909436	-0.294778	0.214454
C27	C	-2.123950	-0.855852	0.216325
C28	C	-2.107680	-0.782485	0.216625
C29	C	-2.008641	-0.742102	0.212598
C30	C	-1.925861	-0.775088	0.208253
C31	C	-1.942131	-0.848452	0.207947
N32	N	-1.925297	-0.630535	0.250130
N33	N	-1.909848	-0.560842	0.250423
C34	C	-1.959616	-0.521058	0.213521
N35	N	-2.025433	-0.553601	0.176325
N36	N	-2.040887	-0.623301	0.176035
C37	C	-1.990989	-0.662549	0.212930
C38	C	-2.024750	-0.408526	0.218186
C39	C	-2.008475	-0.335157	0.218482
C40	C	-1.826655	-0.327762	0.210117
C41	C	-1.842930	-0.401129	0.209815
C42	C	-1.941980	-0.441507	0.213853
C43	C	-1.892108	-0.093364	0.338108
C44	C	-1.909428	-0.093034	0.416189
C45	C	-2.068885	0.033088	0.211656
C46	C	-2.041181	0.111169	0.211984
C47	C	-2.068890	-0.090243	0.088324
C48	C	-2.041190	-0.090569	0.010242
C49	C	-1.392112	-0.216696	0.214778
C50	C	-1.409436	-0.294778	0.214454
C51	C	-1.392108	-0.093364	0.338108
C52	C	-1.409428	-0.093034	0.416189
C53	C	-2.008297	-0.096405	0.456457
C54	C	-2.024572	-0.096096	0.529823
C55	C	-1.941974	-0.092429	0.562920
C56	C	-1.843089	-0.089054	0.522641
C57	C	-1.826816	-0.089356	0.449276
N58	N	-1.910438	-0.129523	0.681834
N59	N	-1.925903	-0.129238	0.751529
C60	C	-1.990998	-0.091516	0.783965
N61	N	-2.040061	-0.054100	0.744076
N62	N	-2.024598	-0.054389	0.674375
C63	C	-1.959609	-0.092100	0.642472
C64	C	-2.107520	-0.094551	0.903785
C65	C	-2.123790	-0.094237	0.977151
C66	C	-1.942306	-0.087202	0.969969
C67	C	-1.926038	-0.087509	0.896603
C68	C	-2.008649	-0.091187	0.863516
C69	C	-1.568885	0.033088	0.211656
C70	C	-1.541181	0.111169	0.211984
C71	C	-1.568890	-0.090243	0.088324
C72	C	-1.541190	-0.090569	0.010242
C73	C	-1.508316	-0.335040	0.217823
C74	C	-1.524610	-0.408409	0.217529
C75	C	-1.442022	-0.441514	0.213861
C76	C	-1.343135	-0.401247	0.210494
C77	C	-1.326843	-0.327881	0.210793
C78	C	-1.508304	-0.096393	0.456449
C79	C	-1.524589	-0.096075	0.529813
C80	C	-1.441999	-0.092402	0.562918
C81	C	-1.343114	-0.089040	0.522652
C82	C	-1.326829	-0.089354	0.449288
C83	C	-1.614794	0.151430	0.208617
C84	C	-1.588772	0.224798	0.208914
C85	C	-1.489137	0.257903	0.212584
C86	C	-1.415517	0.217637	0.215950
C87	C	-1.441538	0.144271	0.215647
C88	C	-1.441549	-0.094234	-0.022844
C89	C	-1.415505	-0.094532	-0.096211
C90	C	-1.489104	-0.091170	-0.136490
C91	C	-1.588751	-0.087502	-0.103399
C92	C	-1.614793	-0.087200	-0.030034
H93	H	-2.204602	-0.888724	0.219611
Cl94	Cl	-1.239318	-0.442875	0.205878
H95	H	-1.605135	-0.441183	0.220270
H96	H	-1.334362	-0.097518	-0.123142
Cl97	Cl	-1.739251	-0.084443	0.564247
Cl98	Cl	-1.612160	-0.293439	0.222442
Cl99	Cl	-1.462520	-0.533748	0.213484
H100	H	-1.467962	0.317643	0.212830
H101	H	-1.246322	-0.295104	0.208045
Cl102	Cl	-2.112152	-0.101024	0.414866
Cl103	Cl	-1.612149	-0.101010	0.414848
Cl104	Cl	-1.648909	-0.100307	0.580419
H105	H	-1.455274	-0.092147	0.622656
Cl106	Cl	-1.740068	-0.082603	0.011552
H107	H	-2.175082	-0.755628	0.220155
H108	H	-1.246312	-0.086620	0.416514
Cl109	Cl	-1.801353	-0.724320	0.203185
Cl110	Cl	-1.838069	-0.889913	0.202489
H111	H	-1.467889	-0.091426	-0.196226
Cl112	Cl	-2.149266	-0.459290	0.223258
H113	H	-2.174787	-0.097543	0.876844
H114	H	-1.275874	-0.086050	0.549617
H115	H	-1.695928	0.124486	0.205630
Cl116	Cl	-1.681268	-0.083285	-0.154044
Cl117	Cl	-1.702513	-0.085122	0.398650
Cl118	Cl	-2.112535	-0.293695	0.223921
H119	H	-1.746015	-0.294882	0.206836
Cl120	Cl	-1.681337	0.275403	0.204686
Cl121	Cl	-1.290264	0.259267	0.220559
H122	H	-1.381590	0.111495	0.218396
H123	H	-1.381608	-0.096972	0.009942
H124	H	-1.775531	-0.427980	0.206283
H125	H	-2.105087	-0.098844	0.562617
H126	H	-2.204302	-0.096977	1.009936
H127	H	-1.845530	-0.084772	0.863817
Cl128	Cl	-1.838462	-0.082580	1.011567
