data_functionalizedCrystal
_audit_creation_method	'MofGen! by Chris Wilmer'
_symmetry_space_group_name_H-M	'P1'
_symmetry_Int_Tables_number	1
_symmetry_cell_setting	triclinic
loop_
_symmetry_equiv_pos_as_xyz
  x,y,z
_cell_length_a	19.288864
_cell_length_b	9.616153
_cell_length_c	10.540510
_cell_angle_alpha	89.999754
_cell_angle_beta	83.824779
_cell_angle_gamma	90.020701
loop_
_atom_site_label
_atom_site_type_symbol
_atom_site_fract_x
_atom_site_fract_y
_atom_site_fract_z
O1	O	0.922398	0.116085	0.158340
O2	O	1.422398	0.616085	0.658340
O3	O	0.720279	0.115989	0.179701
O4	O	1.220279	0.615989	0.679701
O5	O	0.825961	0.116038	-0.015791
O6	O	1.325961	0.616038	0.484209
O7	O	0.816717	0.116035	0.353833
O8	O	1.316717	0.616035	0.853833
O9	O	0.825946	-0.115253	-0.015787
O10	O	1.325946	0.384747	0.484213
O11	O	0.720264	-0.115303	0.179705
O12	O	1.220264	0.384697	0.679705
O13	O	0.922384	-0.115207	0.158345
O14	O	1.422384	0.384793	0.658345
Zn15	Zn	0.821322	-0.151977	0.169026
Zn16	Zn	1.321322	0.348023	0.669026
Zn17	Zn	0.821341	0.152759	0.169020
Zn18	Zn	1.321341	0.652759	0.669020
O19	O	0.816702	-0.115256	0.353837
O20	O	1.316702	0.384744	0.853837
C21	C	0.694391	0.000331	0.179016
C22	C	1.194391	0.500331	0.679016
C23	C	0.617273	0.000294	0.176953
C24	C	1.117273	0.500294	0.676953
N25	N	0.821314	-0.359952	0.169029
N26	N	1.321314	0.140048	0.669029
C27	C	0.573336	0.000315	0.291659
C28	C	1.073336	0.500315	0.791659
C29	C	0.500876	0.000331	0.289720
C30	C	1.000876	0.500331	0.789720
C31	C	0.472357	0.000353	0.173069
C32	C	0.972357	0.500353	0.673069
C33	C	0.516304	0.000324	0.058348
C34	C	1.016304	0.500324	0.558348
C35	C	0.588762	0.000295	0.060290
C36	C	1.088762	0.500295	0.560290
C37	C	0.363493	0.081432	0.081367
C38	C	0.863493	0.581432	0.581367
C39	C	0.291036	0.081470	0.079430
C40	C	0.791036	0.581470	0.579430
C41	C	0.248872	0.000437	0.167076
C42	C	0.748872	0.500437	0.667076
C43	C	0.279172	-0.080616	0.256680
C44	C	0.779172	0.419384	0.756680
C45	C	0.351630	-0.080645	0.258622
C46	C	0.851630	0.419355	0.758622
C47	C	0.393789	0.000384	0.170951
C48	C	0.893789	0.500384	0.670951
C49	C	0.126364	0.000473	0.279688
C50	C	0.626364	0.500473	0.779688
C51	C	0.053903	0.000480	0.277745
C52	C	0.553903	0.500480	0.777745
C53	C	0.069333	0.000487	0.046370
C54	C	0.569333	0.500487	0.546370
C55	C	0.141792	0.000467	0.048316
C56	C	0.641792	0.500467	0.548316
C57	C	0.170303	0.000466	0.164979
C58	C	0.670303	0.500466	0.664979
C59	C	0.764608	-0.580348	0.273261
C60	C	1.264608	-0.080348	0.773261
C61	C	0.764733	-0.419181	0.273644
C62	C	1.264733	0.080819	0.773644
C63	C	0.893929	-0.418367	0.197544
C64	C	1.393929	0.081633	0.697544
C65	C	0.893620	-0.579585	0.198280
C66	C	1.393620	-0.079585	0.698280
C67	C	0.806126	-0.579871	0.035927
C68	C	1.306126	-0.079871	0.535927
C69	C	0.804460	-0.418645	0.036829
C70	C	1.304460	0.081355	0.536829
C71	C	0.948272	0.000454	0.159030
C72	C	1.448272	0.500454	0.659030
C73	C	1.025389	0.000500	0.161093
C74	C	1.525389	0.500500	0.661093
C75	C	0.825264	0.000395	-0.063077
C76	C	1.325264	0.500395	0.436923
C77	C	0.823203	0.000403	-0.203981
C78	C	1.323203	0.500403	0.296019
N79	N	0.821354	0.360734	0.169007
N80	N	1.321354	0.860734	0.669007
C81	C	0.896620	-0.000092	-0.423073
C82	C	1.396620	0.499908	0.076927
C83	C	0.898819	0.000437	-0.276526
C84	C	1.398819	0.500437	0.223474
C85	C	0.784504	0.132460	-0.247880
C86	C	1.284504	0.632460	0.252120
C87	C	0.782841	0.132563	-0.394604
C88	C	1.282841	0.632563	0.105396
C89	C	0.781250	-0.130460	-0.394372
C90	C	1.281250	0.369540	0.105628
C91	C	0.784837	-0.132196	-0.248111
C92	C	1.284837	0.367804	0.251889
C93	C	0.817398	0.000390	0.401123
C94	C	1.317398	0.500390	0.901123
C95	C	0.819459	0.000392	0.542027
C96	C	1.319459	0.500392	1.042027
H97	H	0.596544	0.000317	0.386654
H98	H	1.096544	0.500317	0.886654
H99	H	0.465095	0.000344	0.383131
H100	H	0.965095	0.500344	0.883131
H101	H	0.754294	-0.620633	0.008402
H102	H	1.254294	-0.120633	0.508402
H103	H	0.774269	-0.620842	0.371471
H104	H	1.274269	-0.120842	0.871471
H105	H	0.843052	-0.378332	-0.044353
H106	H	1.343052	0.121668	0.455647
H107	H	0.805273	-0.230562	-0.437088
H108	H	1.305273	0.269438	0.062912
H109	H	0.926073	-0.094797	-0.465683
H110	H	1.426073	0.405203	0.034317
H111	H	0.376298	-0.146645	0.331576
H112	H	0.876298	0.353355	0.831576
H113	H	0.046114	0.000592	-0.048610
H114	H	0.546114	0.500592	0.451390
H115	H	0.906940	-0.617166	0.295322
H116	H	1.406940	-0.117166	0.795322
H117	H	0.751039	-0.380470	0.015179
H118	H	1.251039	0.119530	0.515179
H119	H	0.624537	0.000279	-0.033121
H120	H	1.124537	0.500279	0.466879
H121	H	0.929287	0.095292	-0.248802
H122	H	1.429287	0.595292	0.251198
H123	H	0.907546	-0.377969	0.293480
H124	H	1.407546	0.122031	0.793480
H125	H	0.244843	-0.146601	0.328049
H126	H	0.744843	0.353399	0.828049
H127	H	0.149579	0.000452	0.374682
H128	H	0.649579	0.500452	0.874682
H129	H	0.812996	-0.229892	-0.220125
H130	H	1.312996	0.270108	0.279875
H131	H	0.726286	0.138520	-0.416338
H132	H	1.226286	0.638520	0.083662
H133	H	0.847501	-0.617967	-0.041651
H134	H	1.347501	-0.117967	0.458349
H135	H	0.774521	-0.380596	0.372412
H136	H	1.274521	0.119404	0.872412
H137	H	0.937200	-0.618553	0.125318
H138	H	1.437200	-0.118553	0.625318
H139	H	0.018129	0.000489	0.371156
H140	H	0.518129	0.500489	0.871156
H141	H	0.925915	0.094104	-0.467233
H142	H	1.425915	0.594104	0.032767
H143	H	0.177568	0.000457	-0.045090
H144	H	0.677568	0.500457	0.454910
H145	H	0.929099	-0.094224	-0.247856
H146	H	1.429099	0.405776	0.252144
H147	H	0.809300	0.231304	-0.435411
H148	H	1.309300	0.731304	0.064589
H149	H	0.266371	0.147474	0.006475
H150	H	0.766371	0.647474	0.506475
H151	H	0.728838	0.137345	-0.199250
H152	H	1.228838	0.637345	0.300750
H153	H	0.937187	-0.379994	0.123616
H154	H	1.437187	0.120006	0.623616
H155	H	0.811392	0.230764	-0.217624
H156	H	1.311392	0.730764	0.282376
H157	H	0.397819	0.147427	0.009993
H158	H	0.897819	0.647427	0.509993
H159	H	0.493079	0.000362	-0.036630
H160	H	0.993079	0.500362	0.463370
H161	H	0.710778	-0.379691	0.256715
H162	H	1.210778	0.120309	0.756715
H163	H	0.710484	-0.619185	0.256615
H164	H	1.210484	-0.119185	0.756615
H165	H	0.729631	-0.140198	-0.197814
H166	H	1.229631	0.359802	0.302186
H167	H	0.724478	-0.131376	-0.415257
H168	H	1.224478	0.368624	0.084743
