data_functionalizedCrystal
_audit_creation_method	'MofGen! by Chris Wilmer'
_symmetry_space_group_name_H-M	'P1'
_symmetry_Int_Tables_number	1
_symmetry_cell_setting	triclinic
loop_
_symmetry_equiv_pos_as_xyz
  x,y,z
_cell_length_a	27.732048
_cell_length_b	17.019282
_cell_length_c	26.210047
_cell_angle_alpha	86.108150
_cell_angle_beta	90.018179
_cell_angle_gamma	83.017024
loop_
_atom_site_label
_atom_site_type_symbol
_atom_site_fract_x
_atom_site_fract_y
_atom_site_fract_z
O1	O	0.061547	1.045932	-0.003537
O2	O	0.561547	1.545932	0.496463
O3	O	0.069409	0.816166	0.006563
O4	O	0.569409	1.316166	0.506563
O5	O	-0.004892	0.938185	0.001190
O6	O	0.495108	1.438185	0.501190
O7	O	0.135847	0.923913	0.001836
O8	O	0.635847	1.423913	0.501836
O9	O	-0.004909	0.938212	-0.083670
O10	O	0.495091	1.438212	0.416330
O11	O	0.069392	0.816194	-0.078296
O12	O	0.569392	1.316194	0.421704
O13	O	0.061530	1.045959	-0.088397
O14	O	0.561530	1.545959	0.411603
Cu15	Cu	0.065459	0.931079	-0.091095
Cu16	Cu	0.565459	1.431079	0.408905
Cu17	Cu	0.065479	0.931047	0.009261
Cu18	Cu	0.565479	1.431047	0.509261
O19	O	0.135830	0.923940	-0.083023
O20	O	0.635830	1.423940	0.416977
C21	C	0.069104	0.786794	-0.034575
C22	C	0.569104	1.286794	0.465425
C23	C	0.068214	0.699233	-0.030726
C24	C	0.568214	1.199233	0.469274
C25	C	0.067786	0.658116	-0.075176
C26	C	0.567786	1.158116	0.424824
C27	C	0.066942	0.575844	-0.071561
C28	C	0.566942	1.075844	0.428439
C29	C	0.066530	0.534691	-0.023495
C30	C	0.566530	1.034691	0.476505
C31	C	0.066957	0.575814	0.020958
C32	C	0.566957	1.075814	0.520958
C33	C	0.067797	0.658084	0.017342
C34	C	0.567797	1.158084	0.517342
C35	C	0.063991	0.286286	-0.010265
C36	C	0.563991	0.786286	0.489735
C37	C	0.063153	0.204010	-0.006653
C38	C	0.563153	0.704010	0.493347
C39	C	0.063137	0.204046	-0.099172
C40	C	0.563137	0.704046	0.400828
C41	C	0.063980	0.286318	-0.102783
C42	C	0.563980	0.786318	0.397217
C43	C	0.064404	0.327434	-0.058330
C44	C	0.564404	0.827434	0.441670
C45	C	0.065670	0.450596	-0.019799
C46	C	0.565670	0.950596	0.480201
C47	C	0.065261	0.411528	-0.062027
C48	C	0.565261	0.911528	0.437973
C49	C	-0.022908	0.937899	-0.041228
C50	C	0.477092	1.437899	0.458772
C51	C	-0.076567	0.936997	-0.041193
C52	C	0.423433	1.436997	0.458807
C53	C	-0.415126	1.003423	-0.044087
C54	C	0.084874	1.503423	0.455913
C55	C	-0.616799	1.000076	-0.043932
C56	C	-0.116799	1.500076	0.456068
O57	O	-0.647821	1.060818	-0.046580
O58	O	-0.147821	1.560818	0.453420
N59	N	-0.636201	0.927724	-0.040752
N60	N	-0.136201	1.427724	0.459248
C61	C	-0.605181	0.856203	-0.037607
C62	C	-0.105181	1.356203	0.462393
O63	O	-0.626311	0.794587	-0.034893
O64	O	-0.126311	1.294587	0.465107
C65	C	-0.403509	0.859551	-0.037758
C66	C	0.096491	1.359551	0.462242
C67	C	-0.384110	0.931908	-0.040943
C68	C	0.115890	1.431908	0.459057
C69	C	-0.395727	1.075774	-0.047271
C70	C	0.104273	1.575774	0.452729
C71	C	-0.345311	1.076610	-0.047313
C72	C	0.154689	1.576610	0.452687
C73	C	-0.314296	1.005095	-0.044169
C74	C	0.185704	1.505095	0.455831
C75	C	-0.333695	0.932744	-0.040985
C76	C	0.166305	1.432744	0.459015
C77	C	-0.372491	0.788032	-0.034609
C78	C	0.127509	1.288032	0.465391
C79	C	-0.322070	0.788875	-0.034646
C80	C	0.177930	1.288875	0.465354
C81	C	-0.302671	0.861232	-0.037831
C82	C	0.197329	1.361232	0.462169
C83	C	-0.252265	0.862065	-0.037883
C84	C	0.247735	1.362065	0.462117
N85	N	-0.232863	0.934417	-0.041063
N86	N	0.267137	1.434417	0.458937
C87	C	-0.263878	1.005932	-0.044206
C88	C	0.236122	1.505932	0.455794
C89	C	-0.711062	0.854451	-0.037529
C90	C	-0.211062	1.354451	0.462471
C91	C	-0.761479	0.853614	-0.037493
C92	C	-0.261479	1.353614	0.462507
C93	C	-0.773094	0.997486	-0.043817
C94	C	-0.273094	1.497486	0.456183
C95	C	-0.722675	0.998323	-0.043857
C96	C	-0.222675	1.498323	0.456143
C97	C	-0.691660	0.926803	-0.040709
C98	C	-0.191660	1.426803	0.459291
C99	C	-0.158002	1.007682	-0.044293
C100	C	0.341998	1.507682	0.455707
C101	C	-0.107582	1.008512	-0.044336
C102	C	0.392418	1.508512	0.455664
C103	C	-0.095972	0.864640	-0.038009
C104	C	0.404028	1.364640	0.461991
C105	C	-0.146388	0.863809	-0.037969
C106	C	0.353612	1.363809	0.462031
C107	C	-0.177402	0.935337	-0.041109
C108	C	0.322598	1.435337	0.458891
O109	O	-0.221214	0.801356	-0.035230
O110	O	0.278786	1.301356	0.464770
O111	O	-0.242739	1.067540	-0.046908
O112	O	0.257261	1.567540	0.453092
C113	C	-0.465541	1.002587	-0.044045
C114	C	0.034459	1.502587	0.455955
C115	C	-0.484941	0.930236	-0.040861
C116	C	0.015059	1.430236	0.459139
C117	C	-0.453925	0.858721	-0.037717
C118	C	0.046075	1.358721	0.462283
C119	C	-0.535358	0.929399	-0.040824
C120	C	-0.035358	1.429399	0.459176
C121	C	-0.566374	1.000914	-0.043967
C122	C	-0.066374	1.500914	0.456033
C123	C	-0.546972	1.073266	-0.047147
C124	C	-0.046972	1.573266	0.452853
C125	C	-0.496557	1.074102	-0.047189
C126	C	0.003443	1.574102	0.452811
C127	C	-0.473327	0.786369	-0.034537
C128	C	0.026673	1.286369	0.465463
C129	C	-0.523743	0.785539	-0.034497
C130	C	-0.023743	1.285539	0.465503
C131	C	-0.554758	0.857054	-0.037640
C132	C	-0.054758	1.357054	0.462360
C133	C	0.153847	0.924226	-0.040604
C134	C	0.653847	1.424226	0.459396
C135	C	0.207505	0.925128	-0.040636
C136	C	0.707505	1.425128	0.459364
C137	C	0.061835	1.075332	-0.047257
C138	C	0.561835	1.575332	0.452743
C139	C	0.062724	1.162893	-0.051103
C140	C	0.562724	1.662893	0.448897
N141	N	0.065490	0.931025	0.079846
N142	N	0.565490	1.431025	0.579846
N143	N	0.065445	0.931107	-0.161680
N144	N	0.565445	1.431107	0.338320
C145	C	0.098308	0.876941	0.488196
C146	C	0.598308	1.376941	0.988196
C147	C	0.098318	0.876917	0.274538
C148	C	0.598318	1.376917	0.774538
O149	O	0.126254	0.830901	0.248946
O150	O	0.626254	1.330901	0.748946
N151	N	0.065485	0.931045	0.245429
N152	N	0.565485	1.431045	0.745429
C153	C	0.032650	0.985186	0.269738
C154	C	0.532650	1.485186	0.769738
O155	O	0.004728	1.031230	0.240076
O156	O	0.504728	1.531230	0.740076
C157	C	0.032644	0.985212	0.483394
C158	C	0.532644	1.485212	0.983394
C159	C	0.065475	0.931076	0.512501
C160	C	0.565475	1.431076	1.012501
C161	C	0.131137	0.822809	0.517302
C162	C	0.631137	1.322809	1.017302
C163	C	0.131133	0.822813	0.570713
C164	C	0.631133	1.322813	1.070713
C165	C	0.098300	0.876948	0.595018
C166	C	0.598300	1.376948	1.095018
C167	C	0.065471	0.931079	0.565912
C168	C	0.565471	1.431079	1.065912
C169	C	-0.000188	1.039356	0.507701
C170	C	0.499812	1.539356	1.007701
C171	C	-0.000186	1.039359	0.561119
C172	C	0.499814	1.539359	1.061119
C173	C	0.032645	0.985223	0.590226
C174	C	0.532645	1.485223	1.090226
C175	C	0.032633	0.985218	0.643628
C176	C	0.532633	1.485218	1.143628
N177	N	0.065465	0.931090	0.672737
N178	N	0.565465	1.431090	1.172737
C179	C	0.098299	0.876955	0.648432
C180	C	0.598299	1.376955	1.148432
C181	C	0.032656	0.985167	0.157565
C182	C	0.532656	1.485167	0.657565
C183	C	0.032657	0.985160	0.104151
C184	C	0.532657	1.485160	0.604151
C185	C	0.098324	0.876892	0.108955
C186	C	0.598324	1.376892	0.608955
C187	C	0.098321	0.876896	0.162370
C188	C	0.598321	1.376896	0.662370
C189	C	0.065488	0.931040	0.186674
C190	C	0.565488	1.431040	0.686674
C191	C	0.098287	0.876966	0.760599
C192	C	0.598287	1.376966	1.260599
C193	C	0.098278	0.876972	0.814015
C194	C	0.598278	1.376972	1.314015
C195	C	0.032612	0.985242	0.809207
C196	C	0.532612	1.485242	1.309207
C197	C	0.032619	0.985234	0.755795
C198	C	0.532619	1.485234	1.255795
C199	C	0.065460	0.931092	0.731493
C200	C	0.565460	1.431092	1.231493
O201	O	0.004715	1.031216	0.669254
O202	O	0.504715	1.531216	1.169254
O203	O	0.126224	0.830930	0.678102
O204	O	0.626224	1.330930	1.178102
C205	C	0.098313	0.876937	0.434784
C206	C	0.598313	1.376937	0.934784
C207	C	0.065484	0.931069	0.405678
C208	C	0.565484	1.431069	0.905678
C209	C	0.032651	0.985204	0.429983
C210	C	0.532651	1.485204	0.929983
C211	C	0.065485	0.931061	0.352264
C212	C	0.565485	1.431061	0.852264
C213	C	0.098318	0.876926	0.327959
C214	C	0.598318	1.376926	0.827959
C215	C	0.131150	0.822799	0.357068
C216	C	0.631150	1.322799	0.857068
C217	C	0.131146	0.822802	0.410479
C218	C	0.631146	1.322802	0.910479
C219	C	-0.000182	1.039331	0.400874
C220	C	0.499818	1.539331	0.900874
C221	C	-0.000175	1.039323	0.347463
C222	C	0.499825	1.539323	0.847463
C223	C	0.032658	0.985188	0.323158
C224	C	0.532658	1.485188	0.823158
H225	H	0.062790	0.170561	-0.135363
H226	H	0.562790	0.670561	0.364637
C227	C	0.134411	0.817404	0.733875
C228	C	0.634411	1.317404	1.233875
N229	N	0.161617	0.772537	0.713747
N230	N	0.661617	1.272537	1.213747
H231	H	0.005918	1.029258	0.177349
H232	H	0.505918	1.529258	0.677349
H233	H	0.064335	0.319754	0.025932
H234	H	0.564335	0.819754	0.525932
H235	H	0.065334	0.417079	0.019336
H236	H	0.565334	0.917079	0.519336
H237	H	0.157868	0.778732	0.594409
H238	H	0.657868	1.278732	1.094409
C239	C	-0.287956	0.710195	-0.031184
C240	C	0.212044	1.210195	0.468816
N241	N	-0.262262	0.650933	-0.028579
N242	N	0.237738	1.150933	0.471421
H243	H	-0.777269	0.794693	-0.034907
H244	H	-0.277269	1.294693	0.465093
H245	H	-0.162183	0.804891	-0.035389
H246	H	0.337817	1.304891	0.464611
C247	C	0.134450	0.817363	0.194382
C248	C	0.634450	1.317363	0.694382
N249	N	0.161669	0.772527	0.218490
N250	N	0.661669	1.272527	0.718490
H251	H	0.005878	1.029316	0.829004
H252	H	0.505878	1.529316	1.329004
H253	H	-0.070711	0.806414	-0.035452
H254	H	0.429289	1.306414	0.464548
H255	H	-0.183249	1.065927	-0.046848
H256	H	0.316751	1.565927	0.453152
H257	H	0.062819	0.170504	0.032489
H258	H	0.562819	0.670504	0.532489
C259	C	0.068270	0.703312	0.066241
C260	C	0.568270	1.203312	0.566241
N261	N	0.068624	0.737377	0.103073
N262	N	0.568624	1.237377	0.603073
C263	C	0.068238	0.703377	-0.128051
C264	C	0.568238	1.203377	0.371949
N265	N	0.068577	0.737467	-0.167879
N266	N	0.568577	1.237467	0.332121
H267	H	0.066619	0.542301	0.060093
H268	H	0.566619	1.042301	0.560093
H269	H	-0.448079	0.728131	-0.031976
H270	H	0.051921	1.228131	0.468024
C271	C	-0.036313	1.098899	0.475697
C272	C	0.463687	1.598899	0.975697
N273	N	-0.063528	1.143747	0.451591
N274	N	0.436472	1.643747	0.951591
C275	C	0.065727	0.456797	-0.114897
C276	C	0.565727	0.956797	0.385103
N277	N	0.066085	0.490899	-0.154719
N278	N	0.566085	0.990899	0.345281
H279	H	-0.091791	1.067436	-0.046932
H280	H	0.408209	1.567436	0.453068
C281	C	-0.036300	1.098873	0.315452
C282	C	0.463700	1.598873	0.815452
N283	N	-0.063507	1.143727	0.291343
N284	N	0.436493	1.643727	0.791343
H285	H	-0.329522	1.135530	-0.049905
H286	H	0.170478	1.635530	0.450095
C287	C	-0.429837	1.154453	-0.050735
C288	C	0.070163	1.654453	0.449265
N289	N	-0.455526	1.213720	-0.053350
N290	N	0.044474	1.713720	0.446650
H291	H	0.125013	0.832885	0.837713
H292	H	0.625013	1.332885	1.337713
C293	C	0.167257	0.763247	0.490575
C294	C	0.667257	1.263247	0.990575
N295	N	0.194462	0.718376	0.470449
N296	N	0.694462	1.218376	0.970449
H297	H	0.066585	0.542373	-0.107757
H298	H	0.566585	1.042373	0.392243
H299	H	0.125058	0.832812	0.089157
H300	H	0.625058	1.332812	0.589157
H301	H	-0.706884	1.057242	-0.046451
H302	H	-0.206884	1.557242	0.453549
H303	H	-0.798355	1.055717	-0.046377
H304	H	-0.298355	1.555717	0.453623
C305	C	-0.003469	1.044701	0.072141
C306	C	0.496531	1.544701	0.572141
N307	N	-0.030679	1.089550	0.048032
N308	N	0.469321	1.589550	0.548032
H309	H	0.064313	0.319820	-0.141923
H310	H	0.564313	0.819820	0.358077
H311	H	-0.480767	1.133022	-0.049783
H312	H	0.019233	1.633022	0.450217
H313	H	-0.572234	1.131496	-0.049709
H314	H	-0.072234	1.631496	0.450291
H315	H	0.157880	0.778719	0.434174
H316	H	0.657880	1.278719	0.934174
H317	H	0.157883	0.778717	0.337270
H318	H	0.657883	1.278717	0.837270
H319	H	-0.026922	1.083451	0.580904
H320	H	0.473078	1.583451	1.080904
C321	C	-0.676951	0.775768	-0.034067
C322	C	-0.176951	1.275768	0.465933
N323	N	-0.651260	0.716503	-0.031460
N324	N	-0.151260	1.216503	0.468540
C325	C	-0.393818	0.708432	-0.031101
C326	C	0.106182	1.208432	0.468899
N327	N	-0.409880	0.648473	-0.028457
N328	N	0.090120	1.148473	0.471543
H329	H	-0.539532	0.726613	-0.031907
H330	H	-0.039532	1.226613	0.468093
C331	C	-0.003494	1.044791	0.723777
C332	C	0.496506	1.544791	1.223777
N333	N	-0.030690	1.089659	0.699664
N334	N	0.469310	1.589659	1.199664
H335	H	-0.026918	1.083416	0.420659
H336	H	0.473082	1.583416	0.920659
