data_functionalizedCrystal
_audit_creation_method	'MofGen! by Chris Wilmer'
_symmetry_space_group_name_H-M	'P1'
_symmetry_Int_Tables_number	1
_symmetry_cell_setting	triclinic
loop_
_symmetry_equiv_pos_as_xyz
  x,y,z
_cell_length_a	14.908795
_cell_length_b	21.295417
_cell_length_c	21.295411
_cell_angle_alpha	89.979403
_cell_angle_beta	86.674589
_cell_angle_gamma	93.319839
loop_
_atom_site_label
_atom_site_type_symbol
_atom_site_fract_x
_atom_site_fract_y
_atom_site_fract_z
Zn1	Zn	1.379256	-0.195242	-0.411535
Zn2	Zn	1.879256	0.304758	0.088465
Zn3	Zn	1.379118	-0.300499	-0.306257
Zn4	Zn	1.879118	0.199501	0.193743
Zn5	Zn	1.228373	-0.201307	-0.300196
Zn6	Zn	1.728373	0.298693	0.199804
Zn7	Zn	1.228331	-0.306543	-0.405408
Zn8	Zn	1.728331	0.193457	0.094592
O9	O	1.303770	-0.250898	-0.355849
O10	O	1.803770	0.249102	0.144151
O11	O	1.505488	-0.204136	-0.402671
O12	O	2.005488	0.295864	0.097329
O13	O	1.359082	-0.287350	-0.217362
O14	O	1.859082	0.212650	0.282638
O15	O	1.248463	-0.112410	-0.314993
O16	O	1.748463	0.387590	0.185007
O17	O	1.505387	-0.281469	-0.325323
O18	O	2.005387	0.218531	0.174677
O19	O	1.359316	-0.107954	-0.396793
O20	O	1.859316	0.392046	0.103207
O21	O	1.248330	-0.214474	-0.212909
O22	O	1.748330	0.285526	0.287091
O23	O	1.102118	-0.220335	-0.309052
O24	O	1.602118	0.279665	0.190948
O25	O	1.248392	-0.291770	-0.494312
O26	O	1.748392	0.208230	0.005688
O27	O	1.102087	-0.297651	-0.386351
O28	O	1.602087	0.202349	0.113649
O29	O	1.359276	-0.209997	-0.498814
O30	O	1.859276	0.290003	0.001186
O31	O	1.359041	-0.389393	-0.319382
O32	O	1.859041	0.110607	0.180618
O33	O	1.248258	-0.393834	-0.392228
O34	O	1.748258	0.106166	0.107772
C35	C	1.069367	-0.260308	-0.346379
C36	C	1.569367	0.239692	0.153621
C37	C	0.969088	-0.264348	-0.342343
C38	C	1.469088	0.235652	0.157657
C39	C	0.827699	-0.310239	-0.296321
C40	C	1.327699	0.189761	0.203679
C41	C	0.921920	-0.306445	-0.300113
C42	C	1.421920	0.193555	0.199887
C43	C	0.922030	-0.226041	-0.380781
C44	C	1.422030	0.273959	0.119219
C45	C	0.827809	-0.229836	-0.376989
C46	C	1.327809	0.270164	0.123011
C47	C	0.780647	-0.271936	-0.334758
C48	C	1.280647	0.228064	0.165242
C49	C	0.686425	-0.275733	-0.330969
C50	C	1.186425	0.224267	0.169031
C51	C	0.686537	-0.195327	-0.411634
C52	C	1.186537	0.304673	0.088366
C53	C	0.780757	-0.191533	-0.415426
C54	C	1.280757	0.308467	0.084574
C55	C	1.303655	-0.414454	-0.355813
C56	C	1.803655	0.085546	0.144187
C57	C	1.303688	-0.484421	-0.355821
C58	C	1.803688	0.015579	0.144179
C59	C	1.361376	-0.514911	-0.398442
C60	C	1.861376	-0.014911	0.101558
C61	C	1.361408	-0.580653	-0.398459
C62	C	1.861408	-0.080653	0.101541
C63	C	1.303761	-0.615900	-0.355844
C64	C	1.803761	-0.115900	0.144156
C65	C	1.246062	-0.585402	-0.313220
C66	C	1.746062	-0.085402	0.186780
C67	C	1.246025	-0.519663	-0.313208
C68	C	1.746025	-0.019663	0.186792
N69	N	1.296940	-0.719427	-0.300478
N70	N	1.796940	-0.219427	0.199522
N71	N	1.296980	-0.781877	-0.300491
N72	N	1.796980	-0.281877	0.199509
C73	C	1.303867	-0.813971	-0.355877
C74	C	1.803867	-0.313971	0.144123
N75	N	1.310729	-0.781255	-0.411251
N76	N	1.810729	-0.281255	0.088749
N77	N	1.310694	-0.718799	-0.411238
N78	N	1.810694	-0.218799	0.088762
C79	C	1.303794	-0.687184	-0.355852
C80	C	1.803794	-0.187184	0.144148
C81	C	1.361592	-0.915745	-0.398520
C82	C	1.861592	-0.415745	0.101480
C83	C	1.361618	-0.981488	-0.398537
C84	C	1.861618	-0.481488	0.101463
C85	C	1.246276	-0.986236	-0.313292
C86	C	1.746276	-0.486236	0.186708
C87	C	1.246246	-0.920495	-0.313280
C88	C	1.746246	-0.420495	0.186720
C89	C	1.303909	-0.885253	-0.355893
C90	C	1.803909	-0.385253	0.144107
C91	C	1.539088	-0.241452	-0.365357
C92	C	2.039088	0.258548	0.134643
C93	C	1.639366	-0.237426	-0.369408
C94	C	2.139366	0.262574	0.130592
C95	C	1.303845	-0.250881	-0.520042
C96	C	1.803845	0.249119	-0.020042
C97	C	1.303877	-0.250875	-0.590012
C98	C	1.803877	0.249125	-0.090012
C99	C	1.303910	-0.086702	-0.355901
C100	C	1.803910	0.413298	0.144099
C101	C	1.303969	-0.016731	-0.355922
C102	C	1.803969	0.483269	0.144078
C103	C	1.361611	-0.208294	-0.625223
C104	C	1.861611	0.291706	-0.125223
C105	C	1.361610	-0.208266	-0.690966
C106	C	1.861610	0.291734	-0.190966
C107	C	1.303884	-0.250831	-0.721495
C108	C	1.803884	0.249169	-0.221495
C109	C	1.246138	-0.293415	-0.686275
C110	C	1.746138	0.206585	-0.186275
C111	C	1.246134	-0.293437	-0.620533
C112	C	1.746134	0.206563	-0.120533
N113	N	1.296924	-0.306178	-0.824430
N114	N	1.796924	0.193822	-0.324430
N115	N	1.296933	-0.306156	-0.886882
N116	N	1.796933	0.193844	-0.386882
C117	C	1.303889	-0.250767	-0.919570
C118	C	1.803889	0.249233	-0.419570
N119	N	1.310855	-0.195400	-0.887447
N120	N	1.810855	0.304600	-0.387447
N121	N	1.310851	-0.195423	-0.824990
N122	N	1.810851	0.304577	-0.324990
C123	C	1.303881	-0.250812	-0.792780
C124	C	1.803881	0.249188	-0.292780
C125	C	1.361626	-0.208153	-1.026067
C126	C	1.861626	0.291847	-0.526067
C127	C	1.361618	-0.208125	-1.091810
C128	C	1.861618	0.291875	-0.591810
C129	C	1.246150	-0.293279	-1.087118
C130	C	1.746150	0.206721	-0.587118
C131	C	1.246153	-0.293302	-1.021376
C132	C	1.746153	0.206698	-0.521376
C133	C	1.303896	-0.250739	-0.990854
C134	C	1.803896	0.249261	-0.490854
C135	C	1.303747	-0.250866	-0.192297
C136	C	1.803747	0.249134	0.307703
C137	C	1.303890	-0.250689	-0.122335
C138	C	1.803890	0.249311	0.377665
H139	H	1.408377	-0.605483	-0.433173
H140	H	1.908377	-0.105483	0.066827
H141	H	0.819169	-0.157254	-0.449808
H142	H	1.319169	0.342746	0.050192
H143	H	1.199139	-0.327930	-1.111974
H144	H	1.699139	0.172070	-0.611974
H145	H	0.960445	-0.191762	-0.415160
H146	H	1.460445	0.308238	0.084840
C147	C	1.424207	-1.014514	-0.444914
C148	C	1.924207	-0.514514	0.055086
C149	C	1.404538	-0.999279	-0.506389
C150	C	1.904538	-0.499279	-0.006389
C151	C	1.462186	-1.029684	-0.549127
C152	C	1.962186	-0.529684	-0.049127
H153	H	1.416029	-1.058722	-0.438910
H154	H	1.916029	-0.558722	0.061090
H155	H	1.484838	-1.001256	-0.438214
H156	H	1.984838	-0.501256	0.061786
H157	H	1.343921	-1.012541	-0.513086
H158	H	1.843921	-0.512541	-0.013086
H159	H	1.412721	-0.955077	-0.512413
H160	H	1.912721	-0.455077	-0.012413
H161	H	1.522818	-1.016426	-0.542427
H162	H	2.022818	-0.516426	-0.042427
H163	H	1.454004	-1.073890	-0.543117
H164	H	1.954004	-0.573890	-0.043117
H165	H	1.448855	-1.019347	-0.590842
H166	H	1.948855	-0.519347	-0.090842
H167	H	1.199123	-0.614105	-0.278524
H168	H	1.699123	-0.114105	0.221476
H169	H	1.408542	-0.887050	-0.433220
H170	H	1.908542	-0.387050	0.066780
C171	C	0.635337	-0.153845	-0.453403
C172	C	1.135337	0.346155	0.046597
C173	C	0.581244	-0.191728	-0.491498
C174	C	1.081244	0.308272	0.008502
C175	C	0.534059	-0.153541	-0.529980
C176	C	1.034059	0.346459	-0.029980
H177	H	0.676821	-0.128221	-0.479152
H178	H	1.176821	0.371779	0.020848
H179	H	0.598523	-0.127873	-0.427913
H180	H	1.098523	0.372127	0.072087
H181	H	0.618055	-0.217689	-0.516987
H182	H	1.118055	0.282311	-0.016987
H183	H	0.539744	-0.217351	-0.465766
H184	H	1.039744	0.282649	0.034234
H185	H	0.497245	-0.127569	-0.504489
H186	H	0.997245	0.372431	-0.004489
H187	H	0.575549	-0.127918	-0.555725
H188	H	1.075549	0.372082	-0.055725
H189	H	0.497345	-0.179238	-0.555828
H190	H	0.997345	0.320762	-0.055828
C191	C	1.424151	-0.161813	-1.130067
C192	C	1.924151	0.338187	-0.630067
C193	C	1.373101	-0.123487	-1.165718
C194	C	1.873101	0.376513	-0.665718
C195	C	1.430674	-0.080809	-1.200960
C196	C	1.930674	0.419191	-0.700960
H197	H	1.463458	-0.184230	-1.157363
H198	H	1.963458	0.315770	-0.657363
H199	H	1.458518	-0.136435	-1.102487
H200	H	1.958518	0.363565	-0.602487
H201	H	1.338749	-0.148862	-1.193295
H202	H	1.838749	0.351138	-0.693295
H203	H	1.333796	-0.101056	-1.138437
H204	H	1.833796	0.398944	-0.638437
H205	H	1.465041	-0.055431	-1.173381
H206	H	1.965041	0.444569	-0.673381
H207	H	1.469978	-0.103231	-1.228253
H208	H	1.969978	0.396769	-0.728253
H209	H	1.396045	-0.054796	-1.225150
H210	H	1.896045	0.445204	-0.725150
H211	H	1.199333	-1.014935	-0.278598
H212	H	1.699333	-0.514935	0.221402
H213	H	1.199115	-0.328111	-0.591864
H214	H	1.699115	0.171889	-0.091864
H215	H	1.408623	-0.173589	-0.719641
H216	H	1.908623	0.326411	-0.219641
C217	C	1.183587	-0.887501	-0.266928
C218	C	1.683587	-0.387501	0.233072
C219	C	1.133125	-0.932437	-0.229599
C220	C	1.633125	-0.432437	0.270401
C221	C	1.075398	-0.902067	-0.186886
C222	C	1.575398	-0.402067	0.313114
H223	H	1.144166	-0.863449	-0.289317
H224	H	1.644166	-0.363449	0.210683
H225	H	1.218087	-0.860476	-0.240877
H226	H	1.718087	-0.360476	0.259123
H227	H	1.098627	-0.959452	-0.255647
H228	H	1.598627	-0.459452	0.244353
H229	H	1.172522	-0.956492	-0.207196
H230	H	1.672522	-0.456492	0.292804
H231	H	1.109899	-0.875042	-0.160834
H232	H	1.609899	-0.375042	0.339166
H233	H	1.035983	-0.878016	-0.209280
H234	H	1.535983	-0.378016	0.290720
H235	H	1.041159	-0.932551	-0.161549
H236	H	1.541159	-0.432551	0.338451
C237	C	1.183564	-0.339603	-0.719535
C238	C	1.683564	0.160397	-0.219535
C239	C	1.195943	-0.330483	-0.784646
C240	C	1.695943	0.169517	-0.284646
C241	C	1.138320	-0.373025	-0.815305
C242	C	1.638320	0.126975	-0.315305
H243	H	1.122916	-0.332869	-0.706377
H244	H	1.622916	0.167131	-0.206377
H245	H	1.196740	-0.381386	-0.709329
H246	H	1.696740	0.118614	-0.209329
H247	H	1.182760	-0.288710	-0.794848
H248	H	1.682760	0.211290	-0.294848
H249	H	1.256579	-0.337222	-0.797822
H250	H	1.756579	0.162778	-0.297822
H251	H	1.151496	-0.414808	-0.805099
H252	H	1.651496	0.085192	-0.305099
H253	H	1.077675	-0.366288	-0.802142
H254	H	1.577675	0.133712	-0.302142
H255	H	1.146717	-0.366847	-0.859486
H256	H	1.646717	0.133153	-0.359486
H257	H	1.408629	-0.173635	-0.600377
H258	H	1.908629	0.326365	-0.100377
C259	C	1.424340	-0.161869	-0.993039
C260	C	1.924340	0.338131	-0.493039
C261	C	1.474880	-0.124555	-1.037949
C262	C	1.974880	0.375445	-0.537949
C263	C	1.532652	-0.081905	-1.007549
C264	C	2.032652	0.418095	-0.507549
H265	H	1.463710	-0.184306	-0.968990
H266	H	1.963710	0.315694	-0.468990
H267	H	1.389869	-0.135801	-0.966006
H268	H	1.889869	0.364199	-0.466006
H269	H	1.509348	-0.150619	-1.064971
H270	H	2.009348	0.349381	-0.564971
H271	H	1.435533	-0.102104	-1.062001
H272	H	1.935533	0.397896	-0.562001
H273	H	1.498181	-0.055838	-0.980516
H274	H	1.998181	0.444162	-0.480516
H275	H	1.572016	-0.104348	-0.983501
H276	H	2.072016	0.395652	-0.483501
H277	H	1.566944	-0.056579	-1.038016
H278	H	2.066944	0.443421	-0.538016
C279	C	1.424010	-0.476762	-0.444780
C280	C	1.924010	0.023238	0.055220
C281	C	1.474523	-0.517541	-0.482120
C282	C	1.974523	-0.017541	0.017880
C283	C	1.532221	-0.482420	-0.524817
C284	C	2.032221	0.017580	-0.024817
H285	H	1.463401	-0.449518	-0.422379
H286	H	1.963401	0.050482	0.077621
H287	H	1.389488	-0.452526	-0.470825
H288	H	1.889488	0.047474	0.029175
H289	H	1.509043	-0.541767	-0.456077
H290	H	2.009043	-0.041767	0.043923
H291	H	1.435156	-0.544786	-0.504534
H292	H	1.935156	-0.044786	-0.004534
H293	H	1.497699	-0.458184	-0.550863
H294	H	1.997699	0.041816	-0.050863
H295	H	1.571606	-0.455177	-0.502411
H296	H	2.071606	0.044823	-0.002411
H297	H	1.566495	-0.510084	-0.550161
H298	H	2.066495	-0.010084	-0.050161
H299	H	1.199145	-0.327979	-0.992706
H300	H	1.699145	0.172021	-0.492706
H301	H	1.199048	-0.494837	-0.278501
H302	H	1.699048	0.005163	0.221499
H303	H	0.789299	-0.344524	-0.261939
H304	H	1.289299	0.155476	0.238061
C305	C	0.635333	-0.321537	-0.285160
C306	C	1.135333	0.178463	0.214840
C307	C	0.658245	-0.382917	-0.299662
C308	C	1.158245	0.117083	0.200338
C309	C	0.611209	-0.425127	-0.257469
C310	C	1.111209	0.074873	0.242531
H311	H	0.572465	-0.318400	-0.288365
H312	H	1.072465	0.181600	0.211635
H313	H	0.650767	-0.311676	-0.243493
H314	H	1.150767	0.188324	0.256507
H315	H	0.642805	-0.392775	-0.341319
H316	H	1.142805	0.107225	0.158681
H317	H	0.721104	-0.386075	-0.296453
H318	H	1.221104	0.113925	0.203547
H319	H	0.626643	-0.415266	-0.215802
H320	H	1.126643	0.084734	0.284198
H321	H	0.548343	-0.421984	-0.260678
H322	H	1.048343	0.078016	0.239322
H323	H	0.626754	-0.466777	-0.267300
H324	H	1.126754	0.033223	0.232700
C325	C	0.972843	-0.348109	-0.258353
C326	C	1.472843	0.151891	0.241647
C327	C	0.911370	-0.385800	-0.220571
C328	C	1.411370	0.114200	0.279429
C329	C	0.958247	-0.424196	-0.182098
C330	C	1.458247	0.075804	0.317902
H331	H	1.009597	-0.322580	-0.232392
H332	H	1.509597	0.177420	0.267608
H333	H	1.009580	-0.374127	-0.283849
H334	H	1.509580	0.125873	0.216151
H335	H	0.874649	-0.359785	-0.195077
H336	H	1.374649	0.140215	0.304923
H337	H	0.874614	-0.411341	-0.246515
H338	H	1.374614	0.088659	0.253485
H339	H	0.994984	-0.450214	-0.207594
H340	H	1.494984	0.049786	0.292406
H341	H	0.994999	-0.398662	-0.156141
H342	H	1.494999	0.101338	0.343859
H343	H	0.916545	-0.449778	-0.156462
H344	H	1.416545	0.050222	0.343538
