data_functionalizedCrystal
_audit_creation_method	'MofGen! by Chris Wilmer'
_symmetry_space_group_name_H-M	'P1'
_symmetry_Int_Tables_number	1
_symmetry_cell_setting	triclinic
loop_
_symmetry_equiv_pos_as_xyz
  x,y,z
_cell_length_a	18.266242
_cell_length_b	16.109301
_cell_length_c	16.109301
_cell_angle_alpha	83.461481
_cell_angle_beta	89.992231
_cell_angle_gamma	89.993683
loop_
_atom_site_label
_atom_site_type_symbol
_atom_site_fract_x
_atom_site_fract_y
_atom_site_fract_z
O1	O	0.060837	-1.103137	-0.106868
O2	O	0.060849	-0.861075	-0.120168
O3	O	0.060835	-0.988756	0.007513
O4	O	0.060851	-0.975457	-0.234549
O5	O	-0.060927	-0.988734	0.007519
O6	O	-0.060913	-0.861054	-0.120161
O7	O	-0.060925	-1.103116	-0.106862
Zn8	Zn	-0.080251	-0.982081	-0.113510
Zn9	Zn	0.080175	-0.982110	-0.113519
O10	O	-0.060911	-0.975435	-0.234543
C11	C	-0.000031	-0.830090	-0.119626
C12	C	-0.000026	-0.737794	-0.118011
C13	C	-0.000046	-0.988206	0.038491
C14	C	-0.000047	-0.986591	0.130786
N15	N	-0.189738	-0.982068	-0.113504
C16	C	-0.228053	-1.038623	-0.056995
C17	C	-0.304698	-1.038629	-0.056991
C18	C	-0.343025	-0.982086	-0.113511
C19	C	-0.304701	-0.925520	-0.170024
C20	C	-0.228058	-0.925511	-0.170021
N21	N	-0.463353	-0.971484	-0.187080
N22	N	-0.536161	-0.971498	-0.187081
C23	C	-0.573948	-0.982110	-0.113523
N24	N	-0.536176	-0.992723	-0.039962
N25	N	-0.463361	-0.992714	-0.039962
C26	C	-0.426132	-0.982090	-0.113520
C27	C	-0.695370	-1.038674	-0.057005
C28	C	-0.772016	-1.038673	-0.057000
C29	C	-0.772017	-0.925569	-0.170040
C30	C	-0.695373	-0.925565	-0.170038
C31	C	-0.657053	-0.982122	-0.113521
N32	N	0.189662	-0.982130	-0.113519
C33	C	-0.000044	-1.134101	-0.107404
C34	C	-0.000043	-1.226397	-0.109019
C35	C	-0.000030	-0.515522	-0.190018
C36	C	-0.000035	-0.428801	-0.188494
C37	C	-0.000042	-0.448676	-0.037006
C38	C	-0.000042	-0.535394	-0.038530
C39	C	-0.000033	-0.568815	-0.115039
C40	C	-0.000037	-0.395376	-0.111990
C41	C	-0.000042	-0.301350	-0.110337
C42	C	-0.000029	-0.662847	-0.116693
C43	C	-0.000028	-0.975984	-0.265521
C44	C	-0.000023	-0.977600	-0.357816
C45	C	-0.000039	-1.058599	0.353059
C46	C	-0.000033	-1.057075	0.439779
C47	C	-0.000028	-0.905586	0.419905
C48	C	-0.000029	-0.907111	0.333186
C49	C	-0.000038	-0.983620	0.299766
C50	C	-0.000031	-0.980571	0.473205
C51	C	-0.000025	-0.978918	0.567231
C52	C	-0.000044	-0.985273	0.205734
H53	H	-0.335900	-1.084684	-0.010973
H54	H	-0.000034	-0.385413	-0.249550
C55	C	0.000088	-0.822584	0.456308
C56	C	0.062721	-0.817300	0.505523
C57	C	0.062845	-0.740854	0.539079
H58	H	0.000127	-0.778074	0.412234
H59	H	-0.042352	-0.818828	0.489776
H60	H	0.105150	-0.821047	0.472057
H61	H	0.062695	-0.861792	0.549611
H62	H	0.020405	-0.737098	0.572547
H63	H	0.062882	-0.696350	0.494999
H64	H	0.105337	-0.737262	0.572481
C65	C	0.000116	-1.138457	0.497680
C66	C	0.062772	-1.142029	0.548017
C67	C	0.062942	-1.216994	0.601356
H68	H	-0.042293	-1.141086	0.532010
H69	H	0.000151	-1.184260	0.465381
H70	H	0.062731	-1.096238	0.580313
H71	H	0.105192	-1.139414	0.513709
H72	H	0.062977	-1.262797	0.569057
H73	H	0.020530	-1.219616	0.635681
H74	H	0.105456	-1.219431	0.635511
H75	H	-0.000045	-1.120897	0.325851
H76	H	-0.000026	-0.846050	0.289792
H77	H	-0.196856	-1.084673	-0.010974
C78	C	0.000072	-0.412501	0.046117
C79	C	0.062705	-0.439618	0.091443
C80	C	0.062833	-0.406321	0.168025
H81	H	0.000113	-0.353225	0.036406
H82	H	-0.042368	-0.430812	0.077040
H83	H	0.105134	-0.421302	0.060526
H84	H	0.062678	-0.498889	0.101177
H85	H	0.020393	-0.424632	0.198948
H86	H	0.062872	-0.347046	0.158305
H87	H	0.105325	-0.424721	0.198791
H88	H	-0.335911	-0.879481	-0.216042
C89	C	0.000087	-0.551693	-0.273143
C90	C	0.062721	-0.524590	-0.318485
C91	C	0.062847	-0.557881	-0.395070
H92	H	0.000125	-0.610969	-0.263436
H93	H	-0.042352	-0.533368	-0.304053
H94	H	0.105150	-0.542920	-0.287582
H95	H	0.062696	-0.465318	-0.328215
H96	H	0.020408	-0.539556	-0.425980
H97	H	0.062883	-0.617157	-0.385354
H98	H	0.105340	-0.539491	-0.425847
H99	H	-0.000046	-0.578788	0.022530
H100	H	-0.196861	-0.879455	-0.216038
H101	H	-0.803213	-1.084725	-0.010979
C102	C	-0.653892	-1.100105	0.004454
C103	C	-0.703856	-1.149617	0.053966
C104	C	-0.665676	-1.206208	0.110599
H105	H	-0.623981	-1.134781	-0.025366
H106	H	-0.624019	-1.070227	0.039118
H107	H	-0.733717	-1.179493	0.019306
H108	H	-0.733769	-1.114964	0.083805
H109	H	-0.635803	-1.176330	0.145263
H110	H	-0.635767	-1.240878	0.080771
H111	H	-0.699571	-1.239803	0.144204
H112	H	-0.803223	-0.879528	-0.216056
C113	C	-0.653901	-0.864131	-0.231493
C114	C	-0.703867	-0.814627	-0.281006
C115	C	-0.665691	-0.758028	-0.337636
H116	H	-0.624010	-0.829451	-0.201671
H117	H	-0.624007	-0.894003	-0.266157
H118	H	-0.733748	-0.784757	-0.246347
H119	H	-0.733759	-0.849285	-0.310847
H120	H	-0.635797	-0.787900	-0.372300
H121	H	-0.635801	-0.723353	-0.307806
H122	H	-0.699587	-0.724438	-0.371242
