data_functionalizedCrystal
_audit_creation_method	'MofGen! by Chris Wilmer'
_symmetry_space_group_name_H-M	'P1'
_symmetry_Int_Tables_number	1
_symmetry_cell_setting	triclinic
loop_
_symmetry_equiv_pos_as_xyz
  x,y,z
_cell_length_a	29.839125
_cell_length_b	29.839134
_cell_length_c	17.077402
_cell_angle_alpha	90.015628
_cell_angle_beta	89.984422
_cell_angle_gamma	89.975687
loop_
_atom_site_label
_atom_site_type_symbol
_atom_site_fract_x
_atom_site_fract_y
_atom_site_fract_z
Zn1	Zn	-0.254160	0.686778	-0.312770
Zn2	Zn	0.079174	1.020111	0.020563
Zn3	Zn	0.412507	1.353444	0.353897
Zn4	Zn	-0.179032	0.686734	-0.444012
Zn5	Zn	0.154301	1.020067	-0.110679
Zn6	Zn	0.487634	1.353401	0.222654
Zn7	Zn	-0.179026	0.611660	-0.312748
Zn8	Zn	0.154307	0.944994	0.020585
Zn9	Zn	0.487641	1.278327	0.353919
Zn10	Zn	-0.254118	0.611632	-0.443981
Zn11	Zn	0.079216	0.944966	-0.110648
Zn12	Zn	0.412549	1.278299	0.222685
O13	O	-0.216584	0.649201	-0.378378
O14	O	0.116749	0.982534	-0.045045
O15	O	0.450083	1.315868	0.288289
O16	O	-0.244214	0.749639	-0.330202
O17	O	0.089119	1.082972	0.003131
O18	O	0.422453	1.416306	0.336465
O19	O	-0.116164	0.676769	-0.426604
O20	O	0.217169	1.010102	-0.093270
O21	O	0.550502	1.343435	0.240063
O22	O	-0.189008	0.621655	-0.202904
O23	O	0.144326	0.954988	0.130429
O24	O	0.477659	1.288321	0.463763
O25	O	-0.189018	0.749607	-0.426625
O26	O	0.144315	1.082940	-0.093292
O27	O	0.477648	1.416274	0.240042
O28	O	-0.244208	0.676843	-0.202920
O29	O	0.089125	1.010176	0.130413
O30	O	0.422459	1.343510	0.463746
O31	O	-0.116160	0.621612	-0.330164
O32	O	0.217173	0.954946	0.003169
O33	O	0.550507	1.288279	0.336502
O34	O	-0.188967	0.548789	-0.330134
O35	O	0.144366	0.882123	0.003199
O36	O	0.477700	1.215456	0.336533
O37	O	-0.316990	0.621607	-0.426572
O38	O	0.016343	0.954940	-0.093239
O39	O	0.349676	1.288274	0.240095
O40	O	-0.244137	0.548769	-0.426551
O41	O	0.089197	0.882102	-0.093217
O42	O	0.422530	1.215436	0.240116
O43	O	-0.317021	0.676816	-0.330172
O44	O	0.016312	1.010149	0.003162
O45	O	0.349645	1.343483	0.336495
O46	O	-0.188978	0.676742	-0.553855
O47	O	0.144356	1.010075	-0.220522
O48	O	0.477689	1.343408	0.112812
O49	O	-0.244143	0.621565	-0.553832
O50	O	0.089191	0.954898	-0.220499
O51	O	0.422524	1.288231	0.112834
C52	C	-0.216547	0.532478	-0.378337
C53	C	0.116786	0.865812	-0.045004
C54	C	0.450120	1.199145	0.288330
C55	C	-0.216542	0.482544	-0.378339
C56	C	0.116792	0.815877	-0.045005
C57	C	0.450125	1.149211	0.288328
C58	C	-0.187916	0.125955	-0.328100
C59	C	0.145417	0.459288	0.005234
C60	C	0.478751	0.792622	0.338567
C61	C	-0.187889	0.313628	-0.328078
C62	C	0.145445	0.646961	0.005256
C63	C	0.478778	0.980295	0.338589
O64	O	-0.163508	0.337891	-0.285296
O65	O	0.169825	0.671224	0.048037
O66	O	0.503158	1.004558	0.381371
N67	N	-0.216564	0.337099	-0.378351
N68	N	0.116769	0.670432	-0.045018
N69	N	0.450102	1.003766	0.288315
C70	C	-0.245251	0.313649	-0.428630
C71	C	0.088083	0.646982	-0.095297
C72	C	0.421416	0.980315	0.238036
O73	O	-0.269644	0.337918	-0.471385
O74	O	0.063690	0.671251	-0.138052
O75	O	0.397023	1.004585	0.195281
C76	C	-0.245280	0.125976	-0.428648
C77	C	0.088053	0.459310	-0.095315
C78	C	0.421387	0.792643	0.238019
C79	C	-0.216599	0.102508	-0.378377
C80	C	0.116734	0.435841	-0.045043
C81	C	0.450067	0.769175	0.288290
C82	C	-0.159238	0.102487	-0.277832
C83	C	0.174095	0.435820	0.055502
C84	C	0.507429	0.769153	0.388835
C85	C	-0.159243	0.055571	-0.277841
C86	C	0.174090	0.388905	0.055493
C87	C	0.507423	0.722238	0.388826
C88	C	-0.187927	0.032124	-0.328118
C89	C	0.145407	0.365457	0.005216
C90	C	0.478740	0.698791	0.338549
C91	C	-0.216605	0.055593	-0.378386
C92	C	0.116729	0.388926	-0.045052
C93	C	0.450062	0.722259	0.288281
C94	C	-0.273968	0.102527	-0.478923
C95	C	0.059365	0.435860	-0.145589
C96	C	0.392698	0.769193	0.187744
C97	C	-0.273974	0.055606	-0.478921
C98	C	0.059359	0.388939	-0.145588
C99	C	0.392693	0.722272	0.187745
C100	C	-0.245293	0.032137	-0.428650
C101	C	0.088040	0.365471	-0.095317
C102	C	0.421373	0.698804	0.238017
C103	C	-0.245293	-0.014770	-0.428672
C104	C	0.088040	0.318563	-0.095338
C105	C	0.421373	0.651897	0.237995
N106	N	-0.216618	-0.038241	-0.378398
N107	N	0.116716	0.295093	-0.045065
N108	N	0.450049	0.628426	0.288269
C109	C	-0.187934	-0.014794	-0.328121
C110	C	0.145399	0.318540	0.005212
C111	C	0.478732	0.651873	0.338546
C112	C	-0.245233	0.412179	-0.428619
C113	C	0.088101	0.745512	-0.095285
C114	C	0.421434	1.078846	0.238048
C115	C	-0.245225	0.459097	-0.428616
C116	C	0.088108	0.792430	-0.095282
C117	C	0.421442	1.125764	0.238051
C118	C	-0.187863	0.459073	-0.328061
C119	C	0.145470	0.792407	0.005272
C120	C	0.478803	1.125740	0.338605
C121	C	-0.187869	0.412155	-0.328069
C122	C	0.145464	0.745488	0.005264
C123	C	0.478797	1.078821	0.338598
C124	C	-0.216557	0.388708	-0.378345
C125	C	0.116776	0.722042	-0.045012
C126	C	0.450110	1.055375	0.288322
C127	C	-0.187948	-0.113320	-0.328144
C128	C	0.145386	0.220014	0.005189
C129	C	0.478719	0.553347	0.338522
C130	C	-0.187954	-0.160239	-0.328160
C131	C	0.145379	0.173094	0.005173
C132	C	0.478712	0.506428	0.338506
C133	C	-0.245317	-0.160211	-0.428711
C134	C	0.088016	0.173122	-0.095378
C135	C	0.421349	0.506455	0.237956
C136	C	-0.245309	-0.113296	-0.428699
C137	C	0.088024	0.220037	-0.095365
C138	C	0.421357	0.553371	0.237968
C139	C	-0.216623	-0.089851	-0.378409
C140	C	0.116710	0.243482	-0.045075
C141	C	0.450044	0.576816	0.288258
O142	O	-0.269665	-0.039062	-0.471425
O143	O	0.063669	0.294271	-0.138091
O144	O	0.397002	0.627605	0.195242
O145	O	-0.163552	-0.039071	-0.285360
O146	O	0.169781	0.294262	0.047973
O147	O	0.503114	0.627595	0.381306
C148	C	-0.187911	0.172871	-0.328091
C149	C	0.145423	0.506204	0.005243
C150	C	0.478756	0.839537	0.338576
C151	C	-0.216588	0.196339	-0.378359
C152	C	0.116745	0.529672	-0.045025
C153	C	0.450078	0.863006	0.288308
C154	C	-0.245272	0.172892	-0.428636
C155	C	0.088061	0.506225	-0.095302
C156	C	0.421395	0.839558	0.238031
C157	C	-0.216581	0.243257	-0.378355
C158	C	0.116753	0.576590	-0.045022
C159	C	0.450086	0.909923	0.288311
C160	C	-0.187897	0.266704	-0.328078
C161	C	0.145436	0.600037	0.005255
C162	C	0.478769	0.933370	0.338588
C163	C	-0.159222	0.243233	-0.277805
C164	C	0.174112	0.576566	0.055529
C165	C	0.507445	0.909900	0.388862
C166	C	-0.159227	0.196318	-0.277814
C167	C	0.174106	0.529651	0.055520
C168	C	0.507439	0.862984	0.388853
C169	C	-0.273947	0.196363	-0.478909
C170	C	0.059386	0.529696	-0.145576
C171	C	0.392719	0.863029	0.187757
C172	C	-0.273939	0.243278	-0.478897
C173	C	0.059394	0.576611	-0.145563
C174	C	0.392727	0.909945	0.187770
C175	C	-0.245256	0.266725	-0.428620
C176	C	0.088077	0.600058	-0.095286
C177	C	0.421411	0.933392	0.238047
C178	C	-0.333762	0.649213	-0.378371
C179	C	-0.000429	0.982547	-0.045038
C180	C	0.332904	1.315880	0.288296
C181	C	-0.383697	0.649218	-0.378368
C182	C	-0.050363	0.982552	-0.045035
C183	C	0.282970	1.315885	0.288299
C184	C	-0.693359	0.677996	-0.328041
C185	C	-0.360026	1.011329	0.005293
C186	C	-0.026693	1.344662	0.338626
C187	C	-0.881033	0.678018	-0.327974
C188	C	-0.547699	1.011351	0.005359
C189	C	-0.214366	1.344685	0.338693
O190	O	-0.905314	0.702452	-0.285258
O191	O	-0.571980	1.035786	0.048075
O192	O	-0.238647	1.369119	0.381408
N193	N	-0.904482	0.649278	-0.378158
N194	N	-0.571149	0.982611	-0.044824
N195	N	-0.237815	1.315945	0.288509
C196	C	-0.881011	0.620528	-0.428358
C197	C	-0.547677	0.953861	-0.095025
C198	C	-0.214344	1.287195	0.238309
O199	O	-0.905262	0.596080	-0.471035
O200	O	-0.571929	0.929413	-0.137702
O201	O	-0.238596	1.262747	0.195631
C202	C	-0.693338	0.620504	-0.428420
C203	C	-0.360005	0.953837	-0.095087
C204	C	-0.026672	1.287170	0.238246
C205	C	-0.669891	0.649249	-0.378239
C206	C	-0.336558	0.982582	-0.044906
C207	C	-0.003224	1.315916	0.288428
C208	C	-0.669912	0.706738	-0.277863
C209	C	-0.336579	1.040072	0.055471
C210	C	-0.003245	1.373405	0.388804
C211	C	-0.622997	0.706734	-0.277883
C212	C	-0.289663	1.040068	0.055450
C213	C	0.043670	1.373401	0.388784
C214	C	-0.599528	0.677988	-0.328081
C215	C	-0.266195	1.011321	0.005252
C216	C	0.067138	1.344654	0.338585
C217	C	-0.622976	0.649245	-0.378259
C218	C	-0.289642	0.982578	-0.044926
C219	C	0.043691	1.315912	0.288407
C220	C	-0.669868	0.591752	-0.478616
C221	C	-0.336534	0.925085	-0.145283
C222	C	-0.003201	1.258419	0.188050
C223	C	-0.622947	0.591748	-0.478626
C224	C	-0.289613	0.925081	-0.145293
C225	C	0.043720	1.258414	0.188041
C226	C	-0.599499	0.620493	-0.428445
C227	C	-0.266166	0.953826	-0.095111
C228	C	0.067167	1.287160	0.238222
C229	C	-0.552592	0.620494	-0.428478
C230	C	-0.219259	0.953827	-0.095144
C231	C	0.114075	1.287161	0.238189
N232	N	-0.529142	0.649234	-0.378294
N233	N	-0.195809	0.982568	-0.044961
N234	N	0.137524	1.315901	0.288373
C235	C	-0.552611	0.677981	-0.328096
C236	C	-0.219277	1.011314	0.005238
C237	C	0.114056	1.344648	0.338571
C238	C	-0.979541	0.620543	-0.428323
C239	C	-0.646208	0.953877	-0.094990
C240	C	-0.312875	1.287210	0.238344
C241	C	-1.026459	0.620550	-0.428308
C242	C	-0.693126	0.953883	-0.094975
C243	C	-0.359792	1.287217	0.238358
C244	C	-1.026478	0.678040	-0.327923
C245	C	-0.693144	1.011373	0.005410
C246	C	-0.359811	1.344706	0.338744
C247	C	-0.979559	0.678035	-0.327942
C248	C	-0.646226	1.011368	0.005391
C249	C	-0.312892	1.344702	0.338725
C250	C	-0.956092	0.649284	-0.378139
C251	C	-0.622758	0.982617	-0.044806
C252	C	-0.289425	1.315950	0.288528
C253	C	-0.454085	0.677970	-0.328143
C254	C	-0.120751	1.011304	0.005191
C255	C	0.212582	1.344637	0.338524
C256	C	-0.407165	0.677965	-0.328170
C257	C	-0.073832	1.011298	0.005164
C258	C	0.259502	1.344632	0.338497
C259	C	-0.407150	0.620474	-0.428552
C260	C	-0.073817	0.953807	-0.095218
C261	C	0.259516	1.287141	0.238115
C262	C	-0.454066	0.620481	-0.428528
C263	C	-0.120733	0.953814	-0.095195
C264	C	0.212601	1.287148	0.238139
C265	C	-0.477532	0.649231	-0.378317
C266	C	-0.144199	0.982564	-0.044984
C267	C	0.189135	1.315897	0.288350
O268	O	-0.528282	0.596069	-0.471165
O269	O	-0.194949	0.929402	-0.137831
O270	O	0.138385	1.262736	0.195502
O271	O	-0.528351	0.702418	-0.285413
O272	O	-0.195018	1.035752	0.047921
O273	O	0.138316	1.369085	0.381254
C274	C	-0.740275	0.678000	-0.328021
C275	C	-0.406942	1.011333	0.005313
C276	C	-0.073608	1.344667	0.338646
C277	C	-0.763722	0.649257	-0.378199
C278	C	-0.430389	0.982591	-0.044865
C279	C	-0.097055	1.315924	0.288468
C280	C	-0.740254	0.620511	-0.428397
C281	C	-0.406920	0.953844	-0.095063
C282	C	-0.073587	1.287177	0.238270
C283	C	-0.810640	0.649264	-0.378184
C284	C	-0.477307	0.982597	-0.044851
C285	C	-0.143973	1.315931	0.288483
C286	C	-0.834108	0.678011	-0.327986
C287	C	-0.500775	1.011344	0.005348
C288	C	-0.167442	1.344677	0.338681
C289	C	-0.810659	0.706751	-0.277802
C290	C	-0.477325	1.040084	0.055531
C291	C	-0.143992	1.373417	0.388865
C292	C	-0.763743	0.706747	-0.277822
C293	C	-0.430410	1.040080	0.055511
C294	C	-0.097076	1.373413	0.388844
C295	C	-0.763703	0.591770	-0.478581
C296	C	-0.430370	0.925104	-0.145247
C297	C	-0.097037	1.258437	0.188086
C298	C	-0.810619	0.591777	-0.478557
C299	C	-0.477286	0.925111	-0.145223
C300	C	-0.143952	1.258444	0.188110
C301	C	-0.834087	0.620524	-0.428359
C302	C	-0.500754	0.953857	-0.095025
C303	C	-0.167421	1.287191	0.238308
C304	C	-0.099861	0.649215	-0.378328
C305	C	0.233472	0.982548	-0.044995
C306	C	0.566805	1.315881	0.288338
C307	C	-0.049927	0.649297	-0.378110
C308	C	0.283406	0.982630	-0.044777
C309	C	0.616739	1.315963	0.288556
C310	C	-0.216566	0.649158	-0.582326
C311	C	0.116767	0.982491	-0.248992
C312	C	0.450101	1.315824	0.084341
C313	C	-0.216573	0.649180	-0.669576
C314	C	0.116760	0.982514	-0.336242
C315	C	0.450093	1.315847	-0.002909
C316	C	-0.216622	0.766379	-0.378419
C317	C	0.116712	1.099713	-0.045086
C318	C	0.450045	1.433046	0.288247
C319	C	-0.216638	0.816314	-0.378437
C320	C	0.116696	1.149647	-0.045104
C321	C	0.450029	1.482980	0.288229
C322	C	-0.187880	0.677940	-0.710552
C323	C	0.145453	1.011273	-0.377218
C324	C	0.478787	1.344607	-0.043885
C325	C	-0.187891	0.677962	-0.792532
C326	C	0.145442	1.011295	-0.459199
C327	C	0.478775	1.344629	-0.125865
C328	C	-0.216594	0.649222	-0.833535
C329	C	0.116739	0.982555	-0.500202
C330	C	0.450072	1.315888	-0.166868
C331	C	-0.245291	0.620460	-0.792553
C332	C	0.088042	0.953794	-0.459220
C333	C	0.421376	1.287127	-0.125887
C334	C	-0.245282	0.620441	-0.710574
C335	C	0.088052	0.953774	-0.377241
C336	C	0.421385	1.287108	-0.043908
C337	C	-0.245308	0.620502	-0.963423
C338	C	0.088025	0.953835	-0.630090
C339	C	0.421359	1.287169	-0.296757
C340	C	-0.245317	0.620521	-1.045408
C341	C	0.088016	0.953854	-0.712074
C342	C	0.421349	1.287187	-0.378741
C343	C	-0.187918	0.678023	-1.045381
C344	C	0.145415	1.011356	-0.712048
C345	C	0.478749	1.344690	-0.378714
C346	C	-0.187908	0.678004	-0.963402
C347	C	0.145425	1.011337	-0.630069
C348	C	0.478758	1.344670	-0.296735
C349	C	-0.216605	0.649242	-0.922426
C350	C	0.116729	0.982575	-0.589093
C351	C	0.450062	1.315908	-0.255759
C352	C	-0.216612	0.649257	-0.173634
C353	C	0.116721	0.982590	0.159700
C354	C	0.450055	1.315923	0.493033
C355	C	-0.216624	0.649281	-0.086384
C356	C	0.116710	0.982614	0.246950
C357	C	0.450043	1.315947	0.580283
H358	H	-0.164598	-0.179345	-0.287222
H359	H	0.168736	0.153988	0.046112
H360	H	0.502069	0.487322	0.379445
F361	F	-0.275745	0.484069	-0.482132
F362	F	0.057589	0.817402	-0.148798
F363	F	0.390922	1.150735	0.184535
F364	F	-0.275842	0.589875	-0.836194
F365	F	0.057492	0.923208	-0.502860
F366	F	0.390825	1.256542	-0.169527
F367	F	-0.275838	-0.185174	-0.482226
F368	F	0.057496	0.148160	-0.148892
F369	F	0.390829	0.481493	0.184441
F370	F	-0.598048	0.737327	-0.224469
F371	F	-0.264715	1.070660	0.108865
F372	F	0.068618	1.403994	0.442198
H373	H	-0.135873	0.177214	-0.236877
H374	H	0.197460	0.510547	0.096457
H375	H	0.530794	0.843880	0.429790
H376	H	-0.164534	0.701404	-0.930018
H377	H	0.168799	1.034737	-0.596684
H378	H	0.502133	1.368071	-0.263351
H379	H	-0.135881	0.121572	-0.236886
H380	H	0.197453	0.454906	0.096448
H381	H	0.530786	0.788239	0.429781
H382	H	-0.744600	0.568361	-0.519460
H383	H	-0.411267	0.901695	-0.186127
H384	H	-0.077934	1.235028	0.147207
H385	H	-1.045594	0.701447	-0.287050
H386	H	-0.712260	1.034780	0.046283
H387	H	-0.378927	1.368113	0.379617
F388	F	-0.275822	0.589832	-0.666965
F389	F	0.057511	0.923165	-0.333632
F390	F	0.390844	1.256499	-0.000298
F391	F	-0.128693	0.268195	-0.224298
F392	F	0.204640	0.601529	0.109035
F393	F	0.537973	0.934862	0.442368
F394	F	-1.051408	0.589962	-0.481729
F395	F	-0.718075	0.923295	-0.148396
F396	F	-0.384742	1.256628	0.184937
H397	H	-0.268698	0.597126	-1.078790
H398	H	0.064635	0.930459	-0.745457
H399	H	0.397968	1.263793	-0.412124
H400	H	-0.297306	0.177277	-0.519851
H401	H	0.036028	0.510610	-0.186518
H402	H	0.369361	0.843943	0.146816
F403	F	-0.157416	-0.088374	-0.274621
F404	F	0.175917	0.244959	0.058712
F405	F	0.509251	0.578292	0.392046
H406	H	-0.960438	0.597131	-0.469205
H407	H	-0.627105	0.930464	-0.135871
H408	H	-0.293772	1.263798	0.197462
H409	H	-0.829775	0.730159	-0.236931
H410	H	-0.496441	1.063492	0.096402
H411	H	-0.163108	1.396826	0.429735
H412	H	-0.135889	0.036467	-0.236904
H413	H	0.197445	0.369801	0.096429
H414	H	0.530778	0.703134	0.429762
H415	H	-0.164505	0.701342	-0.677172
H416	H	0.168829	1.034675	-0.343839
H417	H	0.502162	1.368009	-0.010506
F418	F	-0.275851	0.589891	-0.919815
F419	F	0.057482	0.923225	-0.586482
F420	F	0.390815	1.256558	-0.253149
F421	F	-0.157353	0.708574	-0.836138
F422	F	0.175980	1.041907	-0.502805
F423	F	0.509314	1.375240	-0.169472
H424	H	-0.164516	0.393050	-0.287131
H425	H	0.168817	0.726383	0.046202
H426	H	0.502150	1.059716	0.379536
H427	H	-0.164554	0.701444	-1.078748
H428	H	0.168779	1.034777	-0.745414
H429	H	0.502113	1.368110	-0.412081
F430	F	-0.835568	0.561183	-0.531976
F431	F	-0.502235	0.894517	-0.198643
F432	F	-0.168901	1.227850	0.134691
H433	H	-0.297294	0.262382	-0.519841
H434	H	0.036039	0.595715	-0.186508
H435	H	0.369373	0.929049	0.146825
F436	F	-0.157336	0.484035	-0.274553
F437	F	0.175997	0.817369	0.058780
F438	F	0.509331	1.150702	0.392114
H439	H	-0.473185	0.701380	-0.287253
H440	H	-0.139852	1.034713	0.046080
H441	H	0.193482	1.368046	0.379413
F442	F	-0.694882	0.737341	-0.224437
F443	F	-0.361548	1.070675	0.108896
F444	F	-0.028215	1.404008	0.442230
F445	F	-0.275767	0.387232	-0.482135
F446	F	0.057566	0.720565	-0.148802
F447	F	0.390899	1.053898	0.184532
H448	H	-0.268660	-0.094187	-0.469640
H449	H	0.064673	0.239146	-0.136306
H450	H	0.398007	0.572480	0.197027
H451	H	-0.388076	0.701375	-0.287305
H452	H	-0.054743	1.034708	0.046028
H453	H	0.278590	1.368041	0.379362
H454	H	-0.744657	0.730154	-0.236959
H455	H	-0.411323	1.063487	0.096374
H456	H	-0.077990	1.396821	0.429708
F457	F	-0.304495	0.127494	-0.532429
F458	F	0.028838	0.460827	-0.199096
F459	F	0.362172	0.794160	0.134238
F460	F	-0.382166	0.589881	-0.481973
F461	F	-0.048832	0.923214	-0.148640
F462	F	0.284501	1.256547	0.184694
F463	F	-0.954609	0.708629	-0.274532
F464	F	-0.621276	1.041962	0.058802
F465	F	-0.287942	1.375295	0.392135
F466	F	-0.694812	0.561158	-0.532030
F467	F	-0.361478	0.894492	-0.198697
F468	F	-0.028145	1.227825	0.134637
F469	F	-0.479021	0.589890	-0.481941
F470	F	-0.145688	0.923223	-0.148608
F471	F	0.187646	1.256557	0.184725
H472	H	-0.297337	0.036518	-0.519860
H473	H	0.035996	0.369852	-0.186527
H474	H	0.369329	0.703185	0.146806
F475	F	-0.597974	0.561145	-0.532053
F476	F	-0.264640	0.894478	-0.198720
F477	F	0.068693	1.227811	0.134614
