data_functionalizedCrystal
_audit_creation_method	'MofGen! by Chris Wilmer'
_symmetry_space_group_name_H-M	'P1'
_symmetry_Int_Tables_number	1
_symmetry_cell_setting	triclinic
loop_
_symmetry_equiv_pos_as_xyz
  x,y,z
_cell_length_a	23.532355
_cell_length_b	23.532407
_cell_length_c	13.101039
_cell_angle_alpha	93.336507
_cell_angle_beta	86.670091
_cell_angle_gamma	82.838088
loop_
_atom_site_label
_atom_site_type_symbol
_atom_site_fract_x
_atom_site_fract_y
_atom_site_fract_z
O1	O	0.758425	0.065837	-0.085084
O2	O	1.258425	0.565837	0.414916
O3	O	0.592558	0.075870	-0.085119
O4	O	1.092558	0.575870	0.414881
O5	O	0.680493	-0.012078	-0.085082
O6	O	1.180493	0.487922	0.414918
O7	O	0.670491	0.153786	-0.085121
O8	O	1.170491	0.653786	0.414879
O9	O	0.674183	-0.005758	0.085345
O10	O	1.174183	0.494242	0.585345
O11	O	0.586249	0.082191	0.085309
O12	O	1.086249	0.582191	0.585309
O13	O	0.752116	0.072158	0.085343
O14	O	1.252116	0.572158	0.585343
Zn15	Zn	0.668181	0.078178	0.112385
Zn16	Zn	1.168181	0.578178	0.612385
Zn17	Zn	0.676493	0.069850	-0.112161
Zn18	Zn	1.176493	0.569850	0.387839
O19	O	0.664181	0.160106	0.085306
O20	O	1.164181	0.660106	0.585306
C21	C	0.568187	0.078779	0.000091
C22	C	1.068187	0.578779	0.500091
C23	C	0.504969	0.078025	0.000079
C24	C	1.004969	0.578025	0.500079
C25	C	0.109515	0.076734	0.093023
C26	C	0.609515	0.576734	0.593023
C27	C	0.050115	0.076016	0.093027
C28	C	0.550115	0.576016	0.593027
O29	O	0.016472	0.078556	0.172034
O30	O	0.516472	0.578556	0.672034
N31	N	0.023846	0.072215	0.000127
N32	N	0.523846	0.572215	0.500127
C33	C	0.056980	0.069126	-0.092782
C34	C	0.556980	0.569126	0.407218
O35	O	0.029182	0.065826	-0.171800
O36	O	0.529182	0.565826	0.328200
C37	C	0.116379	0.069839	-0.092785
C38	C	0.616379	0.569839	0.407215
C39	C	0.142644	0.073646	0.000120
C40	C	0.642644	0.573646	0.500120
C41	C	0.135780	0.080540	0.185921
C42	C	0.635780	0.580540	0.685921
C43	C	0.195176	0.081258	0.185916
C44	C	0.695176	0.581258	0.685916
C45	C	0.228305	0.078170	0.093014
C46	C	0.728305	0.578170	0.593014
C47	C	0.202040	0.074364	0.000116
C48	C	0.702040	0.574364	0.500116
C49	C	0.149513	0.066745	-0.185694
C50	C	0.649513	0.566745	0.314306
C51	C	0.208916	0.067458	-0.185689
C52	C	0.708916	0.567458	0.314311
C53	C	0.235181	0.071265	-0.092783
C54	C	0.735181	0.571265	0.407217
C55	C	0.294565	0.071995	-0.092791
C56	C	0.794565	0.571995	0.407209
N57	N	0.320834	0.075796	0.000108
N58	N	0.820834	0.575796	0.500108
C59	C	0.287704	0.078884	0.093011
C60	C	0.787704	0.578884	0.593011
C61	C	-0.067762	0.067627	-0.092769
C62	C	0.432238	0.567627	0.407231
C63	C	-0.127160	0.066918	-0.092767
C64	C	0.372840	0.566918	0.407233
C65	C	-0.134021	0.073808	0.093043
C66	C	0.365979	0.573808	0.593043
C67	C	-0.074622	0.074521	0.093040
C68	C	0.425378	0.574521	0.593040
C69	C	-0.041493	0.071428	0.000131
C70	C	0.458507	0.571428	0.500131
C71	C	0.412439	0.080392	0.092994
C72	C	0.912439	0.580392	0.592994
C73	C	0.471840	0.081113	0.092981
C74	C	0.971840	0.581113	0.592981
C75	C	0.478695	0.074220	-0.092828
C76	C	0.978695	0.574220	0.407172
C77	C	0.419300	0.073503	-0.092815
C78	C	0.919300	0.573503	0.407185
C79	C	0.386173	0.076587	0.000104
C80	C	0.886173	0.576587	0.500104
O81	O	0.328245	0.069455	-0.171758
O82	O	0.828245	0.569455	0.328242
O83	O	0.315511	0.082175	0.172015
O84	O	0.815511	0.582175	0.672015
C85	C	0.677083	-0.030134	0.000134
C86	C	1.177083	0.469866	0.500134
C87	C	0.676317	-0.093350	0.000142
C88	C	1.176317	0.406650	0.500142
C89	C	0.723553	-0.492464	0.000096
C90	C	1.223553	0.007536	0.500096
C91	C	0.722842	-0.551864	0.000088
C92	C	1.222842	-0.051864	0.500088
O93	O	0.766630	-0.588618	0.000059
O94	O	1.266630	-0.088618	0.500059
N95	N	0.670565	-0.574481	0.000078
N96	N	1.170565	-0.074481	0.500078
C97	C	0.618996	-0.537694	0.000065
C98	C	1.118996	-0.037694	0.500065
O99	O	0.574465	-0.562386	0.000055
O100	O	1.074465	-0.062386	0.500055
C101	C	0.619708	-0.478295	0.000066
C102	C	1.119708	0.021705	0.500066
C103	C	0.671988	-0.455682	0.000086
C104	C	1.171988	0.044318	0.500086
C105	C	0.775829	-0.469850	0.000115
C106	C	1.275829	0.030150	0.500115
C107	C	0.776540	-0.410453	0.000125
C108	C	1.276540	0.089547	0.500125
C109	C	0.724975	-0.373671	0.000115
C110	C	1.224975	0.126329	0.500115
C111	C	0.672699	-0.396285	0.000096
C112	C	1.172699	0.103715	0.500096
C113	C	0.568140	-0.441510	0.000046
C114	C	1.068140	0.058490	0.500046
C115	C	0.568856	-0.382108	0.000046
C116	C	1.068856	0.117892	0.500046
C117	C	0.621137	-0.359494	0.000066
C118	C	1.121137	0.140506	0.500066
C119	C	0.621845	-0.300107	0.000097
C120	C	1.121845	0.199893	0.500097
N121	N	0.674122	-0.277490	0.000107
N122	N	1.174122	0.222510	0.500107
C123	C	0.725687	-0.314272	0.000116
C124	C	1.225687	0.185728	0.500116
C125	C	0.617504	-0.662437	0.000062
C126	C	1.117504	-0.162437	0.500062
C127	C	0.616792	-0.721834	0.000069
C128	C	1.116792	-0.221834	0.500069
C129	C	0.720638	-0.736000	0.000090
C130	C	1.220638	-0.236000	0.500090
C131	C	0.721350	-0.676601	0.000090
C132	C	1.221350	-0.176601	0.500090
C133	C	0.669782	-0.639820	0.000072
C134	C	1.169782	-0.139820	0.500072
C135	C	0.727176	-0.189535	0.000137
C136	C	1.227176	0.310465	0.500137
C137	C	0.727882	-0.130133	0.000152
C138	C	1.227882	0.369867	0.500152
C139	C	0.624036	-0.115972	0.000126
C140	C	1.124036	0.384028	0.500126
C141	C	0.623329	-0.175369	0.000117
C142	C	1.123329	0.324631	0.500117
C143	C	0.674904	-0.212150	0.000119
C144	C	1.174904	0.287850	0.500119
O145	O	0.578080	-0.263319	0.000121
O146	O	1.078080	0.236681	0.500121
O147	O	0.770211	-0.289573	0.000113
O148	O	1.270211	0.210427	0.500113
C149	C	0.776487	0.069248	0.000131
C150	C	1.276487	0.569248	0.500131
C151	C	0.839705	0.070003	0.000136
C152	C	1.339705	0.570003	0.500136
C153	C	0.667591	0.178162	0.000087
C154	C	1.167591	0.678162	0.500087
C155	C	0.668357	0.241378	0.000073
C156	C	1.168357	0.741378	0.500073
N157	N	0.662512	0.083861	0.265631
N158	N	1.162512	0.583861	0.765631
N159	N	0.682167	0.064163	-0.265407
N160	N	1.182167	0.564163	0.234593
C161	C	0.654799	0.091598	0.474670
C162	C	1.154799	0.591598	0.974670
C163	C	0.689878	0.056427	0.525561
C164	C	1.189878	0.556427	1.025561
C165	C	0.685586	0.060732	0.641877
C166	C	1.185586	0.560732	1.141877
C167	C	0.659089	0.087294	0.358343
C168	C	1.159089	0.587294	0.858343
H169	H	0.108812	0.083053	0.261577
H170	H	0.608812	0.583053	0.761577
O171	O	0.566939	-0.199758	0.000107
O172	O	1.066939	0.300242	0.500107
H173	H	0.561556	-0.223910	0.069568
H174	H	1.061556	0.276090	0.569568
H175	H	0.582053	-0.086013	0.000122
H176	H	1.082053	0.413987	0.500122
O177	O	0.390966	0.069404	-0.193018
O178	O	0.890966	0.569404	0.306982
H179	H	0.369369	0.030090	-0.197448
H180	H	0.869369	0.530090	0.302552
H181	H	0.235887	0.064940	-0.261349
H182	H	0.735887	0.564940	0.238651
H183	H	0.723134	0.023084	0.481772
H184	H	1.223134	0.523084	0.981772
O185	O	0.376784	0.083929	0.193316
O186	O	0.876784	0.583929	0.693316
H187	H	0.344347	0.122657	0.197601
H188	H	0.844347	0.622657	0.697601
O189	O	0.500169	0.085229	0.193189
O190	O	1.000169	0.585229	0.693189
H191	H	0.467149	0.087253	0.257788
H192	H	0.967149	0.587253	0.757788
O193	O	0.223500	0.085377	0.286121
O194	O	0.723500	0.585377	0.786121
H195	H	0.190476	0.087404	0.350714
H196	H	0.690476	0.587404	0.850714
H197	H	-0.053241	0.077622	0.168692
H198	H	0.446759	0.577622	0.668692
O199	O	0.610757	0.135769	0.532668
O200	O	1.110757	0.635769	1.032668
H201	H	0.618590	0.179357	0.512131
H202	H	1.118590	0.679357	1.012131
H203	H	-0.161006	0.076321	0.168689
H204	H	0.338994	0.576321	0.668689
O205	O	-0.155477	0.062813	-0.192982
O206	O	0.344523	0.562813	0.307018
H207	H	-0.187672	0.101144	-0.197458
H208	H	0.312328	0.601144	0.302542
H209	H	0.505680	0.071708	-0.168466
H210	H	1.005680	0.571708	0.331534
H211	H	0.817823	-0.499793	0.000119
H212	H	1.317823	0.000207	0.500119
O213	O	0.560402	-0.746220	0.000069
O214	O	1.060402	-0.246220	0.500069
H215	H	0.560161	-0.775515	-0.069392
H216	H	1.060161	-0.275515	0.430608
O217	O	0.832928	-0.386065	0.000136
O218	O	1.332928	0.113935	0.500136
H219	H	0.838305	-0.361910	-0.069323
H220	H	1.338305	0.138090	0.430677
H221	H	0.525568	-0.459911	0.000023
H222	H	1.025568	0.040089	0.500023
O223	O	-0.032031	0.064302	-0.192983
O224	O	0.467969	0.564302	0.307017
H225	H	-0.060282	0.061545	-0.257574
H226	H	0.439718	0.561545	0.242426
H227	H	0.762626	-0.765960	0.000093
H228	H	1.262626	-0.265960	0.500093
O229	O	0.121196	0.062609	-0.285900
O230	O	0.621196	0.562609	0.214100
H231	H	0.154223	0.060565	-0.350490
H232	H	0.654223	0.560565	0.149510
O233	O	0.784272	-0.105741	0.000158
O234	O	1.284272	0.394259	0.500158
H235	H	0.820008	-0.141302	0.000147
H236	H	1.320008	0.358698	0.500147
H237	H	0.769173	-0.219476	0.000136
H238	H	1.269173	0.280524	0.500136
H239	H	0.763922	-0.658194	0.000106
H240	H	1.263922	-0.158194	0.500106
O241	O	0.561880	-0.622764	0.000070
O242	O	1.061880	-0.122764	0.500070
H243	H	0.525413	-0.648475	0.000076
H244	H	1.025413	-0.148475	0.500076
O245	O	0.513235	-0.342435	0.000039
O246	O	1.013235	0.157565	0.500039
H247	H	0.476765	-0.368143	0.000035
H248	H	0.976765	0.131857	0.500035
