data_functionalizedCrystal
_audit_creation_method	'MofGen! by Chris Wilmer'
_symmetry_space_group_name_H-M	'P1'
_symmetry_Int_Tables_number	1
_symmetry_cell_setting	triclinic
loop_
_symmetry_equiv_pos_as_xyz
  x,y,z
_cell_length_a	12.759401
_cell_length_b	13.897447
_cell_length_c	12.759393
_cell_angle_alpha	90.031000
_cell_angle_beta	90.020938
_cell_angle_gamma	90.021055
loop_
_atom_site_label
_atom_site_type_symbol
_atom_site_fract_x
_atom_site_fract_y
_atom_site_fract_z
Zn1	Zn	1.606231	-0.383929	0.594016
Zn2	Zn	1.606107	-0.545255	0.418335
Zn3	Zn	1.430530	-0.383980	0.418352
Zn4	Zn	1.430507	-0.545188	0.593972
O5	O	1.518344	-0.464588	0.506169
O6	O	1.753236	-0.405336	0.570723
O7	O	1.582774	-0.523912	0.271316
O8	O	1.453898	-0.248992	0.441679
O9	O	1.753145	-0.523862	0.441651
O10	O	1.582985	-0.248954	0.570740
O11	O	1.453778	-0.405423	0.271328
O12	O	1.283506	-0.405358	0.441636
O13	O	1.453859	-0.523747	0.740999
O14	O	1.283489	-0.523797	0.570664
O15	O	1.582963	-0.405271	0.741032
O16	O	1.582752	-0.680228	0.441608
O17	O	1.453739	-0.680179	0.570648
C18	C	1.245376	-0.464576	0.506148
C19	C	1.128600	-0.464595	0.506164
C20	C	1.073757	-0.526359	0.573243
C21	C	0.964033	-0.526363	0.573264
C22	C	0.964005	-0.402834	0.439118
C23	C	1.073727	-0.402827	0.439103
C24	C	0.814133	-0.560974	0.697124
C25	C	0.759286	-0.622754	0.764194
C26	C	0.794875	-0.716889	0.780141
C27	C	0.885310	-0.749263	0.729002
C28	C	0.940151	-0.687488	0.661925
C29	C	0.904564	-0.593340	0.645998
C30	C	1.223628	-0.368225	0.315241
C31	C	1.278471	-0.306455	0.248158
C32	C	1.242884	-0.212318	0.232200
C33	C	1.152446	-0.179948	0.283320
C34	C	1.097603	-0.241718	0.350403
C35	C	1.133198	-0.335854	0.366363
C36	C	1.518258	-0.715203	0.506144
C37	C	1.518318	-0.822416	0.506169
C38	C	1.518369	-0.909486	0.506193
C39	C	1.518442	-1.018719	0.506220
C40	C	1.792377	-0.464601	0.506190
C41	C	1.909154	-0.464606	0.506200
C42	C	1.518422	-0.464496	0.780202
C43	C	1.518456	-0.464456	0.896979
C44	C	1.518458	-0.212995	0.506216
C45	C	1.518507	-0.105781	0.506236
C46	C	1.518326	-0.464611	0.233201
C47	C	1.518496	-0.464379	0.116425
C48	C	1.585685	-0.402756	0.951860
C49	C	1.585703	-0.402714	1.061584
C50	C	1.451259	-0.526082	1.061537
C51	C	1.451237	-0.526118	0.951815
C52	C	1.623326	-0.288908	1.211563
C53	C	1.690571	-0.227216	1.266447
C54	C	1.793085	-0.212425	1.230856
C55	C	1.828375	-0.259340	1.140382
C56	C	1.761135	-0.321039	1.085504
C57	C	1.658606	-0.335812	1.121093
C58	C	1.413625	-0.639925	0.801834
C59	C	1.346390	-0.701630	0.746953
C60	C	1.243874	-0.716431	0.782542
C61	C	1.208588	-0.669533	0.873019
C62	C	1.275824	-0.607828	0.927900
C63	C	1.378339	-0.593026	0.892303
H64	H	0.919314	-0.352547	0.384517
N65	N	1.239794	-0.559912	1.020321
N66	N	1.238857	-0.470040	1.024129
H67	H	1.213419	-0.436202	1.089405
H68	H	1.789868	-0.359240	1.011845
H69	H	1.189135	-0.766685	0.737854
H70	H	1.252618	-0.444876	0.328238
H71	H	0.750212	-0.767190	0.834752
H72	H	1.118431	-0.576652	0.627851
H73	H	1.640416	-0.352544	0.907215
H74	H	1.125113	-0.681588	0.902000
N75	N	1.382449	-0.749533	0.654537
N76	N	1.473981	-0.736305	0.622761
H77	H	1.499448	-0.770134	0.557490
H78	H	1.497100	-0.627871	0.772843
H79	H	1.911856	-0.247298	1.111416
H80	H	1.013780	-0.713847	0.620289
N81	N	0.666914	-0.589674	0.816418
N82	N	0.635152	-0.505615	0.802185
H83	H	0.569912	-0.482255	0.839065
N84	N	0.777775	-0.464812	0.680862
N85	N	0.697029	-0.435929	0.726521
H86	H	0.671345	-0.368013	0.715036
H87	H	1.352110	-0.332819	0.206533
H88	H	1.539848	-0.300938	1.240545
H89	H	1.847837	-0.162193	1.275551
N90	N	1.116081	-0.083788	0.267046
N91	N	1.035335	-0.054898	0.312699
H92	H	1.009651	0.013016	0.301203
N93	N	1.005234	-0.208634	0.402630
N94	N	0.973472	-0.124577	0.388386
H95	H	0.908242	-0.101209	0.425276
N96	N	1.654565	-0.179198	1.358815
N97	N	1.699782	-0.192962	1.444423
H98	H	1.674367	-0.159016	1.509642
N99	N	1.382606	-0.589057	1.117569
N100	N	1.382634	-0.589018	1.215534
H101	H	1.334147	-0.633497	1.255107
N102	N	1.298909	-0.149236	0.163658
N103	N	1.379646	-0.178147	0.118006
H104	H	1.419211	-0.133596	0.069601
H105	H	0.914273	-0.825921	0.741983
