data_functionalizedCrystal
_audit_creation_method	'MofGen! by Chris Wilmer'
_symmetry_space_group_name_H-M	'P1'
_symmetry_Int_Tables_number	1
_symmetry_cell_setting	triclinic
loop_
_symmetry_equiv_pos_as_xyz
  x,y,z
_cell_length_a	17.699104
_cell_length_b	19.188930
_cell_length_c	16.176319
_cell_angle_alpha	89.988074
_cell_angle_beta	89.991696
_cell_angle_gamma	83.218149
loop_
_atom_site_label
_atom_site_type_symbol
_atom_site_fract_x
_atom_site_fract_y
_atom_site_fract_z
O1	O	1.003952	0.088364	-0.068773
O2	O	0.783561	0.099836	-0.068772
O3	O	0.900117	-0.007548	-0.068756
O4	O	0.887397	0.195748	-0.068788
O5	O	0.900101	-0.007555	0.068737
O6	O	0.783545	0.099829	0.068721
O7	O	1.003936	0.088357	0.068721
Cu8	Cu	0.893739	0.094092	0.081275
Cu9	Cu	0.893758	0.094100	-0.081326
O10	O	0.887381	0.195741	0.068705
C11	C	0.755357	0.099419	-0.000025
C12	C	0.671341	0.098178	-0.000024
C13	C	0.146397	0.154214	-0.000041
C14	C	0.225339	0.155375	-0.000044
C15	C	0.274039	0.092337	-0.000034
C16	C	0.243794	0.028132	-0.000029
C17	C	0.164853	0.026972	-0.000033
C18	C	0.562154	0.032812	-0.000017
C19	C	0.641100	0.033978	-0.000011
C20	C	0.622640	0.161216	-0.000028
C21	C	0.543699	0.160055	-0.000032
C22	C	0.513460	0.095851	-0.000032
C23	C	0.427862	0.094593	-0.000030
C24	C	0.359636	0.093595	-0.000029
C25	C	0.899697	-0.033563	-0.000007
C26	C	0.898460	-0.111069	0.000000
C27	C	0.966851	-0.155912	0.000004
C28	C	0.965690	-0.228737	-0.000010
C29	C	0.896133	-0.256716	-0.000010
C30	C	0.827733	-0.211864	-0.000018
C31	C	0.828897	-0.139040	-0.000013
N32	N	0.842960	-0.364787	0.046782
N33	N	0.841859	-0.433967	0.046779
C34	C	0.892623	-0.476129	-0.000027
N35	N	0.944541	-0.446500	-0.046819
N36	N	0.945644	-0.377314	-0.046812
C37	C	0.894864	-0.335680	-0.000016
C38	C	0.959759	-0.599938	-0.000038
C39	C	0.958595	-0.672764	-0.000057
C40	C	0.820636	-0.655889	-0.000057
C41	C	0.821802	-0.583065	-0.000047
C42	C	0.891366	-0.555094	-0.000034
C43	C	1.032141	0.088774	-0.000028
C44	C	1.116156	0.090014	-0.000035
C45	C	0.887801	0.221756	-0.000046
C46	C	0.889037	0.299262	-0.000058
N47	N	0.893732	0.094086	0.195640
N48	N	0.893772	0.094101	-0.195692
C49	C	0.945358	0.046556	0.238912
C50	C	0.945362	0.046555	0.325459
C51	C	0.893742	0.094089	0.368733
C52	C	0.842111	0.141621	0.325456
C53	C	0.842104	0.141618	0.238910
C54	C	0.842136	0.141634	0.674484
C55	C	0.842149	0.141635	0.761036
C56	C	0.945394	0.046571	0.761032
C57	C	0.945388	0.046568	0.674487
C58	C	0.893754	0.094098	0.631217
C59	C	0.893749	0.094097	0.537373
C60	C	0.893750	0.094093	0.462576
H61	H	0.283453	-0.023195	-0.000026
C62	C	1.001570	-0.004964	0.807967
C63	C	1.075900	0.006291	0.786909
C64	C	1.127667	-0.041162	0.830133
H65	H	0.993608	-0.051583	0.793828
H66	H	0.994234	0.001842	0.865716
H67	H	1.083233	-0.000521	0.729172
H68	H	1.083886	0.052900	0.801049
H69	H	1.120331	-0.034357	0.887882
H70	H	1.119698	-0.087779	0.815991
H71	H	1.178106	-0.033529	0.815857
H72	H	0.106749	0.205547	-0.000043
H73	H	0.140234	-0.025306	-0.000029
C74	C	0.745038	-0.686122	-0.000100
C75	C	0.685390	-0.631258	-0.000118
C76	C	0.615737	-0.659085	-0.000172
H77	H	0.741602	-0.714181	0.047830
H78	H	0.741681	-0.714148	-0.048070
H79	H	0.688745	-0.603244	0.047847
H80	H	0.688801	-0.603195	-0.048045
H81	H	0.612380	-0.687111	-0.048141
H82	H	0.612309	-0.687143	0.047760
H83	H	0.575258	-0.621865	-0.000191
H84	H	1.021384	-0.265255	-0.000010
C85	C	1.035359	-0.569698	-0.000083
C86	C	1.095007	-0.624561	-0.000116
C87	C	1.164660	-0.596734	-0.000172
H88	H	1.038789	-0.541662	0.047852
H89	H	1.038721	-0.541650	-0.048048
H90	H	1.091647	-0.652598	0.047843
H91	H	1.091603	-0.652602	-0.048048
H92	H	1.168022	-0.568685	-0.048137
H93	H	1.168082	-0.568698	0.047764
H94	H	1.205139	-0.633954	-0.000202
H95	H	0.800096	0.180336	0.639261
H96	H	0.800063	0.180321	0.203680
C97	C	0.747570	-0.534341	-0.000212
C98	C	0.744207	-0.492037	-0.070957
C99	C	0.675827	-0.447151	-0.071146
H100	H	0.745077	-0.505525	0.047680
H101	H	0.705956	-0.561408	-0.000259
H102	H	0.785809	-0.464972	-0.070903
H103	H	0.746687	-0.520834	-0.118861
H104	H	0.634213	-0.474219	-0.071193
H105	H	0.673340	-0.418341	-0.023251
H106	H	0.673533	-0.418448	-0.119149
C107	C	1.042453	-0.125679	-0.000030
C108	C	1.102099	-0.180544	-0.000050
C109	C	1.171754	-0.152719	-0.000093
H110	H	1.045876	-0.097642	0.047905
H111	H	1.045825	-0.097633	-0.047995
H112	H	1.098729	-0.208579	0.047909
H113	H	1.098701	-0.208586	-0.047982
H114	H	1.175125	-0.124673	-0.048058
H115	H	1.175169	-0.124682	0.047843
H116	H	1.212232	-0.189940	-0.000115
C117	C	0.752268	-0.242334	-0.000146
C118	C	0.747590	-0.283652	-0.070874
C119	C	0.678085	-0.311739	-0.071019
H120	H	0.711636	-0.205267	-0.000190
H121	H	0.748934	-0.270440	0.047775
H122	H	0.750917	-0.255547	-0.118783
H123	H	0.788206	-0.320730	-0.070845
H124	H	0.674750	-0.339845	-0.023098
H125	H	0.637458	-0.274667	-0.071061
H126	H	0.674904	-0.339781	-0.119003
C127	C	0.754558	-0.090465	0.000030
C128	C	0.693391	-0.130551	0.000044
C129	C	0.624899	-0.085826	0.000097
H130	H	0.752043	-0.061677	-0.047900
H131	H	0.752097	-0.061729	0.048000
H132	H	0.695850	-0.159275	-0.047922
H133	H	0.695881	-0.159337	0.047970
H134	H	0.622438	-0.057090	0.048067
H135	H	0.622392	-0.057041	-0.047834
H136	H	0.583389	-0.113017	0.000114
C137	C	1.001438	-0.005132	0.192081
C138	C	1.046636	-0.046770	0.248505
C139	C	1.098297	-0.094401	0.205398
H140	H	1.032928	0.019866	0.158301
H141	H	0.974327	-0.034207	0.158354
H142	H	1.073745	-0.017698	0.282218
H143	H	1.015166	-0.071783	0.282287
H144	H	1.071187	-0.123476	0.171671
H145	H	1.129783	-0.069397	0.171619
H146	H	1.128966	-0.122662	0.243675
C147	C	1.001244	-0.005196	0.627479
C148	C	0.960964	-0.047869	0.577899
C149	C	1.012361	-0.095613	0.534614
H150	H	1.031943	-0.033565	0.665617
H151	H	1.032727	0.019739	0.593597
H152	H	0.929494	-0.072802	0.611779
H153	H	0.930267	-0.019519	0.539746
H154	H	1.043844	-0.070678	0.500731
H155	H	1.043058	-0.123978	0.572758
H156	H	0.985039	-0.124568	0.500964
C157	C	0.258202	0.225064	-0.000241
C158	C	0.302964	0.229455	-0.070999
C159	C	0.333235	0.293651	-0.071225
H160	H	0.288664	0.228245	0.047643
H161	H	0.217905	0.262454	-0.000294
H162	H	0.343255	0.192075	-0.070938
H163	H	0.272519	0.226286	-0.118894
H164	H	0.292937	0.331041	-0.071279
H165	H	0.363693	0.296826	-0.023339
H166	H	0.363603	0.296641	-0.119238
H167	H	1.014289	-0.709275	-0.000058
C168	C	0.529183	-0.036821	-0.000057
C169	C	0.449627	-0.024353	-0.000090
C170	C	0.419226	-0.088486	-0.000140
H171	H	0.545819	-0.062830	0.047880
H172	H	0.545882	-0.062772	-0.048020
H173	H	0.432935	0.001586	0.047868
H174	H	0.432970	0.001645	-0.048024
H175	H	0.435925	-0.114436	-0.048103
H176	H	0.435867	-0.114489	0.047798
H177	H	0.365244	-0.080035	-0.000170
C178	C	0.786029	0.193117	0.372545
C179	C	0.739846	0.155975	0.422273
C180	C	0.688182	0.203392	0.465670
H181	H	0.755205	0.221445	0.334474
H182	H	0.813140	0.222144	0.406337
H183	H	0.712737	0.126961	0.388483
H184	H	0.770649	0.127650	0.460359
H185	H	0.715293	0.232418	0.499462
H186	H	0.657364	0.231717	0.427593
H187	H	0.656846	0.178198	0.499421
C188	C	0.490950	0.228573	-0.000086
C189	C	0.534330	0.285047	-0.000116
C190	C	0.485766	0.348177	-0.000180
H191	H	0.459745	0.230863	0.047845
H192	H	0.459792	0.230803	-0.048055
H193	H	0.565476	0.282818	0.047848
H194	H	0.565534	0.282780	-0.048043
H195	H	0.454607	0.350407	-0.048149
H196	H	0.454563	0.350460	0.047752
H197	H	0.515192	0.386501	-0.000208
H198	H	0.987399	0.007852	0.360690
H199	H	0.800111	0.180344	0.796268
H200	H	0.647269	0.213494	-0.000032
H201	H	0.680751	-0.017359	-0.000005
