data_functionalizedCrystal
_audit_creation_method	'MofGen! by Chris Wilmer'
_symmetry_space_group_name_H-M	'P1'
_symmetry_Int_Tables_number	1
_symmetry_cell_setting	triclinic
loop_
_symmetry_equiv_pos_as_xyz
  x,y,z
_cell_length_a	10.654541
_cell_length_b	15.995350
_cell_length_c	9.130307
_cell_angle_alpha	89.998938
_cell_angle_beta	89.999822
_cell_angle_gamma	83.988152
loop_
_atom_site_label
_atom_site_type_symbol
_atom_site_fract_x
_atom_site_fract_y
_atom_site_fract_z
O1	O	1.666303	0.117592	-0.121747
O2	O	1.300677	0.128798	-0.121759
O3	O	1.493484	0.001365	-0.121751
O4	O	1.473495	0.245024	-0.121754
O5	O	1.493478	0.001364	0.121848
O6	O	1.300671	0.128797	0.121840
O7	O	1.666296	0.117590	0.121852
Cu8	Cu	1.483483	0.123193	0.144089
Cu9	Cu	1.483490	0.123195	-0.143995
O10	O	1.473489	0.245023	0.121845
C11	C	1.253887	0.127975	0.000039
C12	C	1.114475	0.125514	0.000034
C13	C	1.492655	-0.029835	0.000046
C14	C	1.490177	-0.122800	0.000037
C15	C	1.084514	0.277895	0.000014
C16	C	1.004039	0.352926	-0.000002
C17	C	0.873052	0.350609	-0.000003
C18	C	0.822537	0.273253	0.000016
C19	C	0.903011	0.198222	0.000032
C20	C	1.034000	0.200547	0.000029
C21	C	0.932972	0.045843	0.000063
C22	C	1.063961	0.048158	0.000054
C23	C	0.882458	-0.031513	0.000082
C24	C	0.962933	-0.106546	0.000087
C25	C	1.093928	-0.104226	0.000087
C26	C	1.144435	-0.026873	0.000070
C27	C	1.481280	-0.460599	0.000042
C28	C	1.343966	-0.413961	-0.000509
C29	C	1.346444	-0.317257	0.000040
C30	C	1.485693	-0.293013	0.000039
C31	C	1.553418	-0.333698	0.139146
C32	C	1.549968	-0.430354	0.139262
C33	C	1.552812	-0.430694	-0.137756
C34	C	1.552779	-0.333749	-0.139594
C35	C	1.488195	-0.198301	0.000042
C36	C	1.478783	-0.555311	0.000049
C37	C	1.713087	0.118413	0.000051
C38	C	1.852498	0.120874	0.000047
C39	C	1.474318	0.276223	0.000045
C40	C	1.476796	0.369188	0.000044
N41	N	1.483487	0.123192	0.346712
N42	N	1.483496	0.123190	-0.346618
C43	C	1.654287	0.010383	0.346709
C44	C	1.739695	-0.046019	0.423374
C45	C	1.739708	-0.046019	0.576707
C46	C	1.654300	0.010387	0.653379
C47	C	1.568892	0.066788	0.576714
C48	C	1.568891	0.066785	0.423377
C49	C	1.398088	0.179592	0.576717
C50	C	1.398079	0.179598	0.423384
C51	C	1.312680	0.235998	0.653389
C52	C	1.227276	0.292405	0.576724
C53	C	1.227268	0.292404	0.423381
C54	C	1.312671	0.236000	0.346718
H55	H	1.045183	0.415908	-0.000014
C56	C	1.269824	-0.439430	-0.135272
C57	C	1.147339	-0.481372	-0.114832
C58	C	1.073201	-0.506848	-0.249603
C59	C	1.121548	-0.490382	-0.404815
C60	C	1.244040	-0.448437	-0.425262
C61	C	1.318178	-0.422961	-0.290491
H62	H	1.111543	-0.493563	0.000072
H63	H	0.982525	-0.537899	-0.234466
H64	H	1.066667	-0.509241	-0.504581
H65	H	1.279835	-0.436246	-0.540166
H66	H	1.408854	-0.391911	-0.305628
H67	H	1.809250	-0.091950	0.639128
H68	H	1.293208	-0.289143	-0.099677
C69	C	0.907366	-0.191630	0.000114
C70	C	0.995876	-0.274164	0.000124
C71	C	0.940305	-0.359250	0.000150
C72	C	0.796223	-0.361800	0.000165
C73	C	0.707704	-0.279262	0.000155
C74	C	0.763276	-0.194177	0.000130
H75	H	1.102542	-0.272279	0.000112
H76	H	1.005833	-0.420349	0.000157
H77	H	0.755086	-0.424785	0.000184
H78	H	0.601039	-0.281148	0.000167
H79	H	0.697747	-0.133077	0.000122
C80	C	1.274049	-0.280026	0.134984
C81	C	1.213805	-0.338302	0.242587
C82	C	1.141411	-0.301072	0.377540
C83	C	1.129260	-0.205567	0.404889
C84	C	1.189506	-0.147285	0.297282
C85	C	1.261901	-0.184515	0.162330
H86	H	1.222798	-0.409006	0.222345
H87	H	1.096813	-0.344216	0.457197
H88	H	1.075670	-0.178007	0.504789
H89	H	1.180514	-0.076581	0.317525
H90	H	1.306499	-0.141371	0.082672
H91	H	1.500578	-0.448942	0.243247
H92	H	1.289324	-0.433873	0.098688
H93	H	1.191169	0.279789	-0.000017
H94	H	0.807528	0.411706	-0.000006
C95	C	1.686153	-0.473136	0.147825
C96	C	1.797695	-0.419320	0.154541
C97	C	1.933876	-0.462098	0.163120
C98	C	1.958515	-0.558691	0.164983
C99	C	1.846970	-0.612512	0.158267
C100	C	1.710789	-0.569735	0.149687
H101	H	1.779459	-0.347811	0.153162
H102	H	2.016449	-0.422255	0.168092
H103	H	2.059324	-0.590357	0.171334
H104	H	1.865206	-0.684021	0.159645
H105	H	1.628216	-0.609577	0.144715
C106	C	1.489865	-0.295737	0.279001
C107	C	1.485389	-0.200656	0.308245
C108	C	1.421827	-0.162697	0.448096
C109	C	1.362741	-0.219818	0.558701
C110	C	1.367215	-0.314905	0.529459
C111	C	1.430777	-0.352864	0.389609
H112	H	1.529130	-0.158366	0.226366
H113	H	1.418515	-0.092307	0.469742
H114	H	1.315688	-0.191718	0.662227
H115	H	1.323474	-0.357195	0.611339
H116	H	1.434088	-0.423254	0.367963
H117	H	0.715878	0.271373	0.000032
H118	H	1.809231	-0.091946	0.360934
H119	H	0.775800	-0.033395	0.000089
H120	H	1.159444	-0.165325	0.000106
H121	H	1.251090	-0.024976	0.000052
C122	C	1.485923	-0.297248	-0.278583
C123	C	1.345520	-0.307604	-0.304096
C124	C	1.278631	-0.271094	-0.443061
C125	C	1.352143	-0.224227	-0.556513
C126	C	1.492553	-0.213869	-0.531004
C127	C	1.559443	-0.250380	-0.392039
H128	H	1.291095	-0.342300	-0.220109
H129	H	1.174689	-0.278762	-0.461944
H130	H	1.302627	-0.197200	-0.659383
H131	H	1.546979	-0.179174	-0.614991
H132	H	1.663384	-0.242711	-0.373156
C133	C	1.689966	-0.312205	-0.150942
C134	C	1.799589	-0.383060	-0.151394
C135	C	1.936782	-0.361518	-0.162724
C136	C	1.964353	-0.269120	-0.173602
C137	C	1.854728	-0.198259	-0.173151
C138	C	1.717535	-0.219801	-0.161821
H139	H	1.779181	-0.451464	-0.143340
H140	H	2.017933	-0.413975	-0.163058
H141	H	2.065912	-0.253173	-0.181990
H142	H	1.875135	-0.129855	-0.181204
H143	H	1.636383	-0.167345	-0.161487
H144	H	1.655720	-0.318979	0.144318
H145	H	1.507920	-0.451494	-0.243190
H146	H	1.157713	0.338330	0.360968
H147	H	1.654053	-0.461868	-0.138691
H148	H	1.312676	0.235997	0.221866
H149	H	1.654296	0.010385	0.221856
H150	H	1.654306	0.010376	0.778231
H151	H	1.312689	0.235991	0.778241
H152	H	1.157738	0.338323	0.639159
