data_functionalizedCrystal
_audit_creation_method	'MofGen! by Chris Wilmer'
_symmetry_space_group_name_H-M	'P1'
_symmetry_Int_Tables_number	1
_symmetry_cell_setting	triclinic
loop_
_symmetry_equiv_pos_as_xyz
  x,y,z
_cell_length_a	10.489716
_cell_length_b	17.038274
_cell_length_c	9.565339
_cell_angle_alpha	89.985709
_cell_angle_beta	89.997314
_cell_angle_gamma	92.179539
loop_
_atom_site_label
_atom_site_type_symbol
_atom_site_fract_x
_atom_site_fract_y
_atom_site_fract_z
O1	O	1.704375	-0.110285	0.116277
O2	O	2.204375	0.389715	0.616277
O3	O	1.334146	-0.120666	0.116285
O4	O	1.834146	0.379334	0.616285
O5	O	1.517060	-0.001648	0.116243
O6	O	2.017060	0.498352	0.616243
O7	O	1.521461	-0.229303	0.116320
O8	O	2.021461	0.270697	0.616320
O9	O	1.517068	-0.001640	-0.116278
O10	O	2.017068	0.498360	0.383722
O11	O	1.334154	-0.120658	-0.116235
O12	O	1.834154	0.379342	0.383765
O13	O	1.704383	-0.110277	-0.116243
O14	O	2.204383	0.389723	0.383757
Zn15	Zn	1.519270	-0.115466	-0.153157
Zn16	Zn	2.019270	0.384534	0.346843
Zn17	Zn	1.519259	-0.115477	0.153199
Zn18	Zn	2.019259	0.384523	0.653199
O19	O	1.521469	-0.229296	-0.116200
O20	O	2.021469	0.270704	0.383800
C21	C	1.286545	-0.119882	0.000025
C22	C	1.786545	0.380118	0.500025
C23	C	1.144696	-0.117548	0.000027
C24	C	1.644696	0.382452	0.500027
C25	C	1.053849	-0.190534	0.000055
C26	C	1.553849	0.309466	0.500055
C27	C	0.972899	-0.151963	-0.114609
C28	C	1.472899	0.348037	0.385391
C29	C	0.972896	-0.151954	0.114637
C30	C	1.472896	0.348046	0.614637
C31	C	1.065615	-0.079008	-0.114732
C32	C	1.565615	0.420992	0.385268
C33	C	1.065618	-0.079009	0.114618
C34	C	1.565618	0.420991	0.614618
C35	C	0.984713	-0.040385	-0.000074
C36	C	1.484713	0.459615	0.499926
C37	C	1.513061	0.027508	-0.000024
C38	C	2.013061	0.527508	0.499976
C39	C	1.501119	0.114369	-0.000045
C40	C	2.001119	0.614369	0.499955
C41	C	1.610758	0.163854	-0.000060
C42	C	2.110758	0.663854	0.499940
C43	C	1.599529	0.245469	-0.000066
C44	C	2.099529	0.745469	0.499934
C45	C	1.478661	0.277597	-0.000068
C46	C	1.978661	0.777597	0.499932
C47	C	1.369014	0.228106	-0.000048
C48	C	1.869014	0.728106	0.499952
C49	C	1.380244	0.146492	-0.000032
C50	C	1.880244	0.646492	0.499968
C51	C	1.438989	0.523583	-0.000107
C52	C	1.938989	1.023583	0.499893
C53	C	1.427768	0.605203	-0.000128
C54	C	1.927768	1.105203	0.499872
C55	C	1.658284	0.622560	-0.000143
C56	C	2.158284	1.122560	0.499857
C57	C	1.669503	0.540945	-0.000135
C58	C	2.169503	1.040945	0.499865
C59	C	1.559856	0.491460	-0.000109
C60	C	2.059856	0.991460	0.499891
C61	C	1.467181	0.361021	-0.000078
C62	C	1.967181	0.861021	0.499922
C63	C	1.571338	0.408038	-0.000088
C64	C	2.071338	0.908038	0.499912
C65	C	1.751984	-0.111061	0.000020
C66	C	2.251984	0.388939	0.500020
C67	C	1.893833	-0.113395	0.000028
C68	C	2.393833	0.386605	0.500028
C69	C	1.525467	0.741549	0.000009
C70	C	2.025467	1.241549	0.500009
C71	C	1.537407	0.654688	-0.000143
C72	C	2.037407	1.154688	0.499857
N73	N	1.519252	-0.115478	0.362278
N74	N	2.019252	0.384522	0.862278
N75	N	1.519286	-0.115459	-0.362236
N76	N	2.019286	0.384541	0.137764
C77	C	1.434472	-0.170412	0.453492
C78	C	1.934472	0.329588	0.953492
C79	C	1.402326	-0.099524	0.546651
C80	C	1.902326	0.400476	1.046651
C81	C	1.551375	-0.186341	0.546675
C82	C	2.051375	0.313659	1.046675
C83	C	1.487045	-0.044554	0.453385
C84	C	1.987045	0.455446	0.953385
C85	C	1.636149	-0.131417	0.453401
C86	C	2.136149	0.368583	0.953401
C87	C	1.604047	-0.060478	0.546517
C88	C	2.104047	0.439522	1.046517
H89	H	0.932302	-0.182770	-0.211526
H90	H	1.432302	0.317230	0.288474
Br91	Br	1.104878	-0.296345	-0.000084
Br92	Br	1.604878	0.203655	0.499916
Br93	Br	1.133006	-0.027679	-0.276466
Br94	Br	1.633006	0.472321	0.223534
H95	H	1.106231	-0.048226	0.211539
H96	H	1.606231	0.451774	0.711539
Br97	Br	1.748332	0.312625	-0.000086
Br98	Br	2.248332	0.812625	0.499914
H99	H	0.954340	0.023148	-0.000162
H100	H	1.454340	0.523148	0.499838
H101	H	1.767927	0.514792	-0.000135
H102	H	2.267927	1.014792	0.499865
Br103	Br	0.905217	-0.203334	0.276184
Br104	Br	1.405217	0.296666	0.776184
Br105	Br	1.800850	-0.153947	0.385074
Br106	Br	2.300850	0.346053	0.885074
Br107	Br	1.723574	0.017046	0.614172
Br108	Br	2.223574	0.517046	1.114172
Br109	Br	1.596637	-0.286235	0.614979
Br110	Br	2.096637	0.213765	1.114979
H111	H	1.270601	0.254271	-0.000041
H112	H	1.770601	0.754271	0.499959
Br113	Br	1.774801	0.120260	-0.000078
Br114	Br	2.274801	0.620260	0.499922
Br115	Br	1.303150	0.404630	-0.000067
Br116	Br	1.803150	0.904630	0.499933
Br117	Br	1.807082	0.689721	-0.000179
Br118	Br	2.307082	1.189721	0.499821
H119	H	1.349706	0.483302	-0.000086
H120	H	1.849706	0.983302	0.499914
H121	H	1.329338	0.631358	-0.000152
H122	H	1.829338	1.131358	0.499848
H123	H	1.290964	0.106202	-0.000019
H124	H	1.790964	0.606202	0.499981
H125	H	1.669748	0.381876	-0.000056
H126	H	2.169748	0.881876	0.499944
H127	H	1.362705	-0.216822	0.412644
H128	H	1.862705	0.283178	0.912644
H129	H	1.303485	-0.086032	0.587620
H130	H	1.803485	0.413968	1.087620
H131	H	1.459774	0.015396	0.412580
H132	H	1.959774	0.515396	0.912580
