data_functionalizedCrystal
_audit_creation_method	'MofGen! by Chris Wilmer'
_symmetry_space_group_name_H-M	'P1'
_symmetry_Int_Tables_number	1
_symmetry_cell_setting	triclinic
loop_
_symmetry_equiv_pos_as_xyz
  x,y,z
_cell_length_a	16.959455
_cell_length_b	29.839131
_cell_length_c	16.959447
_cell_angle_alpha	89.969651
_cell_angle_beta	89.982507
_cell_angle_gamma	90.038367
loop_
_atom_site_label
_atom_site_type_symbol
_atom_site_fract_x
_atom_site_fract_y
_atom_site_fract_z
Zn1	Zn	1.208291	-0.178897	-0.446889
Zn2	Zn	1.208157	-0.254025	-0.314702
Zn3	Zn	1.076112	-0.178906	-0.314726
Zn4	Zn	1.076035	-0.253997	-0.446841
O5	O	1.142149	-0.216456	-0.380790
O6	O	1.318884	-0.188871	-0.429364
O7	O	1.190617	-0.244077	-0.204094
O8	O	1.093735	-0.116038	-0.332288
O9	O	1.318786	-0.244068	-0.332247
O10	O	1.190846	-0.116031	-0.429388
O11	O	1.093605	-0.188887	-0.204112
O12	O	0.965491	-0.188859	-0.332242
O13	O	1.093603	-0.244018	-0.557458
O14	O	0.965434	-0.244028	-0.429305
O15	O	1.190771	-0.188843	-0.557493
O16	O	1.190542	-0.316889	-0.332200
O17	O	1.093473	-0.316868	-0.429282
C18	C	0.936783	-0.216441	-0.380771
C19	C	0.848926	-0.216446	-0.380782
C20	C	0.477456	-0.187707	-0.330354
C21	C	0.477445	-0.245243	-0.431270
C22	C	0.559991	-0.245237	-0.431265
C23	C	0.601273	-0.216465	-0.380803
C24	C	0.560009	-0.187700	-0.330346
C25	C	0.601261	-0.274004	-0.481716
C26	C	0.683812	-0.273999	-0.481713
C27	C	0.725096	-0.245225	-0.431254
C28	C	0.683827	-0.216459	-0.380795
C29	C	0.725109	-0.187687	-0.330333
C30	C	0.683841	-0.158918	-0.279878
C31	C	0.601293	-0.158926	-0.279887
C32	C	0.807644	-0.245217	-0.431245
C33	C	0.807662	-0.187681	-0.330325
C34	C	1.142006	-0.333179	-0.380750
C35	C	1.142017	-0.383113	-0.380760
C36	C	1.192785	-0.692755	-0.330313
C37	C	1.192883	-0.880428	-0.330344
O38	O	1.235934	-0.904692	-0.287422
N39	N	1.142313	-0.903898	-0.380849
C40	C	1.091719	-0.880447	-0.431354
O41	O	1.048714	-0.904717	-0.474319
C42	C	1.091626	-0.692775	-0.431327
C43	C	1.142193	-0.669307	-0.380812
C44	C	1.243349	-0.669287	-0.279803
C45	C	1.243321	-0.622372	-0.279793
C46	C	1.192729	-0.598924	-0.330293
C47	C	1.142165	-0.622392	-0.380802
C48	C	1.041036	-0.669325	-0.481835
C49	C	1.041019	-0.622404	-0.481826
C50	C	1.091586	-0.598936	-0.431311
C51	C	1.091546	-0.552029	-0.431292
N52	N	1.142115	-0.528559	-0.380786
C53	C	1.192707	-0.552006	-0.330287
C54	C	1.091770	-0.978978	-0.431364
C55	C	1.091792	-1.025896	-0.431370
C56	C	1.192957	-1.025873	-0.330360
C57	C	1.192930	-0.978955	-0.330351
C58	C	1.142340	-0.955508	-0.380858
C59	C	1.192644	-0.453481	-0.330268
C60	C	1.192609	-0.406561	-0.330260
C61	C	1.091448	-0.406588	-0.431273
C62	C	1.091479	-0.453503	-0.431278
C63	C	1.142084	-0.476948	-0.380773
O64	O	1.048523	-0.527737	-0.474197
O65	O	1.235718	-0.527729	-0.287341
C66	C	1.192813	-0.739671	-0.330323
C67	C	1.142249	-0.763138	-0.380833
C68	C	1.091657	-0.739691	-0.431332
C69	C	1.142271	-0.810056	-0.380839
C70	C	1.192863	-0.833504	-0.330339
C71	C	1.243433	-0.810034	-0.279834
C72	C	1.243405	-0.763118	-0.279824
C73	C	1.041088	-0.763161	-0.481838
C74	C	1.041119	-0.810076	-0.481843
C75	C	1.091711	-0.833524	-0.431344
C76	C	1.348317	-0.216472	-0.380808
C77	C	1.436174	-0.216478	-0.380816
C78	C	1.142193	-0.216426	-0.586958
C79	C	1.142212	-0.216414	-0.674814
C80	C	1.142314	-0.099278	-0.380846
C81	C	1.142384	-0.049343	-0.380870
C82	C	1.091631	-0.245135	-0.716072
C83	C	1.192806	-0.187677	-0.716111
C84	C	1.192823	-0.187662	-0.798657
C85	C	1.142242	-0.216384	-0.839914
C86	C	1.091644	-0.245121	-0.798625
C87	C	1.243414	-0.158923	-0.839952
C88	C	1.243432	-0.158907	-0.922503
C89	C	1.192854	-0.187631	-0.963762
C90	C	1.142255	-0.216369	-0.922468
C91	C	1.091674	-0.245091	-0.963725
C92	C	1.041078	-0.273832	-0.922432
C93	C	1.041067	-0.273845	-0.839884
C94	C	1.192866	-0.187618	-1.046310
C95	C	1.091687	-0.245076	-1.046278
C96	C	1.142150	-0.216454	-0.175423
C97	C	1.142285	-0.216340	-0.087567
H98	H	0.567644	-0.297432	-0.522794
H99	H	0.841268	-0.164249	-0.289237
Br100	Br	1.261322	-0.485292	-0.261726
Br101	Br	1.261239	-0.374715	-0.261699
Br102	Br	0.421420	-0.284300	-0.499731
H103	H	0.999891	-0.297214	-0.956034
Br104	Br	0.545283	-0.119885	-0.211419
Br105	Br	1.312005	-0.119918	-0.783958
H106	H	0.717405	-0.297425	-0.522797
H107	H	0.999874	-0.297244	-0.806256
H108	H	0.841241	-0.268642	-0.472322
H109	H	1.050254	-0.387489	-0.472387
Br110	Br	1.022972	-0.284141	-0.660036
H111	H	1.233984	-0.164291	-0.682515
Br112	Br	1.311963	-0.590530	-0.211245
H113	H	1.234054	-0.164214	-1.079927
H114	H	1.284624	-0.829133	-0.238713
H115	H	0.999934	-0.829180	-0.522978
Br116	Br	1.312020	-0.701100	-0.211260
Br117	Br	0.739876	-0.119877	-0.211389
Br118	Br	0.972422	-0.731347	-0.550382
Br119	Br	1.023044	-0.284062	-1.102264
H120	H	1.234107	-0.959850	-0.289218
Br121	Br	0.421454	-0.148661	-0.261888
H122	H	1.284631	-0.135505	-0.956116
H123	H	1.284581	-0.744014	-0.238690
Br124	Br	1.023151	-1.057739	-0.499916
Br125	Br	1.023104	-0.947164	-0.499917
Br126	Br	1.261614	-1.057704	-0.261822
H127	H	0.999855	-0.688425	-0.522966
Br128	Br	0.972359	-0.590586	-0.550379
H129	H	1.050306	-0.472612	-0.472414
