data_functionalizedCrystal
_audit_creation_method	'MofGen! by Chris Wilmer'
_symmetry_space_group_name_H-M	'P1'
_symmetry_Int_Tables_number	1
_symmetry_cell_setting	triclinic
loop_
_symmetry_equiv_pos_as_xyz
  x,y,z
_cell_length_a	18.101395
_cell_length_b	18.101398
_cell_length_c	12.759393
_cell_angle_alpha	90.030771
_cell_angle_beta	89.966505
_cell_angle_gamma	89.973721
loop_
_atom_site_label
_atom_site_type_symbol
_atom_site_fract_x
_atom_site_fract_y
_atom_site_fract_z
Zn1	Zn	-0.294881	-1.132140	-0.594313
Zn2	Zn	-0.418742	-1.132031	-0.418627
Zn3	Zn	-0.294909	-1.008294	-0.418614
Zn4	Zn	-0.418675	-1.008250	-0.594231
O5	O	-0.356802	-1.070179	-0.506446
O6	O	-0.311328	-1.235759	-0.571047
O7	O	-0.402356	-1.115589	-0.271604
O8	O	-0.191272	-1.024786	-0.441950
O9	O	-0.402329	-1.235678	-0.441972
O10	O	-0.191252	-1.115776	-0.571035
O11	O	-0.311376	-1.024680	-0.271595
O12	O	-0.311310	-0.904655	-0.441871
O13	O	-0.402213	-1.024712	-0.741263
O14	O	-0.402240	-0.904623	-0.570895
O15	O	-0.311262	-1.115734	-0.741323
O16	O	-0.522366	-1.115547	-0.441892
O17	O	-0.522317	-1.024606	-0.570908
C18	C	-0.549212	-1.070080	-0.506415
C19	C	-0.631526	-1.070105	-0.506437
C20	C	-0.356771	-0.877768	-0.506373
C21	C	-0.356776	-0.795454	-0.506367
C22	C	-0.356727	-1.070230	-0.780480
C23	C	-0.356695	-1.070252	-0.897257
C24	C	-0.930617	-1.070267	-0.506494
C25	C	-0.899292	-1.013183	-0.587868
C26	C	-0.813674	-1.012911	-0.587614
C27	C	-0.782235	-1.070187	-0.506467
C28	C	-0.813393	-1.049054	-0.395735
C29	C	-0.899038	-1.048686	-0.396222
C30	C	-0.898965	-1.148610	-0.534876
C31	C	-0.813314	-1.148149	-0.537304
C32	C	-0.698375	-1.070142	-0.506445
C33	C	-1.014477	-1.070310	-0.506509
C34	C	-0.163640	-1.070298	-0.506500
C35	C	-0.081326	-1.070349	-0.506523
C36	C	-0.356785	-0.644746	-0.506402
C37	C	-0.299490	-0.613387	-0.425356
C38	C	-0.299271	-0.527769	-0.425615
C39	C	-0.356793	-0.496363	-0.506434
C40	C	-0.335952	-0.527507	-0.617284
C41	C	-0.335532	-0.613151	-0.616797
C42	C	-0.435066	-0.613141	-0.477573
C43	C	-0.434650	-0.527489	-0.475150
C44	C	-0.356799	-0.412504	-0.506460
C45	C	-0.356777	-0.728605	-0.506384
C46	C	-0.356821	-0.263341	-0.506499
C47	C	-0.356801	-0.345655	-0.506469
C48	C	-0.309313	-1.022933	-0.952113
C49	C	-0.309290	-1.022950	-1.061837
C50	C	-0.404033	-1.117613	-1.061838
C51	C	-0.404059	-1.117591	-0.952116
C52	C	-0.356823	-1.070170	-0.233479
C53	C	-0.356646	-1.070291	-0.116703
H54	H	-0.792604	-1.026133	-0.669719
H55	H	-0.919078	-0.991418	-0.372182
C56	C	-0.784507	-0.972503	-0.362679
N57	N	-0.762753	-0.914842	-0.337787
C58	C	-0.786075	-0.934449	-0.562290
N59	N	-0.765288	-0.875344	-0.543242
H60	H	-0.442646	-1.156126	-0.907451
C61	C	-0.220912	-0.500123	-0.451478
N62	N	-0.161889	-0.479301	-0.470965
H63	H	-0.450370	-0.507131	-0.393569
H64	H	-0.270746	-0.984387	-0.907450
C65	C	-0.784401	-1.208649	-0.463070
N66	N	-0.762625	-1.254215	-0.407147
H67	H	-0.919223	-1.191140	-0.475608
H68	H	-0.279371	-0.506087	-0.642078
H69	H	-0.442595	-1.156155	-1.106519
H70	H	-0.270708	-0.984418	-1.106497
C71	C	-0.927039	-1.102410	-0.311510
N72	N	-0.948126	-1.142870	-0.247700
H73	H	-0.479599	-0.506103	-0.529834
C74	C	-0.258239	-0.640180	-0.649709
N75	N	-0.200019	-0.660534	-0.674495
C76	C	-0.785880	-1.103451	-0.311587
N77	N	-0.765154	-1.144423	-0.248208
H78	H	-0.919834	-1.026273	-0.670240
H79	H	-0.312347	-0.633926	-0.342906
C80	C	-0.928439	-0.935207	-0.562781
N81	N	-0.950391	-0.876476	-0.543878
C82	C	-0.785767	-1.169698	-0.647375
N83	N	-0.765004	-1.185931	-0.730274
H84	H	-0.920509	-1.167876	-0.614246
C85	C	-0.221568	-0.642487	-0.450889
N86	N	-0.162877	-0.664403	-0.470127
H87	H	-0.375465	-0.633900	-0.679273
C88	C	-0.460773	-0.642258	-0.370195
N89	N	-0.480128	-0.664189	-0.289313
H90	H	-0.312274	-0.506709	-0.343435
H91	H	-0.376409	-0.507168	-0.679338
C92	C	-0.492731	-0.640544	-0.557307
N93	N	-0.536159	-0.661189	-0.617366
