data_functionalizedCrystal
_audit_creation_method	'MofGen! by Chris Wilmer'
_symmetry_space_group_name_H-M	'P1'
_symmetry_Int_Tables_number	1
_symmetry_cell_setting	triclinic
loop_
_symmetry_equiv_pos_as_xyz
  x,y,z
_cell_length_a	11.169417
_cell_length_b	13.031981
_cell_length_c	11.169409
_cell_angle_alpha	97.219778
_cell_angle_beta	90.019824
_cell_angle_gamma	97.192872
loop_
_atom_site_label
_atom_site_type_symbol
_atom_site_fract_x
_atom_site_fract_y
_atom_site_fract_z
Zn1	Zn	1.774260	-0.416011	0.617790
Zn2	Zn	2.107593	-0.082678	0.951124
Zn3	Zn	2.440927	0.250656	1.284457
Zn4	Zn	1.748640	-0.590835	0.391577
Zn5	Zn	2.081973	-0.257502	0.724910
Zn6	Zn	2.415307	0.075831	1.058243
Zn7	Zn	1.573537	-0.416075	0.417115
Zn8	Zn	1.906870	-0.082742	0.750449
Zn9	Zn	2.240203	0.250592	1.083782
Zn10	Zn	1.548056	-0.590750	0.592234
Zn11	Zn	1.881390	-0.257417	0.925567
Zn12	Zn	2.214723	0.075916	1.258901
O13	O	1.661123	-0.503418	0.504679
O14	O	1.994457	-0.170085	0.838013
O15	O	2.327790	0.163249	1.171346
O16	O	1.938810	-0.439211	0.587790
O17	O	2.272143	-0.105878	0.921123
O18	O	2.605477	0.227456	1.254457
O19	O	1.725354	-0.567715	0.227006
O20	O	2.058687	-0.234382	0.560339
O21	O	2.392020	0.098951	0.893672
O22	O	1.621549	-0.269800	0.465119
O23	O	1.954882	0.063534	0.798452
O24	O	2.288215	0.396867	1.131786
O25	O	1.919987	-0.567653	0.421592
O26	O	2.253320	-0.234320	0.754925
O27	O	2.586654	0.099013	1.088259
O28	O	1.769019	-0.269753	0.612554
O29	O	2.102353	0.063580	0.945887
O30	O	2.435686	0.396914	1.279221
O31	O	1.596706	-0.439319	0.245769
O32	O	1.930039	-0.105986	0.579102
O33	O	2.263373	0.227347	0.912435
O34	O	1.402208	-0.439237	0.440338
O35	O	1.735542	-0.105904	0.773671
O36	O	2.068875	0.227430	1.107005
O37	O	1.578121	-0.567508	0.763583
O38	O	1.911455	-0.234175	1.096916
O39	O	2.244788	0.099158	1.430250
O40	O	1.383488	-0.567570	0.568997
O41	O	1.716821	-0.234237	0.902330
O42	O	2.050155	0.099096	1.235664
O43	O	1.744312	-0.439128	0.782359
O44	O	2.077646	-0.105795	1.115693
O45	O	2.410979	0.227538	1.449026
O46	O	1.700646	-0.737091	0.396811
O47	O	2.033980	-0.403757	0.730144
O48	O	2.367313	-0.070424	1.063478
O49	O	1.553279	-0.737028	0.544233
O50	O	1.886612	-0.403695	0.877566
O51	O	2.219945	-0.070362	1.210900
C52	C	1.349301	-0.503402	0.504666
C53	C	1.682634	-0.170069	0.837999
C54	C	2.015968	0.163265	1.171333
C55	C	1.215898	-0.503420	0.504685
C56	C	1.549232	-0.170087	0.838019
C57	C	1.882565	0.163246	1.171352
C58	C	1.621450	-0.774985	0.465004
C59	C	1.954783	-0.441651	0.798337
C60	C	2.288117	-0.108318	1.131670
C61	C	1.604587	-0.891162	0.448071
C62	C	1.937921	-0.557829	0.781404
C63	C	2.271254	-0.224496	1.114737
C64	C	1.669988	-0.942851	0.513541
C65	C	2.003321	-0.609518	0.846874
C66	C	2.336654	-0.276185	1.180207
C67	C	1.652561	-1.062927	0.496041
C68	C	1.985894	-0.729593	0.829374
C69	C	2.319228	-0.396260	1.162708
C70	C	1.974163	-0.503435	0.504693
C71	C	2.307496	-0.170101	0.838026
C72	C	2.640830	0.163232	1.171360
C73	C	2.107562	-0.503442	0.504699
C74	C	2.440895	-0.170108	0.838032
C75	C	2.774229	0.163225	1.171365
C76	C	1.661232	-0.503302	0.817739
C77	C	1.994566	-0.169968	1.151072
C78	C	2.327899	0.163365	1.484405
C79	C	1.661279	-0.503252	0.951146
C80	C	1.994612	-0.169919	1.284479
C81	C	2.327945	0.163414	1.617813
C82	C	1.700984	-0.230791	0.544536
C83	C	2.034317	0.102543	0.877869
C84	C	2.367651	0.435876	1.211203
C85	C	1.717970	-0.114613	0.561520
C86	C	2.051304	0.218720	0.894854
C87	C	2.384637	0.552054	1.228187
C88	C	1.661095	-0.503458	0.192849
C89	C	1.994428	-0.170125	0.526182
C90	C	2.327761	0.163209	0.859515
C91	C	1.661324	-0.503213	0.059485
C92	C	1.994657	-0.169880	0.392818
C93	C	2.327990	0.163454	0.726152
H94	H	1.738877	-0.898211	0.582553
H95	H	2.072210	-0.564878	0.915886
H96	H	2.405544	-0.231545	1.249220
H97	H	1.786864	-1.069976	0.630537
H98	H	2.120197	-0.736642	0.963870
H99	H	2.453531	-0.403309	1.297204
H100	H	1.583658	-1.107565	0.427035
H101	H	1.916991	-0.774232	0.760368
H102	H	2.250324	-0.440898	1.093702
H103	H	1.535689	-0.935805	0.379069
H104	H	1.869022	-0.602471	0.712403
H105	H	2.202355	-0.269138	1.045736
