data_functionalizedCrystal
_audit_creation_method	'MofGen! by Chris Wilmer'
_symmetry_space_group_name_H-M	'P1'
_symmetry_Int_Tables_number	1
_symmetry_cell_setting	triclinic
loop_
_symmetry_equiv_pos_as_xyz
  x,y,z
_cell_length_a	17.038272
_cell_length_b	27.732048
_cell_length_c	16.098538
_cell_angle_alpha	92.695138
_cell_angle_beta	87.069734
_cell_angle_gamma	86.877106
loop_
_atom_site_label
_atom_site_type_symbol
_atom_site_fract_x
_atom_site_fract_y
_atom_site_fract_z
O1	O	1.039664	0.102899	-0.069167
O2	O	0.812054	0.101233	-0.069192
O3	O	0.932928	0.031993	-0.069163
O4	O	0.918791	0.172139	-0.069196
O5	O	0.925867	0.036021	0.069348
O6	O	0.804994	0.105261	0.069320
O7	O	1.032604	0.106927	0.069344
Zn8	Zn	0.917678	0.106733	0.091323
Zn9	Zn	0.926980	0.101427	-0.091171
O10	O	0.911730	0.176167	0.069315
C11	C	0.779414	0.101731	0.000061
C12	C	0.692674	0.097211	0.000053
C13	C	0.642076	0.138713	0.000043
C14	C	0.560575	0.134463	0.000056
C15	C	0.529672	0.088710	0.000072
C16	C	0.580276	0.047205	0.000083
C17	C	0.661776	0.051455	0.000077
C18	C	0.284088	0.073694	0.000098
C19	C	0.202582	0.069446	0.000102
C20	C	0.182886	0.156706	0.000076
C21	C	0.264389	0.160952	0.000064
C22	C	0.314985	0.119446	0.000080
C23	C	0.446365	0.084365	0.000082
C24	C	0.398290	0.123792	0.000076
C25	C	0.929100	0.015987	0.000095
C26	C	0.928206	-0.037709	0.000102
C27	C	0.994011	-0.373515	0.000066
C28	C	0.990696	-0.575327	0.000054
O29	O	1.050870	-0.603831	0.000024
N30	N	0.919023	-0.597729	0.000047
C31	C	0.848173	-0.569676	0.000038
O32	O	0.787135	-0.593361	0.000023
C33	C	0.851490	-0.367865	0.000044
C34	C	0.923167	-0.345465	0.000059
C35	C	1.065683	-0.351115	0.000080
C36	C	1.066511	-0.300665	0.000088
C37	C	0.995667	-0.272615	0.000081
C38	C	0.923995	-0.295015	0.000067
C39	C	0.780641	-0.339813	0.000029
C40	C	0.781477	-0.289357	0.000028
C41	C	0.853155	-0.266957	0.000043
C42	C	0.853979	-0.216515	0.000067
N43	N	0.925652	-0.194113	0.000074
C44	C	0.996496	-0.222163	0.000081
C45	C	0.846437	-0.675629	0.000036
C46	C	0.845608	-0.726081	0.000036
C47	C	0.988131	-0.731729	0.000051
C48	C	0.988959	-0.681276	0.000057
C49	C	0.918111	-0.653227	0.000043
C50	C	0.998229	-0.116214	0.000098
C51	C	0.999051	-0.065759	0.000109
C52	C	0.856528	-0.060116	0.000090
C53	C	0.855706	-0.110566	0.000083
C54	C	0.926563	-0.138614	0.000084
O55	O	0.793838	-0.187981	0.000088
O56	O	1.057527	-0.198469	0.000077
C57	C	0.993184	-0.423965	0.000059
C58	C	0.921512	-0.446365	0.000044
C59	C	0.850668	-0.418315	0.000037
C60	C	0.920682	-0.496818	0.000044
C61	C	0.991526	-0.524868	0.000051
C62	C	1.063200	-0.502465	0.000058
C63	C	1.064028	-0.452015	0.000065
C64	C	0.778994	-0.440718	0.000030
C65	C	0.778172	-0.491168	0.000024
C66	C	0.849016	-0.519218	0.000031
C67	C	1.065245	0.106428	0.000089
C68	C	1.151985	0.110949	0.000092
C69	C	0.915558	0.192173	0.000055
C70	C	0.916452	0.245869	0.000043
N71	N	0.911335	0.110355	0.215871
N72	N	0.933330	0.097802	-0.215719
C73	C	0.962657	0.080979	0.259468
C74	C	0.958226	0.083517	0.346656
C75	C	0.902478	0.115434	0.390245
C76	C	0.851150	0.144812	0.346642
C77	C	0.855577	0.142270	0.259456
C78	C	0.886429	0.124638	0.653492
C79	C	0.882008	0.127178	0.740684
C80	C	0.989084	0.065882	0.740692
C81	C	0.993509	0.063346	0.653504
C82	C	0.942179	0.092721	0.609908
C83	C	0.897950	0.118031	0.479365
C84	C	0.946704	0.090122	0.520790
H85	H	0.555109	0.009952	0.000108
C86	C	0.127233	0.202359	0.000062
H87	H	0.157311	0.230215	0.000046
H88	H	0.092573	0.203921	0.048365
H89	H	0.097488	0.201109	-0.048245
H90	H	1.120883	-0.525312	0.000067
C91	C	0.799127	0.174584	0.211495
H92	H	0.809742	0.168497	0.153327
H93	H	0.806493	0.207597	0.225766
H94	H	0.746311	0.167586	0.225794
C95	C	0.504921	0.180116	0.000043
H96	H	0.534998	0.207973	0.000022
H97	H	0.470264	0.181680	0.048348
H98	H	0.475173	0.178865	-0.048262
C99	C	0.836602	0.153122	0.527313
H100	H	0.806657	0.170248	0.488864
H101	H	0.862712	0.175394	0.561332
H102	H	0.802569	0.135361	0.561316
H103	H	0.325275	0.039897	0.000111
H104	H	1.000016	0.059596	0.382153
C105	C	0.789803	0.179905	0.394584
H106	H	0.759860	0.197029	0.356129
H107	H	0.815917	0.202179	0.428595
H108	H	0.755767	0.162150	0.428594
C109	C	0.676066	0.189041	0.000024
H110	H	0.731851	0.185630	0.000013
H111	H	0.656207	0.207676	0.048321
H112	H	0.661115	0.204863	-0.048289
H113	H	0.289543	0.198208	0.000042
C114	C	1.008025	0.055015	0.472849
H115	H	1.037958	0.037880	0.511298
H116	H	1.042063	0.072754	0.438823
H117	H	0.981880	0.032744	0.438853
H118	H	0.702973	0.017659	0.000084
C119	C	0.412374	0.034038	0.000089
H120	H	0.454178	0.009926	0.000095
H121	H	0.383442	0.029166	-0.048209
H122	H	0.378537	0.031972	0.048401
H123	H	0.844636	0.148557	0.618003
H124	H	0.788740	-0.652796	0.000025
C125	C	0.168591	0.019116	0.000121
H126	H	0.210396	-0.004995	0.000136
H127	H	0.139665	0.014239	-0.048180
H128	H	0.134750	0.017053	0.048430
H129	H	0.719799	-0.509401	0.000019
C130	C	1.077897	-0.041119	0.000126
H131	H	1.068248	-0.007054	0.000138
H132	H	1.109505	-0.051948	-0.048172
H133	H	1.104573	-0.049152	0.048438
C134	C	1.076170	-0.147059	0.000106
H135	H	1.118967	-0.126487	0.000123
H136	H	1.081282	-0.168259	-0.048196
H137	H	1.076347	-0.165457	0.048414
C138	C	1.145358	-0.276032	0.000089
H139	H	1.187425	-0.299969	0.000082
H140	H	1.146195	-0.255066	0.048388
H141	H	1.151104	-0.257871	-0.048221
H142	H	1.123376	-0.373948	0.000083
C143	C	1.045536	0.033567	0.788645
H144	H	1.079374	0.014196	0.750197
H145	H	1.015942	0.013281	0.822669
H146	H	1.076132	0.053287	0.822644
C147	C	1.067804	-0.656640	0.000066
H148	H	1.109874	-0.680576	0.000066
H149	H	1.068633	-0.635674	0.048366
H150	H	1.073555	-0.638480	-0.048244
H151	H	0.836608	0.153170	0.776170
H152	H	0.721303	-0.417884	0.000023
C153	C	1.066058	-0.762590	0.000046
H154	H	1.055293	-0.795845	0.000034
H155	H	1.093026	-0.754089	0.048344
H156	H	1.097926	-0.756884	-0.048266
H157	H	1.038904	0.037356	0.618016
H158	H	0.722274	-0.358042	0.000011
C159	C	0.766763	-0.750716	0.000026
H160	H	0.724694	-0.726780	0.000014
H161	H	0.761007	-0.768880	0.048325
H162	H	0.765940	-0.771678	-0.048285
C163	C	0.703541	-0.258506	0.000016
H164	H	0.660739	-0.279075	0.000013
H165	H	0.703363	-0.240105	-0.048283
H166	H	0.698435	-0.237309	0.048327
H167	H	1.008056	0.054990	0.223984
C168	C	0.776863	-0.135207	0.000064
H169	H	0.734791	-0.111274	0.000056
H170	H	0.771108	-0.153377	0.048356
H171	H	0.776047	-0.156165	-0.048254
C172	C	0.778606	-0.029255	0.000077
H173	H	0.789372	0.004000	0.000074
H174	H	0.746719	-0.034959	0.048371
H175	H	0.751660	-0.037761	-0.048239
C176	C	1.142874	-0.427382	0.000074
H177	H	1.184942	-0.451319	0.000069
H178	H	1.143706	-0.406417	0.048375
H179	H	1.148625	-0.409220	-0.048235
H180	H	0.423454	0.161044	0.000068
