data_functionalizedCrystal
_audit_creation_method	'MofGen! by Chris Wilmer'
_symmetry_space_group_name_H-M	'P1'
_symmetry_Int_Tables_number	1
_symmetry_cell_setting	triclinic
loop_
_symmetry_equiv_pos_as_xyz
  x,y,z
_cell_length_a	12.759401
_cell_length_b	12.759400
_cell_length_c	12.759393
_cell_angle_alpha	89.974659
_cell_angle_beta	90.021439
_cell_angle_gamma	89.996132
loop_
_atom_site_label
_atom_site_type_symbol
_atom_site_fract_x
_atom_site_fract_y
_atom_site_fract_z
Zn1	Zn	-1.606340	-0.418181	-0.594109
Zn2	Zn	-1.606271	-0.593900	-0.418449
Zn3	Zn	-1.430642	-0.418238	-0.418440
Zn4	Zn	-1.430667	-0.593821	-0.594081
O5	O	-1.518480	-0.506035	-0.506270
O6	O	-1.753352	-0.441500	-0.570823
O7	O	-1.582934	-0.570655	-0.271426
O8	O	-1.453968	-0.271210	-0.441751
O9	O	-1.753301	-0.570600	-0.441766
O10	O	-1.583053	-0.271168	-0.570815
O11	O	-1.453900	-0.441597	-0.271420
O12	O	-1.283625	-0.441521	-0.441723
O13	O	-1.454010	-0.570465	-0.741106
O14	O	-1.283643	-0.570521	-0.570766
O15	O	-1.583076	-0.441423	-0.741127
O16	O	-1.582957	-0.740911	-0.441738
O17	O	-1.453942	-0.740853	-0.570775
C18	C	-1.245513	-0.506019	-0.506241
C19	C	-1.128736	-0.506037	-0.506254
C20	C	-1.073911	-0.573309	-0.573340
C21	C	-0.964187	-0.573312	-0.573357
C22	C	-0.964123	-0.438768	-0.439195
C23	C	-1.073845	-0.438761	-0.439184
C24	C	-0.814296	-0.611006	-0.697218
C25	C	-0.759468	-0.678294	-0.764294
C26	C	-0.795086	-0.780825	-0.780254
C27	C	-0.885531	-0.816089	-0.729123
C28	C	-0.940354	-0.748806	-0.662039
C29	C	-0.904738	-0.646261	-0.646099
C30	C	-1.223737	-0.401077	-0.315322
C31	C	-1.278563	-0.333799	-0.248232
C32	C	-1.242946	-0.231266	-0.232261
C33	C	-1.152498	-0.196006	-0.283374
C34	C	-1.097672	-0.263285	-0.350464
C35	C	-1.133296	-0.365816	-0.366436
C36	C	-1.518473	-0.779003	-0.506277
C37	C	-1.518566	-0.895779	-0.506316
C38	C	-1.518554	-0.505929	-0.780303
C39	C	-1.518585	-0.505884	-0.897080
C40	C	-0.792513	-0.506049	-0.506292
C41	C	-0.909290	-0.506047	-0.506284
C42	C	-1.518516	-0.232002	-0.506285
C43	C	-1.518531	-0.115225	-0.506291
C44	C	-1.451336	-0.060383	-0.439098
C45	C	-1.451351	0.049341	-0.439113
C46	C	-1.585764	0.049371	-0.573516
C47	C	-1.585743	-0.060351	-0.573506
C48	C	-1.373737	-0.060400	-0.361498
C49	C	-1.373752	0.049324	-0.361513
C50	C	-1.585799	-0.438685	-0.951954
C51	C	-1.585824	-0.438647	-1.061679
C52	C	-1.451418	-0.573016	-1.061644
C53	C	-1.451388	-0.573048	-0.951922
C54	C	-1.663401	-0.361112	-0.951975
C55	C	-1.663426	-0.361074	-1.061699
C56	C	-1.518467	-0.506065	-0.233302
C57	C	-1.518639	-0.505814	-0.116526
H58	H	-0.750437	-0.835612	-0.834870
H59	H	-1.396652	-0.627763	-0.907247
C60	C	-0.998179	-0.224492	-0.406696
N61	N	-0.923243	-0.195273	-0.449051
C62	C	-1.773354	-0.390524	-1.101942
N63	N	-1.856148	-0.412708	-1.132253
H64	H	-1.634297	-0.283765	-1.095737
C65	C	-1.659661	-0.120673	-0.647424
N66	N	-1.715342	-0.166107	-0.703099
C67	C	-1.659699	0.109744	-0.647443
N68	N	-1.715390	0.155215	-0.703124
C69	C	-1.263813	-0.100607	-0.390925
N70	N	-1.181021	-0.130891	-0.413091
C71	C	-0.775114	-0.498212	-0.679678
N72	N	-0.745596	-0.413254	-0.666465
H73	H	-1.402860	-0.094463	-0.284206
H74	H	-0.919417	-0.383995	-0.384587
H75	H	-1.287590	-0.176493	-0.177621
C76	C	-1.403193	0.089517	-0.251600
N77	N	-1.425374	0.119791	-0.168819
H78	H	-1.396706	-0.627696	-1.106309
H79	H	-0.685827	-0.649573	-0.805926
C80	C	-1.269459	0.095328	-0.401172
N81	N	-1.190948	0.129980	-0.431154
C82	C	-1.633962	-0.251198	-0.911758
N83	N	-1.611786	-0.168413	-0.881466
C84	C	-1.767810	-0.400487	-0.905999
N85	N	-1.846453	-0.430137	-0.871369
C86	C	-1.113317	-0.083214	-0.265808
N87	N	-1.083808	0.001743	-0.252573
C88	C	-1.134288	-0.647307	-0.647127
N89	N	-1.179760	-0.703042	-0.702709
C90	C	-1.378069	-0.372585	-0.192019
N91	N	-1.453022	-0.401794	-0.149688
H92	H	-0.914518	-0.899585	-0.742114
C93	C	-1.039842	-0.787589	-0.605800
N94	N	-1.114782	-0.816801	-0.563447
H95	H	-1.252752	-0.484565	-0.328329
