data_functionalizedCrystal
_audit_creation_method	'MofGen! by Chris Wilmer'
_symmetry_space_group_name_H-M	'P1'
_symmetry_Int_Tables_number	1
_symmetry_cell_setting	triclinic
loop_
_symmetry_equiv_pos_as_xyz
  x,y,z
_cell_length_a	14.971486
_cell_length_b	14.971486
_cell_length_c	14.048226
_cell_angle_alpha	89.993360
_cell_angle_beta	89.998499
_cell_angle_gamma	83.614129
loop_
_atom_site_label
_atom_site_type_symbol
_atom_site_fract_x
_atom_site_fract_y
_atom_site_fract_z
O1	O	1.186947	0.116565	-0.079052
O2	O	0.926547	0.130523	-0.079078
O3	O	1.063726	-0.006656	-0.079057
O4	O	1.049768	0.253744	-0.079072
O5	O	1.063710	-0.006664	0.079264
O6	O	0.926530	0.130515	0.079244
O7	O	1.186930	0.116556	0.079270
Zn8	Zn	1.056728	0.123535	0.104394
Zn9	Zn	1.056750	0.123545	-0.104202
O10	O	1.049751	0.253736	0.079249
C11	C	0.893214	0.129895	0.000080
C12	C	0.793917	0.128024	0.000070
C13	C	0.736692	0.208614	0.000067
C14	C	0.643392	0.206850	0.000081
C15	C	0.607320	0.124497	0.000092
C16	C	0.664552	0.043902	0.000098
C17	C	0.757850	0.045666	0.000090
C18	C	0.470090	0.040231	0.000111
C19	C	0.376786	0.038466	0.000117
C20	C	0.355632	0.201415	0.000102
C21	C	0.448930	0.203179	0.000094
C22	C	0.506156	0.122584	0.000099
C23	C	1.063094	-0.039985	0.000103
C24	C	1.061223	-0.139282	0.000102
C25	C	1.141812	-0.196507	0.000111
C26	C	1.140049	-0.289807	0.000101
C27	C	1.057696	-0.325879	0.000089
C28	C	0.977101	-0.268646	0.000078
C29	C	0.978865	-0.175349	0.000081
C30	C	0.973430	-0.463109	0.000074
C31	C	0.971665	-0.556413	0.000073
C32	C	1.134614	-0.577567	0.000094
C33	C	1.136378	-0.484269	0.000097
C34	C	1.055782	-0.427043	0.000088
C35	C	1.220263	0.117185	0.000110
C36	C	1.319561	0.119056	0.000114
C37	C	1.050384	0.287065	0.000087
C38	C	1.052254	0.386362	0.000082
N39	N	1.056719	0.123527	0.246754
N40	N	1.056765	0.123546	-0.246562
C41	C	1.117482	0.062809	0.296581
C42	C	1.117488	0.062808	0.396239
C43	C	1.056735	0.123531	0.446068
C44	C	0.995966	0.184252	0.396234
C45	C	0.995957	0.184247	0.296578
C46	C	0.995992	0.184258	0.603948
C47	C	0.996003	0.184264	0.703611
C48	C	1.117523	0.062819	0.703609
C49	C	1.117514	0.062815	0.603953
C50	C	1.056746	0.123537	0.554126
H51	H	0.309033	0.267039	0.000103
H52	H	1.166987	0.013375	0.563383
C53	C	1.225880	-0.445276	0.000066
C54	C	1.296085	-0.515358	0.000048
C55	C	1.378547	-0.479472	0.000005
H56	H	1.230073	-0.409339	0.055263
H57	H	1.230008	-0.409338	-0.055165
H58	H	1.291960	-0.551281	0.055273
H59	H	1.291923	-0.551300	-0.055145
H60	H	1.382675	-0.443534	-0.055226
H61	H	1.382730	-0.443536	0.055202
H62	H	1.426191	-0.527017	-0.000016
H63	H	0.635175	-0.023152	0.000120
C64	C	0.819835	-0.041929	0.000040
C65	C	0.768278	-0.114429	0.000024
C66	C	0.825347	-0.195137	-0.000033
H67	H	0.856693	-0.044759	0.055232
H68	H	0.856655	-0.044673	-0.055195
H69	H	0.731475	-0.111686	0.055253
H70	H	0.731422	-0.111629	-0.055165
H71	H	0.862167	-0.197882	-0.055268
H72	H	0.862202	-0.197958	0.055161
H73	H	0.790374	-0.244338	-0.000053
C74	C	1.231318	-0.157521	0.000072
C75	C	1.301516	-0.227611	0.000049
C76	C	1.383983	-0.191734	-0.000005
H77	H	1.235520	-0.121584	0.055267
H78	H	1.235445	-0.121585	-0.055160
H79	H	1.297392	-0.263531	0.055275
H80	H	1.297344	-0.263553	-0.055142
H81	H	1.388110	-0.155799	-0.055237
H82	H	1.388176	-0.155798	0.055191
H83	H	1.431622	-0.239284	-0.000029
H84	H	1.205673	-0.336396	0.000110
C85	C	0.882163	-0.595406	-0.000006
C86	C	0.811958	-0.525324	-0.000052
C87	C	0.729496	-0.561210	-0.000142
H88	H	0.877945	-0.631357	0.055185
H89	H	0.878062	-0.631330	-0.055242
H90	H	0.816057	-0.489416	0.055179
H91	H	0.816147	-0.489368	-0.055239
H92	H	0.725395	-0.597134	-0.055378
H93	H	0.725287	-0.597160	0.055050
H94	H	0.681852	-0.513665	-0.000182
C95	C	0.488138	0.292569	-0.000131
C96	C	0.541052	0.298343	-0.081609
C97	C	0.577172	0.380682	-0.081860
H98	H	0.524162	0.296743	0.055006
H99	H	0.440715	0.340337	-0.000188
H100	H	0.588469	0.250587	-0.081544
H101	H	0.505048	0.294185	-0.136759
H102	H	0.529748	0.428451	-0.081916
H103	H	0.613192	0.384849	-0.026720
H104	H	0.613071	0.384614	-0.137145
H105	H	1.166957	0.013365	0.256017
C106	C	0.532074	-0.047370	0.000061
C107	C	0.480517	-0.119870	0.000040
C108	C	0.537586	-0.200578	-0.000027
H109	H	0.568936	-0.050205	0.055250
H110	H	0.568890	-0.050109	-0.055177
H111	H	0.443717	-0.117132	0.055273
H112	H	0.443658	-0.117065	-0.055145
H113	H	0.574402	-0.203318	-0.055264
H114	H	0.574445	-0.203404	0.055164
H115	H	0.502613	-0.249779	-0.000049
H116	H	0.347419	-0.028593	0.000127
H117	H	1.167002	0.013377	0.744184
H118	H	1.200238	-0.624165	0.000099
H119	H	0.766054	0.275675	0.000057
H120	H	0.596802	0.272474	0.000077
C121	C	1.183571	-0.003143	0.450165
C122	C	1.236797	-0.056297	0.385198
C123	C	1.297697	-0.117052	0.434838
H124	H	1.151481	-0.040523	0.489060
H125	H	1.220882	0.029086	0.489005
H126	H	1.199491	-0.088524	0.346374
H127	H	1.268908	-0.018942	0.346301
H128	H	1.335008	-0.084823	0.473679
H129	H	1.265599	-0.154426	0.473731
H130	H	1.333823	-0.153119	0.390766
C131	C	0.929929	0.250215	0.757541
C132	C	0.876682	0.303367	0.692578
C133	C	0.815792	0.364118	0.742223
H134	H	0.962027	0.287597	0.796414
H135	H	0.892630	0.217983	0.796403
H136	H	0.913976	0.335596	0.653732
H137	H	0.844565	0.266009	0.653703
H138	H	0.778494	0.331886	0.781085
H139	H	0.847898	0.401494	0.781094
H140	H	0.779652	0.400183	0.698153
H141	H	0.946506	0.233702	0.563382
C142	C	0.929900	0.250216	0.450158
C143	C	0.876667	0.303371	0.385188
C144	C	0.815788	0.364140	0.434825
H145	H	0.962007	0.287594	0.489027
H146	H	0.892593	0.217997	0.489024
H147	H	0.913969	0.335587	0.346339
H148	H	0.844540	0.266018	0.346317
H149	H	0.778480	0.331922	0.473691
H150	H	0.847902	0.401512	0.473693
H151	H	0.779656	0.400208	0.390751
H152	H	0.907800	-0.416517	0.000064
H153	H	0.946477	0.233689	0.256010
H154	H	0.913240	-0.128756	0.000074
H155	H	0.910047	-0.298024	0.000062
