data_functionalizedCrystal
_audit_creation_method	'MofGen! by Chris Wilmer'
_symmetry_space_group_name_H-M	'P1'
_symmetry_Int_Tables_number	1
_symmetry_cell_setting	triclinic
loop_
_symmetry_equiv_pos_as_xyz
  x,y,z
_cell_length_a	17.038272
_cell_length_b	14.853559
_cell_length_c	13.930277
_cell_angle_alpha	89.997639
_cell_angle_beta	89.998451
_cell_angle_gamma	87.371505
loop_
_atom_site_label
_atom_site_type_symbol
_atom_site_fract_x
_atom_site_fract_y
_atom_site_fract_z
O1	O	1.037622	0.195789	-0.079703
O2	O	1.537622	0.695789	0.420297
O3	O	0.809987	0.192680	-0.079731
O4	O	1.309987	0.692680	0.420269
O5	O	0.929888	0.063462	-0.079716
O6	O	1.429888	0.563462	0.420284
O7	O	0.917721	0.325007	-0.079719
O8	O	1.417721	0.825007	0.420281
O9	O	0.929872	0.063458	0.079946
O10	O	1.429872	0.563458	0.579946
O11	O	0.809971	0.192676	0.079930
O12	O	1.309971	0.692676	0.579930
O13	O	1.037605	0.195784	0.079959
O14	O	1.537605	0.695784	0.579959
Zn15	Zn	0.923785	0.194229	0.105294
Zn16	Zn	1.423785	0.694229	0.605294
Zn17	Zn	0.923807	0.194235	-0.105067
Zn18	Zn	1.423807	0.694235	0.394933
O19	O	0.917704	0.325002	0.079943
O20	O	1.417704	0.825002	0.579943
C21	C	0.929330	0.029829	0.000114
C22	C	1.429330	0.529829	0.500114
C23	C	0.927681	-0.070379	0.000108
C24	C	1.427681	0.429621	0.500108
C25	C	0.780847	0.189850	0.000096
C26	C	1.280847	0.689850	0.500096
C27	C	0.694043	0.181414	0.000085
C28	C	1.194043	0.681414	0.500085
C29	C	0.920697	-0.494078	-0.086925
C30	C	1.420697	0.005922	0.413075
C31	C	0.920678	-0.494077	0.087145
C32	C	1.420678	0.005923	0.587145
C33	C	0.922234	-0.399927	0.087146
C34	C	1.422234	0.100073	0.587146
C35	C	0.923020	-0.352847	0.000110
C36	C	1.423020	0.147153	0.500110
C37	C	0.922250	-0.399919	-0.086926
C38	C	1.422250	0.100081	0.413074
C39	C	0.922996	-0.352848	0.174181
C40	C	1.422996	0.147152	0.674181
C41	C	0.924550	-0.258692	0.174185
C42	C	1.424550	0.241308	0.674185
C43	C	0.925342	-0.211611	0.087149
C44	C	1.425342	0.288389	0.587149
C45	C	0.924573	-0.258688	0.000109
C46	C	1.424573	0.241312	0.500109
C47	C	0.925359	-0.211609	-0.086927
C48	C	1.425359	0.288391	0.413073
C49	C	0.924595	-0.258685	-0.173968
C50	C	1.424595	0.241315	0.326032
C51	C	0.923041	-0.352838	-0.173963
C52	C	1.423041	0.147162	0.326037
C53	C	0.926896	-0.117458	0.087144
C54	C	1.426896	0.382542	0.587144
C55	C	0.926912	-0.117450	-0.086929
C56	C	1.426912	0.382550	0.413071
C57	C	0.644029	0.258867	0.000085
C58	C	1.144029	0.758867	0.500085
C59	C	0.562468	0.250935	0.000098
C60	C	1.062468	0.750935	0.500098
C61	C	0.530923	0.165549	0.000105
C62	C	1.030923	0.665549	0.500105
C63	C	0.580944	0.088090	0.000108
C64	C	1.080944	0.588090	0.500108
C65	C	0.662503	0.096023	0.000101
C66	C	1.162503	0.596023	0.500101
C67	C	0.285129	0.137524	0.000131
C68	C	0.785129	0.637524	0.500131
C69	C	0.203564	0.129597	0.000134
C70	C	0.703564	0.629597	0.500134
C71	C	0.185093	0.292443	0.000126
C72	C	0.685093	0.792443	0.500126
C73	C	0.266655	0.300368	0.000114
C74	C	0.766655	0.800368	0.500114
C75	C	0.316668	0.222909	0.000122
C76	C	0.816668	0.722909	0.500122
C77	C	0.447555	0.157439	0.000115
C78	C	0.947555	0.657439	0.500115
C79	C	0.400035	0.231020	0.000118
C80	C	0.900035	0.731020	0.500118
C81	C	1.066745	0.198614	0.000129
C82	C	1.566745	0.698614	0.500129
C83	C	1.153549	0.207050	0.000134
C84	C	1.653549	0.707050	0.500134
C85	C	0.918262	0.358635	0.000112
C86	C	1.418262	0.858635	0.500112
C87	C	0.919911	0.458843	0.000111
C88	C	1.419911	0.958843	0.500111
N89	N	0.923776	0.194225	0.248860
N90	N	1.423776	0.694225	0.748860
N91	N	0.923823	0.194232	-0.248633
N92	N	1.423823	0.694232	0.251367
C93	C	0.870713	0.251428	0.701123
C94	C	1.370713	0.751428	1.201123
C95	C	0.976923	0.137036	0.701106
C96	C	1.476923	0.637036	1.201106
C97	C	0.976914	0.137032	0.600610
C98	C	1.476914	0.637032	1.100610
C99	C	0.923804	0.194229	0.550366
C100	C	1.423804	0.694229	1.050366
C101	C	0.870703	0.251429	0.600618
C102	C	1.370703	0.751429	1.100618
C103	C	1.030019	0.079840	0.550351
C104	C	1.530019	0.579840	1.050351
C105	C	1.030012	0.079835	0.449850
C106	C	1.530012	0.579835	0.949850
C107	C	0.976898	0.137027	0.399603
C108	C	1.476898	0.637027	0.899603
C109	C	0.923795	0.194229	0.449861
C110	C	1.423795	0.694229	0.949861
C111	C	0.870685	0.251425	0.399617
C112	C	1.370685	0.751425	0.899617
C113	C	0.817577	0.308623	0.449873
C114	C	1.317577	0.808623	0.949873
C115	C	0.817589	0.308621	0.550372
C116	C	1.317589	0.808621	1.050372
C117	C	0.976886	0.137029	0.299105
C118	C	1.476886	0.637029	0.799105
C119	C	0.870675	0.251425	0.299112
C120	C	1.370675	0.751425	0.799112
H121	H	0.925229	-0.220340	-0.244832
H122	H	1.425229	0.279660	0.255168
H123	H	0.922419	-0.391175	-0.244827
H124	H	1.422419	0.108825	0.255173
C125	C	0.919854	-0.545855	-0.182663
C126	C	1.419854	-0.045855	0.317337
H127	H	0.918812	-0.608672	-0.170201
H128	H	1.418812	-0.108672	0.329799
H129	H	0.965671	-0.533802	-0.218420
H130	H	1.465671	-0.033802	0.281580
H131	H	0.874543	-0.527040	-0.218425
H132	H	1.374543	-0.027040	0.281575
H133	H	0.177884	0.060062	0.000139
H134	H	0.677884	0.560062	0.500139
C135	C	0.922138	-0.404635	0.269910
C136	C	1.422138	0.095365	0.769910
H137	H	0.921116	-0.467452	0.257443
H138	H	1.421116	0.032548	0.757443
H139	H	0.876829	-0.385832	0.305672
H140	H	1.376829	0.114168	0.805672
H141	H	0.967958	-0.392584	0.305671
H142	H	1.467958	0.107416	0.805671
H143	H	0.521749	0.314006	0.000097
H144	H	1.021749	0.814006	0.500097
C145	C	0.130081	0.377643	0.000122
C146	C	0.630081	0.877643	0.500122
H147	H	0.160549	0.429630	0.000110
H148	H	0.660549	0.929630	0.500110
H149	H	0.097880	0.377936	0.055800
H150	H	0.597880	0.877936	0.555800
H151	H	0.097882	0.377933	-0.055562
H152	H	0.597882	0.877933	0.444438
C153	C	0.340134	0.052322	0.000133
C154	C	0.840134	0.552322	0.500133
H155	H	0.309663	0.000336	0.000128
H156	H	0.809663	0.500336	0.500128
H157	H	0.372335	0.052028	0.055809
H158	H	0.872335	0.552028	0.555809
H159	H	0.372333	0.052030	-0.055553
H160	H	0.872333	0.552030	0.444447
C161	C	0.546247	-0.005833	0.000114
C162	C	1.046247	0.494167	0.500114
H163	H	0.490510	0.000534	0.000107
H164	H	0.990510	0.500534	0.500107
H165	H	0.563409	-0.037990	0.055790
H166	H	1.063409	0.462010	0.555790
H167	H	0.563409	-0.037983	-0.055572
H168	H	1.063409	0.462017	0.444428
H169	H	0.920034	-0.532414	0.158005
H170	H	1.420034	-0.032414	0.658005
C171	C	0.925400	-0.206918	0.269924
C172	C	1.425400	0.293082	0.769924
H173	H	0.924716	-0.248443	0.321758
H174	H	1.424716	0.251557	0.821758
H175	H	0.880449	-0.166799	0.273542
H176	H	1.380449	0.333201	0.773542
H177	H	0.971577	-0.173579	0.273543
H178	H	1.471577	0.326421	0.773543
C179	C	0.717519	0.010824	0.000092
C180	C	1.217519	0.510824	0.500092
H181	H	0.687053	-0.041165	0.000087
H182	H	1.187053	0.458835	0.500087
H183	H	0.749723	0.010530	0.055765
H184	H	1.249723	0.510530	0.555765
H185	H	0.749715	0.010538	-0.055597
H186	H	1.249715	0.510538	0.444403
H187	H	0.827424	0.297998	0.258209
H188	H	1.327424	0.797998	0.758209
C189	C	0.927733	-0.065679	0.182876
C190	C	1.427733	0.434321	0.682876
H191	H	0.927044	-0.107202	0.234710
H192	H	1.427044	0.392798	0.734710
H193	H	0.882779	-0.025563	0.186483
H194	H	1.382779	0.474437	0.686483
H195	H	0.973907	-0.032336	0.186503
H196	H	1.473907	0.467664	0.686503
C197	C	0.434728	0.324941	0.000108
C198	C	0.934728	0.824941	0.500108
H199	H	0.393262	0.369939	0.000112
H200	H	0.893262	0.869939	0.500112
H201	H	0.466161	0.331412	-0.055571
H202	H	0.966161	0.831412	0.444429
H203	H	0.466160	0.331419	0.055791
H204	H	0.966160	0.831419	0.555791
C205	C	0.759161	0.371536	0.394598
C206	C	1.259161	0.871536	0.894598
H207	H	0.766764	0.363339	0.327548
H208	H	1.266764	0.863339	0.827548
H209	H	0.767710	0.432368	0.411064
H210	H	1.267710	0.932368	0.911064
H211	H	0.706966	0.357699	0.411068
H212	H	1.206966	0.857699	0.911068
C213	C	0.759185	0.371539	0.605654
C214	C	1.259185	0.871539	1.105654
H215	H	0.766805	0.363354	0.672703
H216	H	1.266805	0.863354	1.172703
H217	H	0.706989	0.357715	0.589200
H218	H	1.206989	0.857715	1.089200
H219	H	0.767744	0.432372	0.589176
H220	H	1.267744	0.932372	1.089176
C221	C	0.678721	0.352793	0.000077
C222	C	1.178721	0.852793	0.500077
H223	H	0.637250	0.397784	0.000087
H224	H	1.137250	0.897784	0.500087
H225	H	0.710151	0.359276	-0.055603
H226	H	1.210151	0.859276	0.444397
H227	H	0.710153	0.359271	0.055759
H228	H	1.210153	0.859271	0.555759
H229	H	1.020167	0.090473	0.742018
H230	H	1.520167	0.590473	1.242018
C231	C	0.301348	0.394293	0.000120
C232	C	0.801348	0.894293	0.500120
H233	H	0.259879	0.439287	0.000133
H234	H	0.759879	0.939287	0.500133
H235	H	0.332782	0.400778	-0.055557
H236	H	0.832782	0.900778	0.444443
H237	H	0.332779	0.400764	0.055806
H238	H	0.832779	0.900764	0.555806
C239	C	0.812301	0.314344	0.756398
C240	C	1.312301	0.814344	1.256398
H241	H	0.819913	0.306158	0.823448
H242	H	1.319913	0.806158	1.323448
H243	H	0.760108	0.300517	0.739933
H244	H	1.260108	0.800517	1.239933
H245	H	0.820859	0.375178	0.739923
H246	H	1.320859	0.875178	1.239923
H247	H	0.421863	0.087917	0.000148
H248	H	0.921863	0.587917	0.500148
C249	C	1.088435	0.016932	0.605619
C250	C	1.588435	0.516932	1.105619
H251	H	1.080827	0.025118	0.672670
H252	H	1.580827	0.525118	1.172670
H253	H	1.140626	0.030762	0.589145
H254	H	1.640626	0.530762	1.089145
H255	H	1.079879	-0.043903	0.589152
H256	H	1.579879	0.456097	1.089152
H257	H	1.073254	0.033261	0.408937
H258	H	1.573254	0.533261	0.908937
C259	C	1.035296	0.074120	0.243827
C260	C	1.535296	0.574120	0.743827
H261	H	1.066926	0.040055	0.288145
H262	H	1.566926	0.540055	0.788145
H263	H	1.067869	0.109073	0.204611
H264	H	1.567869	0.609073	0.704611
H265	H	1.007124	0.034404	0.204634
H266	H	1.507124	0.534404	0.704634
H267	H	0.927555	-0.079125	-0.157805
H268	H	1.427555	0.420875	0.342195
