data_functionalizedCrystal
_audit_creation_method	'MofGen! by Chris Wilmer'
_symmetry_space_group_name_H-M	'P1'
_symmetry_Int_Tables_number	1
_symmetry_cell_setting	triclinic
loop_
_symmetry_equiv_pos_as_xyz
  x,y,z
_cell_length_a	11.792241
_cell_length_b	14.519709
_cell_length_c	10.868271
_cell_angle_alpha	89.993918
_cell_angle_beta	89.999893
_cell_angle_gamma	83.936780
loop_
_atom_site_label
_atom_site_type_symbol
_atom_site_fract_x
_atom_site_fract_y
_atom_site_fract_z
O1	O	1.506208	0.126404	-0.102206
O2	O	2.006208	0.626404	0.397794
O3	O	1.175794	0.139432	-0.102235
O4	O	1.675794	0.639432	0.397765
O5	O	1.349761	-0.001288	-0.102208
O6	O	1.849761	0.498712	0.397792
O7	O	1.332241	0.267124	-0.102232
O8	O	1.832241	0.767124	0.397768
O9	O	1.349747	-0.001294	0.102436
O10	O	1.849747	0.498706	0.602436
O11	O	1.175780	0.139426	0.102410
O12	O	1.675780	0.639426	0.602410
O13	O	1.506193	0.126399	0.102439
O14	O	2.006193	0.626399	0.602439
Zn15	Zn	1.340984	0.132912	0.134916
Zn16	Zn	1.840984	0.632912	0.634916
Zn17	Zn	1.341003	0.132919	-0.134712
Zn18	Zn	1.841003	0.632919	0.365288
O19	O	1.332226	0.267119	0.102413
O20	O	1.832226	0.767119	0.602413
C21	C	1.133501	0.138611	0.000084
C22	C	1.633501	0.638611	0.500084
C23	C	1.007501	0.136161	0.000073
C24	C	1.507501	0.636161	0.500073
C25	C	0.776813	0.131657	0.000109
C26	C	1.276813	0.631657	0.500109
C27	C	0.905185	0.134160	0.000090
C28	C	1.405185	0.634160	0.500090
C29	C	1.348938	-0.035654	0.000114
C30	C	1.848938	0.464346	0.500114
C31	C	1.346491	-0.138044	0.000115
C32	C	1.846491	0.361956	0.500115
C33	C	1.337483	-0.512973	0.000082
C34	C	1.837483	-0.012973	0.500082
C35	C	1.339984	-0.408656	0.000091
C36	C	1.839984	0.091344	0.500091
C37	C	1.341987	-0.325512	0.000099
C38	C	1.841987	0.174488	0.500099
C39	C	1.344489	-0.221188	0.000107
C40	C	1.844489	0.278812	0.500107
C41	C	1.548487	0.127220	0.000118
C42	C	2.048487	0.627220	0.500118
C43	C	1.674487	0.129669	0.000120
C44	C	2.174487	0.629669	0.500120
C45	C	1.333050	0.301484	0.000087
C46	C	1.833050	0.801484	0.500087
C47	C	1.335497	0.403875	0.000079
C48	C	1.835497	0.903875	0.500079
N49	N	1.340980	0.132906	0.318930
N50	N	1.840980	0.632906	0.818930
N51	N	1.341017	0.132917	-0.318726
N52	N	1.841017	0.632917	0.181274
C53	C	1.340997	0.132917	0.569936
C54	C	1.840997	0.632917	1.069936
C55	C	1.340984	0.132914	0.430259
C56	C	1.840984	0.632914	0.930259
