data_functionalizedCrystal
_audit_creation_method	'MofGen! by Chris Wilmer'
_symmetry_space_group_name_H-M	'P1'
_symmetry_Int_Tables_number	1
_symmetry_cell_setting	triclinic
loop_
_symmetry_equiv_pos_as_xyz
  x,y,z
_cell_length_a	12.759401
_cell_length_b	15.297327
_cell_length_c	12.759393
_cell_angle_alpha	80.357027
_cell_angle_beta	90.020938
_cell_angle_gamma	99.708126
loop_
_atom_site_label
_atom_site_type_symbol
_atom_site_fract_x
_atom_site_fract_y
_atom_site_fract_z
Zn1	Zn	1.533815	-0.359082	0.666329
Zn2	Zn	1.503263	-0.509967	0.521034
Zn3	Zn	1.358104	-0.359130	0.490674
Zn4	Zn	1.327675	-0.509904	0.696658
O5	O	1.430714	-0.434521	0.593674
O6	O	1.676782	-0.379103	0.647069
O7	O	1.483956	-0.490005	0.369995
O8	O	1.406934	-0.232878	0.488577
O9	O	1.654335	-0.489958	0.540320
O10	O	1.536028	-0.232842	0.617630
O11	O	1.377308	-0.379185	0.347690
O12	O	1.207048	-0.379124	0.517986
O13	O	1.355072	-0.489851	0.839647
O14	O	1.184692	-0.489898	0.669321
O15	O	1.506522	-0.379042	0.817364
O16	O	1.454449	-0.636205	0.569729
O17	O	1.325446	-0.636159	0.698760
C18	C	1.157749	-0.434510	0.593651
C19	C	1.040969	-0.434527	0.593670
C20	C	0.974476	-0.492294	0.672383
C21	C	0.864751	-0.492298	0.672404
C22	C	0.888023	-0.376764	0.514991
C23	C	0.997747	-0.376756	0.514975
C24	C	0.708324	-0.524669	0.802783
C25	C	0.641824	-0.582451	0.881489
C26	C	0.659658	-0.670493	0.915167
C27	C	0.743986	-0.700772	0.870126
C28	C	0.810479	-0.642995	0.791413
C29	C	0.792649	-0.554940	0.757754
C30	C	1.154174	-0.344394	0.384596
C31	C	1.220668	-0.286621	0.305878
C32	C	1.202837	-0.198577	0.272190
C33	C	1.118505	-0.168302	0.317213
C34	C	1.052011	-0.226075	0.395931
C35	C	1.069850	-0.314118	0.429621
C36	C	1.383359	-0.668916	0.640853
C37	C	1.363196	-0.769191	0.661071
C38	C	1.575254	-1.051821	0.449528
C39	C	1.594198	-0.957608	0.430526
C40	C	1.536449	-0.910499	0.488161
C41	C	1.459753	-0.957613	0.564800
C42	C	1.440802	-1.051836	0.583798
C43	C	1.401997	-0.910513	0.622431
C44	C	1.325301	-0.957627	0.699071
C45	C	1.306354	-1.051841	0.718065
C46	C	1.364103	-1.098950	0.660430
C47	C	1.420948	-0.816291	0.603434
C48	C	1.286496	-0.816305	0.737704
C49	C	1.267553	-0.910519	0.756705
C50	C	1.704745	-0.434533	0.593698
C51	C	1.821521	-0.434538	0.593708
C52	C	1.430810	-0.434434	0.867690
C53	C	1.430851	-0.434397	0.984459
C54	C	1.478284	-0.199211	0.546334
C55	C	1.498555	-0.098935	0.526160
C56	C	1.430692	-0.434542	0.320711
C57	C	1.430906	-0.434325	0.203891
C58	C	1.509719	-0.376690	1.027719
C59	C	1.509744	-0.376651	1.137435
C60	C	1.352031	-0.492035	1.160625
C61	C	1.352002	-0.492068	1.050909
C62	C	1.568832	-0.270211	1.265979
C63	C	1.647714	-0.212511	1.309243
C64	C	1.753018	-0.198677	1.270866
C65	C	1.779459	-0.242556	1.189229
C66	C	1.700581	-0.300262	1.145971
C67	C	1.595266	-0.314079	1.184343
C68	C	1.292924	-0.598510	0.922364
C69	C	1.214050	-0.656221	0.879105
C70	C	1.108742	-0.670065	0.917482
C71	C	1.082303	-0.626202	0.999126
C72	C	1.161177	-0.568491	1.042385
C73	C	1.266484	-0.554646	1.004000
H74	H	0.983350	-0.201414	0.432596
O75	O	1.135393	-0.526019	1.121784
C76	C	1.092421	-0.590581	1.209982
H77	H	1.059331	-0.656619	1.182266
H78	H	1.157394	-0.601913	1.269595
C79	C	1.043054	-0.475481	1.297279
C80	C	1.002404	-0.556588	1.263236
H81	H	0.987530	-0.454512	1.330133
H82	H	1.072008	-0.431984	1.237861
H83	H	1.097198	-0.484936	1.346951
H84	H	0.948271	-0.547130	1.213556
H85	H	0.973438	-0.600083	1.322648
H86	H	1.205106	-0.948892	0.819105
H87	H	1.622258	-1.090186	0.402604
O88	O	1.101354	-0.082735	0.284404
C89	C	1.178111	-0.038242	0.205256
H90	H	1.251272	-0.072309	0.213238
H91	H	1.143429	-0.041562	0.123377
C92	C	1.120119	0.102703	0.208817
C93	C	1.209980	0.060866	0.218626
H94	H	1.139775	0.163839	0.217060
H95	H	1.068404	0.072727	0.262138
H96	H	1.091226	0.099927	0.140584
H97	H	1.238864	0.063632	0.286862
H98	H	1.261702	0.090845	0.165316
H99	H	1.243891	-1.090199	0.780458
H100	H	1.573921	-0.329728	0.973617
O101	O	1.032001	-0.726129	0.875613
C102	C	0.933379	-0.728915	0.926975
H103	H	0.947507	-0.708937	1.008638
H104	H	0.887112	-0.680046	0.877240
C105	C	0.851713	-0.849496	0.839650
C106	C	0.869065	-0.824966	0.939954
H107	H	0.812038	-0.908744	0.847653
H108	H	0.918155	-0.847618	0.805043
H109	H	0.813161	-0.808764	0.798215
H110	H	0.907628	-0.865691	0.981382
H111	H	0.802628	-0.826854	0.974569
H112	H	1.239470	-0.777950	0.784633
H113	H	1.817245	-0.151696	1.306100
H114	H	0.852817	-0.329730	0.450919
O115	O	0.691165	-0.439081	0.770173
C116	C	0.781783	-0.377824	0.789535
H117	H	0.829308	-0.411827	0.855165
H118	H	0.833426	-0.355424	0.713761
C119	C	0.688440	-0.253476	0.743781
C120	C	0.746805	-0.295236	0.824395
H121	H	0.666866	-0.202530	0.765280
H122	H	0.627389	-0.294745	0.730733
H123	H	0.731484	-0.234817	0.680643
H124	H	0.703757	-0.313905	0.887527
H125	H	0.807848	-0.253969	0.837455
H126	H	1.009664	-0.539333	0.736464
H127	H	0.879136	-0.667648	0.754742
H128	H	1.722109	-0.335990	1.079507
H129	H	0.758490	-0.772469	0.897546
H130	H	1.287837	-0.538990	1.214741
H131	H	1.256981	-0.151542	0.208084
H132	H	1.865211	-0.231293	1.157995
H133	H	1.235588	-0.691945	0.812635
O134	O	1.495377	-0.770629	0.528869
C135	C	1.467804	-0.793721	0.428793
H136	H	1.413650	-0.862158	0.440382
H137	H	1.424461	-0.740755	0.382680
C138	C	1.635901	-0.713991	0.351879
C139	C	1.569395	-0.798050	0.366113
H140	H	1.698565	-0.716658	0.313211
H141	H	1.654476	-0.698430	0.419301
H142	H	1.599769	-0.669861	0.313454
H143	H	1.605522	-0.842176	0.404548
H144	H	1.550828	-0.813619	0.298696
H145	H	0.605506	-0.717539	0.979252
H146	H	0.573166	-0.557789	0.918161
H147	H	0.996553	-0.637477	1.030377
H148	H	1.289334	-0.311280	0.269219
H149	H	1.168707	-0.416085	0.412031
H150	H	1.626177	-0.176785	1.375713
H151	H	1.551877	-0.833786	0.472684
H152	H	1.656642	-0.919251	0.368126
H153	H	1.348686	-1.175666	0.675900
H154	H	1.483086	-0.281462	1.297227
H155	H	1.378673	-0.587237	0.891102
