data_functionalizedCrystal
_audit_creation_method	'MofGen! by Chris Wilmer'
_symmetry_space_group_name_H-M	'P1'
_symmetry_Int_Tables_number	1
_symmetry_cell_setting	triclinic
loop_
_symmetry_equiv_pos_as_xyz
  x,y,z
_cell_length_a	14.519731
_cell_length_b	12.996460
_cell_length_c	16.109301
_cell_angle_alpha	90.007568
_cell_angle_beta	96.424833
_cell_angle_gamma	89.993310
loop_
_atom_site_label
_atom_site_type_symbol
_atom_site_fract_x
_atom_site_fract_y
_atom_site_fract_z
O1	O	-1.223624	0.085597	0.109071
O2	O	-0.723624	0.585597	0.609071
O3	O	-0.955123	0.085593	0.121887
O4	O	-0.455123	0.585593	0.621887
O5	O	-1.096750	0.085585	-0.005538
O6	O	-0.596750	0.585585	0.494462
O7	O	-1.081998	0.085605	0.236497
O8	O	-0.581998	0.585605	0.736497
O9	O	-1.096735	-0.085549	-0.005545
O10	O	-0.596735	0.414451	0.494455
O11	O	-0.955108	-0.085540	0.121880
O12	O	-0.455108	0.414460	0.621880
O13	O	-1.223610	-0.085537	0.109064
O14	O	-0.723610	0.414463	0.609064
Cu15	Cu	-1.089357	-0.101165	0.115472
Cu16	Cu	-0.589357	0.398835	0.615472
Cu17	Cu	-1.089375	0.101221	0.115480
Cu18	Cu	-0.589375	0.601221	0.615480
O19	O	-1.081983	-0.085528	0.236490
O20	O	-0.581983	0.414472	0.736490
C21	C	-0.920757	0.000026	0.121283
C22	C	-0.420757	0.500026	0.621283
C23	C	-0.818381	0.000024	0.119484
C24	C	-0.318381	0.500024	0.619484
N25	N	-1.089352	-0.243512	0.115465
N26	N	-0.589352	0.256488	0.615465
C27	C	-0.735240	0.000027	0.118022
C28	C	-0.235240	0.500027	0.618022
C29	C	-0.630935	0.000025	0.116195
C30	C	-0.130935	0.500025	0.616195
C31	C	-0.547799	0.000023	0.114745
C32	C	-0.047799	0.500023	0.614745
C33	C	-0.443487	0.000023	0.112918
C34	C	0.056513	0.500023	0.612918
C35	C	-1.089374	-0.663326	0.115481
C36	C	-0.589374	-0.163326	0.615481
C37	C	-1.089365	-0.546521	0.115479
C38	C	-0.589365	-0.046521	0.615479
C39	C	-1.089363	-0.453423	0.115474
C40	C	-0.589363	0.046577	0.615474
C41	C	-1.089354	-0.336610	0.115471
C42	C	-0.589354	0.163390	0.615471
C43	C	-0.257975	0.000028	0.109668
C44	C	0.242025	0.500028	0.609668
C45	C	-0.360352	0.000021	0.111468
C46	C	0.139648	0.500021	0.611468
C47	C	-1.096145	0.000017	-0.036518
C48	C	-0.596145	0.500017	0.463482
C49	C	-1.094353	0.000016	-0.128816
C50	C	-0.594353	0.500016	0.371184
N51	N	-1.089388	0.243568	0.115480
N52	N	-0.589388	0.743568	0.615480
C53	C	-1.174226	0.000033	-0.350945
C54	C	-0.674226	0.500033	0.149055
C55	C	-1.172535	0.000041	-0.437668
C56	C	-0.672535	0.500041	0.062332
C57	C	-1.004500	0.000035	-0.418097
C58	C	-0.504500	0.500035	0.081903
C59	C	-1.006192	0.000034	-0.331375
C60	C	-0.506192	0.500034	0.168625
C61	C	-1.091057	0.000028	-0.297802
C62	C	-0.591057	0.500028	0.202198
C63	C	-1.087675	0.000037	-0.471247
C64	C	-0.587675	0.500037	0.028753
C65	C	-1.085842	0.000047	-0.565276
C66	C	-0.585842	0.500047	-0.065276
C67	C	-1.092891	0.000021	-0.203766
C68	C	-0.592891	0.500021	0.296234
C69	C	-1.082588	0.000041	0.267469
C70	C	-0.582588	0.500041	0.767469
C71	C	-1.084379	0.000050	0.359768
C72	C	-0.584379	0.500050	0.859768
H73	H	-1.240260	0.000048	-0.480935
H74	H	-0.740260	0.500048	0.019065
H75	H	-1.243329	0.000030	-0.323613
H76	H	-0.743329	0.500030	0.176387
H77	H	-0.938461	0.000033	-0.288103
H78	H	-0.438461	0.500033	0.211897
C79	C	-0.912458	-0.000022	-0.454711
C80	C	-0.412458	0.499978	0.045289
C81	C	-0.928775	-0.000050	-0.542033
C82	C	-0.428775	0.499950	-0.042033
C83	C	-0.844006	-0.000120	-0.575788
C84	C	-0.344006	0.499880	-0.075788
H85	H	-0.878144	0.059638	-0.436565
H86	H	-0.378144	0.559638	0.063435
H87	H	-0.878204	-0.059726	-0.436529
H88	H	-0.378204	0.440274	0.063471
H89	H	-0.963013	0.059648	-0.560207
H90	H	-0.463013	0.559648	-0.060207
H91	H	-0.963074	-0.059705	-0.560202
H92	H	-0.463074	0.440295	-0.060202
H93	H	-0.809753	-0.059825	-0.557607
H94	H	-0.309753	0.440175	-0.057607
H95	H	-0.809699	0.059540	-0.557636
H96	H	-0.309699	0.559540	-0.057636
H97	H	-0.855065	-0.000149	-0.635039
H98	H	-0.355065	0.499851	-0.135039
