data_functionalizedCrystal
_audit_creation_method	'MofGen! by Chris Wilmer'
_symmetry_space_group_name_H-M	'P1'
_symmetry_Int_Tables_number	1
_symmetry_cell_setting	triclinic
loop_
_symmetry_equiv_pos_as_xyz
  x,y,z
_cell_length_a	8.559649
_cell_length_b	10.489741
_cell_length_c	7.088929
_cell_angle_alpha	83.712943
_cell_angle_beta	95.325015
_cell_angle_gamma	77.158919
loop_
_atom_site_label
_atom_site_type_symbol
_atom_site_fract_x
_atom_site_fract_y
_atom_site_fract_z
O1	O	2.103400	-0.028523	-0.158957
O2	O	1.638952	0.037276	-0.158967
O3	O	1.881746	-0.182335	-0.158950
O4	O	1.860607	0.191088	-0.158973
O5	O	1.914192	-0.211743	0.159027
O6	O	1.671399	0.007868	0.159010
O7	O	2.135846	-0.057931	0.159021
Cu8	Cu	1.906585	-0.027717	0.188049
Cu9	Cu	1.868214	0.007062	-0.187996
O10	O	1.893053	0.161680	0.159004
C11	C	1.595703	0.027558	0.000020
C12	C	1.418493	0.042401	0.000017
C13	C	1.896372	-0.244403	0.000037
C14	C	1.891596	-0.385529	0.000034
C15	C	1.737113	-0.437401	0.000016
C16	C	1.826086	-0.551707	0.156797
C17	C	1.794133	-0.522692	-0.156703
C18	C	1.980646	-0.497989	0.156944
C19	C	1.948657	-0.468948	-0.156697
C20	C	2.037747	-0.583242	0.000122
C21	C	2.179096	-0.048213	0.000029
C22	C	2.356304	-0.063054	0.000020
C23	C	1.878426	0.223748	0.000012
C24	C	1.883201	0.364876	0.000003
N25	N	1.933585	-0.052180	0.452539
N26	N	1.841226	0.031513	-0.452486
H27	H	1.438631	-0.164693	0.000017
H28	H	1.336155	0.144049	-0.000000
H29	H	1.745507	0.118244	0.465862
O30	O	1.699997	-0.537038	-0.314691
C31	C	1.697997	-0.671166	-0.313432
H32	H	1.728998	-0.723839	-0.160619
H33	H	1.790661	-0.718784	-0.405835
C34	C	1.490682	-0.617511	-0.581345
C35	C	1.528745	-0.682202	-0.393655
H36	H	1.386284	-0.624321	-0.630838
H37	H	1.492034	-0.527147	-0.582199
H38	H	1.567916	-0.657200	-0.658323
H39	H	1.451525	-0.642502	-0.316675
H40	H	1.527377	-0.772561	-0.392790
O41	O	1.585514	-0.362424	0.000279
C42	C	1.474927	-0.443982	0.002044
H43	H	1.540977	-0.549307	0.063033
H44	H	1.417277	-0.442339	-0.150051
C45	C	1.261658	-0.263656	0.052133
C46	C	1.342780	-0.393015	0.127057
H47	H	1.180139	-0.232215	0.129239
H48	H	1.336160	-0.208706	0.050937
H49	H	1.213631	-0.262304	-0.074611
H50	H	1.390823	-0.394363	0.253789
H51	H	1.268283	-0.447964	0.128277
O52	O	2.074575	-0.484203	0.315454
C53	C	2.010264	-0.527387	0.480288
H54	H	1.932858	-0.598857	0.443757
H55	H	1.932885	-0.438851	0.534346
C56	C	2.244173	-0.509835	0.681539
C57	C	2.149113	-0.597624	0.636673
H58	H	2.329820	-0.553155	0.778009
H59	H	2.287499	-0.480735	0.570488
H60	H	2.179673	-0.436061	0.726576
H61	H	2.213608	-0.671387	0.591615
H62	H	2.105801	-0.626737	0.747720
H63	H	2.029323	-0.138908	0.534202
H64	H	1.774246	-0.588094	0.289341
H65	H	2.164884	-0.646061	0.000212
H66	H	2.000441	-0.432522	-0.289249
