data_functionalizedCrystal
_audit_creation_method	'MofGen! by Chris Wilmer'
_symmetry_space_group_name_H-M	'P1'
_symmetry_Int_Tables_number	1
_symmetry_cell_setting	triclinic
loop_
_symmetry_equiv_pos_as_xyz
  x,y,z
_cell_length_a	10.654550
_cell_length_b	11.792241
_cell_length_c	9.130313
_cell_angle_alpha	89.998583
_cell_angle_beta	89.996220
_cell_angle_gamma	84.339159
loop_
_atom_site_label
_atom_site_type_symbol
_atom_site_fract_x
_atom_site_fract_y
_atom_site_fract_z
O1	O	1.667383	0.159415	-0.121920
O2	O	1.301862	0.174603	-0.121897
O3	O	1.493493	0.001859	-0.121899
O4	O	1.475752	0.332159	-0.121918
O5	O	1.493490	0.001864	0.121700
O6	O	1.301859	0.174608	0.121702
O7	O	1.667381	0.159419	0.121678
Cu8	Cu	1.484620	0.167014	0.143933
Cu9	Cu	1.484623	0.167008	-0.144151
O10	O	1.475750	0.332164	0.121680
C11	C	1.255066	0.173490	-0.000095
C12	C	1.115632	0.170154	-0.000085
C13	C	1.035858	0.271863	-0.000113
C14	C	0.904847	0.268721	-0.000138
C15	C	0.933394	0.062152	-0.000114
C16	C	1.064404	0.065295	-0.000079
C17	C	1.019376	0.391124	-0.000133
C18	C	0.888364	0.387982	-0.000158
C19	C	1.492377	-0.040432	-0.000100
C20	C	1.489042	-0.166454	-0.000101
C21	C	1.482908	-0.397180	-0.000125
C22	C	1.486316	-0.268787	-0.000112
C23	C	1.714177	0.160532	-0.000127
C24	C	1.853611	0.163869	-0.000146
C25	C	1.476865	0.374455	-0.000122
C26	C	1.480201	0.500476	-0.000130
N27	N	1.484627	0.167017	0.346555
N28	N	1.484625	0.166996	-0.346774
C29	C	1.569503	0.090552	0.423206
C30	C	1.569500	0.090539	0.576543
C31	C	1.399740	0.243465	0.576564
C32	C	1.399739	0.243472	0.423230
C33	C	1.667516	0.002265	0.423195
C34	C	1.667513	0.002251	0.576532
H35	H	1.330615	0.305726	0.360822
O36	O	0.883420	-0.039605	-0.000181
C37	C	0.750681	-0.020573	-0.000175
H38	H	0.720530	0.067759	-0.046305
H39	H	0.710022	-0.087732	-0.070902
H40	H	0.714154	-0.026356	0.116685
O41	O	1.054432	0.446779	0.121380
C42	C	1.186389	0.449817	0.121201
H43	H	1.223354	0.439579	0.004296
H44	H	1.210457	0.534881	0.167266
H45	H	1.232061	0.377453	0.191895
O46	O	1.141950	-0.033472	0.000217
C47	C	1.218574	-0.037808	0.126382
H48	H	1.170969	0.019863	0.214540
H49	H	1.232677	-0.129116	0.168748
H50	H	1.314035	-0.007678	0.097879
H51	H	0.846505	0.432916	-0.102114
O52	O	1.061708	0.436622	-0.125515
C53	C	1.005140	0.549115	-0.142002
H54	H	0.973219	0.584490	-0.030421
H55	H	1.076360	0.604424	-0.191087
H56	H	0.920103	0.549398	-0.217827
O57	O	1.641995	-0.101764	0.373617
C58	C	1.522695	-0.125657	0.425257
H59	H	1.463590	-0.042438	0.452506
H60	H	1.473045	-0.173158	0.337126
H61	H	1.534979	-0.180695	0.527890
O62	O	0.833917	0.430866	0.125449
C63	C	0.883767	0.366508	0.245894
H64	H	0.980218	0.322139	0.215725
H65	H	0.893846	0.425434	0.343272
H66	H	0.817549	0.299913	0.276081
H67	H	1.330625	0.305712	0.639010
H68	H	1.758622	0.029909	0.375629
O69	O	1.631198	-0.096007	0.633329
C70	C	1.522587	-0.071064	0.720231
H71	H	1.471444	0.013884	0.684427
H72	H	1.457269	-0.141281	0.706395
H73	H	1.551221	-0.065625	0.840140
H74	H	1.763969	0.021698	0.618141
