data_functionalizedCrystal
_audit_creation_method	'MofGen! by Chris Wilmer'
_symmetry_space_group_name_H-M	'P1'
_symmetry_Int_Tables_number	1
_symmetry_cell_setting	triclinic
loop_
_symmetry_equiv_pos_as_xyz
  x,y,z
_cell_length_a	19.077105
_cell_length_b	12.645330
_cell_length_c	19.077271
_cell_angle_alpha	87.708706
_cell_angle_beta	89.912562
_cell_angle_gamma	87.714233
loop_
_atom_site_label
_atom_site_type_symbol
_atom_site_fract_x
_atom_site_fract_y
_atom_site_fract_z
Zn1	Zn	1.058228	-0.513030	0.440441
Zn2	Zn	1.558228	-0.013030	0.940441
Zn3	Zn	1.062902	-0.683435	0.322944
Zn4	Zn	1.562902	-0.183435	0.822944
Zn5	Zn	0.945467	-0.498782	0.318234
Zn6	Zn	1.445467	0.001218	0.818234
Zn7	Zn	0.940703	-0.682840	0.435695
Zn8	Zn	1.440703	-0.182840	0.935695
O9	O	1.001825	-0.594522	0.379329
O10	O	1.501825	-0.094522	0.879329
O11	O	1.157179	-0.541847	0.428811
O12	O	1.657179	-0.041847	0.928811
O13	O	1.051275	-0.653227	0.223988
O14	O	1.551275	-0.153227	0.723988
O15	O	0.960462	-0.352328	0.334460
O16	O	1.460462	0.147672	0.834460
O17	O	1.160614	-0.667043	0.342487
O18	O	1.660614	-0.167043	0.842487
O19	O	1.043307	-0.362796	0.424245
O20	O	1.543307	0.137204	0.924245
O21	O	0.964995	-0.517563	0.220528
O22	O	1.464995	-0.017563	0.720528
O23	O	0.846504	-0.516985	0.329859
O24	O	1.346504	-0.016985	0.829859
O25	O	0.952343	-0.666028	0.534656
O26	O	1.452343	-0.166028	1.034656
O27	O	0.843004	-0.652211	0.416157
O28	O	1.343004	-0.152211	0.916157
O29	O	1.038688	-0.541269	0.538142
O30	O	1.538688	-0.041269	1.038142
O31	O	1.046655	-0.831700	0.337885
O32	O	1.546655	-0.331700	0.837885
O33	O	0.956876	-0.831263	0.420724
O34	O	1.456876	-0.331263	0.920724
C35	C	0.819257	-0.582988	0.371983
C36	C	1.319257	-0.082988	0.871983
C37	C	0.741153	-0.578081	0.368857
C38	C	1.241153	-0.078081	0.868857
C39	C	0.702659	-0.646278	0.412248
C40	C	1.202659	-0.146278	0.912248
C41	C	0.629272	-0.641653	0.409314
C42	C	1.129272	-0.141653	0.909314
C43	C	0.594381	-0.568835	0.362985
C44	C	1.094381	-0.068835	0.862985
C45	C	0.632880	-0.500630	0.319592
C46	C	1.132880	-0.000630	0.819592
C47	C	0.706266	-0.505251	0.322529
C48	C	1.206266	-0.005251	0.822529
C49	C	0.375094	-0.547451	0.349391
C50	C	0.875094	-0.047451	0.849391
C51	C	0.301703	-0.542838	0.346455
C52	C	0.801703	-0.042838	0.846455
C53	C	0.298100	-0.683860	0.436179
C54	C	0.798100	-0.183860	0.936179
C55	C	0.371487	-0.688479	0.439110
C56	C	0.871487	-0.188479	0.939110
C57	C	0.409980	-0.620270	0.395719
C58	C	0.909980	-0.120270	0.895719
N59	N	0.519367	-0.564108	0.359983
N60	N	1.019367	-0.064108	0.859983
N61	N	0.484992	-0.624992	0.398725
N62	N	0.984992	-0.124992	0.898725
C63	C	1.001774	-0.869948	0.379317
C64	C	1.501774	-0.369948	0.879317
C65	C	1.001816	-0.987781	0.379338
C66	C	1.501816	-0.487781	0.879338
C67	C	0.945553	-1.155138	0.431628
C68	C	1.445553	-0.655138	0.931628
C69	C	0.945283	-1.032551	0.431441
C70	C	1.445283	-0.532551	0.931441
C71	C	0.984764	-1.026777	0.304480
C72	C	1.484764	-0.526777	0.804480
C73	C	0.984420	-1.149374	0.304797
C74	C	1.484420	-0.649374	0.804797
C75	C	1.075486	-1.160676	0.401318
C76	C	1.575486	-0.660676	0.901318
C77	C	1.074965	-1.038135	0.402919
C78	C	1.574965	-0.538135	0.902919
C79	C	1.185106	-0.606101	0.386704
C80	C	1.685106	-0.106101	0.886704
C81	C	1.263209	-0.611035	0.389847
C82	C	1.763209	-0.111035	0.889847
C83	C	0.994462	-0.605171	0.562608
C84	C	1.494462	-0.105171	1.062608
C85	C	0.991325	-0.609710	0.640711
C86	C	1.491325	-0.109710	1.140711
C87	C	1.001895	-0.318022	0.379357
C88	C	1.501895	0.181978	0.879357
C89	C	1.001924	-0.200195	0.379369
C90	C	1.501924	0.299805	0.879369
C91	C	1.034804	-0.546890	0.679220
C92	C	1.534804	-0.046890	1.179220
C93	C	1.031847	-0.551149	0.752605
C94	C	1.531847	-0.051149	1.252605
C95	C	0.985415	-0.618235	0.787480
C96	C	1.485415	-0.118235	1.287480
C97	C	0.941931	-0.681057	0.748966
C98	C	1.441931	-0.181057	1.248966
C99	C	0.944885	-0.676791	0.675582
C100	C	1.444885	-0.176791	1.175582
C101	C	0.971758	-0.637953	1.006761
C102	C	1.471758	-0.137953	1.506761
C103	C	0.968809	-0.642216	1.080150
C104	C	1.468809	-0.142216	1.580150
C105	C	1.058724	-0.512306	1.083784
C106	C	1.558724	-0.012306	1.583784
C107	C	1.061677	-0.508051	1.010399
C108	C	1.561677	-0.008051	1.510399
C109	C	1.018190	-0.570869	0.971891
C110	C	1.518190	-0.070869	1.471891
N111	N	0.982393	-0.622593	0.862492
N112	N	1.482393	-0.122593	1.362492
N113	N	1.021209	-0.566505	0.896880
N114	N	1.521209	-0.066505	1.396880
C115	C	1.009153	-0.583936	1.196762
C116	C	1.509153	-0.083936	1.696762
C117	C	1.012288	-0.579396	1.118659
C118	C	1.512288	-0.079396	1.618659
H119	H	0.597933	-0.697188	0.444648
H120	H	1.097933	-0.197188	0.944648
H121	H	0.930996	-0.696848	1.108543
H122	H	1.430996	-0.196848	1.608543
H123	H	1.067254	-0.499997	0.783956
H124	H	1.567254	0.000003	1.283956
H125	H	1.094127	-0.461162	1.115145
H126	H	1.594127	0.038838	1.615145
H127	H	0.904123	-0.735676	0.777367
H128	H	1.404123	-0.235676	1.277367
N129	N	0.914420	-0.980474	0.279947
N130	N	1.414420	-0.480474	0.779947
H131	H	0.893501	-0.934237	0.317205
H132	H	1.393501	-0.434237	0.817205
H133	H	0.881998	-1.039707	0.271026
H134	H	1.381998	-0.539707	0.771026
H135	H	1.024653	-0.997588	0.264348
H136	H	1.524653	-0.497588	0.764348
N137	N	1.133211	-0.998255	0.356480
N138	N	1.633211	-0.498255	0.856480
H139	H	1.179522	-1.031948	0.372881
H140	H	1.679522	-0.531948	0.872881
H141	H	1.134758	-0.918757	0.359005
H142	H	1.634758	-0.418757	0.859005
H143	H	0.266751	-0.739390	0.471506
H144	H	0.766751	-0.239390	0.971506
N145	N	0.409109	-0.767024	0.489082
N146	N	0.909109	-0.267024	0.989082
H147	H	0.394332	-0.752792	0.538796
H148	H	0.894332	-0.252792	1.038796
H149	H	0.461431	-0.759575	0.484302
H150	H	0.961431	-0.259575	0.984302
H151	H	1.117448	-1.189888	0.363292
H152	H	1.617448	-0.689888	0.863292
H153	H	0.909473	-0.727935	0.644228
H154	H	1.409473	-0.227935	1.144228
H155	H	0.273297	-0.483528	0.308732
H156	H	0.773297	0.016472	0.808732
N157	N	1.111759	-0.435698	0.972784
N158	N	1.611759	0.064302	1.472784
H159	H	1.138855	-0.396547	1.008316
H160	H	1.638855	0.103453	1.508316
H161	H	1.084395	-0.383063	0.941188
H162	H	1.584395	0.116937	1.441188
N163	N	1.096883	-1.207173	0.472598
N164	N	1.596883	-0.707173	0.972598
H165	H	1.060989	-1.184904	0.508658
H166	H	1.560989	-0.684904	1.008658
H167	H	1.144228	-1.180759	0.485576
H168	H	1.644228	-0.680759	0.985576
N169	N	0.924834	-0.705667	0.965231
N170	N	1.424834	-0.205667	1.465231
H171	H	0.894967	-0.748802	0.998462
H172	H	1.394967	-0.248802	1.498462
H173	H	0.954624	-0.754775	0.935915
H174	H	1.454624	-0.254775	1.435915
N175	N	0.747781	-0.431693	0.275724
N176	N	1.247781	0.068307	0.775724
H177	H	0.779527	-0.474715	0.244330
H178	H	1.279527	0.025285	0.744330
H179	H	0.777049	-0.386226	0.305603
H180	H	1.277049	0.113774	0.805603
N181	N	0.740289	-0.724826	0.462213
N182	N	1.240289	-0.224826	0.962213
H183	H	0.704765	-0.767325	0.489257
H184	H	1.204765	-0.267325	0.989257
H185	H	0.769444	-0.685563	0.496000
H186	H	1.269444	-0.185563	0.996000
H187	H	0.406427	-0.491918	0.314054
H188	H	0.906427	0.008082	0.814054
N189	N	1.084889	-0.474539	0.641607
N190	N	1.584889	0.025461	1.141607
H191	H	1.111983	-0.435389	0.677141
H192	H	1.611983	0.064611	1.177141
H193	H	1.057525	-0.421904	0.610011
H194	H	1.557525	0.078096	1.110011
H195	H	0.891295	-1.181860	0.417025
H196	H	1.391295	-0.681860	0.917025
H197	H	0.604466	-0.441336	0.281872
H198	H	1.104466	0.058664	0.781872
H199	H	0.955752	-1.188558	0.487216
H200	H	1.455752	-0.688558	0.987216
N201	N	0.958950	-0.997902	0.504841
N202	N	1.458950	-0.497902	1.004841
H203	H	0.965205	-1.062308	0.537609
H204	H	1.465205	-0.562308	1.037609
H205	H	0.917870	-0.952185	0.520938
H206	H	1.417870	-0.452185	1.020938
H207	H	0.890688	-0.999106	0.416665
H208	H	1.390688	-0.499106	0.916665
H209	H	0.930735	-1.173698	0.286550
H210	H	1.430735	-0.673698	0.786550
H211	H	1.023859	-1.178956	0.264372
H212	H	1.523859	-0.678956	0.764372
H213	H	1.087879	-1.013128	0.458025
H214	H	1.587879	-0.513128	0.958025
