data_functionalizedCrystal
_audit_creation_method	'MofGen! by Chris Wilmer'
_symmetry_space_group_name_H-M	'P1'
_symmetry_Int_Tables_number	1
_symmetry_cell_setting	triclinic
loop_
_symmetry_equiv_pos_as_xyz
  x,y,z
_cell_length_a	10.540539
_cell_length_b	10.654550
_cell_length_c	9.730223
_cell_angle_alpha	89.993622
_cell_angle_beta	89.997892
_cell_angle_gamma	95.494803
loop_
_atom_site_label
_atom_site_type_symbol
_atom_site_fract_x
_atom_site_fract_y
_atom_site_fract_z
O1	O	0.178292	-1.667902	0.114396
O2	O	0.195279	-1.302429	0.114373
O3	O	0.002076	-1.493504	0.114383
O4	O	0.371495	-1.476828	0.114386
O5	O	0.002087	-1.493491	-0.114197
O6	O	0.195290	-1.302417	-0.114207
O7	O	0.178303	-1.667889	-0.114184
Zn8	Zn	0.186798	-1.485151	-0.150487
Zn9	Zn	0.186784	-1.485168	0.150677
O10	O	0.371506	-1.476815	-0.114194
C11	C	0.194038	-1.255625	0.000080
C12	C	0.190306	-1.116180	0.000072
C13	C	-0.045221	-1.492247	0.000096
C14	C	-0.186168	-1.488505	0.000103
N15	N	0.186807	-1.485149	-0.356024
C16	C	-0.369543	-1.345134	0.000607
C17	C	-0.222926	-1.348927	0.000093
C18	C	-0.247843	-1.555670	-0.130423
C19	C	-0.394386	-1.550906	-0.130533
C20	C	-0.394918	-1.553759	0.129405
C21	C	-0.247936	-1.555044	0.131131
C22	C	0.418803	-1.478072	0.000096
C23	C	0.559750	-1.481813	0.000098
C24	C	0.179545	-1.714694	0.000112
C25	C	0.183276	-1.854139	0.000129
C26	C	0.304061	-1.036734	0.000093
C27	C	0.300547	-0.905712	0.000116
C28	C	0.069513	-0.933595	0.000104
C29	C	0.073028	-1.064614	0.000071
C30	C	0.421338	-1.088301	0.000094
C31	C	0.535103	-1.008854	0.000116
C32	C	0.531589	-0.877832	0.000140
C33	C	0.414310	-0.826256	0.000141
C34	C	0.264511	-1.562006	-0.427957
C35	C	0.264487	-1.562025	-0.571840
C36	C	0.109053	-1.408319	-0.571843
C37	C	0.109071	-1.408308	-0.427963
C38	C	0.342247	-1.638848	-0.356018
C39	C	0.419958	-1.715710	-0.427952
C40	C	0.419934	-1.715729	-0.571835
C41	C	0.342199	-1.638885	-0.643784
N42	N	0.186765	-1.485179	0.356213
H43	H	-0.180308	-1.296078	0.093659
F44	F	-0.436130	-1.494711	0.258716
F45	F	-0.193920	-1.491314	0.257361
F46	F	0.502629	-1.797540	-0.648388
H47	H	0.342174	-1.638919	-0.760943
F48	F	0.342282	-1.638831	-0.202886
H49	H	-0.442390	-1.651289	-0.136449
F50	F	-0.431219	-1.486008	-0.258070
H51	H	-0.225526	-1.658172	-0.135270
F52	F	0.410576	-0.686809	0.000148
H53	H	0.624221	-0.813149	0.000144
F54	F	-0.048043	-1.149171	0.000047
F55	F	0.026350	-1.326528	-0.351401
H56	H	-0.399726	-1.290216	-0.092477
H57	H	0.483239	-1.778280	-0.369362
H58	H	0.045767	-1.345755	-0.630436
H59	H	-0.442180	-1.654576	0.130289
H60	H	-0.398128	-1.290002	0.094209
F61	F	-0.216320	-1.688056	0.141451
H62	H	-0.025970	-0.891591	0.000128
H63	H	-0.205222	-1.509003	-0.227563
F64	F	0.425088	-1.227744	0.000075
F65	F	0.659911	-1.063746	0.000101
F66	F	-0.168311	-1.279348	-0.122415
