data_functionalizedCrystal
_audit_creation_method	'MofGen! by Chris Wilmer'
_symmetry_space_group_name_H-M	'P1'
_symmetry_Int_Tables_number	1
_symmetry_cell_setting	triclinic
loop_
_symmetry_equiv_pos_as_xyz
  x,y,z
_cell_length_a	17.038272
_cell_length_b	10.967926
_cell_length_c	10.065875
_cell_angle_alpha	93.120479
_cell_angle_beta	99.426590
_cell_angle_gamma	87.839574
loop_
_atom_site_label
_atom_site_type_symbol
_atom_site_fract_x
_atom_site_fract_y
_atom_site_fract_z
O1	O	0.136749	1.626878	0.269136
O2	O	0.138988	1.277063	0.186859
O3	O	0.023993	1.449890	0.227519
O4	O	0.251744	1.454051	0.228476
O5	O	0.046013	1.416943	0.446756
O6	O	0.161008	1.244116	0.406097
O7	O	0.158769	1.593931	0.488374
Zn8	Zn	0.163385	1.413793	0.482044
Zn9	Zn	0.134372	1.457201	0.193189
O10	O	0.273764	1.421104	0.447714
C11	C	0.148171	1.215609	0.285898
C12	C	0.142719	1.081581	0.254375
C13	C	0.151695	1.004760	0.353893
C14	C	0.146059	0.866235	0.321314
C15	C	0.005764	1.429634	0.336248
C16	C	-0.081360	1.418351	0.333594
C17	C	-0.128434	1.521945	0.357961
C18	C	-0.210297	1.511337	0.355453
C19	C	-0.245084	1.397135	0.328587
C20	C	-0.198004	1.293534	0.304215
C21	C	-0.116143	1.304144	0.306714
C22	C	-0.491944	1.359654	0.319753
C23	C	-0.573810	1.349051	0.317260
C24	C	-0.586098	1.566856	0.368496
C25	C	-0.504235	1.577454	0.371000
C26	C	-0.457163	1.473855	0.346621
C27	C	-0.328761	1.386289	0.326028
C28	C	-0.373488	1.484703	0.349171
C29	C	0.291993	1.441360	0.338982
C30	C	0.379116	1.452644	0.341627
C31	C	0.149585	1.655385	0.389331
C32	C	0.155037	1.789414	0.420846
N33	N	0.183185	1.384177	0.679182
N34	N	0.114566	1.486826	-0.003947
C35	C	0.141256	1.446889	0.761714
C36	C	0.156501	1.424105	0.913522
H37	H	-0.100117	1.614939	0.379845
H38	H	-0.357093	1.293304	0.304157
H39	H	-0.226334	1.200549	0.282332
H40	H	0.130860	1.044797	0.145056
H41	H	0.230365	1.313615	0.720907
H42	H	0.163547	1.041545	0.463212
C43	C	0.014801	1.223701	0.287785
C44	C	-0.064395	1.190272	0.279929
H45	H	0.046745	1.153399	0.271236
H46	H	0.033364	1.258683	0.375166
H47	H	0.018005	1.281679	0.222264
H48	H	-0.067600	1.132301	0.345458
H49	H	-0.082963	1.155272	0.192535
H50	H	-0.624433	1.651201	0.388342
C51	C	0.256051	1.275209	0.864488
C52	C	0.220199	1.328842	0.969828
H53	H	0.295370	1.216393	0.899253
H54	H	0.280270	1.336451	0.823152
H55	H	0.216826	1.236392	0.799631
H56	H	0.259422	1.367667	1.034682
H57	H	0.195979	1.267590	1.011186
H58	H	0.134200	0.829456	0.211988
H59	H	-0.248622	1.595694	0.375298
C60	C	0.173528	0.966670	0.572148
C61	C	0.171043	0.839050	0.568437
H62	H	0.183413	0.997309	0.663264
H63	H	0.124001	0.999143	0.528929
H64	H	0.214865	0.990104	0.526786
H65	H	0.129701	0.815616	0.613791
H66	H	0.220576	0.806564	0.611675
H67	H	-0.475918	1.670450	0.392877
C68	C	-0.599875	1.177090	0.160095
C69	C	-0.612056	1.223516	0.287712
H70	H	-0.623492	1.099599	0.141854
H71	H	-0.544391	1.168569	0.158099
H72	H	-0.623492	1.231610	0.093780
H73	H	-0.588433	1.169000	0.354029
H74	H	-0.667550	1.232030	0.289719
C75	C	-0.404090	1.262148	0.180123
C76	C	-0.440213	1.245772	0.292961
H77	H	-0.372157	1.191833	0.163579
H78	H	-0.371654	1.331663	0.196483
H79	H	-0.443966	1.274032	0.103774
H80	H	-0.400337	1.233896	0.369312
H81	H	-0.472651	1.176237	0.276608
C82	C	-0.299870	1.639914	0.269003
C83	C	-0.335250	1.610231	0.378702
H84	H	-0.276254	1.717406	0.287244
H85	H	-0.339226	1.642755	0.190530
H86	H	-0.260125	1.579719	0.254854
H87	H	-0.375000	1.670422	0.392845
H88	H	-0.295890	1.607400	0.457198
C89	C	0.003218	1.509677	0.732131
C90	C	0.077572	1.542147	0.705362
H91	H	-0.036094	1.568487	0.697326
H92	H	0.005092	1.506891	0.826748
H93	H	-0.009775	1.431639	0.690451
H94	H	0.090568	1.620182	0.747051
H95	H	0.075700	1.544947	0.610727
C96	C	-0.023474	1.549375	0.966870
C97	C	0.050795	1.582047	0.939905
H98	H	-0.062862	1.608146	0.932246
H99	H	-0.021491	1.546477	1.061501
H100	H	-0.036442	1.471350	0.925130
H101	H	0.063767	1.660069	0.981654
H102	H	0.048813	1.584959	0.845256
