data_functionalizedCrystal
_audit_creation_method	'MofGen! by Chris Wilmer'
_symmetry_space_group_name_H-M	'P1'
_symmetry_Int_Tables_number	1
_symmetry_cell_setting	triclinic
loop_
_symmetry_equiv_pos_as_xyz
  x,y,z
_cell_length_a	14.971486
_cell_length_b	10.489741
_cell_length_c	13.448316
_cell_angle_alpha	89.993703
_cell_angle_beta	89.998199
_cell_angle_gamma	84.076651
loop_
_atom_site_label
_atom_site_type_symbol
_atom_site_fract_x
_atom_site_fract_y
_atom_site_fract_z
O1	O	1.187893	0.166222	-0.082577
O2	O	0.927607	0.186128	-0.082604
O3	O	1.063673	-0.009491	-0.082584
O4	O	1.051827	0.361841	-0.082597
O5	O	1.063655	-0.009503	0.082800
O6	O	0.927589	0.186116	0.082780
O7	O	1.187876	0.166210	0.082807
Cu8	Cu	1.057731	0.176162	0.097894
Cu9	Cu	1.057752	0.176176	-0.097691
O10	O	1.051810	0.361829	0.082787
C11	C	0.894268	0.185232	0.000085
C12	C	0.794956	0.182564	0.000074
C13	C	0.738385	0.297485	0.000072
C14	C	0.645071	0.294971	0.000087
C15	C	0.608330	0.177534	0.000097
C16	C	0.664909	0.062604	0.000103
C17	C	0.758221	0.065120	0.000095
C18	C	0.470416	0.057369	0.000117
C19	C	0.377098	0.054853	0.000123
C20	C	0.357267	0.287220	0.000108
C21	C	0.450579	0.289736	0.000101
C22	C	0.507151	0.174805	0.000104
C23	C	1.062769	-0.057019	0.000107
C24	C	1.060093	-0.198617	0.000105
C25	C	0.973518	-0.265755	0.000089
C26	C	1.014406	-0.358357	0.081636
C27	C	1.014444	-0.358320	-0.081419
C28	C	1.101017	-0.289354	0.081720
C29	C	1.101043	-0.289307	-0.081409
C30	C	1.141994	-0.381882	0.000158
C31	C	1.221215	0.167106	0.000116
C32	C	1.320527	0.169774	0.000120
C33	C	1.052713	0.409357	0.000094
C34	C	1.055390	0.550955	0.000089
N35	N	1.057723	0.176151	0.235459
N36	N	1.057766	0.176177	-0.235255
C37	C	1.117992	0.089567	0.287508
C38	C	1.117998	0.089566	0.391611
C39	C	1.057738	0.176156	0.443663
C40	C	0.997462	0.262745	0.391607
C41	C	0.997453	0.262739	0.287505
C42	C	0.997487	0.262753	0.608587
C43	C	0.997497	0.262761	0.712695
C44	C	1.118032	0.089580	0.712693
C45	C	1.118023	0.089574	0.608591
C46	C	1.057748	0.176165	0.556542
H47	H	0.599014	0.388551	0.000083
H48	H	0.804281	-0.028461	0.000097
H49	H	0.634987	-0.033015	0.000126
H50	H	1.167095	0.019072	0.566211
H51	H	0.948393	0.333244	0.433993
H52	H	1.213239	-0.432131	0.000211
H53	H	0.768291	0.393115	0.000063
H54	H	0.902336	-0.215280	0.000164
H55	H	1.167109	0.019075	0.755077
H56	H	1.137650	-0.258681	-0.150347
H57	H	0.977809	-0.388855	-0.150368
H58	H	0.948426	0.333271	0.755071
H59	H	0.311201	0.380801	0.000110
O60	O	1.144584	-0.253232	0.164166
C61	C	1.099107	-0.289195	0.249895
H62	H	1.057819	-0.371321	0.230891
H63	H	1.052648	-0.203852	0.278007
C64	C	1.218676	-0.231954	0.354577
C65	C	1.167970	-0.332831	0.331238
H66	H	1.261153	-0.258865	0.404756
H67	H	1.249313	-0.207720	0.296821
H68	H	1.179951	-0.160843	0.377998
H69	H	1.206694	-0.403932	0.307806
H70	H	1.137341	-0.357078	0.388992
H71	H	1.167067	0.019060	0.245134
O72	O	0.938877	0.346973	0.237095
C73	C	0.885677	0.423383	0.305358
H74	H	0.922364	0.424918	0.379559
H75	H	0.818970	0.381808	0.316446
C76	C	0.823057	0.559051	0.173578
C77	C	0.868120	0.560945	0.264710
H78	H	0.812223	0.643905	0.148504
H79	H	0.858896	0.507570	0.127587
H80	H	0.767473	0.524399	0.182830
H81	H	0.923707	0.595581	0.255454
H82	H	0.832290	0.612435	0.310699
H83	H	0.948402	0.333261	0.566212
H84	H	1.167073	0.019061	0.433989
H85	H	0.347187	-0.040774	0.000132
O86	O	0.486122	0.403922	0.000133
C87	C	0.416184	0.504823	0.000108
H88	H	0.352574	0.468977	0.031425
H89	H	0.403209	0.540285	-0.079236
C90	C	0.521367	0.659590	0.026492
C91	C	0.443242	0.615566	0.064965
H92	H	0.538058	0.727904	0.066495
H93	H	0.568487	0.591612	0.026505
H94	H	0.510544	0.689132	-0.039627
H95	H	0.454068	0.586010	0.131078
H96	H	0.396124	0.683542	0.064964
H97	H	0.977767	-0.388950	0.150571
H98	H	0.516476	-0.036219	0.000121
