data_functionalizedCrystal
_audit_creation_method	'MofGen! by Chris Wilmer'
_symmetry_space_group_name_H-M	'P1'
_symmetry_Int_Tables_number	1
_symmetry_cell_setting	triclinic
loop_
_symmetry_equiv_pos_as_xyz
  x,y,z
_cell_length_a	19.121274
_cell_length_b	19.121063
_cell_length_c	19.121605
_cell_angle_alpha	89.924837
_cell_angle_beta	90.119931
_cell_angle_gamma	89.924746
loop_
_atom_site_label
_atom_site_type_symbol
_atom_site_fract_x
_atom_site_fract_y
_atom_site_fract_z
Zn1	Zn	-1.075966	0.310003	-0.364435
Zn2	Zn	-1.065915	0.431798	-0.252601
Zn3	Zn	-0.953757	0.309595	-0.252193
Zn4	Zn	-0.954136	0.421795	-0.374355
O5	O	-1.012443	0.368298	-0.310896
O6	O	-1.172558	0.330516	-0.345620
O7	O	-1.046672	0.419603	-0.154619
O8	O	-0.974017	0.211722	-0.262760
O9	O	-1.165173	0.419998	-0.263456
O10	O	-1.063803	0.212021	-0.345224
O11	O	-0.964270	0.329821	-0.154320
O12	O	-0.855882	0.320122	-0.272379
O13	O	-0.974662	0.402949	-0.470967
O14	O	-0.856161	0.402554	-0.362130
O15	O	-1.064170	0.320816	-0.463679
O16	O	-1.047039	0.528398	-0.273074
O17	O	-0.964915	0.521049	-0.362526
C18	C	-0.830631	0.360209	-0.318287
C19	C	-0.752850	0.356765	-0.321467
C20	C	-0.712461	0.401666	-0.280112
C21	C	-0.639379	0.398429	-0.283108
C22	C	-0.606687	0.350289	-0.327456
C23	C	-0.647082	0.305386	-0.368815
C24	C	-0.720163	0.308626	-0.365822
C25	C	-0.386222	0.338181	-0.338641
C26	C	-0.313135	0.334943	-0.341630
C27	C	-0.305438	0.427987	-0.255923
C28	C	-0.378521	0.431220	-0.252931
C29	C	-0.418909	0.386320	-0.294293
C30	C	-0.531985	0.346978	-0.330519
C31	C	-0.493609	0.389635	-0.291234
C32	C	-1.020579	0.360812	-0.493424
C33	C	-1.024047	0.357623	-0.571207
C34	C	-1.004947	0.550115	-0.318935
C35	C	-1.001805	0.627900	-0.322395
C36	C	-0.194966	0.376409	-0.303467
C37	C	-0.272746	0.379843	-0.300275
C38	C	-1.019989	0.185770	-0.302840
C39	C	-1.023204	0.107987	-0.299407
C40	C	-1.043123	0.668246	-0.277484
C41	C	-1.040172	0.741333	-0.280742
C42	C	-0.995899	0.774071	-0.328909
C43	C	-0.954580	0.733720	-0.373825
C44	C	-0.957535	0.660635	-0.370570
C45	C	-0.984840	0.994551	-0.341068
C46	C	-0.981887	1.067641	-0.344319
C47	C	-1.067480	1.075249	-0.251236
C48	C	-1.070428	1.002162	-0.247982
C49	C	-1.029111	0.961817	-0.292901
C50	C	-0.992881	0.848777	-0.332238
C51	C	-1.032134	0.887112	-0.289574
C52	C	-1.046029	0.337442	-1.010939
C53	C	-1.042766	0.340442	-0.937854
C54	C	-0.994530	0.384700	-0.905110
C55	C	-0.949557	0.425966	-0.945454
C56	C	-0.952823	0.422970	-1.018537
C57	C	-0.982340	0.395892	-0.684635
C58	C	-0.979076	0.398884	-0.611546
C59	C	-1.072286	0.313360	-0.603951
C60	C	-1.075545	0.310364	-0.677036
C61	C	-1.030575	0.351633	-0.717374
C62	C	-0.991193	0.387767	-0.830405
C63	C	-1.033916	0.348570	-0.792077
C64	C	-1.004381	0.375705	-0.129074
C65	C	-1.001058	0.378703	-0.051278
H66	H	-0.272546	0.464543	-0.222250
H67	H	-0.910285	0.462006	-0.918787
C68	C	-0.764594	0.259231	-0.411309
C69	C	-0.844980	0.262793	-0.408019
C70	C	-0.889410	0.213398	-0.453508
C71	C	-0.853454	0.160440	-0.502287
C72	C	-0.773063	0.156876	-0.505579
C73	C	-0.728633	0.206271	-0.460089
H74	H	-0.871601	0.301998	-0.371908
H75	H	-0.948921	0.216037	-0.451072
H76	H	-0.886344	0.123875	-0.535961
H77	H	-0.746443	0.117671	-0.541689
H78	H	-0.669122	0.203632	-0.462526
H79	H	-1.108899	0.279762	-0.571101
C80	C	-0.912083	0.616250	-0.419970
C81	C	-0.831869	0.623066	-0.417879
C82	C	-0.786418	0.578682	-0.467283
C83	C	-0.821180	0.527481	-0.518779
C84	C	-0.901399	0.520663	-0.520872
C85	C	-0.946850	0.565047	-0.471468
H86	H	-0.806131	0.660970	-0.379757
H87	H	-0.727035	0.583729	-0.465734
H88	H	-0.787535	0.494625	-0.555351
H89	H	-0.927136	0.482759	-0.558994
H90	H	-1.006233	0.559999	-0.473018
C91	C	-0.594954	0.447822	-0.237616
C92	C	-0.601673	0.445689	-0.157403
C93	C	-0.557249	0.495086	-0.111908
C94	C	-0.506107	0.546616	-0.146627
C95	C	-0.499386	0.548750	-0.226845
C96	C	-0.543809	0.499353	-0.272339
H97	H	-0.639533	0.407542	-0.131698
H98	H	-0.562225	0.493506	-0.052526
H99	H	-0.473222	0.583183	-0.112950
H100	H	-0.461525	0.586897	-0.252549
H101	H	-0.538833	0.500934	-0.331721
H102	H	-0.419097	0.301621	-0.372322
C103	C	-0.905880	0.769732	-0.426809
C104	C	-0.826479	0.756453	-0.423825
C105	C	-0.777776	0.792464	-0.476809
C106	C	-0.808475	0.841754	-0.532776
C107	C	-0.887880	0.855035	-0.535762
C108	C	-0.936583	0.819024	-0.482779
H109	H	-0.803751	0.719963	-0.382393
H110	H	-0.718995	0.782632	-0.474598
H111	H	-0.772422	0.868411	-0.571998
H112	H	-0.910608	0.891525	-0.577194
H113	H	-0.995364	0.828856	-0.484989
H114	H	-1.085304	0.301397	-1.037594
H115	H	-1.101118	1.108106	-0.214667
H116	H	-0.520230	0.428834	-0.255129
H117	H	-1.073817	0.774180	-0.244170
C118	C	-1.091824	0.632236	-0.224500
C119	C	-1.061129	0.582952	-0.168526
C120	C	-1.109834	0.546944	-0.115543
C121	C	-1.189235	0.560221	-0.118533
C122	C	-1.219935	0.609509	-0.174508
C123	C	-1.171230	0.645516	-0.227492
H124	H	-1.002348	0.573121	-0.166311
H125	H	-1.087107	0.510458	-0.074106
H126	H	-1.225290	0.533567	-0.079311
H127	H	-1.278716	0.619339	-0.176724
H128	H	-1.193956	0.682002	-0.268929
C129	C	-1.119127	0.966157	-0.194993
C130	C	-1.088420	0.916879	-0.139020
C131	C	-1.137116	0.880877	-0.086023
C132	C	-1.216517	0.894153	-0.089000
C133	C	-1.247228	0.943434	-0.144975
C134	C	-1.198533	0.979436	-0.197972
H135	H	-1.029639	0.907049	-0.136814
H136	H	-1.114381	0.844396	-0.044587
H137	H	-1.252564	0.867502	-0.049769
H138	H	-1.306009	0.953264	-0.147181
H139	H	-1.221267	1.015917	-0.239408
C140	C	-1.080833	0.851102	-0.236592
C141	C	-1.050126	0.801813	-0.180628
C142	C	-1.098823	0.765794	-0.127644
C143	C	-1.178225	0.779065	-0.130623
C144	C	-1.208935	0.828356	-0.186589
C145	C	-1.160239	0.864375	-0.239573
H146	H	-0.991344	0.791987	-0.178421
H147	H	-1.076088	0.729305	-0.086214
H148	H	-1.214273	0.752402	-0.091401
H149	H	-1.267718	0.838182	-0.188797
H150	H	-1.182974	0.900864	-0.281003
H151	H	-0.945721	0.429495	-0.717469
C152	C	-0.903354	0.468356	-1.062913
C153	C	-0.906946	0.465065	-1.143302
C154	C	-0.857477	0.510456	-1.187677
C155	C	-0.804416	0.559138	-1.151663
C156	C	-0.800821	0.562431	-1.071269
C157	C	-0.850290	0.517041	-1.026894
H158	H	-0.946227	0.429025	-1.169966
H159	H	-0.860139	0.508017	-1.247190
H160	H	-0.767796	0.592739	-1.184512
H161	H	-0.761540	0.598471	-1.044606
H162	H	-0.847629	0.519479	-0.967382
C163	C	-0.277166	0.281987	-0.390413
C164	C	-0.290524	0.285006	-0.469806
C165	C	-0.254550	0.232052	-0.518582
C166	C	-0.205218	0.176080	-0.487965
C167	C	-0.191857	0.173059	-0.408567
C168	C	-0.227831	0.226013	-0.359791
H169	H	-0.327045	0.326442	-0.492474
H170	H	-0.264441	0.234289	-0.577357
H171	H	-0.178588	0.136880	-0.524072
H172	H	-0.155336	0.131623	-0.385899
H173	H	-0.217940	0.223776	-0.301016
H174	H	-0.956832	0.875441	-0.371455
H175	H	-1.073193	0.312538	-0.818741
H176	H	-0.620458	0.266192	-0.404928
H177	H	-0.505359	0.307781	-0.366626
H178	H	-0.939779	0.434911	-0.584888
C179	C	-0.938144	0.436455	-0.794374
C180	C	-0.882224	0.405753	-0.745016
C181	C	-0.829185	0.454447	-0.708979
C182	C	-0.832064	0.533844	-0.722299
C183	C	-0.887986	0.564550	-0.771659
C184	C	-0.941026	0.515856	-0.807697
H185	H	-0.880091	0.346975	-0.735154
H186	H	-0.787787	0.431716	-0.672439
H187	H	-0.792801	0.569890	-0.695622
H188	H	-0.890120	0.623328	-0.781522
H189	H	-0.982423	0.538587	-0.844237
C190	C	-1.092234	0.295050	-0.893484
C191	C	-1.090259	0.214830	-0.900256
C192	C	-1.139730	0.169435	-0.855888
C193	C	-1.191178	0.204260	-0.804749
C194	C	-1.193155	0.284484	-0.797975
C195	C	-1.143684	0.329879	-0.842343
H196	H	-1.052172	0.189047	-0.938114
H197	H	-1.138266	0.110048	-0.860903
H198	H	-1.227799	0.170656	-0.771905
H199	H	-1.231241	0.310268	-0.760117
H200	H	-1.145148	0.389266	-0.837328
H201	H	-0.739073	0.440864	-0.243996
H202	H	-0.405133	0.470421	-0.216817
H203	H	-0.945844	1.094294	-0.383554
H204	H	-0.951197	0.961707	-0.377642
H205	H	-1.114828	0.274328	-0.703692
