data_functionalizedCrystal
_audit_creation_method	'MofGen! by Chris Wilmer'
_symmetry_space_group_name_H-M	'P1'
_symmetry_Int_Tables_number	1
_symmetry_cell_setting	triclinic
loop_
_symmetry_equiv_pos_as_xyz
  x,y,z
_cell_length_a	16.109301
_cell_length_b	19.288865
_cell_length_c	17.766277
_cell_angle_alpha	90.011603
_cell_angle_beta	89.990646
_cell_angle_gamma	96.701136
loop_
_atom_site_label
_atom_site_type_symbol
_atom_site_fract_x
_atom_site_fract_y
_atom_site_fract_z
O1	O	1.102832	-0.089282	-0.062603
O2	O	0.860732	-0.100392	-0.062605
O3	O	0.988778	0.006277	-0.062589
O4	O	0.974787	-0.195951	-0.062619
O5	O	0.988755	0.006282	0.062599
O6	O	0.860710	-0.100387	0.062583
O7	O	1.102810	-0.089276	0.062586
Cu8	Cu	0.981758	-0.094831	0.074015
Cu9	Cu	0.981784	-0.094838	-0.074035
O10	O	0.974764	-0.195945	0.062569
C11	C	0.829748	-0.099940	-0.000011
C12	C	0.737457	-0.098590	-0.000012
C13	C	0.988316	0.032157	0.000007
C14	C	0.986965	0.109264	0.000014
C15	C	1.133794	-0.089729	-0.000010
C16	C	1.226085	-0.091078	-0.000015
C17	C	1.448563	-0.030921	-0.000002
C18	C	1.535279	-0.032194	0.000000
C19	C	1.514972	-0.158753	-0.000022
C20	C	1.428258	-0.157479	-0.000019
C21	C	1.395056	-0.093561	-0.000013
C22	C	1.568486	-0.096108	-0.000013
C23	C	1.662507	-0.097489	-0.000011
C24	C	1.301029	-0.092179	-0.000014
C25	C	0.975226	-0.221825	-0.000029
C26	C	0.976577	-0.298932	-0.000040
N27	N	0.981745	-0.094826	0.178145
C28	C	1.062096	0.153781	0.000018
C29	C	1.060827	0.226231	0.000007
C30	C	0.984421	0.254161	0.000005
C31	C	0.909280	0.209634	-0.000004
C32	C	0.910552	0.137185	0.000001
C33	C	0.924350	0.362593	0.043855
C34	C	0.923082	0.435041	0.043856
C35	C	0.980496	0.477616	-0.000012
C36	C	1.039193	0.447735	-0.043870
C37	C	1.040465	0.375287	-0.043865
C38	C	0.983034	0.332718	0.000000
C39	C	1.054256	0.600692	-0.000021
C40	C	1.052983	0.673143	-0.000038
C41	C	0.901434	0.656544	-0.000040
C42	C	0.902709	0.584095	-0.000031
C43	C	0.979122	0.556173	-0.000018
N44	N	0.981803	-0.094837	-0.178165
C45	C	1.038462	-0.047616	0.217540
C46	C	1.038467	-0.047613	0.296341
C47	C	0.981763	-0.094832	0.335746
C48	C	0.925035	-0.142045	0.296342
C49	C	0.925026	-0.142042	0.217542
C50	C	0.970632	-0.158093	0.460575
C51	C	0.970647	-0.158096	0.539373
C52	C	0.981785	-0.094840	0.578792
C53	C	0.992926	-0.031577	0.539403
C54	C	0.992917	-0.031575	0.460602
C55	C	0.981765	-0.094840	0.421192
C56	C	1.038510	-0.047623	0.703632
C57	C	1.038509	-0.047619	0.782436
C58	C	0.925081	-0.142057	0.782435
C59	C	0.925078	-0.142055	0.703633
C60	C	0.981797	-0.094839	0.664237
H61	H	1.421533	0.021126	0.000005
H62	H	0.961548	-0.209607	0.428486
H63	H	0.878865	-0.180490	0.328430
F64	F	1.098872	0.002631	0.661703
H65	H	1.088256	0.350962	-0.079577
F66	F	1.143422	0.124068	0.000016
H67	H	0.847071	0.232379	-0.000006
F68	F	0.864658	-0.192292	0.175614
H69	H	1.578842	0.018814	0.000010
F70	F	1.371307	-0.224153	-0.000027
F71	F	0.864716	-0.192305	0.661704
H72	H	1.122009	0.262483	0.000007
H73	H	1.542016	-0.210793	-0.000029
F74	F	1.100302	0.493041	-0.090561
H75	H	0.849369	0.100939	-0.000003
F76	F	1.135580	0.570973	-0.000004
H77	H	1.114166	0.709389	-0.000038
H78	H	0.839224	0.679284	-0.000045
H79	H	0.841529	0.547848	-0.000031
H80	H	1.084644	-0.009169	0.185465
F81	F	1.098873	0.002634	0.824363
H82	H	0.877594	0.327934	0.079582
F83	F	0.860615	0.466835	0.090535
F84	F	1.004767	0.035752	0.418684
F85	F	1.098836	0.002637	0.338274
H86	H	1.001995	0.019932	0.571496
H87	H	0.878909	-0.180500	0.814518
F88	F	0.958795	-0.225426	0.581287
