data_functionalizedCrystal
_audit_creation_method	'MofGen! by Chris Wilmer'
_symmetry_space_group_name_H-M	'P1'
_symmetry_Int_Tables_number	1
_symmetry_cell_setting	triclinic
loop_
_symmetry_equiv_pos_as_xyz
  x,y,z
_cell_length_a	16.109301
_cell_length_b	10.489741
_cell_length_c	15.186229
_cell_angle_alpha	89.996534
_cell_angle_beta	89.999362
_cell_angle_gamma	84.000327
loop_
_atom_site_label
_atom_site_type_symbol
_atom_site_fract_x
_atom_site_fract_y
_atom_site_fract_z
O1	O	1.104141	0.163947	-0.073172
O2	O	0.862205	0.184350	-0.073186
O3	O	0.988678	-0.011529	-0.073174
O4	O	0.977668	0.359826	-0.073185
O5	O	0.988670	-0.011532	0.073284
O6	O	0.862196	0.184347	0.073271
O7	O	1.104133	0.163944	0.073285
Zn8	Zn	0.983163	0.174145	0.096531
Zn9	Zn	0.983174	0.174149	-0.096433
O10	O	0.977659	0.359823	0.073272
C11	C	0.831221	0.183522	0.000041
C12	C	0.738910	0.181044	0.000035
C13	C	0.987842	-0.059050	0.000054
C14	C	0.985354	-0.200644	0.000053
C15	C	0.517319	0.291514	0.000042
C16	C	0.430584	0.289175	0.000048
C17	C	0.449026	0.056771	0.000051
C18	C	0.535759	0.059111	0.000052
C19	C	0.569903	0.176486	0.000043
C20	C	0.396435	0.171808	0.000048
C21	C	0.302393	0.169272	0.000054
C22	C	0.663950	0.179022	0.000038
C23	C	0.904883	-0.267616	0.000042
C24	C	0.942893	-0.360292	0.072255
C25	C	0.942920	-0.360264	-0.072141
C26	C	1.023397	-0.291454	0.072325
C27	C	1.023413	-0.291417	-0.072135
C28	C	1.061482	-0.384066	0.000096
C29	C	1.135117	0.164772	0.000056
C30	C	1.227427	0.167250	0.000056
C31	C	0.978495	0.407344	0.000042
C32	C	0.980983	0.548938	0.000038
N33	N	0.983162	0.174142	0.228224
N34	N	0.983183	0.174142	-0.228125
C35	C	1.039183	0.087436	0.453952
C36	C	1.039186	0.087433	0.546142
C37	C	0.927155	0.260852	0.546140
C38	C	0.927149	0.260848	0.453952
C39	C	0.983168	0.174141	0.407860
C40	C	0.983176	0.174142	0.592238
C41	C	0.983179	0.174140	0.692194
C42	C	0.983165	0.174142	0.307898
H43	H	0.545116	0.387088	0.000042
O44	O	0.379623	0.401032	0.000005
C45	C	0.428363	0.505124	0.000021
H46	H	0.492891	0.472724	-0.027707
H47	H	0.434754	0.541100	0.070283
C48	C	0.306546	0.653791	-0.023359
C49	C	0.385799	0.613999	-0.057423
H50	H	0.280290	0.720953	-0.058790
H51	H	0.273709	0.583663	-0.023367
H52	H	0.311884	0.683762	0.035191
H53	H	0.380460	0.584013	-0.115968
H54	H	0.418635	0.684124	-0.057427
H55	H	0.908840	-0.390810	0.133302
H56	H	0.881546	0.331449	0.583677
H57	H	1.084798	0.016828	0.583667
H58	H	0.881530	0.331455	0.416421
H59	H	1.084796	0.016832	0.416427
H60	H	0.421215	-0.038791	0.000064
H61	H	1.127704	-0.434450	0.000140
H62	H	0.838720	-0.217005	0.000110
O63	O	1.063883	-0.254991	-0.145055
C64	C	1.021258	-0.289673	-0.221046
H65	H	0.953413	-0.299913	-0.203749
H66	H	1.052140	-0.384807	-0.247392
C67	C	1.107956	-0.172640	-0.313076
C68	C	1.024626	-0.185205	-0.291833
H69	H	1.110037	-0.108203	-0.356743
H70	H	1.136676	-0.149277	-0.261880
H71	H	1.133682	-0.251925	-0.335026
H72	H	0.998906	-0.105926	-0.269873
H73	H	0.995902	-0.208552	-0.343028
H74	H	0.908865	-0.390732	-0.133197
O75	O	0.586726	-0.052752	0.000012
C76	C	0.537993	-0.156852	0.000034
H77	H	0.473464	-0.124459	-0.027696
H78	H	0.531603	-0.192834	0.070298
C79	C	0.659817	-0.305502	-0.023339
C80	C	0.580563	-0.265719	-0.057405
H81	H	0.686077	-0.372660	-0.058766
H82	H	0.692650	-0.235369	-0.023351
H83	H	0.654481	-0.335478	0.035213
H84	H	0.585901	-0.235729	-0.115951
H85	H	0.547732	-0.335850	-0.057404
H86	H	1.057413	-0.261117	0.133445
