data_functionalizedCrystal
_audit_creation_method	'MofGen! by Chris Wilmer'
_symmetry_space_group_name_H-M	'P1'
_symmetry_Int_Tables_number	1
_symmetry_cell_setting	triclinic
loop_
_symmetry_equiv_pos_as_xyz
  x,y,z
_cell_length_a	17.699083
_cell_length_b	9.565339
_cell_length_c	17.699083
_cell_angle_alpha	90.000658
_cell_angle_beta	83.283015
_cell_angle_gamma	89.997515
loop_
_atom_site_label
_atom_site_type_symbol
_atom_site_fract_x
_atom_site_fract_y
_atom_site_fract_z
O1	O	1.004075	0.116067	0.095706
O2	O	1.254075	0.366067	0.345706
O3	O	1.504075	0.616067	0.595706
O4	O	1.754075	0.866067	0.845706
O5	O	0.783697	0.116113	0.108158
O6	O	1.033697	0.366113	0.358158
O7	O	1.283697	0.616113	0.608158
O8	O	1.533697	0.866113	0.858158
O9	O	0.900112	0.116076	-0.008257
O10	O	1.150112	0.366076	0.241743
O11	O	1.400112	0.616076	0.491743
O12	O	1.650112	0.866076	0.741743
O13	O	0.887660	0.116103	0.212121
O14	O	1.137660	0.366103	0.462121
O15	O	1.387660	0.616103	0.712121
O16	O	1.637660	0.866103	0.962121
O17	O	0.900103	-0.116444	-0.008250
O18	O	1.150103	0.133556	0.241750
O19	O	1.400103	0.383556	0.491750
O20	O	1.650103	0.633556	0.741750
O21	O	0.783688	-0.116407	0.108166
O22	O	1.033688	0.133593	0.358166
O23	O	1.283688	0.383593	0.608166
O24	O	1.533688	0.633593	0.858166
O25	O	1.004066	-0.116453	0.095713
O26	O	1.254066	0.133547	0.345713
O27	O	1.504066	0.383547	0.595713
O28	O	1.754066	0.633547	0.845713
Zn29	Zn	0.893876	-0.153348	0.101940
Zn30	Zn	1.143876	0.096652	0.351940
Zn31	Zn	1.393876	0.346652	0.601940
Zn32	Zn	1.643876	0.596652	0.851940
Zn33	Zn	0.893888	0.153007	0.101931
Zn34	Zn	1.143888	0.403007	0.351931
Zn35	Zn	1.393888	0.653007	0.601931
Zn36	Zn	1.643888	0.903007	0.851931
O37	O	0.887651	-0.116417	0.212128
O38	O	1.137651	0.133583	0.462128
O39	O	1.387651	0.383583	0.712128
O40	O	1.637651	0.633583	0.962128
C41	C	0.755495	-0.000141	0.107716
C42	C	1.005495	0.249859	0.357716
C43	C	1.255495	0.499859	0.607716
C44	C	1.505495	0.749859	0.857716
C45	C	0.671477	-0.000124	0.106377
C46	C	0.921477	0.249876	0.356377
C47	C	1.171477	0.499876	0.606377
C48	C	1.421477	0.749876	0.856377
N49	N	0.893873	-0.362427	0.101946
N50	N	1.143873	-0.112427	0.351946
N51	N	1.393873	0.137573	0.601946
N52	N	1.643873	0.387573	0.851946
C53	C	0.622856	-0.000116	0.174710
C54	C	0.872856	0.249884	0.424710
C55	C	1.122856	0.499884	0.674710
C56	C	1.372856	0.749884	0.924710
C57	C	0.543913	-0.000134	0.173448
C58	C	0.793913	0.249866	0.423448
C59	C	1.043913	0.499866	0.673448
C60	C	1.293913	0.749866	0.923448
C61	C	0.513592	-0.000151	0.103852
C62	C	0.763592	0.249849	0.353852
C63	C	1.013592	0.499849	0.603852
C64	C	1.263592	0.749849	0.853852
C65	C	0.562219	-0.000163	0.035513
C66	C	0.812219	0.249837	0.285513
C67	C	1.062219	0.499837	0.535513
C68	C	1.312219	0.749837	0.785513
C69	C	0.641161	-0.000155	0.036776
C70	C	0.891161	0.249845	0.286776
C71	C	1.141161	0.499845	0.536776
C72	C	1.391161	0.749845	0.786776
C73	C	0.243856	-0.000198	0.030418
C74	C	0.493856	0.249802	0.280418
C75	C	0.743856	0.499802	0.530418
C76	C	0.993856	0.749802	0.780418
C77	C	0.164908	-0.000202	0.029160
C78	C	0.414908	0.249798	0.279160
C79	C	0.664908	0.499798	0.529160
C80	C	0.914908	0.749798	0.779160
C81	C	0.146608	-0.000178	0.167090
C82	C	0.396608	0.249822	0.417090
C83	C	0.646608	0.499822	0.667090
C84	C	0.896608	0.749822	0.917090
C85	C	0.225550	-0.000170	0.168353
C86	C	0.475550	0.249830	0.418353
C87	C	0.725550	0.499830	0.668353
C88	C	0.975550	0.749830	0.918353
C89	C	0.274170	-0.000189	0.100015
C90	C	0.524170	0.249811	0.350015
C91	C	0.774170	0.499811	0.600015
C92	C	1.024170	0.749811	0.850015
C93	C	0.359769	-0.000172	0.101384
C94	C	0.609769	0.249828	0.351384
C95	C	0.859769	0.499828	0.601384
C96	C	1.109769	0.749828	0.851384
C97	C	0.427995	-0.000158	0.102481
C98	C	0.677995	0.249842	0.352481
C99	C	0.927995	0.499842	0.602481
C100	C	1.177995	0.749842	0.852481
C101	C	0.840018	-0.453613	0.155767
C102	C	1.090018	-0.203613	0.405767
C103	C	1.340018	0.046387	0.655767
C104	C	1.590018	0.296387	0.905767
C105	C	0.908386	-0.546805	0.170327
C106	C	1.158386	-0.296805	0.420327
C107	C	1.408386	-0.046805	0.670327
C108	C	1.658386	0.203195	0.920327
C109	C	0.825535	-0.546791	0.087392
C110	C	1.075535	-0.296791	0.337392
C111	C	1.325535	-0.046791	0.587392
C112	C	1.575535	0.203209	0.837392
C113	C	0.962274	-0.453567	0.116541
C114	C	1.212274	-0.203567	0.366541
C115	C	1.462274	0.046433	0.616541
C116	C	1.712274	0.296433	0.866541
C117	C	0.879379	-0.453545	0.033576
C118	C	1.129379	-0.203545	0.283576
C119	C	1.379379	0.046455	0.533576
C120	C	1.629379	0.296455	0.783576
C121	C	0.947796	-0.546694	0.048107
C122	C	1.197796	-0.296694	0.298107
C123	C	1.447796	-0.046694	0.548107
C124	C	1.697796	0.203306	0.798107
C125	C	1.032268	-0.000196	0.096156
C126	C	1.282268	0.249804	0.346156
C127	C	1.532268	0.499804	0.596156
C128	C	1.782268	0.749804	0.846156
C129	C	1.116286	-0.000204	0.097494
C130	C	1.366286	0.249796	0.347494
C131	C	1.616286	0.499796	0.597494
C132	C	1.866286	0.749796	0.847494
C133	C	0.899662	-0.000184	-0.036451
C134	C	1.149662	0.249816	0.213549
C135	C	1.399662	0.499816	0.463549
C136	C	1.649662	0.749816	0.713549
C137	C	0.898323	-0.000184	-0.120469
C138	C	1.148323	0.249816	0.129531
C139	C	1.398323	0.499816	0.379531
C140	C	1.648323	0.749816	0.629531
N141	N	0.893896	0.362087	0.101919
N142	N	1.143896	0.612087	0.351919
N143	N	1.393896	0.862087	0.601919
N144	N	1.643896	1.112087	0.851919
C145	C	0.966656	-0.000201	-0.169090
C146	C	1.216656	0.249799	0.080910
C147	C	1.466656	0.499799	0.330910
C148	C	1.716656	0.749799	0.580910
C149	C	0.965394	-0.000188	-0.248033
C150	C	1.215394	0.249812	0.001967
C151	C	1.465394	0.499812	0.251967
C152	C	1.715394	0.749812	0.501967
C153	C	0.895798	-0.000169	-0.278354
C154	C	1.145798	0.249831	-0.028354
C155	C	1.395798	0.499831	0.221646
C156	C	1.645798	0.749831	0.471646
C157	C	0.827459	-0.000149	-0.229727
C158	C	1.077459	0.249851	0.020273
C159	C	1.327459	0.499851	0.270273
C160	C	1.577459	0.749851	0.520273
C161	C	0.828722	-0.000151	-0.150785
C162	C	1.078722	0.249849	0.099215
C163	C	1.328722	0.499849	0.349215
C164	C	1.578722	0.749849	0.599215
C165	C	0.822364	-0.000136	-0.548090
C166	C	1.072364	0.249864	-0.298090
C167	C	1.322364	0.499864	-0.048090
C168	C	1.572364	0.749864	0.201910
C169	C	0.821106	-0.000138	-0.627038
C170	C	1.071106	0.249862	-0.377038
C171	C	1.321106	0.499862	-0.127038
C172	C	1.571106	0.749862	0.122962
C173	C	0.959036	-0.000173	-0.645338
C174	C	1.209036	0.249827	-0.395338
C175	C	1.459036	0.499827	-0.145338
C176	C	1.709036	0.749827	0.104662
C177	C	0.960299	-0.000175	-0.566396
C178	C	1.210299	0.249825	-0.316396
C179	C	1.460299	0.499825	-0.066396
C180	C	1.710299	0.749825	0.183604
C181	C	0.891961	-0.000148	-0.517776
C182	C	1.141961	0.249852	-0.267776
C183	C	1.391961	0.499852	-0.017776
C184	C	1.641961	0.749852	0.232224
C185	C	0.893330	-0.000159	-0.432177
C186	C	1.143330	0.249841	-0.182177
C187	C	1.393330	0.499841	0.067823
C188	C	1.643330	0.749841	0.317823
C189	C	0.894427	-0.000168	-0.363951
C190	C	1.144427	0.249832	-0.113951
C191	C	1.394427	0.499832	0.136049
C192	C	1.644427	0.749832	0.386049
C193	C	0.888102	-0.000153	0.240322
C194	C	1.138102	0.249847	0.490322
C195	C	1.388102	0.499847	0.740322
C196	C	1.638102	0.749847	0.990322
C197	C	0.889440	-0.000144	0.324340
C198	C	1.139440	0.249856	0.574340
C199	C	1.389440	0.499856	0.824340
C200	C	1.639440	0.749856	1.074340
H201	H	0.647537	-0.000102	0.231384
H202	H	0.897537	0.249898	0.481384
H203	H	1.147537	0.499898	0.731384
H204	H	1.397537	0.749898	0.981384
F205	F	0.747028	-0.000115	-0.659305
F206	F	0.997028	0.249885	-0.409305
F207	F	1.247028	0.499885	-0.159305
F208	F	1.497028	0.749885	0.090695
F209	F	0.132641	-0.000220	-0.044918
F210	F	0.382641	0.249780	0.205082
F211	F	0.632641	0.499780	0.455082
F212	F	0.882641	0.749780	0.705082
F213	F	0.863307	-0.399957	-0.041959
F214	F	1.113307	-0.149957	0.208041
F215	F	1.363307	0.100043	0.458041
F216	F	1.613307	0.350043	0.708041
F217	F	0.692907	-0.000168	-0.035954
F218	F	0.942907	0.249832	0.214046
F219	F	1.192907	0.499832	0.464046
F220	F	1.442907	0.749832	0.714046
H221	H	0.920661	-0.587768	0.228135
H222	H	1.170661	-0.337768	0.478135
H223	H	1.420661	-0.087768	0.728135
H224	H	1.670661	0.162232	0.978135
F225	F	1.031768	-0.000198	-0.697089
F226	F	1.281768	0.249802	-0.447089
F227	F	1.531768	0.499802	-0.197089
F228	F	1.781768	0.749802	0.052911
F229	F	1.007400	-0.599787	-0.011402
F230	F	1.257400	-0.349787	0.238598
F231	F	1.507400	-0.099787	0.488598
F232	F	1.757400	0.150213	0.738598
H233	H	0.766718	-0.000114	-0.508512
H234	H	1.016718	0.249886	-0.258512
H235	H	1.266718	0.499886	-0.008512
H236	H	1.516718	0.749886	0.241488
F237	F	0.749985	-0.600319	0.071315
F238	F	0.999985	-0.350319	0.321315
F239	F	1.249985	-0.100319	0.571315
F240	F	1.499985	0.149681	0.821315
F241	F	0.753389	-0.000113	-0.261998
F242	F	1.003389	0.249887	-0.011998
F243	F	1.253389	0.499887	0.238002
F244	F	1.503389	0.749887	0.488002
H245	H	1.023330	-0.000225	-0.144409
H246	H	1.273330	0.249775	0.105591
H247	H	1.523330	0.499775	0.355591
H248	H	1.773330	0.749775	0.605591
H249	H	0.107012	-0.000169	0.222734
H250	H	0.357012	0.249831	0.472734
H251	H	0.607012	0.499831	0.722734
H252	H	0.857012	0.749831	0.972734
H253	H	1.021038	-0.000204	-0.287618
H254	H	1.271038	0.249796	-0.037618
H255	H	1.521038	0.499796	0.212382
H256	H	1.771038	0.749796	0.462382
H257	H	0.537526	-0.000196	-0.021154
H258	H	0.787526	0.249804	0.228846
H259	H	1.037526	0.499804	0.478846
H260	H	1.287526	0.749804	0.728846
H261	H	0.794517	-0.412744	0.201323
H262	H	1.044517	-0.162744	0.451323
H263	H	1.294517	0.087256	0.701323
H264	H	1.544517	0.337256	0.951323
F265	F	1.037843	-0.400273	0.132704
F266	F	1.287843	-0.150273	0.382704
F267	F	1.537843	0.099727	0.632704
F268	F	1.787843	0.349727	0.882704
H269	H	1.016971	-0.000198	-0.541714
H270	H	1.266971	0.249802	-0.291714
H271	H	1.516971	0.499802	-0.041714
H272	H	1.766971	0.749802	0.208286
H273	H	0.504328	-0.000126	0.229092
H274	H	0.754328	0.249874	0.479092
H275	H	1.004328	0.499874	0.729092
H276	H	1.254328	0.749874	0.979092
F277	F	0.257815	-0.000144	0.242427
F278	F	0.507815	0.249856	0.492427
F279	F	0.757815	0.499856	0.742427
F280	F	1.007815	0.749856	0.992427
H281	H	0.283434	-0.000215	-0.025228
H282	H	0.533434	0.249785	0.224772
H283	H	0.783434	0.499785	0.474772
H284	H	1.033434	0.749785	0.724772
F285	F	0.755992	-0.000130	-0.099039
F286	F	1.005992	0.249870	0.150961
F287	F	1.255992	0.499870	0.400961
F288	F	1.505992	0.749870	0.650961
