data_functionalizedCrystal
_audit_creation_method	'MofGen! by Chris Wilmer'
_symmetry_space_group_name_H-M	'P1'
_symmetry_Int_Tables_number	1
_symmetry_cell_setting	triclinic
loop_
_symmetry_equiv_pos_as_xyz
  x,y,z
_cell_length_a	11.026644
_cell_length_b	10.868271
_cell_length_c	11.026607
_cell_angle_alpha	90.002960
_cell_angle_beta	71.414918
_cell_angle_gamma	89.995680
loop_
_atom_site_label
_atom_site_type_symbol
_atom_site_fract_x
_atom_site_fract_y
_atom_site_fract_z
O1	O	-1.726718	0.102345	0.533595
O2	O	-1.360141	0.102341	0.472837
O3	O	-1.513048	0.102338	0.319926
O4	O	-1.573811	0.102348	0.686505
O5	O	-1.513030	-0.102306	0.319915
O6	O	-1.360123	-0.102303	0.472826
O7	O	-1.726700	-0.102300	0.533583
Zn8	Zn	-1.543409	-0.134793	0.503203
Zn9	Zn	-1.543432	0.134835	0.503218
O10	O	-1.573793	-0.102297	0.686494
C11	C	-1.312473	0.000018	0.461623
C12	C	-1.170460	0.000017	0.428208
C13	C	-0.970034	0.000020	0.485951
C14	C	-1.116812	0.000020	0.520489
N15	N	-1.543402	-0.318808	0.503194
C16	C	-1.543425	-0.569814	0.503214
C17	C	-1.543409	-0.430136	0.503206
C18	C	-0.774368	0.000022	0.544800
C19	C	-0.916381	0.000022	0.578219
C20	C	-1.501829	0.000017	0.272261
C21	C	-1.468413	0.000021	0.130248
N22	N	-1.543447	0.318849	0.503218
C23	C	-1.560681	0.000024	0.076597
C24	C	-1.526146	0.000028	-0.070181
C25	C	-1.585012	0.000027	0.734159
C26	C	-1.618428	0.000031	0.876173
H27	H	-1.107737	0.000096	0.323638
Br28	Br	-1.221349	0.000009	0.694781
Br29	Br	-0.865493	0.000002	0.311666
Br30	Br	-1.792720	0.000043	-0.019291
H31	H	-0.979111	0.000018	0.682782
Br32	Br	-1.734965	0.000038	0.181141
Br33	Br	-1.351856	0.000044	-0.174720
Br34	Br	-1.294129	0.000038	0.025704
