data_functionalizedCrystal
_audit_creation_method	'MofGen! by Chris Wilmer'
_symmetry_space_group_name_H-M	'P1'
_symmetry_Int_Tables_number	1
_symmetry_cell_setting	triclinic
loop_
_symmetry_equiv_pos_as_xyz
  x,y,z
_cell_length_a	17.699083
_cell_length_b	27.732048
_cell_length_c	16.176319
_cell_angle_alpha	89.988239
_cell_angle_beta	89.998611
_cell_angle_gamma	82.962835
loop_
_atom_site_label
_atom_site_type_symbol
_atom_site_fract_x
_atom_site_fract_y
_atom_site_fract_z
O1	O	1.003540	0.061127	-0.068640
O2	O	0.783091	0.069080	-0.068668
O3	O	0.900162	-0.005269	-0.068637
O4	O	0.886469	0.135475	-0.068670
O5	O	0.900146	-0.005273	0.068856
O6	O	0.783075	0.069075	0.068825
O7	O	1.003524	0.061122	0.068853
Cu8	Cu	0.893298	0.065098	0.081394
Cu9	Cu	0.893317	0.065104	-0.081208
O10	O	0.886453	0.135471	0.068823
C11	C	0.754889	0.068792	0.000075
C12	C	0.670878	0.067938	0.000065
C13	C	0.621873	0.111579	0.000055
C14	C	0.542936	0.110772	0.000066
C15	C	0.513007	0.066325	0.000081
C16	C	0.562019	0.022680	0.000094
C17	C	0.640954	0.023487	0.000089
C18	C	0.243685	0.019426	0.000115
C19	C	0.164744	0.018623	0.000117
C20	C	0.145667	0.106712	0.000092
C21	C	0.224602	0.107518	0.000087
C22	C	0.273607	0.063874	0.000104
C23	C	0.359199	0.064749	0.000094
C24	C	0.427418	0.065450	0.000085
C25	C	0.899867	-0.023279	0.000112
C26	C	0.899001	-0.076937	0.000118
C27	C	0.962734	-0.415523	0.000084
C28	C	0.959522	-0.617194	0.000072
O29	O	1.017801	-0.648240	0.000043
N30	N	0.890104	-0.636567	0.000064
C31	C	0.821484	-0.605520	0.000053
O32	O	0.762366	-0.626625	0.000038
C33	C	0.824696	-0.403849	0.000059
C34	C	0.894119	-0.384479	0.000076
C35	C	1.032151	-0.396152	0.000100
C36	C	1.032953	-0.345737	0.000107
C37	C	0.964338	-0.314693	0.000099
C38	C	0.894921	-0.334064	0.000083
C39	C	0.756076	-0.372802	0.000043
C40	C	0.756886	-0.322382	0.000042
C41	C	0.826308	-0.303012	0.000059
C42	C	0.827108	-0.252605	0.000083
N43	N	0.896526	-0.233232	0.000091
C44	C	0.965141	-0.264276	0.000099
C45	C	0.819802	-0.711400	0.000052
C46	C	0.818999	-0.761817	0.000052
C47	C	0.957038	-0.773488	0.000069
C48	C	0.957840	-0.723070	0.000075
C49	C	0.889220	-0.692026	0.000060
C50	C	0.966820	-0.158401	0.000115
C51	C	0.967616	-0.107981	0.000126
C52	C	0.829578	-0.096314	0.000105
C53	C	0.828781	-0.146730	0.000098
C54	C	0.897409	-0.177772	0.000101
O55	O	0.768860	-0.221531	0.000102
O56	O	1.024251	-0.243161	0.000096
C57	C	0.961931	-0.465938	0.000077
C58	C	0.892514	-0.485309	0.000061
C59	C	0.823899	-0.454265	0.000053
C60	C	0.891711	-0.535726	0.000061
C61	C	0.960326	-0.566770	0.000069
C62	C	1.029744	-0.547397	0.000077
C63	C	1.030546	-0.496982	0.000085
C64	C	0.754481	-0.473638	0.000045
C65	C	0.753685	-0.524053	0.000038
C66	C	0.822300	-0.555097	0.000046
C67	C	1.031726	0.061410	0.000108
C68	C	1.115737	0.062264	0.000113
C69	C	0.886748	0.153481	0.000072
C70	C	0.887614	0.207139	0.000060
N71	N	0.893290	0.065094	0.195759
N72	N	0.893331	0.065104	-0.195573
C73	C	0.945145	0.032186	0.239037
C74	C	0.945149	0.032185	0.325584
C75	C	0.893301	0.065096	0.368851
C76	C	0.841441	0.098005	0.325568
C77	C	0.841434	0.098003	0.239022
C78	C	0.841467	0.098014	0.674596
C79	C	0.841479	0.098015	0.761147
C80	C	0.945181	0.032197	0.761157
C81	C	0.945174	0.032194	0.674612
C82	C	0.893312	0.065102	0.631336
C83	C	0.893308	0.065102	0.537491
C84	C	0.893309	0.065099	0.462694
H85	H	0.283576	-0.016112	0.000129
C86	C	0.529100	-0.026213	0.000109
C87	C	0.442276	-0.027103	0.000108
C88	C	0.409359	-0.075998	0.000120
C89	C	0.463267	-0.124003	0.000132
C90	C	0.550097	-0.123115	0.000133
C91	C	0.583013	-0.074220	0.000121
H92	H	0.402366	0.008434	0.000099
H93	H	0.345082	-0.076656	0.000119
H94	H	0.438900	-0.160198	0.000141
H95	H	0.590007	-0.158652	0.000142
H96	H	0.647291	-0.073562	0.000122
C97	C	1.002191	-0.004011	0.373194
C98	C	1.059245	-0.040200	0.325608
C99	C	1.116288	-0.076399	0.373220
C100	C	1.116277	-0.076408	0.468417
C101	C	1.059221	-0.040217	0.516007
C102	C	1.002178	-0.004019	0.468396
H103	H	1.059254	-0.040195	0.255133
H104	H	1.158525	-0.103189	0.337990
H105	H	1.158504	-0.103204	0.503662
H106	H	1.059212	-0.040223	0.586482
H107	H	0.959941	0.022772	0.503626
C108	C	1.002226	-0.004008	0.808763
C109	C	1.002238	-0.004012	0.903959
C110	C	1.059283	-0.040214	0.951561
C111	C	1.116317	-0.076411	0.903967
C112	C	1.116307	-0.076408	0.808765
C113	C	1.059262	-0.040206	0.761163
H114	H	0.960017	0.022785	0.939196
H115	H	1.059290	-0.040216	1.022036
H116	H	1.158545	-0.103210	0.939205
H117	H	1.158529	-0.103205	0.773528
H118	H	1.059255	-0.040204	0.690688
H119	H	0.772252	-0.162502	0.000108
C120	C	1.106913	-0.475678	0.000096
C121	C	1.126462	-0.442616	-0.071296
C122	C	1.202832	-0.421316	-0.071287
C123	C	1.259654	-0.433079	0.000114
C124	C	1.240106	-0.466143	0.071511
C125	C	1.163736	-0.487443	0.071502
H126	H	1.084398	-0.433906	-0.124157
H127	H	1.217302	-0.396840	-0.124141
H128	H	1.316188	-0.417312	0.000121
H129	H	1.282171	-0.474852	0.124371
H130	H	1.149266	-0.511919	0.124356
H131	H	0.140380	-0.017574	0.000131
H132	H	1.022703	-0.183670	0.000114
C133	C	1.034206	-0.701765	0.000085
C134	C	1.053755	-0.668705	-0.071310
C135	C	1.130124	-0.647404	-0.071302
C136	C	1.186944	-0.659162	0.000102
C137	C	1.167396	-0.692224	0.071503
C138	C	1.091027	-0.713526	0.071495
H139	H	1.011692	-0.659999	-0.124172
H140	H	1.144594	-0.622929	-0.124158
H141	H	1.243477	-0.643394	0.000108
H142	H	1.209459	-0.700930	0.124365
H143	H	1.076557	-0.738000	0.124351
C144	C	0.784407	0.134208	0.373157
C145	C	0.784446	0.134238	0.468354
C146	C	0.727412	0.170443	0.515941
C147	C	0.670338	0.206618	0.468331
C148	C	0.670297	0.206590	0.373129
C149	C	0.727332	0.170385	0.325542
H150	H	0.826697	0.107457	0.503602
H151	H	0.727442	0.170463	0.586416
H152	H	0.628118	0.233419	0.503558
H153	H	0.628046	0.233371	0.337881
H154	H	0.727301	0.170364	0.255067
H155	H	0.646234	0.147773	0.000042
H156	H	0.503039	0.146309	0.000057
H157	H	1.024151	-0.092213	0.000142
C158	C	0.679000	-0.439493	0.000042
C159	C	0.660561	-0.403241	0.071444
C160	C	0.585074	-0.369097	0.071447
C161	C	0.528027	-0.371206	0.000048
C162	C	0.546465	-0.407459	-0.071360
C163	C	0.621952	-0.441603	-0.071363
H164	H	0.702791	-0.401678	0.124303
H165	H	0.571425	-0.342260	0.124308
H166	H	0.472148	-0.345930	0.000050
H167	H	0.504235	-0.409022	-0.124218
H168	H	0.635600	-0.468440	-0.124224
C169	C	1.109321	-0.324436	0.000109
C170	C	1.166150	-0.336199	0.071503
C171	C	1.242524	-0.314903	0.071499
C172	C	1.262069	-0.281844	0.000100
C173	C	1.205238	-0.270079	-0.071300
C174	C	1.128864	-0.291375	-0.071295
H175	H	1.151684	-0.360673	0.124362
H176	H	1.284594	-0.323613	0.124354
H177	H	1.318605	-0.266080	0.000096
H178	H	1.219705	-0.245606	-0.124159
H179	H	1.086795	-0.282666	-0.124151
C180	C	0.677312	-0.545356	0.000021
C181	C	0.620469	-0.533615	0.071404
C182	C	0.544098	-0.554915	0.071378
C183	C	0.524571	-0.587955	-0.000031
C184	C	0.581416	-0.599698	-0.071419
C185	C	0.657786	-0.578398	-0.071393
H186	H	0.634923	-0.509155	0.124269
H187	H	0.502018	-0.546222	0.124224
H188	H	0.468037	-0.603723	-0.000050
H189	H	0.566962	-0.624158	-0.124285
H190	H	0.699866	-0.587090	-0.124240
H191	H	0.799256	0.124815	0.796374
C192	C	0.681401	-0.288235	0.000028
C193	C	0.624363	-0.290344	-0.071379
C194	C	0.548880	-0.256197	-0.071391
C195	C	0.530434	-0.219941	0.000005
C196	C	0.587473	-0.217831	0.071418
C197	C	0.662957	-0.251977	0.071430
H198	H	0.638016	-0.317184	-0.124236
H199	H	0.506655	-0.257760	-0.124256
H200	H	0.474557	-0.194664	-0.000004
H201	H	0.573820	-0.190991	0.124274
H202	H	0.705181	-0.250415	0.124295
H203	H	0.763920	-0.686128	0.000040
H204	H	0.248965	0.143712	0.000071
H205	H	0.105758	0.142249	0.000083
H206	H	0.680855	-0.012050	0.000096
H207	H	1.088028	-0.421424	0.000103
H208	H	1.012907	-0.798773	0.000076
H209	H	0.762468	-0.777584	0.000053
H210	H	0.799209	0.124800	0.203786
H211	H	0.699545	-0.388565	0.000024
H212	H	0.773714	-0.071029	0.000101
H213	H	1.085613	-0.572682	0.000087
H214	H	0.987368	0.005389	0.203814
H215	H	0.987396	0.005397	0.639386
H216	H	0.799241	0.124810	0.639367
