data_functionalizedCrystal
_audit_creation_method	'MofGen! by Chris Wilmer'
_symmetry_space_group_name_H-M	'P1'
_symmetry_Int_Tables_number	1
_symmetry_cell_setting	triclinic
loop_
_symmetry_equiv_pos_as_xyz
  x,y,z
_cell_length_a	15.995350
_cell_length_b	10.654550
_cell_length_c	9.130313
_cell_angle_alpha	89.997153
_cell_angle_beta	89.999925
_cell_angle_gamma	83.988653
loop_
_atom_site_label
_atom_site_type_symbol
_atom_site_fract_x
_atom_site_fract_y
_atom_site_fract_z
O1	O	-1.111925	-0.161870	0.121675
O2	O	-0.611925	0.338130	0.621675
O3	O	-0.868266	-0.181859	0.121705
O4	O	-0.368266	0.318141	0.621705
O5	O	-0.995697	0.010948	0.121680
O6	O	-0.495697	0.510948	0.621680
O7	O	-0.984493	-0.354677	0.121700
O8	O	-0.484493	0.145323	0.621700
O9	O	-0.995688	0.010948	-0.121919
O10	O	-0.495688	0.510948	0.378081
O11	O	-0.868256	-0.181859	-0.121894
O12	O	-0.368256	0.318141	0.378106
O13	O	-1.111915	-0.161870	-0.121924
O14	O	-0.611915	0.338130	0.378076
Cu15	Cu	-0.990085	-0.171865	-0.144152
Cu16	Cu	-0.490085	0.328135	0.355848
Cu17	Cu	-0.990096	-0.171865	0.143932
Cu18	Cu	-0.490096	0.328135	0.643932
O19	O	-0.984483	-0.354677	-0.121899
O20	O	-0.484483	0.145323	0.378101
C21	C	-0.837061	-0.181033	-0.000091
C22	C	-0.337061	0.318967	0.499909
C23	C	-0.744096	-0.178555	-0.000079
C24	C	-0.244096	0.321445	0.499921
C25	C	-0.994870	0.057735	-0.000119
C26	C	-0.494870	0.557735	0.499881
C27	C	-0.992409	0.197146	-0.000116
C28	C	-0.492409	0.697146	0.499884
C29	C	-1.143119	-0.162696	-0.000125
C30	C	-0.643119	0.337304	0.499875
C31	C	-1.236084	-0.165174	-0.000127
C32	C	-0.736084	0.334826	0.499873
C33	C	-0.406297	-0.169658	-0.000110
C34	C	0.093703	0.330342	0.499890
C35	C	-0.452934	-0.032344	-0.000661
C36	C	0.047066	0.467656	0.499339
C37	C	-0.549639	-0.034822	-0.000102
C38	C	-0.049639	0.465178	0.499898
C39	C	-0.573883	-0.174071	-0.000096
C40	C	-0.073883	0.325929	0.499904
C41	C	-0.533195	-0.241799	0.139009
C42	C	-0.033195	0.258201	0.639009
C43	C	-0.436539	-0.238349	0.139115
C44	C	0.063461	0.261651	0.639115
C45	C	-0.436206	-0.241187	-0.137902
C46	C	0.063794	0.258813	0.362098
C47	C	-0.533151	-0.241154	-0.139731
C48	C	-0.033151	0.258846	0.360269
C49	C	-0.668595	-0.176573	-0.000083
C50	C	-0.168595	0.323427	0.499917
C51	C	-0.311585	-0.167161	-0.000114
C52	C	0.188415	0.332839	0.499886
C53	C	-0.985311	-0.401464	-0.000097
C54	C	-0.485311	0.098536	0.499903
C55	C	-0.987772	-0.540875	-0.000090
C56	C	-0.487772	-0.040875	0.499910
N57	N	-0.990083	-0.171864	-0.346774
N58	N	-0.490083	0.328136	0.153226
C59	C	-1.067438	0.277612	-0.000125
C60	C	-0.567438	0.777612	0.499875
C61	C	-1.065121	0.408602	-0.000107
C62	C	-0.565121	0.908602	0.499893
C63	C	-0.912737	0.378649	-0.000077
C64	C	-0.412737	0.878649	0.499923
C65	C	-0.915055	0.247661	-0.000085
C66	C	-0.415055	0.747661	0.499915
C67	C	-1.041305	-0.248077	-0.423423
C68	C	-0.541305	0.251923	0.076577
C69	C	-1.041318	-0.248070	-0.576760
C70	C	-0.541318	0.251930	-0.076760
C71	C	-0.938880	-0.095634	-0.576786
C72	C	-0.438880	0.404366	-0.076786
C73	C	-0.938872	-0.095635	-0.423451
C74	C	-0.438872	0.404365	0.076549
N75	N	-0.990105	-0.171855	0.346555
N76	N	-0.490105	0.328145	0.846555
H77	H	-0.577754	0.018415	-0.099819
H78	H	-0.077754	0.518415	0.400181
F79	F	-1.095813	-0.329199	-0.341822
F80	F	-0.595813	0.170801	0.158178
H81	H	-0.897160	-0.033567	-0.361042
H82	H	-0.397160	0.466433	0.138958
F83	F	-1.144978	0.494235	-0.000113
F84	F	-0.644978	0.994235	0.499887
F85	F	-0.428299	0.039398	-0.131053
F86	F	0.071701	0.539398	0.368947
H87	H	-0.433027	0.022291	0.098541
H88	H	0.066973	0.522291	0.598541
F89	F	-0.395461	-0.373515	-0.139128
F90	F	0.104539	0.126485	0.360872
F91	F	-0.553999	-0.373885	-0.150706
F92	F	-0.053999	0.126115	0.349294
H93	H	-0.577189	0.018775	0.099782
H94	H	-0.077189	0.518775	0.599782
H95	H	-1.083030	-0.310128	-0.639160
H96	H	-0.583030	0.189872	-0.139160
H97	H	-0.417948	-0.188959	0.243095
H98	H	0.082052	0.311041	0.743095
H99	H	-0.853953	0.182141	-0.000073
H100	H	-0.353953	0.682141	0.499927
H101	H	-0.897185	-0.033572	-0.639235
H102	H	-0.397185	0.466428	-0.139235
F103	F	-1.149764	0.223855	-0.000156
F104	F	-0.649764	0.723855	0.499844
H105	H	-0.404877	-0.339163	0.145432
H106	H	0.095123	0.160837	0.645432
H107	H	-0.849758	0.419794	-0.000055
H108	H	-0.349758	0.919794	0.499945
H109	H	-0.561300	-0.194758	0.242529
H110	H	-0.061300	0.305242	0.742529
F111	F	-0.552453	-0.375506	0.145803
F112	F	-0.052453	0.124494	0.645803
H113	H	-0.415406	-0.196296	-0.243340
H114	H	0.084594	0.303704	0.256660
H115	H	-0.560176	-0.191713	-0.242640
H116	H	-0.060176	0.308287	0.257360
