data_functionalizedCrystal
_audit_creation_method	'MofGen! by Chris Wilmer'
_symmetry_space_group_name_H-M	'P1'
_symmetry_Int_Tables_number	1
_symmetry_cell_setting	triclinic
loop_
_symmetry_equiv_pos_as_xyz
  x,y,z
_cell_length_a	12.759401
_cell_length_b	16.959453
_cell_length_c	12.759393
_cell_angle_alpha	89.965525
_cell_angle_beta	89.980324
_cell_angle_gamma	90.023153
loop_
_atom_site_label
_atom_site_type_symbol
_atom_site_fract_x
_atom_site_fract_y
_atom_site_fract_z
Zn1	Zn	1.606208	-0.314634	-0.593956
Zn2	Zn	2.106208	0.185366	-0.093956
Zn3	Zn	1.606074	-0.446833	-0.418264
Zn4	Zn	2.106074	0.053167	0.081736
Zn5	Zn	1.430506	-0.314674	-0.418295
Zn6	Zn	1.930506	0.185326	0.081705
Zn7	Zn	1.430474	-0.446776	-0.593905
Zn8	Zn	1.930474	0.053224	-0.093905
O9	O	1.518316	-0.380729	-0.506105
O10	O	2.018316	0.119271	-0.006105
O11	O	1.753211	-0.332178	-0.570658
O12	O	2.253211	0.167822	-0.070658
O13	O	1.582743	-0.429343	-0.271247
O14	O	2.082743	0.070657	0.228753
O15	O	1.453883	-0.204058	-0.441631
O16	O	1.953883	0.295942	0.058369
O17	O	1.753113	-0.429305	-0.441578
O18	O	2.253113	0.070695	0.058422
O19	O	1.582970	-0.204029	-0.570688
O20	O	2.082970	0.295971	-0.070688
O21	O	1.453754	-0.332246	-0.271269
O22	O	1.953754	0.167754	0.228731
O23	O	1.283481	-0.332190	-0.441581
O24	O	1.783481	0.167810	0.058419
O25	O	1.453827	-0.429206	-0.740933
O26	O	1.953827	0.070794	-0.240933
O27	O	1.283457	-0.429244	-0.570601
O28	O	1.783457	0.070756	-0.070601
O29	O	1.582938	-0.332122	-0.740970
O30	O	2.082938	0.167878	-0.240970
O31	O	1.582711	-0.557437	-0.441528
O32	O	2.082711	-0.057437	0.058472
O33	O	1.453698	-0.557394	-0.570571
O34	O	1.953698	-0.057394	-0.070571
C35	C	1.245348	-0.380716	-0.506090
C36	C	1.745348	0.119284	-0.006090
C37	C	1.128572	-0.380729	-0.506108
C38	C	1.628572	0.119271	-0.006108
C39	C	1.073761	-0.330247	-0.573424
C40	C	1.573761	0.169753	-0.073424
C41	C	0.964037	-0.330255	-0.573431
C42	C	1.464037	0.169745	-0.073431
C43	C	0.963943	-0.431234	-0.438804
C44	C	1.463943	0.068766	0.061196
C45	C	1.073665	-0.431221	-0.438792
C46	C	1.573665	0.068779	0.061208
C47	C	1.518215	-0.586096	-0.506064
C48	C	2.018215	-0.086096	-0.006064
C49	C	1.518268	-0.673952	-0.506081
C50	C	2.018268	-0.173952	-0.006081
C51	C	1.451140	-0.715310	-0.438839
C52	C	1.951140	-0.215310	0.061161
C53	C	1.585441	-0.715148	-0.573346
C54	C	2.085441	-0.215148	-0.073346
C55	C	1.585490	-0.797694	-0.573369
C56	C	2.085490	-0.297694	-0.073369
C57	C	1.518362	-0.839052	-0.506127
C58	C	2.018362	-0.339052	-0.006127
C59	C	1.451185	-0.797863	-0.438862
C60	C	1.951185	-0.297863	0.061138
C61	C	1.652658	-0.838889	-0.640640
C62	C	2.152658	-0.338889	-0.140640
C63	C	1.652709	-0.921440	-0.640667
C64	C	2.152709	-0.421440	-0.140667
C65	C	1.585586	-0.962799	-0.573418
C66	C	2.085586	-0.462799	-0.073418
C67	C	1.518407	-0.921605	-0.506150
C68	C	2.018407	-0.421605	-0.006150
C69	C	1.451279	-0.962962	-0.438908
C70	C	1.951279	-0.462962	0.061092
C71	C	1.384104	-0.921770	-0.371634
C72	C	1.884104	-0.421770	0.128366
C73	C	1.384061	-0.839222	-0.371614
C74	C	1.884061	-0.339222	0.128386
C75	C	1.585629	-1.045347	-0.573438
C76	C	2.085629	-0.545347	-0.073438
C77	C	1.451323	-1.045516	-0.438931
C78	C	1.951323	-0.545516	0.061069
C79	C	1.792349	-0.380744	-0.506120
C80	C	2.292349	0.119256	-0.006120
C81	C	1.909125	-0.380750	-0.506127
C82	C	2.409125	0.119250	-0.006127
C83	C	1.518394	-0.380653	-0.780138
C84	C	2.018394	0.119347	-0.280138
C85	C	1.518428	-0.380621	-0.896915
C86	C	2.018428	0.119379	-0.396915
C87	C	1.518445	-0.174561	-0.506169
C88	C	2.018445	0.325439	-0.006169
C89	C	1.518500	-0.086704	-0.506196
C90	C	2.018500	0.413296	-0.006196
C91	C	1.585661	-0.330062	-0.951798
C92	C	2.085661	0.169938	-0.451798
C93	C	1.585679	-0.330027	-1.061522
C94	C	2.085679	0.169973	-0.561522
C95	C	1.451227	-0.431119	-1.061470
C96	C	1.951227	0.068881	-0.561470
C97	C	1.451205	-0.431149	-0.951748
C98	C	1.951205	0.068851	-0.451748
C99	C	1.518298	-0.380748	-0.233137
C100	C	2.018298	0.119252	0.266863
C101	C	1.518468	-0.380558	-0.116361
C102	C	2.018468	0.119442	0.383639
H103	H	0.919225	-0.472344	-0.383998
H104	H	1.419225	0.027656	0.116002
O105	O	1.132795	-0.485670	-0.366181
O106	O	1.632795	0.014330	0.133819
H107	H	1.076184	-0.520790	-0.319383
H108	H	1.576184	-0.020790	0.180617
O109	O	0.904920	-0.275802	-0.646032
O110	O	1.404920	0.224198	-0.146032
H111	H	0.854931	-0.311230	-0.699398
H112	H	1.354931	0.188770	-0.199398
O113	O	1.378727	-0.485614	-1.120618
O114	O	1.878727	0.014386	-0.620618
H115	H	1.396691	-0.547658	-1.099536
H116	H	1.896691	-0.047658	-0.599536
H117	H	1.396448	-0.472320	-0.907061
H118	H	1.896448	0.027680	-0.407061
H119	H	1.329443	-0.955454	-0.316891
H120	H	1.829443	-0.455454	0.183109
H121	H	1.396662	-1.079183	-0.384171
H122	H	1.896662	-0.579183	0.115829
H123	H	1.329369	-0.805678	-0.316843
H124	H	1.829369	-0.305678	0.183157
H125	H	1.640425	-0.288856	-1.106203
H126	H	2.140425	0.211144	-0.606203
O127	O	1.658158	-0.275559	-0.892661
O128	O	2.158158	0.224441	-0.392661
H129	H	1.711587	-0.310954	-0.842677
H130	H	2.211587	0.189046	-0.342677
O131	O	1.132987	-0.275779	-0.646011
O132	O	1.632987	0.224221	-0.146011
H133	H	1.076435	-0.240671	-0.692810
H134	H	1.576435	0.259329	-0.192810
H135	H	1.396450	-0.681769	-0.384063
H136	H	1.896450	-0.181769	0.115937
H137	H	1.640307	-1.078882	-0.628225
H138	H	2.140307	-0.578882	-0.128225
H139	H	1.640089	-0.681473	-0.628098
H140	H	2.140089	-0.181473	-0.128098
H141	H	1.707307	-0.805213	-0.695392
H142	H	2.207307	-0.305213	-0.195392
O143	O	1.725163	-0.965868	-0.713215
O144	O	2.225163	-0.465868	-0.213215
H145	H	1.771837	-0.923240	-0.759962
H146	H	2.271837	-0.423240	-0.259962
