data_functionalizedCrystal
_audit_creation_method	'MofGen! by Chris Wilmer'
_symmetry_space_group_name_H-M	'P1'
_symmetry_Int_Tables_number	1
_symmetry_cell_setting	triclinic
loop_
_symmetry_equiv_pos_as_xyz
  x,y,z
_cell_length_a	6.817900
_cell_length_b	16.305681
_cell_length_c	16.256277
_cell_angle_alpha	95.353299
_cell_angle_beta	103.500353
_cell_angle_gamma	103.457389
loop_
_atom_site_label
_atom_site_type_symbol
_atom_site_fract_x
_atom_site_fract_y
_atom_site_fract_z
V1	V	-4.026681	-0.117399	-0.264165
O2	O	-4.014324	0.004940	-0.258838
O3	O	-3.978076	-0.232107	-0.262645
O4	O	-3.978302	-0.115901	-0.379246
O5	O	-4.014097	-0.112071	-0.141430
V6	V	-4.510333	-0.102729	-0.249450
O7	O	-4.287657	-0.149577	-0.296443
O8	O	-4.699555	-0.070550	-0.217172
O9	O	-4.335732	0.011979	-0.250970
O10	O	-4.640088	-0.225068	-0.254777
O11	O	-4.640315	-0.108057	-0.372185
O12	O	-4.335506	-0.104227	-0.134369
C13	C	-3.823027	-0.260061	-0.258552
C14	C	-3.864573	-0.353839	-0.258076
C15	C	-3.940713	-0.525541	-0.257227
C16	C	-3.736484	-0.556057	-0.251931
C17	C	-3.779799	-0.653650	-0.251768
C18	C	-4.015675	-0.694593	-0.256391
C19	C	-4.151971	-0.674570	-0.340188
C20	C	-4.107304	-0.576972	-0.340706
C21	C	-4.026539	-0.551406	-0.179026
C22	C	-4.065140	-0.648722	-0.177381
C23	C	-4.058054	-0.790134	-0.255921
C24	C	-3.898344	-0.430000	-0.257703
C25	C	-3.823313	-0.111827	-0.407286
C26	C	-3.865040	-0.111361	-0.501367
C27	C	-4.155979	-0.114616	-0.733196
C28	C	-4.049545	-0.042218	-0.776107
C29	C	-3.941338	-0.110484	-0.673612
C30	C	-4.122074	-0.182002	-0.798328
C31	C	-4.015054	-0.109641	-0.839993
C32	C	-3.834324	-0.038034	-0.715274
C33	C	-3.906911	-0.177882	-0.737501
C34	C	-3.800317	-0.105463	-0.780380
C35	C	-3.898877	-0.110969	-0.577764
C36	C	-4.057497	-0.109150	-0.935837
C37	C	-4.154124	0.039929	-0.255061
C38	C	-4.091815	0.133706	-0.255543
C39	C	-4.153837	-0.108304	-0.106324
C40	C	-4.091349	-0.108765	-0.012243
H41	H	-3.670246	-0.538690	-0.308110
H42	H	-4.305847	-0.118402	-0.712315
H43	H	-3.712346	0.022865	-0.679332
Cl44	Cl	-4.325667	-0.690915	-0.175042
Cl45	Cl	-3.616560	-0.673320	-0.158784
H46	H	-3.846295	-0.235250	-0.720236
H47	H	-3.734674	-0.684201	-0.308106
Cl48	Cl	-4.143211	0.046353	-0.802730
H49	H	-4.325604	-0.702017	-0.346624
H50	H	-4.051592	-0.562000	-0.399851
H51	H	-3.609065	-0.521369	-0.191905
H52	H	-3.650191	-0.101567	-0.801084
Cl53	Cl	-4.260386	-0.521466	-0.183815
H54	H	-4.260105	-0.557704	-0.348026
Cl55	Cl	-4.100796	-0.724316	-0.430788
H56	H	-3.912797	-0.515422	-0.116037
Cl57	Cl	-3.909192	-0.666927	-0.081729
H58	H	-4.244154	-0.242837	-0.834365
