data_functionalizedCrystal
_audit_creation_method	'MofGen! by Chris Wilmer'
_symmetry_space_group_name_H-M	'P1'
_symmetry_Int_Tables_number	1
_symmetry_cell_setting	triclinic
loop_
_symmetry_equiv_pos_as_xyz
  x,y,z
_cell_length_a	16.959455
_cell_length_b	18.050589
_cell_length_c	16.959447
_cell_angle_alpha	89.973275
_cell_angle_beta	89.983056
_cell_angle_gamma	90.025168
loop_
_atom_site_label
_atom_site_type_symbol
_atom_site_fract_x
_atom_site_fract_y
_atom_site_fract_z
Zn1	Zn	1.208359	-0.295705	-0.446929
Zn2	Zn	1.208257	-0.419906	-0.314759
Zn3	Zn	1.076182	-0.295728	-0.314766
Zn4	Zn	1.076134	-0.419851	-0.446897
O5	O	1.142233	-0.357798	-0.380838
O6	O	1.318957	-0.312194	-0.429406
O7	O	1.190714	-0.403467	-0.204149
O8	O	1.093778	-0.191800	-0.332314
O9	O	1.318882	-0.403444	-0.332301
O10	O	1.190889	-0.191783	-0.429414
O11	O	1.093679	-0.312234	-0.204154
O12	O	0.965565	-0.312180	-0.332284
O13	O	1.093697	-0.403349	-0.557512
O14	O	0.965529	-0.403372	-0.429360
O15	O	1.190842	-0.312140	-0.557536
O16	O	1.190668	-0.523824	-0.332271
O17	O	1.093597	-0.523783	-0.429353
C18	C	0.936867	-0.357773	-0.380820
C19	C	0.849010	-0.357780	-0.380831
C20	C	0.477529	-0.310275	-0.330396
C21	C	0.477541	-0.405381	-0.431325
C22	C	0.560086	-0.405371	-0.431320
C23	C	0.601357	-0.357812	-0.380852
C24	C	0.560082	-0.310264	-0.330388
C25	C	0.601368	-0.452923	-0.481777
C26	C	0.683919	-0.452915	-0.481774
C27	C	0.725191	-0.405352	-0.431309
C28	C	0.683911	-0.357802	-0.380844
C29	C	0.725182	-0.310243	-0.330375
C30	C	0.683903	-0.262688	-0.279913
C31	C	0.601354	-0.262701	-0.279923
C32	C	0.807739	-0.405339	-0.431299
C33	C	0.807735	-0.310232	-0.330367
C34	C	1.142138	-0.550750	-0.380825
C35	C	1.142169	-0.633295	-0.380846
C36	C	1.089434	-0.832751	-0.433620
C37	C	1.070168	-0.882194	-0.361493
C38	C	1.142247	-0.784426	-0.380856
C39	C	1.161552	-0.882064	-0.452991
C40	C	1.142320	-0.930411	-0.380872
C41	C	1.122943	-0.832782	-0.308691
C42	C	1.214360	-0.832648	-0.400237
C43	C	1.195121	-0.882069	-0.328061
C44	C	1.142202	-0.700328	-0.380848
C45	C	1.142365	-1.014507	-0.380872
C46	C	1.348401	-0.357823	-0.380857
C47	C	1.436258	-0.357833	-0.380864
C48	C	1.142275	-0.357736	-0.587006
C49	C	1.142293	-0.357709	-0.674863
C50	C	1.142350	-0.164092	-0.380868
C51	C	1.142400	-0.081546	-0.380881
C52	C	1.091841	-0.310130	-1.046348
C53	C	1.192885	-0.405132	-1.046329
C54	C	1.192871	-0.405150	-0.963784
C55	C	1.142341	-0.357657	-0.922516
C56	C	1.091824	-0.310148	-0.963794
C57	C	1.243381	-0.452664	-0.922499
C58	C	1.243369	-0.452683	-0.839948
C59	C	1.192842	-0.405187	-0.798679
C60	C	1.142324	-0.357675	-0.839962
C61	C	1.091794	-0.310182	-0.798695
C62	C	1.041279	-0.262666	-0.839977
C63	C	1.041298	-0.262651	-0.922525
C64	C	1.192824	-0.405202	-0.716130
C65	C	1.091777	-0.310200	-0.716141
C66	C	1.142236	-0.357805	-0.175472
C67	C	1.142372	-0.357623	-0.087615
H68	H	0.443916	-0.271555	-0.289313
C69	C	0.988997	-0.989143	-0.338913
C70	C	0.987887	-0.911579	-0.339363
H71	H	0.938200	-1.007280	-0.325250
H72	H	1.003044	-1.006736	-0.389785
H73	H	1.026492	-1.006016	-0.301386
H74	H	0.950396	-0.894706	-0.376895
H75	H	0.973831	-0.893979	-0.288484
H76	H	0.717521	-0.491636	-0.522864
C77	C	1.312403	-0.953764	-0.306652
C78	C	1.255455	-0.911129	-0.267769
H79	H	1.349648	-0.971702	-0.269428
H80	H	1.287577	-0.994419	-0.332097
H81	H	1.338614	-0.924080	-0.344792
H82	H	1.229240	-0.940814	-0.229633
H83	H	1.280283	-0.870468	-0.242311
C84	C	1.281799	-0.578418	-0.947884
C85	C	1.298919	-0.504871	-0.967855
H86	H	1.316086	-0.610649	-0.975890
H87	H	1.289018	-0.585223	-0.892819
H88	H	1.228685	-0.589264	-0.961412
H89	H	1.352032	-0.494023	-0.954321
H90	H	1.291707	-0.498062	-1.022932
H91	H	1.106573	-0.811223	-0.247677
H92	H	1.275296	-0.810870	-0.416650
C93	C	0.575922	-0.578720	-0.520074
C94	C	0.556011	-0.505191	-0.537262
H95	H	0.547916	-0.610986	-0.554332
H96	H	0.630987	-0.585516	-0.527285
H97	H	0.562354	-0.589528	-0.466950
H98	H	0.569585	-0.494382	-0.590384
H99	H	0.500934	-0.498392	-0.530058
H100	H	1.050632	-0.271522	-0.682547
C101	C	0.996393	-0.220519	-0.713437
C102	C	0.985738	-0.210463	-0.794609
H103	H	0.962108	-0.188289	-0.685429
H104	H	0.984789	-0.270415	-0.699907
H105	H	1.049509	-0.209663	-0.699925
H106	H	0.932623	-0.221325	-0.808122
H107	H	0.997337	-0.160556	-0.808145
C108	C	1.237657	-0.447414	-0.589582
C109	C	1.248341	-0.457428	-0.670753
H110	H	1.271931	-0.479662	-0.561570
H111	H	1.249260	-0.397527	-0.576074
H112	H	1.184536	-0.458276	-0.576053
H113	H	1.301461	-0.446561	-0.684283
H114	H	1.236743	-0.507326	-0.684266
C115	C	0.996456	-0.220448	-1.049073
C116	C	0.985772	-0.210428	-0.967903
H117	H	0.962173	-0.188211	-1.077088
H118	H	1.049567	-0.209582	-1.062605
H119	H	0.984858	-0.270345	-1.062576
H120	H	0.997375	-0.160532	-0.954400
H121	H	0.932648	-0.221289	-0.954366
H122	H	0.443933	-0.444106	-0.472410
C123	C	0.474809	-0.220485	-0.235128
C124	C	0.555980	-0.210429	-0.224463
H125	H	0.446796	-0.188215	-0.200888
H126	H	0.461314	-0.209685	-0.288254
H127	H	0.461268	-0.270372	-0.223463
H128	H	0.569522	-0.160543	-0.236134
H129	H	0.569481	-0.221224	-0.171325
H130	H	1.177851	-0.903713	-0.513989
H131	H	1.050716	-0.271441	-1.079963
H132	H	0.717516	-0.223969	-0.238818
C133	C	0.799456	-0.499351	-0.531061
C134	C	0.853113	-0.457603	-0.486764
H135	H	0.827469	-0.531613	-0.565308
H136	H	0.767241	-0.527722	-0.496572
H137	H	0.767276	-0.467027	-0.561355
H138	H	0.885289	-0.489927	-0.456465
H139	H	0.885341	-0.429230	-0.521257
H140	H	1.234018	-0.443804	-1.079935
H141	H	1.044707	-0.811095	-0.478178
H142	H	1.284500	-0.491375	-0.806343
C143	C	0.799431	-0.216225	-0.230597
C144	C	0.853097	-0.257957	-0.274885
H145	H	0.827437	-0.183957	-0.196342
H146	H	0.767263	-0.187861	-0.265092
H147	H	0.767205	-0.248559	-0.200312
H148	H	0.885319	-0.225624	-0.305175
H149	H	0.885278	-0.286324	-0.240386
