data_functionalizedCrystal
_audit_creation_method	'MofGen! by Chris Wilmer'
_symmetry_space_group_name_H-M	'P1'
_symmetry_Int_Tables_number	1
_symmetry_cell_setting	triclinic
loop_
_symmetry_equiv_pos_as_xyz
  x,y,z
_cell_length_a	14.971506
_cell_length_b	9.198806
_cell_length_c	14.971486
_cell_angle_alpha	89.996607
_cell_angle_beta	96.381742
_cell_angle_gamma	90.004249
loop_
_atom_site_label
_atom_site_type_symbol
_atom_site_fract_x
_atom_site_fract_y
_atom_site_fract_z
O1	O	1.186933	0.120903	-0.116647
O2	O	0.926535	0.120904	-0.130587
O3	O	1.063713	0.120893	0.006583
O4	O	1.049755	0.120914	-0.253816
O5	O	1.063703	-0.120892	0.006583
O6	O	0.926524	-0.120881	-0.130586
O7	O	1.186922	-0.120882	-0.116646
Cu8	Cu	1.056722	-0.142958	-0.123616
Cu9	Cu	1.056735	0.142981	-0.123617
O10	O	1.049744	-0.120871	-0.253816
C11	C	0.893205	0.000012	-0.129960
C12	C	0.793909	0.000012	-0.128082
C13	C	0.355627	0.000032	-0.201500
C14	C	0.448927	0.000039	-0.203258
C15	C	0.506147	0.000026	-0.122665
C16	C	0.470062	0.000021	-0.040310
C17	C	0.376764	0.000025	-0.038553
C18	C	0.664525	0.000010	-0.043977
C19	C	0.757831	0.000003	-0.045733
C20	C	0.736689	0.000023	-0.208681
C21	C	0.643390	0.000027	-0.206924
C22	C	0.607312	0.000020	-0.124569
N23	N	1.056720	-0.344072	-0.123616
C24	C	1.114319	-0.416274	-0.065770
C25	C	1.114333	-0.583686	-0.065767
C26	C	1.220252	0.000014	-0.117273
C27	C	1.319548	0.000024	-0.119151
C28	C	1.063084	0.000001	0.039908
C29	C	1.061213	0.000003	0.139205
N30	N	1.056745	0.344095	-0.123611
C31	C	1.050374	0.000024	-0.287141
C32	C	1.052244	0.000033	-0.386438
C33	C	1.141802	0.000001	0.196424
C34	C	1.140038	0.000016	0.289724
C35	C	1.057686	0.000021	0.325802
C36	C	0.977091	0.000027	0.268575
C37	C	0.978855	0.000023	0.175278
C38	C	0.973420	0.000032	0.463038
C39	C	0.971656	0.000034	0.556342
C40	C	1.134603	0.000025	0.577485
C41	C	1.136367	0.000021	0.484187
C42	C	1.055772	0.000024	0.426966
H43	H	0.596803	0.000028	-0.272550
Br44	Br	0.785650	0.000009	-0.320449
H45	H	0.907791	0.000039	0.416451
Br46	Br	1.253572	-0.000027	0.147471
H47	H	0.309044	0.000032	-0.267128
Br48	Br	0.974534	-0.447604	-0.206153
Br49	Br	0.615563	-0.000008	0.067792
H50	H	0.347391	0.000021	0.028503
Br51	Br	0.865326	0.000059	0.317538
Br52	Br	1.196271	-0.312743	0.016999
Br53	Br	0.497887	0.000065	-0.315022
Br54	Br	0.835486	-0.000006	0.063643
H55	H	0.516658	0.000020	0.025310
H56	H	1.163649	-0.645776	-0.016246
H57	H	0.913232	0.000024	0.128690
H58	H	1.007432	-0.593825	-0.173140
H59	H	1.205662	0.000012	0.336309
H60	H	1.203426	0.000006	0.454815
H61	H	1.200227	0.000028	0.624078
H62	H	0.904597	0.000015	0.585714
