data_functionalizedCrystal
_audit_creation_method	'MofGen! by Chris Wilmer'
_symmetry_space_group_name_H-M	'P1'
_symmetry_Int_Tables_number	1
_symmetry_cell_setting	triclinic
loop_
_symmetry_equiv_pos_as_xyz
  x,y,z
_cell_length_a	19.077105
_cell_length_b	12.594516
_cell_length_c	19.076919
_cell_angle_alpha	92.277239
_cell_angle_beta	90.076224
_cell_angle_gamma	87.712633
loop_
_atom_site_label
_atom_site_type_symbol
_atom_site_fract_x
_atom_site_fract_y
_atom_site_fract_z
Zn1	Zn	1.058319	-0.514930	-0.440450
Zn2	Zn	1.558319	-0.014930	0.059550
Zn3	Zn	1.062975	-0.686069	-0.322954
Zn4	Zn	1.562975	-0.186069	0.177046
Zn5	Zn	0.945535	-0.500672	-0.318243
Zn6	Zn	1.445535	-0.000672	0.181757
Zn7	Zn	0.940797	-0.685427	-0.435707
Zn8	Zn	1.440797	-0.185427	0.064293
O9	O	1.001907	-0.596775	-0.379338
O10	O	1.501907	-0.096775	0.120662
O11	O	1.157269	-0.543868	-0.428821
O12	O	1.657269	-0.043868	0.071179
O13	O	1.051328	-0.655777	-0.223998
O14	O	1.551328	-0.155777	0.276002
O15	O	0.960531	-0.353620	-0.334467
O16	O	1.460531	0.146380	0.165533
O17	O	1.160690	-0.669603	-0.342497
O18	O	1.660690	-0.169603	0.157503
O19	O	1.043393	-0.364096	-0.424253
O20	O	1.543393	0.135904	0.075747
O21	O	0.965046	-0.519567	-0.220536
O22	O	1.465046	-0.019567	0.279464
O23	O	0.846574	-0.518944	-0.329868
O24	O	1.346574	-0.018944	0.170132
O25	O	0.952455	-0.668509	-0.534668
O26	O	1.452455	-0.168509	-0.034668
O27	O	0.843093	-0.654683	-0.416168
O28	O	1.343093	-0.154683	0.083832
O29	O	1.038798	-0.543246	-0.538153
O30	O	1.538798	-0.043246	-0.038153
O31	O	1.046733	-0.834927	-0.337898
O32	O	1.546733	-0.334927	0.162102
O33	O	0.956969	-0.834455	-0.420737
O34	O	1.456969	-0.334455	0.079263
C35	C	0.819337	-0.585197	-0.371992
C36	C	1.319337	-0.085197	0.128008
C37	C	0.741233	-0.580271	-0.368866
C38	C	1.241233	-0.080271	0.131134
C39	C	0.702747	-0.648728	-0.412259
C40	C	1.202747	-0.148728	0.087741
C41	C	0.629360	-0.644085	-0.409325
C42	C	1.129360	-0.144085	0.090675
C43	C	0.594459	-0.570991	-0.362994
C44	C	1.094459	-0.070991	0.137006
C45	C	0.632949	-0.502527	-0.319600
C46	C	1.132949	-0.002527	0.180400
C47	C	0.706335	-0.507165	-0.322538
C48	C	1.206335	-0.007165	0.177462
C49	C	0.375169	-0.549525	-0.349400
C50	C	0.875169	-0.049525	0.150600
C51	C	0.301778	-0.544895	-0.346464
C52	C	0.801778	-0.044895	0.153536
C53	C	0.298194	-0.686452	-0.436191
C54	C	0.798194	-0.186452	0.063809
C55	C	0.371582	-0.691088	-0.439121
C56	C	0.871582	-0.191088	0.060879
C57	C	0.410065	-0.622620	-0.395730
C58	C	0.910065	-0.122620	0.104270
N59	N	0.519445	-0.566246	-0.359993
N60	N	1.019445	-0.066246	0.140007
N61	N	0.485078	-0.627361	-0.398735
N62	N	0.985078	-0.127361	0.101265
C63	C	1.001861	-0.873312	-0.379330
C64	C	1.501861	-0.373312	0.120670
C65	C	1.001905	-0.991622	-0.379352
C66	C	1.501905	-0.491622	0.120648
C67	C	0.953079	-1.060655	-0.424375
C68	C	1.453079	-0.560655	0.075625
C69	C	0.938538	-1.126689	-0.359570
C70	C	1.438538	-0.626689	0.140430
C71	C	1.016509	-1.136391	-0.444171
C72	C	1.516509	-0.636391	0.055829
C73	C	0.987331	-1.056094	-0.314511
C74	C	1.487331	-0.556094	0.185489
C75	C	1.065330	-1.065794	-0.399157
C76	C	1.565330	-0.565794	0.100843
C77	C	1.050816	-1.131795	-0.334309
C78	C	1.550816	-0.631795	0.165691
C79	C	1.185189	-0.608398	-0.386714
C80	C	1.685189	-0.108398	0.113286
C81	C	1.263293	-0.613351	-0.389857
C82	C	1.763293	-0.113351	0.110143
C83	C	0.994578	-0.607396	-0.562619
C84	C	1.494578	-0.107396	-0.062619
C85	C	0.991455	-0.611923	-0.640723
C86	C	1.491455	-0.111923	-0.140723
C87	C	1.001971	-0.319159	-0.379363
C88	C	1.501971	0.180841	0.120637
C89	C	1.001998	-0.200856	-0.379374
C90	C	1.501998	0.299144	0.120626
C91	C	1.034940	-0.548834	-0.679231
C92	C	1.534940	-0.048834	-0.179231
C93	C	1.031997	-0.553083	-0.752617
C94	C	1.531997	-0.053083	-0.252617
C95	C	0.985572	-0.620426	-0.787494
C96	C	1.485572	-0.120426	-0.287494
C97	C	0.942083	-0.683517	-0.748980
C98	C	1.442083	-0.183517	-0.248980
C99	C	0.945023	-0.679262	-0.675595
C100	C	1.445023	-0.179262	-0.175595
C101	C	0.971956	-0.640139	-1.006776
C102	C	1.471956	-0.140139	-0.506776
C103	C	0.969021	-0.644391	-1.080166
C104	C	1.469021	-0.144391	-0.580166
C105	C	1.058935	-0.513955	-1.083799
C106	C	1.558935	-0.013955	-0.583799
C107	C	1.061873	-0.509711	-1.010412
C108	C	1.561873	-0.009711	-0.510412
C109	C	1.018381	-0.572798	-0.971905
C110	C	1.518381	-0.072798	-0.471905
N111	N	0.982565	-0.624772	-0.862506
N112	N	1.482565	-0.124772	-0.362506
N113	N	1.021386	-0.568445	-0.896894
N114	N	1.521386	-0.068445	-0.396894
C115	C	1.009247	-0.586120	-0.196772
C116	C	1.509247	-0.086120	0.303228
C117	C	1.012506	-0.581302	-0.118675
C118	C	1.512506	-0.081302	0.381325
H119	H	0.266852	-0.742192	-0.471519
H120	H	0.766852	-0.242192	0.028481
H121	H	1.118911	-1.038859	-0.415922
H122	H	1.618911	-0.538859	0.084078
H123	H	0.931215	-0.699232	-1.108560
H124	H	1.431215	-0.199232	-0.608560
H125	H	0.909606	-0.730624	-0.644242
H126	H	1.409606	-0.230624	-0.144242
O127	O	0.591945	-0.710442	-0.451549
O128	O	1.091945	-0.210442	0.048451
C129	C	0.547685	-0.649915	-0.495298
C130	C	1.047685	-0.149915	0.004702
H131	H	0.569632	-0.567749	-0.500621
H132	H	1.069632	-0.067749	-0.000621
H133	H	0.544704	-0.691627	-0.549297
H134	H	1.044704	-0.191627	-0.049297
H135	H	0.492929	-0.641426	-0.471355
H136	H	0.992929	-0.141426	0.028645
H137	H	0.936552	-0.691524	-0.975432
H138	H	1.436552	-0.191524	-0.475432
H139	H	0.399993	-0.750611	-0.476847
H140	H	0.899993	-0.250611	0.023153
H141	H	0.904280	-0.738345	-0.777382
H142	H	1.404280	-0.238345	-0.277382
H143	H	0.273363	-0.485360	-0.308740
H144	H	0.773363	0.014640	0.191260
O145	O	0.736536	-0.719763	-0.457327
O146	O	1.236536	-0.219763	0.042673
C147	C	0.686828	-0.779204	-0.494986
C148	C	1.186828	-0.279204	0.005014
H149	H	0.634423	-0.732450	-0.495371
H150	H	1.134423	-0.232450	0.004629
H151	H	0.705826	-0.795234	-0.551187
H152	H	1.205826	-0.295234	-0.051187
H153	H	0.680038	-0.857991	-0.468853
H154	H	1.180038	-0.357991	0.031147
O155	O	0.972681	-1.014420	-0.249065
O156	O	1.472681	-0.514420	0.250935
C157	C	1.023950	-1.051526	-0.201651
C158	C	1.523950	-0.551526	0.298349
H159	H	1.073999	-1.076583	-0.231547
H160	H	1.573999	-0.576583	0.268453
H161	H	1.035598	-0.985375	-0.161293
H162	H	1.535598	-0.485375	0.338707
H163	H	1.003712	-1.122624	-0.173773
H164	H	1.503712	-0.622624	0.326227
O165	O	0.412440	-0.482974	-0.307181
O166	O	0.912440	0.017026	0.192819
C167	C	0.365896	-0.417450	-0.265673
C168	C	0.865896	0.082550	0.234327
H169	H	0.313679	-0.457600	-0.261094
H170	H	0.813679	0.042400	0.238906
H171	H	0.389302	-0.404085	-0.211171
H172	H	0.889302	0.095915	0.288829
H173	H	0.357068	-0.337683	-0.291188
H174	H	0.857068	0.162317	0.208812
O175	O	0.598939	-0.431612	-0.274616
O176	O	1.098939	0.068388	0.225384
C177	C	0.525912	-0.442177	-0.281339
C178	C	1.025912	0.057823	0.218661
H179	H	0.514965	-0.525070	-0.303855
H180	H	1.014965	-0.025070	0.196145
H181	H	0.500116	-0.430012	-0.227597
H182	H	1.000116	0.069988	0.272403
H183	H	0.503606	-0.379994	-0.318000
H184	H	1.003606	0.120006	0.182000
H185	H	1.067409	-0.501712	-0.783968
H186	H	1.567409	-0.001712	-0.283968
O187	O	0.903782	-1.023518	-0.469815
O188	O	1.403782	-0.523518	0.030185
C189	C	0.918592	-1.066074	-0.537905
C190	C	1.418592	-0.566074	-0.037905
H191	H	0.951871	-1.142870	-0.534264
H192	H	1.451871	-0.642870	-0.034264
H193	H	0.867376	-1.083476	-0.566164
H194	H	1.367376	-0.583476	-0.066164
H195	H	0.948504	-1.006291	-0.568346
H196	H	1.448504	-0.506291	-0.068346
H197	H	0.884944	-1.153628	-0.342835
H198	H	1.384944	-0.653628	0.157165
H199	H	0.737669	-0.451416	-0.287206
H200	H	1.237669	0.048584	0.212794
H201	H	1.028824	-1.171502	-0.498979
H202	H	1.528824	-0.671502	0.001021
H203	H	1.092148	-1.162827	-0.296198
H204	H	1.592148	-0.662827	0.203802
H205	H	1.099679	-0.454876	-0.982021
H206	H	1.599679	0.045124	-0.482021
O207	O	1.080056	-0.483324	-0.645465
O208	O	1.580056	0.016676	-0.145465
C209	C	1.117816	-0.428571	-0.695195
C210	C	1.617816	0.071429	-0.195195
H211	H	1.086939	-0.426095	-0.746346
H212	H	1.586939	0.073905	-0.246346
H213	H	1.126180	-0.343957	-0.674303
H214	H	1.626180	0.156043	-0.174303
H215	H	1.170863	-0.471383	-0.705148
H216	H	1.670863	0.028617	-0.205148
O217	O	1.101105	-0.452705	-1.121311
O218	O	1.601105	0.047295	-0.621311
C219	C	1.088570	-0.470916	-1.193562
C220	C	1.588570	0.029084	-0.693562
H221	H	1.033933	-0.502920	-1.201397
H222	H	1.533933	-0.002920	-0.701397
H223	H	1.092236	-0.393108	-1.221650
H224	H	1.592236	0.106892	-0.721650
H225	H	1.129405	-0.531443	-1.216062
H226	H	1.629405	-0.031443	-0.716062
