data_functionalizedCrystal
_audit_creation_method	'MofGen! by Chris Wilmer'
_symmetry_space_group_name_H-M	'P1'
_symmetry_Int_Tables_number	1
_symmetry_cell_setting	triclinic
loop_
_symmetry_equiv_pos_as_xyz
  x,y,z
_cell_length_a	16.992694
_cell_length_b	16.974894
_cell_length_c	15.455313
_cell_angle_alpha	89.016788
_cell_angle_beta	92.857794
_cell_angle_gamma	92.973137
loop_
_atom_site_label
_atom_site_type_symbol
_atom_site_fract_x
_atom_site_fract_y
_atom_site_fract_z
O1	O	-1.044200	0.163895	-0.083510
O2	O	-0.710867	0.497228	0.249823
O3	O	-0.377534	0.830562	0.583156
O4	O	-0.815912	0.162060	-0.083407
O5	O	-0.482579	0.495394	0.249926
O6	O	-0.149245	0.828727	0.583259
O7	O	-0.936033	0.048638	-0.075438
O8	O	-0.602700	0.381971	0.257896
O9	O	-0.269366	0.715305	0.591229
O10	O	-0.924079	0.277317	-0.091480
O11	O	-0.590746	0.610651	0.241853
O12	O	-0.257413	0.943984	0.575187
O13	O	-0.929164	0.055096	0.068371
O14	O	-0.595830	0.388429	0.401704
O15	O	-0.262497	0.721762	0.735037
O16	O	-0.809043	0.168518	0.060401
O17	O	-0.475709	0.501851	0.393734
O18	O	-0.142376	0.835184	0.727068
O19	O	-1.037331	0.170352	0.060298
O20	O	-0.703998	0.503686	0.393631
O21	O	-0.370664	0.837019	0.726965
Cu22	Cu	-0.922560	0.170025	0.073480
Cu23	Cu	-0.589226	0.503358	0.406814
Cu24	Cu	-0.255893	0.836691	0.740147
Cu25	Cu	-0.930683	0.162388	-0.096590
Cu26	Cu	-0.597350	0.495721	0.236744
Cu27	Cu	-0.264017	0.829055	0.570077
O28	O	-0.917210	0.283775	0.052328
O29	O	-0.583877	0.617108	0.385662
O30	O	-0.250543	0.950441	0.718995
C31	C	-0.783260	0.162930	-0.011341
C32	C	-0.449926	0.496264	0.321992
C33	C	-0.116593	0.829597	0.655326
C34	C	-0.696200	0.155892	-0.010857
C35	C	-0.362866	0.489226	0.322476
C36	C	-0.029533	0.822559	0.655809
C37	C	-0.932015	0.022471	-0.001473
C38	C	-0.598681	0.355804	0.331860
C39	C	-0.265348	0.689137	0.665193
C40	C	-0.930266	-0.065121	0.004665
C41	C	-0.596933	0.268212	0.337998
C42	C	-0.263600	0.601546	0.671332
C43	C	-1.069984	0.169482	-0.011770
C44	C	-0.736650	0.502816	0.321563
C45	C	-0.403317	0.836149	0.654896
C46	C	-1.157044	0.176520	-0.012260
C47	C	-0.823710	0.509853	0.321074
C48	C	-0.490377	0.843187	0.654407
C49	C	-0.921228	0.309942	-0.021638
C50	C	-0.587895	0.643275	0.311695
C51	C	-0.254562	0.976609	0.645029
C52	C	-0.922977	0.397534	-0.027782
C53	C	-0.589644	0.730867	0.305551
C54	C	-0.256310	1.064200	0.638884
C55	C	-0.646116	0.223793	-0.015620
C56	C	-0.312782	0.557127	0.317713
C57	C	0.020551	0.890460	0.651047
C58	C	-0.564313	0.217177	-0.015144
C59	C	-0.230980	0.550510	0.318189
C60	C	0.102353	0.883844	0.651523
C61	C	-0.532597	0.142659	-0.009911
C62	C	-0.199263	0.475992	0.323422
C63	C	0.134070	0.809325	0.656755
C64	C	-0.582687	0.074753	-0.005146
C65	C	-0.249354	0.408086	0.328188
C66	C	0.083980	0.741419	0.661521
C67	C	-0.664488	0.081370	-0.005616
C68	C	-0.331154	0.414704	0.327718
C69	C	0.002179	0.748037	0.661051
C70	C	-0.288935	0.115232	-0.007964
C71	C	0.044399	0.448565	0.325369
C72	C	0.377732	0.781898	0.658703
C73	C	-0.207128	0.108619	-0.007497
C74	C	0.126206	0.441952	0.325836
C75	C	0.459539	0.775286	0.659170
C76	C	-0.188760	0.251044	-0.017494
C77	C	0.144574	0.584377	0.315840
C78	C	0.477907	0.917711	0.649173
C79	C	-0.270563	0.257655	-0.017969
C80	C	0.062771	0.590988	0.315365
C81	C	0.396104	0.924321	0.648698
C82	C	-0.320646	0.189749	-0.013198
C83	C	0.012688	0.523082	0.320135
C84	C	0.346021	0.856416	0.653468
N85	N	-0.448982	0.135894	-0.009427
N86	N	-0.115648	0.469227	0.323906
N87	N	0.217685	0.802560	0.657239
N88	N	-0.404259	0.196515	-0.013676
N89	N	-0.070925	0.529848	0.319657
N90	N	0.262408	0.863182	0.652990
N91	N	-0.916852	0.175396	0.193098
N92	N	-0.583518	0.508729	0.526432
N93	N	-0.250185	0.842063	0.859765
C94	C	-0.920054	0.442209	0.047716
C95	C	-0.586721	0.775543	0.381049
C96	C	-0.253387	1.108876	0.714383
C97	C	-0.921687	0.524511	0.041933
C98	C	-0.588354	0.857845	0.375266
C99	C	-0.255021	1.191178	0.708599
C100	C	-0.926250	0.562135	-0.039350
C101	C	-0.592916	0.895468	0.293984
C102	C	-0.259583	1.228802	0.627317
C103	C	-0.929171	0.517453	-0.114854
C104	C	-0.595838	0.850787	0.218480
C105	C	-0.262504	1.184120	0.551813
C106	C	-0.927532	0.435154	-0.109070
C107	C	-0.594198	0.768487	0.224264
C108	C	-0.260865	1.101820	0.557597
C109	C	-0.931548	0.807897	-0.065055
C110	C	-0.598215	1.141231	0.268279
C111	C	-0.264882	1.474564	0.601612
C112	C	-0.933190	0.890203	-0.070833
C113	C	-0.599856	1.223536	0.262500
C114	C	-0.266523	1.556870	0.595833
C115	C	-0.925704	0.897255	0.085954
C116	C	-0.592371	1.230589	0.419287
C117	C	-0.259038	1.563922	0.752621
C118	C	-0.924070	0.814953	0.091731
C119	C	-0.590737	1.148286	0.425064
C120	C	-0.257404	1.481620	0.758398
C121	C	-0.926987	0.770279	0.016227
C122	C	-0.593654	1.103612	0.349560
C123	C	-0.260321	1.436946	0.682894
N124	N	-0.927922	0.646261	-0.045263
N125	N	-0.594589	0.979594	0.288070
N126	N	-0.261255	1.312927	0.621403
N127	N	-0.925310	0.686155	0.022141
N128	N	-0.591976	1.019489	0.355475
N129	N	-0.258643	1.352822	0.688808
N130	N	-0.936397	0.157011	-0.216207
N131	N	-0.603064	0.490344	0.117126
N132	N	-0.269731	0.823678	0.450459
C133	C	-0.967901	0.127230	0.241877
C134	C	-0.634568	0.460563	0.575210
C135	C	-0.301235	0.793897	0.908544
C136	C	-0.963592	0.131300	0.332399
C137	C	-0.630258	0.464633	0.665732
C138	C	-0.296925	0.797966	0.999066
C139	C	-0.908236	0.183540	0.374140
C140	C	-0.574903	0.516873	0.707474
C141	C	-0.241569	0.850206	1.040807
C142	C	-0.857181	0.231707	0.325355
C143	C	-0.523848	0.565041	0.658689
C144	C	-0.190515	0.898374	0.992022
C145	C	-0.861488	0.227633	0.234835
C146	C	-0.528154	0.560967	0.568169
C147	C	-0.194821	0.894300	0.901502
C148	C	-0.889649	0.201104	0.644488
C149	C	-0.556316	0.534438	0.977821
C150	C	-0.222982	0.867771	1.311154
C151	C	-0.885348	0.205177	0.735014
C152	C	-0.552015	0.538510	1.068347
C153	C	-0.218681	0.871843	1.401681
C154	C	-0.991758	0.104768	0.742051
C155	C	-0.658425	0.438101	1.075385
C156	C	-0.325091	0.771434	1.408718
C157	C	-0.996063	0.100701	0.651529
C158	C	-0.662729	0.434035	0.984862
C159	C	-0.329396	0.767368	1.318196
C160	C	-0.945005	0.148866	0.602752
C161	C	-0.611672	0.482199	0.936086
C162	C	-0.278338	0.815533	1.269419
N163	N	-0.903832	0.187703	0.466668
N164	N	-0.570498	0.521036	0.800001
N165	N	-0.237165	0.854369	1.133335
N166	N	-0.949406	0.144699	0.510227
N167	N	-0.616073	0.478032	0.843560
N168	N	-0.282740	0.811365	1.176893
H169	H	-0.671932	0.284474	-0.019882
H170	H	-0.338599	0.617807	0.313452
H171	H	-0.005266	0.951141	0.646785
F172	F	-0.342226	0.042959	-0.002887
F173	F	-0.008893	0.376293	0.330446
F174	F	0.324440	0.709626	0.663779
H175	H	-0.181308	0.047934	-0.003237
H176	H	0.152025	0.381268	0.330097
H177	H	0.485359	0.714601	0.663430
F178	F	-0.922597	0.944806	0.166305
F179	F	-0.589264	1.278140	0.499638
F180	F	-0.255931	1.611473	0.832972
F181	F	-0.548929	-0.004556	0.000429
F182	F	-0.215596	0.328778	0.333762
F183	F	0.117737	0.662111	0.667096
H184	H	-0.919318	0.560882	0.103412
H185	H	-0.585985	0.894216	0.436745
H186	H	-0.252652	1.227549	0.770078
F187	F	-0.511013	0.289447	-0.020217
F188	F	-0.177680	0.622780	0.313116
F189	F	0.155653	0.956113	0.646450
H190	H	-0.705266	0.026078	-0.001738
H191	H	-0.371933	0.359411	0.331596
H192	H	-0.038599	0.692744	0.664929
H193	H	-0.916342	0.411582	0.113905
H194	H	-0.583009	0.744915	0.447239
H195	H	-0.249675	1.078249	0.780572
F196	F	-0.919213	0.774917	0.178243
F197	F	-0.585879	1.108250	0.511576
F198	F	-0.252546	1.441584	0.844910
H199	H	-0.936904	0.920834	-0.137027
H200	H	-0.603571	1.254167	0.196307
H201	H	-0.270237	1.587500	0.529640
F202	F	-0.934658	0.760362	-0.145414
F203	F	-0.601325	1.093695	0.187920
F204	F	-0.267992	1.427028	0.521253
H205	H	-0.932881	0.548094	-0.181036
H206	H	-0.599548	0.881427	0.152297
H207	H	-0.266215	1.214760	0.485631
F208	F	-0.930639	0.387607	-0.189426
F209	F	-0.597306	0.720940	0.143908
F210	F	-0.263973	1.054273	0.477241
F211	F	-1.026823	0.071632	0.197461
F212	F	-0.693489	0.404966	0.530794
F213	F	-0.360156	0.738299	0.864128
F214	F	-1.017923	0.080036	0.384313
F215	F	-0.684590	0.413369	0.717646
F216	F	-0.351257	0.746702	1.050980
H217	H	-1.033326	0.065553	0.781774
H218	H	-0.699993	0.398887	1.115107
H219	H	-0.366659	0.732220	1.448440
H220	H	-1.041137	0.058163	0.617545
H221	H	-0.707804	0.391497	0.950879
H222	H	-0.374471	0.724830	1.284212
F223	F	-0.826428	0.260783	0.779432
F224	F	-0.493095	0.594116	1.112765
F225	F	-0.159761	0.927449	1.446099
F226	F	-0.835312	0.252367	0.592582
F227	F	-0.501979	0.585700	0.925916
F228	F	-0.168646	0.919033	1.259249
F229	F	-0.807151	0.278896	0.182923
F230	F	-0.473818	0.612229	0.516256
F231	F	-0.140484	0.945563	0.849589
F232	F	-0.798263	0.287302	0.369781
F233	F	-0.464930	0.620635	0.703114
F234	F	-0.131596	0.953969	1.036447
H235	H	-0.147974	0.306329	-0.021376
H236	H	0.185360	0.639662	0.311958
H237	H	0.518693	0.972995	0.645291
F238	F	-0.304312	0.336967	-0.023543
F239	F	0.029022	0.670300	0.309791
F240	F	0.362355	1.003634	0.643124
