data_functionalizedCrystal
_audit_creation_method	'MofGen! by Chris Wilmer'
_symmetry_space_group_name_H-M	'P1'
_symmetry_Int_Tables_number	1
_symmetry_cell_setting	triclinic
loop_
_symmetry_equiv_pos_as_xyz
  x,y,z
_cell_length_a	18.050590
_cell_length_b	18.050589
_cell_length_c	16.959447
_cell_angle_alpha	90.026643
_cell_angle_beta	89.999771
_cell_angle_gamma	90.017386
loop_
_atom_site_label
_atom_site_type_symbol
_atom_site_fract_x
_atom_site_fract_y
_atom_site_fract_z
Zn1	Zn	1.135296	-0.295860	0.446622
Zn2	Zn	1.135206	-0.420061	0.314452
Zn3	Zn	1.011114	-0.295866	0.314493
Zn4	Zn	1.011064	-0.419989	0.446624
O5	O	1.073170	-0.357944	0.380548
O6	O	1.239209	-0.312363	0.429071
O7	O	1.118728	-0.403619	0.203846
O8	O	1.027647	-0.191941	0.332037
O9	O	1.239142	-0.403613	0.331966
O10	O	1.118883	-0.191936	0.429111
O11	O	1.027559	-0.312374	0.203877
O12	O	0.907183	-0.312304	0.332039
O13	O	1.027560	-0.403490	0.557235
O14	O	0.907146	-0.403496	0.429115
O15	O	1.118833	-0.312293	0.557233
O16	O	1.118679	-0.523976	0.331968
O17	O	1.027472	-0.523923	0.429075
C18	C	0.880218	-0.357893	0.380582
C19	C	0.797672	-0.357889	0.380615
C20	C	0.598223	-0.407622	0.433280
C21	C	0.548830	-0.339904	0.452725
C22	C	0.646542	-0.357931	0.380576
C23	C	0.548853	-0.425687	0.361130
C24	C	0.500557	-0.357977	0.380541
C25	C	0.598236	-0.290177	0.400060
C26	C	0.598264	-0.376006	0.308431
C27	C	0.548893	-0.308242	0.327849
C28	C	0.730640	-0.357905	0.380599
C29	C	0.416460	-0.357995	0.380518
C30	C	1.073080	-0.550896	0.380535
C31	C	1.073110	-0.633442	0.380555
C32	C	1.023561	-0.832891	0.433343
C33	C	1.005462	-0.882331	0.361221
C34	C	1.073183	-0.784572	0.380566
C35	C	1.091318	-0.882213	0.452696
C36	C	1.073252	-0.930557	0.380582
C37	C	1.055049	-0.832925	0.308405
C38	C	1.140936	-0.832803	0.399929
C39	C	1.122864	-0.882222	0.327757
C40	C	1.073141	-0.700474	0.380557
C41	C	1.073294	-1.014654	0.380582
C42	C	1.266876	-0.357995	0.380514
C43	C	1.349421	-0.358017	0.380500
C44	C	1.073201	-0.357882	0.586716
C45	C	1.073214	-0.357856	0.674573
C46	C	1.073280	-0.164238	0.380578
C47	C	1.073327	-0.081693	0.380591
C48	C	1.073182	-0.357952	0.175181
C49	C	1.073313	-0.357769	0.087325
C50	C	1.025781	-0.405260	1.046052
C51	C	1.120825	-0.310296	1.046045
C52	C	1.120805	-0.310312	0.963499
C53	C	1.073273	-0.357803	0.922226
C54	C	1.025761	-0.405279	0.963498
C55	C	1.168321	-0.262842	0.922221
C56	C	1.168304	-0.262856	0.839670
C57	C	1.120768	-0.310345	0.798395
C58	C	1.073254	-0.357822	0.839672
C59	C	1.025722	-0.405313	0.798399
C60	C	0.978203	-0.452787	0.839675
C61	C	0.978225	-0.452767	0.922223
C62	C	1.120746	-0.310365	0.715846
C63	C	1.025702	-0.405332	0.715845
H64	H	0.527116	-0.324631	0.513722
O65	O	0.931934	-0.498891	0.799669
C66	C	0.857924	-0.482632	0.819837
H67	H	0.856404	-0.454064	0.879777
H68	H	0.832923	-0.444463	0.773385
C69	C	0.814776	-0.590113	0.750028
C70	C	0.812908	-0.555030	0.823650
H71	H	0.787006	-0.634770	0.752377
H72	H	0.864637	-0.601066	0.736438
H73	H	0.793943	-0.558297	0.711325
H74	H	0.833749	-0.586842	0.862349
H75	H	0.763049	-0.544084	0.837247
H76	H	0.619837	-0.232879	0.416561
H77	H	0.527370	-0.266191	0.283265
H78	H	0.939541	-0.491420	0.955837
O79	O	0.973531	-0.807008	0.486605
C80	C	1.010368	-0.763972	0.543874
H81	H	1.071203	-0.780751	0.546355
H82	H	1.005977	-0.702854	0.527620
C83	C	0.899642	-0.756248	0.621989
C84	C	0.974359	-0.776861	0.625041
H85	H	0.877429	-0.764195	0.672056
H86	H	0.874823	-0.785240	0.583404
H87	H	0.895992	-0.705317	0.608440
H88	H	0.978007	-0.827793	0.638579
H89	H	0.999178	-0.747878	0.663630
H90	H	1.106629	-0.903864	0.513689
H91	H	0.987090	-0.443910	1.079662
H92	H	0.948198	-0.904103	0.344859
O93	O	0.624158	-0.394376	0.235707
C94	C	0.597889	-0.465287	0.214818
H95	H	0.583208	-0.497495	0.270473
H96	H	0.546495	-0.459446	0.176250
C97	C	0.676483	-0.467569	0.100559
C98	C	0.658457	-0.507130	0.168916
H99	H	0.713842	-0.493379	0.072241
H100	H	0.694179	-0.419794	0.114630
H101	H	0.633648	-0.462705	0.068428
H102	H	0.701288	-0.511985	0.201050
H103	H	0.640769	-0.554907	0.154849
H104	H	0.527157	-0.482968	0.344700
H105	H	1.039672	-0.811365	0.247395
O106	O	0.979612	-0.451575	0.675788
C107	C	0.995794	-0.525590	0.695957
H108	H	1.055124	-0.529347	0.718640
H109	H	0.955975	-0.544981	0.743876
C110	C	0.914246	-0.570558	0.594760
C111	C	0.987118	-0.575173	0.622612
H112	H	0.908891	-0.601144	0.549519
H113	H	0.903341	-0.520693	0.581172
H114	H	0.881071	-0.586716	0.634699
H115	H	1.020291	-0.559007	0.582677
H116	H	0.998029	-0.625037	0.636191
O117	O	1.166928	-0.264193	1.086257
C118	C	1.156774	-0.274374	1.167968
H119	H	1.099450	-0.298678	1.179252
H120	H	1.200808	-0.313932	1.191366
C121	C	1.234044	-0.169378	1.196512
C122	C	1.163635	-0.199223	1.210372
H123	H	1.238279	-0.123023	1.222671
H124	H	1.240888	-0.162520	1.141462
H125	H	1.270731	-0.202351	1.216011
H126	H	1.126950	-0.166255	1.190865
H127	H	1.156785	-0.206073	1.265420
O128	O	1.172878	-0.907872	0.274355
C129	C	1.153530	-0.882607	0.198446
H130	H	1.091909	-0.868867	0.196899
H131	H	1.186990	-0.830839	0.183783
C132	C	1.246117	-0.960377	0.139324
C133	C	1.170432	-0.943507	0.137422
H134	H	1.256546	-0.997940	0.101681
H135	H	1.259155	-0.977396	0.190466
H136	H	1.273992	-0.917232	0.127107
H137	H	1.142559	-0.986649	0.149649
H138	H	1.157390	-0.926496	0.086282
H139	H	1.198188	-0.811034	0.416326
H140	H	1.207024	-0.224182	0.955832
O141	O	1.214481	-0.216668	0.799700
C142	C	1.256451	-0.174763	0.853832
H143	H	1.226050	-0.172175	0.912687
H144	H	1.312841	-0.201970	0.862585
C145	C	1.304527	-0.098909	0.749350
C146	C	1.267185	-0.095725	0.821634
H147	H	1.311152	-0.050155	0.729489
H148	H	1.276253	-0.127143	0.712880
H149	H	1.351515	-0.121585	0.756654
H150	H	1.220194	-0.073058	0.814328
H151	H	1.295451	-0.067485	0.858103
H152	H	0.619885	-0.449570	0.477899
H153	H	1.159437	-0.271714	0.682243
