data_functionalizedCrystal
_audit_creation_method	'MofGen! by Chris Wilmer'
_symmetry_space_group_name_H-M	'P1'
_symmetry_Int_Tables_number	1
_symmetry_cell_setting	triclinic
loop_
_symmetry_equiv_pos_as_xyz
  x,y,z
_cell_length_a	19.288864
_cell_length_b	19.188924
_cell_length_c	18.366186
_cell_angle_alpha	89.991683
_cell_angle_beta	89.977106
_cell_angle_gamma	83.139105
loop_
_atom_site_label
_atom_site_type_symbol
_atom_site_fract_x
_atom_site_fract_y
_atom_site_fract_z
O1	O	0.921357	0.087099	-0.060786
O2	O	1.421357	0.587099	0.439214
O3	O	0.719097	0.098849	-0.060737
O4	O	1.219097	0.598849	0.439263
O5	O	0.826066	-0.008682	-0.060755
O6	O	1.326066	0.491318	0.439245
O7	O	0.814388	0.194631	-0.060769
O8	O	1.314388	0.694631	0.439231
O9	O	0.826048	-0.008687	0.060345
O10	O	1.326048	0.491313	0.560345
O11	O	0.719079	0.098844	0.060362
O12	O	1.219079	0.598844	0.560362
O13	O	0.921339	0.087094	0.060313
O14	O	1.421339	0.587094	0.560313
Zn15	Zn	0.820206	0.092968	0.079565
Zn16	Zn	1.320206	0.592968	0.579565
Zn17	Zn	0.820230	0.092975	-0.079989
Zn18	Zn	1.320230	0.592975	0.420011
O19	O	0.814370	0.194625	0.060330
O20	O	1.314370	0.694625	0.560330
C21	C	0.693212	0.098468	-0.000181
C22	C	1.193212	0.598468	0.499819
C23	C	0.616108	0.097333	-0.000162
C24	C	1.116108	0.597333	0.499838
C25	C	0.571415	0.160428	-0.000178
C26	C	1.071415	0.660428	0.499822
C27	C	0.498968	0.159362	-0.000186
C28	C	0.998968	0.659362	0.499814
C29	C	0.471217	0.095197	-0.000192
C30	C	0.971217	0.595197	0.499808
C31	C	0.515920	0.032095	-0.000172
C32	C	1.015920	0.532095	0.499828
C33	C	0.588365	0.033163	-0.000157
C34	C	1.088365	0.533163	0.499843
C35	C	0.362959	0.044759	-0.042640
C36	C	0.862959	0.544759	0.457360
C37	C	0.290514	0.043694	-0.042660
C38	C	0.790514	0.543694	0.457340
C39	C	0.247771	0.091901	-0.000236
C40	C	0.747771	0.591901	0.499764
C41	C	0.277480	0.141185	0.042198
C42	C	0.777480	0.641185	0.542198
C43	C	0.349925	0.142253	0.042213
C44	C	0.849925	0.642253	0.542213
C45	C	0.392663	0.094032	-0.000208
C46	C	0.892663	0.594032	0.499792
C47	C	0.124522	0.153843	-0.000260
C48	C	0.624522	0.653843	0.499740
C49	C	0.052074	0.152775	-0.000263
C50	C	0.552074	0.652775	0.499737
C51	C	0.069028	0.025506	-0.000257
C52	C	0.569028	0.525506	0.499743
C53	C	0.141474	0.026576	-0.000246
C54	C	0.641474	0.526576	0.499754
C55	C	0.169217	0.090747	-0.000251
C56	C	0.669217	0.590747	0.499749
C57	C	0.825680	-0.034696	-0.000204
C58	C	1.325680	0.465304	0.499796
C59	C	0.824547	-0.112201	-0.000202
C60	C	1.324547	0.387799	0.499798
C61	C	0.824028	-0.148597	-0.066213
C62	C	1.324028	0.351403	0.433787
C63	C	0.822954	-0.221419	-0.066218
C64	C	1.322954	0.278581	0.433782
C65	C	0.822412	-0.257845	-0.000209
C66	C	1.322412	0.242155	0.499791
C67	C	0.822927	-0.221440	0.065811
C68	C	1.322927	0.278560	0.565811
C69	C	0.823995	-0.148617	0.065815
C70	C	1.323995	0.351383	0.565815
N71	N	0.860256	-0.377513	0.048912
N72	N	1.360256	0.122487	0.548912
N73	N	0.859244	-0.446691	0.048904
N74	N	1.359244	0.053309	0.548904
C75	C	0.819195	-0.477254	-0.000215
C76	C	1.319195	0.022746	0.499785
N77	N	0.780206	-0.436026	-0.049337
N78	N	1.280206	0.063974	0.450663
N79	N	0.781222	-0.366842	-0.049331
N80	N	1.281222	0.133158	0.450669
C81	C	0.821255	-0.336808	-0.000205
C82	C	1.321255	0.163192	0.499795
C83	C	0.817510	-0.592612	-0.066236
C84	C	1.317510	-0.092612	0.433764
C85	C	0.816432	-0.665436	-0.066239
C86	C	1.316432	-0.165436	0.433761
C87	C	0.816412	-0.665456	0.065793
C88	C	1.316412	-0.165456	0.565793
C89	C	0.817484	-0.592633	0.065793
C90	C	1.317484	-0.092633	0.565793
C91	C	0.818036	-0.556216	-0.000223
C92	C	1.318036	-0.056216	0.499777
C93	C	0.947225	0.087475	-0.000245
C94	C	1.447225	0.587475	0.499755
C95	C	1.024328	0.088610	-0.000269
C96	C	1.524328	0.588610	0.499731
C97	C	0.814756	0.220639	-0.000222
C98	C	1.314756	0.720639	0.499778
C99	C	0.815889	0.298144	-0.000229
C100	C	1.315889	0.798144	0.499771
N101	N	0.820195	0.092963	0.188456
N102	N	1.320195	0.592963	0.688456
N103	N	0.820247	0.092975	-0.188880
N104	N	1.320247	0.592975	0.311120
C105	C	0.867576	0.045371	0.226549
C106	C	1.367576	0.545371	0.726549
C107	C	0.867581	0.045368	0.302776
C108	C	1.367581	0.545368	0.802776
C109	C	0.820210	0.092969	0.340909
C110	C	1.320210	0.592969	0.840909
C111	C	0.772820	0.140564	0.302807
C112	C	1.272820	0.640564	0.802807
C113	C	0.772812	0.140561	0.226580
C114	C	1.272812	0.640561	0.726580
C115	C	0.810915	0.156586	0.461666
C116	C	1.310915	0.656586	0.961666
C117	C	0.810928	0.156590	0.537891
C118	C	1.310928	0.656590	1.037891
C119	C	0.820230	0.092977	0.576016
C120	C	1.320230	0.592977	1.076016
C121	C	0.829534	0.029359	0.537907
C122	C	1.329534	0.529359	1.037907
C123	C	0.829527	0.029356	0.461681
C124	C	1.329527	0.529356	0.961681
C125	C	0.820213	0.092977	0.423563
C126	C	1.320213	0.592977	0.923563
C127	C	0.867619	0.045379	0.696764
C128	C	1.367619	0.545379	1.196764
C129	C	0.867618	0.045375	0.772993
C130	C	1.367618	0.545375	1.272993
C131	C	0.772861	0.140576	0.773022
C132	C	1.272861	0.640576	1.273022
C133	C	0.772858	0.140574	0.696794
C134	C	1.272858	0.640574	1.196794
C135	C	0.820241	0.092976	0.658670
C136	C	1.320241	0.592976	1.158670
H137	H	0.242680	0.180439	0.076743
H138	H	0.742680	0.680439	0.576743
H139	H	0.837109	-0.022440	0.568947
H140	H	1.337109	0.477560	1.068947
C141	C	0.815814	-0.705511	0.138404
C142	C	1.315814	-0.205511	0.638404
H143	H	0.816273	-0.673402	0.177720
H144	H	1.316273	-0.173402	0.677720
H145	H	0.855890	-0.739375	0.141140
H146	H	1.355890	-0.239375	0.641140
H147	H	0.774894	-0.728462	0.141155
H148	H	1.274894	-0.228462	0.641155
H149	H	0.906156	0.006613	0.195510
H150	H	1.406156	0.506613	0.695510
C151	C	0.839750	-0.040617	0.419761
C152	C	1.339750	0.459383	0.919761
H153	H	0.845387	-0.078503	0.453377
H154	H	1.345387	0.421497	0.953377
H155	H	0.880135	-0.042093	0.389921
H156	H	1.380135	0.457907	0.889921
H157	H	0.800021	-0.044428	0.390130
H158	H	1.300021	0.455572	0.890130
C159	C	0.822331	-0.261501	0.138422
C160	C	1.322331	0.238499	0.638422
H161	H	0.822787	-0.229392	0.177738
H162	H	1.322787	0.270608	0.677738
H163	H	0.862409	-0.295363	0.141159
H164	H	1.362409	0.204637	0.641159
H165	H	0.781413	-0.284455	0.141171
H166	H	1.281413	0.215545	0.641171
H167	H	0.816006	-0.695068	-0.119996
H168	H	1.316006	-0.195068	0.380004
C169	C	0.449793	0.228766	-0.000207
C170	C	0.949793	0.728766	0.499793
H171	H	0.402674	0.218938	-0.000211
H172	H	0.902674	0.718938	0.499789
H173	H	0.458207	0.255086	-0.042437
H174	H	0.958207	0.755086	0.457563
H175	H	0.458156	0.255088	0.042028
H176	H	0.958156	0.755088	0.542028
C177	C	0.720752	0.192937	0.654887
C178	C	1.220752	0.692937	1.154887
H179	H	0.727530	0.186117	0.604028
H180	H	1.227530	0.686117	1.104028
H181	H	0.728157	0.239514	0.667370
H182	H	1.228157	0.739514	1.167370
H183	H	0.674417	0.185475	0.667401
H184	H	1.174417	0.685475	1.167401
C185	C	0.257841	-0.010518	-0.089331
C186	C	0.757841	0.489482	0.410669
H187	H	0.293672	-0.039085	-0.114583
H188	H	0.793672	0.460915	0.385417
H189	H	0.226384	0.013198	-0.123457
H190	H	0.726384	0.513198	0.376543
H191	H	0.233319	-0.039125	-0.058738
H192	H	0.733319	0.460875	0.441262
H193	H	0.734249	0.179320	0.333858
H194	H	1.234249	0.679320	0.833858
H195	H	0.824414	-0.118984	0.119571
H196	H	1.324414	0.381016	0.619571
C197	C	0.382604	0.196455	0.088892
C198	C	0.882604	0.696455	0.588892
H199	H	0.346778	0.225011	0.114162
H200	H	0.846778	0.725011	0.614162
H201	H	0.407130	0.225064	0.058312
H202	H	0.907130	0.725064	0.558312
H203	H	0.414060	0.172722	0.123016
H204	H	0.914060	0.672722	0.623016
H205	H	0.803356	0.208392	0.568913
H206	H	1.303356	0.708392	1.068913
C207	C	0.155042	0.224427	-0.000257
C208	C	0.655042	0.724427	0.499743
H209	H	0.118045	0.261852	-0.000258
H210	H	0.618045	0.761852	0.499742
H211	H	0.182972	0.227491	-0.042483
H212	H	0.682972	0.727491	0.457517
H213	H	0.182929	0.227485	0.041982
H214	H	0.682929	0.727485	0.541982
C215	C	0.818110	-0.552550	-0.138850
C216	C	1.318110	-0.052550	0.361150
H217	H	0.817636	-0.584657	-0.178166
H218	H	1.317636	-0.084657	0.321834
H219	H	0.859023	-0.529596	-0.141604
H220	H	1.359023	-0.029596	0.358396
H221	H	0.778027	-0.518687	-0.141582
H222	H	1.278027	-0.018687	0.358418
C223	C	0.800687	0.226564	0.419735
C224	C	1.300687	0.726564	0.919735
H225	H	0.795159	0.264451	0.453347
H226	H	1.295159	0.764451	0.953347
H227	H	0.760239	0.228084	0.390018
H228	H	1.260239	0.728084	0.890018
H229	H	0.840366	0.230330	0.389981
H230	H	1.340366	0.730330	0.889981
C231	C	0.720754	0.192936	0.814958
C232	C	1.220754	0.692936	1.314958
H233	H	0.727546	0.186124	0.865812
H234	H	1.227546	0.686124	1.365812
H235	H	0.674422	0.185472	0.802491
H236	H	1.174422	0.685472	1.302491
H237	H	0.728156	0.239517	0.802453
H238	H	1.228156	0.739517	1.302453
C239	C	0.409969	-0.008267	-0.089315
C240	C	0.909969	0.491733	0.410685
H241	H	0.381900	-0.037762	-0.114598
H242	H	0.881900	0.462238	0.385402
H243	H	0.441972	-0.036047	-0.058728
H244	H	0.941972	0.463953	0.441272
H245	H	0.435028	0.016301	-0.123427
H246	H	0.935028	0.516301	0.376573
C247	C	0.919704	-0.006980	0.344691
C248	C	1.419704	0.493020	0.844691
H249	H	0.912918	-0.000162	0.395548
H250	H	1.412918	0.499838	0.895548
H251	H	0.966032	0.000488	0.332172
H252	H	1.466032	0.500488	0.832172
H253	H	0.912306	-0.053565	0.332215
H254	H	1.412306	0.446435	0.832215
C255	C	0.919729	-0.006983	0.654824
C256	C	1.419729	0.493017	1.154824
H257	H	0.947942	-0.035336	0.688431
H258	H	1.447942	0.464664	1.188431
H259	H	0.948562	0.018057	0.625068
H260	H	1.448562	0.518057	1.125068
H261	H	0.894826	-0.035985	0.625107
H262	H	1.394826	0.464015	1.125107
C263	C	0.919742	-0.006978	0.814895
C264	C	1.419742	0.493022	1.314895
H265	H	0.947963	-0.035319	0.781269
H266	H	1.447963	0.464681	1.281269
H267	H	0.894856	-0.035982	0.844650
H268	H	1.394856	0.464018	1.344650
H269	H	0.948577	0.018075	0.844610
H270	H	1.448577	0.518075	1.344610
C271	C	0.818066	-0.552597	0.138407
C272	C	1.318066	-0.052597	0.638407
H273	H	0.817596	-0.584719	0.177720
H274	H	1.317596	-0.084719	0.677720
H275	H	0.777989	-0.518734	0.141165
H276	H	1.277989	-0.018734	0.641165
H277	H	0.858985	-0.529646	0.141139
H278	H	1.358985	-0.029646	0.641139
H279	H	0.734228	0.179316	0.195565
H280	H	1.234228	0.679316	0.695565
H281	H	0.593998	0.212681	-0.000183
H282	H	1.093998	0.712681	0.499817
H283	H	0.015685	0.204156	-0.000272
H284	H	0.515685	0.704156	0.499728
H285	H	0.046434	-0.026738	-0.000308
H286	H	0.546434	0.473262	0.499692
C287	C	0.190642	-0.042826	-0.000240
C288	C	0.690642	0.457174	0.499760
H289	H	0.237762	-0.033001	-0.000225
H290	H	0.737762	0.466999	0.499775
H291	H	0.182275	-0.069145	-0.042471
H292	H	0.682275	0.430855	0.457529
H293	H	0.182229	-0.069148	0.041995
H294	H	0.682229	0.430852	0.541995
C295	C	0.485397	-0.038484	-0.000184
C296	C	0.985397	0.461516	0.499816
H297	H	0.435850	-0.030084	-0.000204
H298	H	0.935850	0.469916	0.499796
H299	H	0.500726	-0.064458	0.042049
H300	H	1.000726	0.435542	0.542049
H301	H	0.500778	-0.064449	-0.042416
H302	H	1.000778	0.435551	0.457584
C303	C	0.637533	-0.036242	-0.000145
C304	C	1.137533	0.463758	0.499855
H305	H	0.684652	-0.026416	-0.000133
H306	H	1.184652	0.473584	0.499867
H307	H	0.629165	-0.062562	-0.042374
H308	H	1.129165	0.437438	0.457626
H309	H	0.629122	-0.062563	0.042091
H310	H	1.129122	0.437437	0.542091
C311	C	0.824623	-0.108540	-0.138828
C312	C	1.324623	0.391460	0.361172
H313	H	0.824153	-0.140650	-0.178143
H314	H	1.324153	0.359350	0.321857
H315	H	0.865533	-0.085581	-0.141585
H316	H	1.365533	0.414419	0.358415
H317	H	0.784537	-0.074682	-0.141560
H318	H	1.284537	0.425318	0.358440
H319	H	0.822527	-0.251058	-0.119975
H320	H	1.322527	0.248942	0.380025
