data_functionalizedCrystal
_audit_creation_method	'MofGen! by Chris Wilmer'
_symmetry_space_group_name_H-M	'P1'
_symmetry_Int_Tables_number	1
_symmetry_cell_setting	triclinic
loop_
_symmetry_equiv_pos_as_xyz
  x,y,z
_cell_length_a	17.699103
_cell_length_b	10.489716
_cell_length_c	16.176319
_cell_angle_alpha	90.003464
_cell_angle_beta	89.998536
_cell_angle_gamma	83.910098
loop_
_atom_site_label
_atom_site_type_symbol
_atom_site_fract_x
_atom_site_fract_y
_atom_site_fract_z
O1	O	0.106679	1.692103	0.068750
O2	O	0.606679	2.192103	0.568750
O3	O	0.116721	1.320718	0.068754
O4	O	0.616721	1.820718	0.568754
O5	O	0.001580	1.516890	0.068736
O6	O	0.501580	2.016890	0.568736
O7	O	0.221820	1.495931	0.068768
O8	O	0.721820	1.995931	0.568768
O9	O	0.001601	1.516871	-0.068757
O10	O	0.501601	2.016871	0.431243
O11	O	0.116742	1.320699	-0.068739
O12	O	0.616742	1.820699	0.431261
O13	O	0.106700	1.692084	-0.068743
O14	O	0.606700	2.192084	0.431257
Cu15	Cu	0.111723	1.506390	-0.081295
Cu16	Cu	0.611723	2.006390	0.418705
Cu17	Cu	0.111698	1.506412	0.081306
Cu18	Cu	0.611698	2.006412	0.581306
O19	O	0.221841	1.495912	-0.068725
O20	O	0.721841	1.995912	0.431275
C21	C	0.115977	1.273190	0.000008
C22	C	0.615977	1.773190	0.500008
C23	C	0.113719	1.131601	0.000009
C24	C	0.613719	1.631601	0.500009
C25	C	0.184328	1.032624	0.000021
C26	C	0.684328	1.532624	0.500021
C27	C	0.147027	0.955957	-0.067780
C28	C	0.647027	1.455957	0.432220
C29	C	0.146990	0.955983	0.067778
C30	C	0.646990	1.455983	0.567778
C31	C	0.076448	1.056800	-0.067848
C32	C	0.576448	1.556800	0.432152
C33	C	0.076421	1.056830	0.067771
C34	C	0.576421	1.556830	0.567771
C35	C	0.039069	0.980214	-0.000046
C36	C	0.539069	1.480214	0.499954
C37	C	-0.026612	1.516125	-0.000013
C38	C	0.473388	2.016125	0.499987
C39	C	-0.110644	1.513860	-0.000020
C40	C	0.389356	2.013860	0.499980
C41	C	-0.626456	1.500010	0.074982
C42	C	-0.126456	2.000010	0.574982
C43	C	-0.547499	1.502138	0.074975
C44	C	-0.047499	2.002138	0.574975
C45	C	-0.508023	1.503188	0.000022
C46	C	-0.008023	2.003188	0.500022
C47	C	-0.547508	1.502125	-0.074928
C48	C	-0.047508	2.002125	0.425072
C49	C	-0.626464	1.500007	-0.074920
C50	C	-0.126464	2.000007	0.425080
C51	C	-0.229086	1.510669	-0.074962
C52	C	0.270914	2.010669	0.425038
C53	C	-0.150124	1.512783	-0.074965
C54	C	0.349876	2.012783	0.425035
C55	C	-0.150121	1.512800	0.074932
C56	C	0.349879	2.012800	0.574932
C57	C	-0.229077	1.510681	0.074940
C58	C	0.270923	2.010681	0.574940
C59	C	-0.268556	1.509625	-0.000009
C60	C	0.231444	2.009625	0.499991
C61	C	-0.354171	1.507320	-0.000001
C62	C	0.145829	2.007320	0.499999
C63	C	-0.422409	1.505483	0.000013
C64	C	0.077591	2.005483	0.500013
C65	C	0.250032	1.496677	0.000026
C66	C	0.750032	1.996677	0.500026
C67	C	0.334064	1.498943	0.000038
C68	C	0.834064	1.998943	0.500038
C69	C	0.107444	1.739612	0.000005
C70	C	0.607444	2.239612	0.500005
C71	C	0.109701	1.881201	0.000010
C72	C	0.609701	2.381201	0.500010
N73	N	0.111740	1.506384	-0.195661
N74	N	0.611740	2.006384	0.304339
C75	C	0.065333	1.429210	-0.761057
C76	C	0.565333	1.929210	-0.261057
C77	C	0.065339	1.429208	-0.674510
C78	C	0.565339	1.929208	-0.174510
C79	C	0.111691	1.506418	-0.631236
C80	C	0.611691	2.006418	-0.131236
C81	C	0.158035	1.583645	-0.674514
C82	C	0.658035	2.083645	-0.174514
C83	C	0.158024	1.583654	-0.761059
C84	C	0.658024	2.083654	-0.261059
C85	C	0.158077	1.583614	-0.325486
C86	C	0.658077	2.083614	0.174514
C87	C	0.158086	1.583596	-0.238934
C88	C	0.658086	2.083596	0.261066
C89	C	0.065392	1.429168	-0.238936
C90	C	0.565392	1.929168	0.261064
C91	C	0.065382	1.429176	-0.325481
C92	C	0.565382	1.929176	0.174519
C93	C	0.111722	1.506408	-0.368752
C94	C	0.611722	2.006408	0.131248
C95	C	0.111714	1.506412	-0.462596
C96	C	0.611714	2.006412	0.037404
C97	C	0.111704	1.506408	-0.537393
C98	C	0.611704	2.006408	-0.037393
N99	N	0.111675	1.506429	0.195671
N100	N	0.611675	2.006429	0.695671
H101	H	-0.658592	1.499143	0.136017
H102	H	-0.158592	1.999143	0.636017
H103	H	0.027640	1.366299	-0.360710
H104	H	0.527640	1.866299	0.139290
H105	H	0.195760	1.646534	-0.796290
H106	H	0.695760	2.146534	-0.296290
Br107	Br	0.196677	0.882599	0.163300
Br108	Br	0.696677	1.382599	0.663300
Br109	Br	-0.493923	1.503594	0.176690
Br110	Br	0.006077	2.003594	0.676690
H111	H	0.027592	1.366330	-0.796284
H112	H	0.527592	1.866330	-0.296284
Br113	Br	-0.096548	1.514206	-0.176693
Br114	Br	0.403452	2.014206	0.323307
Br115	Br	0.220936	1.688442	-0.615786
Br116	Br	0.720936	2.188442	-0.115786
Br117	Br	0.286692	1.071866	-0.000068
Br118	Br	0.786692	1.571866	0.499932
H119	H	-0.022394	0.956918	-0.000094
H120	H	0.477606	1.456918	0.499906
H121	H	0.176843	0.911917	-0.125090
H122	H	0.676843	1.411917	0.374910
H123	H	0.046668	1.100658	-0.125224
H124	H	0.546668	1.600658	0.374776
H125	H	-0.515360	1.502988	-0.135955
H126	H	-0.015360	2.002988	0.364045
H127	H	0.046629	1.100884	0.125084
H128	H	0.546629	1.600884	0.625084
H129	H	0.195833	1.646474	-0.203703
H130	H	0.695833	2.146474	0.296297
Br131	Br	-0.282649	1.509247	0.176665
Br132	Br	0.217351	2.009247	0.676665
Br133	Br	-0.096539	1.514250	0.176652
Br134	Br	0.403461	2.014250	0.676652
Br135	Br	-0.282654	1.509225	-0.176680
Br136	Br	0.217346	2.009225	0.323320
Br137	Br	-0.680046	1.498572	-0.176634
Br138	Br	-0.180046	1.998572	0.323366
H139	H	0.027601	1.366333	-0.639281
H140	H	0.527601	1.866333	-0.139281
H141	H	0.027657	1.366286	-0.203695
H142	H	0.527657	1.866286	0.296305
Br143	Br	0.220972	1.688420	-0.384199
Br144	Br	0.720972	2.188420	0.115801
