data_functionalizedCrystal
_audit_creation_method	'MofGen! by Chris Wilmer'
_symmetry_space_group_name_H-M	'P1'
_symmetry_Int_Tables_number	1
_symmetry_cell_setting	triclinic
loop_
_symmetry_equiv_pos_as_xyz
  x,y,z
_cell_length_a	6.817900
_cell_length_b	17.982959
_cell_length_c	16.305550
_cell_angle_alpha	95.663793
_cell_angle_beta	103.455250
_cell_angle_gamma	102.451857
loop_
_atom_site_label
_atom_site_type_symbol
_atom_site_fract_x
_atom_site_fract_y
_atom_site_fract_z
V1	V	-4.021185	-0.106056	-0.263386
O2	O	-4.014053	0.004435	-0.258009
O3	O	-3.967692	-0.209656	-0.261933
O4	O	-3.972655	-0.104715	-0.378098
O5	O	-4.009056	-0.101232	-0.141040
V6	V	-4.505489	-0.092806	-0.248710
O7	O	-4.280728	-0.135122	-0.295579
O8	O	-4.696143	-0.063740	-0.216517
O9	O	-4.335776	0.010793	-0.250163
O10	O	-4.630018	-0.203297	-0.254086
O11	O	-4.635015	-0.097630	-0.371056
O12	O	-4.330813	-0.094147	-0.133997
C13	C	-3.811458	-0.234902	-0.257868
C14	C	-3.849007	-0.319597	-0.257445
C15	C	-4.048560	-0.363278	-0.261467
C16	C	-4.083832	-0.442859	-0.261074
C17	C	-3.919546	-0.478757	-0.256654
C18	C	-3.719978	-0.435071	-0.252634
C19	C	-3.684711	-0.355492	-0.253032
C20	C	-3.862200	-0.756002	-0.251027
C21	C	-3.897482	-0.835586	-0.250626
C22	C	-4.261321	-0.843370	-0.259069
C23	C	-4.226054	-0.763791	-0.259467
C24	C	-4.026493	-0.720112	-0.255452
C25	C	-3.988250	-0.633822	-0.255879
C26	C	-3.957783	-0.565045	-0.256220
C27	C	-3.817788	-0.101039	-0.406047
C28	C	-3.859359	-0.100628	-0.499828
C29	C	-4.010522	-0.099036	-0.840568
C30	C	-3.774699	-0.094308	-0.799624
C31	C	-3.731470	-0.095051	-0.702131
C32	C	-3.935526	-0.099825	-0.671523
C33	C	-4.098969	-0.175070	-0.722401
C34	C	-4.140853	-0.174645	-0.819949
C35	C	-4.068613	-0.029120	-0.794491
C36	C	-4.020712	-0.028524	-0.696646
C37	C	-3.893155	-0.100274	-0.575986
C38	C	-4.052902	-0.098592	-0.936105
C39	C	-4.155351	0.036035	-0.254225
C40	C	-4.097040	0.120730	-0.254654
C41	C	-4.149022	-0.097826	-0.106044
C42	C	-4.086689	-0.098233	-0.012263
H43	H	-3.522219	-0.319928	-0.249761
H44	H	-4.102182	-0.227573	-0.850507
H45	H	-3.671155	-0.039952	-0.811805
H46	H	-3.699708	-0.720448	-0.247752
C47	C	-4.456051	-0.250300	-0.918903
C48	C	-4.375090	-0.183554	-0.857786
H49	H	-4.600653	-0.255801	-0.942265
H50	H	-4.435650	-0.293933	-0.892763
H51	H	-4.386775	-0.246424	-0.963136
H52	H	-4.444356	-0.187432	-0.813549
H53	H	-4.395508	-0.139911	-0.883925
H54	H	-4.251828	-0.181285	-0.703509
C55	C	-3.641106	-0.206340	-0.780898
C56	C	-3.710555	-0.162114	-0.842382
H57	H	-3.601495	-0.248196	-0.807298
H58	H	-3.749861	-0.225687	-0.755514
H59	H	-3.524835	-0.175131	-0.738192
H60	H	-3.826836	-0.193321	-0.885085
H61	H	-3.601789	-0.142767	-0.867779
C62	C	-3.688711	-0.910120	-0.172388
C63	C	-3.716884	-0.875046	-0.245770
H64	H	-3.577216	-0.934476	-0.169388
H65	H	-3.812596	-0.947519	-0.174727
H66	H	-3.657179	-0.872145	-0.123279
H67	H	-3.748431	-0.913022	-0.294880
H68	H	-3.592971	-0.837644	-0.243438
H69	H	-3.586218	-0.464305	-0.249039
H70	H	-3.607555	-0.040950	-0.666927
H71	H	-3.662619	-0.145862	-0.686007
H72	H	-4.041009	-0.228013	-0.705765
C73	C	-4.333542	-0.645258	-0.263823
C74	C	-4.406640	-0.724332	-0.264326
H75	H	-4.445032	-0.620900	-0.266819
H76	H	-4.278347	-0.637703	-0.311597
H77	H	-4.227691	-0.623543	-0.212702
H78	H	-4.512481	-0.746049	-0.315450
H79	H	-4.461867	-0.731892	-0.216547
C80	C	-3.821301	0.033449	-0.864894
C81	C	-3.948891	0.047848	-0.812271
H82	H	-3.747368	0.080964	-0.875866
H83	H	-3.904705	0.002829	-0.917275
H84	H	-3.725275	0.006800	-0.837222
H85	H	-4.044928	0.074493	-0.839946
H86	H	-3.865480	0.078481	-0.759881
C87	C	-3.825047	0.048084	-0.561659
C88	C	-3.860895	0.046612	-0.649989
H89	H	-3.726387	0.094471	-0.532853
H90	H	-3.772639	0.005166	-0.546215
H91	H	-3.951805	0.045626	-0.546005
H92	H	-3.734139	0.049064	-0.665644
H93	H	-3.913296	0.089542	-0.665439
C94	C	-4.373345	-0.094579	-0.706644
C95	C	-4.219445	-0.027245	-0.667701
H96	H	-4.495998	-0.093789	-0.688743
H97	H	-4.325319	-0.138217	-0.690691
H98	H	-4.403114	-0.097389	-0.766912
H99	H	-4.189664	-0.024438	-0.607433
H100	H	-4.267480	0.016405	-0.683649
C101	C	-4.182661	-0.267868	-0.193917
C102	C	-4.229151	-0.323822	-0.266323
H103	H	-4.294163	-0.243515	-0.196916
H104	H	-4.058785	-0.230467	-0.191584
H105	H	-4.163540	-0.291679	-0.144145
H106	H	-4.248257	-0.300010	-0.316095
H107	H	-4.353063	-0.361229	-0.268665
C108	C	-4.367443	-0.463539	-0.195235
C109	C	-4.303189	-0.490864	-0.265483
H110	H	-4.502868	-0.493176	-0.197955
H111	H	-4.369925	-0.411013	-0.196110
H112	H	-4.273127	-0.467909	-0.143998
H113	H	-4.397497	-0.486489	-0.316721
H114	H	-4.300722	-0.543404	-0.264616
C115	C	-4.320791	0.033874	-0.865956
C116	C	-4.300706	-0.032881	-0.830706
H117	H	-4.464074	0.031548	-0.888312
H118	H	-4.252508	0.037541	-0.910499
H119	H	-4.259438	0.077807	-0.822955
H120	H	-4.362045	-0.076814	-0.873708
H121	H	-4.369017	-0.036556	-0.786158
H122	H	-4.423817	-0.878943	-0.262340
