data_functionalizedCrystal
_audit_creation_method	'MofGen! by Chris Wilmer'
_symmetry_space_group_name_H-M	'P1'
_symmetry_Int_Tables_number	1
_symmetry_cell_setting	triclinic
loop_
_symmetry_equiv_pos_as_xyz
  x,y,z
_cell_length_a	12.837943
_cell_length_b	13.339070
_cell_length_c	11.295675
_cell_angle_alpha	95.199215
_cell_angle_beta	85.457556
_cell_angle_gamma	105.229117
loop_
_atom_site_label
_atom_site_type_symbol
_atom_site_fract_x
_atom_site_fract_y
_atom_site_fract_z
O1	O	1.458427	0.264195	-0.098992
O2	O	1.152779	0.250833	-0.098999
O3	O	1.270524	0.106869	-0.098993
O4	O	1.340682	0.408159	-0.098998
O5	O	1.260153	0.119448	0.099051
O6	O	1.142408	0.263412	0.099045
O7	O	1.448056	0.276774	0.099053
Cu8	Cu	1.294285	0.271241	0.117132
Cu9	Cu	1.306550	0.256365	-0.117078
O10	O	1.330311	0.420737	0.099046
C11	C	1.107675	0.252608	0.000022
C12	C	0.988726	0.239146	0.000019
C13	C	1.253488	0.074327	0.000027
C14	C	1.218164	-0.041381	0.000022
C15	C	0.794315	0.400986	0.000033
C16	C	0.682553	0.388342	0.000031
C17	C	0.653436	0.201215	0.000022
C18	C	0.765199	0.213859	0.000024
C19	C	0.835635	0.313748	0.000028
C20	C	0.947400	0.326391	0.000021
C21	C	0.918281	0.139265	0.000020
C22	C	0.806518	0.126621	0.000018
C23	C	1.492830	-0.379696	0.000029
C24	C	1.526022	-0.270983	0.000041
C25	C	1.449060	-0.213577	0.000036
C26	C	1.338901	-0.264895	0.000019
C27	C	1.305705	-0.373618	0.000017
C28	C	1.261935	-0.207499	0.000024
C29	C	1.151776	-0.258817	0.000007
C30	C	1.118585	-0.367530	0.000004
C31	C	1.195547	-0.424936	0.000009
C32	C	1.295131	-0.098776	0.000026
C33	C	1.108006	-0.092698	0.000014
C34	C	1.074814	-0.201411	0.000002
C35	C	1.493161	0.274998	0.000029
C36	C	1.612110	0.288460	0.000024
C37	C	1.347347	0.453280	0.000023
C38	C	1.382672	0.568987	0.000021
N39	N	1.315175	0.245895	-0.281809
C40	C	1.223564	0.357193	-0.531157
C41	C	1.230084	0.349256	-0.655817
C42	C	1.334729	0.222081	-0.655790
C43	C	1.328209	0.230018	-0.531130
C44	C	1.272626	0.297577	-0.468818
C45	C	1.266112	0.305518	-0.344157
C46	C	1.370750	0.178338	-0.344132
C47	C	1.377271	0.170401	-0.468792
N48	N	1.285666	0.281704	0.281863
H49	H	1.004748	0.407725	0.000026
F50	F	1.026091	-0.031608	0.000015
F51	F	1.422975	0.114893	-0.277775
F52	F	1.177863	0.412706	-0.722158
F53	F	1.574724	-0.440796	0.000053
F54	F	0.638581	0.481194	0.000041
F55	F	1.160232	-0.540650	-0.000116
H56	H	0.851666	0.482319	0.000035
H57	H	0.596064	0.119897	0.000117
F58	F	0.731545	0.020318	0.000018
H59	H	1.028886	-0.409309	-0.000001
F60	F	1.436809	0.098830	-0.535121
H61	H	0.951934	0.068229	0.000008
H62	H	1.476092	-0.125058	0.000046
H63	H	0.985120	-0.243210	-0.000011
F64	F	1.412367	-0.044172	0.000045
H65	H	1.178315	0.412209	-0.480422
F66	F	1.643258	-0.216376	0.000039
F67	F	1.206960	0.377422	-0.277842
F68	F	1.393869	0.150174	-0.722120
