data_functionalizedCrystal
_audit_creation_method	'MofGen! by Chris Wilmer'
_symmetry_space_group_name_H-M	'P1'
_symmetry_Int_Tables_number	1
_symmetry_cell_setting	triclinic
loop_
_symmetry_equiv_pos_as_xyz
  x,y,z
_cell_length_a	10.654562
_cell_length_b	14.519709
_cell_length_c	9.130313
_cell_angle_alpha	89.997798
_cell_angle_beta	89.996930
_cell_angle_gamma	84.085124
loop_
_atom_site_label
_atom_site_type_symbol
_atom_site_fract_x
_atom_site_fract_y
_atom_site_fract_z
O1	O	1.666579	0.129584	-0.121899
O2	O	2.166579	0.629584	0.378101
O3	O	1.300984	0.141913	-0.121881
O4	O	1.800984	0.641913	0.378119
O5	O	1.493475	0.001560	-0.121878
O6	O	1.993475	0.501560	0.378122
O7	O	1.474088	0.269936	-0.121903
O8	O	1.974088	0.769936	0.378097
O9	O	1.493472	0.001564	0.121721
O10	O	1.993472	0.501564	0.621721
O11	O	1.300981	0.141916	0.121718
O12	O	1.800981	0.641916	0.621718
O13	O	1.666576	0.129588	0.121700
O14	O	2.166576	0.629588	0.621700
Cu15	Cu	1.483779	0.135752	0.143951
Cu16	Cu	1.983779	0.635752	0.643951
Cu17	Cu	1.483782	0.135748	-0.144133
Cu18	Cu	1.983782	0.635748	0.355867
O19	O	1.474086	0.269940	0.121696
O20	O	1.974086	0.769940	0.621696
C21	C	1.254194	0.141007	-0.000079
C22	C	1.754194	0.641007	0.499921
C23	C	1.114777	0.138291	-0.000072
C24	C	1.614777	0.638291	0.499928
C25	C	1.049257	0.137027	0.132702
C26	C	1.549257	0.637027	0.632702
C27	C	0.918260	0.134482	0.132678
C28	C	1.418260	0.634482	0.632678
C29	C	0.918312	0.134471	-0.132907
C30	C	1.418312	0.634471	0.367093
C31	C	1.049309	0.137009	-0.132881
C32	C	1.549309	0.637009	0.367119
C33	C	1.049225	0.137037	0.286036
C34	C	1.549225	0.637037	0.786036
C35	C	0.918227	0.134493	0.286011
C36	C	1.418227	0.634493	0.786011
C37	C	1.492570	-0.032802	-0.000078
C38	C	1.992570	0.467198	0.499922
C39	C	1.489862	-0.135198	-0.000077
C40	C	1.989862	0.364802	0.499923
C41	C	1.479895	-0.510145	-0.000114
C42	C	1.979895	-0.010145	0.499886
C43	C	1.482663	-0.405823	-0.000103
C44	C	1.982663	0.094177	0.499897
C45	C	1.484879	-0.322675	-0.000094
C46	C	1.984879	0.177325	0.499906
C47	C	1.487647	-0.218346	-0.000086
C48	C	1.987647	0.281654	0.499914
C49	C	1.713367	0.130493	-0.000105
C50	C	2.213367	0.630493	0.499895
C51	C	1.852783	0.133209	-0.000122
C52	C	2.352783	0.633209	0.499878
C53	C	1.474990	0.304302	-0.000107
C54	C	1.974990	0.804302	0.499893
C55	C	1.477698	0.406698	-0.000118
C56	C	1.977698	0.906698	0.499882
N57	N	1.483786	0.135755	0.346574
N58	N	1.983786	0.635755	0.846574
N59	N	1.483784	0.135738	-0.346755
N60	N	1.983784	0.635738	0.153245
C61	C	1.569042	0.073628	0.423227
C62	C	2.069042	0.573628	0.923227
C63	C	1.569039	0.073617	0.576564
C64	C	2.069039	0.573617	1.076564
C65	C	1.398519	0.197868	0.576580
C66	C	1.898519	0.697868	1.076580
C67	C	1.398517	0.197874	0.423246
C68	C	1.898517	0.697874	0.923246
C69	C	1.667495	0.001896	0.423219
C70	C	2.167495	0.501896	0.923219
C71	C	1.667492	0.001885	0.576556
C72	C	2.167492	0.501885	1.076556
H73	H	0.889285	0.067234	0.333597
H74	H	1.389285	0.567234	0.833597
H75	H	1.637623	-0.065102	0.624111
H76	H	2.137623	0.434898	1.124111
H77	H	1.096097	0.073304	0.344925
H78	H	1.596097	0.573304	0.844925
N79	N	0.856097	0.218918	0.363966
N80	N	1.356097	0.718918	0.863966
H81	H	0.877525	0.276633	0.311859
H82	H	1.377525	0.776633	0.811859
H83	H	0.761605	0.217030	0.363972
H84	H	1.261605	0.717030	0.863972
N85	N	1.795124	0.022819	0.631683
N86	N	2.295124	0.522819	1.131683
H87	H	1.813575	0.085619	0.594853
H88	H	2.313575	0.585619	1.094853
H89	H	1.795087	0.022766	0.742299
H90	H	2.295087	0.522766	1.242299
N91	N	1.119984	0.138348	-0.276086
N92	N	1.619984	0.638348	0.223914
H93	H	1.058630	0.137150	-0.360219
H94	H	1.558630	0.637150	0.139781
H95	H	1.164303	0.196467	-0.281889
H96	H	1.664303	0.696467	0.218111
H97	H	1.078153	0.204298	0.333606
H98	H	1.578153	0.704298	0.833606
H99	H	1.646734	-0.068990	0.381607
H100	H	2.146734	0.431010	0.881607
N101	N	0.847701	0.133083	-0.276145
N102	N	1.347701	0.633083	0.223855
H103	H	0.754773	0.131280	-0.256017
H104	H	1.254773	0.631280	0.243983
H105	H	0.860564	0.190594	-0.334141
H106	H	1.360564	0.690594	0.165859
H107	H	1.758462	0.024360	0.375654
H108	H	2.258462	0.524360	0.875654
H109	H	1.329084	0.248454	0.360836
H110	H	1.829084	0.748454	0.860836
N111	N	1.306550	0.264862	0.659277
N112	N	1.806550	0.764862	1.159277
H113	H	1.319483	0.255430	0.768046
H114	H	1.819483	0.755430	1.268046
H115	H	1.321193	0.330390	0.632482
H116	H	1.821193	0.830390	1.132482
