data_functionalizedCrystal
_audit_creation_method	'MofGen! by Chris Wilmer'
_symmetry_space_group_name_H-M	'P1'
_symmetry_Int_Tables_number	1
_symmetry_cell_setting	triclinic
loop_
_symmetry_equiv_pos_as_xyz
  x,y,z
_cell_length_a	16.109293
_cell_length_b	15.186229
_cell_length_c	19.288865
_cell_angle_alpha	90.008968
_cell_angle_beta	96.702741
_cell_angle_gamma	89.993231
loop_
_atom_site_label
_atom_site_type_symbol
_atom_site_fract_x
_atom_site_fract_y
_atom_site_fract_z
O1	O	-1.102829	0.073308	0.089254
O2	O	-0.860729	0.073296	0.100370
O3	O	-0.988775	0.073285	-0.006302
O4	O	-0.974783	0.073319	0.195926
O5	O	-0.988766	-0.073172	-0.006303
O6	O	-0.860720	-0.073161	0.100369
O7	O	-1.102821	-0.073149	0.089252
Zn8	Zn	-0.981769	-0.096408	0.094810
Zn9	Zn	-0.981780	0.096556	0.094812
O10	O	-0.974775	-0.073138	0.195924
C11	C	-0.829751	0.000066	0.099920
C12	C	-0.737460	0.000060	0.098573
C13	C	-0.525124	-0.079771	0.095457
C14	C	-0.438408	-0.079771	0.094184
C15	C	-0.438428	0.079905	0.094189
C16	C	-0.525143	0.079904	0.095457
C17	C	-0.568488	0.000063	0.096095
C18	C	-0.395057	0.000065	0.093553
C19	C	-0.301036	0.000066	0.092173
C20	C	-0.662516	0.000062	0.097474
N21	N	-0.981768	-0.228101	0.094808
C22	C	-1.038485	-0.453829	0.047590
C23	C	-1.038488	-0.546018	0.047588
C24	C	-0.925065	-0.546018	0.142029
C25	C	-0.925059	-0.453830	0.142027
C26	C	-0.981774	-0.407737	0.094808
C27	C	-0.981782	-0.592115	0.094809
C28	C	-0.981785	-0.692071	0.094807
C29	C	-0.981770	-0.307775	0.094809
C30	C	-0.133798	0.000077	0.089709
C31	C	-0.226086	0.000068	0.091075
C32	C	-0.988320	0.000054	-0.032180
C33	C	-0.986969	0.000046	-0.109287
N34	N	-0.981788	0.228248	0.094808
C35	C	-1.062100	0.000046	-0.153806
C36	C	-1.060831	0.000059	-0.226256
C37	C	-0.984425	0.000056	-0.254184
C38	C	-0.909284	0.000062	-0.209655
C39	C	-0.910555	0.000057	-0.137207
C40	C	-0.924359	-0.051248	-0.362614
C41	C	-0.923090	-0.051248	-0.435061
C42	C	-0.980500	0.000076	-0.477639
C43	C	-1.039192	0.051388	-0.447761
C44	C	-1.040464	0.051383	-0.375313
C45	C	-0.983038	0.000062	-0.332741
C46	C	-1.054260	0.000091	-0.600717
C47	C	-1.052987	0.000111	-0.673168
C48	C	-0.901438	0.000104	-0.656566
C49	C	-0.902713	0.000094	-0.584116
C50	C	-0.979126	0.000083	-0.556196
C51	C	-0.975229	0.000095	0.221803
C52	C	-0.976581	0.000109	0.298909
H53	H	-0.403125	0.144909	0.093671
C54	C	-0.862663	-0.596718	0.193951
H55	H	-0.828874	-0.556061	0.222062
H56	H	-0.892438	-0.632681	0.222881
H57	H	-0.828159	-0.632678	0.168934
C58	C	-0.861207	-0.107708	-0.315782
H59	H	-0.870365	-0.100357	-0.268355
H60	H	-0.868304	-0.167917	-0.328466
H61	H	-0.805989	-0.089666	-0.321626
C62	C	-0.862680	-0.403122	0.193973
H63	H	-0.870796	-0.341617	0.187204
H64	H	-0.871537	-0.418216	0.240332
H65	H	-0.807219	-0.418239	0.186418
C66	C	-0.390678	-0.167585	0.093664
H67	H	-0.332817	-0.156153	0.092865
H68	H	-0.398461	-0.200237	0.134407
H69	H	-0.411294	-0.200539	0.053439
C70	C	-0.825238	0.000061	-0.240370
H71	H	-0.780672	0.000069	-0.203477
H72	H	-0.821584	-0.051009	-0.268295
H73	H	-0.821600	0.051144	-0.268278
C74	C	-0.572847	0.167726	0.096162
H75	H	-0.534612	0.215276	0.095610
H76	H	-0.613168	0.171039	0.056176
H77	H	-0.600179	0.171045	0.137143
H78	H	-0.560413	-0.144783	0.095976
H79	H	-1.084665	-0.416303	0.009141
H80	H	-1.116480	0.000087	-0.577983
H81	H	-1.085940	0.093182	-0.482427
H82	H	-1.124322	0.000040	-0.131078
C83	C	-1.100874	-0.596715	-0.004349
H84	H	-1.134652	-0.556058	-0.032465
H85	H	-1.071082	-0.632690	-0.033271
H86	H	-1.135391	-0.632664	0.020651
C87	C	-1.143478	0.000053	-0.275235
H88	H	-1.189168	0.000040	-0.248230
H89	H	-1.146141	0.051125	-0.303838
H90	H	-1.146119	-0.051028	-0.303846
C91	C	-1.105014	0.107825	-0.342446
H92	H	-1.097550	0.100463	-0.293201
H93	H	-1.097505	0.168036	-0.353507
H94	H	-1.159815	0.089781	-0.360345
C95	C	-1.135636	0.000109	-0.722139
H96	H	-1.181323	0.000093	-0.695131
H97	H	-1.138301	0.051184	-0.750738
H98	H	-1.138279	-0.050968	-0.750754
C99	C	-0.817393	0.000103	-0.687278
H100	H	-0.827395	0.000102	-0.736802
H101	H	-0.786471	0.051174	-0.671984
H102	H	-0.786466	-0.050979	-0.672004
H103	H	-0.841532	0.000089	-0.547868
C104	C	-0.858533	-0.107689	-0.467920
H105	H	-0.824514	-0.138244	-0.432187
H106	H	-0.886773	-0.148949	-0.499336
H107	H	-0.824470	-0.070688	-0.492499
H108	H	-0.849372	0.000057	-0.100959
