data_functionalizedCrystal
_audit_creation_method	'MofGen! by Chris Wilmer'
_symmetry_space_group_name_H-M	'P1'
_symmetry_Int_Tables_number	1
_symmetry_cell_setting	triclinic
loop_
_symmetry_equiv_pos_as_xyz
  x,y,z
_cell_length_a	12.827893
_cell_length_b	18.101397
_cell_length_c	12.827885
_cell_angle_alpha	89.963418
_cell_angle_beta	89.980918
_cell_angle_gamma	90.020627
loop_
_atom_site_label
_atom_site_type_symbol
_atom_site_fract_x
_atom_site_fract_y
_atom_site_fract_z
Zn1	Zn	1.597633	-0.294791	-0.590794
Zn2	Zn	1.597511	-0.418650	-0.416034
Zn3	Zn	1.422874	-0.294827	-0.416068
Zn4	Zn	1.422844	-0.418595	-0.590734
O5	O	1.510216	-0.356716	-0.503407
O6	O	1.743853	-0.311228	-0.567622
O7	O	1.574307	-0.402263	-0.269802
O8	O	1.446120	-0.191189	-0.439286
O9	O	1.743763	-0.402227	-0.439226
O10	O	1.574514	-0.191162	-0.567656
O11	O	1.446002	-0.311291	-0.269827
O12	O	1.276634	-0.311237	-0.439227
O13	O	1.446068	-0.402134	-0.736978
O14	O	1.276612	-0.402169	-0.567554
O15	O	1.574485	-0.311175	-0.737022
O16	O	1.574278	-0.522275	-0.439168
O17	O	1.445951	-0.522235	-0.567520
C18	C	1.238706	-0.356702	-0.503389
C19	C	1.122553	-0.356714	-0.503405
C20	C	1.070751	-0.311658	-0.440018
C21	C	0.950701	-0.311670	-0.440034
C22	C	1.510126	-0.549126	-0.503357
C23	C	1.510183	-0.631440	-0.503370
C24	C	1.510317	-0.930531	-0.503465
C25	C	1.590832	-0.899200	-0.422494
C26	C	1.591111	-0.813582	-0.422703
C27	C	1.510251	-0.782149	-0.503417
C28	C	1.540108	-0.813148	-0.613567
C29	C	1.540731	-0.898793	-0.613126
C30	C	1.399730	-0.899042	-0.475240
C31	C	1.400276	-0.813393	-0.472782
C32	C	1.510212	-0.698289	-0.503397
C33	C	1.510359	-1.014391	-0.503493
C34	C	1.782786	-0.356730	-0.503427
C35	C	1.898939	-0.356736	-0.503436
C36	C	1.510287	-0.356645	-0.775978
C37	C	1.510317	-0.356614	-0.892131
C38	C	1.510334	-0.163554	-0.503481
C39	C	1.510384	-0.081240	-0.503513
C40	C	1.573868	-0.311596	-0.943938
C41	C	1.573901	-0.311564	-1.063988
C42	C	1.510205	-0.356733	-0.231898
C43	C	1.510377	-0.356555	-0.115745
H44	H	0.906153	-0.273093	-0.385770
F45	F	0.957155	-0.407155	-0.574379
H46	H	1.628314	-0.273025	-1.108540
H47	H	1.078025	-0.395298	-0.557682
H48	H	1.672301	-0.920667	-0.440953
H49	H	1.628249	-0.273076	-0.899414
H50	H	1.483258	-0.792784	-0.675520
F51	F	1.370843	-0.786919	-0.366831
F52	F	1.566640	-0.786189	-0.315961
H53	H	1.455969	-0.395101	-1.071199
H54	H	1.337059	-0.792004	-0.527439
F55	F	1.439225	-0.406958	-0.950321
F56	F	1.644582	-0.785036	-0.645349
F57	F	1.364226	-0.927362	-0.372076
F58	F	1.467400	-0.925881	-0.694663
H59	H	1.572377	-0.919850	-0.340574
F60	F	1.128947	-0.261229	-0.369064
F61	F	1.646387	-0.924828	-0.644375
F62	F	1.698181	-0.786725	-0.447117
F63	F	1.321318	-0.925527	-0.552322
