data_functionalizedCrystal
_audit_creation_method	'MofGen! by Chris Wilmer'
_symmetry_space_group_name_H-M	'P1'
_symmetry_Int_Tables_number	1
_symmetry_cell_setting	triclinic
loop_
_symmetry_equiv_pos_as_xyz
  x,y,z
_cell_length_a	27.440280
_cell_length_b	23.096457
_cell_length_c	23.096457
_cell_angle_alpha	90.003305
_cell_angle_beta	60.004322
_cell_angle_gamma	60.002011
loop_
_atom_site_label
_atom_site_type_symbol
_atom_site_fract_x
_atom_site_fract_y
_atom_site_fract_z
Zr1	Zr	0.533377	-0.075985	0.557851
O2	O	0.635040	-0.168430	0.465409
O3	O	0.431716	-0.047647	0.586179
O4	O	0.533376	-0.168434	0.586185
O5	O	0.533381	0.047638	0.465411
O6	O	0.533374	-0.168436	0.681467
O7	O	0.533380	-0.047643	0.465403
O8	O	0.351523	0.047631	0.681457
O9	O	0.715232	-0.168429	0.465421
O10	O	0.473529	-0.035561	0.669382
O11	O	0.473532	0.035547	0.598280
O12	O	0.593223	-0.106664	0.598286
O13	O	0.593225	-0.035556	0.527184
Zr14	Zr	0.533377	0.075973	0.709828
Zr15	Zr	0.533374	-0.075988	0.709816
Zr16	Zr	0.533380	0.075976	0.557864
Zr17	Zr	0.661275	-0.075983	0.557871
Zr18	Zr	0.405479	0.075971	0.709809
O19	O	0.635038	0.047635	0.681500
O20	O	0.635035	-0.168435	0.681483
O21	O	0.635043	0.047639	0.465427
O22	O	0.431714	0.168418	0.802271
O23	O	0.431711	-0.047651	0.802253
O24	O	0.431719	0.168423	0.586197
O25	O	0.533373	-0.047650	0.802268
O26	O	0.533378	0.168422	0.681495
O27	O	0.533380	0.168424	0.586213
O28	O	0.533374	0.047631	0.802276
O29	O	0.715230	-0.168432	0.586213
O30	O	0.351524	0.168420	0.681467
O31	O	0.351522	0.168417	0.802258
O32	O	0.351520	0.047628	0.802248
O33	O	0.715234	-0.047640	0.465431
O34	O	0.715231	-0.047643	0.586223
O35	O	0.473531	0.106652	0.669394
O36	O	0.473529	0.035544	0.740496
O37	O	0.593223	-0.035559	0.669400
O38	O	0.593225	0.035549	0.598298
C39	C	0.373397	-0.000008	0.633815
C40	C	0.319101	-0.000009	0.633807
C41	C	0.533381	-0.000002	0.443756
C42	C	0.533382	-0.000001	0.379243
C43	C	0.533380	0.190074	0.633855
C44	C	0.533381	0.254586	0.633861
C45	C	-0.017643	-0.037118	0.670974
C46	C	-0.068667	-0.037116	0.670981
O47	O	-0.095074	-0.068661	0.702567
N48	N	-0.094181	0.000001	0.633865
C49	C	-0.068675	0.037123	0.596747
O50	O	-0.095063	0.068694	0.565179
C51	C	-0.017655	0.037125	0.596745
C52	C	0.007862	0.000001	0.633857
C53	C	0.007874	-0.074238	0.708084
C54	C	0.058895	-0.074241	0.708076
C55	C	0.084400	-0.037123	0.670959
C56	C	0.058883	-0.000002	0.633849
C57	C	0.007847	0.074252	0.559632
C58	C	0.058870	0.074251	0.559633
C59	C	0.084387	0.037126	0.596745
C60	C	0.135409	0.037113	0.596725
N61	N	0.160924	-0.000003	0.633840
C62	C	0.135419	-0.037121	0.670957
C63	C	-0.175820	0.037118	0.596755
C64	C	-0.226835	0.037112	0.596752
C65	C	-0.226824	-0.037126	0.670987
C66	C	-0.175805	-0.037124	0.670985
C67	C	-0.150305	0.000002	0.633870
C68	C	0.242568	-0.037125	0.670938
C69	C	0.293596	-0.037127	0.670924
C70	C	0.293578	0.037114	0.596693
C71	C	0.242557	0.037113	0.596703
C72	C	0.217052	-0.000008	0.633830
O73	O	0.161847	0.068645	0.565157
O74	O	0.161807	-0.068680	0.702528
C75	C	0.693358	-0.000004	0.633864
C76	C	0.747653	-0.000003	0.633873
C77	C	0.533374	-0.190086	0.633824
C78	C	0.533373	-0.254598	0.633819
C79	C	0.595858	0.247776	0.596753
C80	C	0.595859	0.308392	0.596742
C81	C	0.533379	0.375816	0.633854
C82	C	0.470894	0.382624	0.670963
C83	C	0.470895	0.322008	0.670967
N84	N	0.486871	0.498618	0.694249
N85	N	0.486875	0.556198	0.694245
C86	C	0.533373	0.558449	0.633844
N87	N	0.579878	0.500940	0.573448
N88	N	0.579876	0.443354	0.573455
C89	C	0.533371	0.441548	0.633853
C90	C	0.595855	0.617363	0.596721
C91	C	0.595854	0.677981	0.596708
C92	C	0.470887	0.752213	0.670936
C93	C	0.470890	0.691595	0.670942
C94	C	0.533376	0.624173	0.633836
C95	C	0.533386	-0.052495	0.348936
C96	C	0.533380	-0.052495	0.288323
C97	C	0.533383	-0.000006	0.258012
C98	C	0.533375	0.052498	0.288329
C99	C	0.533375	0.052500	0.348944
N100	N	0.572399	0.015886	0.139668
N101	N	0.572401	0.015879	0.082085
C102	C	0.533384	-0.000009	0.075383
N103	N	0.494373	-0.015904	0.128434
N104	N	0.494374	-0.015901	0.186021
C105	C	0.533384	-0.000002	0.192286
C106	C	0.533380	-0.052506	-0.020646
C107	C	0.533370	-0.052502	-0.081257
C108	C	0.533372	0.052488	-0.081254
C109	C	0.533375	0.052486	-0.020640
C110	C	0.533383	-0.000015	0.009658
C111	C	0.533373	-0.000010	0.823924
C112	C	0.533372	-0.000011	0.888437
C113	C	0.373393	-0.000012	0.823899
C114	C	0.319096	-0.000014	0.888404
C115	C	0.373399	0.190072	0.633831
C116	C	0.319104	0.254583	0.633828
C117	C	0.373395	0.190068	0.823915
C118	C	0.319099	0.254577	0.888425
C119	C	0.693359	-0.190080	0.443765
C120	C	0.747655	-0.254589	0.379255
C121	C	0.693361	0.000000	0.443780
C122	C	0.747659	0.000002	0.379276
C123	C	0.693355	-0.190084	0.633849
C124	C	0.747650	-0.254595	0.633852
C125	C	0.293597	-0.037138	0.881575
C126	C	0.242586	-0.037154	0.942178
C127	C	0.217071	-0.000042	1.009609
C128	C	0.242574	0.037082	1.016437
C129	C	0.293588	0.037094	0.955834
C130	C	0.293607	0.322000	0.670947
C131	C	0.242598	0.382621	0.670942
C132	C	0.217084	0.375822	0.633821
C133	C	0.242587	0.308398	0.596697
C134	C	0.293598	0.247779	0.596699
C135	C	0.293600	0.247754	0.955840
C136	C	0.242590	0.308362	1.016460
C137	C	0.217077	0.375792	1.009663
C138	C	0.242581	0.382614	0.942240
C139	C	0.293594	0.322007	0.881622
C140	C	0.773161	-0.247766	0.311839
C141	C	0.824186	-0.308374	0.251220
C142	C	0.849702	-0.375804	0.258017
C143	C	0.824195	-0.382626	0.325440
C144	C	0.773173	-0.322019	0.386058
C145	C	0.773162	0.037120	0.386104
C146	C	0.824187	0.037119	0.325501
C147	C	0.849704	0.000005	0.258070
C148	C	0.824198	-0.037117	0.251243
C149	C	0.773178	-0.037120	0.311845
C150	C	0.773147	-0.247774	0.670980
C151	C	0.824156	-0.308382	0.670997
C152	C	0.849671	-0.375812	0.633880
C153	C	0.824168	-0.382632	0.596751
C154	C	0.773157	-0.322024	0.596739
H155	H	0.314372	-0.067361	0.701145
F156	F	0.215426	0.301173	0.557193
F157	F	0.086004	0.113767	0.520130
H158	H	0.221839	0.437515	0.701175
H159	H	0.175539	0.425136	1.059028
H160	H	0.646735	0.562464	0.566503
F161	F	0.851361	-0.076612	0.179472
H162	H	-0.012889	-0.104464	0.738312
H163	H	0.752414	-0.067343	0.306275
F164	F	0.662358	0.301147	0.557254
F165	F	0.215429	-0.076631	0.710455
F166	F	0.215421	0.454384	0.935017
H167	H	0.314365	0.192854	0.961389
F168	F	0.746030	-0.329292	0.457805
H169	H	0.221793	0.067297	1.071347
F170	F	-0.019301	0.113767	0.520133
H171	H	0.314355	0.067332	0.566471
H172	H	0.221788	0.067333	0.566474
H173	H	0.420015	0.697143	0.701163
F174	F	0.404398	0.454382	0.710457
H175	H	0.221828	-0.067385	0.936605
H176	H	0.314374	0.327549	0.701176
F177	F	0.162777	-0.000060	1.074102
H178	H	0.079666	-0.104469	0.738298
F179	F	0.404395	0.329259	0.710464
H180	H	0.420015	0.807110	0.701148
F181	F	0.162792	0.440346	0.633826
H182	H	-0.155032	-0.067353	0.701205
F183	F	0.746016	0.076622	0.457864
F184	F	0.320723	0.329280	0.809875
F185	F	0.746002	-0.176016	0.710487
F186	F	0.662354	0.670729	0.557196
H187	H	0.844915	-0.302816	0.701231
F188	F	0.533391	-0.108368	0.381182
H189	H	0.533369	-0.095247	-0.105931
H190	H	-0.247600	-0.067348	0.701211
F191	F	-0.253978	0.076615	0.557242
F192	F	0.320726	0.176030	0.557192
H193	H	0.221829	0.302794	1.071353
H194	H	0.891208	-0.425157	0.633896
H195	H	0.844950	-0.437541	0.566532
H196	H	0.533376	0.095236	0.263648
F197	F	0.320745	-0.076642	0.809816
H198	H	0.752402	-0.327587	0.566501
F199	F	0.320716	0.076613	0.963113
H200	H	0.533371	0.095248	0.373621
H201	H	0.752388	-0.192866	0.306291
H202	H	0.844946	-0.302805	0.196327
F203	F	0.533385	-0.108369	0.256063
H204	H	0.891247	-0.425148	0.208652
H205	H	0.891248	0.000013	0.208730
F206	F	0.851321	0.076633	0.332783
H207	H	-0.155056	0.067346	0.566524
H208	H	0.844976	-0.437535	0.330966
H209	H	0.646739	0.192882	0.566536
F210	F	0.533384	-0.108380	0.011603
H211	H	0.533376	0.095229	0.004035
F212	F	0.533369	0.108355	-0.113507
