data_functionalizedCrystal
_audit_creation_method	'MofGen! by Chris Wilmer'
_symmetry_space_group_name_H-M	'P1'
_symmetry_Int_Tables_number	1
_symmetry_cell_setting	triclinic
loop_
_symmetry_equiv_pos_as_xyz
  x,y,z
_cell_length_a	8.497374
_cell_length_b	12.759401
_cell_length_c	12.759399
_cell_angle_alpha	89.983359
_cell_angle_beta	89.991562
_cell_angle_gamma	90.001753
loop_
_atom_site_label
_atom_site_type_symbol
_atom_site_fract_x
_atom_site_fract_y
_atom_site_fract_z
Zn1	Zn	0.891958	1.606064	0.418406
Zn2	Zn	0.628160	1.606013	0.594052
Zn3	Zn	0.628185	1.430422	0.418393
Zn4	Zn	0.891892	1.430354	0.594048
O5	O	0.760048	1.518213	0.506225
O6	O	0.856982	1.753079	0.441713
O7	O	0.407401	1.582728	0.570747
O8	O	0.663213	1.453771	0.271373
O9	O	0.663171	1.753041	0.570760
O10	O	0.857005	1.582815	0.271383
O11	O	0.407419	1.453722	0.441691
O12	O	0.663149	1.283392	0.441686
O13	O	1.112663	1.453655	0.570752
O14	O	0.856893	1.283342	0.570739
O15	O	1.112711	1.582749	0.441709
O16	O	0.663107	1.582661	0.741073
O17	O	0.856869	1.453605	0.741069
C18	C	0.760017	1.245246	0.506212
C19	C	0.760041	1.128469	0.506232
C20	C	0.860765	1.073609	0.573532
C21	C	0.860796	0.963885	0.573536
C22	C	0.659366	0.963891	0.438937
C23	C	0.659344	1.073613	0.438928
C24	C	0.760013	1.518149	0.779192
C25	C	0.760050	1.518217	0.895969
C26	C	1.171529	1.518205	0.506226
C27	C	1.350173	1.518208	0.506237
C28	C	0.760081	1.792246	0.506238
C29	C	0.760095	1.909023	0.506244
C30	C	0.760119	1.518307	0.232191
C31	C	0.760149	1.518346	0.115415
C32	C	0.659273	1.585494	0.950797
C33	C	0.659326	1.585561	1.060521
C34	C	0.860938	1.451067	1.060578
C35	C	0.860891	1.451006	0.950856
H36	H	0.577164	1.640223	0.906111
H37	H	0.942818	0.919222	0.628337
C38	C	0.550099	0.904141	0.365984
C39	C	0.571645	0.796308	0.380413
C40	C	0.470999	0.741237	0.313236
H41	H	0.573275	0.922015	0.295375
H42	H	0.444022	0.922047	0.381252
H43	H	0.677698	0.778410	0.365138
H44	H	0.548458	0.778404	0.451008
H45	H	0.364922	0.759143	0.328504
H46	H	0.494183	0.759119	0.242631
H47	H	0.485594	0.668067	0.323024
C48	C	0.970195	1.133302	0.646422
C49	C	1.071422	1.196338	0.587036
C50	C	1.172243	1.251349	0.654146
H51	H	1.030339	1.085032	0.686527
H52	H	0.909766	1.176149	0.692118
H53	H	1.131845	1.153494	0.541359
H54	H	1.011321	1.244628	0.546934
H55	H	1.111814	1.294196	0.699842
H56	H	1.232377	1.203071	0.694247
H57	H	1.240928	1.294132	0.613863
C58	C	0.970233	1.378129	1.120363
C59	C	0.948673	1.392558	1.228189
C60	C	1.049311	1.325371	1.283292
H61	H	1.076308	1.393366	1.102467
H62	H	0.947025	1.307519	1.102505
H63	H	0.971891	1.463151	1.246039
H64	H	0.842619	1.377313	1.246115
H65	H	1.026104	1.254762	1.265434
H66	H	1.155380	1.340614	1.265387
H67	H	1.034687	1.335145	1.356457
C68	C	0.970374	1.377843	0.891509
C69	C	1.058658	1.318970	0.963059
C70	C	1.159513	1.251559	0.908426
H71	H	1.039282	1.417857	0.848650
H72	H	0.909983	1.332021	0.848783
H73	H	1.119045	1.364786	1.005766
H74	H	0.989792	1.278935	1.005920
H75	H	1.099122	1.205737	0.865701
H76	H	1.228411	1.291582	0.865569
H77	H	1.219416	1.211599	0.956964
H78	H	0.577265	1.640346	1.105158
H79	H	0.577323	1.118282	0.384118
