data_functionalizedCrystal
_audit_creation_method	'MofGen! by Chris Wilmer'
_symmetry_space_group_name_H-M	'P1'
_symmetry_Int_Tables_number	1
_symmetry_cell_setting	triclinic
loop_
_symmetry_equiv_pos_as_xyz
  x,y,z
_cell_length_a	13.339070
_cell_length_b	14.853568
_cell_length_c	12.376457
_cell_angle_alpha	78.723636
_cell_angle_beta	75.578880
_cell_angle_gamma	80.367759
loop_
_atom_site_label
_atom_site_type_symbol
_atom_site_fract_x
_atom_site_fract_y
_atom_site_fract_z
O1	O	1.323501	-0.464523	0.094001
O2	O	1.028891	-0.405179	0.094000
O3	O	1.184064	-0.305581	0.094006
O4	O	1.168328	-0.564120	0.093995
O5	O	1.222888	-0.280777	-0.094004
O6	O	1.067715	-0.380374	-0.094010
O7	O	1.362326	-0.439719	-0.094010
Zn8	Zn	1.221185	-0.406108	-0.123861
Zn9	Zn	1.170031	-0.438789	0.123851
O10	O	1.207152	-0.539316	-0.094016
C11	C	1.010599	-0.382752	-0.000005
C12	C	0.898256	-0.352872	-0.000005
C13	C	0.533788	-0.585206	0.000003
C14	C	0.639340	-0.613284	0.000006
C15	C	0.704074	-0.548183	0.000003
C16	C	0.663246	-0.455000	-0.000003
C17	C	0.557682	-0.426921	0.000003
C18	C	0.727968	-0.389898	0.000003
C19	C	0.687140	-0.296716	-0.000003
C20	C	0.581587	-0.268641	0.000002
C21	C	0.516853	-0.333742	0.000005
C22	C	0.833532	-0.417977	-0.000002
C23	C	0.857426	-0.259692	-0.000002
C24	C	0.751874	-0.231615	-0.000006
C25	C	1.202762	-0.259413	0.000005
C26	C	1.200622	-0.158799	0.000016
C27	C	1.099413	0.278941	0.000002
C28	C	1.283764	0.254314	0.000003
C29	C	1.285773	0.159779	0.000008
C30	C	1.194601	0.124821	0.000008
C31	C	1.101420	0.184398	0.000003
C32	C	1.378955	0.100196	0.000001
C33	C	1.380967	0.005656	0.000005
C34	C	1.289792	-0.029305	0.000013
C35	C	1.196607	0.030278	0.000010
C36	C	1.105435	-0.004679	0.000010
C37	C	1.012247	0.054901	0.000015
C38	C	1.010245	0.149438	0.000012
C39	C	1.291795	-0.123841	0.000016
C40	C	1.107442	-0.099222	0.000012
C41	C	1.380616	-0.462145	-0.000002
C42	C	1.492958	-0.492027	0.000005
C43	C	1.188452	0.414515	-0.000007
C44	C	1.190586	0.313899	0.000001
N45	N	1.135122	-0.461086	0.292908
N46	N	1.256103	-0.383806	-0.292918
C47	C	1.337168	-0.332062	0.647901
C48	C	1.361606	-0.316466	0.529562
C49	C	1.304988	-0.352620	0.470393
C50	C	1.223925	-0.404371	0.529574
C51	C	1.199479	-0.419962	0.647925
C52	C	1.167299	-0.440521	0.470416
C53	C	1.086237	-0.492272	0.529598
C54	C	1.061795	-0.507860	0.647936
C55	C	1.118414	-0.471707	0.707106
C56	C	1.191745	-0.424930	0.352066
C57	C	1.054056	-0.512831	0.352089
C58	C	1.029618	-0.528426	0.470428
H59	H	0.672572	-0.689154	0.000020
Br60	Br	0.445928	-0.673549	0.000031
Br61	Br	0.888928	-0.544435	0.000007
H62	H	0.430903	-0.310886	0.000002
Br63	Br	1.502687	0.147647	-0.000030
H64	H	0.910132	-0.206682	-0.000000
H65	H	1.357994	0.282784	-0.000007
H66	H	1.456846	-0.042848	0.000002
H67	H	1.098519	-0.484407	0.803467
Br68	Br	0.972947	0.359793	0.000024
Br69	Br	0.919609	-0.598659	0.550757
H70	H	1.033196	-0.127677	0.000017
H71	H	0.718615	-0.155745	-0.000001
Br72	Br	1.418258	-0.204692	-0.000017
H73	H	1.257746	-0.382794	0.303891
H74	H	0.790017	-0.571050	0.000008
Br75	Br	0.951768	-0.578077	0.728257
H76	H	0.548346	-0.192768	0.000010
H77	H	0.938017	0.026427	0.000007
Br78	Br	1.338155	-0.331456	0.309788
H79	H	1.427605	-0.274330	0.481381
H80	H	0.934377	0.197956	0.000015
Br81	Br	1.413989	-0.282987	0.728201
H82	H	1.007950	-0.542268	0.303914
