data_functionalizedCrystal
_audit_creation_method	'MofGen! by Chris Wilmer'
_symmetry_space_group_name_H-M	'P1'
_symmetry_Int_Tables_number	1
_symmetry_cell_setting	triclinic
loop_
_symmetry_equiv_pos_as_xyz
  x,y,z
_cell_length_a	10.685980
_cell_length_b	21.295417
_cell_length_c	10.686551
_cell_angle_alpha	85.587981
_cell_angle_beta	98.408259
_cell_angle_gamma	85.598321
loop_
_atom_site_label
_atom_site_type_symbol
_atom_site_fract_x
_atom_site_fract_y
_atom_site_fract_z
Zn1	Zn	1.995683	0.141100	0.866657
Zn2	Zn	1.979175	0.255143	0.654357
Zn3	Zn	1.767097	0.158621	0.638116
Zn4	Zn	1.783299	0.255081	0.850267
O5	O	1.881313	0.202486	0.752349
O6	O	2.171132	0.148921	0.852151
O7	O	1.937353	0.249697	0.474568
O8	O	1.797547	0.068200	0.668496
O9	O	2.159004	0.232708	0.696175
O10	O	1.965488	0.055327	0.836404
O11	O	1.781540	0.178783	0.462636
O12	O	1.591607	0.178723	0.652602
O13	O	1.825161	0.232603	1.030076
O14	O	1.603510	0.249593	0.808468
O15	O	1.981199	0.148861	1.042118
O16	O	1.953063	0.343231	0.680282
O17	O	1.809154	0.343186	0.824216
C18	C	1.881112	0.366049	0.752263
C19	C	1.881145	0.436015	0.752277
C20	C	1.551499	0.216053	0.726995
C21	C	1.410405	0.221871	0.716179
C22	C	1.968543	0.462122	0.839760
C23	C	1.968577	0.527862	0.839790
C24	C	1.881224	0.567493	0.752317
C25	C	1.793809	0.541379	0.664828
C26	C	1.793770	0.475640	0.664808
N27	N	1.863078	0.675737	0.640484
N28	N	1.863123	0.738186	0.640508
C29	C	1.881335	0.765561	0.752374
N30	N	1.899525	0.728127	0.864221
N31	N	1.899486	0.665672	0.864197
C32	C	1.881256	0.638777	0.752330
C33	C	1.968774	0.862950	0.839897
C34	C	1.968799	0.928692	0.839929
C35	C	1.794037	0.942208	0.664956
C36	C	1.794007	0.876468	0.664935
C37	C	1.881382	0.836843	0.752404
C38	C	2.212415	0.188867	0.777803
C39	C	2.353511	0.183063	0.788650
C40	C	1.906828	0.188771	1.083443
C41	C	1.917702	0.182927	1.224536
C42	C	1.881499	1.038285	0.752451
C43	C	1.881443	0.968319	0.752457
C44	C	1.855970	0.216099	0.422549
C45	C	1.845343	0.221756	0.281476
H46	H	1.412743	0.145383	0.858969
H47	H	1.722683	0.573651	0.593609
H48	H	1.987979	0.145211	1.283733
H49	H	2.039917	0.830686	0.911124
H50	H	1.722905	0.974476	0.593741
H51	H	1.351166	0.259550	0.645847
O52	O	1.709044	0.450204	0.579770
C53	C	1.678858	0.383856	0.406996
C54	C	1.774946	0.412611	0.503254
H55	H	1.732102	0.353467	0.345090
H56	H	1.616923	0.353376	0.460038
H57	H	1.616399	0.423482	0.344538
H58	H	1.837488	0.373026	0.565737
H59	H	1.836792	0.443107	0.450133
H60	H	2.039686	0.429860	0.910985
H61	H	2.039737	0.549122	0.911043
O62	O	1.761679	0.266781	1.210742
C63	C	1.733084	0.358635	1.059591
C64	C	1.827967	0.307672	1.139619
H65	H	1.786644	0.391717	1.002087
H66	H	1.662038	0.335041	0.992354
H67	H	1.680325	0.386903	1.125165
H68	H	1.880815	0.279388	1.074142
H69	H	1.898931	0.331306	1.206868
H70	H	2.039969	0.949946	0.911174
H71	H	1.722844	0.855211	0.593693
