data_functionalizedCrystal
_audit_creation_method	'MofGen! by Chris Wilmer'
_symmetry_space_group_name_H-M	'P1'
_symmetry_Int_Tables_number	1
_symmetry_cell_setting	triclinic
loop_
_symmetry_equiv_pos_as_xyz
  x,y,z
_cell_length_a	13.032831
_cell_length_b	17.640280
_cell_length_c	13.033109
_cell_angle_alpha	84.505550
_cell_angle_beta	76.665514
_cell_angle_gamma	70.377065
loop_
_atom_site_label
_atom_site_type_symbol
_atom_site_fract_x
_atom_site_fract_y
_atom_site_fract_z
Zn1	Zn	1.831996	-0.555691	-0.674763
Zn2	Zn	2.331996	-0.055691	-0.174763
Zn3	Zn	1.836135	-0.668645	-0.470386
Zn4	Zn	2.336135	-0.168645	0.029614
Zn5	Zn	1.622695	-0.517244	-0.483764
Zn6	Zn	2.122695	-0.017244	0.016236
Zn7	Zn	1.681133	-0.668575	-0.625447
Zn8	Zn	2.181133	-0.168575	-0.125447
O9	O	1.742990	-0.602539	-0.563590
O10	O	2.242990	-0.102539	-0.063590
O11	O	1.985007	-0.586793	-0.662692
O12	O	2.485007	-0.086793	-0.162692
O13	O	1.785098	-0.632500	-0.327334
O14	O	2.285098	-0.132500	0.172666
O15	O	1.624270	-0.411739	-0.535338
O16	O	2.124270	0.088261	-0.035338
O17	O	1.988048	-0.669781	-0.512537
O18	O	2.488048	-0.169781	-0.012537
O19	O	1.778043	-0.439986	-0.675664
O20	O	2.278043	0.060014	-0.175664
O21	O	1.628284	-0.521266	-0.337163
O22	O	2.128284	-0.021266	0.162837
O23	O	1.477985	-0.521199	-0.487519
O24	O	1.977985	-0.021199	0.012481
O25	O	1.723870	-0.669662	-0.776816
O26	O	2.223870	-0.169662	-0.276816
O27	O	1.520920	-0.632382	-0.591612
O28	O	2.020920	-0.132382	-0.091612
O29	O	1.834708	-0.586726	-0.813048
O30	O	2.334708	-0.086726	-0.313048
O31	O	1.841763	-0.779240	-0.464718
O32	O	2.341763	-0.279240	0.035282
O33	O	1.727884	-0.779189	-0.578640
O34	O	2.227884	-0.279189	-0.078640
C35	C	1.459921	-0.572611	-0.535666
C36	C	1.959921	-0.072611	-0.035666
C37	C	1.338832	-0.559830	-0.523740
C38	C	1.838832	-0.059830	-0.023740
C39	C	1.306120	-0.609209	-0.569814
C40	C	1.806120	-0.109209	-0.069814
C41	C	1.180968	-0.596001	-0.557489
C42	C	1.680968	-0.096001	-0.057489
C43	C	1.791647	-0.807899	-0.514901
C44	C	2.291647	-0.307899	-0.014901
C45	C	1.812568	-0.895768	-0.494117
C46	C	2.312568	-0.395768	0.005883
C47	C	1.584563	-1.184686	-0.721910
C48	C	2.084563	-0.684686	-0.221910
C49	C	1.604218	-1.267248	-0.702347
C50	C	2.104218	-0.767248	-0.202347
C51	C	1.722908	-1.267260	-0.583862
C52	C	2.222908	-0.767260	-0.083862
C53	C	1.703267	-1.184697	-0.603419
C54	C	2.203267	-0.684697	-0.103419
C55	C	1.634093	-1.143416	-0.672443
C56	C	2.134093	-0.643416	-0.172443
C57	C	1.752797	-1.143427	-0.553952
C58	C	2.252797	-0.643427	-0.053952
C59	C	1.733152	-1.060870	-0.573504
C60	C	2.233152	-0.560870	-0.073504
C61	C	1.663978	-1.019583	-0.642523
C62	C	2.163978	-0.519583	-0.142523
C63	C	1.614448	-1.060859	-0.691995
C64	C	2.114448	-0.560859	-0.191995
C65	C	1.821964	-1.184708	-0.484923
C66	C	2.321964	-0.684708	0.015077
C67	C	1.871494	-1.143438	-0.435456
C68	C	2.371494	-0.643438	0.064544
C69	C	1.851856	-1.060881	-0.455013
C70	C	2.351856	-0.560881	0.044987
C71	C	1.782682	-1.019594	-0.524032
C72	C	2.282682	-0.519594	-0.024032
C73	C	1.901386	-1.019605	-0.405541
C74	C	2.401386	-0.519605	0.094459
C75	C	1.881742	-0.937048	-0.425093
C76	C	2.381742	-0.437048	0.074907
C77	C	1.763038	-0.937037	-0.543583
C78	C	2.263038	-0.437037	-0.043583
C79	C	2.027164	-0.632583	-0.591624
C80	C	2.527164	-0.132583	-0.091624
C81	C	2.148262	-0.645387	-0.603570
C82	C	2.648262	-0.145387	-0.103570
C83	C	1.785346	-0.632475	-0.833534
C84	C	2.285346	-0.132475	-0.333534
C85	C	1.803395	-0.645232	-0.948568
C86	C	2.303395	-0.145232	-0.448568
C87	C	1.694176	-0.396382	-0.612494
C88	C	2.194176	0.103618	-0.112494
C89	C	1.673375	-0.308530	-0.633334
C90	C	2.173375	0.191470	-0.133334
C91	C	1.733854	-0.595883	-1.004716
C92	C	2.233854	-0.095883	-0.504716
C93	C	1.752508	-0.609067	-1.123610
C94	C	2.252508	-0.109067	-0.623610
C95	C	1.700848	-0.572669	-0.294716
C96	C	2.200848	-0.072669	0.205284
C97	C	1.682957	-0.559711	-0.179757
C98	C	2.182957	-0.059711	0.320243
H99	H	1.370768	-0.661261	-0.618389
H100	H	1.870768	-0.161261	-0.118389
Br101	Br	1.637632	-0.907599	-0.669350
Br102	Br	2.137632	-0.407599	-0.169350
Br103	Br	1.925642	-0.731928	-1.015139
Br104	Br	2.425642	-0.231928	-0.515139
H105	H	1.660504	-0.543876	-0.964766
H106	H	2.160504	-0.043876	-0.464766
Br107	Br	1.816785	-1.323291	-0.490191
Br108	Br	2.316785	-0.823291	0.009809
H109	H	1.274183	-0.507773	-0.475175
H110	H	1.774183	-0.007773	0.024825
Br111	Br	1.490698	-1.128657	-0.815601
Br112	Br	1.990698	-0.628657	-0.315601
Br113	Br	1.874759	-0.695766	-1.190177
Br114	Br	2.374759	-0.195766	-0.690177
Br115	Br	1.073229	-0.509227	-0.476539
Br116	Br	1.573229	-0.009227	0.023461
H117	H	1.212906	-0.697441	-0.652151
H118	H	1.712906	-0.197441	-0.152151
H119	H	1.706718	-0.903427	-0.599798
H120	H	2.206718	-0.403427	-0.099798
Br121	Br	1.560670	-0.473037	-1.113182
Br122	Br	2.060670	0.026963	-0.613182
H123	H	1.558129	-1.027249	-0.748210
H124	H	2.058129	-0.527249	-0.248210
H125	H	1.563895	-1.300850	-0.742648
H126	H	2.063895	-0.800850	-0.242648
H127	H	1.927812	-1.177060	-0.379253
H128	H	2.427812	-0.677060	0.120747
Br129	Br	1.995250	-1.075636	-0.311858
Br130	Br	2.495250	-0.575636	0.188142
H131	H	1.837960	-1.251932	-0.469009
H132	H	2.337960	-0.751932	0.030991
H133	H	1.922073	-0.903446	-0.384810
H134	H	2.422073	-0.403446	0.115190
