data_functionalizedCrystal
_audit_creation_method	'MofGen! by Chris Wilmer'
_symmetry_space_group_name_H-M	'P1'
_symmetry_Int_Tables_number	1
_symmetry_cell_setting	triclinic
loop_
_symmetry_equiv_pos_as_xyz
  x,y,z
_cell_length_a	14.971487
_cell_length_b	13.448316
_cell_length_c	14.971486
_cell_angle_alpha	89.996136
_cell_angle_beta	83.614266
_cell_angle_gamma	90.001095
loop_
_atom_site_label
_atom_site_type_symbol
_atom_site_fract_x
_atom_site_fract_y
_atom_site_fract_z
O1	O	-1.186945	0.082550	-0.116564
O2	O	-0.686945	0.582550	0.383436
O3	O	-0.926545	0.082583	-0.130522
O4	O	-0.426545	0.582583	0.369478
O5	O	-1.063725	0.082559	0.006657
O6	O	-0.563725	0.582559	0.506657
O7	O	-1.049766	0.082575	-0.253743
O8	O	-0.549766	0.582575	0.246257
O9	O	-1.063711	-0.082825	0.006658
O10	O	-0.563711	0.417175	0.506658
O11	O	-0.926531	-0.082801	-0.130521
O12	O	-0.426531	0.417199	0.369479
O13	O	-1.186932	-0.082834	-0.116563
O14	O	-0.686932	0.417166	0.383437
Cu15	Cu	-1.056730	-0.097918	-0.123542
Cu16	Cu	-0.556730	0.402082	0.376458
Cu17	Cu	-1.056746	0.097667	-0.123543
Cu18	Cu	-0.556746	0.597667	0.376457
O19	O	-1.049752	-0.082809	-0.253742
O20	O	-0.549752	0.417191	0.246258
C21	C	-0.893214	-0.000104	-0.129897
C22	C	-0.393214	0.499896	0.370103
C23	C	-0.793917	-0.000092	-0.128026
C24	C	-0.293917	0.499908	0.371974
N25	N	-1.056725	-0.235482	-0.123540
N26	N	-0.556725	0.264518	0.376460
C27	C	-0.736691	-0.000087	-0.208615
C28	C	-0.236691	0.499913	0.291385
C29	C	-0.643392	-0.000100	-0.206852
C30	C	-0.143392	0.499900	0.293148
C31	C	-0.607320	-0.000110	-0.124499
C32	C	-0.107320	0.499890	0.375501
C33	C	-0.664552	-0.000118	-0.043903
C34	C	-0.164552	0.499882	0.456097
C35	C	-0.757850	-0.000112	-0.045668
C36	C	-0.257850	0.499888	0.454332
C37	C	-0.470090	-0.000127	-0.040232
C38	C	0.029910	0.499873	0.459768
C39	C	-0.376786	-0.000131	-0.038467
C40	C	0.123214	0.499869	0.461533
C41	C	-0.355632	-0.000115	-0.201416
C42	C	0.144368	0.499885	0.298584
C43	C	-0.448929	-0.000109	-0.203181
C44	C	0.051071	0.499891	0.296819
C45	C	-0.506156	-0.000115	-0.122585
C46	C	-0.006156	0.499885	0.377415
C47	C	-1.111028	-0.287522	-0.177881
C48	C	-0.611028	0.212478	0.322119
C49	C	-1.111039	-0.391625	-0.177878
C50	C	-0.611039	0.108375	0.322122
C51	C	-1.056742	-0.443687	-0.123537
C52	C	-0.556742	0.056313	0.376463
C53	C	-1.002438	-0.391640	-0.069189
C54	C	-0.502438	0.108360	0.430811
C55	C	-1.002432	-0.287538	-0.069189
C56	C	-0.502432	0.212462	0.430811
C57	C	-1.002452	-0.608620	-0.069195
C58	C	-0.502452	-0.108620	0.430805
C59	C	-1.002456	-0.712728	-0.069196
C60	C	-0.502456	-0.212728	0.430804
C61	C	-1.111059	-0.712707	-0.177884
C62	C	-0.611059	-0.212707	0.322116
C63	C	-1.111053	-0.608606	-0.177884
C64	C	-0.611053	-0.108606	0.322116
C65	C	-1.056747	-0.556566	-0.123537
C66	C	-0.556747	-0.056566	0.376463
C67	C	-0.220263	-0.000138	-0.117187
C68	C	0.279737	0.499862	0.382813
C69	C	-0.319560	-0.000126	-0.119056
C70	C	0.180440	0.499874	0.380944
C71	C	-1.063094	-0.000133	0.039982
C72	C	-0.563094	0.499867	0.539982
C73	C	-1.061223	-0.000132	0.139279
C74	C	-0.561223	0.499868	0.639279
N75	N	-1.056758	0.235232	-0.123538
N76	N	-0.556758	0.735232	0.376462
C77	C	-1.050383	-0.000116	-0.287067
C78	C	-0.550383	0.499884	0.212933
C79	C	-1.052254	-0.000110	-0.386364
C80	C	-0.552254	0.499890	0.113636
C81	C	-1.141812	-0.000143	0.196504
C82	C	-0.641812	0.499857	0.696504
C83	C	-1.140049	-0.000133	0.289804
C84	C	-0.640049	0.499867	0.789804
C85	C	-1.057696	-0.000118	0.325876
C86	C	-0.557696	0.499882	0.825876
C87	C	-0.977100	-0.000104	0.268644
C88	C	-0.477100	0.499896	0.768644
C89	C	-0.978864	-0.000108	0.175346
C90	C	-0.478864	0.499892	0.675346
C91	C	-0.973429	-0.000100	0.463107
C92	C	-0.473429	0.499900	0.963107
C93	C	-0.971665	-0.000099	0.556411
C94	C	-0.471665	0.499901	1.056411
C95	C	-1.134614	-0.000125	0.577564
C96	C	-0.634614	0.499875	1.077564
C97	C	-1.136378	-0.000128	0.484266
C98	C	-0.636378	0.499872	0.984266
C99	C	-1.055782	-0.000116	0.427040
C100	C	-0.555782	0.499884	0.927040
H101	H	-0.766053	-0.000078	-0.275677
H102	H	-0.266053	0.499922	0.224323
H103	H	-1.155259	-0.433992	-0.222126
H104	H	-0.655259	0.066008	0.277874
H105	H	-1.208873	-0.000160	0.167142
H106	H	-0.708873	0.499840	0.667142
H107	H	-0.913240	-0.000098	0.128754
H108	H	-0.413240	0.499902	0.628754
H109	H	-0.635175	-0.000141	0.023150
H110	H	-0.135175	0.499859	0.523150
H111	H	-0.958213	-0.245169	-0.024939
H112	H	-0.458213	0.254831	0.475061
Br113	Br	-1.249425	-0.000147	0.367464
Br114	Br	-0.749425	0.499853	0.867464
H115	H	-0.596802	-0.000095	-0.272476
H116	H	-0.096802	0.499905	0.227524
H117	H	-1.155262	-0.566220	-0.222137
H118	H	-0.655262	-0.066220	0.277863
Br119	Br	-0.327830	-0.000179	0.073299
Br120	Br	0.172170	0.499821	0.573299
Br121	Br	-0.497885	-0.000080	-0.314947
Br122	Br	0.002115	0.499920	0.185053
H123	H	-1.155273	-0.755083	-0.222138
H124	H	-0.655273	-0.255083	0.277862
H125	H	-0.958242	-0.755114	-0.024948
H126	H	-0.458242	-0.255114	0.475052
Br127	Br	-1.248144	-0.000145	0.435311
Br128	Br	-0.748144	0.499855	0.935311
Br129	Br	-0.864048	-0.000080	0.385443
Br130	Br	-0.364048	0.499920	0.885443
H131	H	-0.904606	-0.000104	0.585777
H132	H	-0.404606	0.499896	1.085777
H133	H	-0.516682	-0.000134	0.025398
H134	H	-0.016682	0.499866	0.525398
H135	H	-1.200238	-0.000132	0.624162
H136	H	-0.700238	0.499868	1.124162
H137	H	-0.958231	-0.566252	-0.024939
H138	H	-0.458231	-0.066252	0.475061
Br139	Br	-0.928752	-0.462293	0.004564
Br140	Br	-0.428752	0.037707	0.504564
Br141	Br	-0.865333	-0.000069	0.317598
Br142	Br	-0.365333	0.499931	0.817598
H143	H	-0.309033	-0.000114	-0.267040
H144	H	0.190967	0.499886	0.232960
Br145	Br	-1.184717	-0.216877	-0.251637
Br146	Br	-0.684717	0.283123	0.248363
Br147	Br	-0.835515	-0.000128	0.063708
Br148	Br	-0.335515	0.499872	0.563708
