data_functionalizedCrystal
_audit_creation_method	'MofGen! by Chris Wilmer'
_symmetry_space_group_name_H-M	'P1'
_symmetry_Int_Tables_number	1
_symmetry_cell_setting	triclinic
loop_
_symmetry_equiv_pos_as_xyz
  x,y,z
_cell_length_a	21.295420
_cell_length_b	12.759394
_cell_length_c	12.759380
_cell_angle_alpha	90.064679
_cell_angle_beta	89.956293
_cell_angle_gamma	89.986912
loop_
_atom_site_label
_atom_site_type_symbol
_atom_site_fract_x
_atom_site_fract_y
_atom_site_fract_z
Zn1	Zn	0.962542	0.417918	-0.594071
Zn2	Zn	0.962438	0.593736	-0.418388
Zn3	Zn	0.857230	0.418066	-0.418400
Zn4	Zn	0.857263	0.593550	-0.594020
O5	O	0.909869	0.505817	-0.506220
O6	O	1.050618	0.441256	-0.570783
O7	O	0.948425	0.570573	-0.271368
O8	O	0.871230	0.271025	-0.441729
O9	O	1.050541	0.570429	-0.441710
O10	O	0.948602	0.270916	-0.570794
O11	O	0.871129	0.441509	-0.271377
O12	O	0.769145	0.441329	-0.441679
O13	O	0.871286	0.570112	-0.741048
O14	O	0.769170	0.570256	-0.570707
O15	O	0.948634	0.441076	-0.741085
O16	O	0.948457	0.740732	-0.441660
O17	O	0.871186	0.740596	-0.570696
C18	C	0.746317	0.505789	-0.506189
C19	C	0.676349	0.505802	-0.506201
C20	C	0.176920	0.573074	-0.573339
C21	C	0.242663	0.573074	-0.573328
C22	C	0.275509	0.505841	-0.506253
C23	C	0.242608	0.438622	-0.439164
C24	C	0.176867	0.438631	-0.439170
N25	N	0.378734	0.413857	-0.498343
N26	N	0.441185	0.413852	-0.498344
C27	C	0.473584	0.505812	-0.506230
N28	N	0.441173	0.597780	-0.514136
N29	N	0.378715	0.597784	-0.514141
C30	C	0.346795	0.505824	-0.506239
C31	C	0.577763	0.573032	-0.573297
C32	C	0.643507	0.573034	-0.573279
C33	C	0.643451	0.438573	-0.439121
C34	C	0.577709	0.438580	-0.439133
C35	C	0.544868	0.505808	-0.506227
C36	C	0.909831	0.778785	-0.506194
C37	C	0.909872	0.895562	-0.506218
C38	C	0.909975	0.505557	-0.780254
C39	C	0.910021	0.505445	-0.897031
C40	C	1.074059	0.505847	-0.506251
C41	C	1.144027	0.505859	-0.506264
C42	C	0.909924	0.231784	-0.506268
C43	C	0.909947	0.115007	-0.506289
C44	C	0.990395	0.895651	-0.371954
C45	C	1.030673	0.950556	-0.304835
C46	C	1.030710	1.060277	-0.304863
C47	C	0.990466	1.115096	-0.372021
C48	C	0.950188	1.060191	-0.439141
C49	C	0.950154	0.950467	-0.439102
C50	C	0.869669	1.060102	-0.573408
C51	C	0.869628	0.950380	-0.573376
C52	C	0.829425	1.114921	-0.640566
C53	C	0.789143	1.060016	-0.707682
C54	C	0.789107	0.950287	-0.707650
C55	C	0.829350	0.895475	-0.640496
C56	C	0.909798	0.506002	-0.233252
C57	C	0.909875	0.505817	-0.116475
C58	C	0.829925	0.641163	-0.115842
C59	C	0.789988	0.708749	-0.060665
C60	C	0.790062	0.708570	0.049056
C61	C	0.830075	0.640795	0.103603
C62	C	0.870011	0.573210	0.048426
C63	C	0.869934	0.573399	-0.061298
C64	C	0.949957	0.437860	0.047792
C65	C	0.949888	0.438043	-0.061929
C66	C	0.989970	0.370086	0.102339
C67	C	1.029910	0.302504	0.047161
C68	C	1.029836	0.302687	-0.062566
C69	C	0.989824	0.370457	-0.117106
H70	H	0.269356	0.383883	-0.384549
H71	H	0.670287	0.627776	-0.627897
H72	H	0.756310	0.905589	-0.762311
H73	H	1.062483	0.247323	0.091582
H74	H	0.990024	0.369939	0.191680
H75	H	1.063441	0.905913	-0.250157
H76	H	0.756382	1.104658	-0.762362
H77	H	0.990505	1.204437	-0.372047
H78	H	0.757534	0.763590	0.093982
H79	H	0.829321	0.806134	-0.640456
H80	H	1.062353	0.247644	-0.107485
C81	C	0.745971	0.783288	-0.120674
N82	N	0.712814	0.839427	-0.165870
H83	H	1.063511	1.104981	-0.250214
H84	H	0.989761	0.370616	-0.206447
H85	H	0.550927	0.383844	-0.384517
C86	C	0.829844	0.641373	-0.236538
N87	N	0.829782	0.641532	-0.327448
H88	H	0.150086	0.383894	-0.384548
H89	H	0.830125	0.640646	0.192944
C90	C	0.278852	0.647011	-0.647126
N91	N	0.306109	0.702697	-0.702714
C92	C	0.140800	0.647049	-0.647122
N93	N	0.113593	0.702776	-0.702688
H94	H	0.670194	0.383835	-0.384503
C95	C	0.541636	0.646991	-0.647094
N96	N	0.514428	0.702698	-0.702677
H97	H	0.990361	0.806309	-0.371911
H98	H	0.829461	1.204262	-0.640589
