data_functionalizedCrystal
_audit_creation_method	'MofGen! by Chris Wilmer'
_symmetry_space_group_name_H-M	'P1'
_symmetry_Int_Tables_number	1
_symmetry_cell_setting	triclinic
loop_
_symmetry_equiv_pos_as_xyz
  x,y,z
_cell_length_a	16.625546
_cell_length_b	13.032831
_cell_length_c	13.032268
_cell_angle_alpha	90.886977
_cell_angle_beta	82.855386
_cell_angle_gamma	97.173222
loop_
_atom_site_label
_atom_site_type_symbol
_atom_site_fract_x
_atom_site_fract_y
_atom_site_fract_z
Zn1	Zn	-0.544521	-1.498429	0.780776
Zn2	Zn	-0.294521	-1.248429	1.030776
Zn3	Zn	-0.044521	-0.998429	1.280776
Zn4	Zn	0.205479	-0.748429	1.530776
Zn5	Zn	-0.664651	-1.520160	0.608784
Zn6	Zn	-0.414651	-1.270160	0.858784
Zn7	Zn	-0.164651	-1.020160	1.108784
Zn8	Zn	0.085349	-0.770160	1.358784
Zn9	Zn	-0.510838	-1.348291	0.587021
Zn10	Zn	-0.260838	-1.098291	0.837021
Zn11	Zn	-0.010838	-0.848291	1.087021
Zn12	Zn	0.239162	-0.598291	1.337021
Zn13	Zn	-0.660292	-1.326409	0.758909
Zn14	Zn	-0.410292	-1.076409	1.008909
Zn15	Zn	-0.160292	-0.826409	1.258909
Zn16	Zn	0.089708	-0.576409	1.508909
O17	O	-0.595075	-1.423322	0.683873
O18	O	-0.345075	-1.173322	0.933873
O19	O	-0.095075	-0.923322	1.183873
O20	O	0.154925	-0.673322	1.433873
O21	O	-0.576377	-1.645231	0.776220
O22	O	-0.326377	-1.395231	1.026220
O23	O	-0.076377	-1.145231	1.276220
O24	O	0.173623	-0.895231	1.526220
O25	O	-0.631976	-1.515614	0.461981
O26	O	-0.381976	-1.265614	0.711981
O27	O	-0.131976	-1.015614	0.961981
O28	O	0.118024	-0.765614	1.211981
O29	O	-0.402484	-1.368270	0.612767
O30	O	-0.152484	-1.118270	0.862767
O31	O	0.097516	-0.868270	1.112767
O32	O	0.347516	-0.618270	1.362767
O33	O	-0.664636	-1.661197	0.649858
O34	O	-0.414636	-1.411197	0.899858
O35	O	-0.164636	-1.161197	1.149858
O36	O	0.085364	-0.911197	1.399858
O37	O	-0.427231	-1.478576	0.755118
O38	O	-0.177231	-1.228576	1.005118
O39	O	0.072769	-0.978576	1.255118
O40	O	0.322769	-0.728576	1.505118
O41	O	-0.518970	-1.389342	0.445992
O42	O	-0.268970	-1.139342	0.695992
O43	O	-0.018970	-0.889342	0.945992
O44	O	0.231030	-0.639342	1.195992
O45	O	-0.514743	-1.201469	0.591563
O46	O	-0.264743	-0.951469	0.841563
O47	O	-0.014743	-0.701469	1.091563
O48	O	0.235257	-0.451469	1.341563
O49	O	-0.657206	-1.330976	0.905725
O50	O	-0.407206	-1.080976	1.155725
O51	O	-0.157206	-0.830976	1.405725
O52	O	0.092794	-0.580976	1.655725
O53	O	-0.624546	-1.185392	0.717849
O54	O	-0.374546	-0.935392	0.967849
O55	O	-0.124546	-0.685392	1.217849
O56	O	0.125454	-0.435392	1.467849
O57	O	-0.572150	-1.457358	0.921791
O58	O	-0.322150	-1.207358	1.171791
O59	O	-0.072150	-0.957358	1.421791
O60	O	0.177850	-0.707358	1.671791
O61	O	-0.776895	-1.494396	0.628654
O62	O	-0.526895	-1.244396	0.878654
O63	O	-0.276895	-0.994396	1.128654
O64	O	-0.026895	-0.744396	1.378654
O65	O	-0.773692	-1.352048	0.738951
O66	O	-0.523692	-1.102048	0.988951
O67	O	-0.273692	-0.852048	1.238951
O68	O	-0.023692	-0.602048	1.488951
C69	C	-0.804552	-1.423230	0.683817
C70	C	-0.554552	-1.173230	0.933817
C71	C	-0.304552	-0.923230	1.183817
C72	C	-0.054552	-0.673230	1.433817
C73	C	-0.894180	-1.423281	0.683840
C74	C	-0.644180	-1.173281	0.933840
C75	C	-0.394180	-0.923281	1.183840
C76	C	-0.144180	-0.673281	1.433840
C77	C	-0.565517	-1.156114	0.649972
C78	C	-0.315517	-0.906114	0.899972
C79	C	-0.065517	-0.656114	1.149972
C80	C	0.184483	-0.406114	1.399972
C81	C	-0.552893	-1.041798	0.635494
C82	C	-0.302893	-0.791798	0.885494
C83	C	-0.052893	-0.541798	1.135494
C84	C	0.197107	-0.291798	1.385494
C85	C	-0.617949	-1.389302	0.952117
C86	C	-0.367949	-1.139302	1.202117
C87	C	-0.117949	-0.889302	1.452117
C88	C	0.132051	-0.639302	1.702117
C89	C	-0.627696	-1.374805	1.066427
C90	C	-0.377696	-1.124805	1.316427
C91	C	-0.127696	-0.874805	1.566427
C92	C	0.122304	-0.624805	1.816427
C93	C	-1.222385	-1.423447	0.683970
C94	C	-0.972385	-1.173447	0.933970
C95	C	-0.722385	-0.923447	1.183970
C96	C	-0.472385	-0.673447	1.433970
C97	C	-1.131068	-1.423397	0.683936
C98	C	-0.881068	-1.173397	0.933936
C99	C	-0.631068	-0.923397	1.183936
C100	C	-0.381068	-0.673397	1.433936
C101	C	-1.058285	-1.423363	0.683904
C102	C	-0.808285	-1.173363	0.933904
C103	C	-0.558285	-0.923363	1.183904
C104	C	-0.308285	-0.673363	1.433904
C105	C	-0.966963	-1.423315	0.683872
C106	C	-0.716963	-1.173315	0.933872
C107	C	-0.466963	-0.923315	1.183872
C108	C	-0.216963	-0.673315	1.433872
C109	C	-0.384786	-1.423440	0.683954
C110	C	-0.134786	-1.173440	0.933954
C111	C	0.115214	-0.923440	1.183954
C112	C	0.365214	-0.673440	1.433954
C113	C	-0.295173	-1.423490	0.683989
C114	C	-0.045173	-1.173490	0.933989
C115	C	0.204827	-0.923490	1.183989
C116	C	0.454827	-0.673490	1.433989
C117	C	-0.624750	-1.691574	0.717906
C118	C	-0.374750	-1.441574	0.967906
C119	C	-0.124750	-1.191574	1.217906
C120	C	0.125250	-0.941574	1.467906
C121	C	-0.637396	-1.805887	0.732409
C122	C	-0.387396	-1.555887	0.982409
C123	C	-0.137396	-1.305887	1.232409
C124	C	0.112604	-1.055887	1.482409
C125	C	-0.601664	-0.982917	0.691429
C126	C	-0.351664	-0.732917	0.941429
C127	C	-0.101664	-0.482917	1.191429
C128	C	0.148336	-0.232917	1.441429
C129	C	-0.588618	-0.864766	0.676466
C130	C	-0.338618	-0.614766	0.926466
C131	C	-0.088618	-0.364766	1.176466
C132	C	0.161382	-0.114766	1.426466
C133	C	-0.572239	-1.457270	0.416679
C134	C	-0.322239	-1.207270	0.666679
C135	C	-0.072239	-0.957270	0.916679
C136	C	0.177761	-0.707270	1.166679
C137	C	-0.562287	-1.471966	0.302395
C138	C	-0.312287	-1.221966	0.552395
C139	C	-0.062287	-0.971966	0.802395
C140	C	0.187713	-0.721966	1.052395
C141	C	-0.589958	-1.430873	1.125339
C142	C	-0.339958	-1.180873	1.375339
C143	C	-0.089958	-0.930873	1.625339
C144	C	0.160042	-0.680873	1.875339
C145	C	-0.600031	-1.415890	1.243485
C146	C	-0.350031	-1.165890	1.493485
C147	C	-0.100031	-0.915890	1.743485
C148	C	0.149969	-0.665890	1.993485
H149	H	-0.653074	-1.019978	0.750398
H150	H	-0.403074	-0.769978	1.000398
H151	H	-0.153074	-0.519978	1.250398
H152	H	0.096926	-0.269978	1.500398
H153	H	-0.688808	-0.842942	0.791385
H154	H	-0.438808	-0.592942	1.041385
H155	H	-0.188808	-0.342942	1.291385
H156	H	0.061192	-0.092942	1.541385
H157	H	-0.639795	-1.356786	1.280509
H158	H	-0.389795	-1.106786	1.530509
H159	H	-0.139795	-0.856786	1.780509
H160	H	0.110205	-0.606786	2.030509
H161	H	-0.501477	-1.004736	0.576533
H162	H	-0.251477	-0.754736	0.826533
H163	H	-0.001477	-0.504736	1.076533
H164	H	0.248523	-0.254736	1.326533
F165	F	-0.537959	-1.508094	1.076942
F166	F	-0.287959	-1.258094	1.326942
F167	F	-0.037959	-1.008094	1.576942
F168	F	0.212041	-0.758094	1.826942
H169	H	-0.522512	-1.531059	1.265370
H170	H	-0.272512	-1.281059	1.515370
H171	H	-0.022512	-1.031059	1.765370
H172	H	0.227488	-0.781059	2.015370
H173	H	-0.537199	-0.827708	0.617501
H174	H	-0.287199	-0.577708	0.867501
H175	H	-0.037199	-0.327708	1.117501
H176	H	0.212801	-0.077708	1.367501
F177	F	-0.679671	-1.297557	1.114821
F178	F	-0.429671	-1.047557	1.364821
F179	F	-0.179671	-0.797557	1.614821
F180	F	0.070329	-0.547557	1.864821
