data_functionalizedCrystal
_audit_creation_method	'MofGen! by Chris Wilmer'
_symmetry_space_group_name_H-M	'P1'
_symmetry_Int_Tables_number	1
_symmetry_cell_setting	triclinic
loop_
_symmetry_equiv_pos_as_xyz
  x,y,z
_cell_length_a	16.120530
_cell_length_b	16.120484
_cell_length_c	16.120256
_cell_angle_alpha	84.383827
_cell_angle_beta	90.128265
_cell_angle_gamma	89.832673
loop_
_atom_site_label
_atom_site_type_symbol
_atom_site_fract_x
_atom_site_fract_y
_atom_site_fract_z
Zn1	Zn	1.224986	0.422281	-0.554816
Zn2	Zn	1.724986	0.922281	-0.054816
Zn3	Zn	1.224882	0.554961	-0.422121
Zn4	Zn	1.724882	1.054961	0.077879
Zn5	Zn	1.093725	0.408193	-0.408058
Zn6	Zn	1.593725	0.908193	0.091942
Zn7	Zn	1.078879	0.554198	-0.554054
Zn8	Zn	1.578879	1.054198	-0.054054
O9	O	1.155618	0.484908	-0.484762
O10	O	1.655618	0.984908	0.015238
O11	O	1.341008	0.446097	-0.543418
O12	O	1.841008	0.946097	-0.043418
O13	O	1.213653	0.529915	-0.303622
O14	O	1.713653	1.029915	0.196378
O15	O	1.117394	0.293431	-0.421960
O16	O	1.617394	0.793431	0.078040
O17	O	1.340931	0.543577	-0.445927
O18	O	1.840931	1.043577	0.054073
O19	O	1.213831	0.303782	-0.529783
O20	O	1.713831	0.803782	-0.029783
O21	O	1.117293	0.422085	-0.293290
O22	O	1.617293	0.922085	0.206710
O23	O	0.975720	0.421345	-0.421221
O24	O	1.475720	0.921345	0.078779
O25	O	1.092090	0.542275	-0.670788
O26	O	1.592090	1.042275	-0.170788
O27	O	0.964812	0.528614	-0.528483
O28	O	1.464812	1.028614	-0.028483
O29	O	1.199435	0.445357	-0.671349
O30	O	1.699435	0.945357	-0.171349
O31	O	1.199257	0.671491	-0.445188
O32	O	1.699257	1.171491	0.054812
O33	O	1.091989	0.670930	-0.542119
O34	O	1.591989	1.170930	-0.042119
C35	C	0.940179	0.473368	-0.473243
C36	C	1.440179	0.973368	0.026757
C37	C	0.848012	0.468453	-0.468336
C38	C	1.348012	0.968453	0.031664
C39	C	1.144022	0.701453	-0.495116
C40	C	1.644022	1.201453	0.004884
C41	C	1.139136	0.794098	-0.499577
C42	C	1.639136	1.294098	0.000423
C43	C	1.167280	0.267520	-0.474388
C44	C	1.667280	0.767520	0.025612
C45	C	1.172250	0.174881	-0.469967
C46	C	1.672250	0.674881	0.030033
C47	C	0.679260	0.459459	-0.459384
C48	C	1.179260	0.959459	0.040616
C49	C	0.632809	0.510422	-0.510204
C50	C	1.132809	1.010422	-0.010204
C51	C	0.538910	0.505418	-0.505223
C52	C	1.038910	1.005418	-0.005223
C53	C	0.773168	0.464462	-0.464364
C54	C	1.273168	0.964462	0.035636
C55	C	1.371898	0.496494	-0.496326
C56	C	1.871898	0.996494	0.003674
C57	C	1.464063	0.501431	-0.501254
C58	C	1.964063	1.001431	-0.001254
C59	C	1.144118	0.495303	-0.702156
C60	C	1.644118	0.995303	-0.202156
C61	C	1.139217	0.499732	-0.794796
C62	C	1.639217	0.999732	-0.294796
C63	C	1.130219	0.963721	-0.507739
C64	C	1.630219	1.463721	-0.007739
C65	C	1.181165	1.005263	-0.461807
C66	C	1.681165	1.505263	0.038193
C67	C	1.176203	1.099648	-0.466348
C68	C	1.676203	1.599648	0.033652
C69	C	1.135179	0.869328	-0.503199
C70	C	1.635179	1.369328	-0.003199
C71	C	1.181174	0.461788	-1.005960
C72	C	1.681174	0.961788	-0.505960
C73	C	1.130244	0.507783	-0.964402
C74	C	1.630244	1.007783	-0.464402
C75	C	1.135238	0.503302	-0.870024
C76	C	1.635238	1.003302	-0.370024
C77	C	1.176181	0.466268	-1.100346
C78	C	1.676181	0.966268	-0.600346
C79	C	1.167124	0.474497	-0.268214
C80	C	1.667124	0.974497	0.231786
C81	C	1.172198	0.469841	-0.175572
C82	C	1.672198	0.969841	0.324428
H83	H	0.648510	0.412073	-0.412137
H84	H	1.148510	0.912073	0.087863
C85	C	1.245117	0.957558	-0.404063
C86	C	1.745117	1.457558	0.095937
C87	C	1.215771	0.892701	-0.333858
C88	C	1.715771	1.392701	0.166142
C89	C	1.279716	0.844992	-0.276112
C90	C	1.779716	1.344992	0.223888
C91	C	1.373007	0.862139	-0.288571
C92	C	1.873007	1.362139	0.211429
C93	C	1.402358	0.926999	-0.358779
C94	C	1.902358	1.426999	0.141221
C95	C	1.338412	0.974708	-0.416525
C96	C	1.838412	1.474708	0.083475
H97	H	1.146707	0.880005	-0.324632
H98	H	1.646707	1.380005	0.175368
H99	H	1.257988	0.796979	-0.224139
H100	H	1.757988	1.296979	0.275861
H101	H	1.420343	0.826822	-0.245824
H102	H	1.920343	1.326822	0.254176
H103	H	1.471422	0.939695	-0.368005
H104	H	1.971422	1.439695	0.131995
H105	H	1.360140	1.022721	-0.468498
H106	H	1.860140	1.522721	0.031502
C107	C	1.066264	0.565521	-1.012083
C108	C	1.566264	1.065521	-0.512083
C109	C	1.007259	0.618799	-0.964025
C110	C	1.507259	1.118799	-0.464025
C111	C	0.943279	0.676531	-1.011710
C112	C	1.443279	1.176531	-0.511710
C113	C	0.938304	0.680983	-1.107453
C114	C	1.438304	1.180983	-0.607453
C115	C	0.997312	0.627703	-1.155516
C116	C	1.497312	1.127703	-0.655516
C117	C	1.061292	0.569971	-1.107831
C118	C	1.561292	1.069971	-0.607831
H119	H	1.010939	0.615505	-0.893146
H120	H	1.510939	1.115505	-0.393146
H121	H	0.899597	0.715972	-0.976130
H122	H	1.399597	1.215972	-0.476130
H123	H	0.890942	0.723719	-1.142752
H124	H	1.390942	1.223719	-0.642752
H125	H	0.993631	0.630997	-1.226395
H126	H	1.493631	1.130997	-0.726395
H127	H	1.104973	0.530530	-1.143412
H128	H	1.604973	1.030530	-0.643412
H129	H	1.228523	0.419049	-0.970662
H130	H	1.728523	0.919049	-0.470662
C131	C	1.066258	1.011427	-0.565462
C132	C	1.566258	1.511427	-0.065462
C133	C	1.007230	0.963396	-0.618672
C134	C	1.507230	1.463396	-0.118672
C135	C	0.943268	1.011113	-0.676390
C136	C	1.443268	1.511113	-0.176390
C137	C	0.938333	1.106863	-0.680899
C138	C	1.438333	1.606863	-0.180899
C139	C	0.997363	1.154900	-0.627688
C140	C	1.497363	1.654900	-0.127688
C141	C	1.061326	1.107182	-0.569969
C142	C	1.561326	1.607182	-0.069969
H143	H	1.010881	0.892511	-0.615336
H144	H	1.510881	1.392511	-0.115336
H145	H	0.899570	0.975552	-0.715781
H146	H	1.399570	1.475552	-0.215781
H147	H	0.890984	1.142186	-0.723626
H148	H	1.390984	1.642186	-0.223626
H149	H	0.993712	1.225784	-0.631024
H150	H	1.493712	1.725784	-0.131024
H151	H	1.105023	1.142743	-0.530579
H152	H	1.605023	1.642743	-0.030579
C153	C	0.674347	0.574453	-0.574031
C154	C	1.174347	1.074453	-0.074031
C155	C	0.769614	0.579438	-0.578982
C156	C	1.269614	1.079438	-0.078982
C157	C	0.811155	0.643469	-0.642802
C158	C	1.311155	1.143469	-0.142802
C159	C	0.757429	0.702515	-0.701671
C160	C	1.257429	1.202515	-0.201671
C161	C	0.662157	0.697531	-0.696722
C162	C	1.162157	1.197531	-0.196722
C163	C	0.620615	0.633500	-0.632902
C164	C	1.120615	1.133500	-0.132902
H165	H	0.809390	0.535727	-0.535402
H166	H	1.309390	1.035727	-0.035402
H167	H	0.881682	0.647157	-0.646465
H168	H	1.381682	1.147157	-0.146465
H169	H	0.788181	0.749914	-0.748914
H170	H	1.288181	1.249914	-0.248914
H171	H	0.622381	0.741242	-0.740302
H172	H	1.122381	1.241242	-0.240302
H173	H	0.550088	0.629812	-0.629239
H174	H	1.050088	1.129812	-0.129239
