data_functionalizedCrystal
_audit_creation_method	'MofGen! by Chris Wilmer'
_symmetry_space_group_name_H-M	'P1'
_symmetry_Int_Tables_number	1
_symmetry_cell_setting	triclinic
loop_
_symmetry_equiv_pos_as_xyz
  x,y,z
_cell_length_a	14.971486
_cell_length_b	16.992695
_cell_length_c	13.448316
_cell_angle_alpha	89.993283
_cell_angle_beta	89.998199
_cell_angle_gamma	87.141176
loop_
_atom_site_label
_atom_site_type_symbol
_atom_site_fract_x
_atom_site_fract_y
_atom_site_fract_z
O1	O	1.194127	0.102190	-0.082578
O2	O	0.934587	0.114427	-0.082605
O3	O	1.063317	-0.005835	-0.082584
O4	O	1.065398	0.222452	-0.082599
O5	O	1.063299	-0.005843	0.082800
O6	O	0.934569	0.114420	0.082779
O7	O	1.194110	0.102182	0.082806
Cu8	Cu	1.064338	0.108300	0.097893
Cu9	Cu	1.064359	0.108309	-0.097692
O10	O	1.065380	0.222445	0.082785
C11	C	0.901215	0.113876	0.000083
C12	C	0.801803	0.112236	0.000073
C13	C	0.749541	0.182887	0.000070
C14	C	0.656133	0.181341	0.000085
C15	C	0.614988	0.109144	0.000096
C16	C	0.667257	0.038488	0.000102
C17	C	0.760663	0.040034	0.000095
C18	C	0.472568	0.035269	0.000116
C19	C	0.379155	0.033723	0.000122
C20	C	0.368038	0.176577	0.000106
C21	C	0.461445	0.178123	0.000099
C22	C	0.513707	0.107466	0.000103
C23	C	1.060631	-0.035054	0.000108
C24	C	1.052644	-0.122105	0.000107
C25	C	1.129708	-0.172274	0.000116
C26	C	1.122198	-0.254067	0.000106
C27	C	1.037623	-0.285691	0.000093
C28	C	0.960553	-0.235517	0.000081
C29	C	0.968064	-0.153724	0.000084
C30	C	1.006493	-0.529318	0.000076
C31	C	0.998988	-0.611117	0.000076
C32	C	1.160634	-0.629662	0.000099
C33	C	1.168138	-0.547867	0.000108
C34	C	1.091068	-0.497700	0.000090
N35	N	1.029945	-0.369297	0.000086
N36	N	1.098747	-0.414095	0.000091
C37	C	1.227482	0.102733	0.000115
C38	C	1.326894	0.104373	0.000119
C39	C	1.068066	0.251664	0.000091
C40	C	1.076053	0.338715	0.000085
N41	N	1.064329	0.108294	0.235457
N42	N	1.064374	0.108310	-0.235257
C43	C	1.121351	0.055064	0.287507
C44	C	1.121357	0.055063	0.391611
C45	C	1.064344	0.108297	0.443662
C46	C	1.007316	0.161530	0.391605
C47	C	1.007307	0.161526	0.287504
C48	C	1.007341	0.161535	0.608585
C49	C	1.007352	0.161540	0.712694
C50	C	1.121392	0.055072	0.712692
C51	C	1.121382	0.055068	0.608591
C52	C	1.064355	0.108302	0.556541
H53	H	0.783034	0.241679	0.000060
C54	C	0.544638	0.262473	-0.084942
C55	C	0.598689	0.259004	0.000070
H56	H	0.509172	0.310420	-0.084946
H57	H	0.581306	0.260105	-0.142606
H58	H	0.506767	0.219253	-0.084916
H59	H	0.636565	0.302222	0.000041
H60	H	0.562017	0.261381	0.057750
H61	H	0.960901	0.204881	0.566209
H62	H	1.184952	-0.294912	0.000115
C63	C	0.280560	-0.050879	0.085167
C64	C	0.333928	-0.045638	0.000146
H65	H	0.252637	-0.099872	0.085178
H66	H	0.316770	-0.047306	0.142825
H67	H	0.236070	-0.009018	0.085147
H68	H	0.378422	-0.087496	0.000170
H69	H	0.297715	-0.049218	-0.057527
C70	C	1.327164	-0.574418	0.000129
C71	C	1.261106	-0.513109	0.000123
H72	H	1.384558	-0.552957	0.000137
H73	H	1.320863	-0.605940	0.057794
H74	H	1.320879	-0.605927	-0.057553
H75	H	1.267388	-0.481603	0.057808
H76	H	1.267410	-0.481574	-0.057548
H77	H	0.891690	-0.261271	0.000065
C78	C	0.474179	-0.106095	0.000111
C79	C	0.530016	-0.042397	0.000110
H80	H	0.509647	-0.154040	0.000096
H81	H	0.437524	-0.103735	0.057787
H82	H	0.437508	-0.103713	-0.057560
H83	H	0.566683	-0.044776	0.057786
H84	H	0.566686	-0.044758	-0.057571
C85	C	0.798907	-0.081243	-0.084924
C86	C	0.818115	-0.037626	0.000090
H87	H	0.834381	-0.129186	-0.084925
H88	H	0.737398	-0.092497	-0.084911
H89	H	0.811931	-0.051630	-0.142593
H90	H	0.805085	-0.067236	0.057760
H91	H	0.879639	-0.026374	0.000086
C92	C	1.269801	-0.162890	-0.084893
C93	C	1.222675	-0.137514	0.000124
H94	H	1.327194	-0.141427	-0.084893
H95	H	1.276356	-0.218775	-0.084886
H96	H	1.237818	-0.145663	-0.142560
H97	H	1.254656	-0.154746	0.057791
H98	H	1.216124	-0.081617	0.000125
H99	H	0.325482	0.234108	0.000107
H100	H	1.167810	0.011725	0.566210
H101	H	0.494942	0.236912	0.000080
H102	H	0.905310	-0.112878	0.000077
C103	C	1.245974	-0.732388	-0.084918
C104	C	1.245347	-0.684806	0.000104
H105	H	1.298278	-0.766428	-0.084919
H106	H	1.194537	-0.762926	-0.084915
H107	H	1.245547	-0.700078	-0.142582
H108	H	1.245768	-0.717116	0.057768
H109	H	1.296797	-0.654266	0.000110
H110	H	1.167788	0.011718	0.433989
C111	C	0.839954	-0.584573	0.000024
C112	C	0.906016	-0.645879	0.000047
H113	H	0.782562	-0.606037	-0.000001
H114	H	0.846226	-0.553064	0.057695
H115	H	0.846266	-0.553051	-0.057651
H116	H	0.899709	-0.677398	0.057726
H117	H	0.899742	-0.677401	-0.057631
H118	H	0.633749	-0.020297	0.000126
C119	C	0.921158	-0.426587	-0.084959
C120	C	0.921775	-0.474185	0.000062
H121	H	0.868850	-0.392553	-0.084968
H122	H	0.972591	-0.396044	-0.084946
H123	H	0.921601	-0.458886	-0.142623
H124	H	0.921339	-0.441886	0.057727
H125	H	0.870329	-0.504731	0.000058
C126	C	1.234067	-0.050180	0.297973
C127	C	1.184021	-0.003456	0.230297
H128	H	1.272751	-0.086312	0.262654
H129	H	1.268577	-0.017491	0.338561
H130	H	1.194811	-0.078436	0.338591
H131	H	1.223277	0.024804	0.189684
H132	H	1.149508	-0.036149	0.189692
C133	C	1.164251	-0.080608	0.744743
C134	C	1.184081	-0.003447	0.769895
H135	H	1.202959	-0.116729	0.780056
H136	H	1.103956	-0.089213	0.761823
H137	H	1.172404	-0.088213	0.675292
H138	H	1.175921	0.004161	0.839345
H139	H	1.244390	0.005162	0.752821
C140	C	0.894595	0.266754	0.702244
C141	C	0.944666	0.220040	0.769911
H142	H	0.855888	0.302863	0.737571
H143	H	0.933829	0.295028	0.661637
H144	H	0.860099	0.234049	0.661646
H145	H	0.979167	0.252745	0.810505
H146	H	0.905427	0.191764	0.810536
C147	C	0.886812	0.178371	0.508701
C148	C	0.944647	0.220044	0.448823
H149	H	0.848128	0.214498	0.544028
H150	H	0.852302	0.145689	0.468103
H151	H	0.920786	0.146671	0.554594
H152	H	0.910673	0.251740	0.402925
H153	H	0.979161	0.252739	0.489424
C154	C	0.894594	0.266772	0.297955
C155	C	0.944631	0.220042	0.230286
H156	H	0.855902	0.302899	0.262630
H157	H	0.860092	0.234086	0.338568
H158	H	0.933856	0.295033	0.338548
H159	H	0.905369	0.191777	0.189698
H160	H	0.979135	0.252733	0.189656
