data_functionalizedCrystal
_audit_creation_method	'MofGen! by Chris Wilmer'
_symmetry_space_group_name_H-M	'P1'
_symmetry_Int_Tables_number	1
_symmetry_cell_setting	triclinic
loop_
_symmetry_equiv_pos_as_xyz
  x,y,z
_cell_length_a	14.853569
_cell_length_b	14.519709
_cell_length_c	13.930277
_cell_angle_alpha	89.994503
_cell_angle_beta	89.994756
_cell_angle_gamma	83.657855
loop_
_atom_site_label
_atom_site_type_symbol
_atom_site_fract_x
_atom_site_fract_y
_atom_site_fract_z
O1	O	1.196414	0.120411	-0.079789
O2	O	0.933960	0.134753	-0.079801
O3	O	1.072146	-0.006659	-0.079786
O4	O	1.058229	0.261824	-0.079804
O5	O	1.072127	-0.006662	0.079876
O6	O	0.933941	0.134750	0.079861
O7	O	1.196395	0.120408	0.079873
Zn8	Zn	1.065165	0.127579	0.105217
Zn9	Zn	1.065190	0.127583	-0.105145
O10	O	1.058210	0.261820	0.079858
C11	C	0.900362	0.134102	0.000029
C12	C	0.800278	0.132153	0.000024
C13	C	0.763868	0.047238	0.000027
C14	C	0.742644	0.215239	0.000026
C15	C	0.648609	0.213412	0.000027
C16	C	0.612199	0.128496	0.000030
C17	C	0.669825	0.045407	0.000031
C18	C	0.590977	0.296498	0.000036
C19	C	0.496936	0.294674	0.000038
C20	C	0.460525	0.209757	0.000034
C21	C	0.518156	0.126666	0.000034
C22	C	0.481747	0.041750	0.000036
C23	C	0.539377	-0.041343	0.000029
C24	C	0.633414	-0.039509	0.000026
C25	C	0.366487	0.207924	0.000037
C26	C	0.387703	0.039920	0.000040
C27	C	1.071488	-0.041020	0.000045
C28	C	1.069544	-0.143400	0.000046
C29	C	1.062389	-0.518293	0.000020
C30	C	1.064376	-0.413986	0.000028
C31	C	1.065966	-0.330850	0.000034
C32	C	1.067954	-0.226536	0.000039
C33	C	1.229994	0.121060	0.000041
C34	C	1.330078	0.123008	0.000039
C35	C	1.058868	0.296182	0.000025
C36	C	1.060811	0.398562	0.000018
N37	N	1.065154	0.127575	0.248783
N38	N	1.065208	0.127579	-0.248711
C39	C	1.004000	0.190175	0.701045
C40	C	1.126406	0.064983	0.701028
C41	C	1.126395	0.064980	0.600532
C42	C	1.065187	0.127577	0.550289
C43	C	1.003989	0.190176	0.600540
C44	C	1.187598	0.002388	0.550273
C45	C	1.187591	0.002383	0.449771
C46	C	1.126377	0.064976	0.399525
C47	C	1.065176	0.127578	0.449783
C48	C	1.003967	0.190174	0.399540
C49	C	0.942761	0.252772	0.449796
C50	C	0.942775	0.252769	0.550295
C51	C	1.126363	0.064979	0.299027
C52	C	1.003956	0.190175	0.299035
H53	H	0.450021	0.362334	0.000042
Br54	Br	1.270673	-0.082554	0.618457
Br55	Br	0.288280	0.320682	0.000062
H56	H	1.237427	-0.048588	0.408858
Br57	Br	0.489952	-0.156582	0.000046
H58	H	0.954109	0.241146	0.258132
Br59	Br	1.209481	-0.019959	0.769212
Br60	Br	1.209430	-0.019961	0.230828
H61	H	0.680344	-0.107159	0.000023
Br62	Br	0.338298	-0.075330	0.000032
H63	H	0.810794	-0.020414	0.000017
Br64	Br	0.859703	0.337731	0.381597
H65	H	0.620629	0.365632	0.000040
Br66	Br	0.792057	0.330476	0.000028
H67	H	0.892944	0.303735	0.591220
H68	H	0.954164	0.241139	0.741967
