data_functionalizedCrystal
_audit_creation_method	'MofGen! by Chris Wilmer'
_symmetry_space_group_name_H-M	'P1'
_symmetry_Int_Tables_number	1
_symmetry_cell_setting	triclinic
loop_
_symmetry_equiv_pos_as_xyz
  x,y,z
_cell_length_a	11.169417
_cell_length_b	17.640280
_cell_length_c	11.169409
_cell_angle_alpha	78.765642
_cell_angle_beta	89.980487
_cell_angle_gamma	78.802247
loop_
_atom_site_label
_atom_site_type_symbol
_atom_site_fract_x
_atom_site_fract_y
_atom_site_fract_z
Zn1	Zn	1.931508	-0.314581	-0.582042
Zn2	Zn	1.971971	-0.446784	-0.340808
Zn3	Zn	1.730809	-0.314630	-0.381362
Zn4	Zn	1.771356	-0.446720	-0.541473
O5	O	1.851411	-0.380679	-0.461421
O6	O	2.104827	-0.332124	-0.550047
O7	O	1.939946	-0.429300	-0.178223
O8	O	1.723530	-0.204016	-0.441932
O9	O	2.134555	-0.429253	-0.372814
O10	O	1.870983	-0.203980	-0.589371
O11	O	1.762765	-0.332208	-0.208018
O12	O	1.568236	-0.332146	-0.402595
O13	O	1.792635	-0.429145	-0.714819
O14	O	1.598026	-0.429192	-0.520228
O15	O	1.910299	-0.332063	-0.744624
O16	O	1.979262	-0.557383	-0.333477
O17	O	1.831870	-0.557336	-0.480905
C18	C	1.539583	-0.380668	-0.461411
C19	C	1.406188	-0.380683	-0.461429
C20	C	1.914389	-0.586039	-0.398414
C21	C	1.941441	-0.673892	-0.371500
C22	C	1.646392	-0.962849	-0.666324
C23	C	1.671814	-1.045401	-0.640996
C24	C	1.825388	-1.045384	-0.487634
C25	C	1.799983	-0.962830	-0.512954
C26	C	1.710483	-0.921569	-0.602299
C27	C	1.864073	-0.921550	-0.448929
C28	C	1.838666	-0.839004	-0.474243
C29	C	1.749167	-0.797737	-0.563581
C30	C	1.685075	-0.839022	-0.627613
C31	C	1.953567	-0.962813	-0.359578
C32	C	2.017658	-0.921533	-0.295553
C33	C	1.992257	-0.838985	-0.320872
C34	C	1.902758	-0.797719	-0.410211
C35	C	2.056349	-0.797700	-0.256841
C36	C	2.030941	-0.715153	-0.282154
C37	C	1.877351	-0.715172	-0.435525
C38	C	2.164457	-0.380690	-0.461432
C39	C	2.297858	-0.380695	-0.461437
C40	C	1.851476	-0.380591	-0.774491
C41	C	1.851504	-0.380554	-0.907902
C42	C	1.788220	-0.174517	-0.524700
C43	C	1.761291	-0.086663	-0.551666
C44	C	1.851398	-0.380709	-0.149587
C45	C	1.851534	-0.380524	-0.016245
H46	H	1.804479	-0.681576	-0.508288
C47	C	1.586642	-0.793630	-0.725908
H48	H	1.552108	-0.830036	-0.760419
H49	H	1.622614	-0.761385	-0.788118
H50	H	1.524466	-0.761473	-0.689814
H51	H	1.974254	-1.030028	-0.338974
H52	H	2.090525	-0.955139	-0.222805
C53	C	1.547959	-0.917456	-0.764619
H54	H	1.513425	-0.953862	-0.799130
H55	H	1.583931	-0.885212	-0.826830
H56	H	1.485783	-0.885299	-0.728526
H57	H	2.129211	-0.831307	-0.184088
C58	C	1.721212	-0.706938	-0.591434
H59	H	1.658725	-0.688278	-0.653807
H60	H	1.792884	-0.688212	-0.617998
H61	H	1.694754	-0.688306	-0.519676
C62	C	1.601316	-1.090806	-0.711438
H63	H	1.544384	-1.054407	-0.768279
H64	H	1.558974	-1.123056	-0.655598
H65	H	1.657107	-1.122959	-0.753917
H66	H	2.083130	-0.681543	-0.230017
C67	C	1.923837	-1.090775	-0.389368
H68	H	1.929798	-1.145849	-0.383466
H69	H	1.902177	-1.077289	-0.312847
H70	H	2.000290	-1.077197	-0.411186
