data_functionalizedCrystal
_audit_creation_method	'MofGen! by Chris Wilmer'
_symmetry_space_group_name_H-M	'P1'
_symmetry_Int_Tables_number	1
_symmetry_cell_setting	triclinic
loop_
_symmetry_equiv_pos_as_xyz
  x,y,z
_cell_length_a	15.944551
_cell_length_b	15.944480
_cell_length_c	13.101039
_cell_angle_alpha	93.356021
_cell_angle_beta	86.632575
_cell_angle_gamma	83.484293
loop_
_atom_site_label
_atom_site_type_symbol
_atom_site_fract_x
_atom_site_fract_y
_atom_site_fract_z
O1	O	-0.103414	-1.119180	-0.085182
O2	O	0.146586	-0.869180	0.164818
O3	O	0.396586	-0.619180	0.414818
O4	O	0.646586	-0.369180	0.664818
O5	O	-0.116832	-0.874623	-0.085187
O6	O	0.133168	-0.624623	0.164813
O7	O	0.383168	-0.374623	0.414813
O8	O	0.633168	-0.124623	0.664813
O9	O	0.012154	-1.003580	-0.085190
O10	O	0.262154	-0.753580	0.164810
O11	O	0.512154	-0.503580	0.414810
O12	O	0.762154	-0.253580	0.664810
O13	O	-0.232400	-0.990223	-0.085179
O14	O	0.017600	-0.740223	0.164821
O15	O	0.267600	-0.490223	0.414821
O16	O	0.517600	-0.240223	0.664821
O17	O	0.002884	-0.994327	0.085240
O18	O	0.252884	-0.744327	0.335240
O19	O	0.502884	-0.494327	0.585240
O20	O	0.752884	-0.244327	0.835240
O21	O	-0.126102	-0.865370	0.085243
O22	O	0.123898	-0.615370	0.335243
O23	O	0.373898	-0.365370	0.585243
O24	O	0.623898	-0.115370	0.835243
O25	O	-0.112684	-1.109928	0.085248
O26	O	0.137316	-0.859928	0.335248
O27	O	0.387316	-0.609928	0.585248
O28	O	0.637316	-0.359928	0.835248
Zn29	Zn	-0.120865	-0.986180	0.112305
Zn30	Zn	0.129135	-0.736180	0.362305
Zn31	Zn	0.379135	-0.486180	0.612305
Zn32	Zn	0.629135	-0.236180	0.862305
Zn33	Zn	-0.108651	-0.998370	-0.112244
Zn34	Zn	0.141349	-0.748370	0.137756
Zn35	Zn	0.391349	-0.498370	0.387756
Zn36	Zn	0.641349	-0.248370	0.637756
O37	O	-0.241670	-0.980970	0.085251
O38	O	0.008330	-0.730970	0.335251
O39	O	0.258330	-0.480970	0.585251
O40	O	0.508330	-0.230970	0.835251
C41	C	-0.120920	-0.838701	0.000027
C42	C	0.129080	-0.588701	0.250027
C43	C	0.379080	-0.338701	0.500027
C44	C	0.629080	-0.088701	0.750027
C45	C	-0.119282	-0.745452	0.000024
C46	C	0.130718	-0.495452	0.250024
C47	C	0.380718	-0.245452	0.500024
C48	C	0.630718	0.004548	0.750024
C49	C	-0.195213	-0.509691	0.000025
C50	C	0.054787	-0.259691	0.250025
C51	C	0.304787	-0.009691	0.500025
C52	C	0.554787	0.240309	0.750025
C53	C	-0.158845	-0.454570	0.084058
C54	C	0.091155	-0.204570	0.334058
C55	C	0.341155	0.045430	0.584058
C56	C	0.591155	0.295430	0.834058
C57	C	-0.116245	-0.574730	0.000025
C58	C	0.133755	-0.324730	0.250025
C59	C	0.383755	-0.074730	0.500025
C60	C	0.633755	0.175270	0.750025
C61	C	-0.149687	-0.463697	-0.083972
C62	C	0.100313	-0.213697	0.166028
C63	C	0.350313	0.036303	0.416028
C64	C	0.600313	0.286303	0.666028
C65	C	-0.113318	-0.409820	0.000021
C66	C	0.136682	-0.159820	0.250021
C67	C	0.386682	0.090180	0.500021
C68	C	0.636682	0.340180	0.750021
C69	C	-0.079903	-0.520834	0.084127
C70	C	0.170097	-0.270834	0.334127
C71	C	0.420097	-0.020834	0.584127
C72	C	0.670097	0.229166	0.834127
C73	C	-0.070752	-0.529968	-0.083979
C74	C	0.179248	-0.279968	0.166021
C75	C	0.429248	-0.029968	0.416021
C76	C	0.679248	0.220032	0.666021
C77	C	-0.034327	-0.474879	0.000075
C78	C	0.215673	-0.224879	0.250075
C79	C	0.465673	0.025121	0.500075
C80	C	0.715673	0.275121	0.750075
C81	C	-0.117934	-0.669731	0.000028
C82	C	0.132066	-0.419731	0.250028
C83	C	0.382066	-0.169731	0.500028
C84	C	0.632066	0.080269	0.750028
C85	C	-0.111624	-0.314822	0.000025
C86	C	0.138376	-0.064822	0.250025
C87	C	0.388376	0.185178	0.500025
C88	C	0.638376	0.435178	0.750025
C89	C	-0.268329	-0.986151	0.000038
C90	C	-0.018329	-0.736151	0.250038
C91	C	0.231671	-0.486151	0.500038
C92	C	0.481671	-0.236151	0.750038
C93	C	-0.361575	-0.987813	0.000042
C94	C	-0.111575	-0.737813	0.250042
C95	C	0.138425	-0.487813	0.500042
C96	C	0.388425	-0.237813	0.750042
C97	C	-0.576409	-1.071721	0.000029
C98	C	-0.326409	-0.821721	0.250029
C99	C	-0.076409	-0.571721	0.500029
C100	C	0.173591	-0.321721	0.750029
C101	C	-0.642006	-1.028195	0.084060
C102	C	-0.392006	-0.778195	0.334060
C103	C	-0.142006	-0.528195	0.584060
C104	C	0.107994	-0.278195	0.834060
C105	C	-0.532299	-0.990821	0.000033
C106	C	-0.282299	-0.740821	0.250033
C107	C	-0.032299	-0.490821	0.500033
C108	C	0.217701	-0.240821	0.750033
C109	C	-0.632852	-1.037298	-0.083971
C110	C	-0.382852	-0.787298	0.166029
C111	C	-0.132852	-0.537298	0.416029
C112	C	0.117148	-0.287298	0.666029
C113	C	-0.697210	-0.993732	0.000020
C114	C	-0.447210	-0.743732	0.250020
C115	C	-0.197210	-0.493732	0.500020
C116	C	0.052790	-0.243732	0.750020
C117	C	-0.596671	-0.947269	0.084134
C118	C	-0.346671	-0.697269	0.334134
C119	C	-0.096671	-0.447269	0.584134
C120	C	0.153329	-0.197269	0.834134
C121	C	-0.587507	-0.956388	-0.083973
C122	C	-0.337507	-0.706388	0.166027
C123	C	-0.087507	-0.456388	0.416027
C124	C	0.162493	-0.206388	0.666027
C125	C	-0.653087	-0.912802	0.000079
C126	C	-0.403087	-0.662802	0.250079
C127	C	-0.153087	-0.412802	0.500079
C128	C	0.096913	-0.162802	0.750079
C129	C	-0.437298	-0.989146	0.000042
C130	C	-0.187298	-0.739146	0.250042
C131	C	0.062702	-0.489146	0.500042
C132	C	0.312702	-0.239146	0.750042
C133	C	-0.792211	-0.995401	0.000019
C134	C	-0.542211	-0.745401	0.250019
C135	C	-0.292211	-0.495401	0.500019
C136	C	-0.042211	-0.245401	0.750019
C137	C	0.038813	-0.998399	0.000021
C138	C	0.288813	-0.748399	0.250021
C139	C	0.538813	-0.498399	0.500021
C140	C	0.788813	-0.248399	0.750021
C141	C	0.132059	-0.996738	0.000010
C142	C	0.382059	-0.746738	0.250010
C143	C	0.632059	-0.496738	0.500010
C144	C	0.882059	-0.246738	0.750010
N145	N	-0.129200	-0.977866	0.265554
N146	N	0.120800	-0.727866	0.515554
N147	N	0.370800	-0.477866	0.765554
N148	N	0.620800	-0.227866	1.015554
C149	C	-0.108607	-0.145847	0.000030
C150	C	0.141393	0.104153	0.250030
C151	C	0.391393	0.354153	0.500030
C152	C	0.641393	0.604153	0.750030
C153	C	-0.110279	-0.239093	0.000020
C154	C	0.139721	0.010907	0.250020
C155	C	0.389721	0.260907	0.500020
C156	C	0.639721	0.510907	0.750020
N157	N	-0.100310	-1.006691	-0.265493
N158	N	0.149690	-0.756691	-0.015493
N159	N	0.399690	-0.506691	0.234507
N160	N	0.649690	-0.256691	0.484507
C161	C	-0.140547	-0.966555	0.474597
C162	C	0.109453	-0.716555	0.724597
C163	C	0.359453	-0.466555	0.974597
C164	C	0.609453	-0.216555	1.224597
C165	C	-0.088965	-1.017999	0.525471
C166	C	0.161035	-0.767999	0.775471
C167	C	0.411035	-0.517999	1.025471
C168	C	0.661035	-0.267999	1.275471
C169	C	-0.095279	-1.011705	0.641790
C170	C	0.154721	-0.761705	0.891790
C171	C	0.404721	-0.511705	1.141790
C172	C	0.654721	-0.261705	1.391790
C173	C	-0.134234	-0.972848	0.358268
C174	C	0.115766	-0.722848	0.608268
C175	C	0.365766	-0.472848	0.858268
C176	C	0.615766	-0.222848	1.108268
H177	H	-0.263236	-0.525310	0.000107
H178	H	-0.013236	-0.275310	0.250107
H179	H	0.236764	-0.025310	0.500107
H180	H	0.486764	0.224690	0.750107
Br181	Br	-0.007811	-1.099640	0.452470
Br182	Br	0.242189	-0.849640	0.702470
Br183	Br	0.492189	-0.599640	0.952470
Br184	Br	0.742189	-0.349640	1.202470
H185	H	-0.196059	-0.421776	0.155104
H186	H	0.053941	-0.171776	0.405104
H187	H	0.303941	0.078224	0.655104
H188	H	0.553941	0.328224	0.905104
Br189	Br	-0.030798	-0.562441	0.202658
Br190	Br	0.219202	-0.312441	0.452658
Br191	Br	0.469202	-0.062441	0.702658
Br192	Br	0.719202	0.187559	0.952658
Br193	Br	-0.520873	-1.183634	0.000162
Br194	Br	-0.270873	-0.933634	0.250162
Br195	Br	-0.020873	-0.683634	0.500162
Br196	Br	0.229127	-0.433634	0.750162
Br197	Br	-0.681954	-1.078797	0.202465
Br198	Br	-0.431954	-0.828797	0.452465
Br199	Br	-0.181954	-0.578797	0.702465
Br200	Br	0.068046	-0.328797	0.952465
H201	H	-0.563523	-0.926056	-0.155020
H202	H	-0.313523	-0.676056	0.094980
H203	H	-0.063523	-0.426056	0.344980
H204	H	0.186477	-0.176056	0.594980
H205	H	-0.580557	-0.909217	0.155252
H206	H	-0.330557	-0.659217	0.405252
H207	H	-0.080557	-0.409217	0.655252
H208	H	0.169443	-0.159217	0.905252
Br209	Br	-0.708378	-0.800776	0.000140
Br210	Br	-0.458378	-0.550776	0.250140
Br211	Br	-0.208378	-0.300776	0.500140
Br212	Br	0.041622	-0.050776	0.750140
H213	H	-0.649069	-1.075387	-0.155009
H214	H	-0.399069	-0.825387	0.094991
H215	H	-0.149069	-0.575387	0.344991
H216	H	0.100931	-0.325387	0.594991
H217	H	0.033741	-0.459411	0.000120
H218	H	0.283741	-0.209411	0.250120
H219	H	0.533741	0.040589	0.500120
H220	H	0.783741	0.290589	0.750120
H221	H	-0.189447	-0.917790	0.518395
H222	H	0.060553	-0.667790	0.768395
H223	H	0.310553	-0.417790	1.018395
H224	H	0.560553	-0.167790	1.268395
H225	H	-0.179189	-0.438615	-0.155006
H226	H	0.070811	-0.188615	0.094994
H227	H	0.320811	0.061385	0.344994
H228	H	0.570811	0.311385	0.594994
Br229	Br	-0.008776	-0.584659	-0.202400
Br230	Br	0.241224	-0.334659	0.047600
Br231	Br	0.491224	-0.084659	0.297600
Br232	Br	0.741224	0.165341	0.547600
