data_functionalizedCrystal
_audit_creation_method	'MofGen! by Chris Wilmer'
_symmetry_space_group_name_H-M	'P1'
_symmetry_Int_Tables_number	1
_symmetry_cell_setting	triclinic
loop_
_symmetry_equiv_pos_as_xyz
  x,y,z
_cell_length_a	17.077404
_cell_length_b	13.897448
_cell_length_c	17.077396
_cell_angle_alpha	89.972632
_cell_angle_beta	89.980499
_cell_angle_gamma	90.017917
loop_
_atom_site_label
_atom_site_type_symbol
_atom_site_fract_x
_atom_site_fract_y
_atom_site_fract_z
Zn1	Zn	1.200083	-0.384009	-0.443849
Zn2	Zn	1.200002	-0.545322	-0.312585
Zn3	Zn	1.068815	-0.384043	-0.312597
Zn4	Zn	1.068795	-0.545264	-0.443809
O5	O	1.134424	-0.464660	-0.378210
O6	O	1.309919	-0.405417	-0.426448
O7	O	1.182574	-0.523966	-0.202740
O8	O	1.086270	-0.249057	-0.330029
O9	O	1.309860	-0.523933	-0.330010
O10	O	1.182712	-0.249032	-0.426459
O11	O	1.086192	-0.405475	-0.202748
O12	O	0.958965	-0.405420	-0.329990
O13	O	1.086236	-0.523835	-0.553661
O14	O	0.958950	-0.523868	-0.426391
O15	O	1.182693	-0.405362	-0.553690
O16	O	1.182555	-0.680296	-0.329971
O17	O	1.086157	-0.680254	-0.426380
C18	C	0.930476	-0.464642	-0.378188
C19	C	0.843226	-0.464658	-0.378198
C20	C	1.134366	-0.715274	-0.378187
C21	C	1.134414	-0.822488	-0.378204
C22	C	0.802249	-0.526427	-0.428313
C23	C	0.720268	-0.526429	-0.428326
C24	C	0.679267	-0.464666	-0.378218
C25	C	0.720250	-0.402890	-0.328100
C26	C	0.802229	-0.402884	-0.328092
C27	C	0.549380	-0.402909	-0.328119
C28	C	0.467395	-0.402916	-0.328126
C29	C	0.467419	-0.526454	-0.428353
C30	C	0.549398	-0.526448	-0.428345
C31	C	0.590376	-0.464673	-0.378226
C32	C	1.134496	-1.018783	-0.378253
C33	C	1.134448	-0.909550	-0.378228
C34	C	1.339168	-0.464678	-0.378232
C35	C	1.426418	-0.464686	-0.378242
C36	C	1.134471	-0.464588	-0.582954
C37	C	1.134491	-0.464558	-0.670204
C38	C	1.134502	-0.213067	-0.378250
C39	C	1.134536	-0.105853	-0.378267
C40	C	1.184718	-0.402864	-0.711211
C41	C	1.184728	-0.402832	-0.793191
C42	C	1.134514	-0.464500	-0.834164
C43	C	1.084281	-0.526197	-0.793151
C44	C	1.084268	-0.526223	-0.711172
C45	C	1.084313	-0.526139	-0.964021
C46	C	1.084326	-0.526114	-1.046006
C47	C	1.184772	-0.402747	-1.046040
C48	C	1.184759	-0.402774	-0.964061
C49	C	1.134528	-0.464472	-0.923055
C50	C	1.134421	-0.464661	-0.174262
C51	C	1.134553	-0.464419	-0.087013
H52	H	0.686908	-0.576729	-0.469134
C53	C	0.594460	-0.334955	-0.272993
C54	C	0.583214	-0.225310	-0.279557
C55	C	0.628297	-0.157360	-0.224432
C56	C	0.684625	-0.199055	-0.162743
C57	C	0.695873	-0.308705	-0.156176
C58	C	0.650791	-0.376655	-0.211301
H59	H	0.541514	-0.194440	-0.325225
H60	H	0.619969	-0.076190	-0.229293
H61	H	0.717997	-0.148754	-0.121936
H62	H	0.737573	-0.339575	-0.110508
H63	H	0.659118	-0.457826	-0.206440
H64	H	0.582779	-0.576746	-0.469142
H65	H	1.225671	-0.352508	-1.079432
H66	H	1.043393	-0.576404	-0.826517
H67	H	0.434051	-0.576751	-0.469164
C68	C	0.422291	-0.334950	-0.273031
C69	C	0.467360	-0.266975	-0.217922
C70	C	0.422256	-0.198997	-0.162835
C71	C	0.332082	-0.198995	-0.162857
C72	C	0.287008	-0.266973	-0.217967
C73	C	0.332112	-0.334951	-0.273054
H74	H	0.534117	-0.266974	-0.217905
H75	H	0.455623	-0.148675	-0.122039
H76	H	0.298693	-0.148674	-0.122078
H77	H	0.220251	-0.266974	-0.217985
H78	H	0.298745	-0.385272	-0.313851
C79	C	0.847309	-0.334936	-0.272966
C80	C	0.836060	-0.225293	-0.279533
C81	C	0.881140	-0.157339	-0.224409
C82	C	0.937468	-0.199028	-0.162718
C83	C	0.948720	-0.308678	-0.156149
C84	C	0.903640	-0.376632	-0.211272
H85	H	0.794359	-0.194426	-0.325203
H86	H	0.872810	-0.076169	-0.229273
H87	H	0.970839	-0.148725	-0.121912
H88	H	0.990420	-0.339544	-0.110479
H89	H	0.911969	-0.457802	-0.206409
C90	C	1.239955	-0.335027	-0.666145
C91	C	1.233583	-0.225367	-0.677434
C92	C	1.288820	-0.157526	-0.632370
C93	C	1.350429	-0.199344	-0.576017
C94	C	1.356804	-0.309009	-0.564725
C95	C	1.301567	-0.376851	-0.609789
H96	H	1.187974	-0.194406	-0.719151
H97	H	1.284100	-0.076344	-0.640729
H98	H	1.391318	-0.149124	-0.542658
H99	H	1.402413	-0.339971	-0.523007
H100	H	1.306287	-0.458033	-0.601430
C101	C	0.847346	-0.594369	-0.483434
C102	C	0.903741	-0.552663	-0.545115
C103	C	0.948836	-0.620604	-0.600240
C104	C	0.937536	-0.730250	-0.593683
C105	C	0.881139	-0.771961	-0.531999
C106	C	0.836044	-0.704020	-0.476875
H107	H	0.912108	-0.471492	-0.549971
H108	H	0.990585	-0.589726	-0.645903
H109	H	0.970918	-0.780544	-0.634490
H110	H	0.872771	-0.853133	-0.527143
H111	H	0.794295	-0.734898	-0.431212
C112	C	1.029119	-0.593981	-1.091078
C113	C	0.973882	-0.661867	-1.045976
C114	C	0.918689	-0.729754	-1.091048
C115	C	0.918732	-0.729754	-1.181222
C116	C	0.973971	-0.661866	-1.226329
C117	C	1.029164	-0.593979	-1.181257
H118	H	0.973848	-0.661869	-0.979220
H119	H	0.877797	-0.780009	-1.057657
H120	H	0.877875	-0.780008	-1.214587
H121	H	0.974005	-0.661864	-1.293085
H122	H	1.070056	-0.543723	-1.214648
H123	H	0.686860	-0.352597	-0.287305
C124	C	1.239980	-0.334965	-0.838295
C125	C	1.329212	-0.342853	-0.827039
C126	C	1.384465	-0.274979	-0.872140
C127	C	1.350486	-0.199217	-0.928498
C128	C	1.261249	-0.191326	-0.939756
C129	C	1.205996	-0.259200	-0.894655
H130	H	1.354370	-0.398939	-0.785318
H131	H	1.450525	-0.280821	-0.863806
H132	H	1.391388	-0.148973	-0.961885
H133	H	1.236092	-0.135239	-0.981478
H134	H	1.139937	-0.253358	-0.902990
C135	C	1.029065	-0.594009	-0.918906
C136	C	0.939830	-0.586140	-0.930153
C137	C	0.884590	-0.654013	-0.885034
C138	C	0.918585	-0.729755	-0.828668
C139	C	1.007824	-0.737627	-0.817418
C140	C	1.063064	-0.669754	-0.862537
H141	H	0.914661	-0.530069	-0.971880
H142	H	0.818530	-0.648185	-0.893362
H143	H	0.877693	-0.779998	-0.795268
H144	H	1.032993	-0.793698	-0.775690
H145	H	1.129125	-0.675582	-0.854209
H146	H	1.225653	-0.352564	-0.930704
H147	H	1.043360	-0.576451	-0.677786
