data_functionalizedCrystal
_audit_creation_method	'MofGen! by Chris Wilmer'
_symmetry_space_group_name_H-M	'P1'
_symmetry_Int_Tables_number	1
_symmetry_cell_setting	triclinic
loop_
_symmetry_equiv_pos_as_xyz
  x,y,z
_cell_length_a	11.792241
_cell_length_b	14.044190
_cell_length_c	10.868271
_cell_angle_alpha	89.990065
_cell_angle_beta	89.999893
_cell_angle_gamma	88.692597
loop_
_atom_site_label
_atom_site_type_symbol
_atom_site_fract_x
_atom_site_fract_y
_atom_site_fract_z
O1	O	1.519115	0.129987	-0.102217
O2	O	1.190032	0.143384	-0.102247
O3	O	1.349630	-0.001325	-0.102208
O4	O	1.359517	0.274696	-0.102256
O5	O	1.349615	-0.001331	0.102436
O6	O	1.190017	0.143378	0.102398
O7	O	1.519100	0.129981	0.102428
Zn8	Zn	1.354556	0.136679	0.134904
Zn9	Zn	1.354576	0.136686	-0.134724
O10	O	1.359502	0.274690	0.102389
C11	C	1.147655	0.142539	0.000072
C12	C	1.021404	0.140021	0.000061
C13	C	1.345297	-0.036664	0.000117
C14	C	1.332395	-0.141957	0.000127
C15	C	0.790257	0.135389	0.000097
C16	C	0.918884	0.137962	0.000078
C17	C	1.400312	-0.391894	0.000085
C18	C	1.308825	-0.334735	0.000085
C19	C	1.321943	-0.227463	0.000108
C20	C	1.387197	-0.499176	0.000062
C21	C	1.561478	0.130826	0.000106
C22	C	1.687728	0.133344	0.000109
C23	C	1.363835	0.310029	0.000061
C24	C	1.376737	0.415322	0.000043
N25	N	1.354551	0.136673	0.318919
N26	N	1.354589	0.136684	-0.318738
C27	C	1.354570	0.136684	0.569925
C28	C	1.354556	0.136681	0.430247
H29	H	1.220649	-0.366364	0.000070
H30	H	1.488481	-0.360267	0.000106
