data_functionalizedCrystal
_audit_creation_method	'MofGen! by Chris Wilmer'
_symmetry_space_group_name_H-M	'P1'
_symmetry_Int_Tables_number	1
_symmetry_cell_setting	triclinic
loop_
_symmetry_equiv_pos_as_xyz
  x,y,z
_cell_length_a	16.120530
_cell_length_b	16.120484
_cell_length_c	16.120256
_cell_angle_alpha	84.383827
_cell_angle_beta	89.871735
_cell_angle_gamma	90.167327
loop_
_atom_site_label
_atom_site_type_symbol
_atom_site_fract_x
_atom_site_fract_y
_atom_site_fract_z
Zn1	Zn	-1.224986	0.422281	-0.554816
Zn2	Zn	-0.724986	0.922281	-0.054816
Zn3	Zn	-1.224882	0.554961	-0.422121
Zn4	Zn	-0.724882	1.054961	0.077879
Zn5	Zn	-1.093725	0.408193	-0.408058
Zn6	Zn	-0.593725	0.908193	0.091942
Zn7	Zn	-1.078879	0.554198	-0.554054
Zn8	Zn	-0.578879	1.054198	-0.054054
O9	O	-1.155618	0.484908	-0.484762
O10	O	-0.655618	0.984908	0.015238
O11	O	-1.341008	0.446097	-0.543418
O12	O	-0.841008	0.946097	-0.043418
O13	O	-1.213653	0.529915	-0.303622
O14	O	-0.713653	1.029915	0.196378
O15	O	-1.117394	0.293431	-0.421960
O16	O	-0.617394	0.793431	0.078040
O17	O	-1.340931	0.543577	-0.445927
O18	O	-0.840931	1.043577	0.054073
O19	O	-1.213831	0.303782	-0.529783
O20	O	-0.713831	0.803782	-0.029783
O21	O	-1.117293	0.422085	-0.293290
O22	O	-0.617293	0.922085	0.206710
O23	O	-0.975720	0.421345	-0.421221
O24	O	-0.475720	0.921345	0.078779
O25	O	-1.092090	0.542275	-0.670788
O26	O	-0.592090	1.042275	-0.170788
O27	O	-0.964812	0.528614	-0.528483
O28	O	-0.464812	1.028614	-0.028483
O29	O	-1.199435	0.445357	-0.671349
O30	O	-0.699435	0.945357	-0.171349
O31	O	-1.199257	0.671491	-0.445188
O32	O	-0.699257	1.171491	0.054812
O33	O	-1.091989	0.670930	-0.542119
O34	O	-0.591989	1.170930	-0.042119
C35	C	-0.940179	0.473368	-0.473243
C36	C	-0.440179	0.973368	0.026757
C37	C	-0.848012	0.468453	-0.468336
C38	C	-0.348012	0.968453	0.031664
C39	C	-1.144022	0.701453	-0.495116
C40	C	-0.644022	1.201453	0.004884
C41	C	-1.139136	0.794098	-0.499577
C42	C	-0.639136	1.294098	0.000423
C43	C	-1.371898	0.496494	-0.496326
C44	C	-0.871898	0.996494	0.003674
C45	C	-1.464063	0.501431	-0.501254
C46	C	-0.964063	1.001431	-0.001254
C47	C	-0.679260	0.459459	-0.459384
C48	C	-0.179260	0.959459	0.040616
C49	C	-0.632809	0.510422	-0.510204
C50	C	-0.132809	1.010422	-0.010204
C51	C	-0.538910	0.505418	-0.505223
C52	C	-0.038910	1.005418	-0.005223
C53	C	-0.773168	0.464462	-0.464364
C54	C	-0.273168	0.964462	0.035636
C55	C	-1.144118	0.495303	-0.702156
C56	C	-0.644118	0.995303	-0.202156
C57	C	-1.139217	0.499732	-0.794796
C58	C	-0.639217	0.999732	-0.294796
C59	C	-1.167280	0.267520	-0.474388
C60	C	-0.667280	0.767520	0.025612
C61	C	-1.172250	0.174881	-0.469967
C62	C	-0.672250	0.674881	0.030033
C63	C	-1.130219	0.963721	-0.507739
C64	C	-0.630219	1.463721	-0.007739
C65	C	-1.181165	1.005263	-0.461807
C66	C	-0.681165	1.505263	0.038193
C67	C	-1.176203	1.099648	-0.466348
C68	C	-0.676203	1.599648	0.033652
C69	C	-1.135179	0.869328	-0.503199
C70	C	-0.635179	1.369328	-0.003199
C71	C	-1.181174	0.461788	-1.005960
C72	C	-0.681174	0.961788	-0.505960
C73	C	-1.130244	0.507783	-0.964402
C74	C	-0.630244	1.007783	-0.464402
C75	C	-1.135238	0.503302	-0.870024
C76	C	-0.635238	1.003302	-0.370024
C77	C	-1.176181	0.466268	-1.100346
C78	C	-0.676181	0.966268	-0.600346
C79	C	-1.167124	0.474497	-0.268214
C80	C	-0.667124	0.974497	0.231786
C81	C	-1.172198	0.469841	-0.175572
C82	C	-0.672198	0.969841	0.324428
H83	H	-0.648510	0.412073	-0.412137
H84	H	-0.148510	0.912073	0.087863
H85	H	-0.663562	0.557811	-0.557456
H86	H	-0.163562	1.057811	-0.057456
C87	C	-1.066264	0.565521	-1.012083
C88	C	-0.566264	1.065521	-0.512083
C89	C	-1.007259	0.618799	-0.964025
C90	C	-0.507259	1.118799	-0.464025
C91	C	-0.943279	0.676531	-1.011710
C92	C	-0.443279	1.176531	-0.511710
C93	C	-0.938304	0.680983	-1.107453
C94	C	-0.438304	1.180983	-0.607453
C95	C	-0.997312	0.627703	-1.155516
C96	C	-0.497312	1.127703	-0.655516
C97	C	-1.061292	0.569971	-1.107831
C98	C	-0.561292	1.069971	-0.607831
H99	H	-1.010939	0.615505	-0.893146
H100	H	-0.510939	1.115505	-0.393146
H101	H	-0.899597	0.715972	-0.976130
H102	H	-0.399597	1.215972	-0.476130
H103	H	-0.890942	0.723719	-1.142752
H104	H	-0.390942	1.223719	-0.642752
H105	H	-0.993631	0.630997	-1.226395
H106	H	-0.493631	1.130997	-0.726395
H107	H	-1.104973	0.530530	-1.143412
H108	H	-0.604973	1.030530	-0.643412
C109	C	-1.245115	0.957555	-0.404063
C110	C	-0.745115	1.457555	0.095937
C111	C	-1.250044	0.861805	-0.399535
C112	C	-0.750044	1.361805	0.100465
C113	C	-1.313987	0.814092	-0.341789
C114	C	-0.813987	1.314092	0.158211
C115	C	-1.373000	0.862130	-0.288570
C116	C	-0.873000	1.362130	0.211430
C117	C	-1.368072	0.957886	-0.293095
C118	C	-0.868072	1.457886	0.206905
C119	C	-1.304130	1.005599	-0.350842
C120	C	-0.804130	1.505599	0.149158
H121	H	-1.206358	0.826239	-0.438933
H122	H	-0.706358	1.326239	0.061067
H123	H	-1.317634	0.743207	-0.338439
H124	H	-0.817634	1.243207	0.161561
H125	H	-1.420334	0.826811	-0.245822
H126	H	-0.920334	1.326811	0.254178
H127	H	-1.411759	0.993452	-0.253698
H128	H	-0.911759	1.493452	0.246302
H129	H	-1.300482	1.076484	-0.354191
H130	H	-0.800482	1.576484	0.145809
H131	H	-1.082879	0.999038	-0.550470
H132	H	-0.582879	1.499038	-0.050470
C133	C	-1.245150	0.404055	-0.958279
C134	C	-0.745150	0.904055	-0.458279
C135	C	-1.250118	0.399609	-0.862537
C136	C	-0.750118	0.899609	-0.362537
C137	C	-1.314096	0.341881	-0.814844
C138	C	-0.814096	0.841881	-0.314844
C139	C	-1.373106	0.288600	-0.862895
C140	C	-0.873106	0.788600	-0.362895
C141	C	-1.368139	0.293044	-0.958643
C142	C	-0.868139	0.793044	-0.458643
C143	C	-1.304161	0.350772	-1.006335
C144	C	-0.804161	0.850772	-0.506335
H145	H	-1.206434	0.439052	-0.826962
H146	H	-0.706434	0.939052	-0.326962
H147	H	-1.317773	0.338591	-0.743965
H148	H	-0.817773	0.838591	-0.243965
H149	H	-1.420467	0.245866	-0.827590
H150	H	-0.920467	0.745866	-0.327590
H151	H	-1.411824	0.253600	-0.994218
H152	H	-0.911824	0.753600	-0.494218
H153	H	-1.300485	0.354061	-1.077215
H154	H	-0.800485	0.854061	-0.577215
