data_functionalizedCrystal
_audit_creation_method	'MofGen! by Chris Wilmer'
_symmetry_space_group_name_H-M	'P1'
_symmetry_Int_Tables_number	1
_symmetry_cell_setting	triclinic
loop_
_symmetry_equiv_pos_as_xyz
  x,y,z
_cell_length_a	10.654562
_cell_length_b	15.995292
_cell_length_c	9.130313
_cell_angle_alpha	89.999601
_cell_angle_beta	90.006034
_cell_angle_gamma	83.979360
loop_
_atom_site_label
_atom_site_type_symbol
_atom_site_fract_x
_atom_site_fract_y
_atom_site_fract_z
O1	O	1.666256	0.117654	0.121884
O2	O	1.300630	0.128847	0.121865
O3	O	1.493476	0.001418	0.121877
O4	O	1.473410	0.245083	0.121872
O5	O	1.493463	0.001419	-0.121722
O6	O	1.300617	0.128848	-0.121734
O7	O	1.666243	0.117654	-0.121715
Cu8	Cu	1.483429	0.123251	-0.143967
Cu9	Cu	1.483444	0.123251	0.144117
O10	O	1.473398	0.245083	-0.121727
C11	C	1.253837	0.128024	0.000063
C12	C	1.114427	0.125558	0.000056
C13	C	1.048905	0.124408	-0.132718
C14	C	0.917914	0.122098	-0.132693
C15	C	0.917978	0.122091	0.132891
C16	C	1.048968	0.124395	0.132865
C17	C	1.048866	0.124416	-0.286052
C18	C	0.917875	0.122105	-0.286027
C19	C	1.492653	-0.029782	0.000082
C20	C	1.490204	-0.122749	0.000092
C21	C	1.481204	-0.460540	0.000079
C22	C	1.620394	-0.436415	-0.000458
C23	C	1.623040	-0.339724	0.000096
C24	C	1.485670	-0.292958	0.000085
C25	C	1.416088	-0.322466	0.139183
C26	C	1.414413	-0.419266	0.139294
C27	C	1.411556	-0.419139	-0.137723
C28	C	1.416714	-0.322617	-0.139556
C29	C	1.488187	-0.198247	0.000093
C30	C	1.478683	-0.555251	0.000080
C31	C	1.713037	0.118478	0.000090
C32	C	1.852446	0.120944	0.000107
C33	C	1.474221	0.276284	0.000072
C34	C	1.476669	0.369251	0.000071
N35	N	1.483428	0.123251	-0.346589
C36	C	1.568856	0.066839	-0.576574
C37	C	1.568846	0.066844	-0.423237
C38	C	1.398023	0.179662	-0.423287
C39	C	1.398040	0.179660	-0.576621
C40	C	1.667476	0.001702	-0.576544
C41	C	1.667466	0.001707	-0.423207
N42	N	1.483456	0.123244	0.346740
H43	H	0.870812	0.179973	-0.344893
H44	H	0.864665	0.121145	0.241020
H45	H	1.677867	-0.321000	0.099987
H46	H	1.646869	-0.062651	-0.381595
H47	H	1.328481	0.225595	-0.360870
O48	O	1.473749	-0.298064	0.262590
C49	C	1.470445	-0.209721	0.264513
H50	H	1.459051	-0.184520	0.147950
H51	H	1.562154	-0.191196	0.313051
H52	H	1.387461	-0.182009	0.334092
O53	O	1.112418	0.125535	0.261973
C54	C	1.026553	0.123992	0.379191
H55	H	0.927969	0.148819	0.340288
H56	H	1.056450	0.165226	0.472070
H57	H	1.025809	0.056687	0.420003
H58	H	1.467380	-0.303755	-0.242460
O59	O	1.104942	0.055295	-0.356074
C60	C	1.075064	-0.017744	-0.283123
H61	H	1.048575	-0.001672	-0.164705
H62	H	1.160331	-0.067148	-0.285289
H63	H	0.992129	-0.043474	-0.340381
H64	H	1.077622	0.185483	-0.333629
O65	O	1.471799	-0.450820	0.263486
C66	C	1.406287	-0.415706	0.386785
H67	H	1.351249	-0.353362	0.355049
H68	H	1.476591	-0.404586	0.477040
H69	H	1.338050	-0.460776	0.427971
O70	O	0.883490	0.049210	-0.342538
C71	C	0.817169	0.007822	-0.235669
H72	H	0.843601	0.029751	-0.122029
H73	H	0.842930	-0.062963	-0.245163
H74	H	0.711349	0.023209	-0.253397
H75	H	1.312357	-0.434412	0.145588
O76	O	1.295545	-0.285050	0.145172
C77	C	1.272249	-0.231530	0.023302
H78	H	1.365504	-0.212629	-0.020210
H79	H	1.209104	-0.172861	0.057714
H80	H	1.223300	-0.265822	-0.066142
H81	H	1.455384	-0.446972	-0.243160
H82	H	1.677535	-0.320381	-0.099613
O83	O	1.631884	-0.070844	-0.633121
C84	C	1.508787	-0.081660	-0.585362
H85	H	1.487591	-0.044591	-0.480022
H86	H	1.501330	-0.151193	-0.564076
H87	H	1.437903	-0.057943	-0.673367
H88	H	1.758381	0.022096	-0.375627
H89	H	1.763803	0.016044	-0.618129
O90	O	1.684237	-0.469533	-0.119503
C91	C	1.603965	-0.514989	-0.204163
H92	H	1.524949	-0.534899	-0.132091
H93	H	1.660406	-0.573206	-0.251686
H94	H	1.561633	-0.473620	-0.297170
H95	H	1.673752	-0.465122	0.098741
H96	H	1.316447	-0.290232	-0.147965
O97	O	1.289376	-0.436646	-0.138671
C98	C	1.266839	-0.486027	-0.015410
H99	H	1.359856	-0.520087	0.024672
H100	H	1.199748	-0.534110	-0.046743
H101	H	1.222689	-0.443818	0.075511
O102	O	1.314972	0.234490	-0.650888
C103	C	1.239605	0.284296	-0.550359
H104	H	1.238177	0.249957	-0.441059
H105	H	1.139323	0.296458	-0.594692
H106	H	1.280370	0.346747	-0.534036
