data_functionalizedCrystal
_audit_creation_method	'MofGen! by Chris Wilmer'
_symmetry_space_group_name_H-M	'P1'
_symmetry_Int_Tables_number	1
_symmetry_cell_setting	triclinic
loop_
_symmetry_equiv_pos_as_xyz
  x,y,z
_cell_length_a	18.101395
_cell_length_b	11.169417
_cell_length_c	11.169409
_cell_angle_alpha	89.980176
_cell_angle_beta	90.035674
_cell_angle_gamma	89.968017
loop_
_atom_site_label
_atom_site_type_symbol
_atom_site_fract_x
_atom_site_fract_y
_atom_site_fract_z
Zn1	Zn	-0.294752	-1.834789	0.678515
Zn2	Zn	0.205248	-1.334789	1.178515
Zn3	Zn	-0.418619	-1.834606	0.477820
Zn4	Zn	0.081381	-1.334606	0.977820
Zn5	Zn	-0.294797	-1.634075	0.477849
Zn6	Zn	0.205203	-1.134075	0.977849
Zn7	Zn	-0.418558	-1.634010	0.678465
Zn8	Zn	0.081442	-1.134010	1.178465
O9	O	-0.356682	-1.734370	0.578162
O10	O	0.143318	-1.234370	1.078162
O11	O	-0.311190	-2.002715	0.651901
O12	O	0.188810	-1.502715	1.151901
O13	O	-0.402238	-1.807956	0.309874
O14	O	0.097762	-1.307956	0.809874
O15	O	-0.191159	-1.660804	0.504501
O16	O	0.308841	-1.160804	1.004501
O17	O	-0.402194	-2.002580	0.504451
O18	O	0.097806	-1.502580	1.004451
O19	O	-0.191125	-1.808268	0.651929
O20	O	0.308875	-1.308268	1.151929
O21	O	-0.311267	-1.660626	0.309896
O22	O	0.188733	-1.160626	0.809896
O23	O	-0.311208	-1.466117	0.504453
O24	O	0.188792	-0.966117	1.004453
O25	O	-0.402091	-1.660693	0.846421
O26	O	0.097909	-1.160693	1.346421
O27	O	-0.402135	-1.466069	0.651844
O28	O	0.097865	-0.966069	1.151844
O29	O	-0.311131	-1.808205	0.846458
O30	O	0.188869	-1.308205	1.346458
O31	O	-0.522244	-1.807892	0.504403
O32	O	-0.022244	-1.307892	1.004403
O33	O	-0.522199	-1.660515	0.651816
O34	O	-0.022199	-1.160515	1.151816
C35	C	-0.356670	-1.422545	0.578147
C36	C	0.143330	-0.922545	1.078147
C37	C	-0.356684	-1.289145	0.578169
C38	C	0.143316	-0.789145	1.078169
C39	C	-0.356599	-1.734462	0.891205
C40	C	0.143401	-1.234462	1.391205
C41	C	-0.356564	-1.734501	1.024605
C42	C	0.143436	-1.234501	1.524605
C43	C	-0.549092	-1.734209	0.578127
C44	C	-0.049092	-1.234209	1.078127
C45	C	-0.631406	-1.734250	0.578152
C46	C	-0.131406	-1.234250	1.078152
C47	C	-0.930497	-1.734514	0.578217
C48	C	-0.430497	-1.234514	1.078217
C49	C	-0.899175	-1.642003	0.671195
C50	C	-0.399175	-1.142003	1.171195
C51	C	-0.813557	-1.641564	0.670904
C52	C	-0.313557	-1.141564	1.170904
C53	C	-0.782115	-1.734383	0.578186
C54	C	-0.282115	-1.234383	1.078186
C55	C	-0.813278	-1.700132	0.451699
C56	C	-0.313278	-1.200132	0.951699
C57	C	-0.898923	-1.699535	0.452255
C58	C	-0.398923	-1.199535	0.952255
C59	C	-0.898837	-1.861478	0.610612
C60	C	-0.398837	-1.361478	1.110612
C61	C	-0.813186	-1.860732	0.613386
C62	C	-0.313186	-1.360732	1.113386
C63	C	-0.698255	-1.734311	0.578160
C64	C	-0.198255	-1.234311	1.078160
C65	C	-1.014357	-1.734583	0.578234
C66	C	-0.514357	-1.234583	1.078234
C67	C	-0.163520	-1.734564	0.578224
C68	C	0.336480	-1.234564	1.078224
C69	C	-0.081206	-1.734647	0.578250
C70	C	0.418794	-1.234647	1.078250
C71	C	-0.356694	-2.047412	0.578178
C72	C	0.143306	-1.547412	1.078178
C73	C	-0.356699	-2.180812	0.578185
C74	C	0.143301	-1.680812	1.078185
C75	C	-0.356710	-1.734347	0.266338
C76	C	0.143290	-1.234347	0.766338
C77	C	-0.356537	-1.734541	0.132938
C78	C	0.143463	-1.234541	0.632938
H79	H	-0.792484	-1.662994	0.764693
H80	H	-0.292484	-1.162994	1.264693
H81	H	-0.919714	-1.663221	0.765288
H82	H	-0.419714	-1.163221	1.265288
H83	H	-0.920764	-1.548466	0.650008
H84	H	-0.420764	-1.048466	1.150008
F85	F	-0.786662	-1.785429	0.358678
F86	F	-0.286662	-1.285429	0.858678
H87	H	-0.920376	-1.892704	0.701273
H88	H	-0.420376	-1.392704	1.201273
H89	H	-0.793137	-1.547455	0.649447
H90	H	-0.293137	-1.047455	1.149447
H91	H	-0.918969	-1.606724	0.424813
H92	H	-0.418969	-1.106724	0.924813
F93	F	-0.786559	-1.894496	0.735058
F94	F	-0.286559	-1.394496	1.235058
H95	H	-0.919092	-1.930402	0.542892
H96	H	-0.419092	-1.430402	1.042892
F97	F	-0.785335	-1.580104	0.415185
F98	F	-0.285335	-1.080104	0.915185
F99	F	-0.926012	-1.783774	0.358613
F100	F	-0.426012	-1.283774	0.858613
F101	F	-0.785200	-1.955594	0.531328
F102	F	-0.285200	-1.455594	1.031328
