data_functionalizedCrystal
_audit_creation_method	'MofGen! by Chris Wilmer'
_symmetry_space_group_name_H-M	'P1'
_symmetry_Int_Tables_number	1
_symmetry_cell_setting	triclinic
loop_
_symmetry_equiv_pos_as_xyz
  x,y,z
_cell_length_a	10.489746
_cell_length_b	10.489741
_cell_length_c	13.330367
_cell_angle_alpha	89.995673
_cell_angle_beta	89.995373
_cell_angle_gamma	84.540238
loop_
_atom_site_label
_atom_site_type_symbol
_atom_site_fract_x
_atom_site_fract_y
_atom_site_fract_z
O1	O	1.694056	0.179999	-0.083355
O2	O	1.322861	0.196885	-0.083372
O3	O	1.516905	0.002844	-0.083357
O4	O	1.500012	0.374039	-0.083370
O5	O	1.516876	0.002839	0.083490
O6	O	1.322832	0.196880	0.083475
O7	O	1.694027	0.179994	0.083492
Cu8	Cu	1.508427	0.188437	0.098718
Cu9	Cu	1.508461	0.188442	-0.098598
O10	O	1.499983	0.374035	0.083477
C11	C	1.275315	0.195606	0.000049
C12	C	1.133686	0.191786	0.000043
C13	C	1.515614	-0.044690	0.000065
C14	C	1.511797	-0.186320	0.000063
C15	C	0.980828	0.066062	0.000061
C16	C	1.058208	0.128917	0.082321
C17	C	1.058191	0.128951	-0.082177
C18	C	0.958716	0.247898	0.082395
C19	C	0.958694	0.247915	-0.082177
C20	C	1.036025	0.310856	0.000102
C21	C	1.388333	-0.254462	0.000051
C22	C	1.446642	-0.346586	0.082317
C23	C	1.446700	-0.346556	-0.082181
C24	C	1.570158	-0.276578	0.082398
C25	C	1.570198	-0.276538	-0.082174
C26	C	1.628597	-0.368635	0.000113
C27	C	1.741573	0.181273	0.000068
C28	C	1.883202	0.185093	0.000068
C29	C	1.501273	0.421569	0.000052
C30	C	1.505091	0.563198	0.000047
N31	N	1.508413	0.188432	0.237499
N32	N	1.508485	0.188437	-0.237380
C33	C	1.422534	0.274329	0.710116
C34	C	1.594422	0.102545	0.710097
C35	C	1.594407	0.102541	0.605078
C36	C	1.508456	0.188434	0.552574
C37	C	1.422520	0.274330	0.605088
C38	C	1.680351	0.016655	0.552557
C39	C	1.680341	0.016648	0.447532
C40	C	1.594383	0.102536	0.395025
C41	C	1.508442	0.188435	0.447546
C42	C	1.422491	0.274327	0.395041
C43	C	1.336542	0.360221	0.447559
C44	C	1.336561	0.360218	0.552581
C45	C	1.594364	0.102540	0.290004
C46	C	1.422476	0.274329	0.290013
H47	H	0.956107	-0.037439	0.000148
Br48	Br	1.359558	-0.398278	0.198235
Br49	Br	1.130646	0.045170	0.198246
Br50	Br	1.797939	-0.451013	0.000190
H51	H	0.915425	0.298111	0.152020
H52	H	1.060501	0.414436	0.000144
H53	H	0.915206	0.298120	-0.151730
Br54	Br	1.219911	0.476798	0.376292
H55	H	1.101646	0.078681	-0.151723
Br56	Br	1.797007	-0.099898	0.623809
Br57	Br	1.657219	-0.224787	-0.198096
Br58	Br	1.359612	-0.398202	-0.198095
Br59	Br	1.657141	-0.225202	0.198449
H60	H	1.286821	-0.204813	0.000129
Br61	Br	1.305812	0.390893	0.218765
H62	H	1.266587	0.430151	0.595348
H63	H	1.352553	0.344260	0.752879
H64	H	1.664407	0.032620	0.752849
Br65	Br	1.796978	-0.099919	0.376263
Br66	Br	1.711010	-0.014010	0.218735
