data_functionalizedCrystal
_audit_creation_method	'MofGen! by Chris Wilmer'
_symmetry_space_group_name_H-M	'P1'
_symmetry_Int_Tables_number	1
_symmetry_cell_setting	triclinic
loop_
_symmetry_equiv_pos_as_xyz
  x,y,z
_cell_length_a	8.559649
_cell_length_b	10.654551
_cell_length_c	7.681481
_cell_angle_alpha	84.205011
_cell_angle_beta	94.913240
_cell_angle_gamma	77.132013
loop_
_atom_site_label
_atom_site_type_symbol
_atom_site_fract_x
_atom_site_fract_y
_atom_site_fract_z
O1	O	2.104699	-0.029228	-0.146402
O2	O	1.640213	0.035559	-0.146408
O3	O	1.883134	-0.180676	-0.146406
O4	O	1.861777	0.187008	-0.146404
O5	O	1.913033	-0.207345	0.146452
O6	O	1.670112	0.008891	0.146450
O7	O	2.134598	-0.055896	0.146456
Zn8	Zn	1.907102	-0.027737	0.192951
Zn9	Zn	1.867709	0.007400	-0.192902
O10	O	1.891676	0.160339	0.146454
C11	C	1.595687	0.027135	0.000020
C12	C	1.418468	0.041749	0.000018
C13	C	1.896515	-0.240646	0.000019
C14	C	1.891821	-0.379604	0.000007
C15	C	1.873322	-0.430351	-0.159626
C16	C	1.868899	-0.560916	-0.159618
C17	C	1.901484	-0.589975	0.159672
C18	C	1.905894	-0.459411	0.159662
C19	C	1.859248	-0.350544	-0.319281
C20	C	1.840749	-0.401291	-0.478927
C21	C	1.836327	-0.531855	-0.478919
C22	C	1.850404	-0.611672	-0.319264
C23	C	2.179123	-0.047472	0.000024
C24	C	2.356341	-0.062085	0.000015
C25	C	1.878295	0.220310	0.000025
C26	C	1.882988	0.359268	0.000025
N27	N	1.933998	-0.051719	0.456285
N28	N	1.840825	0.031371	-0.456237
H29	H	1.438727	-0.162162	0.000006
Cl30	Cl	1.291264	0.196277	0.000001
Cl31	Cl	1.929161	-0.395610	0.360348
Cl32	Cl	2.080872	-0.182659	0.572389
H33	H	1.862851	-0.244231	-0.319305
H34	H	1.829274	-0.336293	-0.608912
H35	H	1.821248	-0.573166	-0.608911
H36	H	1.912945	-0.654972	0.289655
Cl37	Cl	1.844828	-0.775808	-0.319261
H38	H	1.745713	0.116182	0.468566
