data_functionalizedCrystal
_audit_creation_method	'MofGen! by Chris Wilmer'
_symmetry_space_group_name_H-M	'P1'
_symmetry_Int_Tables_number	1
_symmetry_cell_setting	triclinic
loop_
_symmetry_equiv_pos_as_xyz
  x,y,z
_cell_length_a	19.805407
_cell_length_b	12.759400
_cell_length_c	12.759393
_cell_angle_alpha	90.031564
_cell_angle_beta	89.977368
_cell_angle_gamma	89.985315
loop_
_atom_site_label
_atom_site_type_symbol
_atom_site_fract_x
_atom_site_fract_y
_atom_site_fract_z
Zn1	Zn	1.034811	0.418204	-0.594097
Zn2	Zn	1.534811	0.918204	-0.094097
Zn3	Zn	1.034743	0.593923	-0.418417
Zn4	Zn	1.534743	1.093923	0.081583
Zn5	Zn	0.921620	0.418259	-0.418424
Zn6	Zn	1.421620	0.918259	0.081576
Zn7	Zn	0.921613	0.593842	-0.594046
Zn8	Zn	1.421613	1.093842	-0.094046
O9	O	0.978197	0.506057	-0.506246
O10	O	1.478197	1.006057	-0.006246
O11	O	1.129519	0.441525	-0.570812
O12	O	1.629519	0.941525	-0.070812
O13	O	1.019712	0.570678	-0.271397
O14	O	1.519712	1.070678	0.228603
O15	O	0.936666	0.271231	-0.441752
O16	O	1.436666	0.771231	0.058248
O17	O	1.129469	0.570625	-0.441740
O18	O	1.629469	1.070625	0.058260
O19	O	1.019828	0.271190	-0.570818
O20	O	1.519828	0.771190	-0.070818
O21	O	0.936601	0.441618	-0.271402
O22	O	1.436601	0.941618	0.228598
O23	O	0.826902	0.441539	-0.441702
O24	O	1.326902	0.941539	0.058298
O25	O	0.936654	0.570486	-0.741074
O26	O	1.436654	1.070486	-0.241074
O27	O	0.826897	0.570539	-0.570731
O28	O	1.326897	1.070539	-0.070731
O29	O	1.019821	0.441446	-0.741112
O30	O	1.519821	0.941446	-0.241112
O31	O	1.019705	0.740933	-0.441691
O32	O	1.519705	1.240933	0.058309
O33	O	0.936588	0.740874	-0.570725
O34	O	1.436588	1.240874	-0.070725
C35	C	0.802341	0.506037	-0.506212
C36	C	1.302341	1.006037	-0.006212
C37	C	0.727109	0.506054	-0.506223
C38	C	1.227109	1.006054	-0.006223
C39	C	0.978157	0.779024	-0.506224
C40	C	1.478157	1.279024	-0.006224
C41	C	0.978201	0.895801	-0.506250
C42	C	1.478201	1.395801	-0.006250
C43	C	0.978244	0.505951	-0.780280
C44	C	1.478244	1.005951	-0.280280
C45	C	0.978264	0.505906	-0.897056
C46	C	1.478264	1.005906	-0.397056
C47	C	0.691780	0.573325	-0.573299
C48	C	1.191780	1.073325	-0.073299
C49	C	0.621091	0.573327	-0.573314
C50	C	1.121091	1.073327	-0.073314
C51	C	0.585733	0.506062	-0.506246
C52	C	1.085733	1.006062	-0.006246
C53	C	0.621067	0.438783	-0.439167
C54	C	1.121067	0.938783	0.060833
C55	C	0.691754	0.438777	-0.439158
C56	C	1.191754	0.938777	0.060842
C57	C	0.335994	0.438806	-0.439201
C58	C	0.835994	0.938806	0.060799
C59	C	0.265302	0.438820	-0.439213
C60	C	0.765302	0.938820	0.060787
C61	C	0.265331	0.573356	-0.573357
C62	C	0.765331	1.073356	-0.073357
C63	C	0.336018	0.573350	-0.573349
C64	C	0.836018	1.073350	-0.073349
C65	C	0.371346	0.506068	-0.506274
C66	C	0.871346	1.006068	-0.006274
C67	C	0.447994	0.506065	-0.506260
C68	C	0.947994	1.006065	-0.006260
C69	C	0.509086	0.506069	-0.506254
C70	C	1.009086	1.006069	-0.006254
C71	C	1.154739	0.506078	-0.506281
C72	C	1.654739	1.006078	-0.006281
C73	C	1.229971	0.506087	-0.506296
C74	C	1.729971	1.006087	-0.006296
C75	C	0.978256	0.232024	-0.506291
C76	C	1.478256	0.732024	-0.006291
C77	C	0.978281	0.115247	-0.506310
C78	C	1.478281	0.615247	-0.006310
C79	C	1.021528	0.950659	-0.439137
C80	C	1.521528	1.450659	0.060863
C81	C	1.021570	1.060383	-0.439169
C82	C	1.521570	1.560383	0.060831
C83	C	0.934952	1.060381	-0.573431
C84	C	1.434952	1.560381	-0.073431
C85	C	0.934914	0.950659	-0.573403
C86	C	1.434914	1.450659	-0.073403
C87	C	1.071534	0.950661	-0.361618
C88	C	1.571534	1.450661	0.138382
C89	C	1.071576	1.060385	-0.361650
C90	C	1.571576	1.560385	0.138350
C91	C	1.021575	0.438708	-0.951940
C92	C	1.521575	0.938708	-0.451940
C93	C	1.021591	0.438670	-1.061664
C94	C	1.521591	0.938670	-0.561664
C95	C	0.934984	0.573037	-1.061612
C96	C	1.434984	1.073037	-0.561612
C97	C	0.934965	0.573068	-0.951890
C98	C	1.434965	1.073068	-0.451890
C99	C	1.071579	0.361136	-0.951971
C100	C	1.571579	0.861136	-0.451971
C101	C	1.071595	0.361098	-1.061695
C102	C	1.571595	0.861098	-0.561695
C103	C	0.978188	0.506087	-0.233279
C104	C	1.478188	1.006087	0.266721
C105	C	0.978299	0.505836	-0.116503
C106	C	1.478299	1.005836	0.383497
H107	H	0.720563	0.628104	-0.627910
H108	H	1.220563	1.128104	-0.127910
H109	H	0.592329	0.628107	-0.627934
H110	H	1.092329	1.128107	-0.127934
F111	F	0.888904	0.644511	-1.119978
F112	F	1.388904	1.144511	-0.619978
H113	H	1.057572	1.090248	-0.280268
H114	H	1.557572	1.590248	0.219732
H115	H	1.057555	0.279772	-0.922213
H116	H	1.557555	0.779772	-0.422213
H117	H	0.364750	0.384029	-0.384577
H118	H	0.864750	0.884029	0.115423
H119	H	0.364803	0.628128	-0.627959
H120	H	0.864803	1.128128	-0.127959
F121	F	0.227726	0.644964	-0.644747
F122	F	0.727726	1.144964	-0.144747
H123	H	0.720519	0.383992	-0.384543
H124	H	1.220519	0.883992	0.115457
F125	F	0.583435	0.367187	-0.367794
F126	F	1.083435	0.867187	0.132206
F127	F	1.140029	0.911630	-0.390187
F128	F	1.640029	1.411630	0.109813
F129	F	0.888809	0.892279	-0.644849
F130	F	1.388809	1.392279	-0.144849
H131	H	0.236515	0.384038	-0.384598
H132	H	0.736515	0.884038	0.115402
F133	F	0.888886	1.118774	-0.644898
F134	F	1.388886	1.618774	-0.144898
H135	H	1.121361	0.390305	-0.917940
H136	H	1.621361	0.890305	-0.417940
F137	F	1.140115	0.389570	-1.100630
F138	F	1.640115	0.889570	-0.600630
H139	H	1.052839	0.283789	-1.095741
H140	H	1.552839	0.783789	-0.595741
F141	F	0.888858	0.644574	-0.893482
F142	F	1.388858	1.144574	-0.393482
F143	F	1.046997	0.906284	-0.260553
F144	F	1.546997	1.406284	0.239447
H145	H	1.121378	1.094330	-0.390868
H146	H	1.621378	1.594330	0.109132
