data_functionalizedCrystal
_audit_creation_method	'MofGen! by Chris Wilmer'
_symmetry_space_group_name_H-M	'P1'
_symmetry_Int_Tables_number	1
_symmetry_cell_setting	triclinic
loop_
_symmetry_equiv_pos_as_xyz
  x,y,z
_cell_length_a	10.967926
_cell_length_b	23.532357
_cell_length_c	9.482900
_cell_angle_alpha	99.268091
_cell_angle_beta	92.549900
_cell_angle_gamma	83.791997
loop_
_atom_site_label
_atom_site_type_symbol
_atom_site_fract_x
_atom_site_fract_y
_atom_site_fract_z
O1	O	1.608976	0.100502	0.282181
O2	O	1.259748	0.101751	0.194685
O3	O	1.444919	0.018460	0.241108
O4	O	1.423804	0.183793	0.235758
O5	O	1.407306	0.035449	0.473470
O6	O	1.222134	0.118740	0.427047
O7	O	1.571363	0.117492	0.514544
Cu8	Cu	1.393314	0.119667	0.492012
Cu9	Cu	1.437796	0.099575	0.217216
O10	O	1.386191	0.200783	0.468120
C11	C	1.196270	0.108871	0.299675
C12	C	1.063167	0.104768	0.266328
C13	C	0.984341	0.111740	0.371832
C14	C	0.846771	0.107500	0.337369
C15	C	1.425584	0.005725	0.357161
C16	C	1.423993	-0.057532	0.356776
C17	C	1.434535	-0.459060	0.227541
C18	C	1.433026	-0.518498	0.227155
O19	O	1.449642	-0.557111	0.119229
N20	N	1.411774	-0.538967	0.353626
C21	C	1.392018	-0.499994	0.480489
O22	O	1.373802	-0.522863	0.588028
C23	C	1.393519	-0.440557	0.480872
C24	C	1.414784	-0.420092	0.354395
C25	C	1.455797	-0.438595	0.101074
C26	C	1.457308	-0.379161	0.101462
C27	C	1.437557	-0.340193	0.228316
C28	C	1.416295	-0.360659	0.354783
C29	C	1.373754	-0.401585	0.607732
C30	C	1.375255	-0.342145	0.608103
C31	C	1.396520	-0.321680	0.481626
C32	C	1.398054	-0.262257	0.482024
N33	N	1.419306	-0.241788	0.355553
C34	C	1.439057	-0.280756	0.228699
C35	C	1.388867	-0.624817	0.479676
C36	C	1.387374	-0.684253	0.479297
C37	C	1.428380	-0.702753	0.225961
C38	C	1.429881	-0.643316	0.226344
C39	C	1.410118	-0.604348	0.353204
C40	C	1.442230	-0.155940	0.229522
C41	C	1.443744	-0.096500	0.229922
C42	C	1.402732	-0.078006	0.483255
C43	C	1.401224	-0.137440	0.482858
C44	C	1.420971	-0.176407	0.355979
O45	O	1.381444	-0.223610	0.589894
O46	O	1.457255	-0.257878	0.121175
C47	C	1.634840	0.110371	0.409551
C48	C	1.767945	0.114473	0.442888
C49	C	1.405527	0.213517	0.352064
C50	C	1.407119	0.276774	0.352440
N51	N	1.362036	0.133799	0.685291
N52	N	1.469084	0.085439	0.023940
C53	C	1.428562	0.103740	0.774168
C54	C	1.402548	0.115502	0.935064
H55	H	1.018702	0.120845	0.487671
H56	H	1.359144	-0.310418	0.711406
H57	H	1.285817	0.168239	0.728312
H58	H	1.471878	-0.470317	-0.002232
F59	F	1.381715	-0.036523	0.618256
F60	F	0.801874	0.095591	0.185948
F61	F	1.302916	0.160521	0.991283
F62	F	1.452512	-0.621541	0.091731
F63	F	1.449394	-0.744236	0.090948
H64	H	0.802298	0.123580	0.558736
H65	H	1.458304	-0.187660	0.126204
H66	H	1.370077	-0.700910	0.582291
H67	H	1.474620	-0.362504	-0.001530
F68	F	1.018264	0.092859	0.114914
H69	H	1.545299	0.050993	0.980923
H70	H	1.461064	-0.079842	0.126926
H71	H	1.372776	-0.593091	0.582988
F72	F	1.351115	-0.423352	0.742347
H73	H	1.383919	-0.154104	0.585848
H74	H	1.504774	0.069295	0.731147
