data_functionalizedCrystal
_audit_creation_method	'MofGen! by Chris Wilmer'
_symmetry_space_group_name_H-M	'P1'
_symmetry_Int_Tables_number	1
_symmetry_cell_setting	triclinic
loop_
_symmetry_equiv_pos_as_xyz
  x,y,z
_cell_length_a	10.654550
_cell_length_b	10.654559
_cell_length_c	9.130313
_cell_angle_alpha	90.001323
_cell_angle_beta	89.996220
_cell_angle_gamma	84.486794
loop_
_atom_site_label
_atom_site_type_symbol
_atom_site_fract_x
_atom_site_fract_y
_atom_site_fract_z
O1	O	1.667840	0.176392	-0.121911
O2	O	1.302362	0.193198	-0.121886
O3	O	1.493498	0.002057	-0.121899
O4	O	1.476704	0.367534	-0.121898
O5	O	1.493496	0.002062	0.121700
O6	O	1.302360	0.193204	0.121713
O7	O	1.667838	0.176397	0.121688
Cu8	Cu	1.485098	0.184801	0.143943
Cu9	Cu	1.485101	0.184795	-0.144141
O10	O	1.476702	0.367539	0.121701
C11	C	1.255563	0.191967	-0.000084
C12	C	1.116119	0.188275	-0.000075
C13	C	1.036637	0.300816	-0.000096
C14	C	0.905616	0.297340	-0.000121
C15	C	0.933572	0.068771	-0.000111
C16	C	1.064591	0.072249	-0.000075
C17	C	1.020496	0.432779	-0.000109
C18	C	0.889475	0.429302	-0.000134
C19	C	1.492261	-0.044738	-0.000103
C20	C	1.488565	-0.184181	-0.000112
C21	C	1.372552	-0.235721	-0.000108
C22	C	1.369087	-0.366743	-0.000096
C23	C	1.597656	-0.394675	-0.000099
C24	C	1.601120	-0.263655	-0.000100
C25	C	1.240590	-0.219595	-0.000112
C26	C	1.237124	-0.350618	-0.000101
C27	C	1.714637	0.177629	-0.000117
C28	C	1.854080	0.181321	-0.000136
C29	C	1.477938	0.414334	-0.000099
C30	C	1.481635	0.553777	-0.000099
N31	N	1.485106	0.184805	0.346565
N32	N	1.485104	0.184781	-0.346764
C33	C	1.569762	0.100196	0.423212
C34	C	1.569759	0.100181	0.576549
C35	C	1.400438	0.269394	0.576579
C36	C	1.400436	0.269402	0.423245
C37	C	1.667523	0.002506	0.423195
C38	C	1.667519	0.002491	0.576532
H39	H	0.843804	0.469185	0.105034
H40	H	1.200724	-0.173956	-0.105292
N41	N	1.726255	-0.208079	-0.000098
H42	H	1.732799	-0.154346	-0.090401
H43	H	1.732709	-0.154403	0.090263
H44	H	1.195071	-0.386242	0.105072
H45	H	0.847745	0.479021	-0.102087
N46	N	1.067752	0.488447	-0.139399
H47	H	1.129020	0.424114	-0.189611
H48	H	0.994150	0.512794	-0.206629
H49	H	1.689294	-0.459399	-0.000089
H50	H	1.190858	-0.177845	0.101830
H51	H	1.758707	0.033094	0.375631
H52	H	1.331491	0.338286	0.360841
H53	H	1.129301	-0.019393	-0.000037
N54	N	0.878002	-0.056370	-0.000126
H55	H	0.906896	-0.105721	0.090183
H56	H	0.782951	-0.041400	-0.000204
N57	N	1.168781	-0.389540	-0.135130
H58	H	1.140790	-0.312406	-0.195399
H59	H	1.227255	-0.449405	-0.195264
N60	N	1.309116	0.360631	0.659284
H61	H	1.321958	0.347786	0.768052
H62	H	1.324392	0.449867	0.632495
N63	N	1.639120	-0.125355	0.368048
H64	H	1.626437	-0.182419	0.454037
H65	H	1.559983	-0.115867	0.306560
H66	H	1.764031	0.024009	0.618142
N67	N	1.059364	0.501154	0.134921
H68	H	0.982208	0.529151	0.195161
H69	H	1.119216	0.442702	0.195087
N70	N	1.627134	-0.118354	0.639522
H71	H	1.538874	-0.130187	0.605396
H72	H	1.686946	-0.191801	0.605343
