data_functionalizedCrystal
_audit_creation_method	'MofGen! by Chris Wilmer'
_symmetry_space_group_name_H-M	'P1'
_symmetry_Int_Tables_number	1
_symmetry_cell_setting	triclinic
loop_
_symmetry_equiv_pos_as_xyz
  x,y,z
_cell_length_a	18.215407
_cell_length_b	12.594516
_cell_length_c	18.215399
_cell_angle_alpha	89.977475
_cell_angle_beta	89.980650
_cell_angle_gamma	90.016501
loop_
_atom_site_label
_atom_site_type_symbol
_atom_site_fract_x
_atom_site_fract_y
_atom_site_fract_z
Zn1	Zn	1.125114	-0.423736	-0.416146
Zn2	Zn	1.458447	-0.090403	-0.082812
Zn3	Zn	1.791780	0.242931	0.250521
Zn4	Zn	1.125042	-0.601735	-0.293092
Zn5	Zn	1.458375	-0.268401	0.040241
Zn6	Zn	1.791709	0.064932	0.373575
Zn7	Zn	1.002047	-0.423772	-0.293093
Zn8	Zn	1.335381	-0.090439	0.040240
Zn9	Zn	1.668714	0.242895	0.373574
Zn10	Zn	1.002031	-0.601674	-0.416117
Zn11	Zn	1.335364	-0.268341	-0.082784
Zn12	Zn	1.668698	0.064993	0.250550
O13	O	1.063558	-0.512729	-0.354612
O14	O	1.396892	-0.179396	-0.021279
O15	O	1.730225	0.153937	0.312055
O16	O	1.228088	-0.447358	-0.399834
O17	O	1.561422	-0.114025	-0.066501
O18	O	1.894755	0.219309	0.266833
O19	O	1.108703	-0.578168	-0.190108
O20	O	1.442037	-0.244835	0.143225
O21	O	1.775370	0.088499	0.476559
O22	O	1.018409	-0.274821	-0.309429
O23	O	1.351742	0.058512	0.023904
O24	O	1.685076	0.391845	0.357238
O25	O	1.228036	-0.578133	-0.309427
O26	O	1.561369	-0.244800	0.023906
O27	O	1.894702	0.088534	0.357240
O28	O	1.108825	-0.274795	-0.399835
O29	O	1.442159	0.058538	-0.066502
O30	O	1.775492	0.391872	0.266832
O31	O	1.018340	-0.447420	-0.190109
O32	O	1.351673	-0.114086	0.143225
O33	O	1.685006	0.219247	0.476558
O34	O	0.899061	-0.447361	-0.309401
O35	O	1.232394	-0.114028	0.023932
O36	O	1.565727	0.219306	0.357266
O37	O	1.018381	-0.578030	-0.519105
O38	O	1.351715	-0.244696	-0.185772
O39	O	1.685048	0.088637	0.147562
O40	O	0.899049	-0.578065	-0.399786
O41	O	1.232382	-0.244732	-0.066453
O42	O	1.565716	0.088602	0.266881
O43	O	1.108810	-0.447299	-0.519126
O44	O	1.442143	-0.113966	-0.185793
O45	O	1.775476	0.219367	0.147540
O46	O	1.108688	-0.750672	-0.309399
O47	O	1.442021	-0.417339	0.023934
O48	O	1.775354	-0.084006	0.357268
O49	O	1.018312	-0.750628	-0.399785
O50	O	1.351645	-0.417295	-0.066452
O51	O	1.684979	-0.083961	0.266882
C52	C	0.872352	-0.512711	-0.354591
C53	C	1.205686	-0.179378	-0.021258
C54	C	1.539019	0.153956	0.312076
C55	C	0.790553	-0.512729	-0.354599
C56	C	1.123887	-0.179396	-0.021266
C57	C	1.457220	0.153938	0.312067
C58	C	0.602372	-0.580893	-0.401604
C59	C	0.935706	-0.247560	-0.068270
C60	C	1.269039	0.085773	0.265063
C61	C	0.525514	-0.580897	-0.401613
C62	C	0.858847	-0.247563	-0.068280
C63	C	1.192180	0.085770	0.265054
C64	C	0.525496	-0.444584	-0.307636
C65	C	0.858830	-0.111251	0.025697
C66	C	1.192163	0.222082	0.359030
C67	C	0.602354	-0.444576	-0.307631
C68	C	0.935687	-0.111243	0.025702
C69	C	1.269021	0.222090	0.359035
C70	C	0.640790	-0.512737	-0.354614
C71	C	0.974123	-0.179404	-0.021281
C72	C	1.307456	0.153930	0.312053
C73	C	0.487074	-0.512748	-0.354628
C74	C	0.820407	-0.179415	-0.021295
C75	C	1.153740	0.153918	0.312039
C76	C	0.403740	-0.512751	-0.354638
C77	C	0.737073	-0.179418	-0.021304
C78	C	1.070407	0.153915	0.312029
C79	C	0.724129	-0.512733	-0.354606
C80	C	1.057462	-0.179399	-0.021272
C81	C	1.390795	0.153934	0.312061
C82	C	1.063510	-0.789270	-0.354605
C83	C	1.396844	-0.455937	-0.021271
C84	C	1.730177	-0.122604	0.312062
C85	C	1.063557	-0.907576	-0.354626
C86	C	1.396890	-0.574242	-0.021293
C87	C	1.730224	-0.240909	0.312040
C88	C	1.014397	-0.976843	-0.403753
C89	C	1.347730	-0.643510	-0.070419
C90	C	1.681064	-0.310177	0.262914
C91	C	0.996468	-1.047703	-0.336600
C92	C	1.329801	-0.714369	-0.003266
C93	C	1.663135	-0.381036	0.330067
C94	C	1.081553	-1.047515	-0.421791
C95	C	1.414886	-0.714182	-0.088457
C96	C	1.748219	-0.380849	0.244876
C97	C	1.045593	-0.976877	-0.287438
C98	C	1.378926	-0.643543	0.045896
C99	C	1.712259	-0.310210	0.379229
C100	C	1.130709	-0.976683	-0.372674
C101	C	1.464042	-0.643350	-0.039341
C102	C	1.797375	-0.310017	0.293993
C103	C	1.112805	-1.047511	-0.305475
C104	C	1.446139	-0.714177	0.027858
C105	C	1.779472	-0.380844	0.361192
C106	C	1.255511	-0.512748	-0.354634
C107	C	1.588845	-0.179415	-0.021300
C108	C	1.922178	0.153918	0.312033
C109	C	1.337310	-0.512756	-0.354643
C110	C	1.670644	-0.179423	-0.021309
C111	C	2.003977	0.153910	0.312024
C112	C	1.063602	-0.512654	-0.546565
C113	C	1.396935	-0.179320	-0.213232
C114	C	1.730268	0.154013	0.120102
C115	C	1.063620	-0.512622	-0.628364
C116	C	1.396953	-0.179288	-0.295031
C117	C	1.730287	0.154045	0.038303
C118	C	1.063627	-0.235108	-0.354635
C119	C	1.396960	0.098225	-0.021302
C120	C	1.730294	0.431558	0.312031
C121	C	1.063656	-0.116803	-0.354645
C122	C	1.396989	0.216530	-0.021312
C123	C	1.730323	0.549864	0.312021
C124	C	1.110733	-0.444458	-0.893434
C125	C	1.444067	-0.111125	-0.560100
C126	C	1.777400	0.222208	-0.226767
C127	C	1.110725	-0.444487	-0.816575
C128	C	1.444058	-0.111154	-0.483242
C129	C	1.777391	0.222179	-0.149908
C130	C	1.016567	-0.580631	-0.816543
C131	C	1.349900	-0.247297	-0.483209
C132	C	1.683233	0.086036	-0.149876
C133	C	1.016580	-0.580606	-0.893400
C134	C	1.349913	-0.247273	-0.560067
C135	C	1.683246	0.086060	-0.226733
C136	C	1.063662	-0.512514	-0.931844
C137	C	1.396995	-0.179181	-0.598510
C138	C	1.730329	0.154152	-0.265177
C139	C	1.063640	-0.512567	-0.778127
C140	C	1.396974	-0.179234	-0.444794
C141	C	1.730307	0.154099	-0.111461
C142	C	1.063630	-0.512599	-0.694794
C143	C	1.396964	-0.179266	-0.361460
C144	C	1.730297	0.154068	-0.028127
C145	C	1.063673	-0.512484	-1.015183
C146	C	1.397006	-0.179150	-0.681849
C147	C	1.730339	0.154183	-0.348516
C148	C	1.063558	-0.512728	-0.163406
C149	C	1.396891	-0.179394	0.169928
C150	C	1.730224	0.153939	0.503261
C151	C	1.063682	-0.512460	-0.081607
C152	C	1.397015	-0.179126	0.251726
C153	C	1.730349	0.154207	0.585059
H154	H	0.494238	-0.636395	-0.439878
H155	H	0.827571	-0.303062	-0.106544
H156	H	1.160904	0.030272	0.226789
H157	H	0.978233	-0.636067	-0.785233
H158	H	1.311566	-0.302734	-0.451899
H159	H	1.644900	0.030600	-0.118566
N160	N	0.484041	-0.371099	-0.256945
N161	N	0.817374	-0.037766	0.076388
N162	N	1.150707	0.295567	0.409722
H163	H	0.429522	-0.381456	-0.264070
H164	H	0.762855	-0.048123	0.069264
H165	H	1.096188	0.285211	0.402597
H166	H	0.497463	-0.387597	-0.204373
H167	H	0.830796	-0.054264	0.128960
H168	H	1.164130	0.279070	0.462294
H169	H	0.633634	-0.389069	-0.269367
H170	H	0.966967	-0.055735	0.063967
H171	H	1.300301	0.277598	0.397300
N172	N	0.965798	-0.654002	-0.934832
N173	N	1.299131	-0.320669	-0.601498
N174	N	1.632465	0.012664	-0.268165
H175	H	0.972952	-0.643654	-0.989354
H176	H	1.306286	-0.310321	-0.656020
H177	H	1.639619	0.023012	-0.322687
H178	H	0.977231	-0.730026	-0.921393
H179	H	1.310564	-0.396692	-0.588060
H180	H	1.643897	-0.063359	-0.254727
H181	H	1.187438	-0.945468	-0.387956
H182	H	1.520772	-0.612134	-0.054622
H183	H	1.854105	-0.278801	0.278711
H184	H	1.096734	-1.078544	-0.478583
H185	H	1.430067	-0.745211	-0.145250
H186	H	1.763400	-0.411877	0.188083
H187	H	1.149070	-0.389013	-0.924732
H188	H	1.482404	-0.055680	-0.591399
H189	H	1.815737	0.277654	-0.258066
N190	N	1.161497	-0.371089	-0.775146
N191	N	1.494830	-0.037755	-0.441813
N192	N	1.828164	0.295578	-0.108480
H193	H	1.191324	-0.327953	-0.811165
H194	H	1.524657	0.005380	-0.477832
H195	H	1.857990	0.338713	-0.144498
H196	H	1.131547	-0.321843	-0.743256
H197	H	1.464880	0.011490	-0.409922
H198	H	1.798213	0.344823	-0.076589
H199	H	0.633665	-0.636391	-0.439862
H200	H	0.966998	-0.303058	-0.106529
H201	H	1.300331	0.030275	0.226805
H202	H	0.939725	-1.078921	-0.321350
H203	H	1.273059	-0.745588	0.011983
H204	H	1.606392	-0.412254	0.345317
N205	N	0.959238	-0.935735	-0.458707
N206	N	1.292571	-0.602402	-0.125373
N207	N	1.625905	-0.269068	0.207960
H208	H	0.908562	-0.961574	-0.444981
H209	H	1.241895	-0.628240	-0.111648
H210	H	1.575229	-0.294907	0.221685
H211	H	0.959983	-0.855552	-0.458620
H212	H	1.293316	-0.522218	-0.125287
H213	H	1.626650	-0.188885	0.208046
H214	H	1.154421	-1.078344	-0.263891
H215	H	1.487754	-0.745011	0.069443
H216	H	1.821088	-0.411677	0.402776
N217	N	1.025400	-0.935959	-0.212186
N218	N	1.358733	-0.602625	0.121147
N219	N	1.692067	-0.269292	0.454481
H220	H	1.025465	-0.855768	-0.212648
H221	H	1.358799	-0.522434	0.120685
H222	H	1.692132	-0.189101	0.454018
H223	H	0.974891	-0.962498	-0.198494
H224	H	1.308224	-0.629165	0.134839
H225	H	1.641557	-0.295831	0.468173
