data_functionalizedCrystal
_audit_creation_method	'MofGen! by Chris Wilmer'
_symmetry_space_group_name_H-M	'P1'
_symmetry_Int_Tables_number	1
_symmetry_cell_setting	triclinic
loop_
_symmetry_equiv_pos_as_xyz
  x,y,z
_cell_length_a	15.995350
_cell_length_b	15.995292
_cell_length_c	13.101039
_cell_angle_alpha	93.364742
_cell_angle_beta	86.645958
_cell_angle_gamma	83.480495
loop_
_atom_site_label
_atom_site_type_symbol
_atom_site_fract_x
_atom_site_fract_y
_atom_site_fract_z
O1	O	1.115565	0.103313	-0.085120
O2	O	1.615565	0.603313	0.414880
O3	O	0.871788	0.116640	-0.085141
O4	O	1.371788	0.616640	0.414859
O5	O	1.000366	-0.011914	-0.085131
O6	O	1.500366	0.488086	0.414869
O7	O	0.986987	0.231868	-0.085129
O8	O	1.486987	0.731868	0.414871
O9	O	0.991140	-0.002676	0.085298
O10	O	1.491140	0.497324	0.585298
O11	O	0.862563	0.125879	0.085289
O12	O	1.362563	0.625879	0.585289
O13	O	1.106340	0.112552	0.085309
O14	O	1.606340	0.612552	0.585309
Zn15	Zn	0.982987	0.120682	0.112358
Zn16	Zn	1.482987	0.620682	0.612358
Zn17	Zn	0.995141	0.108510	-0.112190
Zn18	Zn	1.495141	0.608510	0.387810
O19	O	0.977762	0.241107	0.085300
O20	O	1.477762	0.741107	0.585300
C21	C	0.835981	0.120708	0.000071
C22	C	1.335981	0.620708	0.500071
C23	C	0.743031	0.119056	0.000063
C24	C	1.243031	0.619056	0.500063
C25	C	0.405284	0.113125	0.000085
C26	C	0.905284	0.613125	0.500085
C27	C	0.452717	0.021591	0.000464
C28	C	0.952717	0.521591	0.500464
C29	C	0.549428	0.023222	0.000073
C30	C	1.049428	0.523222	0.500073
C31	C	0.572844	0.116067	0.000075
C32	C	1.072844	0.616067	0.500075
C33	C	0.537016	0.155949	-0.097244
C34	C	1.037016	0.655949	0.402756
C35	C	0.440384	0.153645	-0.097319
C36	C	0.940384	0.653645	0.402681
C37	C	0.429554	0.166043	0.096491
C38	C	0.929554	0.666043	0.596491
C39	C	0.526430	0.166091	0.097770
C40	C	1.026430	0.666091	0.597770
C41	C	0.667542	0.117734	0.000066
C42	C	1.167542	0.617734	0.500066
C43	C	0.310586	0.111460	0.000087
C44	C	0.810586	0.611460	0.500087
C45	C	0.995209	-0.038491	0.000081
C46	C	1.495209	0.461509	0.500081
C47	C	0.993577	-0.131444	0.000073
C48	C	1.493577	0.368556	0.500073
C49	C	0.987575	-0.469182	0.000082
C50	C	1.487575	0.030818	0.500082
C51	C	1.080358	-0.445849	0.000470
C52	C	1.580358	0.054151	0.500470
C53	C	1.082143	-0.349194	0.000082
C54	C	1.582143	0.150806	0.500082
C55	C	0.990553	-0.301626	0.000078
C56	C	1.490553	0.198374	0.500078
C57	C	0.949424	-0.336003	-0.097246
C58	C	1.449424	0.163997	0.402754
C59	C	0.948311	-0.432798	-0.097324
C60	C	1.448311	0.067202	0.402676
C61	C	0.935925	-0.422149	0.096486
C62	C	1.435925	0.077851	0.596486
C63	C	0.939294	-0.325587	0.097768
C64	C	1.439294	0.174413	0.597768
C65	C	0.992231	-0.206931	0.000072
C66	C	1.492231	0.293069	0.500072
C67	C	0.985894	-0.563878	0.000080
C68	C	1.485894	-0.063878	0.500080
C69	C	1.142147	0.108484	0.000095
C70	C	1.642147	0.608484	0.500095
C71	C	1.235097	0.110136	0.000096
C72	C	1.735097	0.610136	0.500096
C73	C	0.982919	0.267683	0.000086
C74	C	1.482919	0.767683	0.500086
C75	C	0.984551	0.360636	0.000087
C76	C	1.484551	0.860636	0.500087
N77	N	0.974697	0.128989	0.265606
N78	N	1.474697	0.628989	0.765606
N79	N	1.003437	0.100196	-0.265438
N80	N	1.503437	0.600196	0.234562
C81	C	0.963420	0.140299	0.474648
C82	C	1.463420	0.640299	0.974648
C83	C	1.014712	0.088889	0.525527
C84	C	1.514712	0.588889	1.025527
C85	C	1.008437	0.095182	0.641845
C86	C	1.508437	0.595182	1.141845
C87	C	0.969694	0.134007	0.358319
C88	C	1.469694	0.634007	0.858319
H89	H	0.541463	0.234115	0.103650
H90	H	1.041463	0.734115	0.603650
F91	F	0.397506	0.132145	0.192909
F92	F	0.897506	0.632145	0.692909
H93	H	1.063338	0.040151	0.481728
H94	H	1.563338	0.540151	0.981728
F95	F	0.387976	0.254320	0.097354
F96	F	0.887976	0.754320	0.597354
F97	F	0.978353	-0.296213	0.191880
F98	F	1.478353	0.203787	0.691880
H99	H	0.914798	0.189036	0.518441
H100	H	1.414798	0.689036	1.018441
F101	F	0.851496	-0.282079	0.105448
F102	F	1.351496	0.217921	0.605448
H103	H	0.574088	-0.008493	0.069835
H104	H	1.074088	0.491507	0.569835
H105	H	0.430424	-0.011222	0.070255
H106	H	0.930424	0.488778	0.570255
H107	H	1.114704	-0.326387	0.069847
H108	H	1.614704	0.173613	0.569847
F109	F	0.432023	-0.030946	-0.090250
F110	F	0.932023	0.469054	0.409750
H111	H	0.581076	-0.016303	-0.069812
H112	H	1.081076	0.483697	0.430188
H113	H	0.426021	0.116770	-0.170068
H114	H	0.926021	0.616770	0.329932
H115	H	0.549857	0.137029	0.169767
H116	H	1.049857	0.637029	0.669767
F117	F	0.398525	0.241188	-0.103090
F118	F	0.898525	0.741188	0.396910
H119	H	0.985564	-0.319869	-0.169671
H120	H	1.485564	0.180131	0.330329
F121	F	0.555735	0.244842	-0.101992
F122	F	1.055735	0.744842	0.398008
H123	H	0.867578	-0.436104	0.097138
H124	H	1.367578	0.063896	0.597138
H125	H	0.880505	-0.447587	-0.101737
H126	H	1.380505	0.052413	0.398263
F127	F	0.861586	-0.294605	-0.101987
F128	F	1.361586	0.205395	0.398013
H129	H	0.569317	0.120658	-0.169672
H130	H	1.069317	0.620658	0.330328
F131	F	0.968658	-0.453906	0.192904
F132	F	1.468658	0.046094	0.692904
H133	H	1.112352	-0.470062	0.070265
H134	H	1.612352	0.029938	0.570265
H135	H	1.119687	-0.478628	-0.068928
H136	H	1.619687	0.021372	0.431072
H137	H	0.984382	-0.463558	-0.170072
H138	H	1.484382	0.036442	0.329928
F139	F	1.134861	-0.330085	-0.091260
F140	F	1.634861	0.169915	0.408740
