data_functionalizedCrystal
_audit_creation_method	'MofGen! by Chris Wilmer'
_symmetry_space_group_name_H-M	'P1'
_symmetry_Int_Tables_number	1
_symmetry_cell_setting	triclinic
loop_
_symmetry_equiv_pos_as_xyz
  x,y,z
_cell_length_a	10.723022
_cell_length_b	10.723024
_cell_length_c	9.798715
_cell_angle_alpha	90.000035
_cell_angle_beta	89.994597
_cell_angle_gamma	84.467548
loop_
_atom_site_label
_atom_site_type_symbol
_atom_site_fract_x
_atom_site_fract_y
_atom_site_fract_z
O1	O	-0.175031	-1.657179	0.113478
O2	O	-0.191785	-1.294027	0.113483
O3	O	-0.001832	-1.483981	0.113475
O4	O	-0.364984	-1.467226	0.113486
O5	O	-0.001818	-1.483980	-0.113507
O6	O	-0.191771	-1.294027	-0.113499
O7	O	-0.175017	-1.657179	-0.113504
Zn8	Zn	-0.183392	-1.475603	-0.149540
Zn9	Zn	-0.183410	-1.475603	0.149519
O10	O	-0.364970	-1.467225	-0.113496
C11	C	-0.190558	-1.247527	-0.000008
C12	C	-0.186911	-1.108973	-0.000006
C13	C	0.044675	-1.482762	-0.000014
C14	C	0.183229	-1.479115	-0.000009
C15	C	-0.176243	-1.703679	-0.000010
C16	C	-0.179891	-1.842233	-0.000003
C17	C	-0.411477	-1.468444	-0.000004
C18	C	-0.550031	-1.472091	0.000000
C19	C	0.401408	-1.581631	-0.000004
C20	C	0.258205	-1.585403	-0.000009
N21	N	-0.183378	-1.475611	-0.353640
C22	C	-0.293199	-1.033990	-0.000002
C23	C	-0.289431	-0.890786	-0.000001
N24	N	-0.183414	-1.475604	0.353619
C25	C	-0.263154	-1.395523	0.578587
C26	C	-0.263174	-1.395518	0.421424
H27	H	0.465850	-1.672620	-0.000011
H28	H	-0.331443	-1.326963	0.636912
H29	H	-0.331468	-1.326947	0.363141
H30	H	-0.115107	-1.544171	0.411892
H31	H	-0.380421	-0.826353	0.000008
H32	H	0.216393	-1.679190	0.000037
C33	C	0.239688	-1.352404	0.000001
H34	H	0.174073	-1.286210	0.000011
H35	H	0.289923	-1.346406	-0.079146
H36	H	0.289894	-1.346415	0.079171
C37	C	-0.419900	-1.090474	0.000003
H38	H	-0.405810	-1.179313	0.000011
H39	H	-0.466026	-1.063483	-0.079146
H40	H	-0.466026	-1.063485	0.079171
C41	C	-0.056957	-0.929254	-0.000000
H42	H	0.012255	-0.880215	0.000009
H43	H	-0.053628	-0.980621	-0.079150
H44	H	-0.053648	-0.980608	0.079167
C45	C	-0.091126	-1.568240	0.567583
H46	H	-0.041078	-1.618493	0.630484
H47	H	-0.038730	-1.522968	0.511826
H48	H	-0.136663	-1.620427	0.511856
H49	H	0.385526	-1.381103	-0.000010
H50	H	-0.093125	-1.067151	0.000026
