data_functionalizedCrystal
_audit_creation_method	'MofGen! by Chris Wilmer'
_symmetry_space_group_name_H-M	'P1'
_symmetry_Int_Tables_number	1
_symmetry_cell_setting	triclinic
loop_
_symmetry_equiv_pos_as_xyz
  x,y,z
_cell_length_a	23.532407
_cell_length_b	11.026607
_cell_length_c	10.065875
_cell_angle_alpha	100.731764
_cell_angle_beta	81.313937
_cell_angle_gamma	95.717347
loop_
_atom_site_label
_atom_site_type_symbol
_atom_site_fract_x
_atom_site_fract_y
_atom_site_fract_z
O1	O	0.777220	0.129240	-0.113315
O2	O	0.613598	0.150522	-0.113354
O3	O	0.681847	-0.036608	-0.113333
O4	O	0.708970	0.316371	-0.113336
O5	O	0.668848	-0.000782	0.113652
O6	O	0.600598	0.186348	0.113630
O7	O	0.764220	0.165066	0.113669
Zn8	Zn	0.680345	0.181395	0.149689
Zn9	Zn	0.697473	0.134193	-0.149373
O10	O	0.695970	0.352196	0.113648
C11	C	0.670344	-0.063846	0.000156
C12	C	0.655429	-0.198382	0.000148
C13	C	0.585825	0.167892	0.000133
C14	C	0.522437	0.166260	0.000118
C15	C	0.696613	-0.272683	0.000156
C16	C	0.681199	-0.411732	0.000147
C17	C	0.133903	0.266789	0.000179
C18	C	0.074343	0.265276	0.000187
O19	O	0.047396	0.358466	0.000236
N20	N	0.040016	0.154025	0.000186
C21	C	0.065251	0.044281	0.000190
O22	O	0.030584	-0.050485	0.000191
C23	C	0.124809	0.045797	0.000192
C24	C	0.159134	0.157053	0.000179
C25	C	0.168228	0.378036	0.000167
C26	C	0.227784	0.379548	0.000157
C27	C	0.253015	0.269812	0.000157
C28	C	0.218690	0.158565	0.000168
C29	C	0.150042	-0.063943	0.000206
C30	C	0.209605	-0.062418	0.000208
C31	C	0.243930	0.048838	0.000195
C32	C	0.303477	0.050341	0.000157
N33	N	0.337805	0.161592	0.000158
C34	C	0.312573	0.271328	0.000158
C35	C	-0.059826	0.041107	0.000190
C36	C	-0.119382	0.039589	0.000178
C37	C	-0.110286	0.260584	0.000178
C38	C	-0.050728	0.262100	0.000179
C39	C	-0.025498	0.152359	0.000191
C40	C	0.437645	0.274494	0.000134
C41	C	0.497206	0.275995	0.000118
C42	C	0.488104	0.055002	0.000125
C43	C	0.428549	0.053499	0.000135
C44	C	0.403321	0.163256	0.000144
O45	O	0.330464	-0.042799	0.000114
O46	O	0.347246	0.366082	0.000175
C47	C	0.791993	0.147696	0.000179
C48	C	0.855381	0.149326	0.000185
C49	C	0.707473	0.379434	0.000156
C50	C	0.722389	0.513968	0.000155
N51	N	0.668660	0.213608	0.353791
N52	N	0.709161	0.101970	-0.353475
C53	C	0.693403	0.145394	0.421577
C54	C	0.684415	0.170195	0.578742
H55	H	0.743284	-0.233351	0.000176
C56	C	0.618143	-0.464854	0.000134
N57	N	0.570650	-0.504867	0.000128
C58	C	-0.012976	0.384491	0.000180
N59	N	0.015455	0.476683	0.000187
H60	H	0.769070	-0.446725	0.000064
C61	C	-0.157133	-0.082803	0.000183
N62	N	-0.185566	-0.174991	0.000198
C63	C	0.592376	-0.251509	0.000135
N64	N	0.544883	-0.291521	0.000129
C65	C	0.237353	-0.183147	0.000215
N66	N	0.258253	-0.274081	0.000215
H67	H	0.255726	0.470144	0.000146
H68	H	0.525152	0.366597	0.000106
C69	C	0.746774	-0.001735	0.567753
N70	N	0.775106	-0.079841	0.508422
C71	C	0.409903	0.395231	0.000136
N72	N	0.389009	0.486169	0.000128
C73	C	0.646803	0.273901	0.657516
N74	N	0.618474	0.352010	0.716851
C75	C	0.730999	0.041668	0.342798
N76	N	0.759313	-0.036466	0.283463
C77	C	0.631050	0.317309	0.432570
N78	N	0.602721	0.395418	0.491905
H79	H	0.122104	-0.154540	0.000217
C80	C	0.140483	0.498766	0.000172
N81	N	0.119591	0.589706	0.000168
C82	C	-0.138053	0.381299	0.000191
N83	N	-0.158968	0.472215	0.000203
C84	C	-0.032078	-0.079629	0.000180
N85	N	-0.011182	-0.170567	0.000172
H86	H	0.400601	-0.037098	0.000125
H87	H	0.508659	-0.034342	0.000120
