data_functionalizedCrystal
_audit_creation_method	'MofGen! by Chris Wilmer'
_symmetry_space_group_name_H-M	'P1'
_symmetry_Int_Tables_number	1
_symmetry_cell_setting	triclinic
loop_
_symmetry_equiv_pos_as_xyz
  x,y,z
_cell_length_a	18.215407
_cell_length_b	16.959453
_cell_length_c	18.215399
_cell_angle_alpha	90.028024
_cell_angle_beta	90.019833
_cell_angle_gamma	90.020436
loop_
_atom_site_label
_atom_site_type_symbol
_atom_site_fract_x
_atom_site_fract_y
_atom_site_fract_z
Zn1	Zn	1.125097	-0.314680	0.416115
Zn2	Zn	1.625097	0.185320	0.916115
Zn3	Zn	1.125016	-0.446866	0.293049
Zn4	Zn	1.625016	0.053134	0.793049
Zn5	Zn	1.002030	-0.314706	0.293063
Zn6	Zn	1.502030	0.185294	0.793063
Zn7	Zn	1.002006	-0.446822	0.416074
Zn8	Zn	1.502006	0.053178	0.916074
O9	O	1.063537	-0.380768	0.354575
O10	O	1.563537	0.119232	0.854575
O11	O	1.228070	-0.332222	0.399802
O12	O	1.728070	0.167778	0.899802
O13	O	1.108677	-0.429364	0.190067
O14	O	1.608677	0.070636	0.690067
O15	O	1.018399	-0.204092	0.309409
O16	O	1.518399	0.295908	0.809409
O17	O	1.228011	-0.429339	0.309386
O18	O	1.728011	0.070661	0.809386
O19	O	1.108816	-0.204073	0.399815
O20	O	1.608816	0.295927	0.899815
O21	O	1.018320	-0.332267	0.190077
O22	O	1.518320	0.167733	0.690077
O23	O	0.899042	-0.332224	0.309369
O24	O	1.399042	0.167776	0.809369
O25	O	1.018358	-0.429264	0.519064
O26	O	1.518358	0.070736	1.019064
O27	O	0.899025	-0.429289	0.399745
O28	O	1.399025	0.070711	0.899745
O29	O	1.108793	-0.332180	0.519094
O30	O	1.608793	0.167820	1.019094
O31	O	1.108655	-0.557471	0.309345
O32	O	1.608655	-0.057471	0.809345
O33	O	1.018280	-0.557438	0.399731
O34	O	1.518280	-0.057438	0.899731
C35	C	0.872331	-0.380755	0.354554
C36	C	1.372331	0.119245	0.854554
C37	C	0.790532	-0.380768	0.354563
C38	C	1.290532	0.119232	0.854563
C39	C	0.602348	-0.431389	0.401562
C40	C	1.102348	0.068611	0.901562
C41	C	0.525490	-0.431392	0.401571
C42	C	1.025490	0.068608	0.901571
C43	C	0.525478	-0.330162	0.307605
C44	C	1.025478	0.169838	0.807605
C45	C	0.602335	-0.330156	0.307600
C46	C	1.102335	0.169844	0.807600
C47	C	0.640768	-0.380774	0.354577
C48	C	1.140768	0.119226	0.854577
C49	C	0.487052	-0.380783	0.354591
C50	C	0.987052	0.119217	0.854591
C51	C	0.403719	-0.380785	0.354601
C52	C	0.903719	0.119215	0.854601
C53	C	0.724107	-0.380771	0.354569
C54	C	1.224107	0.119229	0.854569
C55	C	1.063476	-0.586135	0.354548
C56	C	1.563476	-0.086135	0.854548
C57	C	1.063517	-0.673991	0.354561
C58	C	1.563517	-0.173991	0.854561
C59	C	1.110678	-1.045398	0.401739
C60	C	1.610678	-0.545398	0.901739
C61	C	1.016602	-1.045535	0.307521
C62	C	1.516602	-0.545535	0.807521
C63	C	1.016575	-0.962989	0.307504
C64	C	1.516575	-0.462989	0.807504
C65	C	1.063599	-0.921644	0.354606
C66	C	1.563599	-0.421644	0.854606
C67	C	1.110650	-0.962845	0.401725
C68	C	1.610650	-0.462845	0.901725
C69	C	0.969519	-0.921782	0.260392
C70	C	1.469519	-0.421782	0.760392
C71	C	0.969489	-0.839231	0.260374
C72	C	1.469489	-0.339231	0.760374
C73	C	1.016518	-0.797885	0.307472
C74	C	1.516518	-0.297885	0.807472
C75	C	1.063571	-0.839091	0.354592
C76	C	1.563571	-0.339091	0.854592
C77	C	1.110595	-0.797745	0.401694
C78	C	1.610595	-0.297745	0.901694
C79	C	1.157654	-0.838950	0.448811
C80	C	1.657654	-0.338950	0.948811
C81	C	1.157678	-0.921498	0.448823
C82	C	1.657678	-0.421498	0.948823
C83	C	1.016493	-0.715336	0.307460
C84	C	1.516493	-0.215336	0.807460
C85	C	1.110568	-0.715192	0.401680
C86	C	1.610568	-0.215192	0.901680
C87	C	1.255490	-0.380783	0.354597
C88	C	1.755490	0.119217	0.854597
C89	C	1.337289	-0.380789	0.354606
C90	C	1.837289	0.119211	0.854606
C91	C	1.063582	-0.380714	0.546528
C92	C	1.563582	0.119286	1.046528
C93	C	1.063601	-0.380691	0.628327
C94	C	1.563601	0.119309	1.128327
C95	C	1.063619	-0.174600	0.354619
C96	C	1.563619	0.325400	0.854619
C97	C	1.063654	-0.086744	0.354637
C98	C	1.563654	0.413256	0.854637
C99	C	1.063535	-0.380766	0.163369
C100	C	1.563535	0.119234	0.663369
C101	C	1.063658	-0.380566	0.081571
C102	C	1.563658	0.119434	0.581571
C103	C	1.110707	-0.330092	0.816538
C104	C	1.610707	0.169908	1.316538
C105	C	1.110716	-0.330069	0.893397
C106	C	1.610716	0.169931	1.393397
C107	C	1.016547	-0.431167	0.893354
C108	C	1.516547	0.068833	1.393354
C109	C	1.016535	-0.431186	0.816497
C110	C	1.516535	0.068814	1.316497
C111	C	1.063619	-0.380649	0.778091
C112	C	1.563619	0.119351	1.278091
C113	C	1.063640	-0.380608	0.931807
C114	C	1.563640	0.119392	1.431807
C115	C	1.063649	-0.380583	1.015141
C116	C	1.563649	0.119417	1.515141
C117	C	1.063609	-0.380673	0.694752
C118	C	1.563609	0.119327	1.194752
H119	H	0.633618	-0.288934	0.269339
H120	H	1.133618	0.211066	0.769339
C121	C	0.483231	-0.487080	0.453252
C122	C	0.983231	0.012920	0.953252
N123	N	0.451402	-0.529028	0.492178
N124	N	0.951402	-0.029028	0.992178
H125	H	0.931173	-0.805688	0.222008
H126	H	1.431173	-0.305688	0.722008
H127	H	1.149058	-0.288899	0.924698
H128	H	1.649058	0.211101	1.424698
C129	C	0.964730	-0.486803	0.774202
C130	C	1.464730	0.013197	1.274202
N131	N	0.925710	-0.528690	0.742346
N132	N	1.425710	-0.028690	1.242346
C133	C	1.162302	-0.669719	0.453494
C134	C	1.662302	-0.169719	0.953494
N135	N	1.201269	-0.635469	0.492521
N136	N	1.701269	-0.135469	0.992521
H137	H	0.633638	-0.472604	0.439816
H138	H	1.133638	0.027396	0.939816
C139	C	1.209378	-0.793460	0.500621
C140	C	1.709378	-0.293460	1.000621
N141	N	1.248337	-0.759193	0.539643
N142	N	1.748337	-0.259193	1.039643
C143	C	1.162439	-1.090723	0.453565
C144	C	1.662439	-0.590723	0.953565
N145	N	1.201425	-1.124863	0.492602
N146	N	1.701425	-0.624863	0.992602
H147	H	1.195990	-0.955054	0.487184
H148	H	1.695990	-0.455054	0.987184
H149	H	0.494176	-0.288952	0.269356
H150	H	0.994176	0.211048	0.769356
H151	H	0.978314	-1.079203	0.269176
H152	H	1.478314	-0.579203	0.769176
C153	C	0.917883	-0.967267	0.208497
C154	C	1.417883	-0.467267	0.708497
N155	N	0.879023	-1.001529	0.169374
N156	N	1.379023	-0.501529	0.669374
H157	H	0.978175	-0.681792	0.269101
H158	H	1.478175	-0.181792	0.769101
H159	H	1.149044	-0.288940	0.785271
H160	H	1.649044	0.211060	1.285271
H161	H	0.978214	-0.472314	0.924634
H162	H	1.478214	0.027686	1.424634
