data_functionalizedCrystal
_audit_creation_method	'MofGen! by Chris Wilmer'
_symmetry_space_group_name_H-M	'P1'
_symmetry_Int_Tables_number	1
_symmetry_cell_setting	triclinic
loop_
_symmetry_equiv_pos_as_xyz
  x,y,z
_cell_length_a	12.837943
_cell_length_b	9.130313
_cell_length_c	10.654551
_cell_angle_alpha	89.997246
_cell_angle_beta	89.657184
_cell_angle_gamma	89.997654
loop_
_atom_site_label
_atom_site_type_symbol
_atom_site_fract_x
_atom_site_fract_y
_atom_site_fract_z
O1	O	1.377803	-0.121762	0.326750
O2	O	1.075881	-0.121771	0.310610
O3	O	1.233783	-0.121763	0.136698
O4	O	1.219901	-0.121770	0.500662
O5	O	1.233772	0.121836	0.136691
O6	O	1.075870	0.121828	0.310603
O7	O	1.377792	0.121837	0.326744
Cu8	Cu	1.226830	0.144075	0.318673
Cu9	Cu	1.226843	-0.144009	0.318681
O10	O	1.219890	0.121829	0.500655
C11	C	1.037216	0.000027	0.305153
C12	C	0.922022	0.000023	0.288891
N13	N	1.226828	0.346697	0.318667
N14	N	1.226853	-0.346632	0.318677
C15	C	0.682470	0.000041	0.484395
C16	C	0.574234	0.000038	0.469121
C17	C	0.597313	0.000027	0.243070
C18	C	0.705548	0.000029	0.258344
C19	C	0.748123	0.000034	0.379010
C20	C	0.856360	0.000026	0.394284
C21	C	0.879437	0.000025	0.168233
C22	C	0.771201	0.000022	0.152959
C23	C	1.416457	0.000035	0.332200
C24	C	1.531651	0.000029	0.348462
C25	C	1.232758	0.000034	0.089786
C26	C	1.229708	0.000027	-0.049990
C27	C	1.296771	0.423353	0.241698
C28	C	1.296781	0.576689	0.241699
C29	C	1.156902	0.576702	0.395650
C30	C	1.156888	0.423368	0.395641
C31	C	1.228282	-0.132760	-0.115647
C32	C	1.225407	-0.132762	-0.246981
C33	C	1.225388	0.132823	-0.246991
C34	C	1.228255	0.132823	-0.115659
C35	C	1.220915	0.000028	0.547567
C36	C	1.223965	0.000026	0.687344
H37	H	0.891022	0.000032	0.492536
C38	C	1.079950	0.339041	0.480315
H39	H	1.038308	0.406662	0.526172
H40	H	1.036437	0.279241	0.429896
H41	H	1.117646	0.279211	0.537130
H42	H	1.229461	-0.240892	-0.062183
H43	H	1.224244	-0.240890	-0.300432
C44	C	1.223806	0.278886	-0.319231
H45	H	1.221906	0.259871	-0.406852
H46	H	1.163879	0.333451	-0.295364
H47	H	1.284678	0.333443	-0.300055
H48	H	0.520782	0.000048	0.554937
C49	C	1.229827	0.278896	-0.043432
H50	H	1.228567	0.357984	-0.101350
H51	H	1.170550	0.284410	0.010151
H52	H	1.291348	0.284415	0.005449
H53	H	0.562629	0.000144	0.144828
C54	C	0.729305	0.000033	0.617119
H55	H	0.674702	0.000039	0.677697
H56	H	0.771053	-0.084915	0.627774
H57	H	0.771044	0.084992	0.627774
C58	C	0.724363	0.000010	0.020237
H59	H	0.650498	-0.000000	0.026231
H60	H	0.746841	0.084950	-0.023714
H61	H	0.746844	-0.084957	-0.023683
C62	C	0.951657	0.000015	0.052305
H63	H	1.022217	0.000023	0.078680
H64	H	0.938659	-0.084935	0.003370
H65	H	0.938661	0.084972	0.003356
H66	H	1.353720	0.360931	0.179019
H67	H	1.353734	0.639098	0.179022
C68	C	1.079984	0.661044	0.480326
H69	H	1.090016	0.763344	0.469320
H70	H	1.010643	0.635939	0.458343
H71	H	1.091857	0.635896	0.565572
