data_functionalizedCrystal
_audit_creation_method	'MofGen! by Chris Wilmer'
_symmetry_space_group_name_H-M	'P1'
_symmetry_Int_Tables_number	1
_symmetry_cell_setting	triclinic
loop_
_symmetry_equiv_pos_as_xyz
  x,y,z
_cell_length_a	10.723024
_cell_length_b	10.723024
_cell_length_c	16.053810
_cell_angle_alpha	87.396437
_cell_angle_beta	92.592352
_cell_angle_gamma	84.467869
loop_
_atom_site_label
_atom_site_type_symbol
_atom_site_fract_x
_atom_site_fract_y
_atom_site_fract_z
O1	O	1.662386	0.169799	0.069421
O2	O	1.299234	0.186552	0.069424
O3	O	1.489186	-0.003401	0.069420
O4	O	1.472433	0.359751	0.069426
O5	O	1.478774	0.007052	-0.069439
O6	O	1.288821	0.197004	-0.069434
O7	O	1.651973	0.180251	-0.069437
Zn8	Zn	1.468744	0.190287	-0.091482
Zn9	Zn	1.482463	0.176516	0.091470
O10	O	1.462021	0.370204	-0.069433
C11	C	1.247528	0.190559	-0.000005
C12	C	1.108974	0.186911	-0.000004
C13	C	0.917216	0.073604	-0.000004
C14	C	1.060420	0.077371	-0.000005
C15	C	1.482761	-0.044674	-0.000009
C16	C	1.479113	-0.183229	-0.000006
C17	C	1.585401	-0.258211	-0.000005
C18	C	1.581634	-0.401415	-0.000002
C19	C	1.703679	0.176244	-0.000006
C20	C	1.842234	0.179891	-0.000002
C21	C	1.468446	0.411477	-0.000002
C22	C	1.472094	0.550031	0.000000
N23	N	1.459390	0.199685	-0.216342
C24	C	1.410982	0.247913	-0.739973
C25	C	1.417552	0.241363	-0.652567
C26	C	1.504974	0.154012	-0.608859
C27	C	1.585822	0.073199	-0.652562
C28	C	1.579245	0.079744	-0.739967
C29	C	1.533661	0.125417	-0.347451
C30	C	1.540235	0.118880	-0.260039
C31	C	1.371962	0.287043	-0.260050
C32	C	1.365398	0.293586	-0.347457
C33	C	1.446242	0.212767	-0.391152
N34	N	1.511695	0.147318	-0.519516
N35	N	1.439514	0.219457	-0.480494
N36	N	1.491826	0.167108	0.216330
H37	H	0.884056	0.273677	-0.000005
Br38	Br	1.320421	-0.342592	-0.000011
H39	H	1.645076	0.013942	-0.775545
H40	H	0.875393	-0.020181	-0.000018
Br41	Br	1.246758	0.412137	-0.406776
Br42	Br	1.167804	-0.074296	0.000001
Br43	Br	1.704461	-0.045360	-0.593248
H44	H	1.385328	-0.225051	0.000001
H45	H	1.044549	0.277906	0.000002
H46	H	1.672624	-0.465847	-0.000006
Br47	Br	1.741727	-0.188520	0.000002
H48	H	1.339799	0.319048	-0.775555
H49	H	1.611430	0.047745	-0.224457
H50	H	1.351721	0.307160	-0.616989
H51	H	1.599490	0.059613	-0.383021
H52	H	1.306142	0.352840	-0.224465
