data_functionalizedCrystal
_audit_creation_method	'MofGen! by Chris Wilmer'
_symmetry_space_group_name_H-M	'P1'
_symmetry_Int_Tables_number	1
_symmetry_cell_setting	triclinic
loop_
_symmetry_equiv_pos_as_xyz
  x,y,z
_cell_length_a	23.532407
_cell_length_b	10.654541
_cell_length_c	9.730217
_cell_angle_alpha	90.003041
_cell_angle_beta	90.003937
_cell_angle_gamma	96.333697
loop_
_atom_site_label
_atom_site_type_symbol
_atom_site_fract_x
_atom_site_fract_y
_atom_site_fract_z
O1	O	0.756250	-0.152437	-0.114118
O2	O	0.590530	-0.174493	-0.114158
O3	O	0.677201	0.019395	-0.114129
O4	O	0.669579	-0.346325	-0.114147
O5	O	0.677198	0.019397	0.114451
O6	O	0.590527	-0.174492	0.114422
O7	O	0.756247	-0.152435	0.114462
Zn8	Zn	0.673387	-0.163463	0.150734
Zn9	Zn	0.673390	-0.163465	-0.150430
O10	O	0.669576	-0.346324	0.114433
C11	C	0.569309	-0.173931	0.000127
C12	C	0.506081	-0.172242	0.000112
C13	C	0.676640	0.066176	0.000160
C14	C	0.674967	0.205567	0.000158
C15	C	0.670137	-0.393105	0.000141
C16	C	0.671810	-0.532495	0.000134
C17	C	0.107656	-0.276390	0.000168
C18	C	0.048245	-0.274821	0.000177
O19	O	0.012130	-0.371367	0.000222
N20	N	0.024869	-0.159554	0.000181
C21	C	0.060906	-0.045849	0.000190
O22	O	0.035567	0.052339	0.000195
C23	C	0.120315	-0.047419	0.000191
C24	C	0.143688	-0.162693	0.000173
C25	C	0.131030	-0.391654	0.000152
C26	C	0.190436	-0.393223	0.000141
C27	C	0.226469	-0.279526	0.000146
C28	C	0.203095	-0.164261	0.000162
C29	C	0.156351	0.066285	0.000210
C30	C	0.215764	0.064705	0.000212
C31	C	0.239137	-0.050569	0.000195
C32	C	0.298534	-0.052133	0.000156
N33	N	0.321910	-0.167399	0.000153
C34	C	0.285878	-0.281096	0.000148
C35	C	-0.063858	-0.042560	0.000189
C36	C	-0.123266	-0.040989	0.000178
C37	C	-0.135923	-0.269962	0.000168
C38	C	-0.076513	-0.271532	0.000169
C39	C	-0.040481	-0.157827	0.000186
C40	C	0.410636	-0.284381	0.000123
C41	C	0.470048	-0.285939	0.000107
C42	C	0.482699	-0.056967	0.000124
C43	C	0.423293	-0.055408	0.000133
C44	C	0.387262	-0.169125	0.000138
O45	O	0.334685	0.044362	0.000117
O46	O	0.311225	-0.379267	0.000161
C47	C	0.777468	-0.152998	0.000174
C48	C	0.840696	-0.154686	0.000180
N49	N	0.673388	-0.163461	0.356271
C50	C	0.778605	0.236821	0.000200
C51	C	0.829636	0.317932	0.000224
C52	C	0.828060	0.448901	0.000219
C53	C	0.775448	0.498759	0.000187
C54	C	0.724417	0.417648	0.000163
C55	C	0.725998	0.286678	0.000172
C56	C	0.620780	0.386394	0.000110
C57	C	0.622354	0.255425	0.000125
C58	C	0.568167	0.436252	0.000078
C59	C	0.517136	0.355140	0.000064
C60	C	0.518714	0.224165	0.000070
C61	C	0.571324	0.174314	0.000101
N62	N	0.673393	-0.163458	-0.355967
C63	C	0.750167	0.008179	0.356287
C64	C	0.788560	0.093995	0.428235
C65	C	0.788566	0.093996	0.572115
C66	C	0.750173	0.008174	0.644050
C67	C	0.711780	-0.077642	0.572102
C68	C	0.711780	-0.077636	0.428219
C69	C	0.635000	-0.249274	0.572085
C70	C	0.634996	-0.249283	0.428205
C71	C	0.596607	-0.335096	0.644020
C72	C	0.558216	-0.420920	0.572072
C73	C	0.558212	-0.420919	0.428183
C74	C	0.596603	-0.335099	0.356257
H75	H	0.489075	-0.379813	0.000092
H76	H	0.572614	0.067675	0.000114
N77	N	0.092186	-0.514315	0.000203
H78	H	0.099759	-0.564655	-0.084520
H79	H	0.051012	-0.495782	0.000273
N80	N	0.596609	-0.335097	0.799203
H81	H	0.626757	-0.267715	0.833870
H82	H	0.605204	-0.420379	0.833738
N83	N	0.750173	0.008174	0.799234
H84	H	0.741557	0.093406	0.833894
H85	H	0.788940	-0.009721	0.833786
N86	N	0.750159	0.008159	0.201104
H87	H	0.788918	-0.009693	0.166446
H88	H	0.741521	0.093403	0.166552
N89	N	0.829954	0.186587	0.350652
H90	H	0.824124	0.173576	0.248586
H91	H	0.870413	0.172549	0.375785
N92	N	0.215642	-0.517554	0.000116
H93	H	0.183793	-0.589332	0.000113
H94	H	0.240019	-0.523205	0.084849
H95	H	-0.057487	-0.365398	0.000163
N96	N	0.829973	0.186553	0.649727
H97	H	0.854294	0.240921	0.582331
H98	H	0.855333	0.138742	0.709416
H99	H	0.869613	0.514942	0.000228
H100	H	0.779893	0.130182	0.000223
H101	H	-0.165271	-0.362539	0.000170
N102	N	0.596590	-0.335094	0.201074
H103	H	0.605201	-0.420324	0.166398
H104	H	0.626730	-0.267649	0.166530
H105	H	0.526957	-0.490785	0.630650
N106	N	0.254627	0.187347	0.000239
H107	H	0.230801	0.260601	0.000251
H108	H	0.279549	0.191694	-0.084500
N109	N	0.516797	-0.513469	0.350585
H110	H	0.492478	-0.567828	0.417992
H111	H	0.538808	-0.568755	0.290884
N112	N	-0.148473	0.083341	0.000172
H113	H	-0.116626	0.155123	0.000173
H114	H	-0.172841	0.088988	0.084914
H115	H	-0.034523	0.050038	0.000190
H116	H	0.872472	0.277323	0.000263
H117	H	0.381306	-0.376980	0.000131
N118	N	0.521573	0.065653	0.000140
H119	H	0.514005	0.115970	0.084885
H120	H	0.513985	0.115891	-0.084641
N121	N	0.131151	0.190618	0.000235
H122	H	0.163000	0.262394	0.000249
H123	H	0.106784	0.196254	0.084980
H124	H	0.404261	0.038458	0.000128
H125	H	0.774169	0.605401	0.000166
H126	H	0.566888	0.542894	0.000065
N127	N	0.460395	0.408913	0.000017
H128	H	0.467140	0.504188	0.000008
H129	H	0.438038	0.379213	0.084748
H130	H	0.477158	0.158130	0.000045
