data_functionalizedCrystal
_audit_creation_method	'MofGen! by Chris Wilmer'
_symmetry_space_group_name_H-M	'P1'
_symmetry_Int_Tables_number	1
_symmetry_cell_setting	triclinic
loop_
_symmetry_equiv_pos_as_xyz
  x,y,z
_cell_length_a	12.827893
_cell_length_b	16.625545
_cell_length_c	12.827885
_cell_angle_alpha	90.033151
_cell_angle_beta	89.980538
_cell_angle_gamma	89.975993
loop_
_atom_site_label
_atom_site_type_symbol
_atom_site_fract_x
_atom_site_fract_y
_atom_site_fract_z
Zn1	Zn	1.597609	0.320962	-0.590826
Zn2	Zn	2.097609	0.820962	-0.090826
Zn3	Zn	1.597476	0.455816	-0.416076
Zn4	Zn	2.097476	0.955816	0.083924
Zn5	Zn	1.422850	0.321001	-0.416099
Zn6	Zn	1.922850	0.821001	0.083901
Zn7	Zn	1.422809	0.455756	-0.590776
Zn8	Zn	1.922809	0.955756	-0.090776
O9	O	1.510186	0.388384	-0.503444
O10	O	2.010186	0.888384	-0.003444
O11	O	1.743827	0.338859	-0.567656
O12	O	2.243827	0.838859	-0.067656
O13	O	1.574273	0.437975	-0.269843
O14	O	2.074273	0.937975	0.230157
O15	O	1.446104	0.208164	-0.439307
O16	O	1.946104	0.708164	0.060693
O17	O	1.743730	0.437936	-0.439268
O18	O	2.243730	0.937936	0.060732
O19	O	1.574499	0.208135	-0.567678
O20	O	2.074499	0.708135	-0.067678
O21	O	1.445976	0.338927	-0.269860
O22	O	1.945976	0.838927	0.230140
O23	O	1.276608	0.338868	-0.439259
O24	O	1.776608	0.838868	0.060741
O25	O	1.446035	0.437833	-0.737019
O26	O	1.946035	0.937833	-0.237019
O27	O	1.276578	0.437872	-0.567594
O28	O	1.776578	0.937872	-0.067594
O29	O	1.574460	0.338801	-0.737055
O30	O	2.074460	0.838801	-0.237055
O31	O	1.574233	0.568641	-0.439220
O32	O	2.074233	1.068641	0.060780
O33	O	1.445906	0.568596	-0.567572
O34	O	1.945906	1.068596	-0.067572
C35	C	1.238676	0.388368	-0.503424
C36	C	1.738676	0.888368	-0.003424
C37	C	1.122523	0.388381	-0.503441
C38	C	1.622523	0.888381	-0.003441
C39	C	1.070751	0.437448	-0.566847
C40	C	1.570751	0.937448	-0.066847
C41	C	0.950701	0.437462	-0.566865
C42	C	1.450701	0.937462	-0.066865
C43	C	1.510080	0.597875	-0.503411
C44	C	2.010080	1.097875	-0.003411
C45	C	1.510130	0.687496	-0.503431
C46	C	2.010130	1.187496	-0.003431
C47	C	1.510300	1.015671	-0.503556
C48	C	2.010300	1.515671	-0.003556
C49	C	1.510249	0.924363	-0.503524
C50	C	2.010249	1.424363	-0.003524
C51	C	1.510214	0.851587	-0.503493
C52	C	2.010214	1.351587	-0.003493
C53	C	1.510165	0.760272	-0.503463
C54	C	2.010165	1.260272	-0.003463
C55	C	1.782756	0.388400	-0.503465
C56	C	2.282756	0.888400	-0.003465
C57	C	1.898909	0.388407	-0.503474
C58	C	2.398909	0.888407	-0.003474
C59	C	1.510258	0.388306	-0.776015
C60	C	2.010258	0.888306	-0.276015
C61	C	1.510289	0.388272	-0.892168
C62	C	2.010289	0.888272	-0.392168
C63	C	1.510312	1.178075	-0.503513
C64	C	2.010312	1.678075	-0.003513
C65	C	1.510343	1.088454	-0.503574
C66	C	2.010343	1.588454	-0.003574
C67	C	1.573874	0.339225	-1.064015
C68	C	2.073874	0.839225	-0.564015
C69	C	1.573844	0.339258	-0.943965
C70	C	2.073844	0.839258	-0.443965
C71	C	1.510174	0.388404	-0.231934
C72	C	2.010174	0.888404	0.268066
C73	C	1.510346	0.388210	-0.115782
C74	C	2.010346	0.888210	0.384218
H75	H	0.906178	0.479472	-0.621146
H76	H	1.406178	0.979472	-0.121146
O77	O	1.645901	0.283707	-0.885009
O78	O	2.145901	0.783707	-0.385009
H79	H	1.634577	0.292456	-0.799969
H80	H	2.134577	0.792456	-0.299969
H81	H	1.628290	0.297266	-1.108572
H82	H	2.128290	0.797266	-0.608572
H83	H	1.115304	0.479442	-0.621121
H84	H	1.615304	0.979442	-0.121121
O85	O	0.957858	0.332757	-0.431552
O86	O	1.457858	0.832757	0.068448
H87	H	1.007619	0.291798	-0.478449
H88	H	1.507619	0.791798	0.021551
O89	O	1.063505	0.332756	-0.431548
O90	O	1.563505	0.832756	0.068452
H91	H	1.084410	0.269470	-0.449592
H92	H	1.584410	0.769470	0.050408
O93	O	1.438229	0.443826	-0.951118
O94	O	1.938229	0.943826	-0.451118
H95	H	1.485027	0.484808	-1.000835
H96	H	1.985027	0.984808	-0.500835
O97	O	1.438242	0.443783	-1.056780
O98	O	1.938242	0.943783	-0.556780
H99	H	1.456096	0.507080	-1.077641
H100	H	1.956096	1.007080	-0.577641
