data_functionalizedCrystal
_audit_creation_method	'MofGen! by Chris Wilmer'
_symmetry_space_group_name_H-M	'P1'
_symmetry_Int_Tables_number	1
_symmetry_cell_setting	triclinic
loop_
_symmetry_equiv_pos_as_xyz
  x,y,z
_cell_length_a	16.109302
_cell_length_b	15.995350
_cell_length_c	15.186229
_cell_angle_alpha	90.001513
_cell_angle_beta	90.005299
_cell_angle_gamma	83.477078
loop_
_atom_site_label
_atom_site_type_symbol
_atom_site_fract_x
_atom_site_fract_y
_atom_site_fract_z
O1	O	1.103159	0.107627	0.073264
O2	O	0.861101	0.121020	0.073256
O3	O	0.988747	-0.007566	0.073259
O4	O	0.975513	0.236213	0.073261
O5	O	0.988738	-0.007568	-0.073198
O6	O	0.861092	0.121018	-0.073201
O7	O	1.103151	0.107625	-0.073194
Zn8	Zn	0.982120	0.114321	-0.096451
Zn9	Zn	0.982131	0.114324	0.096513
O10	O	0.975505	0.236211	-0.073197
C11	C	0.830122	0.120476	0.000027
C12	C	0.737826	0.118850	0.000024
C13	C	0.988196	-0.038761	0.000032
C14	C	0.986555	-0.131711	0.000037
C15	C	0.525479	0.115087	-0.079801
C16	C	0.438759	0.113549	-0.079798
C17	C	0.438779	0.113556	0.079878
C18	C	0.525498	0.115087	0.079874
C19	C	0.568846	0.115857	0.000032
C20	C	0.395406	0.112788	0.000039
C21	C	0.301380	0.111121	0.000043
C22	C	0.662878	0.117523	0.000027
C23	C	0.980665	-0.469457	0.000034
C24	C	0.889758	-0.421999	0.000360
C25	C	0.891398	-0.325309	0.000030
C26	C	0.983587	-0.301898	0.000036
C27	C	1.028420	-0.342988	-0.083595
C28	C	1.026137	-0.439623	-0.083665
C29	C	1.028024	-0.439980	0.082884
C30	C	1.028003	-0.343035	0.083989
C31	C	0.985243	-0.207201	0.000034
C32	C	0.979012	-0.564155	0.000030
C33	C	1.134130	0.108169	0.000038
C34	C	1.226426	0.109796	0.000046
C35	C	0.976056	0.267407	0.000032
C36	C	0.977696	0.360357	0.000033
N37	N	0.982119	0.114319	-0.228143
C38	C	1.038660	0.057401	-0.453865
C39	C	1.038662	0.057399	-0.546054
C40	C	0.925593	0.171241	-0.546066
C41	C	0.925587	0.171238	-0.453878
C42	C	0.982125	0.114319	-0.407780
C43	C	0.982133	0.114320	-0.592157
C44	C	0.982136	0.114318	-0.692114
C45	C	0.982122	0.114319	-0.307817
N46	N	0.982140	0.114319	0.228206
H47	H	0.560770	0.115714	-0.144814
N48	N	0.569815	0.115873	0.161418
N49	N	0.647243	0.117234	0.161400
H50	H	0.678545	0.117783	0.218987
H51	H	1.084695	0.011052	-0.416334
H52	H	0.403474	0.112930	0.144882
H53	H	0.856156	-0.296877	0.059980
H54	H	0.997274	-0.314599	-0.145835
N55	N	0.844189	-0.445230	0.075604
N56	N	0.878175	-0.497039	0.129867
H57	H	0.845993	-0.513450	0.183014
H58	H	0.853581	-0.441584	-0.059282
N59	N	0.990749	-0.465714	0.162415
N60	N	1.020100	-0.447809	0.235333
H61	H	0.993767	-0.465982	0.291499
H62	H	0.855912	-0.297435	-0.060025
N63	N	0.394475	0.112757	-0.161354
N64	N	0.433192	0.113439	-0.232630
H65	H	0.401918	0.112878	-0.290233
N66	N	0.985114	-0.462565	-0.162098
N67	N	0.958365	-0.407233	-0.216403
H68	H	0.929390	-0.423431	-0.271798
N69	N	1.109865	-0.480094	-0.088432
N70	N	1.169798	-0.436942	-0.091702
H71	H	1.228930	-0.465520	-0.095075
N72	N	0.867849	0.229385	-0.406784
N73	N	0.867855	0.229374	-0.324474
H74	H	0.827080	0.270437	-0.291212
H75	H	1.096149	-0.328881	-0.086701
H76	H	0.995224	-0.315776	0.145858
H77	H	1.095231	-0.327691	0.089044
H78	H	1.095050	-0.471759	0.083451
N79	N	1.096413	-0.000752	-0.593115
N80	N	1.146882	-0.051568	-0.551941
H81	H	1.187670	-0.092642	-0.585177
H82	H	0.879562	0.217584	-0.583609
