data_functionalizedCrystal
_audit_creation_method	'MofGen! by Chris Wilmer'
_symmetry_space_group_name_H-M	'P1'
_symmetry_Int_Tables_number	1
_symmetry_cell_setting	triclinic
loop_
_symmetry_equiv_pos_as_xyz
  x,y,z
_cell_length_a	26.455835
_cell_length_b	26.455273
_cell_length_c	26.451828
_cell_angle_alpha	60.005170
_cell_angle_beta	60.010757
_cell_angle_gamma	59.993435
loop_
_atom_site_label
_atom_site_type_symbol
_atom_site_fract_x
_atom_site_fract_y
_atom_site_fract_z
O1	O	0.069940	-0.738516	0.617604
O2	O	0.569940	-0.238516	1.117604
O3	O	0.026299	-0.574986	0.497618
O4	O	0.526299	-0.074986	0.997618
O5	O	0.129847	-0.678463	0.497546
O6	O	0.629847	-0.178463	0.997546
O7	O	-0.033607	-0.635040	0.617676
O8	O	0.466393	-0.135040	1.117676
O9	O	0.164197	-0.644116	0.531822
O10	O	0.664197	-0.144116	1.031822
O11	O	0.060649	-0.540639	0.531894
O12	O	0.560649	-0.040639	1.031894
O13	O	0.104290	-0.704170	0.651880
O14	O	0.604290	-0.204170	1.151880
Cu15	Cu	0.085606	-0.619268	0.595016
Cu16	Cu	0.585606	-0.119268	1.095016
Cu17	Cu	0.044984	-0.659887	0.554481
Cu18	Cu	0.544984	-0.159887	1.054481
O19	O	0.000742	-0.600693	0.651952
O20	O	0.500742	-0.100693	1.151952
N21	N	0.114179	-0.590703	0.623530
N22	N	0.614179	-0.090703	1.123530
N23	N	0.016416	-0.688458	0.525968
N24	N	0.516416	-0.188458	1.025968
C25	C	0.157553	-0.547535	0.933368
C26	C	0.657553	-0.047535	1.433368
C27	C	0.424104	-0.547506	0.666656
C28	C	0.924104	-0.047506	1.166656
C29	C	0.157413	-0.547503	0.666729
C30	C	0.657413	-0.047503	1.166729
C31	C	0.157397	-0.280846	0.666749
C32	C	0.657397	0.219154	1.166749
C33	C	0.200330	-0.409550	0.709625
C34	C	0.700330	0.090450	1.209625
C35	C	0.200339	-0.504608	0.709615
C36	C	0.700339	-0.004608	1.209615
C37	C	0.224118	-0.480848	0.733375
C38	C	0.724118	0.019152	1.233375
C39	C	0.327800	-0.462984	0.678792
C40	C	0.827800	0.037016	1.178792
C41	C	0.392611	-0.484588	0.657175
C42	C	0.892611	0.015412	1.157175
C43	C	0.392630	-0.589450	0.697162
C44	C	0.892630	-0.089450	1.197162
C45	C	0.327821	-0.567844	0.718781
C46	C	0.827821	-0.067844	1.218781
C47	C	0.215955	-0.377135	0.645910
C48	C	0.715955	0.122865	1.145910
C49	C	0.194327	-0.312320	0.624323
C50	C	0.694327	0.187680	1.124323
C51	C	0.141457	-0.312339	0.730169
C52	C	0.641457	0.187661	1.230169
C53	C	0.163084	-0.377154	0.751756
C54	C	0.663084	0.122846	1.251756
C55	C	0.136618	-0.488954	0.725292
C56	C	0.636618	0.011046	1.225292
C57	C	0.115007	-0.510553	0.703686
C58	C	0.615007	-0.010553	1.203686
C59	C	0.220833	-0.563461	0.650740
C60	C	0.720833	-0.063461	1.150740
C61	C	0.242447	-0.541861	0.672339
C62	C	0.742447	-0.041861	1.172339
C63	C	0.136680	-0.488971	0.837094
C64	C	0.636680	0.011029	1.337094
C65	C	0.115112	-0.510589	0.901907
C66	C	0.615112	-0.010589	1.401907
C67	C	0.220969	-0.563508	0.901868
C68	C	0.720969	-0.063508	1.401868
C69	C	0.242535	-0.541892	0.837053
C70	C	0.742535	-0.041892	1.337053
C71	C	0.200389	-0.504622	0.804668
C72	C	0.700389	-0.004622	1.304668
C73	C	0.295409	-0.504610	0.709593
C74	C	0.795409	-0.004610	1.209593
C75	C	0.132990	-0.570876	1.004655
C76	C	0.632990	-0.070876	1.504655
C77	C	0.495389	-0.570440	0.642547
C78	C	0.995389	-0.070440	1.142547
C79	C	0.132802	-0.570856	0.643399
C80	C	0.632802	-0.070856	1.143399
C81	C	0.133212	-0.209553	0.643833
C82	C	0.633212	0.290447	1.143833
C83	C	-0.097217	-0.706972	0.506986
C84	C	0.402783	-0.206972	1.006986
C85	C	-0.002040	-0.707108	0.412067
C86	C	0.497960	-0.207108	0.912067
C87	C	-0.002230	-0.802124	0.507163
C88	C	0.497770	-0.302124	1.007163
C89	C	-0.002214	-0.707101	0.507221
C90	C	0.497786	-0.207101	1.007221
C91	C	-0.025925	-0.730827	0.483360
C92	C	0.474075	-0.230827	0.983360
N93	N	0.553723	-0.590712	0.623415
N94	N	1.053723	-0.090712	1.123415
O95	O	0.751638	-0.596429	0.475603
O96	O	1.251638	-0.096429	0.975603
O97	O	0.751819	-0.716773	0.638980
O98	O	1.251819	-0.216773	1.138980
O99	O	0.751753	-0.716500	0.535361
O100	O	1.251753	-0.216500	1.035361
O101	O	0.751705	-0.596703	0.579222
O102	O	1.251705	-0.096703	1.079222
O103	O	0.648791	-0.682239	0.569747
O104	O	1.148791	-0.182239	1.069747
O105	O	0.648858	-0.682512	0.673366
O106	O	1.148858	-0.182512	1.173366
O107	O	0.648676	-0.562169	0.509989
O108	O	1.148676	-0.062169	1.009989
Cu109	Cu	0.639366	-0.619212	0.594817
Cu110	Cu	1.139366	-0.119212	1.094817
Cu111	Cu	0.761130	-0.659729	0.554152
Cu112	Cu	1.261130	-0.159729	1.054152
O113	O	0.648743	-0.562442	0.613609
O114	O	1.148743	-0.062442	1.113609
N115	N	0.846773	-0.688230	0.525548
N116	N	1.346773	-0.188230	1.025548
N117	N	0.114157	-0.151217	0.623565
N118	N	0.614157	0.348783	1.123565
O119	O	-0.033591	0.046803	0.617717
O120	O	0.466409	0.546803	1.117717
O121	O	0.129795	0.046806	0.497390
O122	O	0.629795	0.546806	0.997390
O123	O	0.026157	0.046789	0.497680
O124	O	0.526157	0.546789	0.997680
O125	O	0.070046	0.046819	0.617427
O126	O	0.570046	0.546819	1.117427
O127	O	0.060509	-0.056181	0.532004
O128	O	0.560509	0.443819	1.032004
O129	O	0.164146	-0.056164	0.531714
O130	O	0.664146	0.443836	1.031714
O131	O	0.000760	-0.056167	0.652041
O132	O	0.500760	0.443833	1.152041
Cu133	Cu	0.085590	-0.065568	0.595012
Cu134	Cu	0.585590	0.434432	1.095012
Cu135	Cu	0.044965	0.056206	0.554419
Cu136	Cu	0.544965	0.556206	1.054419
O137	O	0.104397	-0.056151	0.651751
O138	O	0.604397	0.443849	1.151751
N139	N	0.016390	0.141855	0.525867
N140	N	0.516390	0.641855	1.025867
N141	N	0.114410	-0.590756	1.062992
N142	N	0.614410	-0.090756	1.562992
O143	O	0.108565	-0.738494	1.260998
O144	O	0.608565	-0.238494	1.760998
O145	O	-0.011747	-0.575059	1.261012
O146	O	0.488253	-0.075059	1.761012
O147	O	-0.011470	-0.678679	1.260970
O148	O	0.488530	-0.178679	1.760970
O149	O	0.108287	-0.634874	1.261040
O150	O	0.608287	-0.134874	1.761040
O151	O	0.022849	-0.644347	1.158004
O152	O	0.522849	-0.144347	1.658004
O153	O	0.022572	-0.540726	1.158046
O154	O	0.522572	-0.040726	1.658046
O155	O	0.142884	-0.704162	1.158033
O156	O	0.642884	-0.204162	1.658033
Cu157	Cu	0.085861	-0.619309	1.148638
Cu158	Cu	0.585861	-0.119309	1.648638
Cu159	Cu	0.045275	-0.659911	1.270406
Cu160	Cu	0.545275	-0.159911	1.770406
O161	O	0.142606	-0.600541	1.158074
O162	O	0.642606	-0.100541	1.658074
N163	N	0.016726	-0.688471	1.356052
N164	N	0.516726	-0.188471	1.856052
C165	C	0.039385	-0.537207	0.498225
C166	C	0.539385	-0.037207	0.998225
C167	C	0.167616	-0.665350	0.498136
C168	C	0.667616	-0.165350	0.998136
C169	C	0.091204	-0.741950	0.651272
C170	C	0.591204	-0.241950	1.151272
C171	C	-0.037027	-0.613806	0.651361
C172	C	0.462973	-0.113806	1.151361
C173	C	0.700360	-0.716215	0.676756
C174	C	1.200360	-0.216215	1.176756
C175	C	0.700279	-0.715877	0.548436
C176	C	1.200279	-0.215877	1.048436
C177	C	0.700133	-0.562725	0.472214
C178	C	1.200133	-0.062725	0.972214
C179	C	0.700218	-0.563065	0.600533
C180	C	1.200218	-0.063065	1.100533
C181	C	0.167511	-0.004552	0.497940
C182	C	0.667511	0.495448	0.997940
C183	C	0.039211	-0.004699	0.498341
C184	C	0.539211	0.495301	0.998341
C185	C	-0.036999	-0.004682	0.651449
C186	C	0.463001	0.495318	1.151449
C187	C	0.091344	-0.004663	0.651090
C188	C	0.591344	0.495337	1.151090
C189	C	-0.011156	-0.537302	1.209530
C190	C	0.488844	-0.037302	1.709530
C191	C	-0.010806	-0.665617	1.209458
C192	C	0.489194	-0.165617	1.709458
C193	C	0.142293	-0.741918	1.209514
C194	C	0.642293	-0.241918	1.709514
C195	C	0.141950	-0.613596	1.209563
C196	C	0.641950	-0.113596	1.709563
H197	H	0.102355	-0.458618	0.810728
H198	H	0.602355	0.041382	1.310728
H199	H	0.700073	-0.524942	0.425295
H200	H	1.200073	-0.024942	0.925295
H201	H	0.214562	-0.674609	0.460411
H202	H	0.714562	-0.174609	0.960411
H203	H	0.100739	-0.004653	0.688708
H204	H	0.600739	0.495347	1.188708
H205	H	0.100526	-0.788925	0.688956
H206	H	0.600526	-0.288925	1.188956
O207	O	0.700230	-0.518108	0.611614
O208	O	1.200230	-0.018108	1.111614
C209	C	0.700148	-0.464665	0.558469
C210	C	1.200148	0.035335	1.058469
H211	H	0.719617	-0.478174	0.515898
H212	H	1.219617	0.021826	1.015898
H213	H	0.730028	-0.441589	0.553036
H214	H	1.230028	0.058411	1.053036
H215	H	0.650735	-0.431015	0.563500
H216	H	1.150735	0.068985	1.063500
O217	O	0.187435	-0.797871	1.209483
O218	O	0.687435	-0.297871	1.709483
C219	C	0.240711	-0.797875	1.209523
C220	C	0.740711	-0.297875	1.709523
H221	H	0.239976	-0.748214	1.190045
H222	H	0.739976	-0.248214	1.690045
H223	H	0.283804	-0.825405	1.179629
H224	H	0.783804	-0.325405	1.679629
H225	H	0.241435	-0.820009	1.258927
H226	H	0.741435	-0.320009	1.758927
O227	O	-0.093058	-0.602656	0.696310
O228	O	0.406942	-0.102656	1.196310
C229	C	-0.131531	-0.541826	0.673919
C230	C	0.368469	-0.041826	1.173919
H231	H	-0.101715	-0.512429	0.634160
H232	H	0.398285	-0.012429	1.134160
H233	H	-0.161191	-0.521093	0.712769
H234	H	0.338809	-0.021093	1.212769
H235	H	-0.162796	-0.542765	0.656723
H236	H	0.337204	-0.042765	1.156723
O237	O	-0.056162	-0.481280	1.209561
O238	O	0.443838	0.018720	1.709561
C239	C	-0.033874	-0.442755	1.209569
C240	C	0.466126	0.057245	1.709569
H241	H	0.005866	-0.472532	1.229073
H242	H	0.505866	0.027468	1.729073
H243	H	-0.072782	-0.413091	1.239466
H244	H	0.427218	0.086909	1.739466
H245	H	-0.016684	-0.411490	1.160177
H246	H	0.483316	0.088510	1.660177
O247	O	0.223427	-0.004292	0.452835
O248	O	0.723427	0.495708	0.952835
C249	C	0.270326	-0.057506	0.473753
C250	C	0.770326	0.442494	0.973753
H251	H	0.253463	-0.075483	0.526523
H252	H	0.753463	0.424517	1.026523
H253	H	0.313382	-0.045274	0.455620
H254	H	0.813382	0.454726	0.955620
H255	H	0.282057	-0.094791	0.456032
H256	H	0.782057	0.405209	0.956032
H257	H	0.029814	-0.004702	0.460721
H258	H	0.529814	0.495298	0.960721
O259	O	-0.092932	-0.004708	0.696595
O260	O	0.407068	0.495292	1.196595
C261	C	-0.092903	-0.004680	0.749869
C262	C	0.407097	0.495320	1.249869
H263	H	-0.043236	-0.024169	0.749131
H264	H	0.456764	0.475831	1.249131
H265	H	-0.120415	-0.034573	0.792966
H266	H	0.379585	0.465427	1.292966
H267	H	-0.115034	0.044723	0.750588
H268	H	0.384966	0.544723	1.250588
H269	H	0.030065	-0.490230	0.460543
H270	H	0.530065	0.009770	0.960543
O271	O	-0.055595	-0.676865	1.209353
O272	O	0.444405	-0.176865	1.709353
C273	C	-0.033046	-0.737725	1.209337
C274	C	0.466954	-0.237725	1.709337
H275	H	0.019688	-0.754036	1.189887
H276	H	0.519688	-0.254036	1.689887
H277	H	-0.051861	-0.738593	1.179390
H278	H	0.448139	-0.238593	1.679390
H279	H	-0.048731	-0.769757	1.258719
H280	H	0.451269	-0.269757	1.758719
O281	O	0.186897	-0.602532	1.209605
O282	O	0.686897	-0.102532	1.709605
C283	C	0.240328	-0.655700	1.209587
C284	C	0.740328	-0.155700	1.709587
H285	H	0.226812	-0.698261	1.229068
H286	H	0.726812	-0.198261	1.729068
H287	H	0.263387	-0.661127	1.239489
H288	H	0.763387	-0.161127	1.739489
H289	H	0.273991	-0.650705	1.160189
H290	H	0.773991	-0.150705	1.660189
O291	O	0.053200	-0.495295	0.933303
O292	O	0.553200	0.004705	1.433303
C293	C	0.020631	-0.457776	0.890817
C294	C	0.520631	0.042224	1.390817
H295	H	0.051526	-0.434215	0.844613
H296	H	0.551526	0.065785	1.344613
H297	H	-0.022615	-0.421104	0.909556
H298	H	0.477385	0.078896	1.409556
H299	H	0.006647	-0.487670	0.883927
H300	H	0.506647	0.012330	1.383927
H301	H	0.294416	-0.554643	0.810656
H302	H	0.794416	-0.054643	1.310656
O303	O	0.261935	-0.599788	0.933294
O304	O	0.761935	-0.099788	1.433294
C305	C	0.299423	-0.654134	0.917426
C306	C	0.799423	-0.154134	1.417426
H307	H	0.274387	-0.663151	0.899622
H308	H	0.774387	-0.163151	1.399622
H309	H	0.309256	-0.694965	0.960037
H310	H	0.809256	-0.194965	1.460037
H311	H	0.344939	-0.648234	0.879791
H312	H	0.844939	-0.148234	1.379791
O313	O	0.095689	-0.452676	0.761406
O314	O	0.595689	0.047324	1.261406
C315	C	0.058185	-0.398320	0.728701
C316	C	0.558185	0.101680	1.228701
H317	H	0.083189	-0.389300	0.676845
H318	H	0.583189	0.110700	1.176845
H319	H	0.048386	-0.357497	0.740304
H320	H	0.548386	0.142503	1.240304
H321	H	0.012652	-0.404208	0.742507
H322	H	0.512652	0.095792	1.242507
O323	O	0.053124	-0.495461	0.718935
O324	O	0.553124	0.004539	1.218935
C325	C	0.037487	-0.549924	0.751566
C326	C	0.537487	-0.049924	1.251566
H327	H	0.080203	-0.590643	0.739857
H328	H	0.580203	-0.090643	1.239857
H329	H	-0.000108	-0.544128	0.737785
H330	H	0.499892	-0.044128	1.237785
H331	H	0.019719	-0.559041	0.803440
H332	H	0.519719	-0.059041	1.303440
O333	O	0.261770	-0.599554	0.614443
O334	O	0.761770	-0.099554	1.114443
C335	C	0.299222	-0.566815	0.560098
C336	C	0.799222	-0.066815	1.060098
H337	H	0.274173	-0.514963	0.551105
H338	H	0.774173	-0.014963	1.051105
H339	H	0.309017	-0.578400	0.519263
H340	H	0.809017	-0.078400	1.019263
H341	H	0.344759	-0.580609	0.565982
H342	H	0.844759	-0.080609	1.065982
O343	O	0.304337	-0.556951	0.657046
O344	O	0.804337	-0.056951	1.157046
C345	C	0.319962	-0.502483	0.624444
C346	C	0.819962	-0.002483	1.124444
H347	H	0.283404	-0.463550	0.602526
H348	H	0.783404	0.036450	1.102526
H349	H	0.367002	-0.511008	0.586666
H350	H	0.867002	-0.011008	1.086666
H351	H	0.322116	-0.488845	0.657778
H352	H	0.822116	0.011155	1.157778
O353	O	0.700529	-0.761306	0.732706
O354	O	1.200529	-0.261306	1.232706
C355	C	0.753860	-0.775645	0.743799
C356	C	1.253860	-0.275645	1.243799
H357	H	0.791096	-0.761916	0.697836
H358	H	1.291096	-0.261916	1.197836
H359	H	0.771805	-0.827489	0.768803
H360	H	1.271805	-0.327489	1.268803
H361	H	0.741804	-0.749126	0.773726
H362	H	1.241804	-0.249126	1.273726
O363	O	0.296450	-0.608363	0.748664
O364	O	0.796450	-0.108363	1.248664
C365	C	0.338959	-0.668808	0.752145
C366	C	0.838959	-0.168808	1.252145
H367	H	0.385146	-0.666343	0.713858
H368	H	0.885146	-0.166343	1.213858
H369	H	0.320227	-0.695408	0.746281
H370	H	0.820227	-0.195408	1.246281
H371	H	0.345878	-0.693552	0.799109
H372	H	0.845878	-0.193552	1.299109
O373	O	0.700188	-0.760720	0.537250
O374	O	1.200188	-0.260720	1.037250
C375	C	0.646848	-0.739412	0.522693
C376	C	1.146848	-0.239412	1.022693
H377	H	0.609567	-0.700983	0.542697
H378	H	1.109567	-0.200983	1.042697
H379	H	0.628985	-0.779300	0.543348
H380	H	1.128985	-0.279300	1.043348
H381	H	0.658859	-0.720724	0.470266
H382	H	1.158859	-0.220724	0.970266
O383	O	0.424151	-0.650856	0.705970
O384	O	0.924151	-0.150856	1.205970
C385	C	0.461629	-0.659660	0.648114
C386	C	0.961629	-0.159660	1.148114
H387	H	0.442073	-0.618626	0.610752
H388	H	0.942073	-0.118626	1.110752
H389	H	0.462371	-0.703987	0.649926
H390	H	0.962371	-0.203987	1.149926
H391	H	0.510748	-0.663487	0.636881
H392	H	1.010748	-0.163487	1.136881
H393	H	0.301415	-0.411495	0.671309
H394	H	0.801415	0.088505	1.171309
O395	O	0.423982	-0.444065	0.627241
O396	O	0.923982	0.055935	1.127241
C397	C	0.381475	-0.383622	0.623781
C398	C	0.881475	0.116378	1.123781
H399	H	0.335271	-0.381094	0.628036
H400	H	0.835271	0.118906	1.128036
H401	H	0.400183	-0.349370	0.577458
H402	H	0.900183	0.150630	1.077458
H403	H	0.374600	-0.371523	0.663048
H404	H	0.874600	0.128477	1.163048
H405	H	0.207047	-0.285927	0.572438
H406	H	0.707047	0.214073	1.072438
O407	O	0.252103	-0.408510	0.604904
O408	O	0.752103	0.091490	1.104904
C409	C	0.261261	-0.365999	0.544036
C410	C	0.761261	0.134001	1.044036
H411	H	0.222179	-0.319800	0.544168
H412	H	0.722179	0.180200	1.044168
H413	H	0.261581	-0.384720	0.513270
H414	H	0.761581	0.115280	1.013270
H415	H	0.307427	-0.359102	0.525451
H416	H	0.807427	0.140898	1.025451
H417	H	0.111138	-0.285961	0.764475
H418	H	0.611138	0.214039	1.264475
H419	H	0.150353	-0.403547	0.803641
H420	H	0.650353	0.096453	1.303641
