data_functionalizedCrystal
_audit_creation_method	'MofGen! by Chris Wilmer'
_symmetry_space_group_name_H-M	'P1'
_symmetry_Int_Tables_number	1
_symmetry_cell_setting	triclinic
loop_
_symmetry_equiv_pos_as_xyz
  x,y,z
_cell_length_a	16.625547
_cell_length_b	16.120484
_cell_length_c	16.120297
_cell_angle_alpha	95.614431
_cell_angle_beta	92.874036
_cell_angle_gamma	92.925712
loop_
_atom_site_label
_atom_site_type_symbol
_atom_site_fract_x
_atom_site_fract_y
_atom_site_fract_z
Zn1	Zn	1.191152	-0.356754	-0.489547
Zn2	Zn	1.191051	-0.489444	-0.356858
Zn3	Zn	1.063517	-0.349689	-0.349783
Zn4	Zn	1.049081	-0.496484	-0.496569
O5	O	1.123700	-0.423093	-0.423189
O6	O	1.303970	-0.374366	-0.471968
O7	O	1.180132	-0.465002	-0.238958
O8	O	1.086532	-0.233661	-0.362424
O9	O	1.303895	-0.471852	-0.374481
O10	O	1.180306	-0.238852	-0.465108
O11	O	1.086434	-0.362325	-0.233760
O12	O	0.948771	-0.369152	-0.369233
O13	O	1.061928	-0.483852	-0.612599
O14	O	0.938165	-0.477001	-0.477076
O15	O	1.166307	-0.381193	-0.607440
O16	O	1.166134	-0.607343	-0.381290
O17	O	1.061829	-0.612515	-0.483935
C18	C	0.914212	-0.423075	-0.423149
C19	C	0.824590	-0.423088	-0.423152
C20	C	0.751807	-0.423090	-0.423163
C21	C	0.660498	-0.423096	-0.423184
C22	C	0.587720	-0.423104	-0.423206
C23	C	0.496404	-0.423111	-0.423226
C24	C	1.112425	-0.640258	-0.434160
C25	C	1.107674	-0.733163	-0.438882
C26	C	1.099003	-0.903263	-0.447519
C27	C	1.148542	-0.942083	-0.398873
C28	C	1.143717	-1.036732	-0.403679
C29	C	1.103826	-0.808605	-0.442715
C30	C	1.334006	-0.423112	-0.423230
C31	C	1.423626	-0.423120	-0.423248
C32	C	1.112518	-0.434096	-0.641194
C33	C	1.107753	-0.438784	-0.734095
C34	C	1.135041	-0.205081	-0.412193
C35	C	1.139873	-0.112177	-0.407508
C36	C	1.099025	-0.447326	-0.904184
C37	C	1.148547	-0.398609	-0.943033
C38	C	1.143691	-0.403362	-1.037677
C39	C	1.103880	-0.442574	-0.809532
C40	C	1.134888	-0.412073	-0.206029
C41	C	1.139822	-0.407149	-0.113117
H42	H	1.194576	-0.904232	-0.353615
Br43	Br	1.022278	-0.966346	-0.522946
H44	H	1.052984	-0.492600	-0.942002
H45	H	1.194592	-0.353331	-0.905213
