data_functionalizedCrystal
_audit_creation_method	'MofGen! by Chris Wilmer'
_symmetry_space_group_name_H-M	'P1'
_symmetry_Int_Tables_number	1
_symmetry_cell_setting	triclinic
loop_
_symmetry_equiv_pos_as_xyz
  x,y,z
_cell_length_a	10.654550
_cell_length_b	11.792241
_cell_length_c	9.730223
_cell_angle_alpha	89.995449
_cell_angle_beta	89.999957
_cell_angle_gamma	84.339173
loop_
_atom_site_label
_atom_site_type_symbol
_atom_site_fract_x
_atom_site_fract_y
_atom_site_fract_z
O1	O	1.667388	0.159420	-0.114188
O2	O	1.301867	0.174608	-0.114213
O3	O	1.493498	0.001864	-0.114190
O4	O	1.475757	0.332164	-0.114211
O5	O	1.493485	0.001859	0.114390
O6	O	1.301854	0.174603	0.114367
O7	O	1.667376	0.159415	0.114392
Zn8	Zn	1.484613	0.167008	0.150671
Zn9	Zn	1.484629	0.167015	-0.150493
O10	O	1.475745	0.332159	0.114369
C11	C	1.255066	0.173491	0.000074
C12	C	1.115632	0.170154	0.000064
C13	C	1.492377	-0.040432	0.000099
C14	C	1.489042	-0.166453	0.000098
C15	C	1.035859	0.271863	0.000062
C16	C	0.904847	0.268721	0.000086
C17	C	0.933394	0.062152	0.000109
C18	C	1.064403	0.065295	0.000095
C19	C	1.482908	-0.397180	0.000074
C20	C	1.486316	-0.268787	0.000087
C21	C	1.714177	0.160533	0.000102
C22	C	1.853611	0.163869	0.000103
C23	C	1.476865	0.374455	0.000077
C24	C	1.480201	0.500477	0.000069
N25	N	1.484611	0.167003	0.356208
N26	N	1.484641	0.167011	-0.356029
C27	C	1.569494	0.090545	0.428144
C28	C	1.569507	0.090545	0.572027
C29	C	1.399749	0.243473	0.572025
C30	C	1.399731	0.243466	0.428145
H31	H	0.839900	0.351543	0.000087
O32	O	1.317133	0.317634	0.641849
C33	C	1.099222	0.382345	0.685840
C34	C	1.192645	0.298274	0.606706
H35	H	0.998554	0.366738	0.657434
H36	H	1.113709	0.369216	0.801048
H37	H	1.116255	0.473385	0.657549
H38	H	1.175669	0.207200	0.634881
H39	H	1.178136	0.311501	0.491517
O40	O	1.317397	0.317903	0.358321
C41	C	1.245079	0.514643	0.314327
C42	C	1.338410	0.430479	0.393462
H43	H	1.262017	0.605678	0.342732
H44	H	1.259642	0.501600	0.199119
H45	H	1.144409	0.498947	0.342619
H46	H	1.439117	0.446123	0.365286
H47	H	1.323737	0.443541	0.508651
H48	H	1.638625	0.028285	0.630593
O49	O	1.085415	0.373815	0.000105
C50	C	1.043266	0.578371	0.000012
C51	C	0.986982	0.462986	-0.000010
H52	H	0.963710	0.650496	-0.000110
H53	H	1.103852	0.585084	0.095687
H54	H	1.103921	0.584949	-0.095634
H55	H	0.926270	0.456331	0.095571
H56	H	0.926469	0.456324	-0.095748
O57	O	1.141852	-0.033542	-0.000149
C58	C	1.206285	-0.209165	-0.118511
C59	C	1.118525	-0.097270	-0.118429
H60	H	1.187437	-0.260731	-0.214115
H61	H	1.308744	-0.188971	-0.118609
H62	H	1.187582	-0.260666	-0.022799
H63	H	1.137115	-0.045714	-0.214124
H64	H	1.016095	-0.117544	-0.118259
O65	O	0.883566	-0.039673	-0.000118
C66	C	0.752149	-0.163072	-0.118476
C67	C	0.808516	-0.047726	-0.118401
H68	H	0.691438	-0.169611	-0.214084
H69	H	0.831622	-0.235275	-0.118563
H70	H	0.691586	-0.169691	-0.022768
H71	H	0.869065	-0.040996	-0.214094
H72	H	0.728983	0.024421	-0.118243
O73	O	1.651981	0.016156	0.358476
C74	C	1.820403	-0.135487	0.373671
C75	C	1.727035	-0.051316	0.452734
H76	H	1.881126	-0.190043	0.449844
H77	H	1.765858	-0.192727	0.306366
H78	H	1.883407	-0.085938	0.306254
H79	H	1.664008	-0.100772	0.520226
H80	H	1.781659	0.005924	0.519953
