data_functionalizedCrystal
_audit_creation_method	'MofGen! by Chris Wilmer'
_symmetry_space_group_name_H-M	'P1'
_symmetry_Int_Tables_number	1
_symmetry_cell_setting	triclinic
loop_
_symmetry_equiv_pos_as_xyz
  x,y,z
_cell_length_a	23.096457
_cell_length_b	20.919151
_cell_length_c	20.919309
_cell_angle_alpha	60.700880
_cell_angle_beta	89.999751
_cell_angle_gamma	58.214850
loop_
_atom_site_label
_atom_site_type_symbol
_atom_site_fract_x
_atom_site_fract_y
_atom_site_fract_z
Zr1	Zr	0.525489	0.731863	-0.119841
O2	O	0.430139	0.864533	-0.225290
O3	O	0.559404	0.593587	-0.082320
O4	O	0.557683	0.723782	-0.217803
O5	O	0.427888	0.742669	0.011155
O6	O	0.652964	0.723783	-0.217807
O7	O	0.431859	0.734339	-0.089807
O8	O	0.656041	0.490889	0.024548
O9	O	0.424810	0.975563	-0.231200
O10	O	0.639315	0.652539	-0.072597
O11	O	0.565244	0.658754	0.002752
O12	O	0.563219	0.812041	-0.156762
O13	O	0.489148	0.818256	-0.081412
Zr14	Zr	0.671116	0.745150	0.041176
Zr15	Zr	0.677451	0.731866	-0.119847
Zr16	Zr	0.519155	0.745148	0.041182
Zr17	Zr	0.516991	0.908942	-0.129266
Zr18	Zr	0.679615	0.568071	0.050601
O19	O	0.637202	0.883426	0.003655
O20	O	0.646208	0.864537	-0.225299
O21	O	0.421133	0.883422	0.003663
O22	O	0.766467	0.612480	0.146625
O23	O	0.775473	0.593591	-0.082329
O24	O	0.550397	0.612476	0.146633
O25	O	0.768718	0.734345	-0.089820
O26	O	0.638922	0.753232	0.139138
O27	O	0.543642	0.753230	0.139142
O28	O	0.764746	0.742674	0.011142
O29	O	0.545599	0.975565	-0.231205
O30	O	0.651006	0.501448	0.152539
O31	O	0.771795	0.501450	0.152534
O32	O	0.776830	0.490891	0.024543
O33	O	0.419776	0.986122	-0.103208
O34	O	0.540565	0.986124	-0.103213
O35	O	0.633387	0.664972	0.078096
O36	O	0.707458	0.658757	0.002747
O37	O	0.631361	0.818259	-0.081418
O38	O	0.557291	0.824474	-0.006068
C39	C	0.608933	0.517008	-0.027543
C40	C	0.612541	0.441834	-0.023542
C41	C	0.560995	0.463114	-0.080549
C42	C	0.564388	0.392491	-0.076817
C43	C	0.619324	0.300588	-0.016073
C44	C	0.670875	0.279307	0.040937
C45	C	0.667485	0.349930	0.037201
C46	C	0.632226	0.084522	-0.001849
C47	C	0.635611	0.013899	0.001884
C48	C	0.529124	0.127087	-0.115872
C49	C	0.525736	0.197706	-0.119600
C50	C	0.577289	0.176420	-0.062592
C51	C	0.622791	0.228398	-0.012255
C52	C	0.573824	0.248609	-0.066414
C53	C	0.408222	0.738503	-0.039325
C54	C	0.343711	0.738502	-0.039323
C55	C	0.353127	0.655246	0.004603
C56	C	0.292511	0.655245	0.004606
C57	C	0.222481	0.738504	-0.039331
C58	C	0.213067	0.821772	-0.083259
C59	C	0.273682	0.821771	-0.083255
N60	N	0.099113	0.797613	-0.106770
N61	N	0.041533	0.797607	-0.106773
C62	C	0.039848	0.738511	-0.039345
N63	N	0.097924	0.679406	0.028086
N64	N	0.155509	0.679408	0.028087
C65	C	0.156749	0.738514	-0.039340
C66	C	-0.016460	0.655248	0.004589
C67	C	-0.077078	0.655251	0.004594
C68	C	-0.156523	0.821779	-0.083279
C69	C	-0.095904	0.821775	-0.083277
C70	C	-0.025875	0.738506	-0.039345
C71	C	0.788383	0.738510	-0.039340
C72	C	0.852895	0.738511	-0.039343
C73	C	0.606226	0.721890	-0.240747
C74	C	0.608915	0.716250	-0.309106
C75	C	0.587672	0.960005	-0.051122
C76	C	0.584065	1.035180	-0.055123
C77	C	0.570458	0.796857	-0.385153
C78	C	0.572994	0.791552	-0.449380
C79	C	0.613983	0.705640	-0.437558
C80	C	0.652445	0.625027	-0.361502
C81	C	0.649912	0.630332	-0.297277
C82	C	0.623620	0.685456	-0.629279
C83	C	0.626148	0.680156	-0.693512
C84	C	0.546698	0.846682	-0.781386
C85	C	0.544166	0.851980	-0.717155
C86	C	0.582630	0.771367	-0.641106
C87	C	0.616575	0.700216	-0.503207
C88	C	0.580043	0.776792	-0.575458
C89	C	0.590380	0.755124	0.162082
C90	C	0.587691	0.760763	0.230440
C91	C	0.799014	0.517011	-0.027551
C92	C	0.867133	0.441838	-0.023552
C93	C	0.601010	0.533625	0.173872
C94	C	0.601929	0.464090	0.246231
C95	C	0.791091	0.533628	0.173864
C96	C	0.856521	0.464094	0.246221
C97	C	0.405515	0.943385	-0.252529
C98	C	0.340085	1.012919	-0.324886
C99	C	0.397592	0.960002	-0.051115
C100	C	0.329473	1.035175	-0.055113
C101	C	0.595596	0.943388	-0.252537
C102	C	0.594677	1.012923	-0.324896
C103	C	0.863553	0.403290	-0.061010
C104	C	0.927553	0.332665	-0.057268
C105	C	0.995132	0.300585	-0.016064
C106	C	0.998710	0.339140	0.021395
C107	C	0.934711	0.409768	0.017648
C108	C	0.637930	0.434682	0.319547
C109	C	0.638790	0.369357	0.387542
C110	C	0.603653	0.333437	0.382220
C111	C	0.567647	0.362851	0.308896
C112	C	0.566783	0.428180	0.240902
C113	C	0.925918	0.428196	0.240869
C114	C	0.987403	0.362871	0.308849
C115	C	0.979488	0.333441	0.382181
C116	C	0.910084	0.369346	0.387531
C117	C	0.848601	0.434674	0.319552
C118	C	0.270687	1.048825	-0.319535
C119	C	0.209202	1.114172	-0.387516
C120	C	0.217116	1.143607	-0.460848
C121	C	0.286521	1.107697	-0.466198
C122	C	0.348004	1.042356	-0.398218
C123	C	0.333052	1.073730	-0.017663
C124	C	0.269053	1.144373	-0.021423
C125	C	0.201473	1.176455	-0.062630
C126	C	0.197895	1.137897	-0.100085
C127	C	0.261894	1.067260	-0.096329
C128	C	0.629821	1.048823	-0.319549
C129	C	0.628972	1.114149	-0.387531
C130	C	0.592973	1.143580	-0.460862
C131	C	0.557828	1.107673	-0.466208
C132	C	0.558682	1.042343	-0.398225
H133	H	0.487153	0.144408	-0.162285
F134	F	0.528468	0.459467	0.162876
F135	F	0.696071	0.533592	-0.348921
F136	F	0.666376	1.152357	-0.381825
H137	H	1.047239	0.243074	-0.013018
F138	F	0.668139	1.017513	-0.241512
H139	H	0.924625	0.301281	-0.087772
H140	H	0.515383	0.912313	-0.843310
H141	H	0.300179	0.587445	0.040377
H142	H	0.659525	0.610193	-0.683877
H143	H	0.149367	1.233973	-0.065682
F144	F	0.938532	0.450782	0.057524
H145	H	0.592283	1.196776	-0.516211
F146	F	1.070639	0.304986	0.065247
F147	F	0.519513	1.139010	-0.544258
H148	H	0.539040	0.333595	0.304574
H149	H	0.266009	0.889571	-0.119023
F150	F	0.681254	0.130584	0.052394
F151	F	0.690850	0.544539	-0.216339
F152	F	0.604579	0.263907	0.454592
F153	F	0.694085	-0.083917	0.066538
H154	H	-0.213542	0.889571	-0.119054
H155	H	0.530060	1.013120	-0.402591
H156	H	0.792097	0.463894	0.323920
H157	H	0.258970	1.035870	-0.126824
H158	H	1.043910	0.333644	0.304479
H159	H	0.537076	0.866816	-0.394789
F160	F	0.502521	0.560923	-0.145199
F161	F	1.044931	0.263910	0.454526
H162	H	0.264230	1.024863	-0.259830
F163	F	0.294932	1.139031	-0.544250
H164	H	0.932376	0.452149	0.181165
F165	F	0.791637	0.437420	-0.104870
F166	F	0.687090	0.061858	0.058829
F167	F	0.729344	0.181495	0.105584
F168	F	0.722350	0.327277	0.097874
H169	H	-0.103575	0.889571	-0.119051
F170	F	0.509523	0.415146	-0.137491
F171	F	0.536424	0.868223	-0.588038
H172	H	0.654941	0.619815	-0.567364
H173	H	0.388073	1.047615	0.015897
H174	H	0.649948	0.630266	-0.493589
F175	F	0.901672	0.338014	0.465583
F176	F	0.427654	0.566624	0.051364
F177	F	0.467262	0.295516	-0.184248
H178	H	0.152695	1.143399	-0.383145
H179	H	0.271980	1.175756	0.009081
F180	F	0.421861	1.004143	-0.403925
H181	H	0.142864	1.164029	-0.133635
F182	F	0.151672	1.213149	-0.533194
H183	H	0.529098	0.323439	-0.115873
H184	H	0.156043	0.889562	-0.119032
H185	H	-0.069405	0.587451	0.040369
F186	F	0.058072	0.566628	0.051348
H187	H	0.510790	0.921939	-0.726790
F188	F	0.532062	0.877346	-0.530316
H189	H	0.668112	0.345416	0.447239
F190	F	0.675333	0.472897	0.325230
