data_functionalizedCrystal
_audit_creation_method	'MofGen! by Chris Wilmer'
_symmetry_space_group_name_H-M	'P1'
_symmetry_Int_Tables_number	1
_symmetry_cell_setting	triclinic
loop_
_symmetry_equiv_pos_as_xyz
  x,y,z
_cell_length_a	27.732048
_cell_length_b	12.837943
_cell_length_c	26.809956
_cell_angle_alpha	90.022695
_cell_angle_beta	89.988846
_cell_angle_gamma	91.264202
loop_
_atom_site_label
_atom_site_type_symbol
_atom_site_fract_x
_atom_site_fract_y
_atom_site_fract_z
O1	O	0.125566	-1.373472	-0.041482
O2	O	0.119363	-1.071765	-0.041484
O3	O	0.052532	-1.231989	-0.041474
O4	O	0.192397	-1.213248	-0.041493
O5	O	0.052527	-1.231917	0.041486
O6	O	0.119358	-1.071693	0.041475
O7	O	0.125561	-1.373399	0.041477
Zn8	Zn	0.122459	-1.222535	0.054648
Zn9	Zn	0.122465	-1.222630	-0.054655
O10	O	0.192392	-1.213176	0.041466
C11	C	0.117265	-1.033142	-0.000005
C12	C	0.111016	-0.918165	-0.000005
C13	C	0.034503	-1.231559	0.000007
C14	C	-0.019210	-1.230375	0.000011
C15	C	0.127659	-1.412023	-0.000003
C16	C	0.133908	-1.527000	-0.000006
C17	C	-0.353704	-1.317599	-0.000013
C18	C	-0.555581	-1.313204	-0.000020
O19	O	-0.582885	-1.392964	-0.000042
N20	N	-0.579412	-1.218198	-0.000021
C21	C	-0.552771	-1.124284	-0.000023
O22	O	-0.577672	-1.043375	-0.000028
C23	C	-0.350894	-1.128680	-0.000019
C24	C	-0.327066	-1.223692	-0.000014
C25	C	-0.329876	-1.412603	-0.000009
C26	C	-0.279409	-1.413701	-0.000004
C27	C	-0.252771	-1.319794	-0.000005
C28	C	-0.276600	-1.224790	-0.000009
C29	C	-0.324253	-1.034768	-0.000025
C30	C	-0.273781	-1.035875	-0.000025
C31	C	-0.249953	-1.130887	-0.000020
C32	C	-0.199495	-1.131981	-0.000005
N33	N	-0.175664	-1.226987	-0.000005
C34	C	-0.202302	-1.320894	-0.000005
C35	C	-0.658759	-1.121983	-0.000023
C36	C	-0.709228	-1.120883	-0.000023
C37	C	-0.712035	-1.309804	-0.000022
C38	C	-0.661565	-1.310902	-0.000019
C39	C	-0.634928	-1.216989	-0.000023
C40	C	-0.096319	-1.323192	0.000005
C41	C	-0.045848	-1.324281	0.000012
C42	C	-0.043046	-1.135362	0.000008
C43	C	-0.093512	-1.134272	0.000004
C44	C	-0.120148	-1.228195	0.000001
O45	O	-0.172161	-1.052264	0.000010
O46	O	-0.177392	-1.401791	-0.000010
C47	C	-0.404170	-1.316501	-0.000018
C48	C	-0.427999	-1.221497	-0.000023
C49	C	-0.401361	-1.127590	-0.000023
C50	C	-0.478468	-1.220398	-0.000023
C51	C	-0.505106	-1.314304	-0.000022
C52	C	-0.481275	-1.409310	-0.000022
C53	C	-0.430808	-1.410408	-0.000018
C54	C	-0.425191	-1.032584	-0.000023
C55	C	-0.475658	-1.031494	-0.000027
C56	C	-0.502296	-1.125401	-0.000027
C57	C	0.210421	-1.213605	-0.000016
C58	C	0.264134	-1.214790	-0.000023
N59	N	0.122455	-1.222477	0.129244
C60	C	0.186145	-0.676003	-0.000009
C61	C	0.180275	-0.567972	-0.000009
C62	C	0.093408	-0.594068	-0.000002
C63	C	0.099277	-0.702100	-0.000002
C64	C	0.145647	-0.743063	-0.000006
C65	C	0.151516	-0.851097	-0.000009
C66	C	0.064649	-0.877191	0.000001
C67	C	0.058780	-0.769159	0.000001
N68	N	0.122465	-1.222696	-0.129251
C69	C	0.152039	-1.151612	0.526122
C70	C	0.152036	-1.151558	0.317244
O71	O	0.177178	-1.091175	0.290240
N72	N	0.122455	-1.222514	0.291122
C73	C	0.092871	-1.293483	0.317222
O74	O	0.067707	-1.353827	0.290211
C75	C	0.092871	-1.293532	0.526099
C76	C	0.122457	-1.222578	0.552219
C77	C	0.181622	-1.080664	0.552242
C78	C	0.181624	-1.080682	0.604458
C79	C	0.152043	-1.151648	0.630555
C80	C	0.122460	-1.222596	0.604435
C81	C	0.063284	-1.364496	0.552199
C82	C	0.063286	-1.364500	0.604421
C83	C	0.092872	-1.293546	0.630541
C84	C	0.092881	-1.293581	0.682748
N85	N	0.122461	-1.222625	0.708870
C86	C	0.152043	-1.151659	0.682774
C87	C	0.092874	-1.293454	0.207559
C88	C	0.092874	-1.293444	0.155340
C89	C	0.152039	-1.151517	0.155366
C90	C	0.152040	-1.151533	0.207586
C91	C	0.122454	-1.222499	0.233681
C92	C	0.152045	-1.151702	0.792432
C93	C	0.152046	-1.151729	0.844653
C94	C	0.092880	-1.293652	0.844622
C95	C	0.092881	-1.293629	0.792406
C96	C	0.122465	-1.222646	0.766312
O97	O	0.067748	-1.353924	0.709785
O98	O	0.177195	-1.091309	0.709794
C99	C	0.152036	-1.151594	0.473906
C100	C	0.122453	-1.222542	0.447786
C101	C	0.092872	-1.293509	0.473883
C102	C	0.122453	-1.222532	0.395567
C103	C	0.152035	-1.151565	0.369471
C104	C	0.181615	-1.080610	0.395593
C105	C	0.181617	-1.080628	0.447809
C106	C	0.063291	-1.364464	0.447761
C107	C	0.063292	-1.364441	0.395544
C108	C	0.092873	-1.293475	0.369448
H109	H	-0.026450	-1.401655	0.000017
H110	H	0.068780	-1.351246	0.228803
H111	H	0.213253	-0.513374	-0.000009
H112	H	-0.343645	-0.957399	-0.000032
H113	H	0.068794	-1.351416	0.771139
H114	H	-0.411412	-1.487776	-0.000013
C115	C	-0.026496	-0.805806	0.000004
C116	C	0.007811	-0.724127	0.000003
H117	H	-0.057962	-0.778004	0.000007
H118	H	-0.022394	-0.847420	-0.028924
H119	H	-0.022401	-0.847377	0.028935
H120	H	0.003719	-0.682560	-0.028931
H121	H	0.003708	-0.682496	0.028934
H122	H	0.205709	-1.022851	0.469072
C123	C	0.185578	-0.939548	0.663210
C124	C	0.214141	-1.002676	0.633164
H125	H	0.205654	-0.891391	0.680930
H126	H	0.163747	-0.902622	0.642851
H127	H	0.167967	-0.981822	0.686230
H128	H	0.231750	-0.960403	0.610142
H129	H	0.235980	-1.039605	0.653525
H130	H	0.031673	-0.931804	-0.000001
H131	H	-0.642168	-1.388269	-0.000015
C132	C	-0.148650	-1.023386	0.042645
C133	C	-0.119705	-1.029832	0.000004
H134	H	-0.164815	-0.958904	0.042642
H135	H	-0.171739	-1.079144	0.042638
H136	H	-0.129025	-1.027720	0.071575
H137	H	-0.139331	-1.025506	-0.028926
H138	H	-0.096613	-0.974058	0.000006
H139	H	-0.502972	-1.485772	-0.000020
C140	C	0.210534	-1.011427	0.797717
C141	C	0.184568	-1.073685	0.763754
H142	H	0.230616	-0.963272	0.780011
H143	H	0.188703	-0.974499	0.818096
H144	H	0.229900	-1.054292	0.818070
H145	H	0.165200	-1.030821	0.743403
H146	H	0.206403	-1.110616	0.743367
C147	C	-0.600383	-1.013569	0.042620
C148	C	-0.629480	-1.018746	-0.000025
H149	H	-0.582307	-0.949838	0.042618
H150	H	-0.620135	-1.017045	0.071544
H151	H	-0.578966	-1.070307	0.042614
H152	H	-0.650899	-0.962012	-0.000017
H153	H	-0.609726	-1.015261	-0.028957
H154	H	0.176141	-1.093951	0.865918
H155	H	0.068797	-1.351435	0.865878
C156	C	0.207876	-1.017579	0.315552
C157	C	0.214131	-1.002600	0.366900
H158	H	0.227945	-0.969414	0.297838
H159	H	0.216325	-1.086613	0.306980
H160	H	0.175115	-1.006849	0.307013
H161	H	0.246890	-1.013337	0.375439
H162	H	0.205685	-0.933549	0.375476
C163	C	-0.154709	-1.431534	0.042649
C164	C	-0.125594	-1.426432	0.000005
H165	H	-0.172783	-1.495267	0.042648
H166	H	-0.134968	-1.428005	0.071574
H167	H	-0.176126	-1.374798	0.042639
H168	H	-0.104174	-1.483164	0.000016
H169	H	-0.145336	-1.429971	-0.028928
C170	C	0.240107	-0.940395	0.557526
C171	C	0.214145	-1.002654	0.523562
H172	H	0.260191	-0.892241	0.539822
H173	H	0.218274	-0.903465	0.577903
H174	H	0.259471	-0.983258	0.577882
H175	H	0.194778	-0.959791	0.503209
H176	H	0.235981	-1.039587	0.503177
C177	C	-0.388265	-1.520939	0.042639
C178	C	-0.359153	-1.515835	-0.000007
H179	H	-0.406338	-1.584672	0.042639
H180	H	-0.368522	-1.517409	0.071562
H181	H	-0.409682	-1.464203	0.042632
H182	H	-0.337733	-1.572567	0.000002
H183	H	-0.378897	-1.519375	-0.028938
H184	H	0.039200	-1.422229	0.374281
C185	C	-0.729964	-1.470519	-0.042674
C186	C	-0.741320	-1.413031	-0.000026
H187	H	-0.748042	-1.534246	-0.042677
H188	H	-0.737651	-1.431542	-0.071596
H189	H	-0.696496	-1.484771	-0.042668
H190	H	-0.774787	-1.398773	-0.000034
H191	H	-0.733636	-1.452017	0.028904
C192	C	0.045844	-0.440043	0.000010
C193	C	0.042441	-0.549027	0.000007
H194	H	0.014379	-0.412239	0.000013
H195	H	0.062725	-0.416969	0.028936
H196	H	0.062731	-0.417009	-0.028924
H197	H	0.025557	-0.572061	0.028943
H198	H	0.025552	-0.572110	-0.028922
H199	H	0.176132	-1.093756	0.228849
H200	H	-0.728624	-1.043515	-0.000019
C201	C	0.216730	-1.127962	0.096627
C202	C	0.184554	-1.073506	0.126674
H203	H	0.236798	-1.079799	0.078911
H204	H	0.236104	-1.170784	0.116985
H205	H	0.199107	-1.170223	0.073603
H206	H	0.202177	-1.031250	0.149701
H207	H	0.165177	-1.030666	0.106315
C208	C	0.004818	-1.504758	0.442480
C209	C	0.030778	-1.442487	0.476441
H210	H	-0.015251	-1.552937	0.460185
H211	H	-0.014555	-1.461914	0.422133
H212	H	0.026658	-1.541669	0.422094
H213	H	0.008938	-1.405570	0.496824
H214	H	0.050153	-1.485337	0.496797
C215	C	0.034391	-1.433726	0.160573
C216	C	0.060355	-1.371444	0.126633
H217	H	0.014311	-1.481873	0.142851
H218	H	0.056223	-1.470663	0.180925
H219	H	0.015023	-1.390877	0.180956
H220	H	0.079726	-1.414292	0.106252
H221	H	0.038520	-1.334504	0.106273
H222	H	0.039193	-1.422271	0.530939
H223	H	0.039192	-1.422287	0.625666
C224	C	-0.255844	-0.875222	-0.042677
C225	C	-0.244503	-0.932639	-0.000029
H226	H	-0.237771	-0.811487	-0.042676
H227	H	-0.248139	-0.914240	-0.071599
H228	H	-0.289313	-0.860985	-0.042674
H229	H	-0.211034	-0.946883	-0.000033
H230	H	-0.252204	-0.893613	0.028901
C231	C	-0.287269	-1.600323	-0.000009
C232	C	-0.253222	-1.518142	-0.000005
H233	H	-0.271104	-1.664803	-0.000013
H234	H	-0.306899	-1.595938	0.028920
H235	H	-0.306891	-1.595971	-0.028940
H236	H	-0.233603	-1.522490	0.028929
H237	H	-0.233584	-1.522530	-0.028936
C238	C	0.015353	-1.027064	-0.042643
C239	C	-0.013758	-1.032143	0.000004
H240	H	0.033432	-0.963337	-0.042649
H241	H	0.036761	-1.083803	-0.042635
H242	H	-0.004395	-1.030589	-0.071569
H243	H	0.005989	-1.028625	0.028930
H244	H	-0.035169	-0.975388	0.000000
H245	H	-0.403508	-0.956112	-0.000025
C246	C	-0.467801	-0.844861	-0.000037
C247	C	-0.501846	-0.927047	-0.000035
H248	H	-0.483968	-0.780384	-0.000048
H249	H	-0.448186	-0.849190	0.028894
H250	H	-0.448164	-0.849266	-0.028965
H251	H	-0.521480	-0.922646	0.028896
H252	H	-0.521470	-0.922716	-0.028969
C253	C	0.236791	-0.814447	-0.000010
C254	C	0.202485	-0.896128	-0.000011
H255	H	0.268257	-0.842247	-0.000006
H256	H	0.232700	-0.772881	-0.028938
H257	H	0.232686	-0.772829	0.028922
H258	H	0.206589	-0.937742	-0.028945
H259	H	0.206578	-0.937712	0.028920
H260	H	0.223901	-0.709356	-0.000013
