data_functionalizedCrystal
_audit_creation_method	'MofGen! by Chris Wilmer'
_symmetry_space_group_name_H-M	'P1'
_symmetry_Int_Tables_number	1
_symmetry_cell_setting	triclinic
loop_
_symmetry_equiv_pos_as_xyz
  x,y,z
_cell_length_a	12.759401
_cell_length_b	21.295417
_cell_length_c	12.759393
_cell_angle_alpha	90.039170
_cell_angle_beta	90.018496
_cell_angle_gamma	90.030668
loop_
_atom_site_label
_atom_site_type_symbol
_atom_site_fract_x
_atom_site_fract_y
_atom_site_fract_z
Zn1	Zn	1.606140	-0.250569	0.593926
Zn2	Zn	1.605986	-0.355853	0.418223
Zn3	Zn	1.430442	-0.250602	0.418265
Zn4	Zn	1.430382	-0.355805	0.593864
O5	O	1.518237	-0.303208	0.506069
O6	O	1.753141	-0.264542	0.570626
O7	O	1.582660	-0.341926	0.271207
O8	O	1.453838	-0.162509	0.441611
O9	O	1.753027	-0.341894	0.441538
O10	O	1.582923	-0.162484	0.570668
O11	O	1.453689	-0.264598	0.271238
O12	O	1.283413	-0.264551	0.441551
O13	O	1.453736	-0.341811	0.740893
O14	O	1.283369	-0.341843	0.570562
O15	O	1.582865	-0.264495	0.740939
O16	O	1.582602	-0.443936	0.441478
O17	O	1.453587	-0.443901	0.570521
C18	C	1.245270	-0.303196	0.506055
C19	C	1.128493	-0.303206	0.506074
C20	C	1.518100	-0.466759	0.506011
C21	C	1.518137	-0.536727	0.506021
C22	C	1.073636	-0.343516	0.573139
C23	C	0.963912	-0.343524	0.573151
C24	C	0.963912	-0.262910	0.439022
C25	C	1.073635	-0.262899	0.439017
C26	C	1.128495	-0.383823	0.640196
C27	C	1.073637	-0.424137	0.707266
C28	C	0.963913	-0.424145	0.707277
C29	C	0.909047	-0.383839	0.640219
C30	C	1.585375	-0.569592	0.438898
C31	C	1.585424	-0.635334	0.438921
C32	C	1.518217	-0.668210	0.506058
C33	C	1.450974	-0.635338	0.573195
C34	C	1.450934	-0.569596	0.573177
N35	N	1.426309	-0.771475	0.514062
N36	N	1.426350	-0.833927	0.514073
C37	C	1.518334	-0.866284	0.506118
N38	N	1.610278	-0.833832	0.498130
N39	N	1.610236	-0.771375	0.498114
C40	C	1.518253	-0.739495	0.506085
C41	C	1.585631	-0.970434	0.439016
C42	C	1.585682	-1.036178	0.439047
C43	C	1.451223	-1.036180	0.573315
C44	C	1.451181	-0.970438	0.573289
C45	C	1.518384	-0.937569	0.506134
C46	C	1.792271	-0.303220	0.506084
C47	C	1.909047	-0.303225	0.506091
C48	C	1.518311	-0.303144	0.780103
C49	C	1.518342	-0.303117	0.896880
C50	C	1.518404	-0.139017	0.506151
C51	C	1.518475	-0.069049	0.506185
C52	C	1.518225	-0.303225	0.233102
C53	C	1.518397	-0.303075	0.116326
C54	C	1.585589	-0.262855	0.951767
C55	C	1.585614	-0.262832	1.061491
C56	C	1.451143	-0.343339	1.061431
C57	C	1.451113	-0.343358	0.951709
C58	C	1.652818	-0.222613	0.896938
C59	C	1.720071	-0.182348	0.951825
C60	C	1.720096	-0.182325	1.061549
C61	C	1.652868	-0.222568	1.116386
H62	H	1.217838	-0.383822	0.640192
C63	C	1.241835	-0.459923	0.766803
C64	C	1.133942	-0.468439	0.780976
H65	H	1.279060	-0.487277	0.812306
H66	H	1.259846	-0.417643	0.782312
H67	H	1.259769	-0.469085	0.696178
H68	H	1.116006	-0.459272	0.851599
H69	H	1.115923	-0.510729	0.765474
H70	H	1.774848	-0.149535	1.106236
H71	H	1.640098	-0.542832	0.384219
C72	C	1.318221	-0.422919	1.050355
C73	C	1.377256	-0.387576	1.121704
H74	H	1.272604	-0.450227	1.087567
H75	H	1.363958	-0.447007	1.007548
H76	H	1.278050	-0.395492	1.007574
H77	H	1.417432	-0.415003	1.164480
H78	H	1.331513	-0.363486	1.164530
H79	H	1.652881	-0.222539	1.205731
H80	H	1.396339	-0.376134	0.907018
C81	C	0.974939	-0.503830	0.839850
C82	C	0.903612	-0.468456	0.780999
H83	H	0.937711	-0.531191	0.885356
H84	H	1.017766	-0.476430	0.880120
H85	H	1.017703	-0.527869	0.793982
H86	H	0.860854	-0.444413	0.826867
H87	H	0.860767	-0.495860	0.740726
H88	H	1.640181	-0.662097	0.384261
H89	H	1.396506	-1.062947	0.627983
H90	H	0.819702	-0.383844	0.640243
C91	C	1.391174	-0.468822	0.632764
C92	C	1.377018	-0.533467	0.646961
H93	H	1.345544	-0.446518	0.678320
H94	H	1.375825	-0.458099	0.562165
H95	H	1.461753	-0.458008	0.648197
H96	H	1.306440	-0.544282	0.631520
H97	H	1.392360	-0.544195	0.717576
C98	C	0.795714	-0.227144	0.379461
C99	C	0.903605	-0.218617	0.365300
H100	H	0.758486	-0.199803	0.333938
H101	H	0.777766	-0.217977	0.450070
H102	H	0.777718	-0.269434	0.363961
H103	H	0.921602	-0.176328	0.380808
H104	H	0.921560	-0.227780	0.294675
H105	H	1.118301	-0.230070	0.384415
H106	H	1.396255	-0.662109	0.627859
H107	H	1.640442	-1.062935	0.384389
C108	C	1.636897	-0.950259	0.261149
C109	C	1.659504	-0.934299	0.365209
H110	H	1.682507	-0.927953	0.215586
H111	H	1.566316	-0.939531	0.245717
H112	H	1.646553	-0.994117	0.251570
H113	H	1.649841	-0.890441	0.374790
H114	H	1.730102	-0.945022	0.380647
C115	C	1.318270	-0.977046	0.705992
C116	C	1.377256	-0.934309	0.647061
H117	H	1.272626	-0.954740	0.751533
H118	H	1.364037	-1.002639	0.746229
H119	H	1.278130	-1.002735	0.660177
H120	H	1.417402	-0.908623	0.692876
H121	H	1.331483	-0.908705	0.606821
C122	C	1.779741	-0.146634	0.783655
C123	C	1.793959	-0.138112	0.891553
H124	H	1.825362	-0.119325	0.746449
H125	H	1.709164	-0.137421	0.765679
H126	H	1.795073	-0.188935	0.765659
H127	H	1.778620	-0.095812	0.909550
H128	H	1.864553	-0.147321	0.909536
H129	H	1.652807	-0.222629	0.807595
