data_functionalizedCrystal
_audit_creation_method	'MofGen! by Chris Wilmer'
_symmetry_space_group_name_H-M	'P1'
_symmetry_Int_Tables_number	1
_symmetry_cell_setting	triclinic
loop_
_symmetry_equiv_pos_as_xyz
  x,y,z
_cell_length_a	10.967874
_cell_length_b	11.026607
_cell_length_c	7.088929
_cell_angle_alpha	82.408099
_cell_angle_beta	84.223058
_cell_angle_gamma	96.380181
loop_
_atom_site_label
_atom_site_type_symbol
_atom_site_fract_x
_atom_site_fract_y
_atom_site_fract_z
O1	O	1.649717	0.225277	-0.702495
O2	O	2.149717	0.725277	-0.202495
O3	O	1.297402	0.232552	-0.586425
O4	O	1.797402	0.732552	-0.086425
O5	O	1.444360	0.051263	-0.634833
O6	O	1.944360	0.551263	-0.134833
O7	O	1.502758	0.406566	-0.654087
O8	O	2.002758	0.906566	-0.154087
O9	O	1.463987	0.026979	-0.323324
O10	O	1.963987	0.526979	0.176676
O11	O	1.317029	0.208267	-0.274915
O12	O	1.817029	0.708267	0.225085
O13	O	1.669344	0.200993	-0.390985
O14	O	2.169344	0.700993	0.109015
Cu15	Cu	1.494979	0.202413	-0.304507
Cu16	Cu	1.994979	0.702413	0.195493
Cu17	Cu	1.471767	0.231132	-0.672903
Cu18	Cu	1.971767	0.731132	-0.172903
O19	O	1.522386	0.382282	-0.342577
O20	O	2.022386	0.882282	0.157423
C21	C	1.261410	0.218046	-0.415580
C22	C	1.761410	0.718046	0.084420
C23	C	1.124923	0.210987	-0.370614
C24	C	1.624923	0.710987	0.129386
C25	C	1.053905	0.220420	-0.511938
C26	C	1.553905	0.720420	-0.011938
C27	C	0.912838	0.213124	-0.465468
C28	C	1.412838	0.713124	0.034532
C29	C	1.443400	-0.006458	-0.475531
C30	C	1.943400	0.493542	0.024469
C31	C	1.411283	-0.142269	-0.464957
C32	C	1.911283	0.357731	0.035043
C33	C	1.499962	-0.213044	-0.494175
C34	C	1.999962	0.286956	0.005825
C35	C	1.466770	-0.353412	-0.483247
C36	C	1.966770	0.146588	0.016753
C37	C	1.705335	0.215499	-0.561834
C38	C	2.205335	0.715499	-0.061834
C39	C	1.841822	0.222559	-0.606812
C40	C	2.341822	0.722559	-0.106812
C41	C	1.523345	0.440003	-0.501883
C42	C	2.023345	0.940003	-0.001883
C43	C	1.555462	0.575815	-0.512469
C44	C	2.055462	1.075815	-0.012469
N45	N	1.511313	0.182213	-0.045399
N46	N	2.011313	0.682213	0.454601
N47	N	1.455440	0.251322	-0.932013
N48	N	1.955440	0.751322	-0.432013
H49	H	0.885451	0.236045	-0.762220
H50	H	1.385451	0.736045	-0.262220
H51	H	1.366268	-0.396732	-0.450150
H52	H	1.866268	0.103268	0.049850
H53	H	1.397534	0.322939	0.005415
H54	H	1.897534	0.822939	0.505415
H55	H	1.569234	0.110601	0.017177
H56	H	2.069234	0.610601	0.517177
H57	H	1.655954	-0.380855	-0.545720
H58	H	2.155954	0.119145	-0.045720
H59	H	1.097541	0.233903	-0.667335
H60	H	1.597541	0.733903	-0.167335
H61	H	0.869208	0.199654	-0.310061
H62	H	1.369208	0.699654	0.189939
Cl63	Cl	1.256122	-0.209149	-0.413859
Cl64	Cl	1.756122	0.290851	0.086141
Cl65	Cl	1.655121	-0.146162	-0.545304
Cl66	Cl	2.155121	0.353838	-0.045304
H67	H	1.081288	0.197517	-0.215218
H68	H	1.581288	0.697517	0.284782
