data_functionalizedCrystal
_audit_creation_method	'MofGen! by Chris Wilmer'
_symmetry_space_group_name_H-M	'P1'
_symmetry_Int_Tables_number	1
_symmetry_cell_setting	triclinic
loop_
_symmetry_equiv_pos_as_xyz
  x,y,z
_cell_length_a	10.654550
_cell_length_b	11.792241
_cell_length_c	9.730223
_cell_angle_alpha	89.998500
_cell_angle_beta	89.996251
_cell_angle_gamma	84.339159
loop_
_atom_site_label
_atom_site_type_symbol
_atom_site_fract_x
_atom_site_fract_y
_atom_site_fract_z
O1	O	1.667383	0.159415	-0.114404
O2	O	1.301862	0.174603	-0.114382
O3	O	1.493493	0.001859	-0.114383
O4	O	1.475752	0.332159	-0.114402
O5	O	1.493490	0.001863	0.114196
O6	O	1.301859	0.174608	0.114198
O7	O	1.667381	0.159419	0.114176
Zn8	Zn	1.484620	0.167014	0.150479
Zn9	Zn	1.484623	0.167008	-0.150685
O10	O	1.475750	0.332163	0.114178
C11	C	1.255066	0.173490	-0.000089
C12	C	1.115632	0.170154	-0.000080
C13	C	1.035858	0.271863	-0.000106
C14	C	0.904847	0.268721	-0.000129
C15	C	0.933394	0.062152	-0.000107
C16	C	1.064404	0.065295	-0.000074
C17	C	1.019376	0.391124	-0.000124
C18	C	0.888364	0.387982	-0.000148
C19	C	1.492377	-0.040432	-0.000094
C20	C	1.489042	-0.166454	-0.000095
C21	C	1.482908	-0.397180	-0.000118
C22	C	1.486316	-0.268787	-0.000105
C23	C	1.714177	0.160532	-0.000120
C24	C	1.853611	0.163869	-0.000137
C25	C	1.476865	0.374455	-0.000114
C26	C	1.480201	0.500476	-0.000122
N27	N	1.484627	0.167017	0.356016
N28	N	1.484625	0.166996	-0.356221
C29	C	1.569503	0.090552	0.427941
C30	C	1.569500	0.090539	0.571824
C31	C	1.399740	0.243465	0.571844
C32	C	1.399739	0.243472	0.427963
C33	C	1.667516	0.002265	0.427931
C34	C	1.667513	0.002251	0.571814
H35	H	0.891668	-0.023221	-0.000123
H36	H	1.054925	0.429097	-0.098814
H37	H	1.330615	0.305726	0.369403
C38	C	1.307522	0.326291	0.650140
C39	C	1.230263	0.265171	0.732765
C40	C	1.145307	0.341433	0.804922
H41	H	1.256850	0.371865	0.586853
H42	H	1.352980	0.373900	0.706351
H43	H	1.184808	0.217581	0.676560
H44	H	1.280900	0.219600	0.796078
H45	H	1.190765	0.389043	0.861133
H46	H	1.094644	0.387004	0.741626
H47	H	1.092885	0.299975	0.861001
H48	H	1.637233	-0.080191	0.616436
C49	C	0.827544	0.436136	0.131497
C50	C	0.920797	0.471231	0.218742
C51	C	0.864814	0.515606	0.340015
H52	H	0.785232	0.379115	0.175960
H53	H	0.768632	0.499473	0.110115
H54	H	0.979686	0.407903	0.240126
H55	H	0.963115	0.528264	0.174322
H56	H	0.805902	0.578942	0.318632
H57	H	0.822504	0.458579	0.384464
H58	H	0.928075	0.539433	0.399219
H59	H	1.048574	0.437768	0.095539
H60	H	0.846505	0.432916	-0.095818
H61	H	1.646320	-0.084976	0.388883
C62	C	1.789110	0.039091	0.368667
C63	C	1.869660	0.063492	0.476070
C64	C	1.981688	0.097408	0.421528
H65	H	1.770577	0.105218	0.313741
H66	H	1.829011	-0.020597	0.313753
H67	H	1.829768	0.123175	0.530961
H68	H	1.888229	-0.002618	0.531005
H69	H	2.021589	0.037720	0.366614
H70	H	1.963143	0.163532	0.366603
H71	H	2.036360	0.113958	0.494392
H72	H	1.763969	0.021698	0.610857
H73	H	1.129352	-0.017527	-0.000033
