data_functionalizedCrystal
_audit_creation_method	'MofGen! by Chris Wilmer'
_symmetry_space_group_name_H-M	'P1'
_symmetry_Int_Tables_number	1
_symmetry_cell_setting	triclinic
loop_
_symmetry_equiv_pos_as_xyz
  x,y,z
_cell_length_a	13.897448
_cell_length_b	13.897449
_cell_length_c	12.759393
_cell_angle_alpha	89.980586
_cell_angle_beta	89.966449
_cell_angle_gamma	90.018972
loop_
_atom_site_label
_atom_site_type_symbol
_atom_site_fract_x
_atom_site_fract_y
_atom_site_fract_z
Zn1	Zn	-0.383923	1.474690	-0.594025
Zn2	Zn	-0.545253	1.474588	-0.418340
Zn3	Zn	-0.383977	1.313383	-0.418359
Zn4	Zn	-0.545181	1.313361	-0.593975
O5	O	-0.464584	1.394005	-0.506175
O6	O	-0.405331	1.609658	-0.570734
O7	O	-0.523912	1.453170	-0.271321
O8	O	-0.248989	1.334833	-0.441690
O9	O	-0.523860	1.609583	-0.441658
O10	O	-0.248949	1.453344	-0.570752
O11	O	-0.405424	1.334733	-0.271335
O12	O	-0.405354	1.178398	-0.441641
O13	O	-0.523737	1.334795	-0.741003
O14	O	-0.523790	1.178382	-0.570666
O15	O	-0.405262	1.453323	-0.741040
O16	O	-0.680225	1.453149	-0.441610
O17	O	-0.680173	1.334696	-0.570648
C18	C	-0.464571	1.143391	-0.506151
C19	C	-0.464589	1.036177	-0.506166
C20	C	-0.464592	0.839882	-0.506193
C21	C	-0.464587	0.949115	-0.506175
C22	C	-0.715198	1.393935	-0.506144
C23	C	-0.822412	1.393993	-0.506167
C24	C	-1.018707	1.394094	-0.506232
C25	C	-0.909475	1.394035	-0.506199
C26	C	-0.212991	1.394102	-0.506228
C27	C	-0.105777	1.394144	-0.506251
C28	C	-0.464597	1.645598	-0.506199
C29	C	-0.464603	1.752812	-0.506210
C30	C	-0.464486	1.394068	-0.780208
C31	C	-0.464444	1.394095	-0.896985
C32	C	-0.402735	1.332451	-0.951860
C33	C	-0.402707	1.332480	-1.061584
C34	C	-0.526097	1.455805	-1.061548
C35	C	-0.526130	1.455770	-0.951826
C36	C	-0.341049	1.270775	-0.897019
C37	C	-0.279335	1.209127	-0.951894
C38	C	-0.279306	1.209156	-1.061618
C39	C	-0.340991	1.270834	-1.116467
C40	C	-0.464612	1.393999	-0.233207
C41	C	-0.464382	1.394159	-0.116431
H42	H	-0.341063	1.270746	-0.807676
H43	H	-0.576316	1.506022	-1.106215
C44	C	-0.211445	1.141332	-1.121983
H45	H	-0.220269	1.150172	-1.195185
H46	H	-0.146637	1.155457	-1.104030
H47	H	-0.225580	1.076512	-1.103985
H48	H	-0.576366	1.505979	-0.907146
H49	H	-0.229118	1.158907	-0.907229
H50	H	-0.340965	1.270850	-1.205812
