data_functionalizedCrystal
_audit_creation_method	'MofGen! by Chris Wilmer'
_symmetry_space_group_name_H-M	'P1'
_symmetry_Int_Tables_number	1
_symmetry_cell_setting	triclinic
loop_
_symmetry_equiv_pos_as_xyz
  x,y,z
_cell_length_a	10.489741
_cell_length_b	9.065218
_cell_length_c	7.540329
_cell_angle_alpha	89.998628
_cell_angle_beta	90.001081
_cell_angle_gamma	84.777530
loop_
_atom_site_label
_atom_site_type_symbol
_atom_site_fract_x
_atom_site_fract_y
_atom_site_fract_z
O1	O	-1.694800	-0.208165	0.147365
O2	O	-1.194800	0.291835	0.647365
O3	O	-1.323675	-0.227704	0.147392
O4	O	-0.823675	0.272296	0.647392
O5	O	-1.516909	-0.003255	0.147374
O6	O	-1.016909	0.496745	0.647374
O7	O	-1.501567	-0.432614	0.147382
O8	O	-1.001567	0.067386	0.647382
O9	O	-1.516902	-0.003253	-0.147591
O10	O	-1.016902	0.496747	0.352409
O11	O	-1.323669	-0.227703	-0.147573
O12	O	-0.823669	0.272297	0.352427
O13	O	-1.694794	-0.208163	-0.147600
O14	O	-1.194794	0.291837	0.352400
Cu15	Cu	-1.509230	-0.217933	-0.174519
Cu16	Cu	-1.009230	0.282067	0.325481
Cu17	Cu	-1.509238	-0.217935	0.174311
Cu18	Cu	-1.009238	0.282065	0.674311
O19	O	-1.501560	-0.432612	-0.147583
O20	O	-1.001560	0.067388	0.352417
C21	C	-1.276135	-0.226228	-0.000087
C22	C	-0.776135	0.273772	0.499913
C23	C	-1.134489	-0.221813	-0.000077
C24	C	-0.634489	0.278187	0.499923
C25	C	-1.515431	0.051725	-0.000105
C26	C	-1.015431	0.551725	0.499895
C27	C	-1.511022	0.215547	-0.000097
C28	C	-1.011022	0.715547	0.499903
C29	C	-1.742334	-0.209640	-0.000117
C30	C	-1.242334	0.290360	0.499883
C31	C	-1.883979	-0.214055	-0.000116
C32	C	-1.383979	0.285945	0.499884
C33	C	-1.065834	-0.079002	-0.000096
C34	C	-0.565834	0.420998	0.499904
C35	C	-0.973954	-0.146465	0.145334
C36	C	-0.473954	0.353535	0.645334
C37	C	-0.973981	-0.146497	-0.145478
C38	C	-0.473981	0.353503	0.354522
C39	C	-1.044475	-0.289334	0.145474
C40	C	-0.544475	0.210666	0.645474
C41	C	-1.044512	-0.289347	-0.145469
C42	C	-0.544512	0.210653	0.354531
C43	C	-0.952660	-0.356914	-0.000003
C44	C	-0.452660	0.143086	0.499997
C45	C	-1.503038	-0.487593	-0.000099
C46	C	-1.003038	0.012407	0.499901
C47	C	-1.507447	-0.651414	-0.000096
C48	C	-1.007447	-0.151414	0.499904
N49	N	-1.509234	-0.217930	-0.419868
N50	N	-1.009234	0.282070	0.080132
N51	N	-1.509245	-0.217925	0.419659
N52	N	-1.009245	0.282075	0.919659
H53	H	-1.115099	0.038397	0.000083
H54	H	-0.615099	0.538397	0.500083
H55	H	-0.942724	-0.086040	0.268286
H56	H	-0.442724	0.413960	0.768286
H57	H	-0.942782	-0.086045	-0.268429
H58	H	-0.442782	0.413955	0.231571
H59	H	-1.075524	-0.349714	0.268563
H60	H	-0.575524	0.150286	0.768563
H61	H	-0.903661	-0.474437	0.000079
H62	H	-0.403661	0.025563	0.500079
H63	H	-1.075773	-0.349723	-0.268426
H64	H	-0.575773	0.150277	0.231574
