data_functionalizedCrystal
_audit_creation_method	'MofGen! by Chris Wilmer'
_symmetry_space_group_name_H-M	'P1'
_symmetry_Int_Tables_number	1
_symmetry_cell_setting	triclinic
loop_
_symmetry_equiv_pos_as_xyz
  x,y,z
_cell_length_a	16.992694
_cell_length_b	16.992695
_cell_length_c	15.455450
_cell_angle_alpha	92.817695
_cell_angle_beta	92.816438
_cell_angle_gamma	90.668223
loop_
_atom_site_label
_atom_site_type_symbol
_atom_site_fract_x
_atom_site_fract_y
_atom_site_fract_z
O1	O	-1.047595	-0.163653	0.072022
O2	O	-0.547595	0.336347	0.572022
O3	O	-0.819194	-0.161820	0.072047
O4	O	-0.319194	0.338180	0.572047
O5	O	-0.932479	-0.048537	0.072028
O6	O	-0.432479	0.451463	0.572028
O7	O	-0.934310	-0.276936	0.072041
O8	O	-0.434310	0.223064	0.572041
O9	O	-0.938989	-0.055070	-0.072232
O10	O	-0.438989	0.444930	0.427768
O11	O	-0.825704	-0.168353	-0.072212
O12	O	-0.325704	0.331647	0.427788
O13	O	-1.054105	-0.170186	-0.072238
O14	O	-0.554105	0.329814	0.427762
Cu15	Cu	-0.940499	-0.169866	-0.085397
Cu16	Cu	-0.440499	0.330134	0.414603
Cu17	Cu	-0.932800	-0.162140	0.085206
Cu18	Cu	-0.432800	0.337860	0.585206
O19	O	-0.940820	-0.283469	-0.072218
O20	O	-0.440820	0.216531	0.427782
C21	C	-0.793089	-0.162731	-0.000079
C22	C	-0.293089	0.337269	0.499921
C23	C	-0.705604	-0.155702	-0.000070
C24	C	-0.205604	0.344298	0.499930
C25	C	-0.933378	-0.022443	-0.000102
C26	C	-0.433378	0.477557	0.499898
C27	C	-0.926350	0.065041	-0.000101
C28	C	-0.426350	0.565041	0.499899
C29	C	-1.080210	-0.169275	-0.000109
C30	C	-0.580210	0.330725	0.499891
C31	C	-1.167695	-0.176304	-0.000113
C32	C	-0.667695	0.323696	0.499887
C33	C	-0.939921	-0.309563	-0.000087
C34	C	-0.439921	0.190437	0.499913
C35	C	-0.946949	-0.397047	-0.000082
C36	C	-0.446949	0.102953	0.499918
C37	C	-0.659613	-0.223520	-0.000066
C38	C	-0.159613	0.276480	0.499934
C39	C	-0.577412	-0.216911	-0.000079
C40	C	-0.077412	0.283089	0.499921
C41	C	-0.541205	-0.142484	-0.000088
C42	C	-0.041205	0.357516	0.499912
C43	C	-0.587202	-0.074661	-0.000094
C44	C	-0.087202	0.425339	0.499906
C45	C	-0.669401	-0.081271	-0.000088
C46	C	-0.169401	0.418729	0.499912
C47	C	-0.295891	-0.115091	-0.000113
C48	C	0.204109	0.384909	0.499887
C49	C	-0.213686	-0.108486	-0.000116
C50	C	0.286314	0.391514	0.499884
C51	C	-0.203902	-0.250737	-0.000103
C52	C	0.296098	0.249263	0.499897
C53	C	-0.286103	-0.257340	-0.000091
C54	C	0.213897	0.242660	0.499909
C55	C	-0.332093	-0.189517	-0.000102
C56	C	0.167907	0.310483	0.499898
N57	N	-0.457183	-0.135727	-0.000098
N58	N	0.042817	0.364273	0.499902
N59	N	-0.416114	-0.196275	-0.000098
N60	N	0.083886	0.303725	0.499902
N61	N	-0.945920	-0.175300	-0.205390
N62	N	-0.445920	0.324700	0.294610
C63	C	-0.994168	0.111032	-0.000109
C64	C	-0.494168	0.611032	0.499891
C65	C	-0.987559	0.193233	-0.000100
C66	C	-0.487559	0.693233	0.499900
C67	C	-0.913131	0.229442	-0.000089
C68	C	-0.413131	0.729442	0.499911
C69	C	-0.845307	0.183445	-0.000078
C70	C	-0.345307	0.683445	0.499922
C71	C	-0.851917	0.101246	-0.000081
C72	C	-0.351917	0.601246	0.499919
C73	C	-0.885735	0.474757	-0.000074
C74	C	-0.385735	0.974757	0.499926
C75	C	-0.879131	0.556962	-0.000074
C76	C	-0.379131	1.056962	0.499926
C77	C	-1.021383	0.566744	-0.000094
C78	C	-0.521383	1.066744	0.499906
C79	C	-1.027987	0.484543	-0.000102
C80	C	-0.527987	0.984543	0.499898
C81	C	-0.960163	0.438554	-0.000087
C82	C	-0.460163	0.938554	0.499913
N83	N	-0.906373	0.313464	-0.000082
N84	N	-0.406373	0.813464	0.499918
N85	N	-0.966921	0.354533	-0.000087
N86	N	-0.466921	0.854533	0.499913
C87	C	-0.897252	-0.126595	-0.250806
C88	C	-0.397252	0.373405	0.249194
C89	C	-0.901371	-0.130714	-0.341612
C90	C	-0.401371	0.369286	0.158388
C91	C	-0.954162	-0.183536	-0.387000
C92	C	-0.454162	0.316464	0.113000
C93	C	-1.002832	-0.232247	-0.341577
C94	C	-0.502832	0.267753	0.158423
C95	C	-0.998708	-0.228131	-0.250773
C96	C	-0.498708	0.271869	0.249227
C97	C	-0.971931	-0.201295	-0.658573
C98	C	-0.471931	0.298705	-0.158573
C99	C	-0.976053	-0.205406	-0.749384
C100	C	-0.476053	0.294594	-0.249384
C101	C	-0.874591	-0.103874	-0.749413
C102	C	-0.374591	0.396126	-0.249413
C103	C	-0.870475	-0.099758	-0.658607
C104	C	-0.370475	0.400242	-0.158607
C105	C	-0.919142	-0.148472	-0.613192
C106	C	-0.419142	0.351528	-0.113192
N107	N	-0.958376	-0.187747	-0.479818
N108	N	-0.458376	0.312253	0.020182
N109	N	-0.914924	-0.144265	-0.520375
N110	N	-0.414924	0.355735	-0.020375
N111	N	-0.927385	-0.156700	0.205199
N112	N	-0.427385	0.343300	0.705199
H113	H	-0.689087	-0.284126	-0.000058
H114	H	-0.189087	0.215874	0.499942
H115	H	-0.166449	-0.305954	-0.000096
H116	H	0.333551	0.194046	0.499904
H117	H	-0.315577	-0.317946	-0.000074
H118	H	0.184423	0.182054	0.499926
O119	O	-0.845902	-0.075263	-0.206855
O120	O	-0.345902	0.424737	0.293145
C121	C	-0.803843	-0.033146	-0.266418
C122	C	-0.303843	0.466854	0.233582
H123	H	-0.804231	-0.068378	-0.331143
H124	H	-0.304231	0.431622	0.168857
H125	H	-0.740447	-0.023159	-0.240198
H126	H	-0.240447	0.476841	0.259802
H127	H	-0.832841	0.026157	-0.276075
H128	H	-0.332841	0.526157	0.223925
O129	O	-0.178641	-0.036125	-0.000164
O130	O	0.321359	0.463875	0.499836
C131	C	-0.236857	0.022322	-0.000148
C132	C	0.263143	0.522322	0.499852
H133	H	-0.295253	-0.004472	-0.027460
H134	H	0.204747	0.495528	0.472540
H135	H	-0.218418	0.072077	-0.042033
H136	H	0.281582	0.572077	0.457967
H137	H	-0.243975	0.046624	0.069058
H138	H	0.256025	0.546624	0.569058
O139	O	-0.532651	-0.282729	0.000049
O140	O	-0.032651	0.217271	0.500049
C141	C	-0.481443	-0.279782	0.074770
C142	C	0.018557	0.220218	0.574770
H143	H	-0.472245	-0.215909	0.099664
H144	H	0.027755	0.284091	0.599664
H145	H	-0.422332	-0.306005	0.057969
H146	H	0.077668	0.193995	0.557969
H147	H	-0.508342	-0.315048	0.127097
H148	H	-0.008342	0.184952	0.627097
H149	H	-0.706846	-0.026046	-0.000090
H150	H	-0.206846	0.473954	0.499910
O151	O	-0.340634	-0.049259	0.000003
O152	O	0.159366	0.450741	0.500003
C153	C	-0.385076	-0.045429	0.074730
C154	C	0.114924	0.454571	0.574730
H155	H	-0.392022	-0.107043	0.099640
H156	H	0.107978	0.392957	0.599640
H157	H	-0.445707	-0.020726	0.057931
H158	H	0.054293	0.479274	0.557931
H159	H	-0.353438	-0.005420	0.127045
H160	H	0.146562	0.494580	0.627045
H161	H	-0.557715	-0.014061	-0.000114
H162	H	-0.057715	0.485939	0.499886
H163	H	-1.011563	-0.240958	-0.621607
H164	H	-0.511563	0.259042	-0.121607
H165	H	-0.818520	0.586440	-0.000079
H166	H	-0.318520	1.086440	0.499921
H167	H	-0.796692	0.063801	-0.000073
H168	H	-0.296692	0.563801	0.499927
H169	H	-0.861741	-0.091053	-0.378586
H170	H	-0.361741	0.408947	0.121414
O171	O	-1.027357	-0.256788	-0.793341
O172	O	-0.527357	0.243212	-0.293341
C173	C	-1.069443	-0.298888	-0.733786
C174	C	-0.569443	0.201112	-0.233786
H175	H	-1.034204	-0.298494	-0.669065
H176	H	-0.534204	0.201506	-0.169065
H177	H	-1.079392	-0.362285	-0.760022
H178	H	-0.579392	0.137715	-0.260022
H179	H	-1.128762	-0.269929	-0.724114
H180	H	-0.628762	0.230071	-0.224114
O181	O	-1.053520	0.237789	-0.000153
O182	O	-0.553520	0.737789	0.499847
C183	C	-1.120628	0.188205	-0.000149
C184	C	-0.620628	0.688205	0.499851
H185	H	-1.105716	0.126941	-0.027459
H186	H	-0.605716	0.626941	0.472541
H187	H	-1.170348	0.213482	-0.042042
H188	H	-0.670348	0.713482	0.457958
H189	H	-1.140084	0.184095	0.069053
H190	H	-0.640084	0.684095	0.569053
O191	O	-1.087314	0.611341	0.000015
O192	O	-0.587314	1.111341	0.500015
C193	C	-1.128812	0.597622	0.074735
C194	C	-0.628812	1.097622	0.574735
H195	H	-1.112261	0.537675	0.099642
H196	H	-0.612261	1.037675	0.599642
H197	H	-1.194864	0.598526	0.057928
H198	H	-0.694864	1.098526	0.557928
H199	H	-1.112871	0.645572	0.127055
H200	H	-0.612871	1.145572	0.627055
H201	H	-0.830508	0.437322	-0.000061
H202	H	-0.330508	0.937322	0.499939
H203	H	-0.827489	-0.056743	-0.621658
H204	H	-0.327489	0.443257	-0.121658
O205	O	-1.054093	-0.283491	-0.385798
O206	O	-0.554093	0.216509	0.114202
C207	C	-1.047286	-0.276694	-0.475684
C208	C	-0.547286	0.223306	0.024316
H209	H	-1.021678	-0.216214	-0.488099
H210	H	-0.521678	0.283786	0.011901
H211	H	-1.107977	-0.283973	-0.510179
H212	H	-0.607977	0.216027	-0.010179
H213	H	-1.006702	-0.324399	-0.501459
H214	H	-0.506702	0.175601	-0.001459
H215	H	-1.088594	0.455068	-0.000112
H216	H	-0.588594	0.955068	0.499888
H217	H	-1.054776	0.081557	-0.000124
H218	H	-0.554776	0.581557	0.499876
H219	H	-0.784706	0.212933	-0.000063
H220	H	-0.284706	0.712933	0.499937
H221	H	-0.834968	-0.064215	-0.786400
H222	H	-0.334968	0.435785	-0.286400
H223	H	-1.038337	-0.267794	-0.213796
H224	H	-0.538337	0.232206	0.286204
