data_functionalizedCrystal
_audit_creation_method	'MofGen! by Chris Wilmer'
_symmetry_space_group_name_H-M	'P1'
_symmetry_Int_Tables_number	1
_symmetry_cell_setting	triclinic
loop_
_symmetry_equiv_pos_as_xyz
  x,y,z
_cell_length_a	13.897449
_cell_length_b	29.839131
_cell_length_c	13.897441
_cell_angle_alpha	89.964857
_cell_angle_beta	89.979267
_cell_angle_gamma	90.042700
loop_
_atom_site_label
_atom_site_type_symbol
_atom_site_fract_x
_atom_site_fract_y
_atom_site_fract_z
Zn1	Zn	1.474544	-0.178824	-0.545351
Zn2	Zn	1.474371	-0.253959	-0.384039
Zn3	Zn	1.313233	-0.178845	-0.384069
Zn4	Zn	1.313148	-0.253929	-0.545292
O5	O	1.393824	-0.216389	-0.464688
O6	O	1.609502	-0.188794	-0.523965
O7	O	1.452959	-0.244016	-0.249061
O8	O	1.334739	-0.115975	-0.405500
O9	O	1.609375	-0.243995	-0.405450
O10	O	1.453253	-0.115959	-0.523993
O11	O	1.334571	-0.188830	-0.249083
O12	O	1.178240	-0.188802	-0.405443
O13	O	1.334594	-0.243945	-0.680281
O14	O	1.178177	-0.243966	-0.523893
O15	O	1.453171	-0.188765	-0.680325
O16	O	1.452876	-0.316822	-0.405393
O17	O	1.334426	-0.316800	-0.523864
C18	C	1.143209	-0.216383	-0.464666
C19	C	1.035995	-0.216391	-0.464679
C20	C	0.839700	-0.216393	-0.464704
C21	C	0.948933	-0.216391	-0.464688
C22	C	1.393649	-0.333112	-0.464640
C23	C	1.393663	-0.383046	-0.464652
C24	C	1.455613	-0.692688	-0.403090
C25	C	1.455732	-0.880361	-0.403127
O26	O	1.508265	-0.904625	-0.350748
N27	N	1.394024	-0.903831	-0.464760
C28	C	1.332286	-0.880380	-0.526393
O29	O	1.279809	-0.904649	-0.578824
C30	C	1.332172	-0.692708	-0.526360
C31	C	1.393878	-0.669240	-0.464716
C32	C	1.517314	-0.669221	-0.341451
C33	C	1.517280	-0.622305	-0.341439
C34	C	1.455545	-0.598857	-0.403065
C35	C	1.393844	-0.622325	-0.464703
C36	C	1.270440	-0.669258	-0.587997
C37	C	1.270419	-0.622336	-0.587985
C38	C	1.332124	-0.598869	-0.526341
C39	C	1.332074	-0.551962	-0.526317
N40	N	1.393782	-0.528492	-0.464684
C41	C	1.455518	-0.551939	-0.403057
C42	C	1.332349	-0.978911	-0.526405
C43	C	1.332375	-1.025828	-0.526412
C44	C	1.455823	-1.025806	-0.403147
C45	C	1.455790	-0.978888	-0.403136
C46	C	1.394057	-0.955441	-0.464772
C47	C	1.455441	-0.453414	-0.403035
C48	C	1.455398	-0.406494	-0.403026
C49	C	1.331955	-0.406520	-0.526294
C50	C	1.331993	-0.453436	-0.526301
C51	C	1.393744	-0.476881	-0.464668
O52	O	1.279576	-0.527669	-0.578676
O53	O	1.508002	-0.527662	-0.350650
C54	C	1.455647	-0.739604	-0.403102
C55	C	1.393946	-0.763071	-0.464741
C56	C	1.332211	-0.739623	-0.526367
C57	C	1.393973	-0.809989	-0.464748
C58	C	1.455708	-0.833437	-0.403122
C59	C	1.517416	-0.809967	-0.341489
C60	C	1.517382	-0.763051	-0.341476
C61	C	1.270503	-0.763093	-0.588000
C62	C	1.270541	-0.810009	-0.588007
C63	C	1.332276	-0.833457	-0.526381
C64	C	1.645417	-0.216395	-0.464710
C65	C	1.752631	-0.216398	-0.464720
C66	C	1.393892	-0.216349	-0.716281
C67	C	1.393921	-0.216332	-0.823495
C68	C	1.394025	-0.099211	-0.464757
C69	C	1.394111	-0.049276	-0.464786
C70	C	1.393948	-0.216302	-1.019790
C71	C	1.393930	-0.216320	-0.910558
C72	C	1.393811	-0.216396	-0.214073
C73	C	1.393969	-0.216287	-0.106860
H74	H	1.505646	-0.387388	-0.352824
C75	C	1.585263	-0.737240	-0.273670
C76	C	1.660956	-0.704936	-0.315522
C77	C	1.728841	-0.679128	-0.247713
C78	C	1.721035	-0.685625	-0.138053
C79	C	1.645339	-0.717931	-0.096196
C80	C	1.577453	-0.743739	-0.164005
H81	H	1.666737	-0.700125	-0.396703
H82	H	1.784876	-0.655213	-0.278699
H83	H	1.771288	-0.666521	-0.087857
H84	H	1.639557	-0.722742	-0.015014
H85	H	1.521418	-0.767654	-0.133019
H86	H	1.567680	-0.829066	-0.291308
H87	H	1.506090	-1.044906	-0.352969
H88	H	1.220232	-0.744006	-0.638185
C89	C	1.585164	-0.596497	-0.273632
C90	C	1.543402	-0.564290	-0.197844
C91	C	1.611293	-0.538486	-0.130033
C92	C	1.720946	-0.544889	-0.138011
C93	C	1.762714	-0.577097	-0.213803
C94	C	1.694823	-0.602901	-0.281613
H95	H	1.462225	-0.559549	-0.191935
H96	H	1.580373	-0.514644	-0.073928
H97	H	1.771203	-0.525787	-0.087814
H98	H	1.843890	-0.581838	-0.219711
H99	H	1.725743	-0.626743	-0.337719
C100	C	1.264047	-0.380723	-0.594081
C101	C	1.271868	-0.387131	-0.703746
C102	C	1.203964	-0.361334	-0.771539
C103	C	1.128239	-0.329128	-0.729667
C104	C	1.120415	-0.322718	-0.619997
C105	C	1.188319	-0.348516	-0.552204
H106	H	1.327927	-0.410973	-0.734747
H107	H	1.209756	-0.366079	-0.852724
H108	H	1.077972	-0.310031	-0.779852
H109	H	1.064356	-0.298876	-0.588996
H110	H	1.182527	-0.343771	-0.471019
C111	C	1.523673	-0.953075	-0.335333
C112	C	1.515865	-0.959568	-0.225672
C113	C	1.583753	-0.933758	-0.157869
C114	C	1.659447	-0.901456	-0.199726
C115	C	1.667258	-0.894963	-0.309393
C116	C	1.599370	-0.920772	-0.377196
H117	H	1.459829	-0.983481	-0.194682
H118	H	1.577971	-0.938565	-0.076686
H119	H	1.709702	-0.882351	-0.149534
H120	H	1.723294	-0.871050	-0.340383
H121	H	1.605153	-0.915965	-0.458379
C122	C	1.264491	-1.051640	-0.594215
C123	C	1.196592	-1.025841	-0.662002
C124	C	1.128710	-1.051650	-0.729812
C125	C	1.128727	-1.103258	-0.729834
C126	C	1.196629	-1.129059	-0.662043
C127	C	1.264511	-1.103250	-0.594234
H128	H	1.196576	-0.987635	-0.661989
H129	H	1.078444	-1.032550	-0.779995
H130	H	1.078477	-1.122364	-0.780030
H131	H	1.196644	-1.167265	-0.662057
H132	H	1.314777	-1.122350	-0.544051
H133	H	1.282075	-0.959823	-0.576598
C134	C	1.202659	-0.835819	-0.655822
C135	C	1.093003	-0.829423	-0.647861
C136	C	1.025130	-0.855231	-0.715682
C137	C	1.066912	-0.887435	-0.791463
C138	C	1.176574	-0.893833	-0.799426
C139	C	1.244447	-0.868025	-0.731606
H140	H	1.062067	-0.805582	-0.591761
H141	H	0.943951	-0.850495	-0.709786
H142	H	1.016668	-0.906540	-0.841667
H143	H	1.207509	-0.917674	-0.855527
H144	H	1.325626	-0.872761	-0.737502
H145	H	1.505726	-0.472497	-0.352851
H146	H	1.220189	-0.688357	-0.638190
C147	C	1.264120	-0.479255	-0.594106
C148	C	1.188439	-0.511567	-0.552262
C149	C	1.120575	-0.537384	-0.620077
C150	C	1.128393	-0.530888	-0.729737
C151	C	1.204077	-0.498574	-0.771586
C152	C	1.271941	-0.472758	-0.703771
H153	H	1.182649	-0.516377	-0.471080
H154	H	1.064549	-0.561305	-0.589097
H155	H	1.078156	-0.549999	-0.779938
H156	H	1.209867	-0.493764	-0.852768
H157	H	1.327967	-0.448837	-0.734751
H158	H	1.567591	-0.688307	-0.291268
H159	H	1.220149	-0.603248	-0.638179
