data_functionalizedCrystal
_audit_creation_method	'MofGen! by Chris Wilmer'
_symmetry_space_group_name_H-M	'P1'
_symmetry_Int_Tables_number	1
_symmetry_cell_setting	triclinic
loop_
_symmetry_equiv_pos_as_xyz
  x,y,z
_cell_length_a	25.639242
_cell_length_b	25.639240
_cell_length_c	18.101390
_cell_angle_alpha	89.957874
_cell_angle_beta	89.972459
_cell_angle_gamma	90.027658
loop_
_atom_site_label
_atom_site_type_symbol
_atom_site_fract_x
_atom_site_fract_y
_atom_site_fract_z
Zn1	Zn	0.799277	-0.208202	-0.418848
Zn2	Zn	0.799201	-0.295645	-0.294986
Zn3	Zn	0.711845	-0.208218	-0.295003
Zn4	Zn	0.711808	-0.295600	-0.418769
O5	O	0.755533	-0.251916	-0.356901
O6	O	0.872432	-0.219814	-0.402444
O7	O	0.787596	-0.284074	-0.191356
O8	O	0.723490	-0.135051	-0.311471
O9	O	0.872376	-0.284058	-0.311443
O10	O	0.787727	-0.135039	-0.402459
O11	O	0.723416	-0.219841	-0.191368
O12	O	0.638675	-0.219797	-0.311394
O13	O	0.723428	-0.283981	-0.522412
O14	O	0.638648	-0.283997	-0.402325
O15	O	0.787691	-0.219770	-0.522470
O16	O	0.787560	-0.368805	-0.311366
O17	O	0.723353	-0.368772	-0.402309
C18	C	0.619690	-0.251894	-0.356853
C19	C	0.561576	-0.251897	-0.356850
C20	C	0.755459	-0.387759	-0.356843
C21	C	0.755475	-0.445873	-0.356843
C22	C	0.310388	-0.218432	-0.309636
C23	C	0.364992	-0.218427	-0.309626
O24	O	0.393233	-0.189943	-0.269442
N25	N	0.392302	-0.251904	-0.356887
C26	C	0.365005	-0.285384	-0.404166
O27	O	0.393248	-0.313858	-0.444365
C28	C	0.310402	-0.285386	-0.404179
C29	C	0.283095	-0.251911	-0.356909
C30	C	0.283081	-0.184959	-0.262371
C31	C	0.228480	-0.184965	-0.262380
C32	C	0.201187	-0.218443	-0.309653
C33	C	0.228494	-0.251916	-0.356918
C34	C	0.283105	-0.318863	-0.451461
C35	C	0.228498	-0.318862	-0.451470
C36	C	0.201191	-0.285386	-0.404200
C37	C	0.146600	-0.285401	-0.404200
N38	N	0.119290	-0.251924	-0.356939
C39	C	0.146583	-0.218445	-0.309666
C40	C	0.479676	-0.285377	-0.404137
C41	C	0.534278	-0.285378	-0.404121
C42	C	0.534261	-0.218421	-0.309582
C43	C	0.479658	-0.218422	-0.309595
C44	C	0.452366	-0.251900	-0.356876
C45	C	0.031918	-0.218460	-0.309687
C46	C	-0.022687	-0.218470	-0.309698
C47	C	-0.022666	-0.285426	-0.404239
C48	C	0.031935	-0.285418	-0.404226
C49	C	0.059226	-0.251930	-0.356947
O50	O	0.118324	-0.313869	-0.444367
O51	O	0.118334	-0.189971	-0.269481
C52	C	0.788997	-0.806191	-0.404365
C53	C	0.789013	-0.860796	-0.404380
O54	O	0.817427	-0.888994	-0.444724
N55	N	0.755605	-0.888155	-0.356973
C56	C	0.722176	-0.860908	-0.309554
O57	O	0.693762	-0.889194	-0.269232
C58	C	0.722159	-0.806305	-0.309543
C59	C	0.755572	-0.778948	-0.356947
C60	C	0.822407	-0.778834	-0.451766
C61	C	0.822393	-0.724234	-0.451749
C62	C	0.788967	-0.696990	-0.404332
C63	C	0.755557	-0.724347	-0.356931
C64	C	0.688728	-0.779058	-0.262128
C65	C	0.688713	-0.724451	-0.262121
C66	C	0.722126	-0.697094	-0.309526
C67	C	0.722117	-0.642503	-0.309497
N68	N	0.755525	-0.615143	-0.356904
C69	C	0.788950	-0.642387	-0.404321
C70	C	0.722215	-0.975579	-0.309581
C71	C	0.722235	-1.030181	-0.309587
C72	C	0.789071	-1.030065	-0.404414
C73	C	0.789053	-0.975462	-0.404404
C74	C	0.755623	-0.948219	-0.356987
C75	C	0.788916	-0.527722	-0.404283
C76	C	0.788900	-0.473117	-0.404261
C77	C	0.722063	-0.473238	-0.309437
C78	C	0.722081	-0.527838	-0.309456
C79	C	0.755509	-0.555079	-0.356885
O80	O	0.693716	-0.614270	-0.269176
O81	O	0.817355	-0.614095	-0.444643
C82	C	0.891906	-0.251939	-0.356950
C83	C	0.950020	-0.251949	-0.356971
C84	C	0.755564	-0.251869	-0.550063
C85	C	0.755577	-0.251848	-0.632378
C86	C	0.755621	-0.115543	-0.356976
C87	C	0.755659	-0.057429	-0.357008
C88	C	0.755605	-0.251816	-0.931469
C89	C	0.796171	-0.211558	-0.900180
C90	C	0.796045	-0.211408	-0.814562
C91	C	0.755592	-0.251832	-0.783086
C92	C	0.700512	-0.236857	-0.814152
C93	C	0.700755	-0.236556	-0.899798
C94	C	0.769634	-0.307152	-0.899871
C95	C	0.770843	-0.306869	-0.814221
C96	C	0.755581	-0.251842	-0.699227
C97	C	0.755613	-0.251804	-1.015328
C98	C	0.755532	-0.251926	-0.164491
C99	C	0.755620	-0.251799	-0.082177
H100	H	-0.044918	-0.191209	-0.271203
H101	H	0.836887	-0.220787	-0.793560
H102	H	0.688862	-0.196105	-0.919795
H103	H	0.837148	-0.220820	-0.920788
H104	H	0.688403	-0.196857	-0.792721
H105	H	0.054132	-0.191189	-0.271192
H106	H	0.849599	-0.701963	-0.490352
H107	H	0.816134	-0.549895	-0.442910
H108	H	0.694850	-0.451047	-0.270828
H109	H	0.457457	-0.312643	-0.442638
H110	H	0.556507	-0.312643	-0.442605
H111	H	0.694877	-0.550113	-0.270850
H112	H	0.669502	-0.264602	-0.920493
H113	H	0.816287	-1.052256	-0.443026
H114	H	0.740090	-0.337148	-0.920109
H115	H	0.811376	-0.318161	-0.793917
H116	H	0.849626	-0.801010	-0.490383
H117	H	0.809093	-0.320786	-0.921520
H118	H	0.787003	-0.170793	-0.921725
H119	H	0.786759	-0.170415	-0.794097
H120	H	0.669467	-0.265276	-0.793761
H121	H	0.206251	-0.157706	-0.223888
H122	H	0.743445	-0.338477	-0.792792
H123	H	0.206280	-0.346122	-0.489975
H124	H	0.457428	-0.191162	-0.271107
H125	H	0.305297	-0.157694	-0.223875
H126	H	0.661519	-0.801323	-0.223526
H127	H	0.556494	-0.191159	-0.271091
H128	H	0.305330	-0.346122	-0.489952
H129	H	0.695032	-1.052450	-0.270978
H130	H	0.054170	-0.312680	-0.442711
H131	H	0.816111	-0.450844	-0.442863
H132	H	-0.044898	-0.312685	-0.442725
H133	H	0.816261	-0.953191	-0.443005
H134	H	0.661488	-0.702273	-0.223510
H135	H	0.694994	-0.953400	-0.270963
