data_functionalizedCrystal
_audit_creation_method	'MofGen! by Chris Wilmer'
_symmetry_space_group_name_H-M	'P1'
_symmetry_Int_Tables_number	1
_symmetry_cell_setting	triclinic
loop_
_symmetry_equiv_pos_as_xyz
  x,y,z
_cell_length_a	13.032831
_cell_length_b	16.959454
_cell_length_c	13.032268
_cell_angle_alpha	82.849649
_cell_angle_beta	89.113023
_cell_angle_gamma	82.825094
loop_
_atom_site_label
_atom_site_type_symbol
_atom_site_fract_x
_atom_site_fract_y
_atom_site_fract_z
Zn1	Zn	1.498450	-0.533808	0.780847
Zn2	Zn	1.520186	-0.651576	0.608869
Zn3	Zn	1.348310	-0.500789	0.587087
Zn4	Zn	1.326434	-0.647302	0.758994
O5	O	1.423345	-0.583369	0.683949
O6	O	1.645253	-0.565038	0.776295
O7	O	1.515638	-0.619543	0.462063
O8	O	1.368285	-0.394566	0.612819
O9	O	1.661222	-0.651561	0.649944
O10	O	1.478592	-0.418826	0.755173
O11	O	1.389361	-0.508760	0.446059
O12	O	1.201488	-0.504616	0.591629
O13	O	1.331000	-0.644277	0.905810
O14	O	1.185416	-0.612259	0.717929
O15	O	1.457380	-0.560894	0.921865
O16	O	1.494425	-0.761611	0.628754
O17	O	1.352077	-0.758471	0.739051
C18	C	1.156135	-0.554392	0.650045
C19	C	1.041819	-0.542016	0.635565
C20	C	0.982940	-0.589828	0.691506
C21	C	0.864788	-0.577038	0.676542
C22	C	1.423261	-0.788724	0.683921
C23	C	1.423315	-0.876589	0.683955
C24	C	1.349320	-1.246472	0.741386
C25	C	1.497643	-1.249702	0.626654
C26	C	1.497608	-1.167152	0.626640
C27	C	1.423427	-1.124257	0.683998
C28	C	1.349281	-1.163913	0.741371
C29	C	1.571746	-1.127488	0.569260
C30	C	1.571713	-1.044932	0.569243
C31	C	1.497536	-1.002037	0.626608
C32	C	1.423388	-1.041698	0.683984
C33	C	1.349208	-0.998804	0.741342
C34	C	1.275063	-1.038465	0.798724
C35	C	1.275104	-1.121018	0.798736
C36	C	1.497495	-0.919484	0.626597
C37	C	1.349169	-0.916245	0.741327
C38	C	1.691598	-0.612460	0.717986
C39	C	1.805911	-0.624856	0.732491
C40	C	1.389325	-0.605792	0.952197
C41	C	1.374828	-0.615348	1.066508
C42	C	1.423454	-0.377216	0.684004
C43	C	1.423501	-0.289366	0.684027
C44	C	1.457291	-0.560982	0.416753
C45	C	1.471987	-0.551225	0.302467
C46	C	1.430895	-0.578351	1.125415
C47	C	1.415913	-0.588227	1.243562
H48	H	0.827729	-0.526630	0.617570
H49	H	0.842968	-0.675257	0.791474
C50	C	1.550653	-0.499090	1.253153
C51	C	1.524993	-0.420624	1.276382
C52	C	1.597425	-0.372571	1.230965
H53	H	1.617580	-0.519502	1.279436
H54	H	1.550251	-0.499298	1.180294
H55	H	1.525406	-0.420419	1.349226
H56	H	1.458078	-0.400189	1.250097
H57	H	1.597023	-0.372779	1.158106
H58	H	1.664348	-0.392990	1.257252
H59	H	1.580020	-0.319325	1.246711
C60	C	1.652179	-1.001959	0.506779
C61	C	1.642805	-1.011159	0.402181
C62	C	1.716924	-0.971593	0.344614
H63	H	1.641622	-0.946633	0.514855
H64	H	1.719381	-1.024218	0.530600
H65	H	1.575619	-0.988898	0.378368
H66	H	1.653372	-1.066476	0.394074
H67	H	1.784126	-0.993851	0.368434
H68	H	1.706360	-0.916269	0.352697
H69	H	1.710580	-0.977836	0.273639
C70	C	1.296125	-0.667333	1.116078
C71	C	1.296940	-0.666817	1.223411
C72	C	1.224462	-0.714708	1.269108
H73	H	1.229180	-0.646876	1.089879
H74	H	1.313367	-0.720636	1.100480
H75	H	1.279691	-0.613525	1.239002
H76	H	1.363867	-0.687280	1.249639
H77	H	1.241705	-0.768011	1.253509
H78	H	1.157522	-0.694247	1.242901
H79	H	1.225012	-0.714370	1.341938
H80	H	1.020003	-0.640227	0.750482
C81	C	1.577943	-0.876502	0.564126
C82	C	1.568553	-0.885702	0.459529
C83	C	1.642656	-0.846127	0.401949
H84	H	1.567380	-0.821176	0.572202
H85	H	1.645151	-0.898754	0.587934
H86	H	1.501361	-0.863446	0.435727
H87	H	1.579127	-0.941018	0.451421
H88	H	1.709864	-0.868379	0.425757
H89	H	1.632086	-0.790804	0.410033
H90	H	1.636301	-0.852370	0.330975
C91	C	0.992222	-0.474887	0.556932
C92	C	0.884897	-0.475570	0.557690
C93	C	0.839180	-0.413752	0.485249
H94	H	1.007751	-0.424896	0.574214
H95	H	1.018475	-0.482490	0.489986
H96	H	0.858653	-0.467961	0.624620
H97	H	0.869338	-0.525546	0.540396
H98	H	0.865432	-0.421355	0.418304
H99	H	0.854716	-0.363765	0.502539
H100	H	0.766356	-0.414212	0.485747
H101	H	1.214739	-1.153317	0.845452
C102	C	1.509558	-0.526227	1.076080
C103	C	1.483913	-0.447755	1.099293
C104	C	1.556347	-0.399714	1.053854
H105	H	1.576487	-0.546641	1.102358
H106	H	1.509145	-0.526445	1.003224
H107	H	1.484337	-0.447541	1.172135
H108	H	1.416997	-0.427318	1.073014
H109	H	1.555935	-0.399932	0.980997
H110	H	1.623272	-0.420135	1.080135
H111	H	1.538953	-0.346464	1.069589
C112	C	1.268512	-0.869811	0.803633
C113	C	1.203581	-0.922213	0.853866
C114	C	1.129262	-0.879466	0.911261
H115	H	1.301992	-0.845576	0.853530
H116	H	1.228649	-0.829508	0.758586
H117	H	1.243439	-0.962502	0.898909
H118	H	1.170077	-0.946450	0.803993
H119	H	1.089398	-0.839162	0.866213
H120	H	1.162751	-0.855232	0.961152
H121	H	1.085192	-0.915012	0.945343
H122	H	1.214661	-1.003530	0.845421
C123	C	1.268982	-1.289651	0.803763
C124	C	1.318819	-1.348832	0.877105
C125	C	1.244846	-1.388632	0.934576
H126	H	1.224762	-1.252376	0.838014
H127	H	1.229225	-1.313795	0.758742
H128	H	1.358559	-1.324688	0.922119
H129	H	1.363034	-1.386123	0.842882
H130	H	1.205089	-1.412776	0.889555
H131	H	1.200630	-1.351351	0.968820
H132	H	1.278650	-1.428795	0.984338
C133	C	1.578084	-1.296409	0.564437
C134	C	1.562244	-1.377194	0.576724
C135	C	1.636322	-1.420245	0.519412
H136	H	1.571877	-1.275574	0.493396
H137	H	1.645294	-1.291659	0.588283
H138	H	1.495051	-1.381940	0.552872
H139	H	1.568461	-1.398052	0.647752
H140	H	1.703531	-1.415495	0.543259
H141	H	1.630108	-1.399404	0.448375
H142	H	1.625590	-1.475063	0.527749
C143	C	1.652389	-1.174017	0.507058
C144	C	1.751307	-1.166813	0.542368
C145	C	1.825603	-1.209677	0.485078
H146	H	1.641889	-1.228874	0.515270
H147	H	1.646199	-1.153110	0.436027
H148	H	1.757494	-1.187723	0.613382
H149	H	1.761840	-1.111966	0.534154
H150	H	1.819412	-1.188770	0.414046
H151	H	1.815093	-1.264531	0.493294
H152	H	1.892727	-1.204789	0.509021
H153	H	1.356810	-0.627208	1.280591
