data_functionalizedCrystal
_audit_creation_method	'MofGen! by Chris Wilmer'
_symmetry_space_group_name_H-M	'P1'
_symmetry_Int_Tables_number	1
_symmetry_cell_setting	triclinic
loop_
_symmetry_equiv_pos_as_xyz
  x,y,z
_cell_length_a	6.817900
_cell_length_b	11.168121
_cell_length_c	14.858572
_cell_angle_alpha	93.498084
_cell_angle_beta	104.524003
_cell_angle_gamma	108.508496
loop_
_atom_site_label
_atom_site_type_symbol
_atom_site_fract_x
_atom_site_fract_y
_atom_site_fract_z
V1	V	-4.064038	-0.175499	-0.289968
O2	O	-4.024496	0.007616	-0.284440
O3	O	-4.040638	-0.347199	-0.287992
O4	O	-4.020335	-0.173159	-0.416429
O5	O	-4.044940	-0.167630	-0.155114
V6	V	-4.543818	-0.153554	-0.273837
O7	O	-4.333507	-0.223638	-0.325352
O8	O	-4.724546	-0.105416	-0.238454
O9	O	-4.344011	0.018146	-0.275813
O10	O	-4.700756	-0.336669	-0.279365
O11	O	-4.680313	-0.161424	-0.408691
O12	O	-4.364314	-0.155895	-0.147376
C13	C	-3.891568	-0.389045	-0.283420
C14	C	-3.953754	-0.529414	-0.282648
C15	C	-4.155620	-0.598118	-0.286714
C16	C	-4.219897	-0.743197	-0.285916
C17	C	-3.865669	-0.167037	-0.447253
C18	C	-3.911386	-0.166259	-0.550636
C19	C	-4.078711	-0.163417	-0.929204
C20	C	-4.032148	-0.164208	-0.823875
C21	C	-3.995050	-0.164839	-0.739924
C22	C	-3.948483	-0.165628	-0.634587
C23	C	-4.156424	0.059985	-0.280383
C24	C	-4.073476	0.200352	-0.281161
C25	C	-4.182323	-0.162021	-0.116547
C26	C	-4.115844	-0.162792	-0.013163
H27	H	-3.828518	-0.578001	-0.278581
O28	O	-4.305331	-0.540375	-0.291608
C29	C	-4.505489	-0.632417	-0.295204
H30	H	-4.509733	-0.730938	-0.322918
H31	H	-4.527270	-0.632309	-0.221595
C32	C	-4.683765	-0.479016	-0.327090
C33	C	-4.688984	-0.600019	-0.361136
H34	H	-4.796956	-0.459030	-0.367756
H35	H	-4.548914	-0.417003	-0.324664
H36	H	-4.701908	-0.478941	-0.265749
H37	H	-4.670814	-0.600088	-0.422470
H38	H	-4.823837	-0.662031	-0.363574
H39	H	-3.900539	-0.740595	-0.277677
O40	O	-4.426072	-0.813748	-0.289935
C41	C	-4.426676	-0.873041	-0.208857
H42	H	-4.261561	-0.881295	-0.177743
H43	H	-4.463896	-0.813307	-0.154768
C44	C	-4.802898	-0.997211	-0.273603
C45	C	-4.600106	-1.007359	-0.235392
H46	H	-4.909884	-1.080062	-0.289968
H47	H	-4.802495	-0.957261	-0.328225
H48	H	-4.833885	-0.947428	-0.228522
H49	H	-4.569111	-1.057127	-0.280477
H50	H	-4.600509	-1.047320	-0.180778
