data_functionalizedCrystal
_audit_creation_method	'MofGen! by Chris Wilmer'
_symmetry_space_group_name_H-M	'P1'
_symmetry_Int_Tables_number	1
_symmetry_cell_setting	triclinic
loop_
_symmetry_equiv_pos_as_xyz
  x,y,z
_cell_length_a	14.185569
_cell_length_b	19.288864
_cell_length_c	19.288865
_cell_angle_alpha	96.863755
_cell_angle_beta	103.113428
_cell_angle_gamma	103.094600
loop_
_atom_site_label
_atom_site_type_symbol
_atom_site_fract_x
_atom_site_fract_y
_atom_site_fract_z
O1	O	0.083748	-0.905480	0.102508
O2	O	0.083681	-0.703232	0.114184
O3	O	0.083697	-0.810204	0.007212
O4	O	0.083732	-0.798509	0.209479
O5	O	-0.083133	-0.841805	-0.024385
O6	O	-0.083149	-0.734833	0.082587
O7	O	-0.083082	-0.937081	0.070911
Cu8	Cu	-0.098348	-0.838842	0.073864
Cu9	Cu	0.098947	-0.801471	0.111231
O10	O	-0.083098	-0.830109	0.177882
C11	C	0.000257	-0.693158	0.098007
C12	C	0.000231	-0.616059	0.096873
N13	N	-0.237116	-0.865132	0.047581
C14	C	0.000278	-0.825629	-0.034464
C15	C	0.000269	-0.824502	-0.111569
C16	C	-0.604790	-0.697947	0.214695
C17	C	-0.709809	-0.717866	0.194791
C18	C	-0.709756	-0.812609	0.100103
C19	C	-0.604735	-0.792695	0.119997
C20	C	-0.552260	-0.735364	0.177294
C21	C	-0.552205	-0.830113	0.082595
C22	C	-0.447194	-0.810203	0.102490
C23	C	-0.394712	-0.752876	0.159786
C24	C	-0.447249	-0.715455	0.197189
C25	C	-0.604682	-0.887446	0.025302
C26	C	-0.552152	-0.924864	-0.012100
C27	C	-0.447139	-0.904951	0.007791
C28	C	-0.394657	-0.847624	0.065088
C29	C	-0.394602	-0.942372	-0.029611
C30	C	-0.289590	-0.922463	-0.009716
C31	C	-0.289645	-0.827715	0.084983
N32	N	0.237715	-0.775187	0.137508
C33	C	0.000344	-0.947155	0.087087
C34	C	0.000377	-1.024252	0.088223
C35	C	0.000258	-0.571358	0.159646
C36	C	0.000268	-0.498909	0.158588
C37	C	0.000273	-0.471160	0.094756
C38	C	0.000240	-0.515873	0.031974
C39	C	0.000219	-0.588322	0.033033
C40	C	0.058745	-0.351823	0.055652
C41	C	0.058772	-0.279373	0.054597
C42	C	0.000333	-0.247703	0.091488
C43	C	-0.058121	-0.288488	0.129448
C44	C	-0.058142	-0.360938	0.130507
C45	C	0.000295	-0.392602	0.093601
C46	C	0.000370	-0.124444	0.153117
C47	C	0.000375	-0.051995	0.152055
C48	C	0.000356	-0.068959	0.025441
C49	C	0.000342	-0.141408	0.026504
C50	C	0.000353	-0.169145	0.090344
C51	C	0.000285	-0.887266	-0.156262
C52	C	0.000301	-0.886203	-0.228706
C53	C	0.000280	-0.822375	-0.256458
C54	C	0.000270	-0.759600	-0.211754
C55	C	0.000264	-0.760664	-0.139309
C56	C	-0.058173	-0.783267	-0.375816
C57	C	-0.058174	-0.782207	-0.448261
C58	C	0.000302	-0.819091	-0.479899
C59	C	0.058765	-0.857048	-0.439088
C60	C	0.058759	-0.858112	-0.366644
C61	C	0.000287	-0.821214	-0.335011
C62	C	0.000336	-0.880707	-0.603145
C63	C	0.000357	-0.879639	-0.675589
C64	C	0.000317	-0.753037	-0.658637
C65	C	0.000305	-0.754104	-0.586192
C66	C	0.000310	-0.817942	-0.558452
C67	C	0.000323	-0.814684	0.219558
C68	C	0.000339	-0.815810	0.296665
H69	H	-0.246918	-0.781025	0.131635
H70	H	0.106364	-0.889016	-0.333418
O71	O	0.121850	-0.896830	-0.473197
H72	H	0.112046	-0.889707	-0.530425
H73	H	-0.690189	-0.903657	0.009108
O74	O	0.000263	-0.686412	-0.537985
H75	H	0.000239	-0.641851	-0.569452
O76	O	0.000361	-0.949551	-0.573212
H77	H	0.000394	-0.993015	-0.616461
O78	O	-0.766356	-0.874445	0.038309
H79	H	-0.746210	-0.861950	-0.012000
H80	H	-0.752573	-0.687392	0.225254
O81	O	0.000196	-0.636537	-0.034677
H82	H	-0.067814	-0.682808	-0.050102
H83	H	-0.594889	-0.971545	-0.058750
H84	H	-0.105773	-0.751296	-0.481482
H85	H	-0.562063	-0.651258	0.261347
O86	O	0.000318	-0.956111	-0.126335
H87	H	0.000347	-0.999575	-0.169586
H88	H	0.000422	-0.046355	-0.026520
H89	H	-0.437340	-0.989056	-0.076258
H90	H	-0.246820	-0.952933	-0.040172
H91	H	0.000391	-0.015600	0.203173
H92	H	0.000269	-0.593936	0.211631
O93	O	0.000308	-0.450679	0.226297
H94	H	0.000320	-0.482137	0.270867
O95	O	-0.121225	-0.404942	0.171412
H96	H	-0.161879	-0.370759	0.196875
O97	O	-0.121167	-0.254346	0.169238
H98	H	-0.111346	-0.197119	0.162118
H99	H	0.000365	-0.147032	0.205097
O100	O	0.000304	-0.953903	-0.276928
H101	H	0.000299	-0.998473	-0.245469
H102	H	0.000376	-0.930751	-0.711977
H103	H	-0.105797	-0.753231	-0.350063
H104	H	0.000325	-0.177804	-0.024612
O105	O	0.000290	-0.684191	-0.688557
H106	H	0.000290	-0.693996	-0.746443
O107	O	0.121802	-0.235388	0.013648
H108	H	0.162415	-0.269585	-0.011843
H109	H	0.000255	-0.707631	-0.234353
H110	H	0.000251	-0.709552	-0.102919
H111	H	0.000257	-0.493273	-0.019995
O112	O	-0.281448	-0.731394	0.181242
H113	H	-0.253713	-0.777985	0.197468
O114	O	-0.390636	-0.653618	0.258988
H115	H	-0.444803	-0.630942	0.281657
H116	H	0.106340	-0.377601	0.025610
