data_functionalizedCrystal
_audit_creation_method	'MofGen! by Chris Wilmer'
_symmetry_space_group_name_H-M	'P1'
_symmetry_Int_Tables_number	1
_symmetry_cell_setting	triclinic
loop_
_symmetry_equiv_pos_as_xyz
  x,y,z
_cell_length_a	23.532407
_cell_length_b	23.532407
_cell_length_c	15.186229
_cell_angle_alpha	89.991614
_cell_angle_beta	90.001988
_cell_angle_gamma	82.848678
loop_
_atom_site_label
_atom_site_type_symbol
_atom_site_fract_x
_atom_site_fract_y
_atom_site_fract_z
O1	O	0.755259	0.069134	-0.073128
O2	O	0.589395	0.079137	-0.073155
O3	O	0.677329	-0.008796	-0.073124
O4	O	0.667325	0.157067	-0.073158
O5	O	0.677323	-0.008797	0.073333
O6	O	0.589389	0.079136	0.073303
O7	O	0.755253	0.069133	0.073330
Zn8	Zn	0.672320	0.074134	0.096569
Zn9	Zn	0.672328	0.074136	-0.096394
O10	O	0.667320	0.157066	0.073299
C11	C	0.568176	0.078882	0.000071
C12	C	0.504959	0.078116	0.000061
C13	C	0.677071	-0.030013	0.000107
C14	C	0.676305	-0.093230	0.000113
C15	C	0.105856	0.125350	0.000091
C16	C	0.046456	0.124638	0.000097
O17	O	0.009711	0.168424	0.000120
N18	N	0.023830	0.072362	0.000106
C19	C	0.060607	0.020794	0.000119
O20	O	0.035908	-0.023737	0.000128
C21	C	0.120006	0.021506	0.000120
C22	C	0.142629	0.073785	0.000101
C23	C	0.128479	0.177625	0.000074
C24	C	0.187876	0.178336	0.000067
C25	C	0.224649	0.126772	0.000077
C26	C	0.202025	0.074496	0.000094
C27	C	0.156783	-0.030062	0.000138
C28	C	0.216185	-0.029345	0.000140
C29	C	0.238808	0.022934	0.000122
C30	C	0.298194	0.023643	0.000097
N31	N	0.320820	0.075920	0.000088
C32	C	0.284048	0.127484	0.000078
C33	C	-0.064135	0.019302	0.000119
C34	C	-0.123533	0.018589	0.000112
C35	C	-0.137680	0.122434	0.000091
C36	C	-0.078281	0.123146	0.000092
C37	C	-0.041509	0.071578	0.000109
C38	C	0.408784	0.128974	0.000062
C39	C	0.468186	0.129680	0.000051
C40	C	0.482329	0.025836	0.000076
C41	C	0.422932	0.025129	0.000082
C42	C	0.386160	0.076702	0.000078
O43	O	0.334974	-0.020119	0.000078
O44	O	0.308755	0.172007	0.000080
C45	C	0.723539	-0.492333	0.000073
C46	C	0.722827	-0.551733	0.000066
O47	O	0.766613	-0.588478	0.000041
N48	N	0.670551	-0.574359	0.000058
C49	C	0.618983	-0.537582	0.000048
O50	O	0.574452	-0.562281	0.000040
C51	C	0.619695	-0.478182	0.000049
C52	C	0.671974	-0.455560	0.000065
C53	C	0.775814	-0.469710	0.000089
C54	C	0.776525	-0.410313	0.000097
C55	C	0.724961	-0.373540	0.000090
C56	C	0.672685	-0.396164	0.000074
C57	C	0.568127	-0.441406	0.000032
C58	C	0.568844	-0.382004	0.000032
C59	C	0.621123	-0.359381	0.000049
C60	C	0.621832	-0.299995	0.000075
N61	N	0.674109	-0.277368	0.000083
C62	C	0.725673	-0.314141	0.000090
C63	C	0.617491	-0.662324	0.000045
C64	C	0.616778	-0.721722	0.000051
C65	C	0.720623	-0.735869	0.000068
C66	C	0.721335	-0.676470	0.000068
C67	C	0.669767	-0.639698	0.000053
C68	C	0.727163	-0.189405	0.000109
C69	C	0.727869	-0.130003	0.000121
C70	C	0.624025	-0.115860	0.000100
C71	C	0.623318	-0.175257	0.000092
C72	C	0.674891	-0.212029	0.000094
O73	O	0.578070	-0.263215	0.000097
O74	O	0.770196	-0.289433	0.000087
C75	C	0.776472	0.069388	0.000102
C76	C	0.839689	0.070154	0.000106
C77	C	0.667577	0.178283	0.000066
C78	C	0.668343	0.241500	0.000054
N79	N	0.672319	0.074133	0.228262
N80	N	0.672334	0.074133	-0.228087
C81	C	0.711269	0.035209	0.453998
C82	C	0.711271	0.035208	0.546188
C83	C	0.633379	0.113059	0.546170
C84	C	0.633375	0.113057	0.453982
C85	C	0.672323	0.074133	0.407899
C86	C	0.672329	0.074133	0.592276
C87	C	0.672331	0.074132	0.692232
C88	C	0.672321	0.074133	0.307936
H89	H	0.378851	0.170970	0.000061
C90	C	0.514773	-0.654316	0.000044
C91	C	0.560802	-0.621906	0.000046
H92	H	0.479777	-0.629364	0.000049
H93	H	0.516658	-0.677770	-0.051028
H94	H	0.516663	-0.677786	0.051119
H95	H	0.558914	-0.598438	-0.051032
H96	H	0.558916	-0.598442	0.051123
H97	H	0.206289	0.220908	0.000052
H98	H	0.601670	0.144751	0.583701
H99	H	-0.059867	0.165717	0.000082
H100	H	0.098544	0.219617	0.000069
C101	C	0.480552	-0.351652	-0.075278
C102	C	0.512156	-0.341584	0.000018
H103	H	0.445555	-0.326702	-0.075281
H104	H	0.502005	-0.344813	-0.126334
H105	H	0.472654	-0.390268	-0.075275
H106	H	0.520058	-0.302969	0.000012
H107	H	0.490699	-0.348419	0.051088
H108	H	0.601658	0.144753	0.416445
H109	H	0.486602	0.172255	0.000036
H110	H	0.582043	-0.085909	0.000097
H111	H	-0.167632	0.164421	0.000087
C112	C	-0.103568	-0.083983	0.000132
C113	C	-0.148396	-0.038878	0.000123
H114	H	-0.118917	-0.119461	0.000149
H115	H	-0.080700	-0.081543	-0.050941
H116	H	-0.080691	-0.081538	0.051205
H117	H	-0.171270	-0.041320	-0.050953
H118	H	-0.171273	-0.041319	0.051202
C119	C	0.782387	-0.617894	0.075366
C120	C	0.778803	-0.651608	0.000079
H121	H	0.817868	-0.602551	0.075372
H122	H	0.751786	-0.587491	0.075353
H123	H	0.779945	-0.640781	0.126434
H124	H	0.781240	-0.628720	-0.050989
H125	H	0.809411	-0.682016	0.000084
H126	H	0.742982	0.003514	0.416479
H127	H	0.762610	-0.765821	0.000070
H128	H	0.138375	-0.072634	0.000154
C129	C	0.555732	-0.780297	-0.075250
C130	C	0.559312	-0.746586	0.000042
H131	H	0.520255	-0.795647	-0.075255
H132	H	0.558171	-0.757411	-0.126309
H133	H	0.586340	-0.810701	-0.075238
H134	H	0.528706	-0.716179	0.000026
H135	H	0.556868	-0.769473	0.051114
C136	C	0.246527	-0.117640	-0.075129
C137	C	0.256607	-0.086031	0.000151
H138	H	0.271484	-0.152632	-0.075126
H139	H	0.207918	-0.125542	-0.075115
H140	H	0.253354	-0.096184	-0.126202
H141	H	0.249776	-0.107486	0.051224
H142	H	0.295226	-0.078130	0.000145
C143	C	0.788267	-0.041738	0.536940
C144	C	0.754084	-0.007576	0.596861
H145	H	0.814700	-0.068150	0.568225
H146	H	0.764678	-0.062104	0.500991
H147	H	0.808613	-0.018128	0.500975
H148	H	0.733735	-0.031186	0.632821
H149	H	0.777676	0.012791	0.632825
C150	C	0.520744	-0.155304	0.000068
C151	C	0.565852	-0.200128	0.000073
H152	H	0.485267	-0.170656	0.000042
H153	H	0.523175	-0.132444	0.051147
H154	H	0.523192	-0.132418	-0.051000
H155	H	0.563406	-0.223011	0.051143
H156	H	0.563419	-0.222997	-0.051012
H157	H	-0.034198	-0.022693	0.000125
C158	C	0.442885	-0.077445	0.000095
C159	C	0.398061	-0.032337	0.000093
H160	H	0.427533	-0.112922	0.000112
H161	H	0.465751	-0.075007	-0.050980
H162	H	0.465765	-0.075004	0.051166
H163	H	0.375184	-0.034776	-0.050982
H164	H	0.375186	-0.034777	0.051173
H165	H	0.512280	-0.016146	0.000081
H166	H	0.770443	-0.111587	0.000137
H167	H	0.769159	-0.219337	0.000106
H168	H	0.819097	-0.391900	0.000107
C169	C	0.878527	-0.477711	0.000121
C170	C	0.832500	-0.510125	0.000104
H171	H	0.913525	-0.502660	0.000141
H172	H	0.876646	-0.454248	-0.050952
H173	H	0.876629	-0.454249	0.051194
H174	H	0.834396	-0.533584	-0.050973
H175	H	0.834382	-0.533597	0.051182
C176	C	0.507083	-0.499971	-0.075291
C177	C	0.510658	-0.466262	0.000003
H178	H	0.471603	-0.515317	-0.075307
H179	H	0.509531	-0.477086	-0.126349
H180	H	0.537688	-0.530379	-0.075271
H181	H	0.480056	-0.435852	-0.000020
H182	H	0.508205	-0.489148	0.051074
