data_functionalizedCrystal
_audit_creation_method	'MofGen! by Chris Wilmer'
_symmetry_space_group_name_H-M	'P1'
_symmetry_Int_Tables_number	1
_symmetry_cell_setting	triclinic
loop_
_symmetry_equiv_pos_as_xyz
  x,y,z
_cell_length_a	15.298068
_cell_length_b	16.625545
_cell_length_c	15.296720
_cell_angle_alpha	99.644199
_cell_angle_beta	88.354818
_cell_angle_gamma	99.685208
loop_
_atom_site_label
_atom_site_type_symbol
_atom_site_fract_x
_atom_site_fract_y
_atom_site_fract_z
Zn1	Zn	1.253364	-0.239865	-0.727359
Zn2	Zn	1.586697	0.093468	-0.394026
Zn3	Zn	1.920031	0.426802	-0.060693
Zn4	Zn	1.278620	-0.348155	-0.580888
Zn5	Zn	1.611953	-0.014822	-0.247555
Zn6	Zn	1.945286	0.318511	0.085778
Zn7	Zn	1.132245	-0.232030	-0.555526
Zn8	Zn	1.465578	0.101303	-0.222193
Zn9	Zn	1.798911	0.434636	0.111140
Zn10	Zn	1.106846	-0.393358	-0.701911
Zn11	Zn	1.440180	-0.060024	-0.368577
Zn12	Zn	1.773513	0.273309	-0.035244
O13	O	1.192769	-0.303352	-0.641421
O14	O	1.526102	0.029981	-0.308088
O15	O	1.859435	0.363315	0.025246
O16	O	1.379291	-0.238591	-0.729194
O17	O	1.712624	0.094742	-0.395861
O18	O	2.045958	0.428075	-0.062527
O19	O	1.280402	-0.310555	-0.454963
O20	O	1.613735	0.022779	-0.121629
O21	O	1.947068	0.356112	0.211704
O22	O	1.148371	-0.120233	-0.578357
O23	O	1.481704	0.213100	-0.245023
O24	O	1.815038	0.546433	0.088310
O25	O	1.397846	-0.318152	-0.621582
O26	O	1.731180	0.015181	-0.288249
O27	O	2.064513	0.348515	0.045084
O28	O	1.237357	-0.125990	-0.704602
O29	O	1.570690	0.207344	-0.371268
O30	O	1.904024	0.540677	-0.037935
O31	O	1.172860	-0.225238	-0.436329
O32	O	1.506194	0.108095	-0.102996
O33	O	1.839527	0.441428	0.230337
O34	O	1.006299	-0.269069	-0.553680
O35	O	1.339632	0.064264	-0.220347
O36	O	1.672965	0.397598	0.112987
O37	O	1.105083	-0.395193	-0.827848
O38	O	1.438417	-0.061859	-0.494514
O39	O	1.771750	0.271474	-0.161181
O40	O	0.987639	-0.387596	-0.661228
O41	O	1.320972	-0.054262	-0.327895
O42	O	1.654305	0.279071	0.005438
O43	O	1.212729	-0.282422	-0.846545
O44	O	1.546063	0.050911	-0.513211
O45	O	1.879396	0.384244	-0.179878
O46	O	1.255774	-0.466988	-0.596906
O47	O	1.589107	-0.133654	-0.263573
O48	O	1.922441	0.199679	0.069761
O49	O	1.129573	-0.500198	-0.685821
O50	O	1.462906	-0.166864	-0.352487
O51	O	1.796239	0.166469	-0.019154
C52	C	0.965186	-0.332388	-0.601941
C53	C	1.298519	0.000945	-0.268608
C54	C	1.631852	0.334279	0.064726
C55	C	0.867821	-0.344833	-0.585072
C56	C	1.201155	-0.011500	-0.251739
C57	C	1.534488	0.321834	0.081595
C58	C	0.554665	-0.214609	-0.761988
C59	C	0.887998	0.118724	-0.428655
C60	C	1.221332	0.452058	-0.095322
C61	C	0.646143	-0.202920	-0.777843
C62	C	0.979476	0.130414	-0.444509
C63	C	1.312810	0.463747	-0.111176
C64	C	0.701567	-0.238397	-0.729651
C65	C	1.034900	0.094937	-0.396318
C66	C	1.368234	0.428270	-0.062984
C67	C	0.665504	-0.285566	-0.665603
C68	C	0.998837	0.047768	-0.332270
C69	C	1.332171	0.381101	0.001064
C70	C	0.574016	-0.297262	-0.649752
C71	C	0.907350	0.036072	-0.316419
C72	C	1.240683	0.369405	0.016915
C73	C	0.720918	-0.321049	-0.617415
C74	C	1.054252	0.012284	-0.284082
C75	C	1.387585	0.345617	0.049252
C76	C	0.684855	-0.368218	-0.553367
C77	C	1.018189	-0.034885	-0.220034
C78	C	1.351522	0.298448	0.113300
C79	C	0.593376	-0.379912	-0.537518
C80	C	0.926710	-0.046578	-0.204185
C81	C	1.260043	0.286755	0.129148
C82	C	0.537952	-0.344435	-0.585710
C83	C	0.871286	-0.011101	-0.252376
C84	C	1.204619	0.322232	0.080957
C85	C	0.812406	-0.309353	-0.633266
C86	C	1.145739	0.023980	-0.299933
C87	C	1.479073	0.357313	0.033401
C88	C	0.831757	-0.392006	-0.521030
C89	C	1.165091	-0.058673	-0.187696
C90	C	1.498424	0.274661	0.145637
C91	C	0.740279	-0.403695	-0.505175
C92	C	1.073613	-0.070362	-0.171842
C93	C	1.406946	0.262971	0.161491
C94	C	1.192678	-0.512850	-0.641377
C95	C	1.526012	-0.179517	-0.308044
C96	C	1.859345	0.153817	0.025290
C97	C	1.192715	-0.602469	-0.641401
C98	C	1.526048	-0.269136	-0.308068
C99	C	1.859381	0.064197	0.025265
C100	C	1.192746	-0.675251	-0.641425
C101	C	1.526079	-0.341917	-0.308091
C102	C	1.859412	-0.008584	0.025242
C103	C	1.192793	-0.766556	-0.641453
C104	C	1.526127	-0.433223	-0.308120
C105	C	1.859460	-0.099889	0.025214
C106	C	1.192837	-0.839329	-0.641472
C107	C	1.526170	-0.505995	-0.308139
C108	C	1.859504	-0.172662	0.025195
C109	C	1.192884	-0.930640	-0.641499
C110	C	1.526217	-0.597306	-0.308165
C111	C	1.859551	-0.263973	0.025168
C112	C	1.421240	-0.274203	-0.681056
C113	C	1.754573	0.059130	-0.347723
C114	C	2.087907	0.392463	-0.014389
C115	C	1.518601	-0.261782	-0.697946
C116	C	1.851934	0.071551	-0.364613
C117	C	2.185268	0.404885	-0.031279
C118	C	1.153256	-0.344724	-0.869864
C119	C	1.486589	-0.011390	-0.536530
C120	C	1.819923	0.321943	-0.203197
C121	C	1.136418	-0.362354	-0.967212
C122	C	1.469752	-0.029021	-0.633879
C123	C	1.803085	0.304313	-0.300545
C124	C	1.192880	-0.093036	-0.641489
C125	C	1.526213	0.240297	-0.308155
C126	C	1.859547	0.573630	0.025178
C127	C	1.192927	-0.003412	-0.641518
C128	C	1.526261	0.329921	-0.308184
C129	C	1.859594	0.663254	0.025149
C130	C	1.313144	-0.177201	-1.280561
C131	C	1.646478	0.156132	-0.947228
C132	C	1.979811	0.489465	-0.613894
C133	C	1.328970	-0.160637	-1.189098
C134	C	1.662303	0.172696	-0.855765
C135	C	1.995637	0.506029	-0.522431
C136	C	1.280833	-0.211065	-1.133622
C137	C	1.614167	0.122268	-0.800289
C138	C	1.947500	0.455602	-0.466956
C139	C	1.216869	-0.278059	-1.169618
C140	C	1.550202	0.055274	-0.836285
C141	C	1.883535	0.388607	-0.502951
C142	C	1.201046	-0.294629	-1.261091
C143	C	1.534380	0.038705	-0.927757
C144	C	1.867713	0.372038	-0.594424
C145	C	1.168735	-0.328492	-1.114152
C146	C	1.502068	0.004841	-0.780818
C147	C	1.835402	0.338174	-0.447485
C148	C	1.104770	-0.395487	-1.150148
C149	C	1.438104	-0.062154	-0.816814
C150	C	1.771437	0.271180	-0.483481
C151	C	1.088951	-0.412053	-1.241611
C152	C	1.422284	-0.078719	-0.908278
C153	C	1.755617	0.254614	-0.574945
C154	C	1.137087	-0.361625	-1.297087
C155	C	1.470421	-0.028292	-0.963754
C156	C	1.803754	0.305041	-0.630421
C157	C	1.184557	-0.311923	-1.022679
C158	C	1.517891	0.021410	-0.689346
C159	C	1.851224	0.354744	-0.356013
C160	C	1.072459	-0.429351	-1.003209
C161	C	1.405793	-0.096017	-0.669875
C162	C	1.739126	0.237316	-0.336542
C163	C	1.056634	-0.445914	-1.094672
C164	C	1.389967	-0.112581	-0.761338
C165	C	1.723300	0.220752	-0.428005
C166	C	1.232178	-0.262077	-0.413876
C167	C	1.565511	0.071257	-0.080543
C168	C	1.898845	0.404590	0.252790
C169	C	1.249186	-0.244198	-0.316558
C170	C	1.582519	0.089136	0.016776
C171	C	1.915852	0.422469	0.350109
H172	H	0.776052	-0.228873	-0.742561
H173	H	1.109386	0.104460	-0.409227
H174	H	1.442719	0.437794	-0.075894
H175	H	1.236637	-0.257375	-0.993381
H176	H	1.569971	0.075958	-0.660047
H177	H	1.903304	0.409292	-0.326714
H178	H	1.036873	-0.466610	-1.270917
H179	H	1.370207	-0.133276	-0.937584
H180	H	1.703540	0.200057	-0.604250
H181	H	0.675498	-0.164517	-0.829993
H182	H	1.008831	0.168816	-0.496660
H183	H	1.342165	0.502149	-0.163326
H184	H	0.876883	-0.420899	-0.481792
H185	H	1.210217	-0.087566	-0.148459
H186	H	1.543550	0.245768	0.184874
H187	H	1.033264	-0.470414	-0.958040
H188	H	1.366597	-0.137081	-0.624707
H189	H	1.699930	0.196253	-0.291374
H190	H	0.710904	-0.442102	-0.453028
H191	H	1.044237	-0.108768	-0.119694
H192	H	1.377570	0.224565	0.213639
O193	O	0.494892	-0.176342	-0.813957
O194	O	0.828225	0.156991	-0.480624
O195	O	1.161559	0.490324	-0.147291
H196	H	0.425222	-0.192395	-0.792169
H197	H	0.758555	0.140938	-0.458836
H198	H	1.091889	0.474271	-0.125502
H199	H	1.352335	-0.136154	-1.325738
H200	H	1.685669	0.197179	-0.992404
H201	H	2.019002	0.530512	-0.659071
H202	H	1.293722	-0.197575	-1.059150
H203	H	1.627056	0.135759	-0.725816
H204	H	1.960389	0.469092	-0.392483
H205	H	0.841759	-0.270947	-0.685414
H206	H	1.175093	0.062387	-0.352080
H207	H	1.508426	0.395720	-0.018747
O208	O	0.439284	-0.357038	-0.568603
O209	O	0.772618	-0.023704	-0.235269
O210	O	1.105951	0.309629	0.098064
H211	H	0.403744	-0.388470	-0.630448
H212	H	0.737077	-0.055137	-0.297115
H213	H	1.070410	0.278196	0.036218
O214	O	0.987645	-0.518172	-1.133498
O215	O	1.320978	-0.184839	-0.800164
O216	O	1.654311	0.148495	-0.466831
H217	H	0.984736	-0.521219	-1.206420
H218	H	1.318069	-0.187886	-0.873086
H219	H	1.651403	0.145447	-0.539753
H220	H	1.381052	-0.106092	-1.159797
H221	H	1.714386	0.227241	-0.826464
H222	H	2.047719	0.560575	-0.493131
O223	O	0.554475	-0.430784	-0.468438
O224	O	0.887808	-0.097450	-0.135105
O225	O	1.221141	0.235883	0.198229
H226	H	0.608381	-0.453481	-0.437582
H227	H	0.941714	-0.120147	-0.104249
H228	H	1.275048	0.213186	0.229085
O229	O	1.120013	-0.379493	-1.395740
O230	O	1.453347	-0.046160	-1.062406
O231	O	1.786680	0.287173	-0.729073
H232	H	1.164232	-0.333171	-1.428263
H233	H	1.497566	0.000162	-1.094930
H234	H	1.830899	0.333495	-0.761596
