data_functionalizedCrystal
_audit_creation_method	'MofGen! by Chris Wilmer'
_symmetry_space_group_name_H-M	'P1'
_symmetry_Int_Tables_number	1
_symmetry_cell_setting	triclinic
loop_
_symmetry_equiv_pos_as_xyz
  x,y,z
_cell_length_a	16.109302
_cell_length_b	23.532357
_cell_length_c	15.186229
_cell_angle_alpha	89.990735
_cell_angle_beta	89.994701
_cell_angle_gamma	83.145036
loop_
_atom_site_label
_atom_site_type_symbol
_atom_site_fract_x
_atom_site_fract_y
_atom_site_fract_z
O1	O	1.102535	0.073206	-0.073279
O2	O	0.860400	0.082315	-0.073273
O3	O	0.988791	-0.005146	-0.073258
O4	O	0.974144	0.160667	-0.073294
O5	O	0.988782	-0.005147	0.073199
O6	O	0.860391	0.082314	0.073184
O7	O	1.102527	0.073204	0.073178
Zn8	Zn	0.981458	0.077759	0.096434
Zn9	Zn	0.981469	0.077761	-0.096529
O10	O	0.974136	0.160666	0.073163
C11	C	0.829423	0.081946	-0.000044
C12	C	0.737137	0.080839	-0.000041
C13	C	0.524812	0.078280	0.079785
C14	C	0.438101	0.077234	0.079782
C15	C	0.438121	0.077238	-0.079894
C16	C	0.524831	0.078280	-0.079890
C17	C	0.568174	0.078804	-0.000048
C18	C	0.394752	0.076716	-0.000055
C19	C	0.300736	0.075582	-0.000058
C20	C	0.662197	0.079937	-0.000044
C21	C	0.988420	-0.026365	-0.000027
C22	C	0.987319	-0.089587	-0.000019
C23	C	0.980408	-0.481624	-0.079900
C24	C	0.979361	-0.541027	-0.079905
O25	O	0.978796	-0.571745	-0.147800
N26	N	0.978838	-0.570741	-0.000072
C27	C	0.979352	-0.541047	0.079771
O28	O	0.978810	-0.571776	0.147674
C29	C	0.980393	-0.481644	0.079775
C30	C	0.980926	-0.451935	-0.000063
C31	C	0.980940	-0.451913	-0.159731
C32	C	0.981988	-0.392514	-0.159726
C33	C	0.982506	-0.362825	-0.079889
C34	C	0.981974	-0.392535	-0.000058
C35	C	0.980902	-0.451952	0.159617
C36	C	0.981943	-0.392545	0.159614
C37	C	0.982475	-0.362835	0.079776
C38	C	0.983540	-0.303447	0.079785
N39	N	0.984064	-0.273734	-0.000048
C40	C	0.983547	-0.303423	-0.079885
C41	C	0.977165	-0.665797	0.079756
C42	C	0.976130	-0.725199	0.079753
C43	C	0.976137	-0.725174	-0.079923
C44	C	0.977178	-0.665772	-0.079919
C45	C	0.977688	-0.636083	-0.000076
C46	C	0.985749	-0.178680	-0.079868
C47	C	0.986802	-0.119276	-0.079855
C48	C	0.986789	-0.119306	0.079820
C49	C	0.985742	-0.178705	0.079808
C50	C	0.985219	-0.208391	-0.000043
O51	O	0.984103	-0.272692	0.147645
O52	O	0.984078	-0.272686	-0.147777
C53	C	1.133503	0.073574	-0.000053
C54	C	1.225789	0.074681	-0.000062
C55	C	0.974506	0.181884	-0.000070
C56	C	0.975608	0.245107	-0.000084
N57	N	0.981456	0.077758	0.228127
N58	N	0.981477	0.077758	-0.228222
C59	C	1.038327	0.039043	0.453857
C60	C	1.038329	0.039041	0.546046
C61	C	0.924600	0.116474	0.546042
C62	C	0.924594	0.116473	0.453854
C63	C	0.981462	0.077757	0.407764
C64	C	0.981471	0.077758	0.592141
C65	C	0.981473	0.077757	0.692097
C66	C	0.981459	0.077758	0.307801
H67	H	0.402820	0.076813	-0.144898
H68	H	0.560138	0.078705	-0.144904
H69	H	0.402799	0.076808	0.144790
H70	H	0.977583	-0.641628	0.144778
C71	C	0.572492	0.078851	0.167604
H72	H	0.630344	0.079551	0.156175
H73	H	0.564902	0.045487	0.200412
H74	H	0.551651	0.111874	0.200400
C75	C	0.987382	-0.086598	-0.167681
H76	H	0.986915	-0.112790	-0.215227
H77	H	1.036279	-0.067780	-0.171004
H78	H	0.939294	-0.059069	-0.170997
H79	H	0.985320	-0.202843	-0.144890
H80	H	0.980470	-0.476131	0.224630
H81	H	0.982346	-0.368374	0.224633
C82	C	0.975551	-0.757874	0.167575
H83	H	0.976004	-0.731679	0.215119
H84	H	1.023630	-0.785405	0.170898
H85	H	0.926645	-0.776688	0.170894
H86	H	0.987214	-0.095123	0.144821
C87	C	0.982558	-0.359839	-0.247548
H88	H	0.982090	-0.386035	-0.295090
H89	H	1.031451	-0.341018	-0.250881
H90	H	0.934466	-0.332314	-0.250863
C91	C	0.980380	-0.484563	-0.247560
H92	H	0.980852	-0.458354	-0.295096
H93	H	0.931488	-0.503385	-0.250897
H94	H	1.028474	-0.512086	-0.250880
H95	H	1.084631	0.007518	0.416332
H96	H	0.977610	-0.641586	-0.144930
H97	H	0.985316	-0.202897	0.144819
C98	C	0.862058	0.159063	0.596744
H99	H	0.870211	0.153524	0.658250
H100	H	0.806624	0.152869	0.581650
H101	H	0.870770	0.197075	0.581619
H102	H	1.084633	0.007516	0.583573
H103	H	0.975713	-0.749358	-0.144931
H104	H	0.878284	0.147999	0.416322
