data_functionalizedCrystal
_audit_creation_method	'MofGen! by Chris Wilmer'
_symmetry_space_group_name_H-M	'P1'
_symmetry_Int_Tables_number	1
_symmetry_cell_setting	triclinic
loop_
_symmetry_equiv_pos_as_xyz
  x,y,z
_cell_length_a	15.625950
_cell_length_b	19.188930
_cell_length_c	14.750712
_cell_angle_alpha	77.396677
_cell_angle_beta	120.090082
_cell_angle_gamma	83.723680
loop_
_atom_site_label
_atom_site_type_symbol
_atom_site_fract_x
_atom_site_fract_y
_atom_site_fract_z
O1	O	1.286113	0.021531	0.367711
O2	O	0.999067	0.051307	0.267819
O3	O	1.150879	-0.065762	0.320668
O4	O	1.134302	0.138599	0.314862
O5	O	1.193792	-0.098851	0.495258
O6	O	1.041981	0.018218	0.442409
O7	O	1.329027	-0.011558	0.542300
Zn8	Zn	1.192317	-0.001924	0.520074
Zn9	Zn	1.135777	0.041672	0.290045
O10	O	1.177215	0.105510	0.489451
C11	C	0.983800	0.036690	0.342334
C12	C	0.874375	0.042427	0.304256
C13	C	0.631325	-0.028827	0.654734
C14	C	0.528489	-0.023413	0.618903
C15	C	0.481758	0.012657	0.428591
C16	C	0.584591	0.007250	0.464405
C17	C	0.659368	-0.013493	0.577478
C18	C	0.612634	0.022583	0.387149
C19	C	0.715459	0.017172	0.422961
C20	C	0.790241	-0.003572	0.536029
C21	C	0.762193	-0.018904	0.613289
C22	C	0.537856	0.043321	0.274077
C23	C	0.565899	0.058654	0.196821
C24	C	0.668725	0.053248	0.232632
C25	C	0.743507	0.032504	0.345700
C26	C	0.696773	0.068581	0.155371
C27	C	0.799598	0.063170	0.191183
C28	C	0.846332	0.027094	0.381512
C29	C	1.171800	-0.108284	0.407779
C30	C	1.170192	-0.185689	0.407228
C31	C	1.259268	-0.236212	0.438231
C32	C	1.257751	-0.308938	0.437687
C33	C	1.167157	-0.331140	0.406160
C34	C	1.078068	-0.280605	0.375147
C35	C	1.079585	-0.207879	0.375681
N36	N	1.112514	-0.446054	0.441478
N37	N	1.111079	-0.515142	0.440976
C38	C	1.162580	-0.550258	0.404548
N39	N	1.215588	-0.513681	0.368661
N40	N	1.217027	-0.444588	0.369169
C41	C	1.165502	-0.409998	0.405578
C42	C	1.250017	-0.679639	0.434963
C43	C	1.248495	-0.752364	0.434412
C44	C	1.068812	-0.724032	0.371881
C45	C	1.070334	-0.651306	0.372423
C46	C	1.160941	-0.629116	0.403969
C47	C	1.344293	0.003058	0.467783
C48	C	1.453717	-0.002677	0.505855
C49	C	1.156294	0.148033	0.402338
C50	C	1.157900	0.225439	0.402882
N51	N	1.230912	-0.031678	0.677066
C52	C	0.989387	0.154500	0.944804
C53	C	1.016439	0.133654	1.054720
C54	C	1.150896	0.030023	1.101490
C55	C	1.123852	0.050858	0.991575
C56	C	1.043097	0.113097	0.913239
C57	C	1.177562	0.009456	0.960010
C58	C	1.150524	0.030292	0.850105
C59	C	1.069775	0.092530	0.771764
C60	C	1.016059	0.133933	0.803334
C61	C	1.258321	-0.052780	1.038349
C62	C	1.312031	-0.094182	1.006784
C63	C	1.284989	-0.073350	0.896876
C64	C	1.204240	-0.011112	0.818535
C65	C	1.338704	-0.114753	0.865306
C66	C	1.311666	-0.093917	0.755401
C67	C	1.177201	0.009724	0.708630
N68	N	1.097179	0.071429	1.133053
H69	H	0.692212	-0.045707	0.746808
H70	H	0.822429	0.075659	0.128273
H71	H	1.321033	-0.793500	0.459653
Br72	Br	0.398310	0.050637	0.225476
Br73	Br	1.033085	0.120813	0.622607
Br74	Br	0.464414	0.086776	0.043372
Br75	Br	0.945858	-0.754153	0.329083
Br76	Br	0.906448	0.218394	0.697011
Br77	Br	0.595287	0.096696	0.001923
H78	H	1.333046	-0.218150	0.463915
Br79	Br	1.378648	-0.377517	0.479761
Br80	Br	0.929795	-0.010925	0.584636
Br81	Br	0.879776	0.238961	0.838481
H82	H	0.823080	-0.035784	0.705364
H83	H	0.505662	-0.035884	0.681823
Br84	Br	1.372983	-0.649521	0.477785
H85	H	1.004305	-0.298686	0.349476
H86	H	1.007046	-0.166742	0.350434
Br87	Br	1.260492	-0.054439	1.207809
Br88	Br	1.421628	-0.178645	1.113102
H89	H	1.280336	-0.069740	1.127840
H90	H	1.111436	0.060401	0.644842
H91	H	0.997800	-0.610169	0.347183
H92	H	0.972695	0.167375	1.080411
Br93	Br	1.448309	-0.199209	0.971630
H94	H	0.907219	0.010214	0.473586
Br95	Br	1.384567	-0.150104	0.712563
H96	H	0.420862	0.029542	0.336527
