data_functionalizedCrystal
_audit_creation_method	'MofGen! by Chris Wilmer'
_symmetry_space_group_name_H-M	'P1'
_symmetry_Int_Tables_number	1
_symmetry_cell_setting	triclinic
loop_
_symmetry_equiv_pos_as_xyz
  x,y,z
_cell_length_a	19.805407
_cell_length_b	19.805405
_cell_length_c	11.169409
_cell_angle_alpha	90.037171
_cell_angle_beta	90.028745
_cell_angle_gamma	90.025972
loop_
_atom_site_label
_atom_site_type_symbol
_atom_site_fract_x
_atom_site_fract_y
_atom_site_fract_z
Zn1	Zn	1.034765	-0.269422	0.678788
Zn2	Zn	1.034670	-0.382631	0.478088
Zn3	Zn	0.921570	-0.269460	0.478091
Zn4	Zn	0.921542	-0.382573	0.678702
O5	O	0.978137	-0.326021	0.578417
O6	O	1.129469	-0.284448	0.652200
O7	O	1.019639	-0.367659	0.310139
O8	O	0.936637	-0.174738	0.504752
O9	O	1.129399	-0.367622	0.504746
O10	O	1.019801	-0.174710	0.652203
O11	O	0.936545	-0.284513	0.310141
O12	O	0.826850	-0.284456	0.504668
O13	O	0.936589	-0.367523	0.846663
O14	O	0.826829	-0.367560	0.652055
O15	O	1.019773	-0.284391	0.846726
O16	O	1.019612	-0.477340	0.504662
O17	O	0.936497	-0.477297	0.652052
C18	C	0.802281	-0.326006	0.578353
C19	C	0.727049	-0.326016	0.578354
C20	C	0.978060	-0.501877	0.578374
C21	C	0.978089	-0.577109	0.578395
C22	C	0.265265	-0.369375	0.655118
C23	C	0.335953	-0.369374	0.655093
C24	C	0.371287	-0.326038	0.578464
C25	C	0.335929	-0.282705	0.501847
C26	C	0.265242	-0.282710	0.501867
C27	C	0.621002	-0.282684	0.501763
C28	C	0.691694	-0.282681	0.501751
C29	C	0.691714	-0.369348	0.654988
C30	C	0.621026	-0.369353	0.655008
C31	C	0.585674	-0.326023	0.578388
C32	C	0.509026	-0.326026	0.578414
C33	C	0.447934	-0.326031	0.578442
C34	C	1.021366	-0.612381	0.655233
C35	C	1.021391	-0.683069	0.655256
C36	C	0.978140	-0.718485	0.578433
C37	C	0.934858	-0.683209	0.501592
C38	C	0.934831	-0.612522	0.501576
C39	C	0.934967	-0.968282	0.501653
C40	C	0.934999	-1.038974	0.501672
C41	C	1.021527	-1.038830	0.655333
C42	C	1.021499	-0.968142	0.655317
C43	C	0.978215	-0.932872	0.578481
C44	C	0.978188	-0.856224	0.578459
C45	C	0.978170	-0.795132	0.578448
C46	C	1.154679	-0.326037	0.578482
C47	C	1.229911	-0.326044	0.578510
C48	C	0.978189	-0.325946	0.891460
C49	C	0.978211	-0.325914	1.024860
C50	C	0.978233	-0.149479	0.578487
C51	C	0.978273	-0.074247	0.578517
C52	C	0.978124	-0.326047	0.266592
C53	C	0.978233	-0.325889	0.133193
H54	H	0.236501	-0.404660	0.717525
H55	H	0.592227	-0.247405	0.439369
C56	C	0.328872	-0.455035	0.806579
C57	C	0.374813	-0.417002	0.739308
H58	H	0.352864	-0.484437	0.858576
H59	H	0.301272	-0.480894	0.754219
H60	H	0.301330	-0.425566	0.852583
H61	H	0.402352	-0.446472	0.693297
H62	H	0.402425	-0.391142	0.791675
C63	C	1.054261	-0.590498	0.858516
C64	C	1.068905	-0.573452	0.739684
H65	H	1.083606	-0.566462	0.910655
H66	H	1.060474	-0.637639	0.869514
H67	H	1.008771	-0.578941	0.875975
H68	H	1.114393	-0.585013	0.722223
H69	H	1.062697	-0.526301	0.728681
C70	C	0.849453	-0.975535	0.349741
C71	C	0.887401	-0.929519	0.417175
H72	H	0.820092	-0.951601	0.297577
H73	H	0.823555	-1.003100	0.401988
H74	H	0.878980	-1.003104	0.303908
H75	H	0.857874	-0.901953	0.463015
H76	H	0.913301	-0.901942	0.364922
H77	H	1.056637	-0.711784	0.717816
H78	H	0.592261	-0.404639	0.717412
C79	C	0.800081	-0.407837	0.723002
C80	C	0.730575	-0.416985	0.739202
H81	H	0.824069	-0.437247	0.774989
H82	H	0.811688	-0.362376	0.740707
H83	H	0.811624	-0.417695	0.642326
H84	H	0.719031	-0.407123	0.819877
H85	H	0.718963	-0.462457	0.721507
H86	H	0.899640	-0.712050	0.439046
H87	H	0.364703	-0.247423	0.439449
C88	C	1.054396	-0.946258	0.858599
C89	C	1.069038	-0.929213	0.739766
H90	H	1.083742	-0.922221	0.910736
H91	H	1.060610	-0.993398	0.869598
H92	H	1.008907	-0.934702	0.876059
H93	H	1.114526	-0.940774	0.722303
H94	H	1.062830	-0.882062	0.728762
H95	H	0.236458	-0.247424	0.439488
C96	C	1.059990	-1.147124	0.723612
C97	C	1.069100	-1.077601	0.739808
H98	H	1.089358	-1.171057	0.775767
H99	H	1.069925	-1.158735	0.643004
H100	H	1.014511	-1.158732	0.741103
H101	H	1.114579	-1.065992	0.722309
H102	H	1.059171	-1.065986	0.820434
C103	C	0.684579	-0.197022	0.350245
C104	C	0.730535	-0.235050	0.417501
H105	H	0.708559	-0.167622	0.298232
H106	H	0.657039	-0.171161	0.402614
H107	H	0.656978	-0.226495	0.304260
H108	H	0.758132	-0.205577	0.463493
H109	H	0.758086	-0.260912	0.365126
H110	H	0.899776	-1.067808	0.439112
H111	H	0.899589	-0.583804	0.439009
