data_functionalizedCrystal
_audit_creation_method	'MofGen! by Chris Wilmer'
_symmetry_space_group_name_H-M	'P1'
_symmetry_Int_Tables_number	1
_symmetry_cell_setting	triclinic
loop_
_symmetry_equiv_pos_as_xyz
  x,y,z
_cell_length_a	16.959455
_cell_length_b	18.050590
_cell_length_c	18.050582
_cell_angle_alpha	89.976663
_cell_angle_beta	89.986214
_cell_angle_gamma	90.015500
loop_
_atom_site_label
_atom_site_type_symbol
_atom_site_fract_x
_atom_site_fract_y
_atom_site_fract_z
Zn1	Zn	1.208388	-0.295767	-0.419886
Zn2	Zn	1.208315	-0.419950	-0.295694
Zn3	Zn	1.076218	-0.295772	-0.295713
Zn4	Zn	1.076185	-0.419913	-0.419845
O5	O	1.142276	-0.357851	-0.357785
O6	O	1.318989	-0.312254	-0.403421
O7	O	1.190776	-0.403496	-0.191772
O8	O	1.093795	-0.191847	-0.312209
O9	O	1.318936	-0.403491	-0.312178
O10	O	1.190900	-0.191843	-0.403439
O11	O	1.093724	-0.312262	-0.191786
O12	O	0.965602	-0.312226	-0.312170
O13	O	1.093738	-0.403427	-0.523775
O14	O	0.965578	-0.403432	-0.403370
O15	O	1.190867	-0.312218	-0.523805
O16	O	1.190743	-0.523870	-0.312139
O17	O	1.093668	-0.523843	-0.403352
C18	C	0.936910	-0.357826	-0.357768
C19	C	0.849053	-0.357834	-0.357778
C20	C	1.142216	-0.550803	-0.357755
C21	C	1.142262	-0.633349	-0.357767
C22	C	0.477566	-0.310321	-0.310396
C23	C	0.477590	-0.405442	-0.405216
C24	C	0.560136	-0.405431	-0.405211
C25	C	0.601401	-0.357865	-0.357798
C26	C	0.560120	-0.310310	-0.310388
C27	C	0.601423	-0.452990	-0.452614
C28	C	0.683974	-0.452982	-0.452611
C29	C	0.725240	-0.405412	-0.405200
C30	C	0.683954	-0.357855	-0.357790
C31	C	0.725219	-0.310289	-0.310376
C32	C	0.683935	-0.262727	-0.262969
C33	C	0.601386	-0.262740	-0.262978
C34	C	0.807788	-0.405399	-0.405191
C35	C	0.807773	-0.310279	-0.310369
C36	C	1.195161	-0.832787	-0.308235
C37	C	1.214464	-0.882127	-0.376014
C38	C	1.142307	-0.784479	-0.357797
C39	C	1.123085	-0.882221	-0.290047
C40	C	1.142352	-0.930464	-0.357819
C41	C	1.161646	-0.832731	-0.425612
C42	C	1.070234	-0.832821	-0.339600
C43	C	1.089508	-0.882139	-0.407426
C44	C	1.142283	-0.700381	-0.357783
C45	C	1.142375	-1.014561	-0.357841
C46	C	1.348444	-0.357876	-0.357802
C47	C	1.436301	-0.357887	-0.357810
C48	C	1.142307	-0.357818	-0.551490
C49	C	1.142320	-0.357804	-0.634036
C50	C	1.142359	-0.164145	-0.357831
C51	C	1.142394	-0.081599	-0.357850
C52	C	1.089542	-0.407336	-0.833471
C53	C	1.161660	-0.425493	-0.882860
C54	C	1.142359	-0.357747	-0.785167
C55	C	1.070281	-0.339569	-0.882859
C56	C	1.142391	-0.357694	-0.931152
C57	C	1.214515	-0.375940	-0.833469
C58	C	1.123088	-0.289985	-0.833463
C59	C	1.195256	-0.308116	-0.882830
C60	C	1.142340	-0.357780	-0.701068
C61	C	1.142418	-0.357661	-1.015248
C62	C	1.142291	-0.357830	-0.164833
C63	C	1.142431	-0.357635	-0.082287
H64	H	0.841365	-0.271540	-0.271763
O65	O	1.103798	-0.908190	-0.221666
C66	C	1.143926	-0.981663	-0.116764
C67	C	1.165866	-0.952292	-0.194193
H68	H	1.194088	-1.017338	-0.094536
H69	H	1.133470	-0.933033	-0.077700
H70	H	1.087942	-1.016403	-0.120759
H71	H	1.221860	-0.917563	-0.190270
H72	H	1.176271	-1.000955	-0.233227
O73	O	1.248389	-0.806895	-0.258199
C74	C	1.269584	-0.734630	-0.147766
C75	C	1.209218	-0.763918	-0.204363
H76	H	1.237940	-0.699864	-0.104234
H77	H	1.300304	-0.783300	-0.119712
H78	H	1.315215	-0.698999	-0.177489
H79	H	1.163540	-0.799537	-0.174696
H80	H	1.178558	-0.715214	-0.232415
H81	H	0.717580	-0.491709	-0.491213
O82	O	1.036217	-0.457323	-0.807573
C83	C	0.918649	-0.477197	-0.735249
C84	C	0.978967	-0.420505	-0.764544
H85	H	0.872357	-0.447454	-0.700441
H86	H	0.888752	-0.506006	-0.783917
H87	H	0.950225	-0.520116	-0.699658
H88	H	0.947451	-0.377542	-0.800124
H89	H	1.008862	-0.391752	-0.715843
H90	H	0.443949	-0.271595	-0.271800
O91	O	1.180999	-0.493873	-0.908718
C92	C	1.147220	-0.623481	-0.912868
C93	C	1.125225	-0.546079	-0.883554
H94	H	1.102148	-0.665714	-0.892522
H95	H	1.147574	-0.622706	-0.976021
H96	H	1.208264	-0.639332	-0.891720
H97	H	1.064176	-0.530181	-0.904647
H98	H	1.124925	-0.546896	-0.820402
O99	O	1.287246	-0.907938	-0.394273
C100	C	1.425222	-0.912041	-0.362704
C101	C	1.342838	-0.882779	-0.341939
H102	H	1.470194	-0.891699	-0.320413
H103	H	1.424441	-0.975194	-0.363033
H104	H	1.442030	-0.890850	-0.420080
H105	H	1.325980	-0.903914	-0.284559
H106	H	1.343664	-0.819627	-0.341662
O107	O	1.181175	-0.806790	-0.493944
C108	C	1.203011	-0.699402	-0.570603
C109	C	1.180900	-0.728682	-0.493182
H110	H	1.202780	-0.636249	-0.570017
H111	H	1.264298	-0.720097	-0.586238
H112	H	1.158265	-0.720194	-0.612887
H113	H	1.225592	-0.707902	-0.450846
H114	H	1.119593	-0.707993	-0.477610
O115	O	0.997527	-0.321377	-0.908779
C116	C	0.885830	-0.358947	-0.982210
C117	C	0.968209	-0.379642	-0.952895
H118	H	0.862108	-0.406035	-1.017896
H119	H	0.844262	-0.349123	-0.933553
H120	H	0.890157	-0.306328	-1.016926
H121	H	0.963957	-0.432270	-0.918190
H122	H	1.009744	-0.389417	-1.001585
O123	O	1.287215	-0.394360	-0.807578
C124	C	1.368772	-0.415009	-0.700247
C125	C	1.286402	-0.394152	-0.729469
H126	H	1.368146	-0.414833	-0.637093
H127	H	1.385334	-0.472591	-0.720981
H128	H	1.413838	-0.372989	-0.721042
H129	H	1.241282	-0.436122	-0.708687
H130	H	1.269907	-0.336553	-0.708741
H131	H	1.044830	-0.903671	-0.449397
H132	H	0.567765	-0.224019	-0.224381
O133	O	0.724145	-0.216548	-0.216982
C134	C	0.851316	-0.174424	-0.174918
C135	C	0.805872	-0.226744	-0.227047
H136	H	0.917400	-0.182661	-0.183027
H137	H	0.835167	-0.114542	-0.188070
H138	H	0.835014	-0.187373	-0.115021
H139	H	0.822150	-0.213862	-0.286962
H140	H	0.822025	-0.286610	-0.213831
O141	O	0.847857	-0.451515	-0.451343
C142	C	0.873118	-0.487773	-0.577598
C143	C	0.827706	-0.435488	-0.525413
H144	H	0.856830	-0.474844	-0.637494
H145	H	0.939215	-0.479590	-0.569515
H146	H	0.856887	-0.547635	-0.564408
H147	H	0.843871	-0.375605	-0.538570
H148	H	0.761620	-0.443735	-0.533505
H149	H	1.009281	-0.811146	-0.324173
H150	H	1.106748	-0.232719	-0.811749
O151	O	1.248722	-0.258144	-0.908495
C152	C	1.385092	-0.220815	-0.912274
C153	C	1.324625	-0.277465	-0.883172
H154	H	1.446470	-0.236407	-0.891800
H155	H	1.384420	-0.220814	-0.975429
H156	H	1.369133	-0.163246	-0.891097
H157	H	1.340542	-0.335062	-0.904295
H158	H	1.325309	-0.277401	-0.820018
O159	O	0.437468	-0.451535	-0.451349
C160	C	0.344253	-0.461665	-0.551567
C161	C	0.389662	-0.409380	-0.499376
H162	H	0.305578	-0.427604	-0.590399
H163	H	0.387899	-0.495640	-0.585509
H164	H	0.305624	-0.500469	-0.517387
H165	H	0.428292	-0.370531	-0.533498
H166	H	0.345974	-0.375457	-0.465431
O167	O	0.561217	-0.499124	-0.498643
C168	C	0.434051	-0.541322	-0.540643
C169	C	0.479489	-0.489025	-0.488487
H170	H	0.367966	-0.533186	-0.532439
H171	H	0.450246	-0.528365	-0.600565
H172	H	0.450311	-0.601178	-0.527498
H173	H	0.463254	-0.429152	-0.501565
H174	H	0.463290	-0.502046	-0.428580
