data_functionalizedCrystal
_audit_creation_method	'MofGen! by Chris Wilmer'
_symmetry_space_group_name_H-M	'P1'
_symmetry_Int_Tables_number	1
_symmetry_cell_setting	triclinic
loop_
_symmetry_equiv_pos_as_xyz
  x,y,z
_cell_length_a	10.489741
_cell_length_b	10.723024
_cell_length_c	9.798715
_cell_angle_alpha	89.997773
_cell_angle_beta	89.998986
_cell_angle_gamma	84.503522
loop_
_atom_site_label
_atom_site_type_symbol
_atom_site_fract_x
_atom_site_fract_y
_atom_site_fract_z
O1	O	-1.693940	-0.176061	0.113403
O2	O	-1.322734	-0.192587	0.113424
O3	O	-1.516899	-0.002753	0.113408
O4	O	-1.499774	-0.365895	0.113419
O5	O	-1.516885	-0.002752	-0.113574
O6	O	-1.322719	-0.192586	-0.113558
O7	O	-1.693925	-0.176059	-0.113579
Zn8	Zn	-1.508320	-0.184322	-0.149607
Zn9	Zn	-1.508339	-0.184324	0.149452
O10	O	-1.499760	-0.365894	-0.113563
C11	C	-1.275196	-0.191338	-0.000065
C12	C	-1.133569	-0.187604	-0.000057
C13	C	-1.515646	0.043748	-0.000082
C14	C	-1.511917	0.182305	-0.000077
C15	C	-1.741464	-0.177308	-0.000088
C16	C	-1.883091	-0.181043	-0.000087
C17	C	-1.065506	-0.066818	-0.000073
C18	C	-0.973349	-0.123877	0.111840
C19	C	-0.973369	-0.123904	-0.111947
C20	C	-1.043278	-0.244712	0.111949
C21	C	-1.043307	-0.244723	-0.111939
C22	C	-0.951178	-0.301869	0.000002
C23	C	-1.501013	-0.412395	-0.000071
C24	C	-1.504742	-0.550951	-0.000067
N25	N	-1.508316	-0.184320	-0.353707
C26	C	-1.620562	0.257221	-0.000081
C27	C	-1.616711	0.400426	-0.000076
C28	C	-1.582695	-0.256727	-0.421487
C29	C	-1.582715	-0.256726	-0.578649
N30	N	-1.508353	-0.184316	0.353551
H31	H	-1.115259	0.032476	0.000064
O32	O	-1.658870	-0.330613	-0.648025
C33	C	-1.788003	-0.296932	-0.613216
H34	H	-1.792992	-0.248664	-0.509437
H35	H	-1.841273	-0.384640	-0.608459
H36	H	-1.834166	-0.230260	-0.693603
H37	H	-1.416051	0.224185	-0.000062
H38	H	-0.942374	-0.072770	0.206453
H39	H	-1.646364	-0.318713	-0.363163
O40	O	-1.432299	-0.110537	-0.576785
C41	C	-1.346151	-0.186089	-0.494176
H42	H	-1.386947	-0.278941	-0.472895
H43	H	-1.331415	-0.135922	-0.393645
H44	H	-1.250430	-0.204495	-0.549184
H45	H	-1.716428	0.215340	-0.000095
H46	H	-1.709719	0.464802	-0.000085
H47	H	-1.074314	-0.295788	-0.206556
O48	O	-0.892069	-0.420422	-0.000169
C49	C	-0.815770	-0.438780	-0.118252
H50	H	-0.853192	-0.369443	-0.200444
H51	H	-0.819957	-0.538482	-0.157203
H52	H	-0.712466	-0.423262	-0.092597
H53	H	-1.074079	-0.295780	0.206669
H54	H	-0.942418	-0.072775	-0.206561
H55	H	-1.411728	0.384681	-0.000073
H56	H	-1.444656	-0.122326	-0.412030
