data_functionalizedCrystal
_audit_creation_method	'MofGen! by Chris Wilmer'
_symmetry_space_group_name_H-M	'P1'
_symmetry_Int_Tables_number	1
_symmetry_cell_setting	triclinic
loop_
_symmetry_equiv_pos_as_xyz
  x,y,z
_cell_length_a	10.723024
_cell_length_b	17.699104
_cell_length_c	16.176319
_cell_angle_alpha	89.991696
_cell_angle_beta	89.994397
_cell_angle_gamma	83.879693
loop_
_atom_site_label
_atom_site_type_symbol
_atom_site_fract_x
_atom_site_fract_y
_atom_site_fract_z
O1	O	0.157921	1.005065	-0.068761
O2	O	0.178424	0.784818	-0.068759
O3	O	-0.013490	0.900022	-0.068757
O4	O	0.349835	0.889861	-0.068763
O5	O	-0.013502	0.900006	0.068736
O6	O	0.178412	0.784802	0.068734
O7	O	0.157909	1.005049	0.068732
Cu8	Cu	0.168159	0.894924	0.081287
Cu9	Cu	0.168174	0.894943	-0.081314
O10	O	0.349823	0.889845	0.068730
C11	C	0.177679	0.756609	-0.000012
C12	C	0.175461	0.672577	-0.000011
C13	C	0.275607	0.148338	-0.000022
C14	C	0.277682	0.227295	-0.000024
C15	C	0.165022	0.275202	-0.000022
C16	C	0.050277	0.244148	-0.000026
C17	C	0.048203	0.165193	-0.000029
C18	C	0.058641	0.562567	-0.000013
C19	C	0.060725	0.641527	-0.000007
C20	C	0.288121	0.624669	-0.000007
C21	C	0.286046	0.545714	-0.000011
C22	C	0.171303	0.514667	-0.000019
C23	C	0.169054	0.429053	-0.000018
C24	C	0.167270	0.360815	-0.000017
C25	C	-0.059983	0.899274	-0.000011
C26	C	-0.198500	0.897062	-0.000014
C27	C	-0.274580	0.961524	-0.000016
C28	C	-0.417744	0.959239	-0.000019
C29	C	0.396316	0.890593	-0.000017
C30	C	0.534833	0.892805	-0.000020
C31	C	0.158654	1.033258	-0.000017
C32	C	0.160871	1.117290	-0.000023
N33	N	0.168148	0.894916	0.195653
N34	N	0.168175	0.894957	-0.195680
C35	C	0.083203	0.945944	0.238918
C36	C	0.083202	0.945948	0.325465
C37	C	0.168152	0.894927	0.368745
C38	C	0.253101	0.843893	0.325474
C39	C	0.253096	0.843887	0.238929
C40	C	0.253125	0.843920	0.674502
C41	C	0.253126	0.843932	0.761054
C42	C	0.083231	0.945981	0.761038
C43	C	0.083225	0.945974	0.674493
C44	C	0.168169	0.894938	0.631229
C45	C	0.168168	0.894934	0.537385
C46	C	0.168161	0.894934	0.462588
H47	H	-0.041453	0.283161	-0.000029
O48	O	-0.387248	0.826942	0.000127
C49	C	-0.409823	0.784494	0.071323
H50	H	-0.454506	0.824183	0.121095
H51	H	-0.317348	0.754685	0.095227
H52	H	-0.475865	0.740290	0.055221
H53	H	-0.034789	0.537299	-0.000017
O54	O	-0.247373	0.829247	-0.000126
C55	C	-0.321735	0.823984	-0.071348
H56	H	-0.354191	0.883489	-0.095090
H57	H	-0.406958	0.793444	-0.055336
H58	H	-0.264191	0.790763	-0.121209
H59	H	0.367349	0.109337	-0.000017
O60	O	-0.226005	1.029432	0.000091
C61	C	-0.266879	1.070835	0.071308
H62	H	-0.357148	1.049814	0.095052
H63	H	-0.284991	1.133775	0.055289
H64	H	-0.191552	1.062398	0.121171
O65	O	0.335474	0.794330	0.803190
C66	C	0.268726	0.747297	0.853257
H67	H	0.171029	0.776945	0.866219
H68	H	0.320830	0.735600	0.914116
H69	H	0.260345	0.691316	0.819923
H70	H	-0.045226	0.139915	-0.000032
H71	H	0.371111	0.252570	-0.000030
O72	O	0.399665	0.654739	-0.000120
C73	C	0.468323	0.630340	-0.071338
H74	H	0.434483	0.575414	-0.095079
H75	H	0.572265	0.619923	-0.055322
H76	H	0.453742	0.675952	-0.121202
H77	H	0.322291	0.802366	0.639284
O78	O	-0.048836	0.687957	-0.000049
C79	C	-0.150558	0.643625	-0.000039
H80	H	-0.118705	0.584876	-0.026071
H81	H	-0.229465	0.672342	-0.039960
H82	H	-0.185759	0.637810	0.065921
O83	O	0.000561	0.995535	0.197007
C84	C	-0.074393	1.040586	0.253757
H85	H	-0.075737	1.009554	0.315457
H86	H	-0.174071	1.051615	0.228759
H87	H	-0.033986	1.097016	0.262943
H88	H	0.377786	0.506711	-0.000008
O89	O	0.000566	0.995417	0.367525
C90	C	-0.076331	0.954503	0.417618
H91	H	-0.078331	0.894805	0.391557
H92	H	-0.175568	0.984876	0.418594
H93	H	-0.037276	0.950746	0.483209
O94	O	-0.495900	1.025007	-0.000059
C95	C	-0.621443	1.008084	-0.000039
H96	H	-0.626134	0.948602	-0.026067
H97	H	-0.680609	1.051242	-0.039960
H98	H	-0.659102	1.010724	0.065923
O99	O	0.000583	0.995563	0.632579
C100	C	-0.074375	1.040616	0.689326
H101	H	-0.075720	1.009587	0.751028
H102	H	-0.174051	1.051643	0.664326
H103	H	-0.033969	1.097047	0.698510
O104	O	0.335576	0.794404	0.367642
C105	C	0.317350	0.805339	0.453308
H106	H	0.270597	0.865269	0.465117
H107	H	0.411868	0.797410	0.486191
H108	H	0.254851	0.762183	0.477887
O109	O	0.335735	0.794292	0.197026
C110	C	0.410697	0.749248	0.253783
H111	H	0.412054	0.780289	0.315467
H112	H	0.510370	0.738213	0.228769
H113	H	0.370288	0.692821	0.263007
H114	H	0.014061	0.987535	0.796273
