data_functionalizedCrystal
_audit_creation_method	'MofGen! by Chris Wilmer'
_symmetry_space_group_name_H-M	'P1'
_symmetry_Int_Tables_number	1
_symmetry_cell_setting	triclinic
loop_
_symmetry_equiv_pos_as_xyz
  x,y,z
_cell_length_a	18.101398
_cell_length_b	18.101395
_cell_length_c	16.120297
_cell_angle_alpha	87.130194
_cell_angle_beta	87.116993
_cell_angle_gamma	90.030104
loop_
_atom_site_label
_atom_site_type_symbol
_atom_site_fract_x
_atom_site_fract_y
_atom_site_fract_z
Zn1	Zn	1.110891	-0.316111	0.471272
Zn2	Zn	1.610891	0.183889	0.971272
Zn3	Zn	1.117064	-0.433675	0.331856
Zn4	Zn	1.617064	0.066325	0.831856
Zn5	Zn	0.993328	-0.309849	0.331886
Zn6	Zn	1.493328	0.190151	0.831886
Zn7	Zn	0.987001	-0.439910	0.471233
Zn8	Zn	1.487001	0.060090	0.971233
O9	O	1.052071	-0.374886	0.401562
O10	O	1.552071	0.125114	0.901562
O11	O	1.215343	-0.331718	0.452781
O12	O	1.715343	0.168282	0.952781
O13	O	1.105882	-0.412019	0.215197
O14	O	1.605882	0.087981	0.715197
O15	O	1.008987	-0.207048	0.350405
O16	O	1.508987	0.292952	0.850405
O17	O	1.219878	-0.418091	0.350353
O18	O	1.719878	0.081909	0.850353
O19	O	1.095361	-0.211649	0.452811
O20	O	1.595361	0.288351	0.952811
O21	O	1.014973	-0.321045	0.215219
O22	O	1.514973	0.178955	0.715219
O23	O	0.888856	-0.327091	0.350368
O24	O	1.388856	0.172909	0.850368
O25	O	0.998204	-0.428718	0.587901
O26	O	1.498204	0.071282	1.087901
O27	O	0.884208	-0.422646	0.452745
O28	O	1.384208	0.077354	0.952745
O29	O	1.089226	-0.337764	0.587930
O30	O	1.589226	0.162236	1.087930
O31	O	1.099747	-0.538134	0.350316
O32	O	1.599747	-0.038134	0.850316
O33	O	1.004190	-0.542715	0.452716
O34	O	1.504190	-0.042715	0.952716
C35	C	0.859661	-0.374866	0.401556
C36	C	1.359661	0.125134	0.901556
C37	C	0.777346	-0.374876	0.401573
C38	C	1.277346	0.125124	0.901573
C39	C	0.626638	-0.374889	0.401572
C40	C	1.126638	0.125111	0.901572
C41	C	0.592389	-0.435094	0.465885
C42	C	1.092389	0.064906	0.965885
C43	C	0.506779	-0.435317	0.465695
C44	C	1.006779	0.064683	0.965695
C45	C	0.478255	-0.374903	0.401572
C46	C	0.978255	0.125097	0.901572
C47	C	0.513270	-0.391765	0.313605
C48	C	1.013270	0.108235	0.813605
C49	C	0.598898	-0.392190	0.313977
C50	C	1.098898	0.107810	0.813977
C51	C	0.594087	-0.297647	0.424458
C52	C	1.094087	0.202353	0.924458
C53	C	0.508349	-0.298163	0.426395
C54	C	1.008349	0.201837	0.926395
C55	C	0.394396	-0.374909	0.401567
C56	C	0.894396	0.125091	0.901567
C57	C	0.710497	-0.374885	0.401571
C58	C	1.210497	0.125115	0.901571
C59	C	1.051971	-0.567296	0.401527
C60	C	1.551971	-0.067296	0.901527
C61	C	1.051994	-0.649610	0.401539
C62	C	1.551994	-0.149610	0.901539
C63	C	1.052078	-0.800320	0.401572
C64	C	1.552078	-0.300320	0.901572
C65	C	0.991929	-0.834585	0.465950
C66	C	1.491929	-0.334585	0.965950
C67	C	0.992133	-0.920215	0.466222
C68	C	1.492133	-0.420215	0.966222
C69	C	1.052159	-0.948704	0.401605
C70	C	1.552159	-0.448704	0.901605
C71	C	1.129170	-0.918588	0.425234
C72	C	1.629170	-0.418588	0.925234
C73	C	1.128771	-0.832964	0.425682
C74	C	1.628771	-0.332964	0.925682
C75	C	1.035924	-0.827983	0.313412
C76	C	1.535924	-0.327983	0.813412
C77	C	1.034227	-0.913657	0.313900
C78	C	1.534227	-0.413657	0.813900
C79	C	1.052210	-1.032564	0.401622
C80	C	1.552210	-0.532564	0.901622
C81	C	1.052032	-0.716460	0.401557
C82	C	1.552032	-0.216460	0.901557
C83	C	1.245233	-0.374908	0.401568
C84	C	1.745233	0.125092	0.901568
C85	C	1.327547	-0.374917	0.401571
C86	C	1.827547	0.125083	0.901571
C87	C	1.042321	-0.384635	0.619011
C88	C	1.542321	0.115365	1.119011
C89	C	1.038165	-0.388789	0.711675
C90	C	1.538165	0.111211	1.211675
C91	C	1.052191	-0.181727	0.401615
C92	C	1.552191	0.318273	0.901615
C93	C	1.052242	-0.099414	0.401638
C94	C	1.552242	0.400586	0.901638
C95	C	1.061827	-0.365123	0.184959
C96	C	1.561827	0.134877	0.684959
C97	C	1.066125	-0.360760	0.092295
C98	C	1.566125	0.139240	0.592295
C99	C	1.030552	-0.396357	0.881333
C100	C	1.530552	0.103643	1.381333
C101	C	1.073736	-0.353194	0.922643
C102	C	1.573736	0.146806	1.422643
C103	C	1.069500	-0.357405	1.017046
C104	C	1.569500	0.142595	1.517046
C105	C	1.034787	-0.392147	0.786921
C106	C	1.534787	0.107853	1.286921
H107	H	0.492675	-0.447462	0.293933
H108	H	0.992675	0.052538	0.793933
C109	C	1.147857	-0.809821	0.512730
C110	C	1.647857	-0.309821	1.012730
H111	H	1.147786	-0.757391	0.513770
H112	H	1.647786	-0.257391	1.013770
H113	H	1.112117	-0.829773	0.552892
H114	H	1.612117	-0.329773	1.052892
H115	H	1.195456	-0.828014	0.525225
H116	H	1.695456	-0.328014	1.025225
C117	C	0.624331	-0.237117	0.361195
C118	C	1.124331	0.262883	0.861195
H119	H	0.604462	-0.190572	0.375345
H120	H	1.104462	0.309428	0.875345
H121	H	0.676733	-0.235436	0.362136
H122	H	1.176733	0.264564	0.862136
H123	H	0.610446	-0.248001	0.307069
H124	H	1.110446	0.251999	0.807069
H125	H	0.990403	-0.436469	0.916863
H126	H	1.490403	0.063531	1.416863
C127	C	1.191167	-0.943289	0.363854
C128	C	1.691167	-0.443289	0.863854
H129	H	1.170586	-0.972260	0.323178
H130	H	1.670586	-0.472260	0.823178
H131	H	1.214858	-0.900960	0.337318
H132	H	1.714858	-0.400960	0.837318
H133	H	1.226298	-0.971899	0.393202
H134	H	1.726298	-0.471899	0.893202
H135	H	1.113889	-0.313079	0.887111
H136	H	1.613889	0.186921	1.387111
H137	H	1.002179	-0.815943	0.530903
H138	H	1.502179	-0.315943	1.030903
C139	C	0.474445	-0.421736	0.553793
C140	C	0.974445	0.078264	1.053793
H141	H	0.513633	-0.416037	0.590022
H142	H	1.013633	0.083963	1.090022
H143	H	0.445279	-0.378123	0.552290
H144	H	0.945279	0.121877	1.052290
H145	H	0.444485	-0.462685	0.573426
H146	H	0.944485	0.037315	1.073426
H147	H	0.610063	-0.425201	0.531304
H148	H	1.110063	0.074799	1.031304
H149	H	0.934911	-0.940636	0.451454
H150	H	1.434911	-0.440636	0.951454
H151	H	0.488924	-0.251257	0.383005
H152	H	0.988924	0.248743	0.883005
C153	C	0.914337	-0.805966	0.446237
C154	C	1.414337	-0.305966	0.946237
H155	H	0.917926	-0.772860	0.398572
H156	H	1.417926	-0.272860	0.898572
H157	H	0.883421	-0.846507	0.435672
H158	H	1.383421	-0.346507	0.935672
H159	H	0.893798	-0.780857	0.492305
H160	H	1.393798	-0.280857	0.992305
H161	H	0.486940	-0.492638	0.450511
H162	H	0.986940	0.007362	0.950511
C163	C	0.622319	-0.512092	0.445622
C164	C	1.122319	-0.012092	0.945622
H165	H	0.655595	-0.507710	0.398136
H166	H	1.155595	-0.007710	0.898136
H167	H	0.647496	-0.532541	0.491667
H168	H	1.147496	-0.032541	0.991667
H169	H	0.582326	-0.543527	0.434542
H170	H	1.082326	-0.043527	0.934542
H171	H	0.621870	-0.350001	0.264414
H172	H	1.121870	0.149999	0.764414
C173	C	0.627021	-0.468293	0.287855
C174	C	1.127021	0.031707	0.787855
H175	H	0.679497	-0.469222	0.287848
H176	H	1.179497	0.030778	0.787848
H177	H	0.607166	-0.505755	0.325970
H178	H	1.107166	-0.005755	0.825970
H179	H	0.611758	-0.476846	0.233619
H180	H	1.111758	0.023154	0.733619
C181	C	0.488776	-0.334119	0.247088
C182	C	0.988776	0.165881	0.747088
H183	H	0.456899	-0.299174	0.272434
H184	H	0.956899	0.200826	0.772434
H185	H	0.531042	-0.309361	0.221796
H186	H	1.031042	0.190639	0.721796
H187	H	0.463261	-0.358261	0.206002
H188	H	0.963261	0.141739	0.706002
H189	H	0.612873	-0.281461	0.487523
H190	H	1.112873	0.218539	0.987523
H191	H	0.485141	-0.285370	0.491135
H192	H	0.985141	0.214630	0.991135
H193	H	1.002576	-0.943598	0.531548
H194	H	1.502576	-0.443598	1.031548
C195	C	1.191106	-0.802193	0.365086
C196	C	1.691106	-0.302193	0.865086
H197	H	1.216565	-0.842030	0.340310
H198	H	1.716565	-0.342030	0.840310
H199	H	1.170498	-0.771182	0.322987
H200	H	1.670498	-0.271182	0.822987
H201	H	1.224725	-0.774394	0.394591
H202	H	1.724725	-0.274394	0.894591
H203	H	1.143652	-0.942857	0.488974
H204	H	1.643652	-0.442857	0.988974
C205	C	0.961595	-0.797600	0.284295
C206	C	1.461595	-0.297600	0.784295
H207	H	0.939718	-0.767757	0.325639
H208	H	1.439718	-0.267757	0.825639
H209	H	0.969761	-0.768673	0.233855
H210	H	1.469761	-0.268673	0.733855
H211	H	0.929441	-0.837635	0.275451
H212	H	1.429441	-0.337635	0.775451
C213	C	0.957753	-0.940225	0.289748
C214	C	1.457753	-0.440225	0.789748
H215	H	0.936829	-0.972533	0.332934
H216	H	1.436829	-0.472533	0.832934
H217	H	0.926253	-0.898808	0.281653
H218	H	1.426253	-0.398808	0.781653
H219	H	0.963020	-0.965777	0.239741
H220	H	1.463020	-0.465777	0.739741
C221	C	1.089535	-0.939452	0.245669
C222	C	1.589535	-0.439452	0.745669
H223	H	1.124446	-0.972075	0.269886
H224	H	1.624446	-0.472075	0.769886
H225	H	1.063670	-0.964443	0.205518
H226	H	1.563670	-0.464443	0.705518
H227	H	1.114629	-0.897745	0.219518
H228	H	1.614629	-0.397745	0.719518
H229	H	1.079776	-0.805530	0.265447
H230	H	1.579776	-0.305530	0.765447
