data_functionalizedCrystal
_audit_creation_method	'MofGen! by Chris Wilmer'
_symmetry_space_group_name_H-M	'P1'
_symmetry_Int_Tables_number	1
_symmetry_cell_setting	triclinic
loop_
_symmetry_equiv_pos_as_xyz
  x,y,z
_cell_length_a	10.654550
_cell_length_b	14.519731
_cell_length_c	9.130313
_cell_angle_alpha	89.997760
_cell_angle_beta	89.996220
_cell_angle_gamma	84.086878
loop_
_atom_site_label
_atom_site_type_symbol
_atom_site_fract_x
_atom_site_fract_y
_atom_site_fract_z
O1	O	1.666602	0.129527	-0.121923
O2	O	1.301006	0.141868	-0.121900
O3	O	1.493484	0.001510	-0.121899
O4	O	1.474125	0.269884	-0.121925
O5	O	1.493481	0.001514	0.121700
O6	O	1.301004	0.141872	0.121699
O7	O	1.666600	0.129531	0.121675
Cu8	Cu	1.483802	0.135701	0.143930
Cu9	Cu	1.483804	0.135697	-0.144154
O10	O	1.474122	0.269888	0.121674
C11	C	1.254216	0.140964	-0.000098
C12	C	1.114798	0.138253	-0.000088
C13	C	1.034527	0.220893	-0.000118
C14	C	0.903530	0.218340	-0.000143
C15	C	0.933090	0.050499	-0.000116
C16	C	1.064084	0.053053	-0.000080
C17	C	1.017459	0.317794	-0.000140
C18	C	0.886463	0.315241	-0.000165
C19	C	1.492575	-0.032852	-0.000099
C20	C	1.489857	-0.135246	-0.000098
C21	C	1.487649	-0.218402	-0.000102
C22	C	1.484889	-0.322725	-0.000113
C23	C	1.482699	-0.405875	-0.000122
C24	C	1.479939	-0.510205	-0.000130
C25	C	1.713390	0.130435	-0.000130
C26	C	1.852808	0.133146	-0.000149
C27	C	1.475031	0.304250	-0.000129
C28	C	1.477749	0.406645	-0.000139
N29	N	1.483809	0.135704	0.346552
N30	N	1.483807	0.135687	-0.346777
C31	C	1.569059	0.073575	0.423205
C32	C	1.569056	0.073564	0.576541
C33	C	1.398547	0.197819	0.576560
C34	C	1.398546	0.197825	0.423226
C35	C	1.667505	0.001840	0.423195
C36	C	1.667502	0.001829	0.576532
H37	H	0.840512	0.344528	0.105001
C38	C	1.064879	0.358874	-0.140290
C39	C	1.196076	0.359260	-0.132765
C40	C	1.239805	0.397083	-0.261852
H41	H	1.026626	0.420495	-0.151667
H42	H	1.043815	0.322633	-0.221587
H43	H	1.217128	0.395502	-0.051491
H44	H	1.234361	0.297650	-0.121409
H45	H	1.218742	0.360842	-0.343149
H46	H	1.201544	0.458702	-0.273219
H47	H	1.328827	0.397342	-0.256770
H48	H	1.637626	-0.065156	0.624088
H49	H	1.329128	0.248395	0.639004
C50	C	1.151383	-0.036601	-0.000264
C51	C	1.227507	-0.040041	-0.125549
C52	C	1.307952	-0.122615	-0.125759
H53	H	1.102570	-0.087779	-0.000343
H54	H	1.203149	-0.039095	0.084655
H55	H	1.175747	-0.037557	-0.210447
H56	H	1.276347	0.011117	-0.125498
H57	H	1.359718	-0.125108	-0.040839
H58	H	1.259129	-0.173786	-0.125833
H59	H	1.359620	-0.124956	-0.210755
H60	H	0.844384	0.351751	-0.102122
H61	H	1.046429	0.355694	0.101808
C62	C	1.639725	-0.092718	0.367983
C63	C	1.622734	-0.150565	0.487504
C64	C	1.597124	-0.237671	0.436699
H65	H	1.708416	-0.119041	0.310210
H66	H	1.565165	-0.086241	0.310232
H67	H	1.697286	-0.157044	0.545231
H68	H	1.554040	-0.124271	0.545289
H69	H	1.522564	-0.231194	0.378948
H70	H	1.665819	-0.263985	0.378926
H71	H	1.585582	-0.276928	0.517785
C72	C	1.305921	0.265375	0.340266
C73	C	1.231279	0.319790	0.440237
C74	C	1.145946	0.382037	0.363869
H75	H	1.253458	0.231946	0.280450
H76	H	1.351141	0.304134	0.280478
H77	H	1.186063	0.281037	0.500000
H78	H	1.283708	0.353240	0.500057
H79	H	1.191166	0.420795	0.304081
H80	H	1.093492	0.348600	0.304055
H81	H	1.095299	0.418971	0.431687
H82	H	1.758475	0.024301	0.375629
C83	C	0.877781	-0.041907	-0.000191
C84	C	0.745881	-0.026458	-0.000260
C85	C	0.694892	-0.111562	-0.000351
H86	H	0.905164	-0.076039	0.084743
H87	H	0.905270	-0.075980	-0.085164
H88	H	0.718403	0.007600	0.084706
H89	H	0.718464	0.007659	-0.085187
H90	H	0.722381	-0.145636	-0.085325
H91	H	0.722283	-0.145688	0.084584
H92	H	0.605393	-0.101092	-0.000411
H93	H	1.763863	0.017630	0.618141
