data_functionalizedCrystal
_audit_creation_method	'MofGen! by Chris Wilmer'
_symmetry_space_group_name_H-M	'P1'
_symmetry_Int_Tables_number	1
_symmetry_cell_setting	triclinic
loop_
_symmetry_equiv_pos_as_xyz
  x,y,z
_cell_length_a	19.805407
_cell_length_b	12.827892
_cell_length_c	19.805399
_cell_angle_alpha	89.976065
_cell_angle_beta	89.984884
_cell_angle_gamma	90.012518
loop_
_atom_site_label
_atom_site_type_symbol
_atom_site_fract_x
_atom_site_fract_y
_atom_site_fract_z
Zn1	Zn	1.034770	-0.416118	-0.382711
Zn2	Zn	1.034713	-0.590877	-0.269533
Zn3	Zn	0.921590	-0.416143	-0.269540
Zn4	Zn	0.921571	-0.590809	-0.382683
O5	O	0.978161	-0.503487	-0.326117
O6	O	1.129479	-0.439318	-0.367707
O7	O	1.019691	-0.567737	-0.174817
O8	O	0.936636	-0.269903	-0.284566
O9	O	1.129437	-0.567713	-0.284556
O10	O	1.019789	-0.269885	-0.367713
O11	O	0.936580	-0.439360	-0.174822
O12	O	0.826871	-0.439294	-0.284539
O13	O	0.936603	-0.567597	-0.477404
O14	O	0.826857	-0.567621	-0.367666
O15	O	1.019770	-0.439252	-0.477424
O16	O	1.019672	-0.737104	-0.284528
O17	O	0.936547	-0.737054	-0.367659
C18	C	0.802305	-0.503454	-0.326100
C19	C	0.727073	-0.503465	-0.326109
C20	C	0.691752	-0.436728	-0.369472
C21	C	0.621063	-0.436733	-0.369475
C22	C	0.585697	-0.503482	-0.326118
C23	C	0.621024	-0.570222	-0.282750
C24	C	0.691711	-0.570211	-0.282744
C25	C	0.335951	-0.570269	-0.282771
C26	C	0.265258	-0.570278	-0.282781
C27	C	0.265303	-0.436792	-0.369501
C28	C	0.335990	-0.436780	-0.369496
C29	C	0.371310	-0.503516	-0.326126
C30	C	0.447959	-0.503508	-0.326123
C31	C	0.509050	-0.503496	-0.326124
C32	C	0.978119	-0.774997	-0.326105
C33	C	0.978163	-0.891150	-0.326122
C34	C	1.019336	-1.062886	-0.367320
C35	C	1.019292	-0.942836	-0.367303
C36	C	1.154704	-0.503520	-0.326134
C37	C	1.229936	-0.503535	-0.326141
C38	C	0.978191	-0.503414	-0.502660
C39	C	0.978203	-0.503383	-0.577892
C40	C	0.978221	-0.230916	-0.326144
C41	C	0.978247	-0.114763	-0.326155
C42	C	0.934940	-0.436531	-0.613238
C43	C	0.934949	-0.436511	-0.683926
C44	C	0.978226	-0.503338	-0.719267
C45	C	1.021491	-0.570197	-0.683916
C46	C	1.021478	-0.570222	-0.613229
C47	C	1.021545	-0.570100	-0.968990
C48	C	1.021556	-0.570068	-1.039682
C49	C	0.935016	-0.436388	-1.039687
C50	C	0.935003	-0.436413	-0.969000
C51	C	0.978265	-0.503276	-0.933655
C52	C	0.978254	-0.503299	-0.857006
C53	C	0.978241	-0.503311	-0.795915
C54	C	0.978170	-0.503483	-0.150261
C55	C	0.978289	-0.503220	-0.075029
H56	H	0.720541	-0.382376	-0.404781
H57	H	1.056799	-0.624490	-1.068455
O58	O	1.063470	-0.635307	-0.578965
C59	C	1.048642	-0.739450	-0.596213
H60	H	1.022636	-0.741590	-0.647536
H61	H	1.097479	-0.786323	-0.598626
H62	H	1.013824	-0.774652	-0.556425
O63	O	0.892890	-0.371495	-1.073947
C64	C	0.825422	-0.394340	-1.056674
H65	H	0.824003	-0.434531	-1.005346
H66	H	0.795090	-0.318914	-1.054259
H67	H	0.802616	-0.448046	-1.096448
H68	H	1.056764	-0.624555	-0.940221
O69	O	0.892930	-0.371644	-0.934596
C70	C	0.849183	-0.431153	-0.893712
H71	H	0.873038	-0.510354	-0.883115
H72	H	0.840110	-0.388606	-0.844008
H73	H	0.799027	-0.442618	-0.920949
H74	H	1.054550	-1.107349	-0.402573
O75	O	1.061282	-0.889784	-0.409415
C76	C	1.099543	-0.961159	-0.447695
H77	H	1.071894	-1.039024	-0.450069
H78	H	1.106697	-0.929482	-0.501008
H79	H	1.150977	-0.972687	-0.422965
O80	O	0.936157	-0.944470	-0.284168
C81	C	0.892464	-1.007598	-0.322712
H82	H	0.916319	-1.023764	-0.374039
H83	H	0.883482	-1.084432	-0.295191
H84	H	0.842261	-0.965648	-0.330073
O85	O	0.892964	-0.371648	-0.578806
C86	C	0.902215	-0.386019	-0.508835
H87	H	0.954441	-0.420255	-0.499179
H88	H	0.897634	-0.307752	-0.481980
H89	H	0.862052	-0.441670	-0.488766
H90	H	0.943039	-1.070302	-0.290897
O91	O	0.726129	-0.634943	-0.240645
C92	C	0.796102	-0.620638	-0.249948
H93	H	0.805770	-0.540034	-0.272204
H94	H	0.822949	-0.627619	-0.199238
H95	H	0.816171	-0.682692	-0.285921
H96	H	0.899718	-0.382077	-0.712702
O97	O	0.231021	-0.372067	-0.411724
C98	C	0.248329	-0.395027	-0.479155
H99	H	0.267753	-0.478517	-0.482475
H100	H	0.201855	-0.386099	-0.512609
H101	H	0.289372	-0.339034	-0.496908
O102	O	1.063507	-0.635018	-0.718349
C103	C	1.054232	-0.620680	-0.788319
H104	H	1.032086	-0.540024	-0.797982
H105	H	1.104935	-0.627772	-0.815187
H106	H	1.018176	-0.682649	-0.808369
H107	H	0.592308	-0.382391	-0.404787
O108	O	0.370448	-0.372039	-0.411591
C109	C	0.440412	-0.386322	-0.402275
H110	H	0.450052	-0.466924	-0.380019
H111	H	0.467297	-0.379329	-0.452979
H112	H	0.460464	-0.324263	-0.366296
O113	O	0.230978	-0.635262	-0.240691
C114	C	0.248235	-0.739445	-0.255369
H115	H	0.299569	-0.741661	-0.281378
H116	H	0.250628	-0.786199	-0.206465
H117	H	0.208463	-0.774722	-0.290133
O118	O	0.370326	-0.635155	-0.240742
C119	C	0.411210	-0.702740	-0.279198
H120	H	0.421828	-0.665981	-0.330529
H121	H	0.460903	-0.716692	-0.251604
H122	H	0.383960	-0.780197	-0.286558
O123	O	0.586641	-0.635173	-0.240729
C124	C	0.545750	-0.702735	-0.279194
H125	H	0.567072	-0.709293	-0.332493
H126	H	0.544933	-0.783108	-0.254624
H127	H	0.492180	-0.670439	-0.281567
