data_functionalizedCrystal
_audit_creation_method	'MofGen! by Chris Wilmer'
_symmetry_space_group_name_H-M	'P1'
_symmetry_Int_Tables_number	1
_symmetry_cell_setting	triclinic
loop_
_symmetry_equiv_pos_as_xyz
  x,y,z
_cell_length_a	9.065218
_cell_length_b	17.038272
_cell_length_c	8.140239
_cell_angle_alpha	89.996147
_cell_angle_beta	89.997198
_cell_angle_gamma	88.063721
loop_
_atom_site_label
_atom_site_type_symbol
_atom_site_fract_x
_atom_site_fract_y
_atom_site_fract_z
O1	O	1.971908	0.114742	-0.136620
O2	O	1.543567	0.124153	-0.136623
O3	O	1.755192	0.005614	-0.136608
O4	O	1.760283	0.233281	-0.136634
O5	O	1.755179	0.005612	0.136619
O6	O	1.543555	0.124152	0.136605
O7	O	1.971895	0.114740	0.136607
Zn8	Zn	1.757723	0.119446	0.179986
Zn9	Zn	1.757740	0.119448	-0.180002
O10	O	1.760271	0.233280	0.136593
C11	C	1.488484	0.123248	-0.000009
C12	C	1.324369	0.120544	-0.000010
C13	C	1.750555	-0.023549	0.000005
C14	C	1.736739	-0.110441	0.000005
C15	C	1.863587	-0.159639	0.000007
C16	C	1.850596	-0.241284	-0.000009
C17	C	1.710756	-0.273728	-0.000015
C18	C	1.583899	-0.224524	-0.000022
C19	C	1.596891	-0.142881	-0.000019
C20	C	1.664859	-0.519818	-0.000038
C21	C	1.651876	-0.601467	-0.000037
C22	C	1.918575	-0.618221	-0.000026
C23	C	1.931554	-0.536576	-0.000012
C24	C	1.804697	-0.487379	-0.000028
C25	C	1.697475	-0.357182	-0.000026
C26	C	1.817980	-0.403927	-0.000029
C27	C	2.026979	0.115646	-0.000010
C28	C	2.191093	0.118350	-0.000020
C29	C	1.764908	0.262442	-0.000024
C30	C	1.778724	0.349335	-0.000034
N31	N	1.757722	0.119444	0.425669
N32	N	1.757751	0.119443	-0.425685
H33	H	1.953890	-0.281338	-0.000003
H34	H	1.561561	-0.479770	-0.000050
N35	N	1.554620	-0.390308	-0.000022
N36	N	1.466776	-0.375574	-0.115180
H37	H	1.365881	-0.398969	-0.115177
N38	N	2.048163	-0.668464	-0.000007
N39	N	2.138894	-0.664957	0.115165
H40	H	2.230424	-0.700440	0.115176
H41	H	1.537996	-0.627879	-0.000015
H42	H	1.470038	-0.250946	-0.000038
N43	N	1.960806	-0.370775	-0.000003
N44	N	1.997776	-0.327088	0.115176
H45	H	2.098648	-0.303666	0.115202
N46	N	1.467304	-0.092635	-0.000042
N47	N	1.342454	-0.121610	-0.000057
H48	H	1.250927	-0.086125	-0.000085
H49	H	1.977459	-0.133230	0.000022
N50	N	2.074401	-0.503441	0.000017
N51	N	2.162225	-0.518176	0.115194
H52	H	2.263114	-0.494776	0.115223
