data_functionalizedCrystal
_audit_creation_method	'MofGen! by Chris Wilmer'
_symmetry_space_group_name_H-M	'P1'
_symmetry_Int_Tables_number	1
_symmetry_cell_setting	triclinic
loop_
_symmetry_equiv_pos_as_xyz
  x,y,z
_cell_length_a	13.031981
_cell_length_b	13.033304
_cell_length_c	13.032268
_cell_angle_alpha	89.077769
_cell_angle_beta	90.931652
_cell_angle_gamma	76.681394
loop_
_atom_site_label
_atom_site_type_symbol
_atom_site_fract_x
_atom_site_fract_y
_atom_site_fract_z
Zn1	Zn	-0.323901	-1.463148	0.735861
Zn2	Zn	0.176099	-0.963148	1.235861
Zn3	Zn	-0.473496	-1.468583	0.542799
Zn4	Zn	0.026504	-0.968583	1.042799
Zn5	Zn	-0.318400	-1.313608	0.542808
Zn6	Zn	0.181600	-0.813608	1.042808
Zn7	Zn	-0.516887	-1.270104	0.686717
Zn8	Zn	-0.016887	-0.770104	1.186717
O9	O	-0.408171	-1.378861	0.627046
O10	O	0.091829	-0.878861	1.127046
O11	O	-0.327888	-1.609515	0.730814
O12	O	0.172112	-1.109515	1.230814
O13	O	-0.432461	-1.468506	0.401777
O14	O	0.067539	-0.968506	0.901777
O15	O	-0.173456	-1.349377	0.588988
O16	O	0.326544	-0.849377	1.088988
O17	O	-0.437796	-1.613509	0.588973
O18	O	0.062204	-1.113509	1.088973
O19	O	-0.177498	-1.459243	0.730823
O20	O	0.322502	-0.959243	1.230823
O21	O	-0.318513	-1.354647	0.401784
O22	O	0.181487	-0.854647	0.901784
O23	O	-0.360587	-1.162190	0.541335
O24	O	0.139413	-0.662190	1.041335
O25	O	-0.511748	-1.275231	0.834259
O26	O	-0.011748	-0.775231	1.334259
O27	O	-0.506414	-1.130228	0.647064
O28	O	-0.006414	-0.630228	1.147064
O29	O	-0.369962	-1.417059	0.870365
O30	O	0.130038	-0.917059	1.370365
O31	O	-0.624926	-1.426322	0.541319
O32	O	-0.124926	-0.926322	1.041319
O33	O	-0.656804	-1.280501	0.647055
O34	O	-0.156804	-0.780501	1.147055
C35	C	-0.437612	-1.108445	0.588868
C36	C	0.062388	-0.608445	1.088868
C37	C	-0.450236	-0.992753	0.572555
C38	C	0.049764	-0.492753	1.072555
C39	C	-0.401596	-0.939174	0.635544
C40	C	0.098404	-0.439174	1.135544
C41	C	-0.414642	-0.819601	0.618686
C42	C	0.085358	-0.319601	1.118686
C43	C	-0.678637	-1.349305	0.588879
C44	C	-0.178637	-0.849305	1.088879
C45	C	-0.794337	-1.336752	0.572598
C46	C	-0.294337	-0.836752	1.072598
C47	C	-0.847850	-1.385465	0.635571
C48	C	-0.347850	-0.885465	1.135571
C49	C	-0.967433	-1.372491	0.618746
C50	C	-0.467433	-0.872491	1.118746
C51	C	-0.136649	-1.408556	0.665388
C52	C	0.363351	-0.908556	1.165388
C53	C	-0.020943	-1.421211	0.681728
C54	C	0.479057	-0.921211	1.181728
C55	C	-0.446309	-1.340686	0.889901
C56	C	0.053691	-0.840686	1.389901
C57	C	-0.462561	-1.324418	1.001913
C58	C	0.037439	-0.824418	1.501913
C59	C	-0.378609	-0.650334	0.665368
C60	C	0.121391	-0.150334	1.165368
C61	C	-0.365996	-0.766024	0.681683
C62	C	0.134004	-0.266024	1.181683
C63	C	-0.370100	-1.416955	0.365234
C64	C	0.129900	-0.916955	0.865234
C65	C	-0.353533	-1.433457	0.253291
C66	C	0.146467	-0.933457	0.753291
C67	C	-0.399653	-1.387339	1.069717
C68	C	0.100347	-0.887339	1.569717
C69	C	-0.416449	-1.370527	1.185488
C70	C	0.083551	-0.870527	1.685488
H71	H	-0.465944	-0.776953	0.552272
H72	H	0.034056	-0.276953	1.052272
Br73	Br	-0.573047	-1.213875	1.048003
Br74	Br	-0.073047	-0.713875	1.548003
Br75	Br	-0.865525	-1.251219	0.461980
Br76	Br	-0.365525	-0.751219	0.961980
Br77	Br	-0.289131	-1.497846	1.023627
Br78	Br	0.210869	-0.997846	1.523627
Br79	Br	-0.535734	-0.921677	0.461859
Br80	Br	-0.035734	-0.421677	0.961859
Br81	Br	-0.526941	-1.259979	1.231572
Br82	Br	-0.026941	-0.759979	1.731572
H83	H	-0.287232	-1.499772	1.225638
H84	H	0.212768	-0.999772	1.725638
H85	H	-0.978233	-1.472520	0.748106
H86	H	-0.478233	-0.972520	1.248106
H87	H	-0.805137	-1.436770	0.701945
H88	H	-0.305137	-0.936770	1.201945
Br89	Br	-0.280469	-0.837098	0.792368
Br90	Br	0.219531	-0.337098	1.292368
Br91	Br	-0.316081	-1.010254	0.746228
Br92	Br	0.183919	-0.510254	1.246228
H93	H	-1.010147	-1.321173	0.552375
H94	H	-0.510147	-0.821173	1.052375
