data_functionalizedCrystal
_audit_creation_method	'MofGen! by Chris Wilmer'
_symmetry_space_group_name_H-M	'P1'
_symmetry_Int_Tables_number	1
_symmetry_cell_setting	triclinic
loop_
_symmetry_equiv_pos_as_xyz
  x,y,z
_cell_length_a	11.169417
_cell_length_b	16.120484
_cell_length_c	11.169409
_cell_angle_alpha	92.860826
_cell_angle_beta	89.979436
_cell_angle_gamma	92.926269
loop_
_atom_site_label
_atom_site_type_symbol
_atom_site_fract_x
_atom_site_fract_y
_atom_site_fract_z
Zn1	Zn	1.810625	-0.331819	-0.702705
Zn2	Zn	1.800280	-0.471262	-0.512176
Zn3	Zn	1.609904	-0.331869	-0.502043
Zn4	Zn	1.599692	-0.471194	-0.712816
O5	O	1.705125	-0.401536	-0.607435
O6	O	1.977202	-0.350323	-0.677440
O7	O	1.774971	-0.452820	-0.342886
O8	O	1.645134	-0.215198	-0.520190
O9	O	1.969602	-0.452771	-0.537460
O10	O	1.792602	-0.215160	-0.667615
O11	O	1.635103	-0.350410	-0.335441
O12	O	1.440601	-0.350344	-0.529994
O13	O	1.627728	-0.452656	-0.879421
O14	O	1.433097	-0.452705	-0.684847
O15	O	1.782699	-0.350258	-0.871993
O16	O	1.765069	-0.587918	-0.547264
O17	O	1.617697	-0.587868	-0.694673
C18	C	1.393302	-0.401523	-0.607419
C19	C	1.259901	-0.401538	-0.607442
C20	C	1.689185	-0.618143	-0.623191
C21	C	1.682475	-0.710808	-0.629972
C22	C	1.670232	-0.880469	-0.642376
C23	C	1.740233	-0.921763	-0.572514
C24	C	1.733421	-1.016168	-0.579416
C25	C	1.677043	-0.786055	-0.635476
C26	C	2.018167	-0.401549	-0.607452
C27	C	2.151566	-0.401555	-0.607460
C28	C	1.705228	-0.401444	-0.920471
C29	C	1.705272	-0.401404	-1.053868
C30	C	1.721161	-0.184083	-0.591644
C31	C	1.727994	-0.091418	-0.584915
C32	C	1.705096	-0.401568	-0.295613
C33	C	1.705302	-0.401372	-0.162199
H34	H	1.805278	-0.886215	-0.507520
H35	H	1.605191	-0.916014	-0.707364
