data_functionalizedCrystal
_audit_creation_method	'MofGen! by Chris Wilmer'
_symmetry_space_group_name_H-M	'P1'
_symmetry_Int_Tables_number	1
_symmetry_cell_setting	triclinic
loop_
_symmetry_equiv_pos_as_xyz
  x,y,z
_cell_length_a	6.817900
_cell_length_b	10.992421
_cell_length_c	17.110486
_cell_angle_alpha	95.147452
_cell_angle_beta	99.060439
_cell_angle_gamma	108.764763
loop_
_atom_site_label
_atom_site_type_symbol
_atom_site_fract_x
_atom_site_fract_y
_atom_site_fract_z
V1	V	-4.003796	-0.177378	-0.246709
O2	O	-3.964021	0.008917	-0.242024
O3	O	-3.982135	-0.352090	-0.245011
O4	O	-3.933214	-0.174477	-0.354313
O5	O	-4.013281	-0.169925	-0.131966
V6	V	-4.486833	-0.155115	-0.232986
O7	O	-4.266119	-0.226213	-0.276811
O8	O	-4.674707	-0.106280	-0.202884
O9	O	-4.285288	0.019596	-0.234684
O10	O	-4.644005	-0.341411	-0.237671
O11	O	-4.594745	-0.162569	-0.347729
O12	O	-4.334209	-0.158017	-0.125383
C13	C	-3.834358	-0.394686	-0.241116
C14	C	-3.897787	-0.537514	-0.240445
C15	C	-3.767873	-0.732809	-0.235034
C16	C	-3.701620	-0.584164	-0.235418
C17	C	-4.001433	-0.576264	-0.166652
C18	C	-4.066019	-0.724808	-0.165870
C19	C	-4.129800	-0.763155	-0.317142
C20	C	-4.060029	-0.614639	-0.318743
C21	C	-3.771953	-0.168122	-0.380540
C22	C	-3.795705	-0.166906	-0.468506
C23	C	-3.989132	-0.172747	-0.513864
C24	C	-4.011437	-0.171603	-0.596517
C25	C	-3.840317	-0.164628	-0.633812
C26	C	-3.646873	-0.158783	-0.588448
C27	C	-3.624566	-0.159917	-0.505796
C28	C	-3.898547	-0.160874	-0.883168
C29	C	-3.920872	-0.159745	-0.965827
C30	C	-4.285434	-0.172563	-0.973889
C31	C	-4.263113	-0.173704	-0.891236
C32	C	-4.069669	-0.167852	-0.845878
C33	C	-3.863114	-0.163463	-0.718298
C34	C	-4.046870	-0.169008	-0.761394
C35	C	-4.096408	0.062186	-0.238577
C36	C	-4.012217	0.205012	-0.239253
C37	C	-4.158813	-0.164376	-0.099151
C38	C	-4.114299	-0.165586	-0.011184
H39	H	-3.677228	-0.753456	-0.178863
H40	H	-3.741058	-0.156155	-0.846252
C41	C	-4.174656	-0.180116	-0.473252
C42	C	-4.119869	-0.070127	-0.415367
C43	C	-4.290713	-0.076876	-0.377934
H44	H	-4.293160	-0.183369	-0.512013
H45	H	-4.209185	-0.256047	-0.448352
H46	H	-4.085368	0.005784	-0.440267
H47	H	-4.001392	-0.066852	-0.376590
H48	H	-4.325242	-0.152807	-0.353034
H49	H	-4.409206	-0.080132	-0.416700
H50	H	-4.253557	-0.002257	-0.338650
H51	H	-4.168939	-0.176352	-0.633443
C52	C	-4.495622	-0.179186	-1.023125
C53	C	-4.652759	-0.294378	-1.016124
C54	C	-4.846410	-0.300533	-1.061478
H55	H	-4.531502	-0.106845	-1.004067
H56	H	-4.484516	-0.177588	-1.077707
H57	H	-4.663868	-0.295965	-0.961553
H58	H	-4.616948	-0.366739	-1.035187
H59	H	-4.835305	-0.298935	-1.116060
H60	H	-4.882269	-0.228186	-1.042416
H61	H	-4.953047	-0.378695	-1.056740
C62	C	-3.536614	-0.514277	-0.160553
C63	C	-3.350055	-0.440318	-0.182528
C64	C	-3.197998	-0.375932	-0.113579
H65	H	-3.587638	-0.458718	-0.130094
H66	H	-3.508965	-0.576339	-0.129339
H67	H	-3.377704	-0.378263	-0.213728
H68	H	-3.298968	-0.495845	-0.212976
H69	H	-3.170349	-0.437994	-0.082365
H70	H	-3.249042	-0.320380	-0.083125
H71	H	-3.071395	-0.325753	-0.128479
C72	C	-4.448970	-0.181547	-0.850734
C73	C	-4.499460	-0.293626	-0.814197
C74	C	-4.670687	-0.300913	-0.776892
H75	H	-4.412420	-0.107097	-0.811383
H76	H	-4.567445	-0.184936	-0.889573
H77	H	-4.381011	-0.290226	-0.775362
H78	H	-4.536049	-0.368096	-0.853532
H79	H	-4.789162	-0.304303	-0.815731
H80	H	-4.634119	-0.226458	-0.737544
H81	H	-4.704979	-0.376964	-0.752104
H82	H	-3.718591	-0.779149	-0.287435
C83	C	-3.461163	-0.151010	-0.629024
C84	C	-3.410745	-0.038974	-0.665604
C85	C	-3.239698	-0.031784	-0.702998
H86	H	-3.342589	-0.147618	-0.590253
H87	H	-3.497931	-0.225523	-0.668363
H88	H	-3.373968	0.035520	-0.626270
H89	H	-3.529270	-0.042341	-0.704387
H90	H	-3.276466	-0.106296	-0.742336
H91	H	-3.121138	-0.028395	-0.664222
H92	H	-3.205480	0.044226	-0.727828
C93	C	-4.254979	-0.574500	-0.329892
C94	C	-4.394880	-0.645561	-0.400276
C95	C	-4.574487	-0.608611	-0.410570
H96	H	-4.322399	-0.591384	-0.285527
H97	H	-4.214488	-0.484342	-0.333512
H98	H	-4.435371	-0.735698	-0.396650
H99	H	-4.327526	-0.628686	-0.444655
H100	H	-4.533996	-0.518454	-0.414189
H101	H	-4.641889	-0.625497	-0.366200
H102	H	-4.669423	-0.656811	-0.458329
H103	H	-4.242282	-0.765691	-0.165754
H104	H	-4.146684	-0.546027	-0.167503
C105	C	-3.953367	-0.748098	-0.087664
C106	C	-4.012033	-0.689615	-0.023376
C107	C	-3.908270	-0.711018	0.048681
H108	H	-3.991645	-0.838861	-0.086367
H109	H	-3.804889	-0.711499	-0.083683
H110	H	-4.160479	-0.726218	-0.027356
H111	H	-3.973752	-0.598850	-0.024646
H112	H	-3.759792	-0.674419	0.052662
H113	H	-3.946556	-0.801782	0.049969
H114	H	-3.948045	-0.671331	0.092308
C115	C	-4.087603	-0.828875	-0.391568
C116	C	-3.870233	-0.784742	-0.390614
C117	C	-3.831261	-0.845239	-0.459162
H118	H	-4.136353	-0.920324	-0.392375
H119	H	-4.159845	-0.808379	-0.437913
H120	H	-3.798017	-0.805247	-0.344282
H121	H	-3.821434	-0.693301	-0.389819
H122	H	-3.903504	-0.824743	-0.505506
H123	H	-3.880023	-0.936686	-0.459963
H124	H	-3.683777	-0.815294	-0.458527
H125	H	-3.620890	-0.558318	-0.288146
H126	H	-3.886796	-0.522116	-0.108686
C127	C	-3.962153	-0.582417	-0.391523
C128	C	-3.907846	-0.448901	-0.394117
C129	C	-3.817692	-0.419164	-0.461154
H130	H	-3.838976	-0.605931	-0.388043
H131	H	-4.061040	-0.629289	-0.438723
H132	H	-3.808965	-0.402045	-0.346930
H133	H	-4.030986	-0.425356	-0.397610
H134	H	-3.916579	-0.466035	-0.508353
H135	H	-3.694523	-0.442684	-0.457667
H136	H	-3.780852	-0.328574	-0.462927
H137	H	-4.307917	-0.804266	-0.321010
H138	H	-3.781513	-0.154060	-0.996189
H139	H	-3.467044	-0.155129	-0.468863
H140	H	-4.186192	-0.174683	-0.731024
H141	H	-3.723794	-0.157789	-0.748673
