data_functionalizedCrystal
_audit_creation_method	'MofGen! by Chris Wilmer'
_symmetry_space_group_name_H-M	'P1'
_symmetry_Int_Tables_number	1
_symmetry_cell_setting	triclinic
loop_
_symmetry_equiv_pos_as_xyz
  x,y,z
_cell_length_a	8.497365
_cell_length_b	11.169417
_cell_length_c	11.169416
_cell_angle_alpha	89.988781
_cell_angle_beta	90.048102
_cell_angle_gamma	89.968956
loop_
_atom_site_label
_atom_site_type_symbol
_atom_site_fract_x
_atom_site_fract_y
_atom_site_fract_z
Zn1	Zn	-0.891931	1.835095	0.477478
Zn2	Zn	-0.391931	2.335095	0.977478
Zn3	Zn	-0.628148	1.834945	0.678279
Zn4	Zn	-0.128148	2.334945	1.178279
Zn5	Zn	-0.628164	1.634342	0.477611
Zn6	Zn	-0.128164	2.134342	0.977611
Zn7	Zn	-0.891887	1.634389	0.678121
Zn8	Zn	-0.391887	2.134389	1.178121
O9	O	-0.760033	1.734693	0.577872
O10	O	-0.260033	2.234693	1.077872
O11	O	-0.856951	2.003025	0.504125
O12	O	-0.356951	2.503025	1.004125
O13	O	-0.407388	1.808252	0.651782
O14	O	0.092612	2.308252	1.151782
O15	O	-0.663179	1.661015	0.309644
O16	O	-0.163179	2.161015	0.809644
O17	O	-0.663151	2.002915	0.651652
O18	O	-0.163151	2.502915	1.151652
O19	O	-0.856966	1.808508	0.309546
O20	O	-0.356966	2.308508	0.809546
O21	O	-0.407400	1.660870	0.504352
O22	O	0.092600	2.160870	1.004352
O23	O	-0.663136	1.466398	0.504199
O24	O	-0.163136	1.966398	1.004199
O25	O	-1.112656	1.661095	0.651383
O26	O	-0.612656	2.161095	1.151383
O27	O	-0.856892	1.466433	0.651512
O28	O	-0.356892	1.966433	1.151512
O29	O	-1.112687	1.808553	0.503971
O30	O	-0.612687	2.308553	1.003971
O31	O	-0.663109	1.808298	0.846207
O32	O	-0.163109	2.308298	1.346207
O33	O	-0.856877	1.660950	0.846091
O34	O	-0.356877	2.160950	1.346091
C35	C	-0.760012	1.422868	0.577854
C36	C	-0.260012	1.922868	1.077854
C37	C	-0.760041	1.289468	0.577875
C38	C	-0.260041	1.789468	1.077875
C39	C	-0.760021	1.734645	0.889697
C40	C	-0.260021	2.234645	1.389697
C41	C	-0.760068	1.734735	1.023097
C42	C	-0.260068	2.234735	1.523097
C43	C	-0.350152	1.734606	0.578003
C44	C	0.149848	2.234606	1.078003
C45	C	-0.171509	1.734777	0.577757
C46	C	0.328491	2.234777	1.077757
C47	C	-0.760054	2.047735	0.577891
C48	C	-0.260054	2.547735	1.077891
C49	C	-0.760063	2.181135	0.577899
C50	C	-0.260063	2.681135	1.077899
C51	C	-0.760079	1.734773	0.264830
C52	C	-0.260079	2.234773	0.764830
C53	C	-0.760099	1.734807	0.131430
C54	C	-0.260099	2.234807	0.631430
