data_functionalizedCrystal
_audit_creation_method	'MofGen! by Chris Wilmer'
_symmetry_space_group_name_H-M	'P1'
_symmetry_Int_Tables_number	1
_symmetry_cell_setting	triclinic
loop_
_symmetry_equiv_pos_as_xyz
  x,y,z
_cell_length_a	19.288859
_cell_length_b	10.967829
_cell_length_c	18.366186
_cell_angle_alpha	77.865925
_cell_angle_beta	89.990083
_cell_angle_gamma	83.939469
loop_
_atom_site_label
_atom_site_type_symbol
_atom_site_fract_x
_atom_site_fract_y
_atom_site_fract_z
O1	O	0.922371	0.155625	-0.080089
O2	O	1.422371	0.655625	0.419911
O3	O	0.720247	0.176631	-0.082723
O4	O	1.220247	0.676631	0.417277
O5	O	0.825968	-0.015550	-0.058608
O6	O	1.325968	0.484450	0.441392
O7	O	0.816649	0.347806	-0.104205
O8	O	1.316649	0.847806	0.395795
O9	O	0.825950	-0.015559	0.062493
O10	O	1.325950	0.484441	0.562493
O11	O	0.720228	0.176622	0.038377
O12	O	1.220228	0.676622	0.538377
O13	O	0.922353	0.155615	0.041011
O14	O	1.422353	0.655615	0.541011
Zn15	Zn	0.821288	0.166117	0.058922
Zn16	Zn	1.321288	0.666117	0.558922
Zn17	Zn	0.821311	0.166130	-0.100633
Zn18	Zn	1.321311	0.666130	0.399367
O19	O	0.816631	0.347796	0.016896
O20	O	1.316631	0.847796	0.516896
C21	C	0.694356	0.175952	-0.022088
C22	C	1.194356	0.675952	0.477912
C23	C	0.617239	0.173927	-0.021833
C24	C	1.117239	0.673927	0.478167
C25	C	0.825279	-0.062040	0.007775
C26	C	1.325279	0.437960	0.507775
C27	C	0.823247	-0.200555	0.025152
C28	C	1.323247	0.299445	0.525152
C29	C	0.053845	0.272990	-0.034266
C30	C	0.553845	0.772990	0.465734
C31	C	0.126304	0.274904	-0.034510
C32	C	0.626304	0.774904	0.465490
C33	C	0.170275	0.162141	-0.020358
C34	C	0.670275	0.662141	0.479642
C35	C	0.141782	0.047456	-0.005979
C36	C	0.641782	0.547456	0.494021
C37	C	0.069324	0.045545	-0.005743
C38	C	0.569324	0.545545	0.494257
C39	C	0.290990	0.078039	0.032625
C40	C	0.790990	0.578039	0.532625
C41	C	0.363447	0.079955	0.032393
C42	C	0.863447	0.579955	0.532393
C43	C	0.393759	0.168029	-0.021089
C44	C	0.893759	0.668029	0.478911
C45	C	0.351606	0.254209	-0.074332
C46	C	0.851606	0.754209	0.425668
C47	C	0.279148	0.252298	-0.074096
C48	C	0.779148	0.752298	0.425904
C49	C	0.248844	0.164200	-0.020613
C50	C	0.748844	0.664200	0.479387
C51	C	0.500813	0.284782	-0.035736
C52	C	1.000813	0.784782	0.464264
C53	C	0.573273	0.286691	-0.035984
C54	C	1.073273	0.786691	0.464016
C55	C	0.588750	0.059239	-0.007446
C56	C	1.088750	0.559239	0.492554
C57	C	0.516291	0.057334	-0.007206
C58	C	1.016291	0.557334	0.492794
C59	C	0.472326	0.170109	-0.021348
C60	C	0.972326	0.670109	0.478652
C61	C	0.822350	-0.262297	-0.029835
C62	C	1.322350	0.237703	0.470165
C63	C	0.820249	-0.405459	-0.011876
C64	C	1.320249	0.094541	0.488124
C65	C	0.948243	0.156295	-0.019625
C66	C	1.448243	0.656295	0.480375
C67	C	1.025360	0.158320	-0.019885
C68	C	1.525360	0.658320	0.480115
C69	C	0.817320	0.394287	-0.049488
C70	C	1.317320	0.894287	0.450512
C71	C	0.819352	0.532801	-0.066870
C72	C	1.319352	1.032801	0.433130
N73	N	0.821276	0.166108	0.167814
N74	N	1.321276	0.666108	0.667814
N75	N	0.821328	0.166129	-0.209525
N76	N	1.321328	0.666129	0.290475
C77	C	0.868105	0.081052	0.216588
C78	C	1.368105	0.581052	0.716588
C79	C	0.868110	0.081046	0.292816
C80	C	1.368110	0.581046	0.792816
C81	C	0.821292	0.166118	0.320265
C82	C	1.321292	0.666118	0.820265
C83	C	0.774454	0.251181	0.271482
C84	C	1.274454	0.751181	0.771482
C85	C	0.774446	0.251176	0.195256
C86	C	1.274446	0.751176	0.695256
C87	C	0.812735	0.279813	0.426758
C88	C	1.312735	0.779813	0.926758
C89	C	0.812748	0.279820	0.502982
C90	C	1.312748	0.779820	1.002982
C91	C	0.821312	0.166134	0.555371
C92	C	1.321312	0.666134	1.055371
C93	C	0.829877	0.052436	0.531527
C94	C	1.329877	0.552436	1.031527
C95	C	0.829870	0.052431	0.455301
C96	C	1.329870	0.552431	0.955301
C97	C	0.821295	0.166133	0.402918
C98	C	1.321295	0.666133	0.902918
C99	C	0.868148	0.081065	0.686801
C100	C	1.368148	0.581065	1.186801
C101	C	0.868147	0.081058	0.763031
C102	C	1.368147	0.581058	1.263031
C103	C	0.774495	0.251203	0.741694
C104	C	1.274495	0.751203	1.241694
C105	C	0.774492	0.251199	0.665467
C106	C	1.274492	0.751199	1.165467
C107	C	0.821322	0.166132	0.638025
C108	C	1.321322	0.666132	1.138025
H109	H	0.018053	0.364820	-0.045785
H110	H	0.518053	0.864820	0.454215
Cl111	Cl	0.822025	-0.282565	0.118365
Cl112	Cl	1.322025	0.217435	0.618365
H113	H	0.823134	-0.209170	-0.090207
H114	H	1.323134	0.290830	0.409793
H115	H	0.736311	0.320440	0.155543
H116	H	1.236311	0.820440	0.655543
Cl117	Cl	0.820541	-0.385188	-0.160089
Cl118	Cl	1.320541	0.114812	0.339911
Cl119	Cl	0.819028	-0.487465	0.081341
Cl120	Cl	1.319028	0.012535	0.581341
H121	H	0.805750	0.372396	0.384107
H122	H	1.305750	0.872396	0.884107
H123	H	0.906235	0.011782	0.194247
H124	H	1.406235	0.511782	0.694247
Cl125	Cl	0.926987	-0.025890	0.354141
Cl126	Cl	1.426987	0.474110	0.854141
H127	H	0.836842	-0.040146	0.435891
H128	H	1.336842	0.459854	0.935891
Cl129	Cl	0.715594	0.358124	0.305988
Cl130	Cl	1.215594	0.858124	0.805988
H131	H	0.906278	0.011794	0.664458
H132	H	1.406278	0.511794	1.164458
Cl133	Cl	0.162123	0.419072	-0.052587
Cl134	Cl	0.662123	0.919072	0.447413
Cl135	Cl	0.197059	-0.094304	0.011809
Cl136	Cl	0.697059	0.405696	0.511809
Cl137	Cl	0.226158	0.360626	-0.141030
Cl138	Cl	0.726158	0.860626	0.358970
Cl139	Cl	0.389704	0.364950	-0.141565
Cl140	Cl	0.889704	0.864950	0.358435
Cl141	Cl	0.252895	-0.032755	0.099832
Cl142	Cl	0.752895	0.467245	0.599832
H143	H	0.465015	0.376610	-0.047253
H144	H	0.965015	0.876610	0.452747
H145	H	0.596464	0.380073	-0.047701
H146	H	1.096464	0.880073	0.452299
H147	H	0.624551	-0.032574	0.004071
H148	H	1.124551	0.467426	0.504071
H149	H	0.836851	-0.040138	0.574181
H150	H	1.336851	0.459862	1.074181
Cl151	Cl	0.480478	-0.086832	0.010871
Cl152	Cl	0.980478	0.413168	0.510871
Cl153	Cl	0.927019	-0.025886	0.824352
Cl154	Cl	1.427019	0.474114	1.324352
H155	H	0.397762	0.009788	0.075750
H156	H	0.897762	0.509788	0.575750
H157	H	0.046133	-0.047836	0.005968
H158	H	0.546133	0.452164	0.505968
H159	H	0.736372	0.320465	0.764043
H160	H	1.236372	0.820465	1.264043
Cl161	Cl	0.715622	0.358138	0.604146
Cl162	Cl	1.215622	0.858138	1.104146
H163	H	0.805777	0.372399	0.522390
H164	H	1.305777	0.872399	1.022390
