data_functionalizedCrystal
_audit_creation_method	'MofGen! by Chris Wilmer'
_symmetry_space_group_name_H-M	'P1'
_symmetry_Int_Tables_number	1
_symmetry_cell_setting	triclinic
loop_
_symmetry_equiv_pos_as_xyz
  x,y,z
_cell_length_a	12.759401
_cell_length_b	19.805405
_cell_length_c	12.759393
_cell_angle_alpha	89.963446
_cell_angle_beta	89.980324
_cell_angle_gamma	90.026837
loop_
_atom_site_label
_atom_site_type_symbol
_atom_site_fract_x
_atom_site_fract_y
_atom_site_fract_z
Zn1	Zn	1.606181	-0.269423	-0.593940
Zn2	Zn	2.106181	0.230577	-0.093940
Zn3	Zn	1.606036	-0.382625	-0.418242
Zn4	Zn	2.106036	0.117375	0.081758
Zn5	Zn	1.430480	-0.269457	-0.418280
Zn6	Zn	1.930480	0.230543	0.081720
Zn7	Zn	1.430436	-0.382576	-0.593883
Zn8	Zn	1.930436	0.117424	-0.093883
O9	O	1.518283	-0.326020	-0.506086
O10	O	2.018283	0.173980	-0.006086
O11	O	1.753183	-0.284446	-0.570642
O12	O	2.253183	0.215554	-0.070642
O13	O	1.582706	-0.367648	-0.271226
O14	O	2.082706	0.132352	0.228774
O15	O	1.453866	-0.174736	-0.441621
O16	O	1.953866	0.325264	0.058379
O17	O	1.753076	-0.367615	-0.441557
O18	O	2.253076	0.132385	0.058443
O19	O	1.582953	-0.174711	-0.570678
O20	O	2.082953	0.325289	-0.070678
O21	O	1.453725	-0.284504	-0.271253
O22	O	1.953725	0.215496	0.228747
O23	O	1.283453	-0.284456	-0.441565
O24	O	1.783453	0.215544	0.058435
O25	O	1.453791	-0.367531	-0.740912
O26	O	1.953791	0.132469	-0.240912
O27	O	1.283420	-0.367564	-0.570581
O28	O	1.783420	0.132436	-0.070581
O29	O	1.582910	-0.284398	-0.740954
O30	O	2.082910	0.215602	-0.240954
O31	O	1.582663	-0.477335	-0.441501
O32	O	2.082663	0.022665	0.058499
O33	O	1.453650	-0.477299	-0.570544
O34	O	1.953650	0.022701	-0.070544
C35	C	1.245316	-0.326009	-0.506071
C36	C	1.745316	0.173991	-0.006071
C37	C	1.128539	-0.326020	-0.506090
C38	C	1.628539	0.173980	-0.006090
C39	C	1.073733	-0.282792	-0.573408
C40	C	1.573733	0.217208	-0.073408
C41	C	0.964009	-0.282799	-0.573415
C42	C	1.464009	0.217201	-0.073415
C43	C	0.963907	-0.369268	-0.438783
C44	C	1.463907	0.130732	0.061217
C45	C	1.073629	-0.369257	-0.438771
C46	C	1.573629	0.130743	0.061229
C47	C	1.518165	-0.501876	-0.506035
C48	C	2.018165	-0.001876	-0.006035
C49	C	1.518210	-0.577108	-0.506049
C50	C	2.018210	-0.077108	-0.006049
C51	C	1.585453	-0.612449	-0.438927
C52	C	2.085453	-0.112449	0.061073
C53	C	1.585497	-0.683137	-0.438950
C54	C	2.085497	-0.183137	0.061050
C55	C	1.518293	-0.718484	-0.506091
C56	C	2.018293	-0.218484	-0.006091
C57	C	1.451048	-0.683138	-0.573220
C58	C	1.951048	-0.183138	-0.073220
C59	C	1.451010	-0.612451	-0.573202
C60	C	1.951010	-0.112451	-0.073202
C61	C	1.451203	-0.968211	-0.573298
C62	C	1.951203	-0.468211	-0.073298
C63	C	1.451245	-1.038904	-0.573310
C64	C	1.951245	-0.538904	-0.073310
C65	C	1.585691	-1.038898	-0.439046
C66	C	2.085691	-0.538898	0.060954
C67	C	1.585652	-0.968210	-0.439028
C68	C	2.085652	-0.468210	0.060972
C69	C	1.518411	-0.932871	-0.506161
C70	C	2.018411	-0.432871	-0.006161
C71	C	1.518365	-0.856223	-0.506136
C72	C	2.018365	-0.356223	-0.006136
C73	C	1.518334	-0.795131	-0.506111
C74	C	2.018334	-0.295131	-0.006111
C75	C	1.792316	-0.326032	-0.506102
C76	C	2.292316	0.173968	-0.006102
C77	C	1.909093	-0.326038	-0.506108
C78	C	2.409093	0.173962	-0.006108
C79	C	1.518362	-0.325955	-0.780120
C80	C	2.018362	0.174045	-0.280120
C81	C	1.518395	-0.325928	-0.896896
C82	C	2.018395	0.174072	-0.396896
C83	C	1.518430	-0.149477	-0.506160
C84	C	2.018430	0.350523	-0.006160
C85	C	1.518493	-0.074245	-0.506192
C86	C	2.018493	0.425755	-0.006192
C87	C	1.585633	-0.282633	-0.951782
C88	C	2.085633	0.217367	-0.451782
C89	C	1.585650	-0.282604	-1.061506
C90	C	2.085650	0.217396	-0.561506
C91	C	1.451190	-0.369169	-1.061450
C92	C	1.951190	0.130831	-0.561450
C93	C	1.451168	-0.369195	-0.951727
C94	C	1.951168	0.130805	-0.451727
C95	C	1.518265	-0.326036	-0.233119
C96	C	2.018265	0.173964	0.266881
C97	C	1.518435	-0.325873	-0.116343
C98	C	2.018435	0.174127	0.383657
H99	H	0.919185	-0.404470	-0.383975
H100	H	1.419185	0.095530	0.116025
C101	C	1.377045	-0.573576	-0.647038
C102	C	1.877045	-0.073576	-0.147038
H103	H	1.337021	-0.604750	-0.687022
H104	H	1.837021	-0.104750	-0.187022
H105	H	1.417200	-0.545958	-0.692840
H106	H	1.917200	-0.045958	-0.192840
H107	H	1.331269	-0.546045	-0.606800
H108	H	1.831269	-0.046045	-0.106800
H109	H	1.118253	-0.404459	-0.383947
H110	H	1.618253	0.095541	0.116053
C111	C	1.659565	-0.235033	-0.891471
C112	C	2.159565	0.264967	-0.391471
H113	H	1.699603	-0.209239	-0.939878
H114	H	2.199603	0.290761	-0.439878
H115	H	1.705315	-0.260932	-0.848660
H116	H	2.205315	0.239068	-0.348660
H117	H	1.619380	-0.205548	-0.848681
H118	H	2.119380	0.294452	-0.348681
H119	H	1.396451	-0.939444	-0.627958
H120	H	1.896451	-0.439444	-0.127958
C121	C	1.377326	-1.077784	-0.647177
C122	C	1.877326	-0.577784	-0.147177
H123	H	1.337282	-1.046614	-0.687165
H124	H	1.837282	-0.546614	-0.187165
H125	H	1.331582	-1.105404	-0.606960
H126	H	1.831582	-0.605404	-0.106960
H127	H	1.417523	-1.105313	-0.692991
H128	H	1.917523	-0.605313	-0.192991
C129	C	1.377123	-0.722017	-0.647072
C130	C	1.877123	-0.222017	-0.147072
H131	H	1.386767	-0.769178	-0.637462
H132	H	1.886767	-0.269178	-0.137462
H133	H	1.392452	-0.710390	-0.717674
H134	H	1.892452	-0.210390	-0.217674
H135	H	1.306532	-0.710476	-0.631622
H136	H	1.806532	-0.210476	-0.131622
C137	C	1.659616	-0.234983	-1.121876
C138	C	2.159616	0.265017	-0.621876
H139	H	1.699654	-0.209224	-1.073503
H140	H	2.199654	0.290776	-0.573503
H141	H	1.619466	-0.205477	-1.164685
H142	H	2.119466	0.294523	-0.664685
H143	H	1.705381	-0.260874	-1.164673
H144	H	2.205381	0.239126	-0.664673
H145	H	1.396459	-0.404397	-1.106106
H146	H	1.896459	0.095603	-0.606106
C147	C	1.134136	-0.235231	-0.647447
C148	C	1.634136	0.264769	-0.147447
H149	H	1.207333	-0.241419	-0.637809
H150	H	1.707333	0.258581	-0.137809
H151	H	1.116171	-0.189744	-0.632205
H152	H	1.616171	0.310256	-0.132205
H153	H	1.116178	-0.245198	-0.718014
H154	H	1.616178	0.254802	-0.218014
C155	C	0.903727	-0.235251	-0.647470
C156	C	1.403727	0.264749	-0.147470
H157	H	0.952147	-0.209505	-0.687564
H158	H	1.452147	0.290495	-0.187564
H159	H	0.860921	-0.205730	-0.607375
H160	H	1.360921	0.294270	-0.107375
H161	H	0.860933	-0.261188	-0.693179
H162	H	1.360933	0.238812	-0.193179
H163	H	1.396408	-0.404450	-0.907038
H164	H	1.896408	0.095550	-0.407038
H165	H	1.640252	-0.711908	-0.384291
H166	H	2.140252	-0.211908	0.115709
C167	C	1.659369	-0.573571	-0.365065
C168	C	2.159369	-0.073571	0.134935
H169	H	1.649709	-0.526410	-0.374656
H170	H	2.149709	-0.026410	0.125344
H171	H	1.729959	-0.585108	-0.380499
H172	H	2.229959	-0.085108	0.119501
H173	H	1.644023	-0.585203	-0.294463
H174	H	2.144023	-0.085203	0.205537
C175	C	1.659579	-0.929333	-0.365177
C176	C	2.159579	-0.429333	0.134823
H177	H	1.699641	-0.960505	-0.325210
H178	H	2.199641	-0.460505	0.174790
H179	H	1.619403	-0.901801	-0.319357
H180	H	2.119403	-0.401801	0.180643
H181	H	1.705322	-0.901715	-0.405411
H182	H	2.205322	-0.401715	0.094589
H183	H	1.640446	-1.067679	-0.384387
H184	H	2.140446	-0.567679	0.115613
