data_functionalizedCrystal
_audit_creation_method	'MofGen! by Chris Wilmer'
_symmetry_space_group_name_H-M	'P1'
_symmetry_Int_Tables_number	1
_symmetry_cell_setting	triclinic
loop_
_symmetry_equiv_pos_as_xyz
  x,y,z
_cell_length_a	6.817900
_cell_length_b	11.102188
_cell_length_c	16.015572
_cell_angle_alpha	76.744489
_cell_angle_beta	104.485554
_cell_angle_gamma	108.603875
loop_
_atom_site_label
_atom_site_type_symbol
_atom_site_fract_x
_atom_site_fract_y
_atom_site_fract_z
V1	V	-3.999218	-0.051261	-0.269393
O2	O	-3.960398	0.130656	-0.264265
O3	O	-3.976753	-0.224933	-0.267551
O4	O	-3.927020	0.005776	-0.386885
O5	O	-4.010476	-0.101650	-0.144105
V6	V	-4.482569	-0.036148	-0.254407
O7	O	-4.260853	-0.084413	-0.302265
O8	O	-4.671130	-0.002996	-0.221536
O9	O	-4.281826	0.137524	-0.256250
O10	O	-4.638785	-0.218065	-0.259536
O11	O	-4.588707	0.014242	-0.379696
O12	O	-4.331560	-0.093185	-0.136916
C13	C	-3.828834	-0.269028	-0.263301
C14	C	-3.891595	-0.410645	-0.262578
C15	C	-3.893896	-0.495618	-0.183115
C16	C	-3.952889	-0.628682	-0.182438
C17	C	-4.007269	-0.591787	-0.340695
C18	C	-3.948291	-0.458726	-0.341371
C19	C	-3.765392	0.025266	-0.415522
C20	C	-3.787818	0.070751	-0.511572
C21	C	-4.136743	-0.332975	-0.889205
C22	C	-4.157813	-0.290193	-0.979454
C23	C	-4.047772	-0.068856	-0.954747
C24	C	-4.026681	-0.111619	-0.864494
C25	C	-4.071173	-0.243680	-0.831730
C26	C	-3.961112	-0.022324	-0.807019
C27	C	-3.940034	-0.065084	-0.716774
C28	C	-3.984527	-0.197139	-0.684003
C29	C	-4.050096	-0.286440	-0.741485
C30	C	-3.916635	0.109736	-0.839785
C31	C	-3.851065	0.199031	-0.782310
C32	C	-3.829972	0.156271	-0.692063
C33	C	-3.874465	0.024216	-0.659292
C34	C	-3.764403	0.245572	-0.634581
C35	C	-3.743326	0.202812	-0.544335
C36	C	-3.853387	-0.018544	-0.569047
C37	C	-4.093090	0.181611	-0.260497
C38	C	-4.009566	0.323230	-0.261226
C39	C	-4.156531	-0.112681	-0.108274
C40	C	-4.113344	-0.158160	-0.012223
H41	H	-4.053434	-0.630952	-0.404846
N42	N	-3.945815	-0.367065	-0.427082
H43	H	-3.990665	-0.417712	-0.476894
H44	H	-3.798611	-0.308009	-0.427877
N45	N	-4.228535	-0.386518	-1.041443
H46	H	-4.115848	-0.370783	-1.076451
H47	H	-4.363659	-0.376593	-1.082366
H48	H	-3.954760	-0.697862	-0.117732
H49	H	-3.889590	-0.126080	-0.542369
N50	N	-3.999795	0.073575	-0.990088
H51	H	-4.023098	0.087117	-1.055979
H52	H	-3.848183	0.117357	-0.965932
H53	H	-3.967368	-0.231953	-0.610519
N54	N	-3.832770	-0.443743	-0.098140
H55	H	-3.683171	-0.386317	-0.091963
H56	H	-3.843309	-0.517831	-0.047745
N57	N	-4.098035	-0.428876	-0.706136
H58	H	-4.142757	-0.478962	-0.756238
H59	H	-4.215579	-0.454380	-0.672216
N60	N	-3.716414	0.388002	-0.669927
H61	H	-3.671673	0.438084	-0.619821
H62	H	-3.846662	0.407632	-0.709816
H63	H	-4.172946	-0.440511	-0.862527
H64	H	-3.933769	0.144548	-0.913268
N65	N	-3.803089	0.341462	-0.817650
H66	H	-3.826392	0.355003	-0.883542
H67	H	-3.651477	0.385244	-0.793495
N68	N	-3.672615	0.299115	-0.482338
H69	H	-3.647623	0.389263	-0.516787
H70	H	-3.537582	0.289122	-0.441367
