data_functionalizedCrystal
_audit_creation_method	'MofGen! by Chris Wilmer'
_symmetry_space_group_name_H-M	'P1'
_symmetry_Int_Tables_number	1
_symmetry_cell_setting	triclinic
loop_
_symmetry_equiv_pos_as_xyz
  x,y,z
_cell_length_a	19.805407
_cell_length_b	12.759393
_cell_length_c	19.805405
_cell_angle_alpha	90.037833
_cell_angle_beta	89.976273
_cell_angle_gamma	89.980254
loop_
_atom_site_label
_atom_site_type_symbol
_atom_site_fract_x
_atom_site_fract_y
_atom_site_fract_z
Zn1	Zn	1.034749	-0.594003	0.269470
Zn2	Zn	1.534749	-0.094003	0.769470
Zn3	Zn	1.034660	-0.418305	0.382676
Zn4	Zn	1.534660	0.081695	0.882676
Zn5	Zn	0.921559	-0.418335	0.269501
Zn6	Zn	1.421559	0.081665	0.769501
Zn7	Zn	0.921527	-0.593939	0.382617
Zn8	Zn	1.421527	-0.093939	0.882617
O9	O	0.978124	-0.506146	0.326066
O10	O	1.478124	-0.006146	0.826066
O11	O	1.129453	-0.570711	0.284499
O12	O	1.629453	-0.070711	0.784499
O13	O	1.019633	-0.271288	0.367700
O14	O	1.519633	0.228712	0.867700
O15	O	0.936625	-0.441678	0.174780
O16	O	1.436625	0.058322	0.674780
O17	O	1.129388	-0.441626	0.367670
O18	O	1.629388	0.058374	0.867670
O19	O	1.019785	-0.570740	0.174758
O20	O	1.519785	-0.070740	0.674758
O21	O	0.936539	-0.271310	0.284550
O22	O	1.436539	0.228690	0.784550
O23	O	0.826839	-0.441616	0.284494
O24	O	1.326839	0.058384	0.784494
O25	O	0.936570	-0.740969	0.367571
O26	O	1.436570	-0.240969	0.867571
O27	O	0.826815	-0.570631	0.367601
O28	O	1.326815	-0.070631	0.867601
O29	O	1.019753	-0.741016	0.284443
O30	O	1.519753	-0.241016	0.784443
O31	O	1.019601	-0.441563	0.477384
O32	O	1.519601	0.058437	0.977384
O33	O	0.936483	-0.570601	0.477342
O34	O	1.436483	-0.070601	0.977342
C35	C	0.802268	-0.506120	0.326045
C36	C	1.302268	-0.006120	0.826045
C37	C	0.727036	-0.506134	0.326052
C38	C	1.227036	-0.006134	0.826052
C39	C	0.691726	-0.573451	0.282821
C40	C	1.191726	-0.073451	0.782821
C41	C	0.621038	-0.573455	0.282825
C42	C	1.121038	-0.073455	0.782825
C43	C	0.585660	-0.506147	0.326063
C44	C	1.085660	-0.006147	0.826063
C45	C	0.620974	-0.438823	0.369296
C46	C	1.120974	0.061177	0.869296
C47	C	0.691662	-0.438814	0.369288
C48	C	1.191662	0.061186	0.869288
C49	C	0.335901	-0.438855	0.369326
C50	C	0.835901	0.061145	0.869326
C51	C	0.265209	-0.438871	0.369332
C52	C	0.765209	0.061129	0.869332
C53	C	0.265277	-0.573496	0.282863
C54	C	0.765277	-0.073496	0.782863
C55	C	0.335964	-0.573487	0.282855
C56	C	0.835964	-0.073487	0.782855
C57	C	0.371273	-0.506160	0.326085
C58	C	0.871273	-0.006160	0.826085
C59	C	0.447921	-0.506155	0.326080
C60	C	0.947921	-0.006155	0.826080
C61	C	0.509013	-0.506156	0.326072
C62	C	1.009013	-0.006156	0.826072
C63	C	0.978168	-0.780179	0.325997
C64	C	1.478168	-0.280179	0.825997
C65	C	0.978186	-0.896956	0.325968
C66	C	1.478186	-0.396956	0.825968
C67	C	0.934938	-0.951836	0.282664
C68	C	1.434938	-0.451836	0.782664
C69	C	0.934958	-1.061560	0.282644
C70	C	1.434958	-0.561560	0.782644
C71	C	1.021482	-1.061515	0.369233
C72	C	1.521482	-0.561515	0.869233
C73	C	1.021458	-0.951793	0.369256
C74	C	1.521458	-0.451793	0.869256
C75	C	0.891666	-0.896999	0.239376
C76	C	1.391666	-0.396999	0.739376
C77	C	0.848414	-0.951879	0.196068
C78	C	1.348414	-0.451879	0.696068
C79	C	0.848435	-1.061603	0.196048
C80	C	1.348435	-0.561603	0.696048
C81	C	0.891707	-1.116447	0.239335
C82	C	1.391707	-0.616447	0.739335
C83	C	1.154666	-0.506172	0.326088
C84	C	1.654666	-0.006172	0.826088
C85	C	1.229898	-0.506183	0.326097
C86	C	1.729898	-0.006183	0.826097
C87	C	0.978047	-0.506095	0.501922
C88	C	1.478047	-0.006095	1.001922
C89	C	0.978077	-0.506108	0.577154
C90	C	1.478077	-0.006108	1.077154
C91	C	0.978119	-0.233178	0.326086
C92	C	1.478119	0.266822	0.826086
C93	C	0.978231	-0.116402	0.325925
C94	C	1.478231	0.383598	0.825925
C95	C	0.978219	-0.506220	0.149523
C96	C	1.478219	-0.006220	0.649523
C97	C	0.978259	-0.506251	0.074291
C98	C	1.478259	-0.006251	0.574291
C99	C	1.021398	-0.438989	0.612498
C100	C	1.521398	0.061011	1.112498
C101	C	1.021427	-0.439012	0.683186
C102	C	1.521427	0.060988	1.183186
C103	C	0.978130	-0.506150	0.718530
C104	C	1.478130	-0.006150	1.218530
C105	C	0.934807	-0.573277	0.683181
C106	C	1.434807	-0.073277	1.183181
C107	C	0.934782	-0.573258	0.612494
C108	C	1.434782	-0.073258	1.112494
C109	C	0.934907	-0.573355	0.968254
C110	C	1.434907	-0.073355	1.468254
C111	C	0.934933	-0.573366	1.038946
C112	C	1.434933	-0.073366	1.538946
C113	C	1.021552	-0.439108	1.038947
C114	C	1.521552	0.060892	1.538947
C115	C	1.021527	-0.439090	0.968260
C116	C	1.521527	0.060910	1.468260
C117	C	0.978206	-0.506220	0.932917
C118	C	1.478206	-0.006220	1.432917
C119	C	0.978177	-0.506196	0.856268
C120	C	1.478177	-0.006196	1.356268
C121	C	0.978156	-0.506170	0.795177
C122	C	1.478156	-0.006170	1.295177
H123	H	0.364765	-0.628300	0.247648
H124	H	0.864765	-0.128300	0.747648
C125	C	0.272446	-0.706583	0.197391
C126	C	0.772446	-0.206583	0.697391
C127	C	0.226465	-0.647501	0.235338
C128	C	0.726465	-0.147501	0.735338
H129	H	0.248485	-0.752276	0.168058
H130	H	0.748485	-0.252276	0.668058
H131	H	0.300011	-0.660881	0.171464
H132	H	0.800011	-0.160881	0.671464
H133	H	0.300020	-0.746676	0.226920
H134	H	0.800020	-0.246676	0.726920
H135	H	0.198895	-0.607402	0.205810
H136	H	0.698895	-0.107402	0.705810
H137	H	0.198889	-0.693210	0.261268
H138	H	0.698889	-0.193210	0.761268
C139	C	0.839102	-1.185059	0.104987
C140	C	1.339102	-0.685059	0.604987
C141	C	0.800890	-1.121936	0.148454
C142	C	1.300890	-0.621936	0.648454
H143	H	0.809748	-1.222310	0.075607
H144	H	1.309748	-0.722310	0.575607
H145	H	0.868590	-1.142274	0.079107
H146	H	1.368590	-0.642274	0.579107
H147	H	0.864875	-1.233415	0.130769
H148	H	1.364875	-0.733415	0.630769
H149	H	0.775121	-1.073575	0.122671
H150	H	1.275121	-0.573575	0.622671
H151	H	0.771390	-1.164725	0.174336
H152	H	1.271390	-0.664725	0.674336
H153	H	0.891719	-1.205792	0.239317
H154	H	1.391719	-0.705792	0.739317
H155	H	0.364641	-0.384034	0.404527
H156	H	0.864641	0.115966	0.904527
C157	C	1.059944	-1.229694	0.407635
C158	C	1.559944	-0.729694	0.907635
C159	C	1.069052	-1.121798	0.416805
C160	C	1.569052	-0.621798	0.916805
H161	H	1.089317	-1.266907	0.437001
H162	H	1.589317	-0.766907	0.937001
H163	H	1.014472	-1.247667	0.417536
H164	H	1.514472	-0.747667	0.917536
H165	H	1.069876	-1.247683	0.362152
H166	H	1.569876	-0.747683	0.862152
H167	H	1.059114	-1.103807	0.462287
H168	H	1.559114	-0.603807	0.962287
H169	H	1.114535	-1.103818	0.406909
H170	H	1.614535	-0.603818	0.906909
H171	H	0.899632	-0.628013	0.939483
H172	H	1.399632	-0.128013	1.439483
C173	C	1.106985	-0.962761	0.454845
C174	C	1.606985	-0.462761	0.954845
C175	C	1.068995	-0.891460	0.416858
C176	C	1.568995	-0.391460	0.916858
H177	H	1.136332	-0.925511	0.484232
H178	H	1.636332	-0.425511	0.984232
H179	H	1.077489	-1.005545	0.480717
H180	H	1.577489	-0.505545	0.980717
H181	H	1.132906	-1.005569	0.425345
H182	H	1.632906	-0.505569	0.925345
H183	H	1.043070	-0.848656	0.446358
H184	H	1.543070	-0.348656	0.946358
H185	H	1.098494	-0.848658	0.390984
H186	H	1.598494	-0.348658	0.890984
C187	C	0.925380	-0.714601	0.762613
C188	C	1.425380	-0.214601	1.262613
C189	C	0.887214	-0.647076	0.722031
C190	C	1.387214	-0.147076	1.222031
H191	H	0.895995	-0.760154	0.786599
H192	H	1.395995	-0.260154	1.286599
H193	H	0.954839	-0.754822	0.734994
H194	H	1.454839	-0.254822	1.234994
H195	H	0.951182	-0.674616	0.793777
H196	H	1.451182	-0.174616	1.293777
H197	H	0.861416	-0.687061	0.690864
H198	H	1.361416	-0.187061	1.190864
H199	H	0.857744	-0.606850	0.749652
H200	H	1.357744	-0.106850	1.249652
H201	H	0.813180	-0.907218	0.160828
H202	H	1.313180	-0.407218	0.660828
C203	C	0.800113	-0.633226	0.244416
C204	C	1.300113	-0.133226	0.744416
C205	C	0.730611	-0.647441	0.235293
C206	C	1.230611	-0.147441	0.735293
H207	H	0.824116	-0.678909	0.215075
H208	H	1.324116	-0.178909	0.715075
H209	H	0.811678	-0.562671	0.234455
H210	H	1.311678	-0.062671	0.734455
H211	H	0.811680	-0.648474	0.289906
H212	H	1.311680	-0.148474	0.789906
H213	H	0.719043	-0.632185	0.189805
H214	H	1.219043	-0.132185	0.689805
H215	H	0.719041	-0.718012	0.245250
H216	H	1.219041	-0.218012	0.745250
H217	H	0.891646	-0.807656	0.239386
H218	H	1.391646	-0.307656	0.739386
H219	H	1.056828	-0.384452	1.067731
H220	H	1.556828	0.115548	1.567731
H221	H	1.056653	-0.384312	0.583726
H222	H	1.556653	0.115688	1.083726
H223	H	0.899506	-0.627915	0.583717
H224	H	1.399506	-0.127915	1.083717
C225	C	1.107036	-0.306284	0.676087
C226	C	1.607036	0.193716	1.176087
C227	C	1.069044	-0.365225	0.722036
C228	C	1.569044	0.134775	1.222036
H229	H	1.136430	-0.260726	0.700073
H230	H	1.636430	0.239274	1.200073
H231	H	1.132900	-0.352084	0.648473
H232	H	1.632900	0.147916	1.148473
H233	H	1.077540	-0.266055	0.648560
H234	H	1.577540	0.233945	1.148560
H235	H	1.098540	-0.405461	0.749560
H236	H	1.598540	0.094539	1.249560
H237	H	1.043177	-0.319420	0.749662
H238	H	1.543177	0.180580	1.249662
H239	H	0.236406	-0.384057	0.404543
H240	H	0.736406	0.115943	0.904543
H241	H	0.592164	-0.384014	0.404498
H242	H	1.092164	0.115986	0.904498
C243	C	0.684499	-0.305752	0.454771
C244	C	1.184499	0.194248	0.954771
C245	C	0.730476	-0.364825	0.416814
C246	C	1.230476	0.135175	0.916814
H247	H	0.708462	-0.260077	0.484113
H248	H	1.208462	0.239923	0.984113
H249	H	0.656929	-0.265651	0.425254
H250	H	1.156929	0.234349	0.925254
H251	H	0.656931	-0.351470	0.480696
H252	H	1.156931	0.148530	0.980696
H253	H	0.758041	-0.319107	0.390885
H254	H	1.258041	0.180893	0.890885
H255	H	0.758058	-0.404928	0.446333
H256	H	1.258058	0.095072	0.946333
H257	H	0.592292	-0.628273	0.247623
H258	H	1.092292	-0.128273	0.747623
H259	H	1.056781	-0.384416	0.939485
H260	H	1.556781	0.115584	1.439485
C261	C	0.849318	-0.706105	1.031849
C262	C	1.349318	-0.206105	1.531849
C263	C	0.887344	-0.647180	1.077797
C264	C	1.387344	-0.147180	1.577797
H265	H	0.819943	-0.751675	1.055836
H266	H	1.319943	-0.251675	1.555836
H267	H	0.823430	-0.660295	1.004324
H268	H	1.323430	-0.160295	1.504324
H269	H	0.878793	-0.746321	1.004233
H270	H	1.378793	-0.246321	1.504233
H271	H	0.857868	-0.606958	1.105410
H272	H	1.357868	-0.106958	1.605410
H273	H	0.913234	-0.692995	1.105334
H274	H	1.413234	-0.192995	1.605334
