data_functionalizedCrystal
_audit_creation_method	'MofGen! by Chris Wilmer'
_symmetry_space_group_name_H-M	'P1'
_symmetry_Int_Tables_number	1
_symmetry_cell_setting	triclinic
loop_
_symmetry_equiv_pos_as_xyz
  x,y,z
_cell_length_a	16.120530
_cell_length_b	12.594516
_cell_length_c	16.120297
_cell_angle_alpha	92.877768
_cell_angle_beta	90.128140
_cell_angle_gamma	87.111852
loop_
_atom_site_label
_atom_site_type_symbol
_atom_site_fract_x
_atom_site_fract_y
_atom_site_fract_z
Zn1	Zn	1.247493	-0.539249	-0.534603
Zn2	Zn	1.254461	-0.708692	-0.395557
Zn3	Zn	1.115482	-0.521263	-0.388519
Zn4	Zn	1.108417	-0.707712	-0.527526
O5	O	1.181463	-0.619229	-0.461551
O6	O	1.364785	-0.569664	-0.522065
O7	O	1.241897	-0.676712	-0.278258
O8	O	1.133034	-0.374707	-0.407914
O9	O	1.369904	-0.694153	-0.419909
O10	O	1.230022	-0.387921	-0.515241
O11	O	1.139790	-0.539009	-0.273087
O12	O	0.998178	-0.538058	-0.401052
O13	O	1.120993	-0.692482	-0.644831
O14	O	0.992987	-0.675042	-0.503180
O15	O	1.223172	-0.568713	-0.650030
O16	O	1.235047	-0.857504	-0.413047
O17	O	1.127749	-0.856784	-0.510004
C18	C	0.965410	-0.604493	-0.450585
C19	C	0.872980	-0.598215	-0.445913
C20	C	1.181409	-0.895766	-0.461540
C21	C	1.181461	-1.014076	-0.461567
C22	C	0.703749	-0.586730	-0.437391
C23	C	0.660015	-0.651810	-0.485772
C24	C	0.565849	-0.645420	-0.481031
C25	C	0.797924	-0.593119	-0.442132
C26	C	1.123098	-1.082974	-0.514263
C27	C	1.106686	-1.147787	-0.437359
C28	C	1.197948	-1.160068	-0.538488
C29	C	1.165010	-1.077326	-0.384621
C30	C	1.256305	-1.089606	-0.485803
C31	C	1.239924	-1.154387	-0.408848
C32	C	1.398360	-0.634024	-0.472561
C33	C	1.490789	-0.640328	-0.477253
C34	C	1.170517	-0.632495	-0.678446
C35	C	1.165853	-0.638148	-0.770874
C36	C	1.181539	-0.341615	-0.461582
C37	C	1.181572	-0.223313	-0.461595
C38	C	1.157306	-0.648443	-0.940100
C39	C	1.205784	-0.589708	-0.983863
C40	C	1.201029	-0.595436	-1.078026
C41	C	1.162061	-0.642716	-0.845928
C42	C	1.192414	-0.605942	-0.245502
C43	C	1.197240	-0.600000	-0.153083
H44	H	0.693293	-0.712326	-0.530755
C45	C	1.266686	-0.515969	-0.938952
C46	C	1.259359	-0.395214	-0.950447
C47	C	1.320261	-0.321483	-0.905533
C48	C	1.388491	-0.368507	-0.849124
C49	C	1.395821	-0.489269	-0.837626
C50	C	1.334918	-0.563000	-0.882540
H51	H	1.208848	-0.360398	-0.992207
H52	H	1.314834	-0.232087	-0.914045
H53	H	1.433574	-0.313927	-0.815876
H54	H	1.446331	-0.524085	-0.795866
H55	H	1.340345	-0.652396	-0.874028
H56	H	0.670473	-0.526218	-0.392412
C57	C	1.056319	-1.040604	-0.574366
C58	C	0.964304	-1.061808	-0.560192
C59	C	0.897524	-1.019435	-0.620289
C60	C	0.922760	-0.955857	-0.694560
C61	C	1.014780	-0.934650	-0.708737
C62	C	1.081560	-0.977023	-0.648640
H63	H	0.945618	-1.108875	-0.505209
H64	H	0.829405	-1.035134	-0.609794
H65	H	0.873326	-0.924490	-0.739048
H66	H	1.033465	-0.887583	-0.763720
H67	H	1.149679	-0.961324	-0.659136
H68	H	1.043442	-1.173578	-0.416881
C69	C	1.096426	-0.722192	-0.985019
C70	C	1.129501	-0.811763	-1.046590
C71	C	1.068628	-0.885516	-1.091525
C72	C	0.974679	-0.869698	-1.074887
C73	C	0.941599	-0.780123	-1.013313
C74	C	1.002473	-0.706370	-0.968379
H75	H	1.199052	-0.823477	-1.058909
H76	H	1.093116	-0.951826	-1.137106
H77	H	0.929616	-0.924294	-1.108150
H78	H	0.872048	-0.768409	-1.000994
H79	H	0.977984	-0.640060	-0.922797
C80	C	1.306660	-1.196491	-0.348593
C81	C	1.302014	-1.162044	-0.255633
C82	C	1.368741	-1.204157	-0.195374
C83	C	1.440116	-1.280718	-0.228074
C84	C	1.444765	-1.315170	-0.321038
C85	C	1.378038	-1.273056	-0.381298
H86	H	1.249175	-1.105365	-0.231422
H87	H	1.365299	-1.178654	-0.126555
H88	H	1.489512	-1.311893	-0.183467
H89	H	1.497604	-1.371848	-0.345249
H90	H	1.381480	-1.298560	-0.450116
H91	H	1.151036	-1.041305	-0.319560
H92	H	1.319532	-1.063819	-0.506317
C93	C	1.216733	-1.208898	-0.626350
C94	C	1.158495	-1.181920	-0.699002
C95	C	1.177271	-1.230747	-0.786865
C96	C	1.254286	-1.306551	-0.802076
C97	C	1.312529	-1.333532	-0.729422
C98	C	1.293753	-1.284706	-0.641559
H99	H	1.101479	-1.125802	-0.687744
H100	H	1.134155	-1.210772	-0.840649
H101	H	1.268186	-1.342695	-0.867118
H102	H	1.369545	-1.389651	-0.740680
H103	H	1.336869	-1.304680	-0.587776
