data_functionalizedCrystal
_audit_creation_method	'MofGen! by Chris Wilmer'
_symmetry_space_group_name_H-M	'P1'
_symmetry_Int_Tables_number	1
_symmetry_cell_setting	triclinic
loop_
_symmetry_equiv_pos_as_xyz
  x,y,z
_cell_length_a	14.044220
_cell_length_b	15.944551
_cell_length_c	13.101039
_cell_angle_alpha	93.361595
_cell_angle_beta	86.340132
_cell_angle_gamma	88.343808
loop_
_atom_site_label
_atom_site_type_symbol
_atom_site_fract_x
_atom_site_fract_y
_atom_site_fract_z
O1	O	1.262927	0.198266	-0.085109
O2	O	1.762927	0.698266	0.414891
O3	O	0.986959	0.190957	-0.085135
O4	O	1.486959	0.690957	0.414865
O5	O	1.132479	0.072901	-0.085112
O6	O	1.632479	0.572901	0.414888
O7	O	1.117408	0.316322	-0.085132
O8	O	1.617408	0.816322	0.414868
O9	O	1.122038	0.081387	0.085316
O10	O	1.622038	0.581387	0.585316
O11	O	0.976518	0.199443	0.085293
O12	O	1.476518	0.699443	0.585293
O13	O	1.252486	0.206752	0.085319
O14	O	1.752486	0.706752	0.585319
Zn15	Zn	1.112845	0.204444	0.112365
Zn16	Zn	1.612845	0.704444	0.612365
Zn17	Zn	1.126601	0.193264	-0.112181
Zn18	Zn	1.626601	0.693264	0.387819
O19	O	1.106967	0.324807	0.085296
O20	O	1.606967	0.824807	0.585296
C21	C	0.946424	0.192001	0.000076
C22	C	1.446424	0.692001	0.500076
C23	C	0.841198	0.182459	0.000066
C24	C	1.341198	0.682459	0.500066
C25	C	0.648535	0.165017	0.000088
C26	C	1.148535	0.665017	0.500088
C27	C	0.590906	0.232688	0.000087
C28	C	1.090906	0.732688	0.500087
C29	C	0.483701	0.222982	0.000099
C30	C	0.983701	0.722982	0.500099
C31	C	0.755749	0.174721	0.000076
C32	C	1.255749	0.674721	0.500076
C33	C	1.126633	0.045803	0.000102
C34	C	1.626633	0.545803	0.500102
C35	C	1.124757	-0.047583	0.000102
C36	C	1.624757	0.452417	0.500102
C37	C	1.030074	-0.269531	0.000079
C38	C	1.530074	0.230469	0.500079
C39	C	1.068894	-0.323071	0.084115
C40	C	1.568894	0.176929	0.584115
C41	C	1.121364	-0.218563	0.000094
C42	C	1.621364	0.281437	0.500094
C43	C	1.079209	-0.331419	-0.083914
C44	C	1.579209	0.168581	0.416086
C45	C	1.118080	-0.383723	0.000082
C46	C	1.618080	0.116277	0.500082
C47	C	1.160204	-0.270871	0.084199
C48	C	1.660204	0.229129	0.584199
C49	C	1.170512	-0.279217	-0.083905
C50	C	1.670512	0.220783	0.416095
C51	C	1.209397	-0.332734	0.000151
C52	C	1.709397	0.167266	0.500151
C53	C	1.123253	-0.123419	0.000102
C54	C	1.623253	0.376581	0.500102
C55	C	1.116197	-0.478865	0.000081
C56	C	1.616197	0.021135	0.500081
C57	C	1.293021	0.205707	0.000106
C58	C	1.793021	0.705707	0.500106
C59	C	1.398248	0.215249	0.000108
C60	C	1.898248	0.715249	0.500108
C61	C	1.112813	0.351905	0.000079
C62	C	1.612813	0.851905	0.500079
C63	C	1.114689	0.445291	0.000072
C64	C	1.614689	0.945291	0.500072
N65	N	1.103463	0.212075	0.265612
N66	N	1.603463	0.712075	0.765612
N67	N	1.135990	0.185628	-0.265429
N68	N	1.635990	0.685628	0.234571
C69	C	1.090699	0.222464	0.474653
C70	C	1.590699	0.722464	0.974653
C71	C	1.148750	0.175242	0.525537
C72	C	1.648750	0.675242	1.025537
C73	C	1.141649	0.181022	0.641855
C74	C	1.641649	0.681022	1.141855
C75	C	1.097800	0.216684	0.358325
C76	C	1.597800	0.716684	0.858325
H77	H	0.617361	0.099799	0.000099
H78	H	1.117361	0.599799	0.500099
H79	H	1.285236	-0.360212	0.000205
H80	H	1.785236	0.139788	0.500205
C81	C	1.032455	-0.454995	-0.179279
C82	C	1.532455	0.045005	0.320721
C83	C	1.032942	-0.367216	-0.179821
C84	C	1.532942	0.132784	0.320179
H85	H	1.003881	-0.477089	-0.238481
H86	H	1.503881	0.022911	0.261519
H87	H	1.096149	-0.476729	-0.179387
H88	H	1.596149	0.023271	0.320613
H89	H	0.996988	-0.470695	-0.119605
H90	H	1.496988	0.029305	0.380395
H91	H	1.068415	-0.351516	-0.239491
H92	H	1.568415	0.148484	0.260509
H93	H	0.969237	-0.345474	-0.179722
H94	H	1.469237	0.154526	0.320278
H95	H	1.203784	0.130473	0.481744
H96	H	1.703784	0.630473	0.981744
C97	C	0.874802	-0.254128	0.088283
C98	C	1.374802	0.245872	0.588283
C99	C	0.927778	-0.232212	0.000179
C100	C	1.427778	0.267788	0.500179
H101	H	0.811654	-0.231083	0.088349
H102	H	1.311654	0.268917	0.588349
H103	H	0.872874	-0.313595	0.088885
H104	H	1.372874	0.186405	0.588885
H105	H	0.903946	-0.232556	0.147368
H106	H	1.403946	0.267444	0.647368
H107	H	0.898638	-0.253790	-0.058907
H108	H	1.398638	0.246210	0.441093
H109	H	0.929702	-0.172733	-0.000432
H110	H	1.429702	0.327267	0.499568
H111	H	1.025929	-0.342534	0.155153
H112	H	1.525929	0.157466	0.655153
H113	H	1.035671	0.267230	0.518441
H114	H	1.535671	0.767230	1.018441
C115	C	1.185908	-0.283495	-0.267725
C116	C	1.685908	0.216505	0.232275
C117	C	1.228466	-0.252905	-0.179806
C118	C	1.728466	0.247095	0.320194
H119	H	1.221680	-0.267244	-0.326934
H120	H	1.721680	0.232756	0.173066
H121	H	1.184661	-0.343066	-0.268755
H122	H	1.684661	0.156934	0.231245
H123	H	1.122525	-0.260907	-0.267116
H124	H	1.622525	0.239093	0.232884
H125	H	1.291847	-0.275498	-0.180411
H126	H	1.791847	0.224502	0.319589
H127	H	1.229724	-0.193322	-0.178776
H128	H	1.729724	0.306678	0.321224
H129	H	1.194427	-0.244450	0.155322
H130	H	1.694427	0.255550	0.655322
C131	C	0.607653	0.360058	-0.087560
C132	C	1.107653	0.860058	0.412440
C133	C	0.632974	0.320743	0.000058
C134	C	1.132974	0.820743	0.500058
H135	H	0.633621	0.414420	-0.087577
H136	H	1.133621	0.914420	0.412423
H137	H	0.632081	0.327442	-0.146974
H138	H	1.132081	0.827442	0.353026
H139	H	0.540082	0.364987	-0.087539
H140	H	1.040082	0.864987	0.412461
H141	H	0.700545	0.315809	0.000033
H142	H	1.200545	0.815809	0.500033
H143	H	0.608550	0.353367	0.059488
H144	H	1.108550	0.853367	0.559488
