data_functionalizedCrystal
_audit_creation_method	'MofGen! by Chris Wilmer'
_symmetry_space_group_name_H-M	'P1'
_symmetry_Int_Tables_number	1
_symmetry_cell_setting	triclinic
loop_
_symmetry_equiv_pos_as_xyz
  x,y,z
_cell_length_a	17.699104
_cell_length_b	17.038272
_cell_length_c	16.776229
_cell_angle_alpha	89.993292
_cell_angle_beta	89.991971
_cell_angle_gamma	87.201537
loop_
_atom_site_label
_atom_site_type_symbol
_atom_site_fract_x
_atom_site_fract_y
_atom_site_fract_z
O1	O	1.010615	0.098939	-0.066305
O2	O	1.510615	0.598939	0.433695
O3	O	0.791089	0.111784	-0.066304
O4	O	1.291089	0.611784	0.433696
O5	O	0.899547	-0.008452	-0.066298
O6	O	1.399547	0.491548	0.433702
O7	O	0.902157	0.219175	-0.066311
O8	O	1.402157	0.719175	0.433689
O9	O	0.899531	-0.008459	0.066278
O10	O	1.399531	0.491541	0.566278
O11	O	0.791073	0.111777	0.066273
O12	O	1.291073	0.611777	0.566273
O13	O	1.010599	0.098932	0.066271
O14	O	1.510599	0.598932	0.566271
Zn15	Zn	0.900834	0.105353	0.087321
Zn16	Zn	1.400834	0.605353	0.587321
Zn17	Zn	0.900855	0.105363	-0.087354
Zn18	Zn	1.400855	0.605363	0.412646
O19	O	0.902141	0.219167	0.066266
O20	O	1.402141	0.719167	0.566266
C21	C	0.762854	0.111317	-0.000015
C22	C	1.262854	0.611317	0.499985
C23	C	0.678744	0.109928	-0.000014
C24	C	1.178744	0.609928	0.499986
C25	C	0.158025	0.172670	-0.000026
C26	C	0.658025	0.672670	0.499974
C27	C	0.237055	0.173971	-0.000028
C28	C	0.737055	0.673971	0.499972
C29	C	0.281002	0.103388	-0.000024
C30	C	0.781002	0.603388	0.499976
C31	C	0.245915	0.031499	-0.000026
C32	C	0.745915	0.531499	0.499974
C33	C	0.166887	0.030200	-0.000029
C34	C	0.666887	0.530200	0.499971
C35	C	0.564628	0.036739	-0.000013
C36	C	1.064628	0.536739	0.499987
C37	C	0.643662	0.038045	-0.000008
C38	C	1.143662	0.538045	0.499992
C39	C	0.634796	0.180510	-0.000013
C40	C	1.134796	0.680510	0.499987
C41	C	0.555768	0.179211	-0.000016
C42	C	1.055768	0.679211	0.499984
C43	C	0.520688	0.107323	-0.000022
C44	C	1.020688	0.607323	0.499978
C45	C	0.434995	0.105914	-0.000021
C46	C	0.934995	0.605914	0.499979
C47	C	0.366694	0.104796	-0.000020
C48	C	0.866694	0.604796	0.499980
C49	C	0.897166	-0.037580	-0.000010
C50	C	1.397166	0.462420	0.499990
C51	C	0.890085	-0.124362	-0.000010
C52	C	1.390085	0.375638	0.499990
C53	C	0.955095	-0.174577	-0.000010
C54	C	1.455095	0.325423	0.499990
C55	C	0.948438	-0.256117	-0.000017
C56	C	1.448438	0.243883	0.499983
C57	C	0.876769	-0.287441	-0.000019
C58	C	1.376769	0.212559	0.499981
C59	C	0.811754	-0.237219	-0.000022
C60	C	1.311754	0.262781	0.499978
C61	C	0.818413	-0.155681	-0.000020
C62	C	1.318413	0.344319	0.499980
C63	C	0.853246	-0.533162	-0.000030
C64	C	1.353246	-0.033162	0.499970
C65	C	0.846593	-0.614707	-0.000030
C66	C	1.346593	-0.114707	0.499970
C67	C	0.983277	-0.633600	-0.000026
C68	C	1.483277	-0.133600	0.499974
C69	C	0.989929	-0.552059	-0.000020
C70	C	1.489929	-0.052059	0.499980
C71	C	0.924914	-0.501844	-0.000027
C72	C	1.424914	-0.001844	0.499973
C73	C	0.869962	-0.370788	-0.000025
C74	C	1.369962	0.129212	0.499975
C75	C	0.931722	-0.418499	-0.000027
C76	C	1.431722	0.081501	0.499973
C77	C	1.038835	0.099398	-0.000019
C78	C	1.538835	0.599398	0.499981
C79	C	1.122944	0.100787	-0.000025
C80	C	1.622944	0.600787	0.499975
C81	C	0.904522	0.248296	-0.000024
C82	C	1.404522	0.748296	0.499976
C83	C	0.911603	0.335078	-0.000029
C84	C	1.411603	0.835078	0.499971
N85	N	0.900825	0.105346	0.206533
N86	N	1.400825	0.605346	0.706533
N87	N	0.900869	0.105364	-0.206565
N88	N	1.400869	0.605364	0.293435
C89	C	0.948867	0.052127	0.248252
C90	C	1.448867	0.552127	0.748252
C91	C	0.948871	0.052126	0.331704
C92	C	1.448871	0.552126	0.831704
C93	C	0.900836	0.105349	0.373436
C94	C	1.400836	0.605349	0.873436
C95	C	0.852789	0.158570	0.331710
C96	C	1.352789	0.658570	0.831710
C97	C	0.852781	0.158566	0.248260
C98	C	1.352781	0.658566	0.748260
C99	C	0.852817	0.158585	0.668257
C100	C	1.352817	0.658585	1.168257
C101	C	0.852830	0.158587	0.751714
C102	C	1.352830	0.658587	1.251714
C103	C	0.948907	0.052146	0.751702
C104	C	1.448907	0.552146	1.251702
C105	C	0.948900	0.052142	0.668252
C106	C	1.448900	0.552142	1.168252
C107	C	0.900850	0.105360	0.626534
C108	C	1.400850	0.605360	1.126534
C109	C	0.900845	0.105359	0.536045
C110	C	1.400845	0.605359	1.036045
C111	C	0.900845	0.105354	0.463922
C112	C	1.400845	0.605354	0.963922
H113	H	0.663367	0.239045	-0.000011
H114	H	1.163367	0.739045	0.499989
H115	H	0.536076	-0.021796	-0.000016
H116	H	1.036076	0.478204	0.499984
H117	H	0.122248	0.230147	-0.000023
H118	H	0.622248	0.730147	0.499977
H119	H	0.788229	-0.640207	-0.000018
H120	H	1.288229	-0.140207	0.499982
O121	O	0.806123	0.210178	0.792341
O122	O	1.306123	0.710178	1.292341
C123	C	0.756744	0.168360	0.840619
C124	C	1.256744	0.668360	1.340619
H125	H	0.782958	0.107152	0.853120
H126	H	1.282958	0.607152	1.353120
H127	H	0.746878	0.201004	0.899302
H128	H	1.246878	0.701004	1.399302
H129	H	0.700468	0.163109	0.808478
H130	H	1.200468	0.663109	1.308478
H131	H	0.519989	0.236687	-0.000015
H132	H	1.019989	0.736687	0.499985
O133	O	0.755207	-0.106978	-0.000126
O134	O	1.255207	0.393022	0.499874
C135	C	0.712026	-0.121134	-0.068800
C136	C	1.212026	0.378866	0.431200
H137	H	0.726626	-0.183021	-0.091689
H138	H	1.226626	0.316979	0.408311
H139	H	0.649276	-0.115280	-0.053360
H140	H	1.149276	0.384720	0.446640
H141	H	0.725256	-0.076549	-0.116880
H142	H	1.225256	0.423451	0.383120
O143	O	0.806016	0.210190	0.372212
O144	O	1.306016	0.710190	0.872212
C145	C	0.730286	0.197580	0.351828
C146	C	1.230286	0.697580	0.851828
H147	H	0.725890	0.134989	0.328897
H148	H	1.225890	0.634989	0.828897
H149	H	0.692891	0.206617	0.406718
H150	H	1.192891	0.706617	0.906718
H151	H	0.710838	0.240937	0.303388
H152	H	1.210838	0.740937	0.803388
H153	H	0.987991	0.008791	0.365672
H154	H	1.487991	0.508791	0.865672
H155	H	0.679442	-0.019436	-0.000006
H156	H	1.179442	0.480564	0.499994
O157	O	1.001354	-0.388112	-0.000167
O158	O	1.501354	0.111888	0.499833
C159	C	1.041326	-0.413788	-0.068817
C160	C	1.541326	0.086212	0.431183
H161	H	0.999520	-0.430676	-0.116811
H162	H	1.499520	0.069324	0.383189
H163	H	1.076701	-0.364443	-0.091863
H164	H	1.576701	0.135557	0.408137
H165	H	1.080077	-0.467005	-0.053290
H166	H	1.580077	0.032995	0.446710
O167	O	0.806197	0.210373	0.207766
O168	O	1.306197	0.710373	0.707766
C169	C	0.823465	0.287749	0.228154
C170	C	1.323465	0.787749	0.728154
H171	H	0.884080	0.288060	0.251078
H172	H	1.384080	0.788060	0.751078
H173	H	0.817278	0.326990	0.173267
H174	H	1.317278	0.826990	0.673267
H175	H	0.783001	0.310764	0.276599
H176	H	1.283001	0.810764	0.776599
H177	H	0.281704	-0.025971	-0.000027
H178	H	0.781704	0.474029	0.499973
O179	O	0.790150	-0.484309	0.000074
O180	O	1.290150	0.015691	0.500074
C181	C	0.789892	-0.436598	0.068745
C182	C	1.289892	0.063402	0.568745
H183	H	0.850222	-0.432587	0.091637
H184	H	1.350222	0.067413	0.591637
H185	H	0.765652	-0.375260	0.053300
H186	H	1.265652	0.124740	0.553300
H187	H	0.753595	-0.463364	0.116826
H188	H	1.253595	0.036636	0.616826
O189	O	0.742094	-0.267551	0.000080
O190	O	1.242094	0.232449	0.500080
C191	C	0.702142	-0.241900	0.068751
C192	C	1.202142	0.258100	0.568751
H193	H	0.726406	-0.185388	0.091644
H194	H	1.226406	0.314612	0.591644
H195	H	0.639853	-0.230463	0.053305
H196	H	1.139853	0.269537	0.553305
H197	H	0.707859	-0.289107	0.116831
H198	H	1.207859	0.210893	0.616831
O199	O	0.995646	0.000408	0.792105
O200	O	1.495646	0.500408	1.292105
C201	C	1.038027	-0.046579	0.737376
C202	C	1.538027	0.453421	1.237376
H203	H	1.040942	-0.014524	0.677886
H204	H	1.540942	0.485476	1.177886
H205	H	1.097696	-0.058583	0.761475
H206	H	1.597696	0.441417	1.261475
H207	H	1.009715	-0.104622	0.728510
H208	H	1.509715	0.395378	1.228510
O209	O	0.132928	-0.039696	0.000007
O210	O	0.632928	0.460304	0.500007
C211	C	0.188661	-0.101716	-0.000008
C212	C	0.688661	0.398284	0.499992
H213	H	0.243692	-0.079910	0.025096
H214	H	0.743692	0.420090	0.525096
H215	H	0.168917	-0.151917	0.038479
H216	H	0.668917	0.348083	0.538479
H217	H	0.198441	-0.123474	-0.063612
H218	H	0.698441	0.376526	0.436388
H219	H	0.811609	-0.396301	-0.000025
H220	H	1.311609	0.103699	0.499975
H221	H	0.265614	0.232505	-0.000036
H222	H	0.765614	0.732505	0.499964
H223	H	1.013455	-0.149080	-0.000003
H224	H	1.513455	0.350920	0.499997
O225	O	1.011666	-0.304785	0.000024
O226	O	1.511666	0.195215	0.500024
C227	C	1.076349	-0.259653	0.000013
C228	C	1.576349	0.240347	0.500013
H229	H	1.061053	-0.198763	0.025113
H230	H	1.561053	0.301237	0.525113
H231	H	1.122214	-0.289824	0.038508
H232	H	1.622214	0.210176	0.538508
H233	H	1.098085	-0.253877	-0.063588
H234	H	1.598085	0.246123	0.436412
H235	H	1.036208	-0.674492	-0.000022
H236	H	1.536208	-0.174492	0.499978
H237	H	1.048289	-0.526562	-0.000018
H238	H	1.548289	-0.026562	0.499982
O239	O	0.995553	0.000351	0.207842
O240	O	1.495553	0.500351	0.707842
C241	C	1.037970	-0.046609	0.262564
C242	C	1.537970	0.453391	0.762564
H243	H	1.006891	-0.047450	0.322058
H244	H	1.506891	0.452550	0.822058
H245	H	1.045496	-0.109057	0.238462
H246	H	1.545496	0.390943	0.738462
H247	H	1.095820	-0.021293	0.271421
H248	H	1.595820	0.478707	0.771421
O249	O	0.995391	0.000295	0.627693
O250	O	1.495391	0.500295	1.127693
C251	C	0.951650	-0.047886	0.579551
C252	C	1.451650	0.452114	1.079551
H253	H	0.894498	-0.016572	0.566997
H254	H	1.394498	0.483428	1.066997
H255	H	0.982416	-0.060478	0.520888
H256	H	1.482416	0.439522	1.020888
H257	H	0.942665	-0.105568	0.611839
H258	H	1.442665	0.394432	1.111839
O259	O	0.806124	0.210359	0.627863
O260	O	1.306124	0.710359	1.127863
C261	C	0.763720	0.257321	0.682594
C262	C	1.263720	0.757321	1.182594
H263	H	0.794813	0.258167	0.742070
H264	H	1.294813	0.758167	1.242070
H265	H	0.756187	0.319768	0.658477
H266	H	1.256187	0.819768	1.158477
H267	H	0.705871	0.232005	0.691492
H268	H	1.205871	0.732005	1.191492
