data_functionalizedCrystal
_audit_creation_method	'MofGen! by Chris Wilmer'
_symmetry_space_group_name_H-M	'P1'
_symmetry_Int_Tables_number	1
_symmetry_cell_setting	triclinic
loop_
_symmetry_equiv_pos_as_xyz
  x,y,z
_cell_length_a	19.188933
_cell_length_b	19.188930
_cell_length_c	16.098538
_cell_angle_alpha	92.708456
_cell_angle_beta	87.271982
_cell_angle_gamma	83.145175
loop_
_atom_site_label
_atom_site_type_symbol
_atom_site_fract_x
_atom_site_fract_y
_atom_site_fract_z
O1	O	0.929279	0.084045	-0.069237
O2	O	1.262612	0.417378	0.264096
O3	O	1.595946	0.750712	0.597429
O4	O	0.725968	0.095777	-0.069246
O5	O	1.059302	0.429111	0.264087
O6	O	1.392635	0.762444	0.597420
O7	O	0.833490	-0.011744	-0.069225
O8	O	1.166823	0.321590	0.264108
O9	O	1.500157	0.654923	0.597441
O10	O	0.821757	0.191566	-0.069258
O11	O	1.155090	0.524899	0.264075
O12	O	1.488424	0.858233	0.597408
O13	O	0.827209	-0.005487	0.069286
O14	O	1.160542	0.327846	0.402620
O15	O	1.493876	0.661179	0.735953
O16	O	0.719687	0.102034	0.069265
O17	O	1.053021	0.435367	0.402599
O18	O	1.386354	0.768700	0.735932
O19	O	0.922998	0.090301	0.069274
O20	O	1.256331	0.423635	0.402608
O21	O	1.589665	0.756968	0.735941
Zn22	Zn	0.820345	0.097161	0.091262
Zn23	Zn	1.153679	0.430494	0.424595
Zn24	Zn	1.487012	0.763828	0.757928
Zn25	Zn	0.828621	0.088918	-0.091234
Zn26	Zn	1.161954	0.422251	0.242100
Zn27	Zn	1.495287	0.755585	0.575433
O28	O	0.815476	0.197822	0.069253
O29	O	1.148810	0.531156	0.402587
O30	O	1.482143	0.864489	0.735920
C31	C	0.696817	0.098525	0.000009
C32	C	1.030150	0.431859	0.333342
C33	C	1.363483	0.765192	0.666675
C34	C	0.619312	0.097384	0.000006
C35	C	0.952646	0.430717	0.333339
C36	C	1.285979	0.764051	0.666673
C37	C	0.069480	0.085829	-0.075487
C38	C	0.402814	0.419162	0.257847
C39	C	0.736147	0.752496	0.591180
C40	C	0.142305	0.086897	-0.075490
C41	C	0.475638	0.420230	0.257843
C42	C	0.808971	0.753564	0.591177
C43	C	0.175298	0.090845	0.000012
C44	C	0.508631	0.424178	0.333346
C45	C	0.841965	0.757511	0.666679
C46	C	0.135463	0.093706	0.075524
C47	C	0.468796	0.427040	0.408857
C48	C	0.802130	0.760373	0.742190
C49	C	0.062641	0.092631	0.075525
C50	C	0.395974	0.425965	0.408858
C51	C	0.729308	0.759298	0.742192
N52	N	0.281770	0.134801	0.056206
N53	N	0.615103	0.468135	0.389539
N54	N	0.948437	0.801468	0.722872
N55	N	0.350948	0.135824	0.056199
N56	N	0.684281	0.469157	0.389533
N57	N	1.017614	0.802490	0.722866
C58	C	0.394707	0.094083	0.000013
C59	C	0.728040	0.427416	0.333347
C60	C	1.061373	0.760749	0.666680
N61	N	0.366674	0.051288	-0.056179
N62	N	0.700007	0.384622	0.277154
N63	N	1.033340	0.717955	0.610488
N64	N	0.297489	0.050269	-0.056175
N65	N	0.630822	0.383602	0.277158
N66	N	0.964156	0.716935	0.610492
C67	C	0.254261	0.092010	0.000019
C68	C	0.587594	0.425344	0.333353
C69	C	0.920928	0.758677	0.666686
C70	C	0.513498	0.092374	-0.075497
C71	C	0.846831	0.425707	0.257836
C72	C	1.180165	0.759040	0.591170
C73	C	0.586324	0.093438	-0.075497
C74	C	0.919657	0.426771	0.257836
C75	C	1.252991	0.760104	0.591169
C76	C	0.579480	0.100254	0.075519
C77	C	0.912813	0.433588	0.408852
C78	C	1.246147	0.766921	0.742185
C79	C	0.506656	0.099183	0.075517
C80	C	0.839990	0.432517	0.408850
C81	C	1.173323	0.765850	0.742183
C82	C	0.473669	0.095246	0.000007
C83	C	0.807003	0.428580	0.333340
C84	C	1.140336	0.761913	0.666673
C85	C	0.829969	-0.034626	0.000033
C86	C	1.163303	0.298707	0.333366
C87	C	1.496636	0.632040	0.666700
C88	C	0.828828	-0.112131	0.000040
C89	C	1.162162	0.221203	0.333373
C90	C	1.495495	0.554536	0.666707
C91	C	0.891919	-0.157054	0.000047
C92	C	1.225252	0.176280	0.333380
C93	C	1.558585	0.509613	0.666713
C94	C	0.890848	-0.229878	0.000033
C95	C	1.224181	0.103455	0.333367
C96	C	1.557514	0.436789	0.666700
C97	C	0.826682	-0.257775	0.000030
C98	C	1.160015	0.075558	0.333363
C99	C	1.493349	0.408891	0.666697
C100	C	0.763583	-0.212842	0.000018
C101	C	1.096917	0.120491	0.333352
C102	C	1.430250	0.453824	0.666685
C103	C	0.764657	-0.140020	0.000024
C104	C	1.097990	0.193313	0.333357
C105	C	1.431323	0.526647	0.666690
N106	N	0.775497	-0.363652	0.047166
N107	N	1.108831	-0.030318	0.380499
N108	N	1.442164	0.303015	0.713833
N109	N	0.774482	-0.432830	0.047163
N110	N	1.107815	-0.099497	0.380496
N111	N	1.441149	0.233836	0.713830
C112	C	0.823445	-0.477185	0.000013
C113	C	1.156778	-0.143851	0.333346
C114	C	1.490111	0.189482	0.666680
N115	N	0.873471	-0.449748	-0.047123
N116	N	1.206804	-0.116415	0.286210
N117	N	1.540138	0.216919	0.619543
N118	N	0.874488	-0.380563	-0.047117
N119	N	1.207822	-0.047230	0.286217
N120	N	1.541155	0.286104	0.619550
C121	C	0.825511	-0.336738	0.000024
C122	C	1.158844	-0.003405	0.333357
C123	C	1.492178	0.329929	0.666691
C124	C	0.885378	-0.601073	0.000004
C125	C	1.218711	-0.267740	0.333337
C126	C	1.552045	0.065594	0.666671
C127	C	0.884305	-0.673899	-0.000015
C128	C	1.217638	-0.340565	0.333319
C129	C	1.550971	-0.007232	0.666652
C130	C	0.757038	-0.656861	-0.000021
C131	C	1.090371	-0.323528	0.333312
C132	C	1.423705	0.009806	0.666646
C133	C	0.758114	-0.584037	-0.000011
C134	C	1.091447	-0.250704	0.333322
C135	C	1.424780	0.082629	0.666656
C136	C	0.822285	-0.556148	0.000006
C137	C	1.155619	-0.222815	0.333339
C138	C	1.488952	0.110519	0.666672
C139	C	0.952149	0.087553	0.000018
C140	C	1.285483	0.420887	0.333351
C141	C	1.618816	0.754220	0.666684
C142	C	1.029654	0.088694	0.000015
C143	C	1.362987	0.422028	0.333348
C144	C	1.696321	0.755361	0.666681
C145	C	0.818997	0.220705	-0.000007
C146	C	1.152330	0.554038	0.333327
C147	C	1.485664	0.887372	0.666660
C148	C	0.820138	0.298209	-0.000019
C149	C	1.153472	0.631542	0.333314
C150	C	1.486805	0.964876	0.666647
N151	N	0.814703	0.102786	0.215810
N152	N	1.148036	0.436119	0.549143
N153	N	1.481370	0.769453	0.882476
N154	N	0.834269	0.083287	-0.215782
N155	N	1.167602	0.416621	0.117552
N156	N	1.500936	0.749954	0.450885
C157	C	0.860356	0.057166	0.259404
C158	C	1.193689	0.390499	0.592737
C159	C	1.527023	0.723833	0.926070
C160	C	0.856415	0.061108	0.346592
C161	C	1.189749	0.394441	0.679925
C162	C	1.523082	0.727774	1.013258
C163	C	0.806824	0.110673	0.390184
C164	C	1.140158	0.444007	0.723518
C165	C	1.473491	0.777340	1.056851
C166	C	0.761166	0.156295	0.346584
C167	C	1.094500	0.489629	0.679918
C168	C	1.427833	0.822962	1.013251
C169	C	0.765104	0.152350	0.259398
C170	C	1.098438	0.485683	0.592731
C171	C	1.431771	0.819017	0.926064
C172	C	0.792549	0.124964	0.653432
C173	C	1.125882	0.458297	0.986765
C174	C	1.459215	0.791631	1.320098
C175	C	0.788616	0.128907	0.740624
C176	C	1.121949	0.462241	1.073958
C177	C	1.455282	0.795574	1.407291
C178	C	0.883864	0.033718	0.740626
C179	C	1.217198	0.367052	1.073959
C180	C	1.550531	0.700385	1.407292
C181	C	0.887801	0.029780	0.653438
C182	C	1.221134	0.363113	0.986771
C183	C	1.554467	0.696447	1.320104
C184	C	0.842140	0.075400	0.609845
C185	C	1.175474	0.408733	0.943178
C186	C	1.508807	0.742066	1.276512
C187	C	0.802796	0.114705	0.479305
C188	C	1.136130	0.448038	0.812638
C189	C	1.469463	0.781372	1.145971
C190	C	0.846165	0.071364	0.520726
C191	C	1.179499	0.404698	0.854060
C192	C	1.512832	0.738031	1.187393
H193	H	0.618751	0.091099	-0.136982
H194	H	0.952084	0.424432	0.196351
H195	H	1.285417	0.757765	0.529685
C196	C	0.960255	-0.279302	0.000046
C197	C	1.293588	0.054031	0.333379
C198	C	1.626921	0.387364	0.666713
N199	N	1.012532	-0.316527	0.000058
N200	N	1.345865	0.016807	0.333392
N201	N	1.679199	0.350140	0.666725
H202	H	0.720785	0.196651	0.382082
H203	H	1.054118	0.529984	0.715416
H204	H	1.387451	0.863317	1.048749
C205	C	0.693000	-0.243531	0.000021
C206	C	1.026334	0.089803	0.333354
C207	C	1.359667	0.423136	0.666687
N208	N	0.639835	-0.266644	0.000022
N209	N	0.973168	0.066689	0.333355
N210	N	1.306502	0.400022	0.666689
H211	H	0.042627	0.082620	-0.136973
H212	H	0.375961	0.415954	0.196360
H213	H	0.709294	0.749287	0.529694
C214	C	0.688708	-0.534619	-0.000014
C215	C	1.022041	-0.201286	0.333320
C216	C	1.355375	0.132047	0.666653
N217	N	0.636428	-0.497398	-0.000019
N218	N	0.969762	-0.164064	0.333314
N219	N	1.303095	0.169269	0.666648
C220	C	0.477211	0.088034	-0.158559
C221	C	0.810544	0.421368	0.174774
C222	C	1.143878	0.754701	0.508108
N223	N	0.449882	0.084765	-0.221122
N224	N	0.783215	0.418098	0.112211
N225	N	1.116548	0.751431	0.445545
C226	C	0.714888	0.202541	0.211445
C227	C	1.048221	0.535875	0.544778
C228	C	1.381554	0.869208	0.878112
N229	N	0.677063	0.240348	0.175328
N230	N	1.010396	0.573681	0.508661
N231	N	1.343730	0.907014	0.841994
C232	C	0.900708	0.016837	0.472772
C233	C	1.234041	0.350171	0.806105
C234	C	1.567375	0.683504	1.139438
N235	N	0.941790	-0.024232	0.436645
N236	N	1.275123	0.309101	0.769978
N237	N	1.608456	0.642434	1.103312
H238	H	0.935683	-0.710476	-0.000014
H239	H	1.269016	-0.377142	0.333320
H240	H	1.602350	-0.043809	0.666653
H241	H	0.762420	0.155063	0.514805
H242	H	1.095753	0.488397	0.848138
H243	H	1.429086	0.821730	1.181472
C244	C	0.186121	0.083752	-0.158551
C245	C	0.519454	0.417086	0.174783
C246	C	0.852788	0.750419	0.508116
N247	N	0.219121	0.081387	-0.221112
N248	N	0.552454	0.414721	0.112221
N249	N	0.885788	0.748054	0.445554
H250	H	0.713279	-0.103443	0.000018
H251	H	1.046612	0.229891	0.333352
H252	H	1.379946	0.563224	0.666685
H253	H	0.162331	0.096919	0.136998
H254	H	0.495664	0.430253	0.470332
H255	H	0.828998	0.763586	0.803665
H256	H	0.606343	0.103466	0.136994
H257	H	0.939676	0.436799	0.470328
H258	H	1.273009	0.770133	0.803661
H259	H	0.474229	0.101519	0.136998
H260	H	0.807562	0.434853	0.470332
H261	H	1.140895	0.768186	0.803665
C262	C	0.942351	-0.024750	0.605492
C263	C	1.275684	0.308584	0.938825
C264	C	1.609018	0.641917	1.272159
N265	N	0.983440	-0.065822	0.569380
N266	N	1.316773	0.267511	0.902713
N267	N	1.650106	0.600845	1.236046
H268	H	0.030214	0.094968	0.137009
H269	H	0.363547	0.428301	0.470343
H270	H	0.696881	0.761634	0.803676
H271	H	0.944173	-0.134351	0.000057
H272	H	1.277506	0.198982	0.333391
H273	H	1.610839	0.532315	0.666724
H274	H	0.921038	-0.003424	0.776127
H275	H	1.254371	0.329909	1.109460
H276	H	1.587705	0.663243	1.442793
C277	C	0.686454	-0.687544	-0.000028
C278	C	1.019788	-0.354210	0.333306
C279	C	1.353121	-0.020877	0.666639
N280	N	0.633289	-0.710657	-0.000035
N281	N	0.966623	-0.377324	0.333299
N282	N	1.299956	-0.043991	0.666632
H283	H	0.937631	-0.578365	0.000014
H284	H	1.270964	-0.245031	0.333347
H285	H	1.604297	0.088302	0.666680
C286	C	0.914910	0.002639	0.211460
C287	C	1.248243	0.335972	0.544793
C288	C	1.581577	0.669306	0.878126
N289	N	0.956000	-0.038434	0.175351
N290	N	1.289333	0.294899	0.508684
N291	N	1.622666	0.628232	0.842017
C292	C	0.734057	0.183434	0.788575
C293	C	1.067391	0.516767	1.121908
C294	C	1.400724	0.850100	1.455241
N295	N	0.692966	0.224501	0.824691
N296	N	1.026300	0.557835	1.158024
N297	N	1.359633	0.891168	1.491357
H298	H	0.893589	0.023960	0.382086
H299	H	1.226922	0.357293	0.715419
H300	H	1.560256	0.690626	1.048752
H301	H	0.755371	0.162111	0.617945
H302	H	1.088705	0.495444	0.951279
H303	H	1.422038	0.828777	1.284612
