data_functionalizedCrystal
_audit_creation_method	'MofGen! by Chris Wilmer'
_symmetry_space_group_name_H-M	'P1'
_symmetry_Int_Tables_number	1
_symmetry_cell_setting	triclinic
loop_
_symmetry_equiv_pos_as_xyz
  x,y,z
_cell_length_a	9.065215
_cell_length_b	15.944493
_cell_length_c	8.140239
_cell_angle_alpha	90.002357
_cell_angle_beta	89.997810
_cell_angle_gamma	84.244871
loop_
_atom_site_label
_atom_site_type_symbol
_atom_site_fract_x
_atom_site_fract_y
_atom_site_fract_z
O1	O	1.957477	0.123152	-0.136570
O2	O	2.290810	0.456485	0.196763
O3	O	2.624143	0.789819	0.530097
O4	O	1.527952	0.133257	-0.136575
O5	O	1.861285	0.466590	0.196758
O6	O	2.194618	0.799924	0.530091
O7	O	1.754488	0.006016	-0.136586
O8	O	2.087821	0.339349	0.196747
O9	O	2.421155	0.672682	0.530081
O10	O	1.730940	0.250394	-0.136559
O11	O	2.064274	0.583727	0.196774
O12	O	2.397607	0.917060	0.530108
O13	O	1.754476	0.006014	0.136641
O14	O	2.087809	0.339347	0.469974
O15	O	2.421142	0.672681	0.803308
O16	O	1.527939	0.133256	0.136652
O17	O	1.861272	0.466589	0.469985
O18	O	2.194606	0.799922	0.803318
O19	O	1.957464	0.123150	0.136657
O20	O	2.290798	0.456484	0.469991
O21	O	2.624131	0.789817	0.803324
Zn22	Zn	1.742700	0.128203	0.180035
Zn23	Zn	2.076033	0.461536	0.513369
Zn24	Zn	2.409366	0.794869	0.846702
Zn25	Zn	1.742716	0.128205	-0.179953
Zn26	Zn	2.076049	0.461538	0.153380
Zn27	Zn	2.409383	0.794871	0.486713
O28	O	1.730928	0.250392	0.136668
O29	O	2.064261	0.583725	0.470001
O30	O	2.397594	0.917059	0.803335
C31	C	1.472982	0.132286	0.000037
C32	C	1.806315	0.465619	0.333371
C33	C	2.139648	0.798952	0.666704
C34	C	1.309207	0.129384	0.000034
C35	C	1.642541	0.462717	0.333367
C36	C	1.975874	0.796050	0.666701
C37	C	1.753519	-0.025287	0.000020
C38	C	2.086853	0.308046	0.333354
C39	C	2.420186	0.641379	0.666687
C40	C	1.750634	-0.118558	-0.000001
C41	C	2.083967	0.214776	0.333333
C42	C	2.417301	0.548109	0.666666
C43	C	1.883979	-0.353308	0.000032
C44	C	2.217312	-0.019975	0.333366
C45	C	2.550645	0.313358	0.666699
C46	C	1.812077	-0.404420	-0.134683
C47	C	2.145410	-0.071087	0.198650
C48	C	2.478744	0.262247	0.531984
C49	C	1.745287	-0.289319	0.000020
C50	C	2.078621	0.044014	0.333353
C51	C	2.411954	0.377347	0.666686
C52	C	1.812032	-0.404398	0.134698
C53	C	2.145366	-0.071064	0.468031
C54	C	2.478699	0.262269	0.801364
C55	C	1.740133	-0.454268	0.000046
C56	C	2.073467	-0.120935	0.333379
C57	C	2.406800	0.212399	0.666713
C58	C	1.673423	-0.339202	-0.134807
C59	C	2.006757	-0.005869	0.198526
C60	C	2.340090	0.327464	0.531860
C61	C	1.673399	-0.339177	0.134695
C62	C	2.006732	-0.005843	0.468028
C63	C	2.340066	0.327490	0.801361
C64	C	1.601396	-0.390256	-0.000054
C65	C	1.934729	-0.056923	0.333280
C66	C	2.268062	0.276410	0.666613
C67	C	1.748261	-0.194297	0.000003
C68	C	2.081594	0.139036	0.333336
C69	C	2.414927	0.472370	0.666670
C70	C	1.737149	-0.549288	0.000051
C71	C	2.070483	-0.215954	0.333384
C72	C	2.403816	0.117379	0.666718
C73	C	2.012434	0.124122	0.000041
C74	C	2.345768	0.457455	0.333374
C75	C	2.679101	0.790789	0.666708
C76	C	2.176208	0.127024	0.000034
C77	C	2.509542	0.460357	0.333367
C78	C	2.842875	0.793691	0.666700
C79	C	1.731896	0.281695	0.000058
C80	C	2.065230	0.615028	0.333391
C81	C	2.398563	0.948362	0.666725
C82	C	1.734782	0.374965	0.000068
C83	C	2.068115	0.708299	0.333401
C84	C	2.401449	1.041632	0.666735
N85	N	1.742699	0.128201	0.425718
N86	N	2.076033	0.461534	0.759051
N87	N	2.409366	0.794868	1.092384
N88	N	1.742728	0.128200	-0.425636
N89	N	2.076062	0.461533	-0.092303
N90	N	2.409395	0.794867	0.241031
H91	H	2.003443	-0.336775	-0.000102
H92	H	2.336777	-0.003442	0.333232
H93	H	2.670110	0.329891	0.666565
H94	H	1.481838	-0.406627	-0.000129
H95	H	1.815171	-0.073294	0.333204
H96	H	2.148505	0.260039	0.666538
H97	H	1.614873	-0.310660	0.248590
H98	H	1.948206	0.022674	0.581924
H99	H	2.281540	0.356007	0.915257
H100	H	1.870653	-0.432922	-0.248575
H101	H	2.203987	-0.099588	0.084759
H102	H	2.537320	0.233745	0.418092
F103	F	1.596921	-0.302115	-0.283835
F104	F	1.930254	0.031218	0.049498
F105	F	2.263588	0.364552	0.382832
F106	F	1.888616	-0.441632	0.283555
F107	F	2.221950	-0.108299	0.616888
F108	F	2.555283	0.225035	0.950221
