data_functionalizedCrystal
_audit_creation_method	'MofGen! by Chris Wilmer'
_symmetry_space_group_name_H-M	'P1'
_symmetry_Int_Tables_number	1
_symmetry_cell_setting	triclinic
loop_
_symmetry_equiv_pos_as_xyz
  x,y,z
_cell_length_a	6.817900
_cell_length_b	9.109307
_cell_length_c	19.453114
_cell_angle_alpha	100.626305
_cell_angle_beta	101.709288
_cell_angle_gamma	111.764999
loop_
_atom_site_label
_atom_site_type_symbol
_atom_site_fract_x
_atom_site_fract_y
_atom_site_fract_z
V1	V	-4.061579	-0.227159	-0.232693
V2	V	-3.561579	0.272841	0.267307
O3	O	-3.992531	0.009170	-0.214277
O4	O	-3.492531	0.509170	0.285723
O5	O	-4.066619	-0.448740	-0.244553
O6	O	-3.566619	0.051260	0.255447
O7	O	-4.003836	-0.224431	-0.328042
O8	O	-3.503836	0.275569	0.171958
O9	O	-4.055749	-0.216691	-0.130211
O10	O	-3.555749	0.283309	0.369789
V11	V	-4.539493	-0.198801	-0.218801
V12	V	-4.039493	0.301199	0.281199
O13	O	-4.335142	-0.289366	-0.263166
O14	O	-3.835142	0.210634	0.236834
O15	O	-4.716128	-0.136595	-0.188329
O16	O	-4.216128	0.363405	0.311671
O17	O	-4.311247	0.022779	-0.206941
O18	O	-3.811247	0.522779	0.293059
O19	O	-4.725938	-0.435131	-0.237217
O20	O	-4.225938	0.064869	0.262783
O21	O	-4.662721	-0.209269	-0.321284
O22	O	-4.162721	0.290731	0.178716
O23	O	-4.374030	-0.201529	-0.123453
O24	O	-3.874030	0.298471	0.376547
C25	C	-3.924923	-0.502732	-0.244354
C26	C	-3.424923	-0.002732	0.255646
C27	C	-4.010268	-0.683882	-0.254686
C28	C	-3.510268	-0.183882	0.245314
C29	C	-3.844836	-0.216602	-0.350850
C30	C	-3.344836	0.283398	0.149150
C31	C	-3.879262	-0.215838	-0.428887
C32	C	-3.379262	0.284162	0.071113
C33	C	-4.079190	-0.223659	-0.469615
C34	C	-3.579190	0.276341	0.030385
C35	C	-4.111537	-0.222941	-0.542939
C36	C	-3.611537	0.277059	-0.042939
C37	C	-3.943961	-0.214435	-0.575535
C38	C	-3.443961	0.285565	-0.075535
C39	C	-3.744000	-0.206604	-0.534796
C40	C	-3.244000	0.293396	-0.034796
C41	C	-3.711650	-0.207306	-0.461472
C42	C	-3.211650	0.292694	0.038528
N43	N	-3.904973	-0.300493	-0.699512
N44	N	-3.404973	0.199507	-0.199512
N45	N	-3.935719	-0.299830	-0.769168
N46	N	-3.435719	0.200170	-0.269168
C47	C	-4.041417	-0.212316	-0.796455
C48	C	-3.541417	0.287684	-0.296455
N49	N	-4.115249	-0.125512	-0.751460
N50	N	-3.615249	0.374488	-0.251460
N51	N	-4.084511	-0.126182	-0.681799
N52	N	-3.584511	0.373818	-0.181799
C53	C	-3.979018	-0.213672	-0.655042
C54	C	-3.479018	0.286328	-0.155042
C55	C	-4.276431	-0.219357	-0.916690
C56	C	-3.776431	0.280643	-0.416690
C57	C	-4.308766	-0.218628	-0.990013
C58	C	-3.808766	0.281372	-0.490013
C59	C	-3.941232	-0.202308	-0.981871
C60	C	-3.441232	0.297692	-0.481871
C61	C	-3.908894	-0.203020	-0.908547
C62	C	-3.408894	0.296980	-0.408547
C63	C	-4.076505	-0.211552	-0.875962
C64	C	-3.576505	0.288448	-0.375962
C65	C	-4.116287	0.076763	-0.207140
C66	C	-3.616287	0.576763	0.292860
C67	C	-4.010180	0.257911	-0.196812
C68	C	-3.510180	0.757911	0.303188
C69	C	-4.196374	-0.209363	-0.100641
C70	C	-3.696374	0.290637	0.399359
C71	C	-4.141185	-0.210119	-0.022604
C72	C	-3.641185	0.289881	0.477396
H73	H	-4.274352	-0.229318	-0.576107
H74	H	-3.774352	0.270682	-0.076107
H75	H	-3.607558	-0.199673	-0.561339
H76	H	-3.107558	0.300327	-0.061339
H77	H	-3.548836	-0.200925	-0.428309
H78	H	-3.048836	0.299075	0.071691
H79	H	-3.804780	-0.195368	-1.008408
H80	H	-3.304780	0.304632	-0.508408
O81	O	-4.457176	-0.228526	-0.881531
O82	O	-3.957176	0.271474	-0.381531
H83	H	-4.601624	-0.233811	-0.922170
H84	H	-4.101624	0.266189	-0.422170
H85	H	-4.471569	-0.224984	-1.023172
H86	H	-3.971569	0.275016	-0.523172
O87	O	-4.096817	-0.801441	-0.330820
O88	O	-3.596817	-0.301441	0.169180
H89	H	-4.152474	-0.930053	-0.327280
H90	H	-3.652474	-0.430053	0.172720
H91	H	-3.944857	-0.653334	-0.139343
H92	H	-3.444857	-0.153334	0.360657
H93	H	-4.215672	-0.230600	-0.443089
H94	H	-3.715672	0.269400	0.056911
H95	H	-3.746101	-0.196669	-0.875387
H96	H	-3.246101	0.303331	-0.375387
