data_functionalizedCrystal
_audit_creation_method	'MofGen! by Chris Wilmer'
_symmetry_space_group_name_H-M	'P1'
_symmetry_Int_Tables_number	1
_symmetry_cell_setting	triclinic
loop_
_symmetry_equiv_pos_as_xyz
  x,y,z
_cell_length_a	15.944551
_cell_length_b	15.944493
_cell_length_c	13.101039
_cell_angle_alpha	93.367629
_cell_angle_beta	86.646591
_cell_angle_gamma	83.486891
loop_
_atom_site_label
_atom_site_type_symbol
_atom_site_fract_x
_atom_site_fract_y
_atom_site_fract_z
O1	O	1.119117	0.103706	-0.085094
O2	O	1.619117	0.603706	0.414906
O3	O	0.874565	0.117061	-0.085118
O4	O	1.374565	0.617061	0.414882
O5	O	1.003545	-0.011895	-0.085114
O6	O	1.503545	0.488105	0.414886
O7	O	0.990137	0.232662	-0.085098
O8	O	1.490137	0.732662	0.414902
O9	O	0.994291	-0.002627	0.085315
O10	O	1.494291	0.497373	0.585315
O11	O	0.865311	0.126329	0.085311
O12	O	1.365311	0.626329	0.585311
O13	O	1.109862	0.112973	0.085335
O14	O	1.609862	0.612973	0.585335
Zn15	Zn	0.986118	0.121123	0.112383
Zn16	Zn	1.486118	0.621123	0.612383
Zn17	Zn	0.998310	0.108912	-0.112166
Zn18	Zn	1.498310	0.608912	0.387834
O19	O	0.980883	0.241930	0.085331
O20	O	1.480883	0.741930	0.585331
C21	C	0.838645	0.121140	0.000093
C22	C	1.338645	0.621140	0.500093
C23	C	0.745400	0.119477	0.000084
C24	C	1.245400	0.619477	0.500084
C25	C	0.530559	0.035571	0.000098
C26	C	1.030559	0.535571	0.500098
C27	C	0.474094	0.069965	-0.083930
C28	C	0.974094	0.569965	0.416070
C29	C	0.574674	0.116471	0.000095
C30	C	1.074674	0.616471	0.500095
C31	C	0.464992	0.079122	0.084100
C32	C	0.964992	0.579122	0.584100
C33	C	0.409761	0.113561	0.000112
C34	C	0.909761	0.613561	0.500112
C35	C	0.519440	0.150883	-0.084002
C36	C	1.019440	0.650883	0.415998
C37	C	0.510341	0.160032	0.084104
C38	C	1.010341	0.660032	0.584104
C39	C	0.453894	0.194484	0.000055
C40	C	0.953894	0.694484	0.500055
C41	C	0.669676	0.118145	0.000085
C42	C	1.169676	0.618145	0.500085
C43	C	0.314760	0.111892	0.000114
C44	C	0.814760	0.611892	0.500114
C45	C	0.998370	-0.038556	0.000096
C46	C	1.498370	0.461444	0.500096
C47	C	0.996728	-0.131806	0.000083
C48	C	1.496728	0.368194	0.500083
C49	C	1.072647	-0.367564	0.000110
C50	C	1.572647	0.132436	0.500110
C51	C	1.036269	-0.422702	-0.083924
C52	C	1.536269	0.077298	0.416076
C53	C	0.993683	-0.302526	0.000095
C54	C	1.493683	0.197474	0.500095
C55	C	1.027127	-0.413541	0.084106
C56	C	1.527127	0.086459	0.584106
C57	C	0.990748	-0.467435	0.000112
C58	C	1.490748	0.032565	0.500112
C59	C	0.957330	-0.356439	-0.084008
C60	C	1.457330	0.143561	0.415992
C61	C	0.948196	-0.347271	0.084098
C62	C	1.448196	0.152729	0.584098
C63	C	0.911761	-0.402377	0.000043
C64	C	1.411761	0.097623	0.500043
C65	C	0.995377	-0.207527	0.000085
C66	C	1.495377	0.292473	0.500085
C67	C	0.989049	-0.562432	0.000115
C68	C	1.489049	-0.062432	0.500115
C69	C	1.145783	0.108894	0.000122
C70	C	1.645783	0.608894	0.500122
C71	C	1.239029	0.110557	0.000125
C72	C	1.739029	0.610557	0.500125
C73	C	0.986058	0.268591	0.000119
C74	C	1.486058	0.768591	0.500119
C75	C	0.987700	0.361840	0.000125
C76	C	1.487700	0.861840	0.500125
N77	N	0.977802	0.129455	0.265631
N78	N	1.477802	0.629455	0.765631
N79	N	1.006632	0.100572	-0.265414
N80	N	1.506632	0.600572	0.234586
C81	C	0.966489	0.140800	0.474673
C82	C	1.466489	0.640800	0.974673
C83	C	1.017942	0.089230	0.525550
C84	C	1.517942	0.589230	1.025550
C85	C	1.011648	0.095543	0.641869
C86	C	1.511648	0.595543	1.141869
C87	C	0.972783	0.134489	0.358344
C88	C	1.472783	0.634489	0.858344
H89	H	0.420724	0.261691	0.000012
H90	H	0.920724	0.761691	0.500012
H91	H	0.457849	0.031885	-0.154975
H92	H	0.957849	0.531885	0.345025
H93	H	1.056634	-0.438609	0.155146
H94	H	1.556634	0.061391	0.655146
H95	H	0.917716	0.189689	0.518469
H96	H	1.417716	0.689689	1.018469
H97	H	0.563912	-0.031574	-0.000010
H98	H	1.063912	0.468426	0.499990
H99	H	0.843693	-0.417845	-0.000010
H100	H	1.343693	0.082155	0.499990
F101	F	1.084897	-0.465588	-0.176776
F102	F	1.584897	0.034412	0.323224
F103	F	0.433707	0.039430	0.176952
F104	F	0.933707	0.539430	0.676952
F105	F	1.081950	0.025577	0.468304
F106	F	1.581950	0.525577	0.968304
H107	H	0.911019	-0.314447	0.155139
H108	H	1.411019	0.185553	0.655139
F109	F	0.550600	0.190519	-0.176958
F110	F	1.050600	0.690519	0.323042
H111	H	0.526607	0.198085	0.155151
H112	H	1.026607	0.698085	0.655151
F113	F	1.161555	-0.347140	0.000011
F114	F	1.661555	0.152860	0.500011
H115	H	0.927863	-0.331487	-0.155128
H116	H	1.427863	0.168513	0.344872
