data_functionalizedCrystal
_audit_creation_method	'MofGen! by Chris Wilmer'
_symmetry_space_group_name_H-M	'P1'
_symmetry_Int_Tables_number	1
_symmetry_cell_setting	triclinic
loop_
_symmetry_equiv_pos_as_xyz
  x,y,z
_cell_length_a	19.077236
_cell_length_b	19.076808
_cell_length_c	17.077396
_cell_angle_alpha	87.670636
_cell_angle_beta	87.678825
_cell_angle_gamma	94.519737
loop_
_atom_site_label
_atom_site_type_symbol
_atom_site_fract_x
_atom_site_fract_y
_atom_site_fract_z
Zn1	Zn	1.066467	-0.237459	-0.481060
Zn2	Zn	1.566467	0.262541	0.018940
Zn3	Zn	1.061642	-0.355362	-0.344287
Zn4	Zn	1.561642	0.144638	0.155713
Zn5	Zn	0.948576	-0.242210	-0.344303
Zn6	Zn	1.448576	0.257790	0.155697
Zn7	Zn	0.943808	-0.360045	-0.470012
Zn8	Zn	1.443808	0.139955	0.029988
O9	O	1.005123	-0.298769	-0.409915
O10	O	1.505123	0.201231	0.090085
O11	O	1.164479	-0.249151	-0.467534
O12	O	1.664479	0.250849	0.032466
O13	O	1.046620	-0.340381	-0.234440
O14	O	1.546620	0.159619	0.265560
O15	O	0.968229	-0.142922	-0.367074
O16	O	1.468229	0.357078	0.132926
O17	O	1.160934	-0.335775	-0.367048
O18	O	1.660934	0.164225	0.132952
O19	O	1.054844	-0.139431	-0.467548
O20	O	1.554844	0.360569	0.032452
O21	O	0.963550	-0.257248	-0.234451
O22	O	1.463550	0.242752	0.265549
O23	O	0.849291	-0.261788	-0.356361
O24	O	1.349291	0.238212	0.143639
O25	O	0.960103	-0.343755	-0.581327
O26	O	1.460103	0.156245	-0.081327
O27	O	0.845788	-0.348361	-0.448719
O28	O	1.345788	0.151639	0.051281
O29	O	1.050220	-0.253691	-0.589443
O30	O	1.550220	0.246309	-0.089443
O31	O	1.041996	-0.454641	-0.356335
O32	O	1.541996	0.045359	0.143665
O33	O	0.955424	-0.458081	-0.448704
O34	O	1.455424	0.041919	0.051296
C35	C	0.821961	-0.306099	-0.401343
C36	C	1.321961	0.193901	0.098657
C37	C	0.743602	-0.309252	-0.397694
C38	C	1.243602	0.190748	0.102306
C39	C	0.708633	-0.265704	-0.448370
C40	C	1.208633	0.234296	0.051630
C41	C	0.635006	-0.268663	-0.444935
C42	C	1.135006	0.231337	0.055065
C43	C	0.596351	-0.315174	-0.390826
C44	C	1.096351	0.184826	0.109174
C45	C	0.631326	-0.358723	-0.340144
C46	C	1.131326	0.141277	0.159856
C47	C	0.704950	-0.355760	-0.343577
C48	C	1.204950	0.144240	0.156423
C49	C	0.375959	-0.328861	-0.374939
C50	C	0.875959	0.171139	0.125061
C51	C	0.302329	-0.331822	-0.371512
C52	C	0.802329	0.168178	0.128488
C53	C	0.306015	-0.241761	-0.476302
C54	C	0.806015	0.258239	0.023698
C55	C	0.379641	-0.238805	-0.479733
C56	C	0.879641	0.261195	0.020267
C57	C	0.414609	-0.282352	-0.429048
C58	C	0.914609	0.217648	0.070952
N59	N	0.521093	-0.318201	-0.387315
N60	N	1.021093	0.181799	0.112685
N61	N	0.489865	-0.279321	-0.432557
N62	N	0.989865	0.220679	0.067443
C63	C	0.997688	-0.481941	-0.401337
C64	C	1.497688	0.018059	0.098663
C65	C	0.994572	-0.560300	-0.397697
C66	C	1.494572	-0.060300	0.102303
C67	C	1.038170	-0.595237	-0.448337
C68	C	1.538170	-0.095237	0.051663
C69	C	1.035239	-0.668864	-0.444918
C70	C	1.535239	-0.168864	0.055082
C71	C	0.988713	-0.707553	-0.390854
C72	C	1.488713	-0.207553	0.109146
C73	C	0.945111	-0.672611	-0.340211
C74	C	1.445111	-0.172611	0.159789
C75	C	0.948038	-0.598986	-0.343635
C76	C	1.448038	-0.098986	0.156365
C77	C	0.975121	-0.927951	-0.375004
C78	C	1.475121	-0.427951	0.124996
C79	C	0.972198	-1.001582	-0.371582
C80	C	1.472198	-0.501582	0.128418
C81	C	1.062325	-0.997830	-0.476291
C82	C	1.562325	-0.497830	0.023709
C83	C	1.065252	-0.924203	-0.479706
C84	C	1.565252	-0.424203	0.020294
C85	C	1.021647	-0.889267	-0.429066
C86	C	1.521647	-0.389267	0.070934
N87	N	0.985718	-0.782811	-0.387355
N88	N	1.485718	-0.282811	0.112645
N89	N	1.024640	-0.814010	-0.432569
N90	N	1.524640	-0.314010	0.067431
C91	C	1.189001	-0.291411	-0.418521
C92	C	1.689001	0.208589	0.081479
C93	C	1.267359	-0.288275	-0.422189
C94	C	1.767359	0.211725	0.077811
C95	C	1.005168	-0.298715	-0.614664
C96	C	1.505168	0.201285	-0.114664
C97	C	1.005187	-0.298692	-0.701916
C98	C	1.505187	0.201308	-0.201916
C99	C	1.012607	-0.114881	-0.418545
C100	C	1.512607	0.385119	0.081455
C101	C	1.015796	-0.036518	-0.422223
C102	C	1.515796	0.463482	0.077777
C103	C	1.052113	-0.251793	-0.747134
C104	C	1.552113	0.248207	-0.247134
C105	C	1.052123	-0.251769	-0.829116
C106	C	1.552123	0.248231	-0.329116
C107	C	1.005209	-0.298649	-0.865878
C108	C	1.505209	0.201351	-0.365878
C109	C	0.958278	-0.345551	-0.820654
C110	C	1.458278	0.154449	-0.320654
C111	C	0.958266	-0.345571	-0.738674
C112	C	1.458266	0.154429	-0.238674
C113	C	0.958308	-0.345507	-0.991528
C114	C	1.458308	0.154493	-0.491528
C115	C	0.958321	-0.345488	-1.073514
C116	C	1.458321	0.154512	-0.573514
C117	C	1.052165	-0.251705	-1.081970
C118	C	1.552165	0.248295	-0.581970
C119	C	1.052153	-0.251725	-0.999989
C120	C	1.552153	0.248275	-0.499989
C121	C	1.005222	-0.298628	-0.954771
C122	C	1.505222	0.201372	-0.454771
C123	C	1.005121	-0.298770	-0.205967
C124	C	1.505121	0.201230	0.294033
C125	C	1.005247	-0.298589	-0.118732
C126	C	1.505247	0.201411	0.381268
H127	H	0.599847	-0.396590	-0.296084
H128	H	1.099847	0.103410	0.203916
F129	F	0.742167	-0.402110	-0.289640
F130	F	1.242167	0.097890	0.210360
F131	F	1.102113	-0.201788	-1.130095
F132	F	1.602113	0.298212	-0.630095
H133	H	1.076059	-0.563741	-0.492359
H134	H	1.576059	-0.063741	0.007641
F135	F	0.908385	-0.395378	-1.112637
F136	F	1.408385	0.104622	-0.612637
H137	H	0.920082	-0.383690	-0.954713
H138	H	1.420082	0.116310	-0.454713
H139	H	1.090318	-0.213619	-0.717208
H140	H	1.590318	0.286381	-0.217208
F141	F	0.895588	-0.713789	-0.282678
F142	F	1.395588	-0.213789	0.217322
H143	H	1.070746	-0.697306	-0.486149
H144	H	1.570746	-0.197306	0.013851
F145	F	1.114770	-0.883033	-0.537250
F146	F	1.614770	-0.383033	-0.037250
H147	H	0.740101	-0.227832	-0.492434
H148	H	1.240101	0.272168	0.007566
F149	F	1.102087	-0.201834	-0.960866
F150	F	1.602087	0.298166	-0.460866
H151	H	0.404421	-0.364320	-0.333669
H152	H	0.904421	0.135680	0.166331
H153	H	1.090336	-0.213580	-0.865929
H154	H	1.590336	0.286420	-0.365929
F155	F	0.908319	-0.395486	-0.690549
F156	F	1.408319	0.104514	-0.190549
H157	H	0.277536	-0.206307	-0.517566
H158	H	0.777536	0.293693	-0.017566
F159	F	1.108728	-1.035016	-0.530183
F160	F	1.608728	-0.535016	-0.030183
F161	F	0.922679	-1.042756	-0.314034
F162	F	1.422679	-0.542756	0.185966
H163	H	0.270857	-0.369700	-0.327450
H164	H	0.770857	0.130300	0.172550
H165	H	0.606538	-0.233204	-0.486202
H166	H	1.106538	0.266796	0.013798
H167	H	0.939618	-0.899512	-0.333769
H168	H	1.439618	-0.399512	0.166231
H169	H	0.411109	-0.200934	-0.523797
H170	H	0.911109	0.299066	-0.023797
F171	F	0.901635	-0.561804	-0.289737
F172	F	1.401635	-0.061804	0.210263
F173	F	0.908346	-0.395441	-0.859782
F174	F	1.408346	0.104559	-0.359782
