data_functionalizedCrystal
_audit_creation_method	'MofGen! by Chris Wilmer'
_symmetry_space_group_name_H-M	'P1'
_symmetry_Int_Tables_number	1
_symmetry_cell_setting	triclinic
loop_
_symmetry_equiv_pos_as_xyz
  x,y,z
_cell_length_a	10.654550
_cell_length_b	17.699083
_cell_length_c	9.730223
_cell_angle_alpha	89.997786
_cell_angle_beta	89.996251
_cell_angle_gamma	83.883958
loop_
_atom_site_label
_atom_site_type_symbol
_atom_site_fract_x
_atom_site_fract_y
_atom_site_fract_z
O1	O	1.665973	0.106299	-0.114406
O2	O	1.300318	0.116427	-0.114384
O3	O	1.493476	0.001240	-0.114384
O4	O	1.472815	0.221487	-0.114407
O5	O	1.493474	0.001243	0.114196
O6	O	1.300315	0.116430	0.114196
O7	O	1.665971	0.106302	0.114174
Zn8	Zn	1.483143	0.111366	0.150477
Zn9	Zn	1.483146	0.111363	-0.150687
O10	O	1.472813	0.221490	0.114173
C11	C	1.253531	0.115685	-0.000091
C12	C	1.114127	0.113460	-0.000083
C13	C	1.033454	0.181281	-0.000110
C14	C	0.902470	0.179185	-0.000133
C15	C	0.932845	0.041443	-0.000108
C16	C	1.063826	0.043539	-0.000075
C17	C	1.015917	0.260805	-0.000130
C18	C	0.884933	0.258710	-0.000154
C19	C	1.492735	-0.026961	-0.000093
C20	C	1.490514	-0.110993	-0.000093
C21	C	1.603894	-0.158893	-0.000097
C22	C	1.601799	-0.237850	-0.000109
C23	C	1.486324	-0.268905	-0.000107
C24	C	1.372935	-0.220998	-0.000106
C25	C	1.375031	-0.142043	-0.000104
C26	C	1.364481	-0.539415	-0.000117
C27	C	1.362394	-0.618376	-0.000115
C28	C	1.591249	-0.635222	-0.000122
C29	C	1.593345	-0.556266	-0.000120
C30	C	1.479957	-0.508367	-0.000127
C31	C	1.482229	-0.422753	-0.000116
C32	C	1.484050	-0.354517	-0.000107
C33	C	1.712757	0.107044	-0.000122
C34	C	1.852161	0.109269	-0.000140
C35	C	1.473554	0.249690	-0.000120
C36	C	1.475775	0.333722	-0.000130
N37	N	1.483150	0.111369	0.356013
N38	N	1.483149	0.111355	-0.356223
C39	C	1.568702	0.060381	0.427940
C40	C	1.568699	0.060372	0.571823
C41	C	1.397587	0.162345	0.571840
C42	C	1.397585	0.162349	0.427960
C43	C	1.667496	0.001510	0.427931
C44	C	1.667493	0.001501	0.571814
H45	H	1.044703	0.291908	0.095532
O46	O	1.314528	0.211806	0.357877
C47	C	1.332894	0.200895	0.215456
H48	H	1.380019	0.140986	0.195795
H49	H	1.237771	0.208785	0.160779
H50	H	1.395740	0.244091	0.174629
O51	O	1.264811	-0.095587	-0.000281
C52	C	1.194705	-0.109740	-0.118680
H53	H	1.225721	-0.169462	-0.158146
H54	H	1.089949	-0.104732	-0.092055
H55	H	1.211754	-0.066471	-0.201579
O56	O	1.250292	-0.648633	-0.000308
C57	C	1.242240	-0.693784	-0.118708
H58	H	1.341285	-0.712923	-0.158168
H59	H	1.192340	-0.745743	-0.092086
H60	H	1.186584	-0.659200	-0.201611
H61	H	0.842676	0.288672	-0.095824
H62	H	1.129507	-0.011687	-0.000033
O63	O	1.711821	-0.284488	-0.000179
C64	C	1.685216	-0.360835	-0.000159
H65	H	1.586586	-0.364376	-0.043428
H66	H	1.757501	-0.396217	-0.066534
H67	H	1.690047	-0.383650	0.109498
O68	O	1.260870	-0.251288	-0.000043
C69	C	1.283330	-0.331247	-0.000076
H70	H	1.381386	-0.349273	0.043194
H71	H	1.209451	-0.355874	0.066292
H72	H	1.277312	-0.353253	-0.109736
O73	O	1.705628	-0.526226	-0.000185
C74	C	1.805254	-0.585436	-0.000159
H75	H	1.770216	-0.639248	-0.043431
H76	H	1.885889	-0.568513	-0.066529
H77	H	1.840218	-0.596425	0.109499
H78	H	1.327922	0.203851	0.630435
H79	H	0.838840	0.282744	0.098528
H80	H	1.683575	-0.674231	-0.000124
H81	H	1.051130	0.286125	-0.098820
H82	H	1.697927	-0.133615	-0.000091
H83	H	1.272153	-0.500424	-0.000122
H84	H	1.647071	-0.056663	0.388884
O85	O	1.775880	0.023614	0.374856
C86	C	1.790667	0.097890	0.419734
H87	H	1.734827	0.110311	0.518588
H88	H	1.894851	0.103005	0.439716
H89	H	1.754283	0.140416	0.337189
O90	O	0.883770	-0.026409	-0.000170
C91	C	0.750863	-0.013718	-0.000164
H92	H	0.719931	0.045182	-0.043451
H93	H	0.710798	-0.058500	-0.066530
H94	H	0.714387	-0.017575	0.109491
O95	O	1.632094	-0.064084	0.624882
C96	C	1.509036	-0.073872	0.580040
H97	H	1.487746	-0.040359	0.481199
H98	H	1.501779	-0.136724	0.560050
H99	H	1.438076	-0.052451	0.662610
O100	O	1.782457	0.016875	0.618245
C101	C	1.876096	-0.039097	0.569846
H102	H	1.840532	-0.066742	0.473601
H103	H	1.965291	-0.011658	0.544192
H104	H	1.898183	-0.084152	0.652604
