data_functionalizedCrystal
_audit_creation_method	'MofGen! by Chris Wilmer'
_symmetry_space_group_name_H-M	'P1'
_symmetry_Int_Tables_number	1
_symmetry_cell_setting	triclinic
loop_
_symmetry_equiv_pos_as_xyz
  x,y,z
_cell_length_a	12.827892
_cell_length_b	12.827893
_cell_length_c	12.827885
_cell_angle_alpha	89.980538
_cell_angle_beta	89.970214
_cell_angle_gamma	90.015362
loop_
_atom_site_label
_atom_site_type_symbol
_atom_site_fract_x
_atom_site_fract_y
_atom_site_fract_z
Zn1	Zn	-0.415983	1.597672	-0.590849
Zn2	Zn	-0.590761	1.597565	-0.416109
Zn3	Zn	-0.416034	1.422912	-0.416122
Zn4	Zn	-0.590683	1.422898	-0.590809
O5	O	-0.503365	1.510262	-0.503472
O6	O	-0.439179	1.743893	-0.567680
O7	O	-0.567637	1.574358	-0.269875
O8	O	-0.269791	1.446145	-0.439322
O9	O	-0.567587	1.743815	-0.439300
O10	O	-0.269754	1.574540	-0.567693
O11	O	-0.439266	1.446042	-0.269884
O12	O	-0.439190	1.276674	-0.439284
O13	O	-0.567455	1.446121	-0.737050
O14	O	-0.567504	1.276664	-0.567625
O15	O	-0.439104	1.574526	-0.737080
O16	O	-0.736986	1.574345	-0.439261
O17	O	-0.736929	1.446018	-0.567612
C18	C	-0.503345	1.238752	-0.503452
C19	C	-0.503362	1.122599	-0.503469
C20	C	-0.774875	1.510196	-0.503454
C21	C	-0.891028	1.510264	-0.503481
C22	C	-0.566954	1.070837	-0.566878
C23	C	-0.566973	0.950786	-0.566896
C24	C	-0.942807	1.573840	-0.440039
C25	C	-1.062857	1.573911	-0.440066
C26	C	-0.230795	1.510356	-0.503514
C27	C	-0.114642	1.510396	-0.503531
C28	C	-0.503265	1.510334	-0.776043
C29	C	-0.503222	1.510365	-0.892196
C30	C	-0.503386	1.782832	-0.503493
C31	C	-0.503395	1.898985	-0.503502
C32	C	-0.439688	1.446890	-0.943985
C33	C	-0.439642	1.446920	-1.064036
C34	C	-0.503390	1.510250	-0.231962
C35	C	-0.503138	1.510422	-0.115810
H36	H	-0.621381	1.115398	-0.621155
H37	H	-0.621420	0.906272	-0.621181
H38	H	-1.107385	1.628338	-0.385748
H39	H	-0.448952	0.943493	-0.449208
H40	H	-0.448927	1.078038	-0.449199
H41	H	-1.070121	1.455959	-0.557845
H42	H	-0.898262	1.628221	-0.385708
C43	C	-0.951205	1.436799	-0.576886
N44	N	-0.996528	1.381462	-0.632175
H45	H	-0.385332	1.392520	-0.899448
H46	H	-0.557531	1.564772	-1.071279
C47	C	-0.366154	1.373503	-1.124201
N48	N	-0.310802	1.318201	-1.169521
H49	H	-0.557583	1.564729	-0.936734
