data_functionalizedCrystal
_audit_creation_method	'MofGen! by Chris Wilmer'
_symmetry_space_group_name_H-M	'P1'
_symmetry_Int_Tables_number	1
_symmetry_cell_setting	triclinic
loop_
_symmetry_equiv_pos_as_xyz
  x,y,z
_cell_length_a	17.077404
_cell_length_b	21.295418
_cell_length_c	17.077396
_cell_angle_alpha	90.031504
_cell_angle_beta	90.018362
_cell_angle_gamma	90.025370
loop_
_atom_site_label
_atom_site_type_symbol
_atom_site_fract_x
_atom_site_fract_y
_atom_site_fract_z
Zn1	Zn	1.200030	-0.250643	0.443802
Zn2	Zn	1.199927	-0.355916	0.312529
Zn3	Zn	1.068762	-0.250661	0.312553
Zn4	Zn	1.068719	-0.355875	0.443756
O5	O	1.134359	-0.303274	0.378160
O6	O	1.309863	-0.264618	0.426398
O7	O	1.182502	-0.341979	0.202686
O8	O	1.086236	-0.162569	0.329993
O9	O	1.309787	-0.341962	0.329953
O10	O	1.182678	-0.162556	0.426421
O11	O	1.086136	-0.264648	0.202703
O12	O	0.958909	-0.264608	0.329947
O13	O	1.086164	-0.341891	0.553609
O14	O	0.958878	-0.341908	0.426342
O15	O	1.182637	-0.264578	0.553643
O16	O	1.182461	-0.444000	0.329907
O17	O	1.086063	-0.443970	0.426319
C18	C	0.930412	-0.303256	0.378142
C19	C	0.843162	-0.303264	0.378154
C20	C	0.802212	-0.263062	0.428449
C21	C	0.720231	-0.263066	0.428453
C22	C	0.679202	-0.303275	0.378164
C23	C	0.720158	-0.343478	0.327863
C24	C	0.802137	-0.343471	0.327856
C25	C	0.549288	-0.343493	0.327882
C26	C	0.467303	-0.343501	0.327890
C27	C	0.467382	-0.263088	0.428480
C28	C	0.549361	-0.263081	0.428473
C29	C	0.590311	-0.303285	0.378172
C30	C	1.134268	-0.466826	0.378123
C31	C	1.134300	-0.536794	0.378133
C32	C	1.184742	-1.036246	0.328085
C33	C	1.184712	-0.970504	0.328067
C34	C	1.134470	-0.937633	0.378215
C35	C	1.084240	-0.970510	0.428371
C36	C	1.084265	-1.036251	0.428383
N37	N	1.128368	-0.834379	0.446903
N38	N	1.128348	-0.771927	0.446890
C39	C	1.134388	-0.739558	0.378182
N40	N	1.140465	-0.772000	0.309486
N41	N	1.140489	-0.834457	0.309500
C42	C	1.134436	-0.866348	0.378208
C43	C	1.184579	-0.635404	0.328005
C44	C	1.184544	-0.569660	0.327985
C45	C	1.084075	-0.569667	0.428297
C46	C	1.084107	-0.635410	0.428310
C47	C	1.134363	-0.668274	0.378165
C48	C	1.339104	-0.303292	0.378178
C49	C	1.426353	-0.303300	0.378186
C50	C	1.134407	-0.303228	0.582904
C51	C	1.134427	-0.303208	0.670154
C52	C	1.134473	-0.139084	0.378215
C53	C	1.134521	-0.069116	0.378238
C54	C	1.134357	-0.303275	0.174212
C55	C	1.134489	-0.303117	0.086963
C56	C	1.184663	-0.262947	0.711164
C57	C	1.184672	-0.262927	0.793144
C58	C	1.134449	-0.303170	0.834114
C59	C	1.084208	-0.343432	0.793099
C60	C	1.084196	-0.343449	0.711120
C61	C	1.084240	-0.343394	0.963969
C62	C	1.084254	-0.343377	1.045954
C63	C	1.184717	-0.262871	1.045993
C64	C	1.184704	-0.262889	0.964014
C65	C	1.134464	-0.303152	0.923005
H66	H	0.686894	-0.230332	0.469411
H67	H	1.225623	-0.230087	1.079387
N68	N	0.591271	-0.221999	0.479830
N69	N	0.637019	-0.181854	0.452294
H70	H	0.666617	-0.152837	0.488564
H71	H	1.043370	-1.063013	0.469226
N72	N	1.235908	-0.668969	0.276772
N73	N	1.280735	-0.639610	0.231984
H74	H	1.316984	-0.663313	0.195797
H75	H	1.043164	-0.542904	0.469125
H76	H	0.434037	-0.230352	0.469435
N77	N	0.591121	-0.384549	0.276491
N78	N	0.581939	-0.380300	0.204068
H79	H	0.611485	-0.409296	0.167775
N80	N	1.032917	-0.384462	1.087793
N81	N	0.988038	-0.420387	1.051170
H82	H	0.951767	-0.449394	1.080719
H83	H	0.686746	-0.376214	0.286913
N84	N	0.425404	-0.384575	0.276515
N85	N	0.461973	-0.420463	0.231603
H86	H	0.432382	-0.449472	0.195318
H87	H	0.835477	-0.376206	0.286899
H88	H	1.225437	-0.542898	0.287140
N89	N	1.032803	-0.668979	0.479547
N90	N	0.987944	-0.639625	0.524317
H91	H	0.951706	-0.663332	0.560504
N92	N	1.236003	-0.221791	0.922149
N93	N	1.285996	-0.243957	0.876400
H94	H	1.322225	-0.214931	0.846830
N95	N	1.032911	-0.384520	0.922090
N96	N	0.988073	-0.420449	0.958677
H97	H	0.951823	-0.449496	0.929100
H98	H	1.225581	-0.230144	0.826530
H99	H	1.043313	-0.376196	0.826463
H100	H	1.225662	-1.063001	0.287251
N101	N	1.032894	-0.384576	0.669215
N102	N	1.032889	-0.384587	0.596020
H103	H	0.996654	-0.413632	0.566424
N104	N	1.235975	-0.221839	0.669330
N105	N	1.280823	-0.185895	0.705959
H106	H	1.317063	-0.156860	0.676417
N107	N	1.236024	-0.936910	0.276854
N108	N	1.235999	-0.878213	0.276861
H109	H	1.272240	-0.854488	0.240697
H110	H	1.043330	-0.943743	0.469202
H111	H	0.835612	-0.230321	0.469403
