data_functionalizedCrystal
_audit_creation_method	'MofGen! by Chris Wilmer'
_symmetry_space_group_name_H-M	'P1'
_symmetry_Int_Tables_number	1
_symmetry_cell_setting	triclinic
loop_
_symmetry_equiv_pos_as_xyz
  x,y,z
_cell_length_a	10.489741
_cell_length_b	16.109301
_cell_length_c	14.586319
_cell_angle_alpha	90.000787
_cell_angle_beta	89.996488
_cell_angle_gamma	95.999673
loop_
_atom_site_label
_atom_site_type_symbol
_atom_site_fract_x
_atom_site_fract_y
_atom_site_fract_z
O1	O	0.163947	-1.104141	-0.076182
O2	O	0.184350	-0.862205	-0.076196
O3	O	-0.011529	-0.988678	-0.076183
O4	O	0.359826	-0.977668	-0.076195
O5	O	-0.011532	-0.988670	0.076298
O6	O	0.184347	-0.862196	0.076284
O7	O	0.163944	-1.104132	0.076299
Cu8	Cu	0.174145	-0.983164	0.090214
Cu9	Cu	0.174149	-0.983174	-0.090112
O10	O	0.359823	-0.977659	0.076286
C11	C	0.183522	-0.831221	0.000042
C12	C	0.181044	-0.738910	0.000037
C13	C	-0.059050	-0.987842	0.000057
C14	C	-0.200644	-0.985354	0.000055
N15	N	0.174142	-0.983162	0.217046
C16	C	-0.267616	-0.904883	0.000043
C17	C	-0.360292	-0.942893	0.075226
C18	C	-0.360264	-0.942920	-0.075108
C19	C	-0.291454	-1.023397	0.075300
C20	C	-0.291417	-1.023414	-0.075102
C21	C	-0.384066	-1.061482	0.000100
C22	C	0.407344	-0.978495	0.000044
C23	C	0.548938	-0.980983	0.000040
C24	C	0.164772	-1.135117	0.000058
C25	C	0.167250	-1.227427	0.000058
C26	C	0.291514	-0.517319	0.000044
C27	C	0.289175	-0.430584	0.000050
C28	C	0.056771	-0.449026	0.000053
C29	C	0.059111	-0.535759	0.000054
C30	C	0.176486	-0.569903	0.000045
C31	C	0.171808	-0.396435	0.000050
C32	C	0.169272	-0.302393	0.000056
C33	C	0.179022	-0.663950	0.000040
N34	N	0.174142	-0.983182	-0.216944
C35	C	0.087436	-1.039183	0.452058
C36	C	0.087433	-1.039186	0.548040
C37	C	0.260852	-0.927155	0.548038
C38	C	0.260848	-0.927149	0.452058
C39	C	0.174141	-0.983168	0.404071
C40	C	0.174142	-0.983176	0.596032
C41	C	0.174140	-0.983178	0.700099
C42	C	0.174142	-0.983165	0.299997
H43	H	-0.390811	-0.908840	0.138784
C44	C	-0.485757	-0.951060	-0.213096
C45	C	-0.401421	-0.896948	-0.160914
H46	H	-0.511166	-0.922671	-0.266062
H47	H	-0.444079	-0.998026	-0.231164
H48	H	-0.559232	-0.969168	-0.177453
H49	H	-0.327941	-0.878844	-0.196556
H50	H	-0.443099	-0.849966	-0.142848
H51	H	0.382843	-0.387773	0.000051
H52	H	-0.261117	-1.057413	0.138933
H53	H	-0.038791	-0.421215	0.000067
C54	C	-0.417391	-1.192793	0.078945
C55	C	-0.452100	-1.150875	0.000159
H56	H	-0.459402	-1.247977	0.078985
H57	H	-0.327231	-1.194853	0.079444
H58	H	-0.442021	-1.163983	0.131837
H59	H	-0.427461	-1.179682	-0.052733
H60	H	-0.542279	-1.148819	-0.000349
H61	H	0.331449	-0.881546	0.587118
H62	H	-0.260864	-1.057438	-0.138663
H63	H	-0.217005	-0.838720	0.000115
H64	H	-0.034565	-0.578575	0.000057
C65	C	0.481645	-0.879647	0.422486
C66	C	0.356167	-0.865575	0.399303
H67	H	0.540483	-0.841637	0.389912
H68	H	0.494052	-0.871630	0.486507
H69	H	0.495502	-0.935217	0.406746
H70	H	0.342306	-0.810006	0.415049
H71	H	0.343755	-0.873585	0.335267
H72	H	0.016832	-1.084796	0.412990
H73	H	0.387088	-0.545116	0.000043
C74	C	-0.083970	-1.149929	0.538395
C75	C	-0.007872	-1.100764	0.600787
H76	H	-0.142804	-1.187949	0.570961
H77	H	-0.129867	-1.115049	0.500966
H78	H	-0.030846	-1.180145	0.500953
H79	H	-0.060996	-1.070543	0.638225
H80	H	0.038028	-1.135648	0.638232
