data_functionalizedCrystal
_audit_creation_method	'MofGen! by Chris Wilmer'
_symmetry_space_group_name_H-M	'P1'
_symmetry_Int_Tables_number	1
_symmetry_cell_setting	triclinic
loop_
_symmetry_equiv_pos_as_xyz
  x,y,z
_cell_length_a	14.853558
_cell_length_b	14.853567
_cell_length_c	13.448316
_cell_angle_alpha	89.997194
_cell_angle_beta	89.993768
_cell_angle_gamma	83.633032
loop_
_atom_site_label
_atom_site_type_symbol
_atom_site_fract_x
_atom_site_fract_y
_atom_site_fract_z
O1	O	1.196373	0.117666	-0.082671
O2	O	0.933912	0.131697	-0.082675
O3	O	1.072153	-0.006549	-0.082676
O4	O	1.058132	0.255911	-0.082670
O5	O	1.072136	-0.006557	0.082708
O6	O	0.933895	0.131688	0.082709
O7	O	1.196355	0.117658	0.082713
Cu8	Cu	1.065123	0.124672	0.097812
Cu9	Cu	1.065144	0.124682	-0.097774
O10	O	1.058114	0.255903	0.082714
C11	C	0.900314	0.131058	0.000017
C12	C	0.800230	0.129158	0.000015
C13	C	1.071509	-0.040141	0.000013
C14	C	1.069605	-0.140225	0.000005
C15	C	0.753220	0.128271	-0.090140
C16	C	0.753199	0.128251	0.090168
C17	C	0.659165	0.126461	0.090170
C18	C	0.612155	0.125574	0.000015
C19	C	0.659178	0.126478	-0.090141
C20	C	0.612137	0.125547	0.180324
C21	C	0.518097	0.123756	0.180329
C22	C	0.471084	0.122876	0.090174
C23	C	0.518113	0.123781	0.000014
C24	C	0.471102	0.122894	-0.090140
C25	C	0.518128	0.123805	-0.180301
C26	C	0.612164	0.125597	-0.180296
C27	C	0.377048	0.121083	0.090169
C28	C	0.377060	0.121101	-0.090142
C29	C	0.979439	-0.552756	0.000022
C30	C	1.143673	-0.574042	0.000024
C31	C	1.145463	-0.480009	0.000019
C32	C	1.064240	-0.422344	0.000016
C33	C	0.981227	-0.458713	0.000019
C34	C	1.228474	-0.443632	0.000025
C35	C	1.230268	-0.349593	0.000021
C36	C	1.149044	-0.291927	0.000011
C37	C	1.066027	-0.328301	0.000013
C38	C	0.984805	-0.270637	0.000011
C39	C	0.901787	-0.307009	0.000006
C40	C	0.900003	-0.401047	0.000010
C41	C	1.150828	-0.197890	0.000007
C42	C	0.986592	-0.176594	0.000008
C43	C	1.229953	0.118296	0.000019
C44	C	1.330037	0.120197	0.000014
C45	C	1.058758	0.289496	0.000023
C46	C	1.060662	0.389580	0.000025
N47	N	1.065115	0.124665	0.235376
N48	N	1.065159	0.124683	-0.235338
C49	C	1.126348	0.063475	0.287416
C50	C	1.126353	0.063474	0.391519
C51	C	1.065130	0.124668	0.443581
C52	C	1.003892	0.185861	0.391533
C53	C	1.003882	0.185856	0.287432
C54	C	1.003917	0.185867	0.608514
C55	C	1.003927	0.185872	0.712622
C56	C	1.126388	0.063484	0.712601
C57	C	1.126378	0.063480	0.608499
C58	C	1.065140	0.124674	0.556459
H59	H	0.338790	0.120384	-0.163557
Cl60	Cl	0.926955	0.262804	0.778063
H61	H	1.297865	-0.319987	0.000023
Cl62	Cl	1.255184	-0.152167	0.000032
H63	H	0.835656	-0.260047	0.000011
Cl64	Cl	0.884477	-0.104108	-0.000003
H65	H	0.832414	-0.430670	0.000007
H66	H	1.209801	-0.620998	0.000034
H67	H	1.294601	-0.490589	0.000037
Cl68	Cl	0.671289	0.126731	-0.293630
H69	H	0.954038	0.235683	0.433928
Cl70	Cl	1.203323	-0.013456	0.221978
Cl71	Cl	0.812299	0.129364	0.203499
H72	H	0.911848	-0.582375	0.000014
Cl73	Cl	0.458986	0.122623	0.293672
Cl74	Cl	0.671239	0.126665	0.293653
Cl75	Cl	0.317935	0.119924	0.203504
Cl76	Cl	1.203331	-0.013452	0.456943
Cl77	Cl	1.203350	-0.013444	0.543048
Cl78	Cl	1.203372	-0.013442	0.778026
H79	H	0.954047	0.235695	0.566146
H80	H	0.954020	0.235682	0.245062
H81	H	0.791512	0.129017	-0.163546
H82	H	0.479840	0.123078	-0.253705
