data_functionalizedCrystal
_audit_creation_method	'MofGen! by Chris Wilmer'
_symmetry_space_group_name_H-M	'P1'
_symmetry_Int_Tables_number	1
_symmetry_cell_setting	triclinic
loop_
_symmetry_equiv_pos_as_xyz
  x,y,z
_cell_length_a	16.625546
_cell_length_b	10.685972
_cell_length_c	10.686551
_cell_angle_alpha	98.409768
_cell_angle_beta	85.590142
_cell_angle_gamma	85.613069
loop_
_atom_site_label
_atom_site_type_symbol
_atom_site_fract_x
_atom_site_fract_y
_atom_site_fract_z
Zn1	Zn	-0.180768	-1.995753	-0.866726
Zn2	Zn	-0.326841	-1.979298	-0.654441
Zn3	Zn	-0.203206	-1.767174	-0.638182
Zn4	Zn	-0.326759	-1.783422	-0.850347
O5	O	-0.259393	-1.881412	-0.752424
O6	O	-0.190790	-2.171206	-0.852225
O7	O	-0.319865	-1.937474	-0.474651
O8	O	-0.087390	-1.797582	-0.668548
O9	O	-0.298108	-2.159117	-0.696260
O10	O	-0.070906	-1.965518	-0.836459
O11	O	-0.229031	-1.781627	-0.462705
O12	O	-0.228951	-1.591694	-0.652666
O13	O	-0.297968	-1.825274	-1.030153
O14	O	-0.319725	-1.603631	-0.808543
O15	O	-0.190710	-1.981272	-1.042187
O16	O	-0.439669	-1.953228	-0.680379
O17	O	-0.439609	-1.809319	-0.824310
C18	C	-0.276764	-1.551603	-0.727064
C19	C	-0.284213	-1.410512	-0.716245
C20	C	-0.468893	-1.881288	-0.752361
C21	C	-0.558510	-1.881354	-0.752386
C22	C	-0.886667	-1.881585	-0.752535
C23	C	-0.795364	-1.881517	-0.752497
C24	C	-0.722591	-1.881469	-0.752460
C25	C	-0.631282	-1.881402	-0.752423
C26	C	-0.049072	-1.881573	-0.752517
C27	C	0.040554	-1.881642	-0.752556
C28	C	-0.241827	-1.906921	-1.083516
C29	C	-0.234341	-1.917791	-1.224608
C30	C	-0.241950	-1.212508	-0.777877
C31	C	-0.234504	-1.353600	-0.788709
C32	C	-0.276829	-1.856075	-0.422625
C33	C	-0.284075	-1.845451	-0.281553
H34	H	-0.186243	-1.412814	-0.859024
Br35	Br	-0.153828	-2.034902	-1.323258
H36	H	-0.332473	-1.351291	-0.645918
H37	H	-0.332383	-1.775204	-1.222366
