data_functionalizedCrystal
_audit_creation_method	'MofGen! by Chris Wilmer'
_symmetry_space_group_name_H-M	'P1'
_symmetry_Int_Tables_number	1
_symmetry_cell_setting	triclinic
loop_
_symmetry_equiv_pos_as_xyz
  x,y,z
_cell_length_a	12.811453
_cell_length_b	12.837942
_cell_length_c	14.750712
_cell_angle_alpha	104.005130
_cell_angle_beta	82.557560
_cell_angle_gamma	89.412981
loop_
_atom_site_label
_atom_site_type_symbol
_atom_site_fract_x
_atom_site_fract_y
_atom_site_fract_z
O1	O	-1.355734	-0.195237	-0.197845
O2	O	-0.855734	0.304763	0.302155
O3	O	-1.058330	-0.203154	-0.171958
O4	O	-0.558330	0.296846	0.328042
O5	O	-1.200439	-0.048101	-0.184322
O6	O	-0.700439	0.451899	0.315678
O7	O	-1.213625	-0.350290	-0.185481
O8	O	-0.713625	0.149710	0.314519
O9	O	-1.240610	-0.004276	-0.028166
O10	O	-0.740610	0.495724	0.471834
O11	O	-1.098502	-0.159329	-0.015802
O12	O	-0.598502	0.340671	0.484198
O13	O	-1.395905	-0.151412	-0.041690
O14	O	-0.895905	0.348588	0.458310
Zn15	Zn	-1.253581	-0.148412	-0.003953
Zn16	Zn	-0.753581	0.351588	0.496047
Zn17	Zn	-1.200654	-0.206154	-0.209695
Zn18	Zn	-0.700654	0.293846	0.290305
O19	O	-1.253796	-0.306465	-0.029326
O20	O	-0.753796	0.193535	0.470674
C21	C	-1.040085	-0.179453	-0.090543
C22	C	-0.540085	0.320547	0.409457
C23	C	-0.925871	-0.174112	-0.080601
C24	C	-0.425871	0.325888	0.419399
C25	C	-0.667448	-0.211877	-0.232177
C26	C	-0.167448	0.288123	0.267823
C27	C	-0.560132	-0.206860	-0.222840
C28	C	-0.060132	0.293140	0.277160
C29	C	-0.603921	-0.159068	-0.052590
C30	C	-0.103921	0.340932	0.447410
C31	C	-0.711237	-0.164085	-0.061928
C32	C	-0.211237	0.335915	0.438072
C33	C	-0.742996	-0.190489	-0.151724
C34	C	-0.242996	0.309511	0.348276
C35	C	-0.850314	-0.195498	-0.161061
C36	C	-0.350314	0.304502	0.338939
C37	C	-0.894100	-0.147714	0.009188
C38	C	-0.394100	0.352286	0.509188
C39	C	-0.786785	-0.142697	0.018526
C40	C	-0.286785	0.357303	0.518526
C41	C	-1.216069	0.012561	-0.105857
C42	C	-0.716069	0.512561	0.394143
C43	C	-1.202780	0.128021	-0.104702
C44	C	-0.702780	0.628021	0.395298
C45	C	-0.414150	-0.175113	-0.123105
C46	C	0.085850	0.324887	0.376895
C47	C	-0.528364	-0.180455	-0.133049
C48	C	-0.028364	0.319545	0.366951
C49	C	-1.238166	-0.367127	-0.107793
C50	C	-0.738166	0.132873	0.392207
C51	C	-1.251453	-0.482589	-0.108954
C52	C	-0.751453	0.017411	0.391046
N53	N	-1.289710	-0.109005	0.136459
N54	N	-0.789710	0.390995	0.636459
C55	C	-1.362527	0.364363	-0.118627
C56	C	-0.862527	0.864363	0.381373
C57	C	-1.350045	0.472849	-0.117542
C58	C	-0.850045	0.972849	0.382458
C59	C	-1.165335	0.453478	-0.101454
C60	C	-0.665335	0.953478	0.398546
C61	C	-1.177817	0.344992	-0.102539
C62	C	-0.677817	0.844992	0.397461
C63	C	-1.276416	0.300440	-0.111124
C64	C	-0.776416	0.800440	0.388876
C65	C	-1.288898	0.191954	-0.112202
C66	C	-0.788898	0.691954	0.387798
C67	C	-1.104187	0.172583	-0.096121
C68	C	-0.604187	0.672583	0.403879
C69	C	-1.091706	0.281069	-0.095036
C70	C	-0.591706	0.781069	0.404964
C71	C	-1.063612	-0.355580	0.507949
C72	C	-0.563612	0.144420	1.007949
C73	C	-1.088937	-0.327973	0.606245
C74	C	-0.588937	0.172027	1.106245
C75	C	-1.214808	-0.190727	0.595256
C76	C	-0.714808	0.309273	1.095256
C77	C	-1.189490	-0.218318	0.496957
C78	C	-0.689490	0.281682	0.996957
C79	C	-1.113892	-0.300747	0.453312
C80	C	-0.613892	0.199253	0.953312
C81	C	-1.239770	-0.163485	0.442321
C82	C	-0.739770	0.336515	0.942321
C83	C	-1.214457	-0.191079	0.344030
C84	C	-0.714457	0.308921	0.844030
C85	C	-1.138865	-0.273506	0.300377
C86	C	-0.638865	0.226494	0.800377
C87	C	-1.088579	-0.328341	0.355022
C88	C	-0.588579	0.171659	0.855022
C89	C	-1.315373	-0.081062	0.485968
C90	C	-0.815373	0.418938	0.985968
C91	C	-1.365653	-0.026229	0.431331
C92	C	-0.865653	0.473771	0.931331
C93	C	-1.340335	-0.053817	0.333039
C94	C	-0.840335	0.446183	0.833039
C95	C	-1.264743	-0.136245	0.289386
C96	C	-0.764743	0.363755	0.789386
C97	C	-1.390621	0.001017	0.278395
C98	C	-0.890621	0.501017	0.778395
C99	C	-1.365308	-0.026577	0.180105
C100	C	-0.865308	0.473423	0.680105
C101	C	-1.239430	-0.163838	0.191096
C102	C	-0.739430	0.336162	0.691096
N103	N	-1.164522	-0.245565	0.649893
N104	N	-0.664522	0.254435	1.149893
H105	H	-0.498623	-0.224280	-0.288353
H106	H	0.001377	0.275720	0.211647
H107	H	-0.578043	-0.137581	0.020518
H108	H	-0.078043	0.362419	0.520518
H109	H	-1.369183	0.155682	-0.119189
H110	H	-0.869183	0.655682	0.380811
H111	H	-1.442812	0.328091	-0.125608
H112	H	-0.942812	0.828091	0.374392
C113	C	-1.444776	0.543164	-0.125789
C114	C	-0.944776	1.043164	0.374211
N115	N	-1.516132	0.596126	-0.132000
N116	N	-1.016132	1.096126	0.368000
H117	H	-0.693306	-0.233371	-0.305293
H118	H	-0.193306	0.266629	0.194707
C119	C	-0.885246	-0.224545	-0.259838
C120	C	-0.385246	0.275455	0.240162
N121	N	-0.911554	-0.246427	-0.334239
N122	N	-0.411554	0.253573	0.165761
H123	H	-1.118260	-0.295975	0.220343
H124	H	-0.618260	0.204025	0.720343
H125	H	-1.011428	0.317358	-0.088050
H126	H	-0.511428	0.817358	0.411950
C127	C	-0.751836	-0.113652	0.117297
C128	C	-0.251836	0.386348	0.617297
N129	N	-0.725515	-0.091770	0.191693
N130	N	-0.225515	0.408230	0.691693
H131	H	-1.085058	0.489769	-0.094474
H132	H	-0.585058	0.989769	0.405526
C133	C	-1.009459	0.102258	-0.087866
C134	C	-0.509459	0.602258	0.412134
N135	N	-0.938113	0.049288	-0.081647
N136	N	-0.438113	0.549288	0.418353
H137	H	-1.177863	-0.230952	0.155559
H138	H	-0.677863	0.269048	0.655559
H139	H	-0.955625	-0.130296	0.074699
H140	H	-0.455625	0.369704	0.574699
C141	C	-1.005372	-0.418973	0.307010
C142	C	-0.505372	0.081027	0.807010
N143	N	-0.942689	-0.487223	0.270849
N144	N	-0.442689	0.012777	0.770849
C145	C	-0.980404	-0.446213	0.459937
C146	C	-0.480404	0.053787	0.959937
N147	N	-0.917722	-0.514462	0.423776
N148	N	-0.417722	-0.014462	0.923776
C149	C	-1.033615	-0.388299	0.666343
C150	C	-0.533615	0.111701	1.166343
N151	N	-0.991949	-0.433736	0.711609
N152	N	-0.491949	0.066264	1.211609
C153	C	-1.297961	-0.100054	0.643278
C154	C	-0.797961	0.399946	1.143278
N155	N	-1.360589	-0.031754	0.679447
N156	N	-0.860589	0.468246	1.179447
H157	H	-1.335983	-0.058602	0.566002
H158	H	-0.835983	0.441398	1.066002
H159	H	-1.452181	0.068124	0.313943
H160	H	-0.952181	0.568124	0.813943
H161	H	-1.427208	0.040883	0.466878
H162	H	-0.927208	0.540883	0.966878
H163	H	-1.406253	0.018074	0.135618
H164	H	-0.906253	0.518074	0.635618
