data_functionalizedCrystal
_audit_creation_method	'MofGen! by Chris Wilmer'
_symmetry_space_group_name_H-M	'P1'
_symmetry_Int_Tables_number	1
_symmetry_cell_setting	triclinic
loop_
_symmetry_equiv_pos_as_xyz
  x,y,z
_cell_length_a	10.686285
_cell_length_b	12.594517
_cell_length_c	10.686551
_cell_angle_alpha	85.615660
_cell_angle_beta	99.084519
_cell_angle_gamma	94.373749
loop_
_atom_site_label
_atom_site_type_symbol
_atom_site_fract_x
_atom_site_fract_y
_atom_site_fract_z
Zn1	Zn	-0.450424	-1.700419	0.678566
Zn2	Zn	-0.679004	-1.700333	0.450064
Zn3	Zn	-0.466749	-1.509739	0.466378
Zn4	Zn	-0.662596	-1.535109	0.662310
O5	O	-0.564693	-1.611400	0.564330
O6	O	-0.480781	-1.849354	0.648231
O7	O	-0.664547	-1.664396	0.274601
O8	O	-0.286959	-1.524452	0.508155
O9	O	-0.648718	-1.849290	0.480351
O10	O	-0.274966	-1.664543	0.664050
O11	O	-0.508604	-1.524368	0.286586
O12	O	-0.492694	-1.364158	0.492393
O13	O	-0.620752	-1.567692	0.842094
O14	O	-0.636582	-1.382798	0.636344
O15	O	-0.464871	-1.689144	0.854038
O16	O	-0.854452	-1.688997	0.464589
O17	O	-0.842397	-1.567608	0.620525
C18	C	-0.564629	-1.334858	0.564375
C19	C	-0.564630	-1.216555	0.564422
C20	C	-0.643066	-1.157471	0.642546
C21	C	-0.524935	-1.081599	0.682633
C22	C	-0.682848	-1.081633	0.524317
C23	C	-0.446433	-1.142241	0.604574
C24	C	-0.604428	-1.142283	0.446198
C25	C	-0.486221	-1.066435	0.486247
C26	C	-0.894478	-1.631077	0.539050
C27	C	-1.035558	-1.639595	0.528278
C28	C	-0.233619	-1.591677	0.589736
C29	C	-0.092534	-1.583272	0.600562
C30	C	-0.539160	-1.631257	0.895411
C31	C	-0.528280	-1.639719	1.036498
C32	C	-0.564745	-0.889023	0.564305
C33	C	-0.564734	-1.007330	0.564347
C34	C	-0.590036	-1.591676	0.234544
C35	C	-0.600559	-1.583399	0.093485
H36	H	-0.709256	-1.197113	0.708708
H37	H	-0.491311	-1.054775	0.782581
O38	O	-1.106306	-1.704913	0.444744
C39	C	-1.316148	-1.773201	0.357436
C40	C	-1.236181	-1.699187	0.452083
H41	H	-1.421168	-1.768579	0.363318
H42	H	-1.288418	-1.858813	0.381818
H43	H	-1.298050	-1.746946	0.257027
H44	H	-1.254236	-1.725345	0.552524
H45	H	-1.263925	-1.613591	0.427592
O46	O	-0.444657	-1.705129	1.106990
C47	C	-0.379919	-1.884920	1.152438
C48	C	-0.474722	-1.810971	1.072542
H49	H	-0.404177	-1.970504	1.124597
H50	H	-0.385775	-1.880445	1.257485
H51	H	-0.279554	-1.858533	1.134320
H52	H	-0.575130	-1.837307	1.090551
H53	H	-0.468756	-1.815454	0.967521
O54	O	-0.327147	-1.173924	0.645327
C55	C	-0.150139	-1.178371	0.815622
C56	C	-0.285211	-1.142404	0.769614
H57	H	-0.116204	-1.152921	0.916122
H58	H	-0.083155	-1.139972	0.749533
H59	H	-0.151101	-1.268925	0.815293
H60	H	-0.284372	-1.051861	0.769945
H61	H	-0.352138	-1.180881	0.835714
O62	O	-1.021784	-1.518062	0.684208
C63	C	-0.811941	-1.449756	0.771487
C64	C	-0.891921	-1.523666	0.676727
H65	H	-0.706934	-1.454244	0.765452
H66	H	-0.829889	-1.476062	0.871932
H67	H	-0.839809	-1.364176	0.747167
H68	H	-0.864101	-1.609266	0.700930
H69	H	-0.873965	-1.497269	0.576309
H70	H	-0.670768	-1.528710	1.034338
H71	H	-0.419852	-1.026985	0.420155
O72	O	-0.644715	-1.174467	0.327080
C73	C	-0.800804	-1.279472	0.192130
C74	C	-0.755285	-1.243123	0.327097
H75	H	-0.890220	-1.334969	0.192094
H76	H	-0.723233	-1.323548	0.160248
H77	H	-0.822700	-1.206733	0.124103
H78	H	-0.733402	-1.315803	0.395218
H79	H	-0.832883	-1.199010	0.358874
O80	O	-0.802146	-1.049805	0.484027
C81	C	-1.019563	-1.060273	0.520983
C82	C	-0.884527	-1.096421	0.566716
H83	H	-1.086200	-1.097927	0.587830
H84	H	-1.054201	-1.086414	0.420894
H85	H	-1.018233	-0.969641	0.520412
H86	H	-0.885751	-1.187047	0.567368
H87	H	-0.849943	-1.070200	0.666778
