data_functionalizedCrystal
_audit_creation_method	'MofGen! by Chris Wilmer'
_symmetry_space_group_name_H-M	'P1'
_symmetry_Int_Tables_number	1
_symmetry_cell_setting	triclinic
loop_
_symmetry_equiv_pos_as_xyz
  x,y,z
_cell_length_a	14.446369
_cell_length_b	14.446369
_cell_length_c	14.446369
_cell_angle_alpha	59.998264
_cell_angle_beta	90.000000
_cell_angle_gamma	59.996355
loop_
_atom_site_label
_atom_site_type_symbol
_atom_site_fract_x
_atom_site_fract_y
_atom_site_fract_z
Zr1	Zr	0.891722	1.013208	-0.121455
O2	O	0.743902	1.206344	-0.269271
O3	O	0.937044	0.820082	-0.076140
O4	O	0.937031	1.013213	-0.269262
O5	O	0.743917	1.013205	0.076188
O6	O	1.089368	1.013205	-0.269257
O7	O	0.743914	1.013213	-0.076149
O8	O	1.089390	0.667728	0.076204
O9	O	0.743895	1.358681	-0.269272
O10	O	1.070053	0.899507	-0.056811
O11	O	0.956367	0.899507	0.056872
O12	O	0.956353	1.126894	-0.170504
O13	O	0.842667	1.126894	-0.056821
Zr14	Zr	1.134687	1.013181	0.121514
Zr15	Zr	1.134682	1.013194	-0.121446
Zr16	Zr	0.891727	1.013194	0.121505
Zr17	Zr	0.891711	1.256167	-0.121457
Zr18	Zr	1.134698	0.770221	0.121516
O19	O	1.089366	1.206307	0.076200
O20	O	1.089360	1.206326	-0.269258
O21	O	0.743908	1.206326	0.076187
O22	O	1.282508	0.820044	0.269331
O23	O	1.282502	0.820063	-0.076127
O24	O	0.937050	0.820063	0.269318
O25	O	1.282493	1.013184	-0.076129
O26	O	1.089378	1.013175	0.269322
O27	O	0.937041	1.013184	0.269316
O28	O	1.282495	1.013175	0.076208
O29	O	0.937015	1.358671	-0.269265
O30	O	1.089394	0.667718	0.269325
O31	O	1.282515	0.667707	0.269332
O32	O	1.282511	0.667718	0.076211
O33	O	0.743898	1.358671	-0.076151
O34	O	0.937019	1.358660	-0.076144
O35	O	1.070057	0.899494	0.170564
O36	O	1.183742	0.899494	0.056881
O37	O	1.070042	1.126882	-0.056813
O38	O	0.956357	1.126882	0.056871
C39	C	1.013218	0.709288	0.000032
C40	C	1.013223	0.606146	0.000033
C41	C	1.084927	0.566863	-0.071679
C42	C	1.084592	0.459944	-0.072065
C43	C	0.889619	0.546959	-0.051900
C44	C	0.890034	0.654335	-0.052439
C45	C	1.064083	0.479323	0.123711
C46	C	1.066557	0.370860	0.123521
C47	C	0.709299	1.013211	0.000019
C48	C	0.606156	1.013217	0.000015
C49	C	0.387779	1.156615	-0.071330
C50	C	0.495011	1.156711	-0.071731
C51	C	0.602834	0.941987	-0.052286
C52	C	0.495065	0.942897	-0.052809
C53	C	0.496432	0.939935	0.123751
C54	C	0.602401	0.942637	0.123556
C55	C	1.317111	1.013178	0.000041
C56	C	1.420254	1.013172	0.000045
C57	C	1.013199	1.013211	-0.303876
C58	C	1.013197	1.013217	-0.407019
C59	C	1.013191	1.317100	0.000028
C60	C	1.013186	1.420243	0.000027
C61	C	0.941141	1.156615	-0.625392
C62	C	0.941445	1.156711	-0.518160
C63	C	1.136734	0.941978	-0.410338
C64	C	1.136347	0.942888	-0.518107
C65	C	0.962740	0.939944	-0.516749
C66	C	0.960232	0.942647	-0.410780
C67	C	1.013210	1.013178	0.303936
C68	C	1.013212	1.013172	0.407079
C69	C	1.317125	0.709272	0.000043
C70	C	1.420272	0.606123	0.000048
C71	C	1.013224	0.709272	0.303938
C72	C	1.013231	0.606123	0.407082
C73	C	1.317130	0.709255	0.303949
C74	C	1.420280	0.606101	0.407097
C75	C	0.709279	1.317133	-0.303890
C76	C	0.606130	1.420288	-0.407037
C77	C	0.709285	1.317117	0.000016
C78	C	0.606137	1.420265	0.000012
C79	C	1.013185	1.317117	-0.303878
C80	C	1.013179	1.420265	-0.407022
C81	C	1.638649	0.459793	0.071385
C82	C	1.531412	0.566722	0.071791
C83	C	1.423607	0.479260	0.052348
C84	C	1.531381	0.371877	0.052866
C85	C	1.529997	0.546867	-0.123696
C86	C	1.424023	0.655345	-0.123496
C87	C	0.941190	0.459803	0.482067
C88	C	0.941487	0.566737	0.374731
C89	C	1.136771	0.479254	0.481645
C90	C	1.136390	0.371867	0.588510
C91	C	0.962775	0.546850	0.590089
C92	C	0.960261	0.655333	0.481411
C93	C	1.495277	0.459741	0.625470
C94	C	1.387935	0.566698	0.518233
C95	C	1.494829	0.479247	0.410412
C96	C	1.601700	0.371836	0.518185
C97	C	1.603307	0.546782	0.516845
C98	C	1.494623	0.655287	0.410871
H99	H	0.849344	0.745210	-0.143437
C100	C	0.988056	0.338680	0.480655
H101	H	1.051355	0.264079	0.547400
H102	H	0.930770	0.324743	0.477732
H103	H	1.010984	0.352488	0.415965
C104	C	1.185194	0.425976	0.182363
H105	H	1.205875	0.480556	0.131964
H106	H	1.187927	0.424916	0.248608
H107	H	1.236504	0.339547	0.202676
H108	H	0.848633	0.585629	-0.142021
H109	H	1.681527	0.521983	0.489402
H110	H	1.693641	0.370116	0.162088
C111	C	0.708576	0.799461	0.014549
H112	H	0.755804	0.782091	0.075084
H113	H	0.685947	0.741684	0.044254
H114	H	0.749226	0.786689	-0.034462
H115	H	1.345337	0.501514	0.002866
C116	C	0.531071	0.800733	0.012871
H117	H	0.611436	0.742680	0.039746
H118	H	0.503977	0.781847	0.075329
H119	H	0.500026	0.789965	-0.035961
C120	C	1.189536	0.248747	0.175941
H121	H	1.208285	0.227931	0.122799
H122	H	1.239446	0.265853	0.194944
H123	H	1.196738	0.177105	0.242412
H124	H	0.604966	0.991468	-0.142453
C125	C	1.033309	0.797197	-0.479670
H126	H	1.093232	0.782245	-0.510435
H127	H	1.064031	0.739619	-0.399278
H128	H	0.986199	0.781675	-0.506450
C129	C	1.037687	0.688157	-0.194202
H130	H	1.081493	0.663561	-0.236946
H131	H	0.961084	0.723958	-0.227509
H132	H	1.041357	0.751779	-0.193738
C133	C	0.987989	1.232295	-0.699661
H134	H	1.051283	1.176853	-0.710962
H135	H	0.930691	1.306446	-0.770889
H136	H	1.010918	1.260256	-0.662934
C137	C	1.212430	0.799451	-0.304599
H138	H	1.169262	0.782087	-0.257374
H139	H	1.240504	0.741673	-0.327228
H140	H	1.274216	0.786674	-0.263947
C141	C	1.191744	0.427153	0.411938
H142	H	1.139601	0.482517	0.337412
H143	H	1.258003	0.425859	0.408341
H144	H	1.211519	0.340938	0.447052
H145	H	1.193004	0.341902	0.667097
H146	H	1.421478	0.440696	0.142516
C147	C	1.314618	0.687404	0.520414
H148	H	1.248770	0.753085	0.454726
H149	H	1.292869	0.663195	0.586229
H150	H	1.356985	0.720414	0.521618
H151	H	1.192962	0.837646	-0.491450
C152	C	1.191704	1.008810	-0.407460
H153	H	1.139563	1.080117	-0.404242
H154	H	1.257965	0.947430	-0.342486
H155	H	1.211475	1.040143	-0.473898
H156	H	1.015016	0.522052	0.668310
C157	C	0.313517	1.232299	-0.193870
H158	H	0.302220	1.176858	-0.201724
H159	H	0.242285	1.306453	-0.210738
H160	H	0.350253	1.260253	-0.244752
C161	C	1.534721	0.516102	0.195067
H162	H	1.601681	0.430026	0.245093
H163	H	1.534315	0.572207	0.211574
H164	H	1.470212	0.514818	0.204593
C165	C	0.988741	0.516155	0.302040
H166	H	1.007846	0.430089	0.338078
H167	H	0.933001	0.572293	0.229440
H168	H	1.054535	0.514858	0.293766
H169	H	1.175571	0.370707	-0.037269
C170	C	1.597573	0.600292	-0.182740
H171	H	1.672888	0.545848	-0.132489
H172	H	1.599122	0.601179	-0.248906
H173	H	1.562414	0.686795	-0.203232
H174	H	1.492951	0.496964	0.679438
C175	C	0.841707	1.001963	-0.584320
H176	H	0.820823	1.073105	-0.659626
H177	H	0.839223	0.938270	-0.585893
H178	H	0.790397	1.032810	-0.549138
C179	C	0.491703	1.232690	-0.195005
H180	H	0.424747	1.263605	-0.245034
H181	H	0.492102	1.304899	-0.211509
H182	H	0.556216	1.176422	-0.204533
H183	H	1.692604	0.497033	0.036482
C184	C	0.314869	1.232676	-0.024196
H185	H	0.303572	1.177641	0.039430
H186	H	0.352472	1.260149	-0.001731
H187	H	0.243562	1.307159	-0.081209
C188	C	1.492913	0.513391	-0.195876
H189	H	1.523685	0.422697	-0.150902
H190	H	1.412519	0.563069	-0.222725
H191	H	1.519682	0.533728	-0.258516
H192	H	0.869220	0.994590	-0.411303
H193	H	1.424539	0.745837	-0.162565
H194	H	0.446407	0.985827	0.167442
H195	H	1.494237	0.370077	0.680442
C196	C	1.601329	0.249238	0.586198
H197	H	1.666512	0.182642	0.652531
H198	H	1.534994	0.270585	0.607115
H199	H	1.602267	0.218841	0.540907
C200	C	1.495385	0.331386	-0.012800
H201	H	1.415021	0.380571	-0.039667
H202	H	1.522472	0.347862	-0.075261
H203	H	1.526441	0.240733	0.036042
H204	H	1.007270	0.837958	-0.331620
C205	C	0.814256	0.516616	0.015291
H206	H	0.739937	0.594574	-0.017536
H207	H	0.811165	0.453557	0.013100
H208	H	0.845168	0.483013	0.091766
C209	C	0.818557	1.232229	-0.520349
H210	H	0.767997	1.263129	-0.586936
H211	H	0.809613	1.175727	-0.455434
H212	H	0.802237	1.304448	-0.520056
C213	C	1.190972	0.249265	0.588144
H214	H	1.213164	0.265431	0.522811
H215	H	1.255686	0.177487	0.654326
H216	H	1.137723	0.229258	0.587041
C217	C	0.492828	1.232220	-0.024361
H218	H	0.558511	1.232380	-0.024542
H219	H	0.427006	1.319790	-0.070327
H220	H	0.491635	1.191061	0.051023
H221	H	0.601881	0.994573	0.162628
H222	H	1.581734	0.281113	0.143896
H223	H	1.520146	0.687417	0.331716
C224	C	0.837313	0.777597	0.411944
H225	H	0.818333	0.798581	0.337948
H226	H	0.787428	0.760549	0.448160
H227	H	0.830335	0.849106	0.406844
C228	C	0.841744	0.600321	0.595643
H229	H	0.820867	0.545896	0.599812
H230	H	0.839261	0.601230	0.660909
H231	H	0.790429	0.686821	0.529609
C232	C	1.533583	0.687429	0.024424
H233	H	1.467898	0.753090	0.024610
H234	H	1.599403	0.663204	0.070391
H235	H	1.534775	0.720470	-0.050961
H236	H	1.344861	0.687479	-0.181148
H237	H	0.833664	0.684075	-0.003569
H238	H	0.850516	0.656096	0.320457
H239	H	1.176149	0.529746	-0.037072
H240	H	1.522065	0.501499	0.332148
H241	H	0.849990	0.497048	0.479728
C242	C	1.425109	0.427167	0.407528
H243	H	1.350585	0.482531	0.404310
H244	H	1.421501	0.425890	0.342554
H245	H	1.460221	0.340947	0.473967
C246	C	0.427039	1.011300	-0.175782
H247	H	0.465394	1.038277	-0.224950
H248	H	0.419980	0.952183	-0.181373
H249	H	0.353775	1.085666	-0.196896
H250	H	1.019758	0.338555	0.181403
H251	H	0.681566	0.837949	0.181210
C252	C	1.212458	0.509294	0.518431
H253	H	1.169284	0.599694	0.488566
H254	H	1.240532	0.458587	0.598840
H255	H	1.274244	0.488156	0.490556
C256	C	1.608875	0.600223	0.584423
H257	H	1.613046	0.545790	0.659727
H258	H	1.674146	0.601124	0.586004
H259	H	1.542845	0.686724	0.549241
H260	H	1.007292	0.687455	0.506936
H261	H	0.523877	0.834267	0.177183
H262	H	1.334137	0.529250	0.520676
C263	C	1.425166	0.777555	0.411541
H264	H	1.470597	0.806844	0.413824
H265	H	1.360376	0.844899	0.344875
H266	H	1.401682	0.756351	0.476345
C267	C	1.036880	0.510735	-0.195312
H268	H	1.017617	0.596875	-0.245338
H269	H	1.092447	0.454784	-0.212031
H270	H	0.971118	0.511907	-0.204609
C271	C	0.817938	1.232687	-0.698306
H272	H	0.809347	1.177656	-0.709608
H273	H	0.767996	1.260165	-0.660706
H274	H	0.800470	1.307167	-0.769610
H275	H	1.680284	0.341871	0.491534
H276	H	1.012106	0.503881	0.177384
H277	H	0.976453	1.212953	-0.520612
H278	H	1.176752	0.993510	-0.568451
