data_functionalizedCrystal
_audit_creation_method	'MofGen! by Chris Wilmer'
_symmetry_space_group_name_H-M	'P1'
_symmetry_Int_Tables_number	1
_symmetry_cell_setting	triclinic
loop_
_symmetry_equiv_pos_as_xyz
  x,y,z
_cell_length_a	15.944545
_cell_length_b	14.421503
_cell_length_c	14.971486
_cell_angle_alpha	89.995913
_cell_angle_beta	83.555151
_cell_angle_gamma	90.004847
loop_
_atom_site_label
_atom_site_type_symbol
_atom_site_fract_x
_atom_site_fract_y
_atom_site_fract_z
O1	O	1.114642	0.077052	0.115321
O2	O	1.614642	0.577052	0.615321
O3	O	0.870105	0.077067	0.129549
O4	O	1.370105	0.577067	0.629549
O5	O	0.998928	0.077053	-0.007772
O6	O	1.498928	0.577053	0.492228
O7	O	0.985820	0.077067	0.252642
O8	O	1.485820	0.577067	0.752642
O9	O	0.998907	-0.077171	-0.007752
O10	O	1.498907	0.422829	0.492248
O11	O	0.870084	-0.077156	0.129570
O12	O	1.370084	0.422844	0.629570
O13	O	1.114621	-0.077171	0.115341
O14	O	1.614621	0.422829	0.615341
Cu15	Cu	0.992351	-0.091246	0.122457
Cu16	Cu	1.492351	0.408754	0.622457
Cu17	Cu	0.992376	0.091141	0.122433
Cu18	Cu	1.492376	0.591141	0.622433
O19	O	0.985798	-0.077157	0.252663
O20	O	1.485798	0.422843	0.752663
C21	C	0.838800	-0.000043	0.128970
C22	C	1.338800	0.499957	0.628970
C23	C	0.745552	-0.000037	0.127202
C24	C	1.245552	0.499963	0.627202
N25	N	0.992339	-0.219527	0.122474
N26	N	1.492339	0.280473	0.622474
C27	C	0.474833	-0.000052	0.036801
C28	C	0.974833	0.499948	0.536801
C29	C	0.525446	-0.076092	0.080395
C30	C	1.025446	0.423908	0.580395
C31	C	0.409902	-0.000053	0.120897
C32	C	0.909902	0.499947	0.620897
C33	C	0.525448	0.075960	0.080398
C34	C	1.025448	0.575960	0.580398
C35	C	0.574819	-0.000044	0.123990
C36	C	1.074819	0.499956	0.623990
C37	C	0.459287	-0.076156	0.164469
C38	C	0.959287	0.423844	0.664469
C39	C	0.459285	0.075964	0.164459
C40	C	0.959285	0.575964	0.664459
C41	C	0.509865	-0.000094	0.208115
C42	C	1.009865	0.499906	0.708115
C43	C	0.314899	-0.000060	0.119113
C44	C	0.814899	0.499940	0.619113
C45	C	0.669820	-0.000044	0.125781
C46	C	1.169820	0.499956	0.625781
C47	C	0.932761	-0.469174	0.185943
C48	C	1.432761	0.030826	0.685943
C49	C	1.008678	-0.530980	0.203306
C50	C	1.508678	-0.030980	0.703306
C51	C	0.992359	-0.408688	0.122452
C52	C	1.492359	0.091312	0.622452
C53	C	0.916462	-0.530976	0.105110
C54	C	1.416462	-0.030976	0.605110
C55	C	0.992372	-0.591410	0.122434
C56	C	1.492372	-0.091410	0.622434
C57	C	1.068314	-0.469134	0.139856
C58	C	1.568314	0.030866	0.639856
C59	C	0.976049	-0.469124	0.041625
C60	C	1.476049	0.030876	0.541625
C61	C	1.052021	-0.530903	0.058954
C62	C	1.552021	-0.030903	0.558954
C63	C	0.992351	-0.303427	0.122465
C64	C	1.492351	0.196573	0.622465
C65	C	0.992390	-0.696669	0.122420
C66	C	1.492390	-0.196669	0.622420
C67	C	1.145926	-0.000059	0.115921
C68	C	1.645926	0.499941	0.615921
C69	C	1.239174	-0.000059	0.117689
C70	C	1.739174	0.499941	0.617689
C71	C	0.998331	-0.000059	-0.041086
C72	C	1.498331	0.499941	0.458914
C73	C	0.996574	-0.000058	-0.140381
C74	C	1.496574	0.499942	0.359619
N75	N	0.992394	0.219423	0.122410
N76	N	1.492394	0.719423	0.622410
C77	C	1.072254	-0.000063	-0.197690
C78	C	1.572254	0.499937	0.302310
C79	C	1.070599	-0.000054	-0.290988
C80	C	1.570599	0.499946	0.209012
C81	C	0.993262	-0.000046	-0.326975
C82	C	1.493262	0.499954	0.173025
C83	C	0.917577	-0.000037	-0.269659
C84	C	1.417577	0.499963	0.230341
C85	C	0.919233	-0.000040	-0.176363
C86	C	1.419233	0.499960	0.323637
C87	C	0.914129	-0.000034	-0.464117
C88	C	1.414129	0.499966	0.035883
C89	C	0.912472	-0.000033	-0.557419
C90	C	1.412472	0.499967	-0.057419
C91	C	1.065495	-0.000047	-0.578742
C92	C	1.565495	0.499953	-0.078742
C93	C	1.067151	-0.000050	-0.485446
C94	C	1.567151	0.499950	0.014554
C95	C	0.991465	-0.000044	-0.428137
C96	C	1.491465	0.499956	0.071863
C97	C	0.986395	-0.000043	0.285977
C98	C	1.486395	0.499957	0.785977
C99	C	0.988152	-0.000038	0.385272
C100	C	1.488152	0.499962	0.885272
H101	H	0.459111	-0.000130	-0.035623
H102	H	0.959111	0.499870	0.464377
N103	N	1.152227	-0.000067	-0.352796
N104	N	1.652227	0.499933	0.147204
H105	H	1.154936	-0.057236	-0.391978
H106	H	1.654936	0.442764	0.108022
H107	H	1.154915	0.057143	-0.391924
H108	H	1.654915	0.557143	0.108076
N109	N	0.831441	-0.566957	0.085673
N110	N	1.331441	-0.066957	0.585673
H111	H	0.832239	-0.636985	0.085230
H112	H	1.332239	-0.136985	0.585230
H113	H	0.786509	-0.544439	0.133692
H114	H	1.286509	-0.044439	0.633692
N115	N	0.837608	-0.000029	-0.114546
N116	N	1.337608	0.499971	0.385454
H117	H	0.788363	-0.000024	-0.151499
H118	H	1.288363	0.499976	0.348501
H119	H	0.834951	-0.057200	-0.075366
H120	H	1.334951	0.442800	0.424634
H121	H	0.430502	-0.140511	0.199967
H122	H	0.930502	0.359489	0.699967
N123	N	1.147130	-0.000056	-0.640548
N124	N	1.647130	0.499944	-0.140548
H125	H	1.134348	-0.000049	-0.705112
H126	H	1.634348	0.499951	-0.205112
H127	H	1.180842	0.057110	-0.628898
H128	H	1.680842	0.557110	-0.128898
N129	N	0.530468	-0.000146	0.304125
N130	N	1.030468	0.499854	0.804125
H131	H	0.564820	-0.057049	0.315012
H132	H	1.064820	0.442951	0.815012
H133	H	0.563954	0.057326	0.315300
H134	H	1.063954	0.557326	0.815300
N135	N	0.563695	-0.161265	0.033377
N136	N	1.063695	0.338735	0.533377
H137	H	0.551238	-0.161218	-0.031295
H138	H	1.051238	0.338782	0.468705
H139	H	0.626783	-0.160912	0.035486
H140	H	1.126783	0.339088	0.535486
H141	H	1.130125	-0.000063	-0.456149
H142	H	1.630125	0.499937	0.043851
N143	N	0.420993	0.161121	0.211456
N144	N	0.920993	0.661121	0.711456
H145	H	0.445176	0.218531	0.179611
H146	H	0.945176	0.718531	0.679611
H147	H	0.357775	0.160075	0.210417
H148	H	0.857775	0.660075	0.710417
H149	H	0.854608	-0.000025	-0.298966
H150	H	1.354608	0.499975	0.201034
N151	N	0.829062	-0.000017	-0.596238
N152	N	1.329062	0.499983	-0.096238
H153	H	0.781366	-0.000004	-0.545778
H154	H	1.281366	0.499996	-0.045778
H155	H	0.825063	0.057158	-0.634487
H156	H	1.325063	0.557158	-0.134487
N157	N	0.866067	-0.433253	0.257107
N158	N	1.366067	0.066747	0.757107
H159	H	0.808841	-0.456716	0.244638
H160	H	1.308841	0.043284	0.744638
H161	H	0.878578	-0.455759	0.318106
H162	H	1.378578	0.044241	0.818106
H163	H	1.135230	-0.000075	-0.168397
H164	H	1.635230	0.499925	0.331603
H165	H	0.554340	0.140242	0.044859
H166	H	1.054340	0.640242	0.544859
N167	N	1.026975	-0.566972	0.293833
N168	N	1.526975	-0.066972	0.793833
H169	H	0.981921	-0.544524	0.341761
H170	H	1.481921	-0.044524	0.841761
H171	H	1.027408	-0.636996	0.292893
H172	H	1.527408	-0.136996	0.792893
N173	N	1.153364	-0.433314	0.159379
N174	N	1.653364	0.066686	0.659379
H175	H	1.152827	-0.363283	0.159291
H176	H	1.652827	0.136717	0.659291
H177	H	1.165778	-0.456428	0.220205
H178	H	1.665778	0.043572	0.720205
H179	H	1.102482	-0.557836	0.005251
H180	H	1.602482	-0.057836	0.505251
H181	H	0.962218	-0.441933	-0.026699
H182	H	1.462218	0.058067	0.473301
H183	H	0.852497	-0.000026	-0.417457
H184	H	1.352497	0.499974	0.082543
