data_functionalizedCrystal
_audit_creation_method	'MofGen! by Chris Wilmer'
_symmetry_space_group_name_H-M	'P1'
_symmetry_Int_Tables_number	1
_symmetry_cell_setting	triclinic
loop_
_symmetry_equiv_pos_as_xyz
  x,y,z
_cell_length_a	12.759401
_cell_length_b	18.101397
_cell_length_c	12.759393
_cell_angle_alpha	89.963423
_cell_angle_beta	89.980324
_cell_angle_gamma	90.020892
loop_
_atom_site_label
_atom_site_type_symbol
_atom_site_fract_x
_atom_site_fract_y
_atom_site_fract_z
Zn1	Zn	1.606224	-0.294785	-0.593940
Zn2	Zn	1.606098	-0.418645	-0.418242
Zn3	Zn	1.430523	-0.294822	-0.418279
Zn4	Zn	1.430497	-0.418590	-0.593883
O5	O	1.518336	-0.356711	-0.506086
O6	O	1.753228	-0.311223	-0.570642
O7	O	1.582765	-0.402257	-0.271226
O8	O	1.453894	-0.191185	-0.441621
O9	O	1.753135	-0.402222	-0.441557
O10	O	1.582981	-0.191157	-0.570678
O11	O	1.453771	-0.311286	-0.271253
O12	O	1.283499	-0.311233	-0.441565
O13	O	1.453850	-0.402129	-0.740912
O14	O	1.283480	-0.402165	-0.570580
O15	O	1.582956	-0.311170	-0.740954
O16	O	1.582740	-0.522270	-0.441501
O17	O	1.453727	-0.522231	-0.570544
C18	C	1.245368	-0.356698	-0.506071
C19	C	1.128592	-0.356710	-0.506090
C20	C	1.073779	-0.309413	-0.573408
C21	C	0.964055	-0.309420	-0.573415
C22	C	0.963966	-0.404029	-0.438783
C23	C	1.073688	-0.404017	-0.438771
C24	C	1.518246	-0.549121	-0.506035
C25	C	1.518303	-0.631435	-0.506049
C26	C	1.518437	-0.930526	-0.506144
C27	C	1.599382	-0.899195	-0.424737
C28	C	1.599663	-0.813577	-0.424948
C29	C	1.518371	-0.782144	-0.506096
C30	C	1.548391	-0.813143	-0.616837
C31	C	1.549018	-0.898788	-0.616393
C32	C	1.407256	-0.899038	-0.477770
C33	C	1.407805	-0.813389	-0.475298
C34	C	1.518332	-0.698284	-0.506075
C35	C	1.518479	-1.014386	-0.506172
C36	C	1.792369	-0.356724	-0.506102
C37	C	1.909145	-0.356730	-0.506108
C38	C	1.518414	-0.356640	-0.780120
C39	C	1.518448	-0.356609	-0.896896
C40	C	1.518454	-0.163549	-0.506160
C41	C	1.518505	-0.081235	-0.506192
C42	C	1.585678	-0.309239	-0.951782
C43	C	1.585696	-0.309207	-1.061506
C44	C	1.451250	-0.403922	-1.061449
C45	C	1.451228	-0.403949	-0.951727
C46	C	1.518318	-0.356728	-0.233119
C47	C	1.518488	-0.356550	-0.116343
H48	H	1.118318	-0.442533	-0.383947
Br49	Br	0.889669	-0.245225	-0.664775
Br50	Br	1.568465	-0.933614	-0.287460
H51	H	1.396524	-0.442466	-1.106106
Br52	Br	1.735903	-0.934970	-0.455662
H53	H	1.682020	-0.793031	-0.443721
Br54	Br	1.148288	-0.245209	-0.664766
H55	H	1.640410	-0.270690	-0.907142
Br56	Br	1.568279	-0.778645	-0.288105
Br57	Br	1.684470	-0.931988	-0.656455
H58	H	1.396473	-0.442523	-0.907038
Br59	Br	1.455009	-0.933331	-0.720922
H60	H	0.919250	-0.442546	-0.383975
H61	H	1.491238	-0.792779	-0.679123
H62	H	1.628750	-0.791633	-0.641279
Br63	Br	1.361735	-0.935151	-0.345513
H64	H	1.385169	-0.793136	-0.393801
H65	H	1.344250	-0.792000	-0.530249
H66	H	1.346946	-0.919300	-0.537062
H67	H	1.640440	-0.270633	-1.106189
