data_functionalizedCrystal
_audit_creation_method	'MofGen! by Chris Wilmer'
_symmetry_space_group_name_H-M	'P1'
_symmetry_Int_Tables_number	1
_symmetry_cell_setting	triclinic
loop_
_symmetry_equiv_pos_as_xyz
  x,y,z
_cell_length_a	12.759401
_cell_length_b	12.759399
_cell_length_c	12.759393
_cell_angle_alpha	89.969094
_cell_angle_beta	89.979062
_cell_angle_gamma	90.016641
loop_
_atom_site_label
_atom_site_type_symbol
_atom_site_fract_x
_atom_site_fract_y
_atom_site_fract_z
Zn1	Zn	1.606263	-0.418173	-0.594017
Zn2	Zn	1.606153	-0.593888	-0.418336
Zn3	Zn	1.430562	-0.418229	-0.418352
Zn4	Zn	1.430553	-0.593815	-0.593973
O5	O	1.518383	-0.506026	-0.506170
O6	O	1.753270	-0.441489	-0.570724
O7	O	1.582818	-0.570641	-0.271317
O8	O	1.453919	-0.271200	-0.441680
O9	O	1.753189	-0.570587	-0.441652
O10	O	1.583006	-0.271159	-0.570740
O11	O	1.453812	-0.441584	-0.271329
O12	O	1.283540	-0.441513	-0.441637
O13	O	1.453903	-0.570461	-0.741000
O14	O	1.283533	-0.570516	-0.570665
O15	O	1.582997	-0.441418	-0.741032
O16	O	1.582809	-0.740900	-0.441609
O17	O	1.453796	-0.740846	-0.570649
C18	C	1.245415	-0.506013	-0.506149
C19	C	1.128639	-0.506033	-0.506165
C20	C	1.518318	-0.778994	-0.506146
C21	C	1.518387	-0.895770	-0.506171
C22	C	1.073801	-0.573307	-0.573244
C23	C	0.964077	-0.573311	-0.573265
C24	C	0.964038	-0.438764	-0.439118
C25	C	1.073760	-0.438756	-0.439104
C26	C	1.585641	-0.950625	-0.439056
C27	C	1.585708	-1.060349	-0.439091
C28	C	1.451259	-1.060353	-0.573359
C29	C	1.451198	-0.950631	-0.573328
C30	C	1.792416	-0.506040	-0.506191
C31	C	1.909193	-0.506046	-0.506200
C32	C	1.518461	-0.505925	-0.780203
C33	C	1.518495	-0.505882	-0.896980
C34	C	1.518476	-0.231993	-0.506217
C35	C	1.518516	-0.115216	-0.506237
C36	C	1.585719	-0.438679	-0.951860
C37	C	1.585737	-0.438633	-1.061584
C38	C	1.451303	-0.573004	-1.061538
C39	C	1.451281	-0.573044	-0.951816
C40	C	1.518365	-0.506051	-0.233202
C41	C	1.518535	-0.505798	-0.116426
H42	H	1.118479	-0.628086	-0.627852
O43	O	0.910678	-0.373569	-0.373864
C44	C	0.786677	-0.359267	-0.232107
C45	C	0.847059	-0.433220	-0.305926
H46	H	0.735211	-0.407464	-0.177175
H47	H	0.844672	-0.311196	-0.184085
H48	H	0.735391	-0.304377	-0.280472
H49	H	0.898347	-0.488174	-0.257642
H50	H	0.789008	-0.481218	-0.353952
H51	H	1.396555	-1.105035	-0.628034
O52	O	1.650888	-0.373282	-0.898641
C53	C	1.701979	-0.194583	-0.865168
C54	C	1.628095	-0.268531	-0.925480
H55	H	1.683592	-0.109878	-0.886863
H56	H	1.690418	-0.206060	-0.777306
H57	H	1.786686	-0.213082	-0.886742
H58	H	1.543359	-0.250078	-0.903994
H59	H	1.639747	-0.257041	-1.013328
O60	O	1.386123	-0.638383	-0.898382
C61	C	1.371918	-0.780307	-0.774514
C62	C	1.445825	-0.706369	-0.834944
H63	H	1.420159	-0.835307	-0.723226
H64	H	1.317009	-0.732139	-0.723074
H65	H	1.323865	-0.828260	-0.832571
H66	H	1.493947	-0.658400	-0.776962
H67	H	1.500665	-0.754597	-0.886399
H68	H	0.919432	-0.628090	-0.627889
O69	O	1.126875	-0.373369	-0.373839
C70	C	1.115267	-0.239873	-0.240830
C71	C	1.054985	-0.313885	-0.314662
H72	H	1.057171	-0.191745	-0.192983
H73	H	1.166571	-0.287988	-0.185735
H74	H	1.166700	-0.185040	-0.289175
H75	H	1.003496	-0.368734	-0.266402
H76	H	1.003747	-0.265705	-0.369760
O77	O	1.386119	-0.638213	-1.114970
C78	C	1.326530	-0.697662	-1.283982
C79	C	1.400420	-0.623775	-1.223605
H80	H	1.338051	-0.685999	-1.371823
H81	H	1.344944	-0.782410	-1.262474
H82	H	1.241828	-0.679224	-1.262336
H83	H	1.485147	-0.642118	-1.245218
H84	H	1.381916	-0.539048	-1.245118
O85	O	1.651009	-0.897494	-0.373793
C86	C	1.784327	-0.909077	-0.240579
C87	C	1.710365	-0.969373	-0.314453
H88	H	1.832320	-0.967164	-0.192567
H89	H	1.839280	-0.857648	-0.288795
H90	H	1.736073	-0.857767	-0.185630
H91	H	1.758535	-1.020739	-0.369416
H92	H	1.655409	-1.020735	-0.266171
H93	H	1.640474	-1.105007	-0.384441
H94	H	1.396432	-0.905965	-0.627986
H95	H	1.640476	-0.383908	-1.106263
