data_functionalizedCrystal
_audit_creation_method	'MofGen! by Chris Wilmer'
_symmetry_space_group_name_H-M	'P1'
_symmetry_Int_Tables_number	1
_symmetry_cell_setting	triclinic
loop_
_symmetry_equiv_pos_as_xyz
  x,y,z
_cell_length_a	19.077236
_cell_length_b	29.839131
_cell_length_c	19.076919
_cell_angle_alpha	92.260621
_cell_angle_beta	90.112677
_cell_angle_gamma	87.667042
loop_
_atom_site_label
_atom_site_type_symbol
_atom_site_fract_x
_atom_site_fract_y
_atom_site_fract_z
Zn1	Zn	1.058221	0.163080	0.440493
Zn2	Zn	1.062830	0.235076	0.322965
Zn3	Zn	0.945437	0.162844	0.318273
Zn4	Zn	0.940647	0.241069	0.435701
O5	O	1.001784	0.200517	0.379358
O6	O	1.157167	0.170221	0.428871
O7	O	1.051191	0.222887	0.224012
O8	O	0.960474	0.100008	0.334528
O9	O	1.160554	0.223116	0.342524
O10	O	1.043336	0.100181	0.424322
O11	O	0.964943	0.169819	0.220565
O12	O	0.846467	0.175631	0.329881
O13	O	0.952310	0.233331	0.534667
O14	O	0.842948	0.233102	0.416155
O15	O	1.038691	0.176032	0.538187
O16	O	1.046547	0.298739	0.337878
O17	O	0.956779	0.303142	0.420704
C18	C	0.819210	0.204992	0.371990
C19	C	0.741104	0.206917	0.368854
C20	C	0.702644	0.180330	0.412406
C21	C	0.629255	0.182136	0.409454
C22	C	0.594327	0.210534	0.362952
C23	C	0.632792	0.237122	0.319396
C24	C	0.706180	0.235313	0.322345
C25	C	0.375030	0.218891	0.349300
C26	C	0.301636	0.220700	0.346356
C27	C	0.298104	0.165713	0.436413
C28	C	0.371494	0.163908	0.439361
C29	C	0.409953	0.190495	0.395802
N30	N	0.519311	0.212382	0.359935
N31	N	0.484967	0.188644	0.398816
C32	C	1.001662	0.317242	0.379296
C33	C	1.001673	0.367176	0.379296
C34	C	1.044848	0.676877	0.426185
C35	C	1.044895	0.864550	0.426233
O36	O	1.081535	0.888865	0.466048
N37	N	1.001799	0.887962	0.379451
C38	C	0.958685	0.864452	0.332657
O39	O	0.922025	0.888671	0.292872
C40	C	0.958635	0.676780	0.332613
C41	C	1.001739	0.653371	0.379393
C42	C	1.087947	0.653468	0.472962
C43	C	1.087938	0.606552	0.472946
C44	C	1.044829	0.583046	0.426155
C45	C	1.001729	0.606455	0.379378
C46	C	0.915518	0.653272	0.285823
C47	C	0.915508	0.606351	0.285817
C48	C	0.958611	0.582941	0.332597
C49	C	0.958611	0.536033	0.332571
N50	N	1.001707	0.512622	0.379353
C51	C	1.044816	0.536128	0.426145
C52	C	0.958715	0.962983	0.332683
C53	C	0.958728	1.009900	0.332693
C54	C	1.044937	1.009995	0.426270
C55	C	1.044927	0.963076	0.426256
C56	C	1.001811	0.939571	0.379465
C57	C	1.044793	0.437602	0.426109
C58	C	1.044782	0.390682	0.426088
C59	C	0.958571	0.390591	0.332514
C60	C	0.958584	0.437507	0.332532
C61	C	1.001698	0.461011	0.379335
O62	O	0.921984	0.511690	0.292782
O63	O	1.081459	0.511901	0.465934
C64	C	1.044857	0.723793	0.426200
C65	C	1.001757	0.747202	0.379423
C66	C	0.958648	0.723696	0.332631
C67	C	1.001771	0.794120	0.379433
C68	C	1.044880	0.817626	0.426225
C69	C	1.087975	0.794215	0.473007
C70	C	1.087966	0.747299	0.472992
C71	C	0.915552	0.747107	0.285850
C72	C	0.915566	0.794023	0.285868
C73	C	0.958675	0.817529	0.332660
C74	C	1.185071	0.196026	0.386756
C75	C	1.263177	0.194112	0.389908
C76	C	0.994452	0.205376	0.562636
C77	C	0.991328	0.207447	0.640738
C78	C	1.001888	1.083339	0.379440
C79	C	1.001838	1.033407	0.379485
C80	C	1.009128	0.195644	0.196795
C81	C	1.012388	0.193443	0.118699
C82	C	1.034832	0.178589	0.679264
C83	C	1.031888	0.180533	0.752649
C84	C	0.985443	0.211338	0.787506
C85	C	0.941934	0.240197	0.748975
C86	C	0.944875	0.238251	0.675591
C87	C	0.971820	0.220356	1.006783
C88	C	0.968884	0.222302	1.080172
C89	C	1.058837	0.162637	1.083842
C90	C	1.061777	0.160695	1.010457
C91	C	1.018266	0.189552	0.971931
N92	N	0.982434	0.213327	0.862518
N93	N	1.021272	0.187561	0.896921
H94	H	0.731077	0.157207	0.450274
H95	H	1.072655	0.153506	0.650889
F96	F	0.912694	0.365566	0.282716
H97	H	0.923604	0.943848	0.294578
F98	F	1.090662	0.365771	0.475878
H99	H	0.880418	0.672323	0.247729
H100	H	1.080026	0.944019	0.464348
H101	H	1.123065	0.728242	0.511084
F102	F	0.925512	0.251070	0.965791
H103	H	0.909442	0.261746	0.644223
H104	H	0.266783	0.144067	0.471876
F105	F	0.869615	0.581337	0.236015
F106	F	0.912718	0.462421	0.282736
F107	F	0.912861	1.034809	0.282895
F108	F	0.588326	0.153839	0.455809
H109	H	0.604347	0.260242	0.281530
H110	H	0.931061	0.247388	1.108550
F111	F	1.133831	0.678478	0.522771
F112	F	1.133811	0.581644	0.522741
H113	H	1.099600	0.135611	0.982081
F114	F	0.892500	0.272980	0.786074
F115	F	1.133858	0.819240	0.522804
H116	H	0.880447	0.727972	0.247747
F117	F	0.415952	0.247180	0.302928
H118	H	0.273200	0.243826	0.308489
F119	F	1.105140	0.131925	1.124848
H120	H	0.399927	0.140786	0.477230
H121	H	0.880467	0.813078	0.247768
F122	F	1.078215	0.149833	0.793650
H123	H	0.737493	0.256963	0.286880
F124	F	1.090818	1.035020	0.476069
F125	F	1.090680	0.462610	0.475921
