data_functionalizedCrystal
_audit_creation_method	'MofGen! by Chris Wilmer'
_symmetry_space_group_name_H-M	'P1'
_symmetry_Int_Tables_number	1
_symmetry_cell_setting	triclinic
loop_
_symmetry_equiv_pos_as_xyz
  x,y,z
_cell_length_a	13.339070
_cell_length_b	14.044220
_cell_length_c	11.804365
_cell_angle_alpha	102.927057
_cell_angle_beta	74.875130
_cell_angle_gamma	104.409086
loop_
_atom_site_label
_atom_site_type_symbol
_atom_site_fract_x
_atom_site_fract_y
_atom_site_fract_z
O1	O	1.405383	0.472644	-0.099085
O2	O	1.105089	0.408756	-0.099076
O3	O	1.250726	0.301532	-0.099069
O4	O	1.259745	0.579868	-0.099093
O5	O	1.212382	0.329720	0.098985
O6	O	1.066744	0.436945	0.098978
O7	O	1.367038	0.500832	0.098969
Cu8	Cu	1.213390	0.471462	0.117057
Cu9	Cu	1.258737	0.438126	-0.117165
O10	O	1.221401	0.608057	0.098961
C11	C	1.047253	0.412058	-0.000048
C12	C	0.932048	0.379890	-0.000044
C13	C	1.227608	0.279274	-0.000041
C14	C	1.215837	0.170953	-0.000039
C15	C	0.589834	0.630011	-0.000084
C16	C	0.698075	0.660237	-0.000092
C17	C	0.756574	0.590153	-0.000079
C18	C	0.706820	0.489838	-0.000060
C19	C	0.598569	0.459607	-0.000062
C20	C	0.765309	0.419749	-0.000057
C21	C	0.715555	0.319434	-0.000038
C22	C	0.607315	0.289209	-0.000040
C23	C	0.548817	0.359293	-0.000052
C24	C	0.873560	0.449980	-0.000055
C25	C	0.882295	0.279576	-0.000034
C26	C	0.774054	0.249350	-0.000026
C27	C	1.194321	-0.027371	-0.000056
C28	C	1.277803	-0.063049	-0.000062
C29	C	1.265832	-0.173403	-0.000071
C30	C	1.206291	0.082993	-0.000047
C31	C	1.424874	0.497530	-0.000062
C32	C	1.540081	0.529697	-0.000074
C33	C	1.244520	0.630314	-0.000069
C34	C	1.256292	0.738634	-0.000078
N35	N	1.181503	0.494911	0.281796
N36	N	1.290631	0.414672	-0.281904
C37	C	1.367201	0.358346	0.655754
C38	C	1.391322	0.340602	0.531094
C39	C	1.338869	0.379178	0.468763
C40	C	1.262292	0.435500	0.531106
C41	C	1.238175	0.453251	0.655778
C42	C	1.209842	0.474083	0.468787
C43	C	1.133265	0.530405	0.531129
C44	C	1.109151	0.548153	0.655790
C45	C	1.161604	0.509578	0.718120
C46	C	1.233960	0.456332	0.344115
C47	C	1.104933	0.551237	0.344138
C48	C	1.080812	0.568980	0.468799
H49	H	0.914058	0.531657	-0.000066
H50	H	1.453671	0.294747	0.480339
C51	C	0.996561	0.630909	0.537378
H52	H	0.968759	0.651330	0.482410
H53	H	1.028048	0.688075	0.586014
H54	H	0.940876	0.591507	0.586006
H55	H	1.141963	0.524020	0.819629
H56	H	1.358282	-0.010728	-0.000144
H57	H	1.062223	0.582651	0.293390
H58	H	0.844709	0.614769	-0.000088
H59	H	0.738579	0.741912	-0.000116
C60	C	1.085628	-0.098057	-0.000043
H61	H	1.091738	-0.164024	-0.000036
H62	H	1.062407	-0.096714	-0.069100
H63	H	1.035683	-0.077058	0.069041
C64	C	1.318192	0.394390	0.275546
H65	H	1.325055	0.389350	0.192373
H66	H	1.297155	0.329535	0.295985
H67	H	1.384349	0.426086	0.295967
C68	C	0.525486	0.707090	-0.000098
H69	H	0.453894	0.674718	-0.000090
H70	H	0.554803	0.737222	-0.069167
H71	H	0.528050	0.756881	0.068974
H72	H	1.046806	0.594023	0.706549
H73	H	0.460677	0.334688	-0.000045
H74	H	0.566811	0.207524	-0.000038
H75	H	0.733530	0.167670	-0.000021
H76	H	0.929926	0.222507	-0.000029
C77	C	1.424891	0.315922	0.724318
H78	H	1.399556	0.334558	0.807492
H79	H	1.498954	0.341781	0.703869
H80	H	1.411740	0.245244	0.703904
H81	H	1.358512	0.364729	0.367259
