data_functionalizedCrystal
_audit_creation_method	'MofGen! by Chris Wilmer'
_symmetry_space_group_name_H-M	'P1'
_symmetry_Int_Tables_number	1
_symmetry_cell_setting	triclinic
loop_
_symmetry_equiv_pos_as_xyz
  x,y,z
_cell_length_a	10.654550
_cell_length_b	13.101039
_cell_length_c	10.654550
_cell_angle_alpha	86.605036
_cell_angle_beta	84.484931
_cell_angle_gamma	93.387017
loop_
_atom_site_label
_atom_site_type_symbol
_atom_site_fract_x
_atom_site_fract_y
_atom_site_fract_z
O1	O	1.674684	0.085138	0.169534
O2	O	1.309207	0.085156	0.186338
O3	O	1.500348	0.085140	-0.004803
O4	O	1.483543	0.085154	0.360675
O5	O	1.486634	-0.085289	0.008934
O6	O	1.295493	-0.085272	0.200075
O7	O	1.660970	-0.085291	0.183271
Zn8	Zn	1.476054	-0.112341	0.193854
Zn9	Zn	1.494123	0.112206	0.175755
O10	O	1.469829	-0.085275	0.374412
C11	C	1.255552	-0.000056	0.191973
C12	C	1.116109	-0.000049	0.188280
N13	N	1.463732	-0.265588	0.206205
C14	C	1.036624	-0.000047	0.300821
C15	C	0.905601	-0.000065	0.297346
C16	C	0.933563	-0.000082	0.068778
C17	C	1.064582	-0.000071	0.072255
C18	C	1.446967	-0.474630	0.223022
C19	C	1.523215	-0.525512	0.146581
C20	C	1.513887	-0.641829	0.155938
C21	C	1.456293	-0.358301	0.213667
C22	C	1.714625	-0.000077	0.177636
C23	C	1.854068	-0.000077	0.181328
C24	C	1.492257	-0.000074	-0.044732
C25	C	1.488565	-0.000072	-0.184176
N26	N	1.506455	0.265454	0.163394
C27	C	1.601106	-0.000077	-0.263661
C28	C	1.597631	-0.000065	-0.394683
C29	C	1.369063	-0.000045	-0.366721
C30	C	1.372540	-0.000051	-0.235702
C31	C	1.477920	-0.000059	0.414341
C32	C	1.481612	-0.000054	0.553784
H33	H	1.078571	-0.000037	0.395297
F34	F	0.821012	-0.000065	0.417129
H35	H	1.695581	-0.000092	-0.221713
H36	H	1.374688	-0.518421	0.295487
H37	H	1.689273	-0.000067	-0.459395
H38	H	1.274599	-0.000030	-0.408690
H39	H	0.891593	-0.000106	-0.025685
H40	H	1.129303	-0.000075	-0.019395
F41	F	1.618076	-0.468271	0.052238
H42	H	1.280890	-0.000043	-0.170982
