data_functionalizedCrystal
_audit_creation_method	'MofGen! by Chris Wilmer'
_symmetry_space_group_name_H-M	'P1'
_symmetry_Int_Tables_number	1
_symmetry_cell_setting	triclinic
loop_
_symmetry_equiv_pos_as_xyz
  x,y,z
_cell_length_a	18.215407
_cell_length_b	14.908520
_cell_length_c	18.215399
_cell_angle_alpha	93.269364
_cell_angle_beta	89.983101
_cell_angle_gamma	93.318021
loop_
_atom_site_label
_atom_site_type_symbol
_atom_site_fract_x
_atom_site_fract_y
_atom_site_fract_z
Zn1	Zn	1.108174	-0.359229	-0.432964
Zn2	Zn	1.100986	-0.510098	-0.316998
Zn3	Zn	0.985106	-0.359251	-0.309919
Zn4	Zn	0.977979	-0.510040	-0.440026
O5	O	1.043061	-0.434654	-0.374977
O6	O	1.210204	-0.379258	-0.417588
O7	O	1.085589	-0.490121	-0.213076
O8	O	1.007422	-0.233003	-0.320323
O9	O	1.204923	-0.490100	-0.332388
O10	O	1.097840	-0.232987	-0.410723
O11	O	1.000452	-0.379294	-0.207875
O12	O	0.881177	-0.379238	-0.327171
O13	O	0.995275	-0.490001	-0.542072
O14	O	0.875941	-0.490022	-0.422760
O15	O	1.090929	-0.379201	-0.536883
O16	O	1.078678	-0.636335	-0.339236
O17	O	0.988305	-0.636292	-0.429624
C18	C	0.851856	-0.434627	-0.374964
C19	C	0.770057	-0.434637	-0.374977
C20	C	0.502287	-0.492434	-0.424690
C21	C	0.579146	-0.492427	-0.424686
C22	C	0.584576	-0.376895	-0.325277
C23	C	0.507718	-0.376908	-0.325278
C24	C	0.466575	-0.434676	-0.374989
C25	C	0.620293	-0.434656	-0.374984
C26	C	0.703627	-0.434647	-0.374979
C27	C	0.383236	-0.434686	-0.374992
C28	C	1.031958	-0.669047	-0.385981
C29	C	1.027275	-0.769322	-0.390713
C30	C	1.112678	-0.957731	-0.305559
C31	C	1.108281	-1.051948	-0.310003
C32	C	1.014088	-1.051973	-0.404048
C33	C	1.018485	-0.957757	-0.399604
C34	C	1.067781	-0.910639	-0.350357
C35	C	1.072174	-0.816420	-0.345910
C36	C	0.977985	-0.816448	-0.439958
C37	C	0.973588	-0.910664	-0.444402
C38	C	1.235013	-0.434683	-0.374990
C39	C	1.316811	-0.434695	-0.374995
C40	C	1.043109	-0.434592	-0.566927
C41	C	1.043129	-0.434566	-0.648724
C42	C	1.054228	-0.199346	-0.363946
C43	C	1.058986	-0.099072	-0.359245
C44	C	1.092956	-0.376818	-0.834215
C45	C	1.092966	-0.376792	-0.911073
C46	C	0.993361	-0.492174	-0.916465
C47	C	0.993348	-0.492195	-0.839608
C48	C	1.043150	-0.434518	-0.798486
C49	C	1.043173	-0.434471	-0.952200
C50	C	1.043183	-0.434443	-1.035532
C51	C	1.043139	-0.434545	-0.715148
C52	C	1.043059	-0.434651	-0.183770
C53	C	1.043193	-0.434424	-0.101961
H54	H	0.468791	-0.539474	-0.465167
F55	F	1.156068	-1.102063	-0.262325
H56	H	1.152812	-0.919367	-0.265456
H57	H	0.478641	-0.329873	-0.284802
F58	F	0.617149	-0.553903	-0.477583
H59	H	0.618083	-0.329861	-0.284806
H60	H	1.133522	-0.329805	-0.940160
F61	F	0.940332	-0.553606	-0.801580
H62	H	1.112311	-0.778058	-0.305809
H63	H	0.973958	-1.090353	-0.444147
H64	H	1.133505	-0.329852	-0.800735
H65	H	0.952816	-0.539134	-0.949956
H66	H	0.941425	-0.778095	-0.476433
H67	H	0.933454	-0.949040	-0.484499
