data_functionalizedCrystal
_audit_creation_method	'MofGen! by Chris Wilmer'
_symmetry_space_group_name_H-M	'P1'
_symmetry_Int_Tables_number	1
_symmetry_cell_setting	triclinic
loop_
_symmetry_equiv_pos_as_xyz
  x,y,z
_cell_length_a	15.538191
_cell_length_b	16.992695
_cell_length_c	16.053919
_cell_angle_alpha	87.291003
_cell_angle_beta	86.457349
_cell_angle_gamma	68.970158
loop_
_atom_site_label
_atom_site_type_symbol
_atom_site_fract_x
_atom_site_fract_y
_atom_site_fract_z
O1	O	-1.234828	0.247438	0.069435
O2	O	-0.734828	0.747438	0.569435
O3	O	-0.967242	0.158800	0.069436
O4	O	-0.467242	0.658800	0.569436
O5	O	-1.099962	0.316957	0.069429
O6	O	-0.599962	0.816957	0.569429
O7	O	-1.102108	0.089282	0.069442
O8	O	-0.602108	0.589282	0.569442
O9	O	-1.092579	0.320727	-0.069428
O10	O	-0.592579	0.820727	0.430572
O11	O	-0.959859	0.162571	-0.069422
O12	O	-0.459859	0.662571	0.430578
O13	O	-1.227445	0.251208	-0.069422
O14	O	-0.727445	0.751208	0.430578
Zn15	Zn	-1.092480	0.207488	-0.091468
Zn16	Zn	-0.592480	0.707488	0.408532
Zn17	Zn	-1.102207	0.202520	0.091482
Zn18	Zn	-0.602207	0.702520	0.591482
O19	O	-1.094725	0.093052	-0.069415
O20	O	-0.594725	0.593052	0.430585
C21	C	-0.929153	0.151412	0.000007
C22	C	-0.429153	0.651412	0.500007
C23	C	-0.826659	0.123788	0.000007
C24	C	-0.326659	0.623788	0.500007
C25	C	-1.093511	0.347269	0.000000
C26	C	-0.593511	0.847269	0.500000
C27	C	-1.085276	0.431969	0.000000
C28	C	-0.585276	0.931969	0.500000
C29	C	-1.265534	0.258597	0.000008
C30	C	-0.765534	0.758597	0.500008
C31	C	-1.368029	0.286220	0.000014
C32	C	-0.868029	0.786220	0.500014
C33	C	-0.518209	0.398222	0.000004
C34	C	-0.018209	0.898222	0.500004
C35	C	-0.421899	0.372246	0.000006
C36	C	0.078101	0.872246	0.500006
C37	C	-0.410455	0.226137	0.000015
C38	C	0.089545	0.726137	0.500015
C39	C	-0.506766	0.252101	0.000008
C40	C	-0.006766	0.752101	0.500008
C41	C	-0.560636	0.338144	0.000004
C42	C	-0.060636	0.838144	0.500004
C43	C	-0.549193	0.192023	0.000008
C44	C	-0.049193	0.692023	0.500008
C45	C	-0.645496	0.217985	0.000006
C46	C	-0.145496	0.717985	0.500006
C47	C	-0.699372	0.304025	0.000005
C48	C	-0.199372	0.804025	0.500005
C49	C	-0.656938	0.364106	0.000002
C50	C	-0.156938	0.864106	0.500002
C51	C	-0.495322	0.105980	0.000018
C52	C	0.004678	0.605980	0.500018
C53	C	-0.537749	0.045902	0.000018
C54	C	-0.037749	0.545902	0.500018
C55	C	-0.634053	0.071864	0.000011
C56	C	-0.134053	0.571864	0.500011
C57	C	-0.687929	0.157904	0.000009
C58	C	-0.187929	0.657904	0.500009
C59	C	-0.676487	0.011782	0.000013
C60	C	-0.176487	0.511782	0.500013
C61	C	-0.772790	0.037744	0.000011
C62	C	-0.272790	0.537744	0.500011
C63	C	-0.784232	0.183866	0.000007
C64	C	-0.284232	0.683866	0.500007
C65	C	-1.101177	0.062740	0.000015
C66	C	-0.601177	0.562740	0.500015
C67	C	-1.109412	-0.021961	0.000020
C68	C	-0.609412	0.478039	0.500020
N69	N	-1.085848	0.210881	-0.216327
N70	N	-0.585848	0.710881	0.283673
C71	C	-1.164729	0.504823	-0.000001
C72	C	-0.664729	1.004823	0.499999
C73	C	-1.156987	0.584406	0.000007
C74	C	-0.656987	1.084406	0.500007
C75	C	-1.069790	0.591133	0.000010
C76	C	-0.569790	1.091133	0.500010
C77	C	-0.990331	0.518272	0.000014
C78	C	-0.490331	1.018272	0.500014
C79	C	-0.998075	0.438691	0.000012
C80	C	-0.498075	0.938691	0.500012
C81	C	-1.037696	0.825596	0.000022
C82	C	-0.537696	1.325596	0.500022
C83	C	-1.029958	0.905186	0.000021
C84	C	-0.529958	1.405186	0.500021
C85	C	-1.196615	0.971314	0.000016
C86	C	-0.696615	1.471314	0.500016
C87	C	-1.204351	0.891729	0.000009
C88	C	-0.704351	1.391729	0.500009
C89	C	-1.124892	0.818874	0.000017
C90	C	-0.624892	1.318874	0.500017
N91	N	-1.061874	0.672479	0.000016
N92	N	-0.561874	1.172479	0.500016
N93	N	-1.132809	0.737530	0.000018
N94	N	-0.632809	1.237530	0.500018
C95	C	-1.051729	0.228602	-0.739951
C96	C	-0.551729	0.728602	-0.239951
C97	C	-1.056365	0.226197	-0.652546
C98	C	-0.556365	0.726197	-0.152546
C99	C	-1.118112	0.194320	-0.608850
C100	C	-0.618112	0.694320	-0.108850
C101	C	-1.175235	0.164854	-0.652564
C102	C	-0.675235	0.664854	-0.152564
C103	C	-1.170604	0.167264	-0.739968
C104	C	-0.670604	0.667264	-0.239968
C105	C	-1.138340	0.183826	-0.347445
C106	C	-0.638340	0.683826	0.152555
C107	C	-1.142965	0.181415	-0.260035
C108	C	-0.642965	0.681415	0.239965
C109	C	-1.024095	0.242760	-0.260023
C110	C	-0.524095	0.742760	0.239977
C111	C	-1.019466	0.245163	-0.347429
C112	C	-0.519466	0.745163	0.152571
C113	C	-1.076592	0.215701	-0.391135
C114	C	-0.576592	0.715701	0.108865
N115	N	-1.122849	0.191858	-0.519507
N116	N	-0.622849	0.691858	-0.019507
N117	N	-1.071858	0.218169	-0.480476
N118	N	-0.571858	0.718169	0.019524
N119	N	-1.108846	0.199136	0.216340
N120	N	-0.608846	0.699136	0.716340
H121	H	-0.828096	0.253931	-0.000001
H122	H	-0.328096	0.753931	0.499999
H123	H	-0.632613	-0.058274	0.000025
H124	H	-0.132613	0.441726	0.500025
Br125	Br	-0.730055	0.480882	-0.000018
Br126	Br	-0.230055	0.980882	0.499982
Br127	Br	-1.259043	0.121599	-0.593264
Br128	Br	-0.759043	0.621599	-0.093264
H129	H	-1.217115	0.143270	-0.775554
H130	H	-0.717115	0.643270	-0.275554
H131	H	-0.777788	0.325161	0.000014
H132	H	-0.277788	0.825161	0.500014
Br133	Br	-1.264822	0.683278	0.000006
Br134	Br	-0.764822	1.183278	0.500006
H135	H	-0.919334	0.523755	0.000022
H136	H	-0.419334	1.023755	0.500022
H137	H	-0.977587	0.266747	-0.224428
H138	H	-0.477587	0.766747	0.275572
H139	H	-0.958948	0.910656	0.000010
H140	H	-0.458948	1.410656	0.500010
Br141	Br	-0.978817	0.266156	-0.593230
Br142	Br	-0.478817	0.766156	-0.093230
Br143	Br	-1.304446	1.070190	0.000006
Br144	Br	-0.804446	1.570190	0.500006
Br145	Br	-1.283073	0.495703	-0.000017
Br146	Br	-0.783073	0.995703	0.499983
Br147	Br	-0.591326	0.514997	-0.000016
Br148	Br	-0.091326	1.014997	0.499984
H149	H	-1.001443	0.254554	-0.775522
H150	H	-0.501443	0.754554	-0.275522
H151	H	-1.193246	0.155451	-0.224460
H152	H	-0.693246	0.655451	0.275540
H153	H	-1.275356	0.886260	0.000007
H154	H	-0.775356	1.386260	0.500007
H155	H	-0.387359	0.421175	0.000008
H156	H	0.112641	0.921175	0.500008
Br157	Br	-0.830375	-0.043789	0.000017
Br158	Br	-0.330375	0.456211	0.500017
Br159	Br	-0.464634	-0.070868	0.000032
Br160	Br	0.035366	0.429132	0.500032
Br161	Br	-0.935655	0.288418	-0.406724
Br162	Br	-0.435655	0.788418	0.093276
Br163	Br	-0.890241	0.339815	0.000020
Br164	Br	-0.390241	0.839815	0.500020
Br165	Br	-0.929858	0.726732	0.000038
Br166	Br	-0.429858	1.226732	0.500038
Br167	Br	-1.215864	0.143835	-0.406751
Br168	Br	-0.715864	0.643835	0.093249
H169	H	-0.366582	0.156080	0.000021
H170	H	0.133418	0.656080	0.500021
H171	H	-0.416907	0.084844	0.000023
H172	H	0.083093	0.584844	0.500023
