data_functionalizedCrystal
_audit_creation_method	'MofGen! by Chris Wilmer'
_symmetry_space_group_name_H-M	'P1'
_symmetry_Int_Tables_number	1
_symmetry_cell_setting	triclinic
loop_
_symmetry_equiv_pos_as_xyz
  x,y,z
_cell_length_a	16.992694
_cell_length_b	10.540535
_cell_length_c	16.053802
_cell_angle_alpha	92.590127
_cell_angle_beta	87.249047
_cell_angle_gamma	87.595933
loop_
_atom_site_label
_atom_site_type_symbol
_atom_site_fract_x
_atom_site_fract_y
_atom_site_fract_z
O1	O	1.045172	0.264305	-0.069329
O2	O	1.545172	0.764305	0.430671
O3	O	0.816871	0.261349	-0.069353
O4	O	1.316871	0.761349	0.430647
O5	O	0.936231	0.078573	-0.069332
O6	O	1.436231	0.578573	0.430668
O7	O	0.925811	0.447081	-0.069350
O8	O	1.425811	0.947081	0.430650
O9	O	0.929661	0.088589	0.069526
O10	O	1.429661	0.588589	0.569526
O11	O	0.810301	0.271365	0.069505
O12	O	1.310301	0.771365	0.569505
O13	O	1.038602	0.274322	0.069529
O14	O	1.538602	0.774322	0.569529
Zn15	Zn	0.923408	0.274434	0.091564
Zn16	Zn	1.423408	0.774434	0.591564
Zn17	Zn	0.932065	0.261237	-0.091388
Zn18	Zn	1.432065	0.761237	0.408612
O19	O	0.919241	0.457097	0.069508
O20	O	1.419241	0.957097	0.569508
C21	C	0.784352	0.262556	0.000073
C22	C	1.284352	0.762556	0.500073
C23	C	0.697245	0.251215	0.000064
C24	C	1.197245	0.751215	0.500064
C25	C	0.647617	0.360635	0.000059
C26	C	1.147617	0.860635	0.500059
C27	C	0.565770	0.349972	0.000071
C28	C	1.065770	0.849972	0.500071
C29	C	0.533554	0.229889	0.000082
C30	C	1.033554	0.729889	0.500082
C31	C	0.583188	0.120461	0.000089
C32	C	1.083188	0.620461	0.500089
C33	C	0.665033	0.131125	0.000083
C34	C	1.165033	0.631125	0.500083
C35	C	0.289708	0.185691	0.000106
C36	C	0.789708	0.685691	0.500106
C37	C	0.207856	0.175035	0.000110
C38	C	0.707856	0.675035	0.500110
C39	C	0.190443	0.404548	0.000093
C40	C	0.690443	0.904548	0.500093
C41	C	0.272291	0.415201	0.000082
C42	C	0.772291	0.915201	0.500082
C43	C	0.321918	0.305773	0.000094
C44	C	0.821918	0.805773	0.500094
N45	N	0.449893	0.218987	0.000091
N46	N	0.949893	0.718987	0.500091
N47	N	0.405577	0.316677	0.000090
N48	N	0.905577	0.816677	0.500090
C49	C	0.932166	0.036210	0.000097
C50	C	1.432166	0.536210	0.500097
C51	C	0.929830	-0.104941	0.000098
C52	C	1.429830	0.395059	0.500098
C53	C	0.842682	-0.149174	0.000083
C54	C	1.342682	0.350826	0.500083
C55	C	0.840240	-0.296012	-0.000247
C56	C	1.340240	0.203988	0.499753
C57	C	0.973357	-0.316523	-0.079057
C58	C	1.473357	0.183477	0.420943
C59	C	0.975214	-0.169601	-0.079108
C60	C	1.475214	0.330399	0.420892
C61	C	0.969010	-0.158238	0.078805
C62	C	1.469010	0.341762	0.578805
C63	C	0.964931	-0.304860	0.079830
C64	C	1.464931	0.195140	0.579830
C65	C	1.071120	0.273114	0.000102
C66	C	1.571120	0.773114	0.500102
C67	C	1.158228	0.284455	0.000105
C68	C	1.658228	0.784455	0.500105
C69	C	0.923307	0.499460	0.000077
C70	C	1.423307	0.999460	0.500077
C71	C	0.925643	0.640611	0.000071
C72	C	1.425643	1.140611	0.500071
N73	N	0.917506	0.283440	0.216423
N74	N	1.417506	0.783440	0.716423
N75	N	0.937973	0.252221	-0.216247
N76	N	1.437973	0.752221	0.283753
C77	C	0.968313	0.205700	0.260126
C78	C	1.468313	0.705700	0.760126
C79	C	0.964192	0.212013	0.347532
C80	C	1.464192	0.712013	0.847532
C81	C	0.909267	0.296073	0.391233
C82	C	1.409267	0.796073	0.891233
C83	C	0.858455	0.373816	0.347524
C84	C	1.358455	0.873816	0.847524
C85	C	0.862573	0.367496	0.260120
C86	C	1.362573	0.867496	0.760120
C87	C	0.891279	0.323644	0.652640
C88	C	1.391279	0.823644	1.152640
C89	C	0.887166	0.329961	0.740050
C90	C	1.387166	0.829961	1.240050
C91	C	0.992903	0.168155	0.740052
C92	C	1.492903	0.668155	1.240052
C93	C	0.997019	0.161848	0.652646
C94	C	1.497019	0.661848	1.152646
C95	C	0.946204	0.239586	0.608944
C96	C	1.446204	0.739586	1.108944
N97	N	0.905055	0.302531	0.480576
N98	N	1.405055	0.802531	0.980576
N99	N	0.950413	0.233121	0.519603
N100	N	1.450413	0.733121	1.019603
H101	H	0.181630	0.077244	0.000118
H102	H	0.681630	0.577244	0.500118
C103	C	1.057437	0.069369	0.604581
C104	C	1.557437	0.569369	1.104581
N105	N	1.102944	-0.000288	0.568378
N106	N	1.602944	0.499712	1.068378
C107	C	0.835483	0.409335	0.604579
C108	C	1.335483	0.909335	1.104579
N109	N	0.793491	0.473944	0.568378
N110	N	1.293491	0.973944	1.068378
C111	C	0.806687	0.453027	0.212047
C112	C	1.306687	0.953027	0.712047
N113	N	0.764593	0.517453	0.175840
N114	N	1.264593	1.017453	0.675840
C115	C	1.020065	0.126460	0.395601
C116	C	1.520065	0.626460	0.895601
N117	N	1.062144	0.062004	0.431806
N118	N	1.562144	0.562004	0.931806
H119	H	0.298515	0.512985	0.000064
H120	H	0.798515	1.012985	0.500064
H121	H	0.673840	0.458420	0.000050
H122	H	1.173840	0.958420	0.500050
C123	C	0.798029	0.466271	0.395599
C124	C	1.298029	0.966271	0.895599
N125	N	0.752515	0.535909	0.431808
N126	N	1.252515	1.035909	0.931808
C127	C	1.048789	0.082638	0.788130
C128	C	1.548789	0.582638	1.288130
N129	N	1.090882	0.018218	0.824344
N130	N	1.590882	0.518218	1.324344
C131	C	0.511181	0.470345	0.000081
C132	C	1.011181	0.970345	0.500081
N133	N	0.470064	0.561016	0.000094
N134	N	0.970064	1.061016	0.500094
C135	C	0.826739	0.422434	0.788120
C136	C	1.326739	0.922434	1.288120
N137	N	0.781229	0.492081	0.824326
N138	N	1.281229	0.992081	1.324326
H139	H	0.150028	0.493637	0.000086
H140	H	0.650028	0.993637	0.500086
H141	H	0.930164	-0.332028	0.138370
H142	H	1.430164	0.167972	0.638370
C143	C	1.048836	-0.363307	0.086618
C144	C	1.548836	0.136693	0.586618
N145	N	1.112036	-0.407332	0.091726
N146	N	1.612036	0.092668	0.591726
C147	C	1.055581	-0.120668	0.079854
C148	C	1.555581	0.379332	0.579854
N149	N	1.120784	-0.092363	0.080639
N150	N	1.620784	0.407637	0.580639
C151	C	0.344288	0.065315	0.000114
C152	C	0.844288	0.565315	0.500114
N153	N	0.385401	-0.025357	0.000118
N154	N	0.885401	0.474643	0.500118
H155	H	0.938976	-0.113819	0.138806
H156	H	1.438976	0.386181	0.638806
H157	H	0.705441	0.042023	0.000086
H158	H	1.205441	0.542023	0.500086
H159	H	1.039260	-0.141268	-0.082471
H160	H	1.539260	0.358732	0.417529
C161	C	0.547748	-0.011633	0.000102
C162	C	1.047748	0.488367	0.500102
N163	N	0.521055	-0.111129	0.000109
N164	N	1.021055	0.388871	0.500109
H165	H	0.945987	-0.354298	-0.138181
H166	H	1.445987	0.145702	0.361819
H167	H	1.013042	0.137255	0.224550
H168	H	1.513042	0.637255	0.724550
C169	C	0.797641	-0.344015	-0.077332
C170	C	1.297641	0.155985	0.422668
N171	N	0.765548	-0.380168	-0.135391
N172	N	1.265548	0.119832	0.364609
C173	C	0.790152	-0.334164	0.076361
C174	C	1.290152	0.165836	0.576361
N175	N	0.752419	-0.362893	0.134061
N176	N	1.252419	0.137107	0.634061
H177	H	0.812458	-0.112652	-0.056585
H178	H	1.312458	0.387348	0.443415
C179	C	0.793837	-0.090860	0.076726
C180	C	1.293837	0.409140	0.576726
N181	N	0.757044	-0.046920	0.134452
N182	N	1.257044	0.453080	0.634452
H183	H	0.948329	-0.136281	-0.138491
H184	H	1.448329	0.363719	0.361509
C185	C	1.058494	-0.373397	-0.082730
C186	C	1.558494	0.126603	0.417270
N187	N	1.122620	-0.416238	-0.085495
N188	N	1.622620	0.083762	0.414505
