data_functionalizedCrystal
_audit_creation_method	'MofGen! by Chris Wilmer'
_symmetry_space_group_name_H-M	'P1'
_symmetry_Int_Tables_number	1
_symmetry_cell_setting	triclinic
loop_
_symmetry_equiv_pos_as_xyz
  x,y,z
_cell_length_a	26.455835
_cell_length_b	26.455273
_cell_length_c	26.451828
_cell_angle_alpha	60.005170
_cell_angle_beta	60.010757
_cell_angle_gamma	59.993435
loop_
_atom_site_label
_atom_site_type_symbol
_atom_site_fract_x
_atom_site_fract_y
_atom_site_fract_z
O1	O	0.069940	-0.738516	0.617604
O2	O	0.569940	-0.238516	1.117604
O3	O	0.026299	-0.574986	0.497618
O4	O	0.526299	-0.074986	0.997618
O5	O	0.129847	-0.678463	0.497546
O6	O	0.629847	-0.178463	0.997546
O7	O	-0.033607	-0.635040	0.617676
O8	O	0.466393	-0.135040	1.117676
O9	O	0.164197	-0.644116	0.531822
O10	O	0.664197	-0.144116	1.031822
O11	O	0.060649	-0.540639	0.531894
O12	O	0.560649	-0.040639	1.031894
O13	O	0.104290	-0.704170	0.651880
O14	O	0.604290	-0.204170	1.151880
Cu15	Cu	0.085606	-0.619268	0.595016
Cu16	Cu	0.585606	-0.119268	1.095016
Cu17	Cu	0.044984	-0.659887	0.554481
Cu18	Cu	0.544984	-0.159887	1.054481
O19	O	0.000742	-0.600693	0.651952
O20	O	0.500742	-0.100693	1.151952
N21	N	0.114179	-0.590703	0.623530
N22	N	0.614179	-0.090703	1.123530
N23	N	0.016416	-0.688458	0.525968
N24	N	0.516416	-0.188458	1.025968
C25	C	0.157553	-0.547535	0.933368
C26	C	0.657553	-0.047535	1.433368
C27	C	0.424104	-0.547506	0.666656
C28	C	0.924104	-0.047506	1.166656
C29	C	0.157413	-0.547503	0.666729
C30	C	0.657413	-0.047503	1.166729
C31	C	0.157397	-0.280846	0.666749
C32	C	0.657397	0.219154	1.166749
C33	C	0.200330	-0.409550	0.709625
C34	C	0.700330	0.090450	1.209625
C35	C	0.200339	-0.504608	0.709615
C36	C	0.700339	-0.004608	1.209615
C37	C	0.224118	-0.480848	0.733375
C38	C	0.724118	0.019152	1.233375
C39	C	0.327800	-0.462984	0.678792
C40	C	0.827800	0.037016	1.178792
C41	C	0.392611	-0.484588	0.657175
C42	C	0.892611	0.015412	1.157175
C43	C	0.392630	-0.589450	0.697162
C44	C	0.892630	-0.089450	1.197162
C45	C	0.327821	-0.567844	0.718781
C46	C	0.827821	-0.067844	1.218781
C47	C	0.215955	-0.377135	0.645910
C48	C	0.715955	0.122865	1.145910
C49	C	0.194327	-0.312320	0.624323
C50	C	0.694327	0.187680	1.124323
C51	C	0.141457	-0.312339	0.730169
C52	C	0.641457	0.187661	1.230169
C53	C	0.163084	-0.377154	0.751756
C54	C	0.663084	0.122846	1.251756
C55	C	0.136618	-0.488954	0.725292
C56	C	0.636618	0.011046	1.225292
C57	C	0.115007	-0.510553	0.703686
C58	C	0.615007	-0.010553	1.203686
C59	C	0.220833	-0.563461	0.650740
C60	C	0.720833	-0.063461	1.150740
C61	C	0.242447	-0.541861	0.672339
C62	C	0.742447	-0.041861	1.172339
C63	C	0.136680	-0.488971	0.837094
C64	C	0.636680	0.011029	1.337094
C65	C	0.115112	-0.510589	0.901907
C66	C	0.615112	-0.010589	1.401907
C67	C	0.220969	-0.563508	0.901868
C68	C	0.720969	-0.063508	1.401868
C69	C	0.242535	-0.541892	0.837053
C70	C	0.742535	-0.041892	1.337053
C71	C	0.200389	-0.504622	0.804668
C72	C	0.700389	-0.004622	1.304668
C73	C	0.295409	-0.504610	0.709593
C74	C	0.795409	-0.004610	1.209593
C75	C	0.132990	-0.570876	1.004655
C76	C	0.632990	-0.070876	1.504655
C77	C	0.495389	-0.570440	0.642547
C78	C	0.995389	-0.070440	1.142547
C79	C	0.132802	-0.570856	0.643399
C80	C	0.632802	-0.070856	1.143399
C81	C	0.133212	-0.209553	0.643833
C82	C	0.633212	0.290447	1.143833
C83	C	-0.097217	-0.706972	0.506986
C84	C	0.402783	-0.206972	1.006986
C85	C	-0.002040	-0.707108	0.412067
C86	C	0.497960	-0.207108	0.912067
C87	C	-0.002230	-0.802124	0.507163
C88	C	0.497770	-0.302124	1.007163
C89	C	-0.002214	-0.707101	0.507221
C90	C	0.497786	-0.207101	1.007221
C91	C	-0.025925	-0.730827	0.483360
C92	C	0.474075	-0.230827	0.983360
N93	N	0.553723	-0.590712	0.623415
N94	N	1.053723	-0.090712	1.123415
O95	O	0.751638	-0.596429	0.475603
O96	O	1.251638	-0.096429	0.975603
O97	O	0.751819	-0.716773	0.638980
O98	O	1.251819	-0.216773	1.138980
O99	O	0.751753	-0.716500	0.535361
O100	O	1.251753	-0.216500	1.035361
O101	O	0.751705	-0.596703	0.579222
O102	O	1.251705	-0.096703	1.079222
O103	O	0.648791	-0.682239	0.569747
O104	O	1.148791	-0.182239	1.069747
O105	O	0.648858	-0.682512	0.673366
O106	O	1.148858	-0.182512	1.173366
O107	O	0.648676	-0.562169	0.509989
O108	O	1.148676	-0.062169	1.009989
Cu109	Cu	0.639366	-0.619212	0.594817
Cu110	Cu	1.139366	-0.119212	1.094817
Cu111	Cu	0.761130	-0.659729	0.554152
Cu112	Cu	1.261130	-0.159729	1.054152
O113	O	0.648743	-0.562442	0.613609
O114	O	1.148743	-0.062442	1.113609
N115	N	0.846773	-0.688230	0.525548
N116	N	1.346773	-0.188230	1.025548
N117	N	0.114157	-0.151217	0.623565
N118	N	0.614157	0.348783	1.123565
O119	O	-0.033591	0.046803	0.617717
O120	O	0.466409	0.546803	1.117717
O121	O	0.129795	0.046806	0.497390
O122	O	0.629795	0.546806	0.997390
O123	O	0.026157	0.046789	0.497680
O124	O	0.526157	0.546789	0.997680
O125	O	0.070046	0.046819	0.617427
O126	O	0.570046	0.546819	1.117427
O127	O	0.060509	-0.056181	0.532004
O128	O	0.560509	0.443819	1.032004
O129	O	0.164146	-0.056164	0.531714
O130	O	0.664146	0.443836	1.031714
O131	O	0.000760	-0.056167	0.652041
O132	O	0.500760	0.443833	1.152041
Cu133	Cu	0.085590	-0.065568	0.595012
Cu134	Cu	0.585590	0.434432	1.095012
Cu135	Cu	0.044965	0.056206	0.554419
Cu136	Cu	0.544965	0.556206	1.054419
O137	O	0.104397	-0.056151	0.651751
O138	O	0.604397	0.443849	1.151751
N139	N	0.016390	0.141855	0.525867
N140	N	0.516390	0.641855	1.025867
N141	N	0.114410	-0.590756	1.062992
N142	N	0.614410	-0.090756	1.562992
O143	O	0.108565	-0.738494	1.260998
O144	O	0.608565	-0.238494	1.760998
O145	O	-0.011747	-0.575059	1.261012
O146	O	0.488253	-0.075059	1.761012
O147	O	-0.011470	-0.678679	1.260970
O148	O	0.488530	-0.178679	1.760970
O149	O	0.108287	-0.634874	1.261040
O150	O	0.608287	-0.134874	1.761040
O151	O	0.022849	-0.644347	1.158004
O152	O	0.522849	-0.144347	1.658004
O153	O	0.022572	-0.540726	1.158046
O154	O	0.522572	-0.040726	1.658046
O155	O	0.142884	-0.704162	1.158033
O156	O	0.642884	-0.204162	1.658033
Cu157	Cu	0.085861	-0.619309	1.148638
Cu158	Cu	0.585861	-0.119309	1.648638
Cu159	Cu	0.045275	-0.659911	1.270406
Cu160	Cu	0.545275	-0.159911	1.770406
O161	O	0.142606	-0.600541	1.158074
O162	O	0.642606	-0.100541	1.658074
N163	N	0.016726	-0.688471	1.356052
N164	N	0.516726	-0.188471	1.856052
C165	C	0.039385	-0.537207	0.498225
C166	C	0.539385	-0.037207	0.998225
C167	C	0.167616	-0.665350	0.498136
C168	C	0.667616	-0.165350	0.998136
C169	C	0.091204	-0.741950	0.651272
C170	C	0.591204	-0.241950	1.151272
C171	C	-0.037027	-0.613806	0.651361
C172	C	0.462973	-0.113806	1.151361
C173	C	0.700360	-0.716215	0.676756
C174	C	1.200360	-0.216215	1.176756
C175	C	0.700279	-0.715877	0.548436
C176	C	1.200279	-0.215877	1.048436
C177	C	0.700133	-0.562725	0.472214
C178	C	1.200133	-0.062725	0.972214
C179	C	0.700218	-0.563065	0.600533
C180	C	1.200218	-0.063065	1.100533
C181	C	0.167511	-0.004552	0.497940
C182	C	0.667511	0.495448	0.997940
C183	C	0.039211	-0.004699	0.498341
C184	C	0.539211	0.495301	0.998341
C185	C	-0.036999	-0.004682	0.651449
C186	C	0.463001	0.495318	1.151449
C187	C	0.091344	-0.004663	0.651090
C188	C	0.591344	0.495337	1.151090
C189	C	-0.011156	-0.537302	1.209530
C190	C	0.488844	-0.037302	1.709530
C191	C	-0.010806	-0.665617	1.209458
C192	C	0.489194	-0.165617	1.709458
C193	C	0.142293	-0.741918	1.209514
C194	C	0.642293	-0.241918	1.709514
C195	C	0.141950	-0.613596	1.209563
C196	C	0.641950	-0.113596	1.709563
H197	H	0.102355	-0.458618	0.810728
H198	H	0.602355	0.041382	1.310728
H199	H	0.214338	-0.004265	0.460069
H200	H	0.714338	0.495735	0.960069
C201	C	0.207639	-0.816402	1.156564
C202	C	0.707639	-0.316402	1.656564
C203	C	0.193288	-0.805282	1.209508
C204	C	0.693288	-0.305282	1.709508
H205	H	0.239120	-0.855521	1.156562
H206	H	0.739120	-0.355521	1.656562
H207	H	0.221831	-0.784906	1.120674
H208	H	0.721831	-0.284906	1.620674
H209	H	0.171700	-0.816329	1.156555
H210	H	0.671700	-0.316329	1.656555
H211	H	0.229226	-0.805351	1.209514
H212	H	0.729226	-0.305351	1.709514
H213	H	0.179099	-0.836786	1.245406
H214	H	0.679099	-0.336786	1.745406
H215	H	0.063121	-0.497793	0.716436
H216	H	0.563121	0.002207	1.216436
C217	C	0.129683	-0.239444	0.767273
C218	C	0.629683	0.260556	1.267273
C219	C	0.100515	-0.276720	0.776473
C220	C	0.600515	0.223280	1.276473
H221	H	0.104405	-0.217457	0.795861
H222	H	0.604405	0.282543	1.295861
H223	H	0.135885	-0.210869	0.726239
H224	H	0.635885	0.289131	1.226239
H225	H	0.168538	-0.264728	0.773490
H226	H	0.668538	0.235272	1.273490
H227	H	0.061662	-0.251435	0.770251
H228	H	0.561662	0.248565	1.270251
H229	H	0.094305	-0.305298	0.817517
H230	H	0.594305	0.194702	1.317517
H231	H	0.179573	-0.604224	1.209577
H232	H	0.679573	-0.104224	1.709577
H233	H	0.700298	-0.753510	0.539047
H234	H	1.200298	-0.253510	1.039047
H235	H	0.700073	-0.524942	0.425295
H236	H	1.200073	-0.024942	0.925295
C237	C	0.079269	-0.004708	0.394444
C238	C	0.579269	0.495292	0.894444
C239	C	0.026534	-0.004708	0.447552
C240	C	0.526534	0.495292	0.947552
H241	H	0.071439	-0.004710	0.363089
H242	H	0.571439	0.495290	0.863089
H243	H	0.113039	-0.040612	0.404077
H244	H	0.613039	0.459388	0.904077
H245	H	0.089084	0.031204	0.380142
H246	H	0.589084	0.531204	0.880142
H247	H	0.016720	-0.040623	0.461856
H248	H	0.516720	0.459377	0.961856
H249	H	-0.007248	0.031200	0.437919
H250	H	0.492752	0.531200	0.937919
C251	C	-0.040112	-0.435609	1.209562
C252	C	0.459888	0.064391	1.709562
C253	C	-0.062151	-0.473938	1.209536
C254	C	0.437849	0.026062	1.709536
H255	H	-0.071596	-0.396493	1.209569
H256	H	0.428404	0.103507	1.709569
H257	H	-0.004936	-0.430193	1.173665
H258	H	0.495064	0.069807	1.673665
H259	H	-0.028865	-0.454144	1.245478
H260	H	0.471135	0.045856	1.745478
H261	H	-0.073394	-0.455405	1.173618
H262	H	0.426606	0.044595	1.673618
H263	H	-0.097338	-0.479352	1.245437
H264	H	0.402662	0.020648	1.745437
H265	H	-0.083976	-0.604550	0.689083
H266	H	0.416024	-0.104550	1.189083
H267	H	-0.048413	-0.674973	1.209396
H268	H	0.451587	-0.174973	1.709396
H269	H	0.700405	-0.753994	0.723681
H270	H	1.200405	-0.253994	1.223681
C271	C	0.231142	-0.625013	0.394178
C272	C	0.731142	-0.125013	0.894178
C273	C	0.230990	-0.677841	0.447205
C274	C	0.730990	-0.177841	0.947205
H275	H	0.270266	-0.632727	0.362734
H276	H	0.770266	-0.132727	0.862734
H277	H	0.223619	-0.591270	0.403864
H278	H	0.723619	-0.091270	0.903864
H279	H	0.199650	-0.615221	0.379967
H280	H	0.699650	-0.115221	0.879967
H281	H	0.262479	-0.687630	0.461418
H282	H	0.762479	-0.187630	0.961418
H283	H	0.238520	-0.711594	0.437517
H284	H	0.738520	-0.211594	0.937517
C285	C	0.012644	-0.456091	0.895426
C286	C	0.512644	0.043909	1.395426
C287	C	0.045077	-0.493371	0.937543
C288	C	0.545077	0.006629	1.437543
H289	H	-0.030592	-0.445459	0.917429
H290	H	0.469408	0.054541	1.417429
H291	H	0.023254	-0.478076	0.870147
H292	H	0.523254	0.021924	1.370147
H293	H	0.023268	-0.419448	0.870146
H294	H	0.523268	0.080552	1.370146
H295	H	0.034456	-0.530017	0.962820
H296	H	0.534456	-0.030017	1.462820
H297	H	0.034462	-0.471385	0.962832
H298	H	0.534462	0.028615	1.462832
H299	H	0.255291	-0.593843	0.928229
H300	H	0.755291	-0.093843	1.428229
H301	H	0.700208	-0.525435	0.609919
H302	H	1.200208	-0.025435	1.109919
C303	C	0.164188	-0.843583	0.679934
C304	C	0.664188	-0.343583	1.179934
C305	C	0.103779	-0.805365	0.702146
C306	C	0.603779	-0.305365	1.202146
H307	H	0.171948	-0.882734	0.711341
H308	H	0.671948	-0.382734	1.211341
H309	H	0.192768	-0.824999	0.668659
H310	H	0.692768	-0.324999	1.168659
H311	H	0.168810	-0.848942	0.644743
H312	H	0.668810	-0.348942	1.144743
H313	H	0.099158	-0.800002	0.737334
H314	H	0.599158	-0.300002	1.237334
H315	H	0.075191	-0.823953	0.713429
H316	H	0.575191	-0.323953	1.213429
H317	H	0.100739	-0.004653	0.688708
H318	H	0.600739	0.495347	1.188708
C319	C	0.345004	-0.596369	0.843527
C320	C	0.845004	-0.096369	1.343527
C321	C	0.312570	-0.559097	0.801412
C322	C	0.812570	-0.059097	1.301412
H323	H	0.388240	-0.606987	0.821524
H324	H	0.888240	-0.106987	1.321524
H325	H	0.334393	-0.633014	0.868803
H326	H	0.834393	-0.133014	1.368803
H327	H	0.334383	-0.574377	0.868811
H328	H	0.834383	-0.074377	1.368811
H329	H	0.323188	-0.581090	0.776131
H330	H	0.823188	-0.081090	1.276131
H331	H	0.323186	-0.522446	0.776126
H332	H	0.823186	-0.022446	1.276126
C333	C	-0.138699	-0.004670	0.680407
C334	C	0.361301	0.495330	1.180407
C335	C	-0.100347	-0.004667	0.702444
C336	C	0.399653	0.495333	1.202444
H337	H	-0.177809	-0.004653	0.711887
H338	H	0.322191	0.495347	1.211887
H339	H	-0.120185	-0.040584	0.669177
H340	H	0.379815	0.459416	1.169177
H341	H	-0.144120	0.031232	0.645217
H342	H	0.355880	0.531232	1.145217
H343	H	-0.094922	-0.040571	0.737632
H344	H	0.405078	0.459429	1.237632
H345	H	-0.118864	0.031251	0.713683
H346	H	0.381136	0.531251	1.213683
H347	H	0.255124	-0.593799	0.620395
H348	H	0.755124	-0.093799	1.120395
C349	C	0.339266	-0.537048	0.590641
C350	C	0.839266	-0.037048	1.090641
C351	C	0.312488	-0.559045	0.655103
C352	C	0.812488	-0.059045	1.155103
H353	H	0.382506	-0.547655	0.580000
H354	H	0.882506	-0.047655	1.080000
H355	H	0.321032	-0.493323	0.575761
H356	H	0.821032	0.006677	1.075761
H357	H	0.332429	-0.555257	0.572446
H358	H	0.832429	-0.055257	1.072446
H359	H	0.319321	-0.540832	0.673298
H360	H	0.819321	-0.040832	1.173298
H361	H	0.330728	-0.602778	0.669990
H362	H	0.830728	-0.102778	1.169990
C363	C	0.334354	-0.673667	0.756126
C364	C	0.834354	-0.173667	1.256126
C365	C	0.292214	-0.613604	0.752635
C366	C	0.792214	-0.113604	1.252635
H367	H	0.312370	-0.701916	0.777023
H368	H	0.812370	-0.201916	1.277023
H369	H	0.359646	-0.684511	0.778202
H370	H	0.859646	-0.184511	1.278202
H371	H	0.359617	-0.675310	0.715516
H372	H	0.859617	-0.175310	1.215516
H373	H	0.266954	-0.611960	0.793245
H374	H	0.766954	-0.111960	1.293245
H375	H	0.266912	-0.602757	0.730560
H376	H	0.766912	-0.102757	1.230560
H377	H	0.102328	-0.458621	0.755642
H378	H	0.602328	0.041379	1.255642
H379	H	0.418982	-0.450689	0.632093
H380	H	0.918982	0.049311	1.132093
C381	C	0.491991	-0.669130	0.681773
C382	C	0.991991	-0.169130	1.181773
C383	C	0.428265	-0.658958	0.707254
C384	C	0.928265	-0.158958	1.207254
H385	H	0.513988	-0.712040	0.688002
H386	H	1.013988	-0.212040	1.188002
H387	H	0.502619	-0.655726	0.701357
H388	H	1.002619	-0.155726	1.201357
H389	H	0.502585	-0.646528	0.638674
H390	H	1.002585	-0.146528	1.138674
H391	H	0.417670	-0.681557	0.750354
H392	H	0.917670	-0.181557	1.250354
H393	H	0.417633	-0.672369	0.687672
H394	H	0.917633	-0.172369	1.187672
C395	C	0.334297	-0.361504	0.637094
C396	C	0.834297	0.138496	1.137094
C397	C	0.292175	-0.393476	0.668695
C398	C	0.792175	0.106524	1.168695
H399	H	0.312301	-0.318593	0.630863
H400	H	0.812301	0.181407	1.130863
H401	H	0.359558	-0.367517	0.598156
H402	H	0.859558	0.132483	1.098156
H403	H	0.359593	-0.376714	0.660837
H404	H	0.859593	0.123286	1.160837
H405	H	0.266882	-0.378270	0.644949
H406	H	0.766882	0.121730	1.144949
H407	H	0.266903	-0.387459	0.707639
H408	H	0.766903	0.112541	1.207639
H409	H	0.246280	-0.403511	0.611604
H410	H	0.746280	0.096489	1.111604
C411	C	0.189511	-0.292346	0.527464
C412	C	0.689511	0.207654	1.027464
C413	C	0.211498	-0.276685	0.554282
C414	C	0.711498	0.223315	1.054282
H415	H	0.200116	-0.270349	0.484224
H416	H	0.700116	0.229651	0.984224
H417	H	0.145790	-0.281725	0.545678
H418	H	0.645790	0.218275	1.045678
H419	H	0.207725	-0.335584	0.534295
H420	H	0.707725	0.164416	1.034295
H421	H	0.193281	-0.233447	0.547455
H422	H	0.693281	0.266553	1.047455
H423	H	0.255228	-0.287301	0.536063
H424	H	0.755228	0.212699	1.036063
C425	C	0.167901	-0.397132	0.848616
C426	C	0.667901	0.102868	1.348616
C427	C	0.145914	-0.412791	0.821796
C428	C	0.645914	0.087209	1.321796
H429	H	0.157303	-0.419136	0.891855
H430	H	0.657303	0.080864	1.391855
H431	H	0.149689	-0.353901	0.841791
H432	H	0.649689	0.146099	1.341791
H433	H	0.211628	-0.407752	0.830397
H434	H	0.711628	0.092248	1.330397
H435	H	0.102186	-0.402167	0.840012
H436	H	0.602186	0.097833	1.340012
H437	H	0.164124	-0.456032	0.828626
H438	H	0.664124	0.043968	1.328626
C439	C	-0.033604	-0.435578	0.469558
C440	C	0.466396	0.064422	0.969558
C441	C	0.026806	-0.473795	0.447348
C442	C	0.526806	0.026205	0.947348
H443	H	-0.041369	-0.396432	0.438146
H444	H	0.458631	0.103568	0.938146
H445	H	-0.038227	-0.430210	0.504740
H446	H	0.461773	0.069790	1.004740
H447	H	-0.062184	-0.454172	0.480842
H448	H	0.437816	0.045828	0.980842
H449	H	0.055387	-0.455203	0.436069
H450	H	0.555387	0.044797	0.936069
H451	H	0.031435	-0.479162	0.412156
H452	H	0.531435	0.020838	0.912156
