data_functionalizedCrystal
_audit_creation_method	'MofGen! by Chris Wilmer'
_symmetry_space_group_name_H-M	'P1'
_symmetry_Int_Tables_number	1
_symmetry_cell_setting	triclinic
loop_
_symmetry_equiv_pos_as_xyz
  x,y,z
_cell_length_a	13.897449
_cell_length_b	21.295418
_cell_length_c	13.897441
_cell_angle_alpha	90.034735
_cell_angle_beta	90.020733
_cell_angle_gamma	90.028679
loop_
_atom_site_label
_atom_site_type_symbol
_atom_site_fract_x
_atom_site_fract_y
_atom_site_fract_z
Zn1	Zn	1.474638	-0.250568	0.545353
Zn2	Zn	1.474504	-0.355847	0.384043
Zn3	Zn	1.313327	-0.250598	0.384072
Zn4	Zn	1.313281	-0.355805	0.545296
O5	O	1.393937	-0.303204	0.464691
O6	O	1.609601	-0.264538	0.523967
O7	O	1.453087	-0.341915	0.249065
O8	O	1.334800	-0.162504	0.405502
O9	O	1.609503	-0.341886	0.405453
O10	O	1.453314	-0.162482	0.523995
O11	O	1.334670	-0.264589	0.249086
O12	O	1.178339	-0.264549	0.405446
O13	O	1.334722	-0.341815	0.680285
O14	O	1.178306	-0.341844	0.523897
O15	O	1.453270	-0.264498	0.680328
O16	O	1.453043	-0.443931	0.405398
O17	O	1.334593	-0.443900	0.523869
C18	C	1.143323	-0.303196	0.464669
C19	C	1.036109	-0.303207	0.464683
C20	C	1.393825	-0.466756	0.464645
C21	C	1.393864	-0.536724	0.464658
C22	C	0.839814	-0.303210	0.464708
C23	C	0.949046	-0.303207	0.464691
C24	C	1.455846	-1.036177	0.403158
C25	C	1.455809	-0.970434	0.403136
C26	C	1.394073	-0.937563	0.464759
C27	C	1.332352	-0.970440	0.526392
C28	C	1.332383	-1.036182	0.526406
N29	N	1.386578	-0.834306	0.549164
N30	N	1.386553	-0.771855	0.549148
C31	C	1.393973	-0.739489	0.464718
N32	N	1.401436	-0.771933	0.380304
N33	N	1.401466	-0.834390	0.380321
C34	C	1.394032	-0.866278	0.464750
C35	C	1.455646	-0.635334	0.403060
C36	C	1.455602	-0.569590	0.403035
C37	C	1.332150	-0.569598	0.526300
C38	C	1.332188	-0.635340	0.526315
C39	C	1.393941	-0.668204	0.464697
C40	C	1.645530	-0.303213	0.464714
C41	C	1.752744	-0.303217	0.464723
C42	C	1.394006	-0.303149	0.716284
C43	C	1.394035	-0.303125	0.823498
C44	C	1.394077	-0.139014	0.464758
C45	C	1.394136	-0.069046	0.464787
C46	C	1.393925	-0.303214	0.214077
C47	C	1.394082	-0.303061	0.106863
C48	C	1.394061	-0.303082	1.019793
C49	C	1.394044	-0.303108	0.910561
H50	H	1.506127	-1.062931	0.352980
C51	C	1.264448	-0.934285	0.594178
H52	H	1.273274	-0.890424	0.585351
H53	H	1.199650	-0.945098	0.580004
H54	H	1.278539	-0.945022	0.659007
C55	C	1.523563	-0.671490	0.335281
H56	H	1.514755	-0.715351	0.344126
H57	H	1.509482	-0.660759	0.270453
H58	H	1.588361	-0.660671	0.349464
C59	C	1.264318	-0.671498	0.594119
H60	H	1.227550	-0.642507	0.630823
H61	H	1.222324	-0.697186	0.557190
H62	H	1.301214	-0.697101	0.636190
C63	C	1.523487	-0.533434	0.335241
H64	H	1.560273	-0.562425	0.298555
H65	H	1.486606	-0.507829	0.293167
H66	H	1.565479	-0.507748	0.372184
C67	C	1.264243	-0.533448	0.594085
H68	H	1.273065	-0.489586	0.585255
H69	H	1.199446	-0.544264	0.579913
H70	H	1.278336	-0.544182	0.658914
C71	C	1.264508	-1.072339	0.594208
H72	H	1.227736	-1.043349	0.630910
H73	H	1.222516	-1.098029	0.557279
H74	H	1.301405	-1.097940	0.636281
C75	C	1.523698	-0.934271	0.335348
H76	H	1.560484	-0.963259	0.298658
H77	H	1.486820	-0.908662	0.293278
H78	H	1.565690	-0.908588	0.372298
