data_functionalizedCrystal
_audit_creation_method	'MofGen! by Chris Wilmer'
_symmetry_space_group_name_H-M	'P1'
_symmetry_Int_Tables_number	1
_symmetry_cell_setting	triclinic
loop_
_symmetry_equiv_pos_as_xyz
  x,y,z
_cell_length_a	6.817900
_cell_length_b	7.190334
_cell_length_c	16.256275
_cell_angle_alpha	89.346849
_cell_angle_beta	103.500333
_cell_angle_gamma	60.611776
loop_
_atom_site_label
_atom_site_type_symbol
_atom_site_fract_x
_atom_site_fract_y
_atom_site_fract_z
V1	V	-4.223270	0.665751	-0.115742
O2	O	-4.206711	0.652297	0.006951
O3	O	-4.173762	0.661948	-0.230834
O4	O	-4.260428	0.955765	-0.113353
O5	O	-4.119445	0.356446	-0.111343
V6	V	-4.695955	0.628664	-0.101139
O7	O	-4.508302	0.747103	-0.147776
O8	O	-4.861120	0.547312	-0.069105
O9	O	-4.522256	0.632466	0.013952
O10	O	-4.829911	0.642118	-0.223832
O11	O	-4.917177	0.937969	-0.105538
O12	O	-4.435591	0.338650	-0.103529
C13	C	-4.015725	0.651640	-0.258909
C14	C	-4.057104	0.650464	-0.352994
C15	C	-4.126286	1.026429	-0.109047
C16	C	-4.240041	1.267978	-0.107831
C17	C	-4.350486	0.658716	-0.584799
C18	C	-4.367051	0.829176	-0.649424
C19	C	-4.132759	0.648275	-0.525247
C20	C	-4.189924	0.475762	-0.628266
C21	C	-4.205848	0.646151	-0.691635
C22	C	-4.148851	0.818896	-0.588641
C23	C	-3.971670	0.465325	-0.567469
C24	C	-3.988104	0.635820	-0.632068
C25	C	-4.090660	0.649500	-0.429395
C26	C	-4.247938	0.644940	-0.787485
C27	C	-4.343634	0.642769	0.042024
C28	C	-4.281498	0.643959	0.136107
H29	H	-4.503356	0.668627	-0.563911
C30	C	-4.125075	1.015032	-0.564914
H31	H	-4.098861	1.014644	-0.504874
H32	H	-3.996885	1.007392	-0.581471
H33	H	-4.264850	1.144075	-0.593749
C34	C	-4.214002	0.279862	-0.652155
H35	H	-4.343139	0.288258	-0.636091
H36	H	-4.238856	0.279745	-0.712133
H37	H	-4.074876	0.150722	-0.622963
H38	H	-3.835169	0.626177	-0.652814
C39	C	-3.745423	0.257536	-0.519377
H40	H	-3.637820	0.293808	-0.486267
H41	H	-3.780932	0.181450	-0.482747
H42	H	-3.677914	0.169157	-0.559454
C43	C	-4.593364	1.036973	-0.697486
H44	H	-4.722298	1.044927	-0.681411
H45	H	-4.579993	1.158842	-0.683327
H46	H	-4.617445	1.035318	-0.757376
