data_functionalizedCrystal
_audit_creation_method	'MofGen! by Chris Wilmer'
_symmetry_space_group_name_H-M	'P1'
_symmetry_Int_Tables_number	1
_symmetry_cell_setting	triclinic
loop_
_symmetry_equiv_pos_as_xyz
  x,y,z
_cell_length_a	23.096457
_cell_length_b	23.096457
_cell_length_c	23.096457
_cell_angle_alpha	90.003973
_cell_angle_beta	59.997972
_cell_angle_gamma	60.000612
loop_
_atom_site_label
_atom_site_type_symbol
_atom_site_fract_x
_atom_site_fract_y
_atom_site_fract_z
Zr1	Zr	0.633760	0.557767	-0.075998
O2	O	0.754562	0.465304	-0.168450
O3	O	0.512968	0.586109	-0.047658
O4	O	0.633776	0.586090	-0.168456
O5	O	0.633738	0.465341	0.047637
O6	O	0.633778	0.681371	-0.168460
O7	O	0.633754	0.465323	-0.047652
O8	O	0.417674	0.681405	0.047626
O9	O	0.849841	0.465307	-0.168449
O10	O	0.562649	0.669306	-0.035573
O11	O	0.562636	0.598212	0.035543
O12	O	0.704872	0.598190	-0.106681
O13	O	0.704859	0.527096	-0.035565
Zr14	Zr	0.633737	0.709756	0.075971
Zr15	Zr	0.633763	0.709728	-0.076004
Zr16	Zr	0.633734	0.557794	0.075977
Zr17	Zr	0.785719	0.557770	-0.075996
Zr18	Zr	0.481777	0.709752	0.075969
O19	O	0.754529	0.681413	0.047631
O20	O	0.754565	0.681374	-0.168458
O21	O	0.754525	0.465344	0.047639
O22	O	0.512935	0.802218	0.168423
O23	O	0.512972	0.802178	-0.047666
O24	O	0.512932	0.586149	0.168431
O25	O	0.633759	0.802182	-0.047664
O26	O	0.633721	0.681432	0.168430
O27	O	0.633719	0.586152	0.168433
O28	O	0.633743	0.802199	0.047625
O29	O	0.849843	0.586096	-0.168453
O30	O	0.417654	0.681427	0.168426
O31	O	0.417656	0.802215	0.168422
O32	O	0.417676	0.802193	0.047622
O33	O	0.849820	0.465329	-0.047649
O34	O	0.849822	0.586118	-0.047653
O35	O	0.562625	0.669332	0.106654
O36	O	0.562638	0.740426	0.035538
O37	O	0.704861	0.669310	-0.035570
O38	O	0.704848	0.598216	0.035546
C39	C	0.443670	0.633756	-0.000016
C40	C	0.379160	0.633755	-0.000017
C41	C	0.633745	0.443681	-0.000007
C42	C	0.633744	0.379169	-0.000004
C43	C	-0.028863	0.581273	-0.052507
C44	C	0.031755	0.581267	-0.052507
C45	C	0.009570	0.633766	-0.000014
C46	C	-0.073244	0.686265	0.052493
C47	C	-0.133860	0.686266	0.052495
N48	N	0.065670	0.696016	0.015878
N49	N	0.123256	0.696013	0.015872
C50	C	0.192200	0.633767	-0.000016
N51	N	0.201390	0.571521	-0.015911
N52	N	0.143800	0.571524	-0.015908
C53	C	0.075292	0.633771	-0.000010
C54	C	0.340732	0.581262	-0.052517
C55	C	0.401350	0.581256	-0.052511
C56	C	0.296348	0.686259	0.052486
C57	C	0.235733	0.686260	0.052483
C58	C	0.257930	0.633762	-0.000022
C59	C	0.559508	0.385985	0.037107
C60	C	0.559507	0.325370	0.037110
C61	C	0.633746	0.257939	-0.000012
C62	C	0.707992	0.251125	-0.037125
C63	C	0.707991	0.311740	-0.037121
N64	N	0.689012	0.135133	-0.060427
N65	N	0.689008	0.077554	-0.060429
C66	C	0.633753	0.075306	-0.000024
N67	N	0.578491	0.132819	0.060382
N68	N	0.578492	0.190405	0.060383
C69	C	0.633755	0.192207	-0.000020
C70	C	0.559511	0.016398	0.037093
C71	C	0.559512	-0.044220	0.037098
C72	C	0.708000	-0.118464	-0.037143
C73	C	0.707996	-0.057846	-0.037141
C74	C	0.633749	0.009582	-0.000025
C75	C	0.823827	0.633766	-0.000011
C76	C	0.888337	0.633767	-0.000010
C77	C	0.633781	0.633726	-0.190111
C78	C	0.633792	0.633715	-0.254629
C79	C	0.633752	0.823841	-0.000020
C80	C	0.633753	0.888353	-0.000023
C81	C	0.633794	0.686207	-0.284925
C82	C	0.633777	0.686223	-0.345532
C83	C	0.633775	0.633736	-0.375850
C84	C	0.633768	0.581238	-0.345545
C85	C	0.633776	0.581228	-0.284934
N86	N	0.680118	0.571500	-0.494206
N87	N	0.680112	0.571513	-0.551784
C88	C	0.633748	0.633765	-0.558466
N89	N	0.587400	0.696007	-0.505399
N90	N	0.587410	0.695994	-0.447817
C91	C	0.633765	0.633741	-0.441572
C92	C	0.633731	0.686279	-0.654479
C93	C	0.633709	0.686295	-0.715085
C94	C	0.633708	0.581305	-0.715101
C95	C	0.633721	0.581294	-0.654491
C96	C	0.633737	0.633781	-0.624186
C97	C	0.633716	0.633796	0.190085
C98	C	0.633705	0.633808	0.254602
C99	C	0.443674	0.823837	-0.000023
C100	C	0.379164	0.888347	-0.000027
C101	C	0.443638	0.633791	0.190082
C102	C	0.379117	0.633801	0.254598
C103	C	0.443641	0.823871	0.190075
C104	C	0.379121	0.888393	0.254589
C105	C	0.823856	0.443651	-0.190102
C106	C	0.888376	0.379129	-0.254616
C107	C	0.823823	0.443686	-0.000004
C108	C	0.888333	0.379176	-0.000000
C109	C	0.823859	0.633731	-0.190109
C110	C	0.888380	0.633721	-0.254625
C111	C	0.348875	0.881517	-0.037154
C112	C	0.288270	0.942125	-0.037171
C113	C	0.257950	1.009562	-0.000057
C114	C	0.288245	1.016390	0.037071
C115	C	0.348853	0.955782	0.037084
C116	C	0.348811	0.670930	0.322021
C117	C	0.288194	0.670936	0.382647
C118	C	0.257881	0.633819	0.375849
C119	C	0.288192	0.596685	0.308418
C120	C	0.348812	0.596675	0.247794
C121	C	0.348828	0.955810	0.247764
C122	C	0.288213	1.016440	0.308376
C123	C	0.257887	1.009653	0.375812
C124	C	0.288185	0.942229	0.382636
C125	C	0.348804	0.881600	0.322025
C126	C	0.918676	0.311713	-0.247791
C127	C	0.979310	0.251082	-0.308403
C128	C	1.009640	0.257869	-0.375839
C129	C	0.979337	0.325293	-0.382663
C130	C	0.918708	0.385922	-0.322052
C131	C	0.918628	0.386005	0.037120
C132	C	0.979250	0.325397	0.037121
C133	C	1.009572	0.257960	0.000005
C134	C	0.979274	0.251132	-0.037121
C135	C	0.918657	0.311740	-0.037125
C136	C	0.918675	0.670846	-0.247804
C137	C	0.979292	0.670851	-0.308418
C138	C	1.009617	0.633725	-0.375853
C139	C	0.979317	0.596599	-0.382673
C140	C	0.918697	0.596599	-0.322059
H141	H	-0.010782	0.538523	-0.095259
F142	F	0.381135	0.809752	-0.076661
H143	H	0.263611	0.936552	-0.067405
H144	H	0.208598	1.058907	-0.000072
F145	F	0.193370	1.074187	0.440315
H146	H	0.208520	0.633833	0.425219
F147	F	0.255921	0.557185	0.301194
F148	F	0.787003	0.179359	-0.076629
F149	F	0.886467	0.557077	-0.329330
F150	F	0.381055	0.557159	0.176039
F151	F	0.255902	0.935017	0.454413
H152	H	1.003972	0.196189	-0.302833
H153	H	0.168312	0.729009	0.095230
H154	H	1.059007	0.208495	-0.425187
H155	H	-0.091304	0.729010	0.095234
F156	F	0.255966	1.088167	0.076570
H157	H	0.373507	0.961353	0.067321
H158	H	1.004039	0.330811	-0.437577
F159	F	0.119889	0.525394	-0.108385
H160	H	0.893993	0.701078	-0.192900
H161	H	0.373486	0.701156	0.327570
H162	H	0.373460	0.826709	0.327592
H163	H	0.894038	0.440814	-0.327617
H164	H	1.058930	0.208615	0.000014
F165	F	0.381096	0.963049	0.175998
H166	H	0.893945	0.440910	0.067350
H167	H	0.278283	0.729002	0.095230
F168	F	0.633806	0.742069	-0.252670
H169	H	0.263522	0.701177	0.437546
F170	F	0.633698	0.525447	-0.747361
H171	H	0.263550	1.071334	0.302807
H172	H	1.003908	0.330970	0.067356
H173	H	0.633764	0.538503	-0.370232
H174	H	0.468772	0.538506	-0.095262
H175	H	-0.201283	0.729014	0.095246
H176	H	0.499050	0.440885	0.067326
H177	H	0.893985	0.306173	-0.192886
F178	F	0.480495	-0.036961	0.076607
F179	F	1.011551	0.179355	-0.076618
H180	H	0.768446	0.306185	-0.067339
H181	H	1.003956	0.701082	-0.302851
H182	H	0.893993	0.306169	-0.067351
H183	H	1.058978	0.633730	-0.425203
H184	H	0.358807	0.538514	-0.095268
H185	H	0.499052	0.330920	0.067331
H186	H	1.004017	0.566372	-0.437587
F187	F	0.787012	-0.190226	-0.076647
F188	F	0.480491	0.088163	0.076599
H189	H	0.768448	-0.063400	-0.067366
H190	H	0.633779	0.728970	-0.370203
H191	H	0.633774	0.538482	-0.260267
H192	H	0.633740	0.729018	-0.629801
H193	H	0.633725	0.538547	-0.629825
H194	H	0.633706	0.729044	-0.739749
