data_functionalizedCrystal
_audit_creation_method	'MofGen! by Chris Wilmer'
_symmetry_space_group_name_H-M	'P1'
_symmetry_Int_Tables_number	1
_symmetry_cell_setting	triclinic
loop_
_symmetry_equiv_pos_as_xyz
  x,y,z
_cell_length_a	11.026607
_cell_length_b	10.654550
_cell_length_c	9.130313
_cell_angle_alpha	89.995631
_cell_angle_beta	89.997173
_cell_angle_gamma	96.535473
loop_
_atom_site_label
_atom_site_type_symbol
_atom_site_fract_x
_atom_site_fract_y
_atom_site_fract_z
O1	O	-1.614596	-0.526879	0.121808
O2	O	-1.260785	-0.466883	0.121809
O3	O	-1.445825	-0.315907	0.121799
O4	O	-1.429556	-0.677854	0.121817
O5	O	-1.445812	-0.315899	-0.121800
O6	O	-1.260772	-0.466875	-0.121790
O7	O	-1.614583	-0.526870	-0.121791
Cu8	Cu	-1.437676	-0.496872	-0.144033
Cu9	Cu	-1.437692	-0.496882	0.144051
O10	O	-1.429543	-0.677846	-0.121781
C11	C	-1.215474	-0.455811	0.000009
C12	C	-1.080483	-0.422816	0.000009
C13	C	-1.444624	-0.268846	0.000000
C14	C	-1.441050	-0.128627	0.000003
C15	C	-1.659894	-0.537943	0.000011
C16	C	-1.794885	-0.570937	0.000021
C17	C	-1.007444	-0.513920	0.000015
C18	C	-0.867923	-0.479820	0.000015
C19	C	-1.430744	-0.724907	0.000020
C20	C	-1.434318	-0.865126	0.000028
N21	N	-1.437675	-0.496866	-0.346656
C22	C	-1.549999	-0.072791	0.000003
C23	C	-1.546633	0.058961	0.000021
C24	C	-1.325361	0.079029	0.000032
C25	C	-1.328728	-0.052720	0.000025
C26	C	-1.519639	-0.430056	-0.423312
C27	C	-1.519650	-0.430059	-0.576649
C28	C	-1.355730	-0.563692	-0.576660
C29	C	-1.355714	-0.563681	-0.423326
N30	N	-1.437703	-0.496880	0.346673
H31	H	-1.048204	-0.617161	0.000012
H32	H	-1.233911	0.140848	0.000047
Cl33	Cl	-1.252660	-0.647670	-0.326949
Cl34	Cl	-0.857796	-0.730347	0.000008
H35	H	-1.586391	-0.375654	-0.639058
Cl36	Cl	-1.252703	-0.647690	-0.673052
Cl37	Cl	-1.683605	0.129149	0.000024
Cl38	Cl	-1.191752	-0.122919	0.000037
H39	H	-0.827168	-0.376572	0.000047
Cl40	Cl	-1.017563	-0.263414	-0.000009
Cl41	Cl	-1.691204	-0.168212	-0.000021
Cl42	Cl	-1.622670	-0.346054	-0.326933
