data_functionalizedCrystal
_audit_creation_method	'MofGen! by Chris Wilmer'
_symmetry_space_group_name_H-M	'P1'
_symmetry_Int_Tables_number	1
_symmetry_cell_setting	triclinic
loop_
_symmetry_equiv_pos_as_xyz
  x,y,z
_cell_length_a	19.121102
_cell_length_b	19.121459
_cell_length_c	11.169409
_cell_angle_alpha	87.524199
_cell_angle_beta	87.537729
_cell_angle_gamma	85.039048
loop_
_atom_site_label
_atom_site_type_symbol
_atom_site_fract_x
_atom_site_fract_y
_atom_site_fract_z
Zn1	Zn	1.087657	-0.326020	-0.734061
Zn2	Zn	1.587657	0.173980	-0.234061
Zn3	Zn	1.092581	-0.443703	-0.525151
Zn4	Zn	1.592581	0.056297	-0.025151
Zn5	Zn	0.969986	-0.321034	-0.525179
Zn6	Zn	1.469986	0.178966	-0.025179
Zn7	Zn	0.974975	-0.438620	-0.717591
Zn8	Zn	1.474975	0.061380	-0.217591
O9	O	1.031300	-0.382345	-0.625496
O10	O	1.531300	0.117655	-0.125496
O11	O	1.186775	-0.345845	-0.713229
O12	O	1.686775	0.154155	-0.213229
O13	O	1.076291	-0.427472	-0.357200
O14	O	1.576291	0.072528	0.142800
O15	O	0.981447	-0.223235	-0.559793
O16	O	1.481447	0.276765	-0.059793
O17	O	1.190392	-0.432307	-0.559744
O18	O	1.690392	0.067693	-0.059744
O19	O	1.067899	-0.226898	-0.713257
O20	O	1.567899	0.273102	-0.213257
O21	O	0.986221	-0.337347	-0.357221
O22	O	1.486221	0.162653	0.142779
O23	O	0.872184	-0.332418	-0.543823
O24	O	1.372184	0.167582	-0.043823
O25	O	0.989950	-0.423643	-0.887731
O26	O	1.489950	0.076357	-0.387731
O27	O	0.875849	-0.418808	-0.685187
O28	O	1.375849	0.081192	-0.185187
O29	O	1.072737	-0.340916	-0.899831
O30	O	1.572737	0.159084	-0.399831
O31	O	1.081129	-0.541490	-0.543774
O32	O	1.581129	-0.041490	-0.043774
O33	O	0.994724	-0.537755	-0.685159
O34	O	1.494724	-0.037755	-0.185159
C35	C	0.848485	-0.374521	-0.612721
C36	C	1.348485	0.125479	-0.112721
C37	C	0.770277	-0.371191	-0.607284
C38	C	1.270277	0.128809	-0.107284
C39	C	1.039021	-0.565153	-0.612703
C40	C	1.539021	-0.065153	-0.112703
C41	C	1.042389	-0.643362	-0.607275
C42	C	1.542389	-0.143362	-0.107275
C43	C	0.735465	-0.414673	-0.678204
C44	C	1.235465	0.085327	-0.178204
C45	C	0.661979	-0.411535	-0.673102
C46	C	1.161979	0.088465	-0.173102
C47	C	0.623308	-0.364918	-0.597071
C48	C	1.123308	0.135082	-0.097071
C49	C	0.658126	-0.321431	-0.526147
C50	C	1.158126	0.178569	-0.026147
C51	C	0.731610	-0.324566	-0.531257
C52	C	1.231610	0.175434	-0.031257
C53	C	0.401338	-0.353195	-0.577972
C54	C	0.901338	0.146805	-0.077972
C55	C	0.327850	-0.350064	-0.572865
C56	C	0.827850	0.149936	-0.072865
C57	C	0.331708	-0.440168	-0.719821
C58	C	0.831708	0.059832	-0.219821
C59	C	0.405193	-0.443302	-0.724919
C60	C	0.905193	0.056698	-0.224919
C61	C	0.440004	-0.399812	-0.654000
C62	C	0.940004	0.100188	-0.154000
C63	C	0.548195	-0.361710	-0.591850
C64	C	1.048195	0.138290	-0.091850
C65	C	0.515117	-0.403017	-0.659228
C66	C	1.015117	0.096983	-0.159228
C67	C	1.063708	-1.085794	-0.572857
C68	C	1.563708	-0.585794	-0.072857
C69	C	1.060538	-1.012308	-0.577959
C70	C	1.560538	-0.512308	-0.077959
C71	C	1.013935	-0.973647	-0.654061
C72	C	1.513935	-0.473647	-0.154061
C73	C	0.970494	-1.008475	-0.725057
C74	C	1.470494	-0.508475	-0.225057
C75	C	0.973661	-1.081960	-0.719947
C76	C	1.473661	-0.581960	-0.219947
C77	C	1.002116	-0.751675	-0.673162
C78	C	1.502116	-0.251675	-0.173162
C79	C	0.998953	-0.678186	-0.678268
C80	C	1.498953	-0.178186	-0.178268
C81	C	1.088996	-0.682023	-0.531168
C82	C	1.588996	-0.182023	-0.031168
C83	C	1.092163	-0.755509	-0.526071
C84	C	1.592163	-0.255509	-0.026071
C85	C	1.048719	-0.790331	-0.597062
C86	C	1.548719	-0.290331	-0.097062
C87	C	1.010694	-0.898532	-0.659281
C88	C	1.510694	-0.398532	-0.159281
C89	C	1.051957	-0.865444	-0.591835
C90	C	1.551957	-0.365444	-0.091835
C91	C	1.214828	-0.390199	-0.638320
C92	C	1.714828	0.109801	-0.138320
C93	C	1.293037	-0.393546	-0.643786
C94	C	1.793037	0.106454	-0.143786
C95	C	1.031351	-0.382269	-0.938547
C96	C	1.531351	0.117731	-0.438547
C97	C	1.031372	-0.382236	-1.071951
C98	C	1.531372	0.117764	-0.571951
C99	C	1.023568	-0.198823	-0.638365
C100	C	1.523568	0.301177	-0.138365
C101	C	1.020272	-0.120617	-0.643850
C102	C	1.520272	0.379383	-0.143850
C103	C	1.031288	-0.382371	-0.313668
C104	C	1.531288	0.117629	0.186332
C105	C	1.031394	-0.382211	-0.180288
C106	C	1.531394	0.117789	0.319712
H107	H	0.766946	-0.452636	-0.740113
H108	H	1.266946	0.047364	-0.240113
H109	H	0.961001	-0.646711	-0.740244
H110	H	1.461001	-0.146711	-0.240244
C111	C	0.557649	-0.454293	-0.742859
C112	C	1.057649	0.045707	-0.242859
H113	H	0.526394	-0.479742	-0.784373
H114	H	1.026394	0.020258	-0.284373
H115	H	0.587598	-0.486137	-0.696707
H116	H	1.087598	0.013863	-0.196707
H117	H	0.585192	-0.428631	-0.799107
H118	H	1.085192	0.071369	-0.299107
H119	H	0.516701	-0.323756	-0.529943
H120	H	1.016701	0.176244	-0.029943
H121	H	1.095906	-0.983955	-0.520150
H122	H	1.595906	-0.483955	-0.020150
H123	H	1.101661	-1.117266	-0.510893
H124	H	1.601661	-0.617266	-0.010893
C125	C	1.143404	-0.798033	-0.442323
C126	C	1.643404	-0.298033	0.057677
H127	H	1.139067	-0.846785	-0.449446
H128	H	1.639067	-0.346785	0.050554
H129	H	1.132594	-0.785586	-0.361796
H130	H	1.632594	-0.285586	0.138204
H131	H	1.190164	-0.787970	-0.464071
H132	H	1.690164	-0.287970	0.035929
H133	H	0.633638	-0.446943	-0.730852
H134	H	1.133638	0.053057	-0.230852
H135	H	1.124365	-0.653664	-0.473369
H136	H	1.624365	-0.153664	0.026631
C137	C	0.954336	-0.789971	-0.751258
C138	C	1.454336	-0.289971	-0.251258
H139	H	0.926134	-0.756419	-0.797322
H140	H	1.426134	-0.256419	-0.297322
H141	H	0.924925	-0.817374	-0.701175
H142	H	1.424925	-0.317374	-0.201175
H143	H	0.982475	-0.819739	-0.803482
H144	H	1.482475	-0.319739	-0.303482
H145	H	0.932545	-0.976993	-0.787016
H146	H	1.432545	-0.476993	-0.287016
H147	H	0.436674	-0.481264	-0.786829
H148	H	0.936674	0.018736	-0.286829
H149	H	0.303357	-0.475573	-0.777561
H150	H	0.803357	0.024427	-0.277561
H151	H	0.938295	-1.110312	-0.777764
H152	H	1.438295	-0.610312	-0.277764
H153	H	0.296365	-0.312095	-0.510959
H154	H	0.796365	0.187905	-0.010959
H155	H	0.429673	-0.317788	-0.520215
H156	H	0.929673	0.182212	-0.020215
C157	C	0.615590	-0.270156	-0.442511
C158	C	1.115590	0.229844	0.057489
H159	H	0.566840	-0.274521	-0.449614
H160	H	1.066840	0.225479	0.050386
H161	H	0.625638	-0.223405	-0.464347
H162	H	1.125638	0.276595	0.035653
H163	H	0.628046	-0.280920	-0.361960
H164	H	1.128046	0.219080	0.138040
H165	H	0.759953	-0.289155	-0.473512
H166	H	1.259953	0.210845	0.026488
H167	H	1.089898	-0.896924	-0.529869
H168	H	1.589898	-0.396924	-0.029869
H169	H	0.972750	-0.867049	-0.721247
H170	H	1.472750	-0.367049	-0.221247
