data_functionalizedCrystal
_audit_creation_method	'MofGen! by Chris Wilmer'
_symmetry_space_group_name_H-M	'P1'
_symmetry_Int_Tables_number	1
_symmetry_cell_setting	triclinic
loop_
_symmetry_equiv_pos_as_xyz
  x,y,z
_cell_length_a	12.759401
_cell_length_b	19.805405
_cell_length_c	12.759393
_cell_angle_alpha	89.966133
_cell_angle_beta	89.980324
_cell_angle_gamma	90.027152
loop_
_atom_site_label
_atom_site_type_symbol
_atom_site_fract_x
_atom_site_fract_y
_atom_site_fract_z
Zn1	Zn	1.606179	-0.269423	-0.593960
Zn2	Zn	1.606033	-0.382625	-0.418270
Zn3	Zn	1.430477	-0.269457	-0.418299
Zn4	Zn	1.430432	-0.382576	-0.593911
O5	O	1.518280	-0.326020	-0.506110
O6	O	1.753180	-0.284446	-0.570663
O7	O	1.582703	-0.367648	-0.271253
O8	O	1.453864	-0.174735	-0.441634
O9	O	1.753073	-0.367615	-0.441584
O10	O	1.582951	-0.174711	-0.570691
O11	O	1.453723	-0.284504	-0.271274
O12	O	1.283450	-0.284456	-0.441586
O13	O	1.453788	-0.367531	-0.740939
O14	O	1.283417	-0.367564	-0.570607
O15	O	1.582908	-0.284398	-0.740975
O16	O	1.582659	-0.477335	-0.441536
O17	O	1.453646	-0.477299	-0.570579
C18	C	1.245313	-0.326009	-0.506095
C19	C	1.128536	-0.326020	-0.506114
C20	C	1.073731	-0.282792	-0.573429
C21	C	0.964007	-0.282799	-0.573436
C22	C	0.963903	-0.369268	-0.438810
C23	C	1.073625	-0.369257	-0.438798
C24	C	1.518161	-0.501876	-0.506072
C25	C	1.518205	-0.577108	-0.506091
C26	C	1.585381	-0.612381	-0.573344
C27	C	1.585419	-0.683070	-0.573363
C28	C	1.518286	-0.718484	-0.506124
C29	C	1.451103	-0.683206	-0.438868
C30	C	1.451060	-0.612519	-0.438855
C31	C	1.451271	-0.968279	-0.438922
C32	C	1.451321	-1.038971	-0.438938
C33	C	1.585630	-1.038830	-0.573431
C34	C	1.585588	-0.968143	-0.573417
C35	C	1.518401	-0.932871	-0.506166
C36	C	1.518360	-0.856223	-0.506147
C37	C	1.518332	-0.795131	-0.506137
C38	C	1.792313	-0.326032	-0.506126
C39	C	1.909090	-0.326038	-0.506132
C40	C	1.518359	-0.325955	-0.780143
C41	C	1.518392	-0.325928	-0.896920
C42	C	1.518429	-0.149477	-0.506171
C43	C	1.518492	-0.074245	-0.506197
C44	C	1.585630	-0.282633	-0.951803
C45	C	1.585648	-0.282604	-1.061527
C46	C	1.451187	-0.369169	-1.061476
C47	C	1.451165	-0.369195	-0.951754
C48	C	1.518262	-0.326036	-0.233143
C49	C	1.518432	-0.325873	-0.116367
H50	H	1.118436	-0.247583	-0.628238
C51	C	1.659573	-0.235032	-0.891489
N52	N	1.715265	-0.199175	-0.846064
H53	H	1.118249	-0.404459	-0.383977
C54	C	1.659236	-0.573432	-0.647312
N55	N	1.714864	-0.544098	-0.703030
C56	C	1.659446	-0.929191	-0.647379
N57	N	1.715077	-0.899854	-0.703090
H58	H	1.396455	-0.404397	-1.106136
C59	C	1.659617	-0.234978	-1.121893
N60	N	1.715335	-0.199104	-1.167359
C61	C	1.659530	-1.077635	-0.647418
N62	N	1.715190	-1.106862	-0.703142
C63	C	0.903725	-0.235246	-0.647491
N64	N	0.858322	-0.199428	-0.703272
C65	C	0.903491	-0.416830	-0.364773
N66	N	0.857990	-0.452657	-0.309010
C67	C	1.377459	-1.077925	-0.364973
N68	N	1.321828	-1.107266	-0.309266
H69	H	1.640129	-0.711786	-0.628119
H70	H	1.396568	-0.939566	-0.384161
H71	H	1.396437	-0.712046	-0.384125
H72	H	1.396357	-0.583800	-0.384092
H73	H	1.396404	-0.404450	-0.907068
