data_functionalizedCrystal
_audit_creation_method	'MofGen! by Chris Wilmer'
_symmetry_space_group_name_H-M	'P1'
_symmetry_Int_Tables_number	1
_symmetry_cell_setting	triclinic
loop_
_symmetry_equiv_pos_as_xyz
  x,y,z
_cell_length_a	19.077105
_cell_length_b	21.295417
_cell_length_c	19.076919
_cell_angle_alpha	92.266620
_cell_angle_beta	90.076224
_cell_angle_gamma	87.726672
loop_
_atom_site_label
_atom_site_type_symbol
_atom_site_fract_x
_atom_site_fract_y
_atom_site_fract_z
Zn1	Zn	1.058236	-0.304534	-0.440387
Zn2	Zn	1.558236	0.195466	0.059613
Zn3	Zn	1.062864	-0.405747	-0.322870
Zn4	Zn	1.562864	0.094253	0.177130
Zn5	Zn	0.945454	-0.296102	-0.318181
Zn6	Zn	1.445454	0.203898	0.181819
Zn7	Zn	0.940686	-0.405368	-0.435623
Zn8	Zn	1.440686	0.094632	0.064377
O9	O	1.001810	-0.352938	-0.379265
O10	O	1.501810	0.147062	0.120735
O11	O	1.157181	-0.321649	-0.428754
O12	O	1.657181	0.178351	0.071246
O13	O	1.051222	-0.387832	-0.223917
O14	O	1.551222	0.112168	0.276083
O15	O	0.960474	-0.209134	-0.334424
O16	O	1.460474	0.290866	0.165576
O17	O	1.160581	-0.396009	-0.342415
O18	O	1.660581	0.103991	0.157585
O19	O	1.043334	-0.215330	-0.424208
O20	O	1.543334	0.284670	0.075792
O21	O	0.964962	-0.307276	-0.220472
O22	O	1.464962	0.192724	0.279528
O23	O	0.846490	-0.306908	-0.329804
O24	O	1.346490	0.193092	0.170196
O25	O	0.952346	-0.395362	-0.534586
O26	O	1.452346	0.104638	-0.034586
O27	O	0.842987	-0.387185	-0.416088
O28	O	1.342987	0.112815	0.083912
O29	O	1.038710	-0.321280	-0.538086
O30	O	1.538710	0.178720	-0.038086
O31	O	1.046598	-0.493783	-0.337795
O32	O	1.546598	0.006217	0.162205
O33	O	0.956834	-0.493504	-0.420634
O34	O	1.456834	0.006496	0.079366
C35	C	0.819242	-0.346091	-0.371921
C36	C	1.319242	0.153909	0.128079
C37	C	0.741139	-0.343178	-0.368795
C38	C	1.241139	0.156822	0.131205
C39	C	0.702642	-0.383663	-0.412179
C40	C	1.202642	0.116337	0.087821
C41	C	0.629255	-0.380918	-0.409246
C42	C	1.129255	0.119082	0.090754
C43	C	0.594366	-0.337689	-0.362924
C44	C	1.094366	0.162311	0.137076
C45	C	0.632868	-0.297199	-0.319538
C46	C	1.132868	0.202801	0.180462
C47	C	0.706253	-0.299942	-0.322476
C48	C	1.206253	0.200058	0.177524
C49	C	0.375080	-0.324994	-0.349333
C50	C	0.875080	0.175006	0.150667
C51	C	0.301690	-0.322256	-0.346397
C52	C	0.801690	0.177744	0.153603
C53	C	0.298082	-0.405974	-0.436106
C54	C	0.798082	0.094026	0.063894
C55	C	0.371470	-0.408715	-0.439037
C56	C	0.871470	0.091285	0.060963
C57	C	0.409965	-0.368223	-0.395653
C58	C	0.909965	0.131777	0.104347
N59	N	0.519353	-0.334883	-0.359923
N60	N	1.019353	0.165117	0.140077
N61	N	0.484976	-0.371027	-0.398658
N62	N	0.984976	0.128973	0.101342
C63	C	1.001719	-0.516485	-0.379223
C64	C	1.501719	-0.016485	0.120777
C65	C	1.001744	-0.586454	-0.379231
C66	C	1.501744	-0.086454	0.120769
C67	C	1.048522	-0.619448	-0.336144
C68	C	1.548522	-0.119448	0.163856
C69	C	1.048554	-0.685192	-0.336161
C70	C	1.548554	-0.185192	0.163839
C71	C	1.001796	-0.717939	-0.379257
C72	C	1.501796	-0.217939	0.120743
C73	C	0.955015	-0.684937	-0.422352
C74	C	1.455015	-0.184937	0.077648
C75	C	0.954989	-0.619195	-0.422339
C76	C	1.454989	-0.119195	0.077661
N77	N	0.940111	-0.819089	-0.382141
N78	N	1.440111	-0.319089	0.117859
N79	N	0.940138	-0.881541	-0.382149
N80	N	1.440138	-0.381541	0.117851
C81	C	1.001873	-0.916018	-0.379300
C82	C	1.501873	-0.416018	0.120700
N83	N	1.063583	-0.885683	-0.376429
N84	N	1.563583	-0.385683	0.123571
N85	N	1.063555	-0.823224	-0.376417
N86	N	1.563555	-0.323224	0.123583
C87	C	1.001820	-0.789226	-0.379276
C88	C	1.501820	-0.289226	0.120724
C89	C	1.048690	-1.020300	-0.336230
C90	C	1.548690	-0.520300	0.163770
C91	C	1.048724	-1.086046	-0.336252
C92	C	1.548724	-0.586046	0.163748
C93	C	0.955178	-1.085789	-0.422439
C94	C	1.455178	-0.585789	0.077561
C95	C	0.955151	-1.020045	-0.422421
C96	C	1.455151	-0.520045	0.077579
C97	C	1.001906	-0.987304	-0.379313
C98	C	1.501906	-0.487304	0.120687
C99	C	1.185090	-0.359812	-0.386639
C100	C	1.685090	0.140188	0.113361
C101	C	1.263193	-0.362741	-0.389782
C102	C	1.763193	0.137259	0.110218
C103	C	0.994480	-0.359220	-0.562545
C104	C	1.494480	0.140780	-0.062545
C105	C	0.991356	-0.361897	-0.640648
C106	C	1.491356	0.138103	-0.140648
C107	C	1.001919	-0.188754	-0.379324
C108	C	1.501919	0.311246	0.120676
C109	C	1.001966	-0.118788	-0.379349
C110	C	1.501966	0.381212	0.120651
C111	C	1.034851	-0.324586	-0.679164
C112	C	1.534851	0.175414	-0.179164
C113	C	1.031907	-0.327098	-0.752550
C114	C	1.531907	0.172902	-0.252550
C115	C	0.985472	-0.366925	-0.787418
C116	C	1.485472	0.133075	-0.287418
C117	C	0.941972	-0.404238	-0.748896
C118	C	1.441972	0.095762	-0.248896
C119	C	0.944913	-0.401722	-0.675512
C120	C	1.444913	0.098278	-0.175512
C121	C	0.971853	-0.378584	-1.006698
C122	C	1.471853	0.121416	-0.506698
C123	C	0.968917	-0.381099	-1.080087
C124	C	1.468917	0.118901	-0.580087
C125	C	1.058852	-0.303958	-1.083736
C126	C	1.558852	0.196042	-0.583736
C127	C	1.061791	-0.301448	-1.010350
C128	C	1.561791	0.198552	-0.510350
C129	C	1.018289	-0.338758	-0.971835
C130	C	1.518289	0.161242	-0.471835
N131	N	0.982464	-0.369496	-0.862429
N132	N	1.482464	0.130504	-0.362429
N133	N	1.021294	-0.336183	-0.896824
N134	N	1.521294	0.163817	-0.396824
C135	C	1.009152	-0.346637	-0.196700
C136	C	1.509152	0.153363	0.303300
C137	C	1.012412	-0.343787	-0.118604
C138	C	1.512412	0.156213	0.381396
H139	H	0.406414	-0.292027	-0.314002
H140	H	0.906414	0.207973	0.185998
C141	C	1.099438	-1.121983	-0.289494
C142	C	1.599438	-0.621983	0.210506
C143	C	1.061555	-1.156801	-0.242849
C144	C	1.561555	-0.656801	0.257151
C145	C	1.108265	-1.189938	-0.199802
C146	C	1.608265	-0.689938	0.300198
H147	H	1.127331	-1.093164	-0.263753
H148	H	1.627331	-0.593164	0.236247
H149	H	1.128923	-1.149671	-0.317680
H150	H	1.628923	-0.649671	0.182320
H151	H	1.032082	-1.129115	-0.214666
H152	H	1.532082	-0.629115	0.285334
H153	H	1.033664	-1.185630	-0.268571
H154	H	1.533664	-0.685630	0.231429
H155	H	1.137750	-1.217627	-0.227988
H156	H	1.637750	-0.717627	0.272012
H157	H	1.136156	-1.161115	-0.174065
H158	H	1.636156	-0.661115	0.325935
H159	H	1.082568	-1.213571	-0.168152
H160	H	1.582568	-0.713571	0.331848
C161	C	0.891600	-0.447580	-0.786663
C162	C	1.391600	0.052420	-0.286663
C163	C	0.907562	-0.509820	-0.769390
C164	C	1.407562	-0.009820	-0.269390
C165	C	0.861169	-0.549766	-0.804159
C166	C	1.361169	-0.049766	-0.304159
H167	H	0.896034	-0.443821	-0.835894
H168	H	1.396034	0.056179	-0.335894
H169	H	0.844864	-0.436221	-0.772723
H170	H	1.344864	0.063779	-0.272723
H171	H	0.954287	-0.521176	-0.783334
H172	H	1.454287	-0.021176	-0.283334
H173	H	0.903123	-0.513599	-0.720166
H174	H	1.403123	-0.013599	-0.220166
H175	H	0.814433	-0.538406	-0.790219
H176	H	1.314433	-0.038406	-0.290219
H177	H	0.865607	-0.546001	-0.853388
H178	H	1.365607	-0.046001	-0.353388
H179	H	0.871989	-0.591999	-0.792439
H180	H	1.371989	-0.091999	-0.292439
C181	C	1.099370	-0.584018	-0.289327
C182	C	1.599370	-0.084018	0.210673
C183	C	1.140357	-0.626991	-0.251612
C184	C	1.640357	-0.126991	0.248388
C185	C	1.187214	-0.594375	-0.208487
C186	C	1.687214	-0.094375	0.291513
H187	H	1.073815	-0.556346	-0.257544
H188	H	1.573815	-0.056346	0.242456
H189	H	1.128918	-0.560421	-0.317446
H190	H	1.628918	-0.060421	0.182554
H191	H	1.110813	-0.650577	-0.223495
H192	H	1.610813	-0.150577	0.276505
H193	H	1.165927	-0.654664	-0.283378
H194	H	1.665927	-0.154664	0.216622
H195	H	1.216762	-0.570778	-0.236606
H196	H	1.716762	-0.070778	0.263394
H197	H	1.161653	-0.566704	-0.176708
H198	H	1.661653	-0.066704	0.323292
H199	H	1.215034	-0.623527	-0.182897
H200	H	1.715034	-0.123527	0.317103
H201	H	1.086649	-0.712061	-0.301075
H202	H	1.586649	-0.212061	0.198925
C203	C	0.904444	-1.121447	-0.469158
C204	C	1.404444	-0.621447	0.030842
C205	C	0.914468	-1.186084	-0.459939
C206	C	1.414468	-0.686084	0.040061
C207	C	0.867740	-1.218954	-0.502962
C208	C	1.367740	-0.718954	-0.002962
H209	H	0.912752	-1.112720	-0.516815
H210	H	1.412752	-0.612720	-0.016815
H211	H	0.857631	-1.108631	-0.456929
H212	H	1.357631	-0.608631	0.043071
H213	H	0.961269	-1.198895	-0.472173
H214	H	1.461269	-0.698895	0.027827
H215	H	0.906154	-1.194830	-0.412292
H216	H	1.406154	-0.694830	0.087708
H217	H	0.820928	-1.206138	-0.490733
H218	H	1.320928	-0.706138	0.009267
H219	H	0.876052	-1.210222	-0.550616
H220	H	1.376052	-0.710222	-0.050616
H221	H	0.874531	-1.262813	-0.496708
H222	H	1.374531	-0.762813	0.003292
H223	H	0.909487	-0.432098	-0.644152
H224	H	1.409487	0.067902	-0.144152
C225	C	0.904231	-0.583454	-0.469234
C226	C	1.404231	-0.083454	0.030766
C227	C	0.916690	-0.602366	-0.539386
C228	C	1.416690	-0.102366	-0.039386
C229	C	0.869939	-0.569460	-0.582604
C230	C	1.369939	-0.069460	-0.082604
H231	H	0.910862	-0.539603	-0.463145
H232	H	1.410862	-0.039603	0.036855
H233	H	0.857430	-0.592165	-0.457057
H234	H	1.357430	-0.092165	0.042943
H235	H	0.963480	-0.593650	-0.551558
H236	H	1.463480	-0.093650	-0.051558
H237	H	0.910054	-0.646213	-0.545497
H238	H	1.410054	-0.146213	-0.045497
H239	H	0.823138	-0.578172	-0.570428
H240	H	1.323138	-0.078172	-0.070428
H241	H	0.876574	-0.525611	-0.576509
H242	H	1.376574	-0.025611	-0.076509
H243	H	0.878381	-0.582292	-0.630206
H244	H	1.378381	-0.082292	-0.130206
H245	H	0.731044	-0.418867	-0.449897
H246	H	1.231044	0.081133	0.050103
C247	C	1.112264	-0.258293	-0.972444
C248	C	1.612264	0.241707	-0.472444
C249	C	1.158979	-0.294161	-0.932110
C250	C	1.658979	0.205839	-0.432110
C251	C	1.205479	-0.254424	-0.897181
C252	C	1.705479	0.245576	-0.397181
H253	H	1.086603	-0.228879	-0.942699
H254	H	1.586603	0.271121	-0.442699
H255	H	1.137790	-0.236428	-1.005860
H256	H	1.637790	0.263572	-0.505860
H257	H	1.133455	-0.316016	-0.898698
H258	H	1.633455	0.183984	-0.398698
H259	H	1.184656	-0.323574	-0.961838
H260	H	1.684656	0.176426	-0.461838
H261	H	1.231006	-0.232559	-0.930597
H262	H	1.731006	0.267441	-0.430597
H263	H	1.179812	-0.225012	-0.867440
H264	H	1.679812	0.274988	-0.367440
H265	H	1.237185	-0.278755	-0.869816
H266	H	1.737185	0.221245	-0.369816
C267	C	0.918560	-0.424317	-1.118075
C268	C	1.418560	0.075683	-0.618075
C269	C	0.925311	-0.418544	-1.190586
C270	C	1.425311	0.081456	-0.690586
C271	C	0.878941	-0.458348	-1.225603
C272	C	1.378941	0.041652	-0.725603
H273	H	0.871805	-0.412954	-1.104234
H274	H	1.371805	0.087046	-0.604234
H275	H	0.929291	-0.466602	-1.106491
H276	H	1.429291	0.033398	-0.606491
H277	H	0.914575	-0.376268	-1.202165
H278	H	1.414575	0.123732	-0.702165
H279	H	0.972055	-0.429911	-1.204448
H280	H	1.472055	0.070089	-0.704448
H281	H	0.889673	-0.500633	-1.214018
H282	H	1.389673	-0.000633	-0.714018
H283	H	0.832190	-0.446982	-1.211756
H284	H	1.332190	0.053018	-0.711756
H285	H	0.883520	-0.454441	-1.274805
H286	H	1.383520	0.045559	-0.774805
C287	C	0.748145	-0.256092	-0.275333
C288	C	1.248145	0.243908	0.224667
C289	C	0.792066	-0.291700	-0.231921
C290	C	1.292066	0.208300	0.268079
C291	C	0.830674	-0.251325	-0.188492
C292	C	1.330674	0.248675	0.311508
H293	H	0.716942	-0.229940	-0.247259
H294	H	1.216942	0.270060	0.252741
H295	H	0.775756	-0.230708	-0.303401
H296	H	1.275756	0.269292	0.196599
H297	H	0.764457	-0.317074	-0.203857
H298	H	1.264457	0.182926	0.296143
H299	H	0.823283	-0.317851	-0.259976
H300	H	1.323283	0.182149	0.240024
H301	H	0.858285	-0.225941	-0.216560
H302	H	1.358285	0.274059	0.283440
H303	H	0.799466	-0.225175	-0.160423
H304	H	1.299466	0.274825	0.339577
H305	H	0.860483	-0.275479	-0.159037
H306	H	1.360483	0.224521	0.340963
C307	C	0.904277	-0.720600	-0.469066
C308	C	1.404277	-0.220600	0.030934
C309	C	0.914298	-0.785236	-0.459842
C310	C	1.414298	-0.285236	0.040158
C311	C	0.867566	-0.818107	-0.502860
C312	C	1.367566	-0.318107	-0.002860
H313	H	0.912585	-0.711877	-0.516724
H314	H	1.412585	-0.211877	-0.016724
H315	H	0.857466	-0.707781	-0.456836
H316	H	1.357466	-0.207781	0.043164
H317	H	0.961098	-0.798051	-0.472076
H318	H	1.461098	-0.298051	0.027924
H319	H	0.905985	-0.793978	-0.412193
H320	H	1.405985	-0.293978	0.087807
H321	H	0.820755	-0.805288	-0.490630
H322	H	1.320755	-0.305288	0.009370
H323	H	0.875878	-0.809379	-0.550516
H324	H	1.375878	-0.309379	-0.050516
H325	H	0.874354	-0.861965	-0.496602
H326	H	1.374354	-0.361965	0.003398
H327	H	0.604455	-0.261999	-0.281825
H328	H	1.104455	0.238001	0.218175
H329	H	0.399871	-0.443918	-0.476755
H330	H	0.899871	0.056082	0.023245
H331	H	1.086764	-0.993641	-0.301131
H332	H	1.586764	-0.493641	0.198869
C333	C	0.904276	-0.984330	-0.469217
C334	C	1.404276	-0.484330	0.030783
C335	C	0.863320	-1.027076	-0.506950
C336	C	1.363320	-0.527076	-0.006950
C337	C	0.816439	-0.994198	-0.550061
C338	C	1.316439	-0.494198	-0.050061
H339	H	0.929812	-0.960700	-0.500991
H340	H	1.429812	-0.460700	-0.000991
H341	H	0.874710	-0.956666	-0.441088
H342	H	1.374710	-0.456666	0.058912
H343	H	0.892883	-1.054729	-0.535077
H344	H	1.392883	-0.554729	-0.035077
H345	H	0.837769	-1.050707	-0.475195
H346	H	1.337769	-0.550707	0.024805
H347	H	0.786873	-0.966534	-0.521932
H348	H	1.286873	-0.466534	-0.021932
H349	H	0.841981	-0.970569	-0.581830
H350	H	1.341981	-0.470569	-0.081830
H351	H	0.788641	-1.023195	-0.575663
H352	H	1.288641	-0.523195	-0.075663
H353	H	1.072666	-0.292156	-0.650780
H354	H	1.572666	0.207844	-0.150780
C355	C	0.256161	-0.449855	-0.483180
C356	C	0.756161	0.050145	0.016820
C357	C	0.184425	-0.438192	-0.470709
C358	C	0.684425	0.061808	0.029291
C359	C	0.145787	-0.478598	-0.514071
C360	C	0.645787	0.021402	-0.014071
H361	H	0.268492	-0.492254	-0.473332
H362	H	0.768492	0.007746	0.026668
H363	H	0.266274	-0.442768	-0.530906
H364	H	0.766274	0.057232	-0.030906
H365	H	0.174317	-0.445285	-0.422994
H366	H	0.674317	0.054715	0.077006
H367	H	0.172074	-0.395802	-0.480561
H368	H	0.672074	0.104198	0.019439
H369	H	0.155900	-0.471511	-0.561797
H370	H	0.655900	0.028489	-0.061797
H371	H	0.158123	-0.520994	-0.504220
H372	H	0.658123	-0.020994	-0.004220
H373	H	0.097110	-0.470687	-0.505620
H374	H	0.597110	0.029313	-0.005620
H375	H	0.273285	-0.287047	-0.308681
H376	H	0.773285	0.212953	0.191319
H377	H	1.067327	-0.296717	-0.783907
H378	H	1.567327	0.203283	-0.283907
H379	H	1.094268	-0.273581	-1.115103
H380	H	1.594268	0.226419	-0.615103
H381	H	0.936440	-0.408974	-0.975347
H382	H	1.436440	0.091026	-0.475347
H383	H	0.597915	-0.413886	-0.444573
H384	H	1.097915	0.086114	0.055427
