data_functionalizedCrystal
_audit_creation_method	'MofGen! by Chris Wilmer'
_symmetry_space_group_name_H-M	'P1'
_symmetry_Int_Tables_number	1
_symmetry_cell_setting	triclinic
loop_
_symmetry_equiv_pos_as_xyz
  x,y,z
_cell_length_a	10.654550
_cell_length_b	17.699083
_cell_length_c	9.130313
_cell_angle_alpha	89.997869
_cell_angle_beta	89.996220
_cell_angle_gamma	83.883958
loop_
_atom_site_label
_atom_site_type_symbol
_atom_site_fract_x
_atom_site_fract_y
_atom_site_fract_z
O1	O	1.665973	0.106299	-0.121923
O2	O	1.300318	0.116427	-0.121900
O3	O	1.493476	0.001240	-0.121899
O4	O	1.472815	0.221487	-0.121924
O5	O	1.493474	0.001243	0.121700
O6	O	1.300315	0.116430	0.121699
O7	O	1.665971	0.106302	0.121676
Cu8	Cu	1.483143	0.111366	0.143930
Cu9	Cu	1.483146	0.111363	-0.144154
O10	O	1.472812	0.221490	0.121675
C11	C	1.253531	0.115685	-0.000097
C12	C	1.114127	0.113460	-0.000088
C13	C	1.033454	0.181281	-0.000117
C14	C	0.902470	0.179185	-0.000142
C15	C	0.932845	0.041443	-0.000115
C16	C	1.063826	0.043539	-0.000080
C17	C	1.015917	0.260805	-0.000139
C18	C	0.884933	0.258710	-0.000164
C19	C	1.492735	-0.026961	-0.000099
C20	C	1.490514	-0.110993	-0.000099
C21	C	1.603894	-0.158893	-0.000104
C22	C	1.601799	-0.237850	-0.000117
C23	C	1.486324	-0.268905	-0.000114
C24	C	1.372935	-0.220998	-0.000113
C25	C	1.375031	-0.142043	-0.000111
C26	C	1.364481	-0.539415	-0.000124
C27	C	1.362394	-0.618376	-0.000122
C28	C	1.591249	-0.635222	-0.000130
C29	C	1.593345	-0.556266	-0.000128
C30	C	1.479957	-0.508367	-0.000135
C31	C	1.482229	-0.422753	-0.000124
C32	C	1.484050	-0.354517	-0.000114
C33	C	1.712757	0.107044	-0.000130
C34	C	1.852161	0.109269	-0.000149
C35	C	1.473554	0.249690	-0.000128
C36	C	1.475775	0.333722	-0.000138
N37	N	1.483150	0.111369	0.346553
N38	N	1.483149	0.111355	-0.346777
C39	C	1.568702	0.060381	0.423205
C40	C	1.568699	0.060372	0.576542
C41	C	1.397587	0.162345	0.576561
C42	C	1.397585	0.162349	0.423226
C43	C	1.667496	0.001510	0.423195
C44	C	1.667493	0.001501	0.576532
H45	H	0.838840	0.282744	0.105002
O46	O	1.642895	-0.067857	0.373619
C47	C	1.523806	-0.083789	0.425258
H48	H	1.463966	-0.028298	0.452507
H49	H	1.536577	-0.120489	0.527893
C50	C	1.530800	-0.194732	0.272749
C51	C	1.457299	-0.126576	0.306204
H52	H	1.489777	-0.221128	0.199315
H53	H	1.611035	-0.184000	0.237961
H54	H	1.541437	-0.225306	0.358288
H55	H	1.446677	-0.096000	0.220671
H56	H	1.377061	-0.137304	0.340974
H57	H	1.278912	-0.246289	-0.000120
H58	H	1.763777	0.014469	0.618141
O59	O	1.632047	-0.064018	0.633330
C60	C	1.523216	-0.047386	0.720232
H61	H	1.471321	0.009258	0.684427
H62	H	1.551802	-0.043759	0.840141
C63	C	1.499557	-0.180204	0.745525
C64	C	1.435814	-0.110636	0.701540
H65	H	1.445645	-0.219221	0.734002
H66	H	1.572881	-0.191410	0.686982
H67	H	1.523376	-0.177171	0.845447
H68	H	1.412011	-0.113666	0.601617
H69	H	1.362483	-0.099432	0.760066
H70	H	0.891873	-0.015484	-0.000131
H71	H	1.044703	0.291908	0.101809
H72	H	1.687377	-0.530986	-0.000123
O73	O	1.775880	0.023614	0.366634
C74	C	1.790667	0.097890	0.414460
H75	H	1.734827	0.110311	0.519809
H76	H	1.754283	0.140416	0.326492
C77	C	1.999983	0.089547	0.313832
C78	C	1.931408	0.104800	0.443231
H79	H	2.086799	0.093811	0.331574
H80	H	1.990021	0.039506	0.281605
H81	H	1.969649	0.124987	0.240538
H82	H	1.961732	0.069354	0.516516
H83	H	1.941379	0.154835	0.475471
H84	H	1.051130	0.286125	-0.105313
H85	H	1.282705	-0.103043	-0.000107
H86	H	1.268354	-0.643658	-0.000117
O87	O	1.254224	-0.493001	-0.000047
C88	C	1.151859	-0.537345	-0.000070
H89	H	1.183922	-0.596098	0.046041
H90	H	1.116445	-0.543149	-0.116932
C91	C	1.005186	-0.426418	0.038845
C92	C	1.044564	-0.498577	0.095491
H93	H	0.938999	-0.402503	0.097785
H94	H	1.074151	-0.396542	0.038855
H95	H	0.975684	-0.431264	-0.058539
H96	H	1.074081	-0.493729	0.192865
H97	H	0.975602	-0.528452	0.095499
O98	O	1.314424	0.211946	0.348993
C99	C	1.238887	0.256926	0.449552
H100	H	1.290370	0.258072	0.558848
H101	H	1.145689	0.231818	0.465869
C102	C	1.149491	0.337023	0.255474
C103	C	1.212729	0.338435	0.389711
H104	H	1.133350	0.387301	0.218561
H105	H	1.200378	0.306718	0.187724
H106	H	1.071834	0.316096	0.269090
H107	H	1.290391	0.359353	0.376090
H108	H	1.161854	0.368747	0.457457
O109	O	0.834632	0.294557	-0.121746
C110	C	0.862036	0.370754	-0.121499
H111	H	0.948758	0.376144	-0.050699
H112	H	0.778066	0.408623	-0.075311
C113	C	0.781743	0.388929	-0.366215
C114	C	0.888263	0.395549	-0.279268
H115	H	0.797916	0.404226	-0.463534
H116	H	0.763276	0.337595	-0.366381
H117	H	0.711778	0.420487	-0.327709
H118	H	0.958221	0.363984	-0.317764
H119	H	0.906743	0.446879	-0.279112
H120	H	1.327922	0.203851	0.639005
H121	H	1.129507	-0.011687	-0.000035
H122	H	1.697927	-0.133615	-0.000097
H123	H	1.694125	-0.276847	-0.000118
H124	H	1.683575	-0.674231	-0.000132
