data_functionalizedCrystal
_audit_creation_method	'MofGen! by Chris Wilmer'
_symmetry_space_group_name_H-M	'P1'
_symmetry_Int_Tables_number	1
_symmetry_cell_setting	triclinic
loop_
_symmetry_equiv_pos_as_xyz
  x,y,z
_cell_length_a	23.532407
_cell_length_b	16.992695
_cell_length_c	16.053802
_cell_angle_alpha	87.258926
_cell_angle_beta	87.425821
_cell_angle_gamma	93.241516
loop_
_atom_site_label
_atom_site_type_symbol
_atom_site_fract_x
_atom_site_fract_y
_atom_site_fract_z
O1	O	0.762238	-0.091822	-0.069609
O2	O	0.597057	-0.105591	-0.069572
O3	O	0.678985	0.015430	-0.069583
O4	O	0.680310	-0.212844	-0.069597
O5	O	0.674474	0.008796	0.069276
O6	O	0.592546	-0.112225	0.069288
O7	O	0.757728	-0.098456	0.069251
Zn8	Zn	0.674421	-0.106394	0.091316
Zn9	Zn	0.680364	-0.097653	-0.091637
O10	O	0.675799	-0.219478	0.069263
C11	C	0.573568	-0.108558	-0.000137
C12	C	0.510298	-0.107504	-0.000123
C13	C	0.675026	0.041313	-0.000153
C14	C	0.669943	0.128317	-0.000152
C15	C	0.781217	-0.095490	-0.000185
C16	C	0.844487	-0.096543	-0.000205
C17	C	1.114422	-0.172509	-0.000160
C18	C	1.054973	-0.171530	-0.000166
O19	O	1.021219	-0.231793	-0.000143
N20	N	1.028777	-0.099583	-0.000171
C21	C	1.062033	-0.028611	-0.000161
O22	O	1.034292	0.032676	-0.000165
C23	C	1.121480	-0.029591	-0.000149
C24	C	1.147673	-0.101543	-0.000153
C25	C	1.140616	-0.244455	-0.000162
C26	C	1.200060	-0.245434	-0.000158
C27	C	1.233311	-0.174467	-0.000151
C28	C	1.207118	-0.102522	-0.000148
C29	C	1.154734	0.041380	-0.000134
C30	C	1.214185	0.040393	-0.000121
C31	C	1.240378	-0.031559	-0.000125
C32	C	1.299813	-0.032534	-0.000137
N33	N	1.326010	-0.104481	-0.000132
C34	C	1.292759	-0.175448	-0.000139
C35	C	0.937189	-0.026557	-0.000185
C36	C	0.877743	-0.025575	-0.000203
C37	C	0.870688	-0.168495	-0.000206
C38	C	0.930135	-0.169476	-0.000194
C39	C	0.963385	-0.098504	-0.000180
C40	C	1.417597	-0.177499	-0.000131
C41	C	1.477047	-0.178471	-0.000130
C42	C	1.484097	-0.035552	-0.000122
C43	C	1.424652	-0.034579	-0.000128
C44	C	1.391403	-0.105559	-0.000129
O45	O	1.333604	0.027697	-0.000157
O46	O	1.320507	-0.236725	-0.000124
C47	C	0.679758	-0.245360	-0.000169
C48	C	0.684842	-0.332364	-0.000176
N49	N	0.670369	-0.112359	0.216177
C50	C	0.718990	0.178940	-0.000162
C51	C	0.714210	0.260690	-0.000169
C52	C	0.660383	0.291815	-0.000160
C53	C	0.611333	0.241185	-0.000153
C54	C	0.616113	0.159438	-0.000152
C55	C	0.640572	0.535259	-0.000167
C56	C	0.635795	0.617013	-0.000166
C57	C	0.738673	0.636512	-0.000184
C58	C	0.743448	0.554761	-0.000178
C59	C	0.694398	0.504139	-0.000175
N60	N	0.655497	0.375376	-0.000164
N61	N	0.699285	0.420580	-0.000176
N62	N	0.684420	-0.091682	-0.216498
C63	C	0.705244	-0.060882	0.259866
C64	C	0.702415	-0.065062	0.347273
C65	C	0.664714	-0.120723	0.390990
C66	C	0.629835	-0.172202	0.347295
C67	C	0.632661	-0.168018	0.259889
C68	C	0.652367	-0.138977	0.652401
C69	C	0.649545	-0.143159	0.739813
C70	C	0.722125	-0.036018	0.739786
C71	C	0.724950	-0.031842	0.652378
C72	C	0.690069	-0.083318	0.608691
N73	N	0.661823	-0.124998	0.480334
N74	N	0.692958	-0.079038	0.519348
H75	H	1.498370	-0.237065	-0.000133
H76	H	0.964258	0.031240	-0.000181
H77	H	0.843604	-0.226280	-0.000207
H78	H	0.600631	0.494051	-0.000164
C79	C	0.802662	0.520530	-0.000187
N80	N	0.847262	0.494748	-0.000191
C81	C	0.766421	0.029394	0.604297
N82	N	0.797658	0.075517	0.568081
H83	H	0.735947	-0.015560	0.224278
H84	H	0.762821	0.153605	-0.000165
C85	C	0.576579	0.651247	-0.000162
N86	N	0.531980	0.677034	-0.000159
H87	H	0.856422	0.033015	-0.000213
C88	C	0.588357	-0.233422	0.395386
N89	N	0.557115	-0.279535	0.431608
C90	C	1.250757	0.118470	-0.000109
N91	N	1.278302	0.177277	-0.000104
C92	C	1.228864	-0.324588	-0.000144
N93	N	1.250555	-0.384211	-0.000127
H94	H	1.133418	0.099970	-0.000130
H95	H	0.567506	0.266534	-0.000150
C96	C	0.614075	-0.195705	0.604357
N97	N	0.585260	-0.238470	0.568166
H98	H	1.113548	-0.302248	-0.000165
H99	H	0.576174	0.118220	-0.000144
C100	C	1.395839	0.044571	-0.000134
N101	N	1.374141	0.104189	-0.000133
H102	H	0.604262	-0.209935	0.224319
H103	H	1.390532	-0.235297	-0.000129
H104	H	1.511181	0.022227	-0.000120
C105	C	0.760486	0.020608	0.787849
N106	N	0.789379	0.063265	0.824050
H107	H	0.618843	-0.188488	0.775403
H108	H	0.778606	0.677736	-0.000188
C109	C	0.958942	-0.248627	-0.000189
N110	N	0.980635	-0.308248	-0.000181
H111	H	0.754149	0.301904	-0.000176
C112	C	0.740766	-0.008414	0.395327
N113	N	0.769648	0.034263	0.431521
