data_functionalizedCrystal
_audit_creation_method	'MofGen! by Chris Wilmer'
_symmetry_space_group_name_H-M	'P1'
_symmetry_Int_Tables_number	1
_symmetry_cell_setting	triclinic
loop_
_symmetry_equiv_pos_as_xyz
  x,y,z
_cell_length_a	15.537862
_cell_length_b	14.519731
_cell_length_c	14.750756
_cell_angle_alpha	104.209118
_cell_angle_beta	72.492910
_cell_angle_gamma	114.523356
loop_
_atom_site_label
_atom_site_type_symbol
_atom_site_fract_x
_atom_site_fract_y
_atom_site_fract_z
O1	O	1.267646	0.287656	-0.079744
O2	O	0.993566	0.181209	-0.079768
O3	O	1.137858	0.371114	-0.079736
O4	O	1.123354	0.097751	-0.079776
O5	O	1.101414	0.394718	0.079918
O6	O	0.957122	0.204813	0.079886
O7	O	1.231202	0.311260	0.079910
Zn8	Zn	1.088376	0.261784	0.105247
Zn9	Zn	1.136392	0.230685	-0.105105
O10	O	1.086910	0.121355	0.079878
C11	C	0.940267	0.181874	0.000056
C12	C	0.835748	0.148698	0.000048
C13	C	1.118955	0.417047	0.000094
C14	C	1.116915	0.518743	0.000102
C15	C	0.677362	0.014225	0.000024
C16	C	0.775574	0.045408	0.000032
C17	C	0.797724	0.220846	0.000062
C18	C	0.699510	0.189678	0.000059
C19	C	0.639337	0.086366	0.000039
C20	C	0.661485	0.261818	0.000074
C21	C	0.563281	0.230651	0.000066
C22	C	0.503102	0.127344	0.000044
C23	C	0.541132	0.055199	0.000031
C24	C	0.721662	0.365129	0.000087
C25	C	0.683637	0.437270	0.000102
C26	C	0.585430	0.406104	0.000101
C27	C	0.525251	0.302796	0.000078
C28	C	0.547399	0.478249	0.000113
C29	C	0.449195	0.447082	0.000106
C30	C	0.427047	0.271629	0.000071
C31	C	1.284501	0.310596	0.000084
C32	C	1.389021	0.343770	0.000086
N33	N	1.169162	0.209467	-0.248664
C34	C	1.115259	0.601331	0.000107
C35	C	1.113189	0.704944	0.000107
C36	C	1.111547	0.787530	0.000108
C37	C	1.109478	0.891150	0.000110
C38	C	1.105808	1.075425	0.000066
C39	C	1.107836	0.973737	0.000111
C40	C	0.964120	0.342295	-0.600460
C41	C	0.987078	0.327413	-0.700962
C42	C	1.101214	0.253469	-0.700937
C43	C	1.078263	0.268340	-0.600433
C44	C	1.009716	0.312754	-0.550203
C45	C	1.123858	0.238799	-0.550176
C46	C	1.100912	0.253673	-0.449681
C47	C	1.032370	0.298089	-0.399443
C48	C	0.986770	0.327628	-0.449708
C49	C	1.192410	0.194392	-0.600408
C50	C	1.238005	0.164851	-0.550150
C51	C	1.215054	0.179719	-0.449654
C52	C	1.146513	0.224134	-0.399416
C53	C	1.260655	0.150179	-0.399389
C54	C	1.237709	0.165053	-0.298894
C55	C	1.123566	0.239008	-0.298921
N56	N	1.055613	0.283012	0.248806
H57	H	0.378046	0.187504	0.000068
Cl58	Cl	1.003528	0.316797	-0.273105
H59	H	0.423139	0.101969	0.000034
Cl60	Cl	0.823373	-0.045296	0.000012
Cl61	Cl	0.900586	0.383453	-0.386553
H62	H	1.157028	0.217311	-0.741848
H63	H	0.801630	0.390499	0.000075
H64	H	1.211091	0.182284	-0.682237
H65	H	0.846731	0.304962	0.000074
H66	H	0.732644	0.521386	0.000115
H67	H	0.596409	0.562364	0.000120
Cl68	Cl	1.324177	0.109021	-0.613306
H69	H	0.949941	0.351470	-0.741878
H70	H	0.628361	-0.069900	0.000021
Cl71	Cl	0.877936	0.398119	-0.537306
Cl72	Cl	1.346835	0.094360	-0.462548
H73	H	0.492132	-0.028926	0.000028
Cl74	Cl	0.401386	0.537776	0.000134
H75	H	1.067740	0.275163	-0.258021
Cl76	Cl	1.295034	0.127922	-0.235709
