data_functionalizedCrystal
_audit_creation_method	'MofGen! by Chris Wilmer'
_symmetry_space_group_name_H-M	'P1'
_symmetry_Int_Tables_number	1
_symmetry_cell_setting	triclinic
loop_
_symmetry_equiv_pos_as_xyz
  x,y,z
_cell_length_a	19.188905
_cell_length_b	19.188929
_cell_length_c	18.266242
_cell_angle_alpha	89.971860
_cell_angle_beta	89.983837
_cell_angle_gamma	83.139666
loop_
_atom_site_label
_atom_site_type_symbol
_atom_site_fract_x
_atom_site_fract_y
_atom_site_fract_z
O1	O	0.926160	0.087085	-0.061036
O2	O	0.722847	0.098838	-0.061016
O3	O	0.830371	-0.008694	-0.060982
O4	O	0.818636	0.194618	-0.061071
O5	O	0.830353	-0.008700	0.060780
O6	O	0.722828	0.098833	0.060746
O7	O	0.926142	0.087080	0.060726
Zn8	Zn	0.824482	0.092955	0.080068
Zn9	Zn	0.824506	0.092963	-0.080359
O10	O	0.818618	0.194612	0.060691
C11	C	0.696826	0.098458	-0.000132
C12	C	0.619321	0.097324	-0.000122
C13	C	0.829982	-0.034708	-0.000090
C14	C	0.828841	-0.112213	-0.000060
C15	C	0.582939	0.096782	-0.066496
C16	C	0.510115	0.095709	-0.066504
C17	C	0.473678	0.095164	-0.000135
C18	C	0.510068	0.095709	0.066248
C19	C	0.582890	0.096790	0.066255
N20	N	0.364651	0.053733	0.049275
N21	N	0.295474	0.052705	0.049264
C22	C	0.254272	0.091911	-0.000151
N23	N	0.284861	0.132174	-0.049567
N24	N	0.354045	0.133199	-0.049558
C25	C	0.394716	0.093993	-0.000135
C26	C	0.138926	0.090207	-0.066539
C27	C	0.066100	0.089138	-0.066545
C28	C	0.066056	0.089132	0.066209
C29	C	0.138879	0.090207	0.066213
C30	C	0.175310	0.090742	-0.000163
C31	C	0.952163	0.087460	-0.000160
C32	C	1.029668	0.088594	-0.000175
N33	N	0.824471	0.092950	0.189555
C34	C	0.819007	0.220626	-0.000202
C35	C	0.820148	0.298131	-0.000237
C36	C	0.757056	0.343060	-0.000215
C37	C	0.758128	0.415884	-0.000199
C38	C	0.822295	0.443775	-0.000189
C39	C	0.885395	0.398835	-0.000214
C40	C	0.884321	0.326013	-0.000238
N41	N	0.871336	0.551737	0.041291
N42	N	0.872352	0.620915	0.041315
C43	C	0.825533	0.663183	-0.000119
N44	N	0.777650	0.633660	-0.041568
N45	N	0.776633	0.564476	-0.041589
C46	C	0.823466	0.522737	-0.000164
C47	C	0.763599	0.787077	-0.000081
C48	C	0.764673	0.859902	-0.000069
C49	C	0.891942	0.842851	-0.000077
C50	C	0.890866	0.770028	-0.000096
C51	C	0.826693	0.742146	-0.000095
N52	N	0.824523	0.092962	-0.189845
C53	C	0.872098	0.045358	0.227879
C54	C	0.872103	0.045355	0.304524
C55	C	0.824487	0.092956	0.342842
C56	C	0.776851	0.140551	0.304509
C57	C	0.776843	0.140549	0.227865
N58	N	0.815411	0.154764	0.463148
N59	N	0.815423	0.154764	0.535956
C60	C	0.824506	0.092966	0.573764
N61	N	0.833592	0.031165	0.536014
N62	N	0.833584	0.031165	0.463199
C63	C	0.824490	0.092964	0.425949
C64	C	0.872141	0.045366	0.695196
C65	C	0.872141	0.045362	0.771842
C66	C	0.776892	0.140565	0.771825
C67	C	0.776889	0.140563	0.695180
C68	C	0.824517	0.092964	0.656870
H69	H	0.612597	0.097218	-0.120544
H70	H	0.036389	0.088692	0.120248
Cl71	Cl	0.685351	0.916386	-0.000052
Cl72	Cl	0.932016	-0.014477	0.820024
H73	H	0.480487	0.095269	-0.120556
H74	H	0.036479	0.088702	-0.120597
H75	H	0.704801	0.320363	-0.000221
H76	H	0.910879	0.006599	0.196689
H77	H	0.910888	0.006598	0.335733
Cl78	Cl	0.464262	0.095028	0.149684
Cl79	Cl	0.932012	-0.014475	0.647033
Cl80	Cl	0.716987	0.200390	0.352678
H81	H	0.738109	0.179319	0.663975
H82	H	0.168502	0.090644	0.120262
Cl83	Cl	0.972610	0.877907	-0.000072
H84	H	0.612511	0.097231	0.120306
Cl85	Cl	0.966062	0.433897	-0.000206
Cl86	Cl	0.970186	0.713542	-0.000116
H87	H	0.706750	0.452473	-0.000180
H88	H	0.168589	0.090650	-0.120587
H89	H	0.711345	0.764374	-0.000076
H90	H	0.738119	0.179319	0.803023
Cl91	Cl	0.963643	0.269527	-0.000263
Cl92	Cl	0.716965	0.200384	0.179683
