data_functionalizedCrystal
_audit_creation_method	'MofGen! by Chris Wilmer'
_symmetry_space_group_name_H-M	'P1'
_symmetry_Int_Tables_number	1
_symmetry_cell_setting	triclinic
loop_
_symmetry_equiv_pos_as_xyz
  x,y,z
_cell_length_a	6.394989
_cell_length_b	16.109301
_cell_length_c	14.586319
_cell_angle_alpha	90.005214
_cell_angle_beta	90.002985
_cell_angle_gamma	84.979596
loop_
_atom_site_label
_atom_site_type_symbol
_atom_site_fract_x
_atom_site_fract_y
_atom_site_fract_z
O1	O	-2.771399	-0.136204	-0.076235
O2	O	-2.163266	-0.143066	-0.076239
O3	O	-2.484039	-0.018781	-0.076227
O4	O	-2.450627	-0.260489	-0.076246
O5	O	-2.484017	-0.018778	0.076253
O6	O	-2.163244	-0.143063	0.076242
O7	O	-2.771377	-0.136202	0.076246
Cu8	Cu	-2.467308	-0.139632	0.090167
Cu9	Cu	-2.467335	-0.139635	-0.090160
O10	O	-2.450605	-0.260487	0.076234
C11	C	-2.482674	0.012210	0.000013
C12	C	-2.478617	0.104548	0.000015
C13	C	-2.451969	-0.291477	-0.000008
C14	C	-2.456027	-0.383815	-0.000016
N15	N	-2.467305	-0.139630	0.216998
C16	C	-2.085435	-0.141708	0.000006
C17	C	-1.849203	-0.137562	0.000010
N18	N	-2.467355	-0.139631	-0.216991
C19	C	-2.659522	0.324905	0.000001
C20	C	-2.655693	0.411666	-0.000006
C21	C	-2.275107	0.395821	-0.000005
C22	C	-2.278938	0.309061	-0.000004
C23	C	-2.471152	0.273606	0.000004
C24	C	-2.463492	0.447126	-0.000005
C25	C	-2.459339	0.541196	-0.000013
C26	C	-2.475306	0.179530	0.000010
C27	C	-2.609390	-0.084616	0.452010
C28	C	-2.609396	-0.084614	0.547991
C29	C	-2.325254	-0.194647	0.547990
C30	C	-2.325240	-0.194644	0.452011
C31	C	-2.467320	-0.139630	0.404023
C32	C	-2.467340	-0.139631	0.595984
C33	C	-2.467346	-0.139629	0.700051
C34	C	-2.467312	-0.139630	0.299949
H35	H	-2.809083	0.453431	-0.000010
O36	O	-2.095999	0.259189	-0.000164
C37	C	-2.086868	0.208511	-0.079125
H38	H	-2.193702	0.239151	-0.134320
H39	H	-2.140900	0.144889	-0.061272
C40	C	-1.728375	0.160074	-0.047143
C41	C	-1.859576	0.197710	-0.114938
H42	H	-1.588170	0.153407	-0.069233
H43	H	-1.734527	0.194214	0.006056
H44	H	-1.773427	0.107059	-0.032272
H45	H	-1.814539	0.250728	-0.129800
H46	H	-1.853411	0.163578	-0.168141
H47	H	-2.209539	-0.239443	0.412937
H48	H	-2.725077	-0.039819	0.412940
O49	O	-2.747610	-0.031147	0.594463
C50	C	-2.872961	0.017423	0.531522
H51	H	-2.875285	-0.016691	0.463102
H52	H	-2.805192	0.079912	0.521323
C53	C	-3.095442	0.074046	0.653007
C54	C	-3.098310	0.032144	0.568974
H55	H	-3.234446	0.083131	0.676110
H56	H	-3.010987	0.041327	0.695413
H57	H	-3.038958	0.126116	0.644496
H58	H	-3.154769	-0.019929	0.577488
H59	H	-3.182781	0.064855	0.526571
H60	H	-2.816034	0.296041	0.000006
O61	O	-2.187461	-0.248061	0.594750
C62	C	-2.217904	-0.236256	0.689754
H63	H	-2.383982	-0.206958	0.702858
H64	H	-2.099717	-0.193295	0.717006
C65	C	-1.982484	-0.356958	0.722925
C66	C	-2.186471	-0.320980	0.739019
H67	H	-1.963086	-0.409218	0.753315
H68	H	-1.961966	-0.364910	0.658918
H69	H	-1.884018	-0.321149	0.745635
H70	H	-2.284932	-0.356784	0.716299
H71	H	-2.207004	-0.313035	0.803023
H72	H	-2.118613	0.424699	-0.000010
