data_functionalizedCrystal
_audit_creation_method	'MofGen! by Chris Wilmer'
_symmetry_space_group_name_H-M	'P1'
_symmetry_Int_Tables_number	1
_symmetry_cell_setting	triclinic
loop_
_symmetry_equiv_pos_as_xyz
  x,y,z
_cell_length_a	11.792254
_cell_length_b	14.421503
_cell_length_c	11.792240
_cell_angle_alpha	89.994971
_cell_angle_beta	95.803993
_cell_angle_gamma	90.007633
loop_
_atom_site_label
_atom_site_type_symbol
_atom_site_fract_x
_atom_site_fract_y
_atom_site_fract_z
O1	O	1.506907	0.077132	-0.155621
O2	O	2.006907	0.577132	0.344379
O3	O	1.176568	0.077136	-0.171639
O4	O	1.676568	0.577136	0.328361
O5	O	1.349754	0.077106	0.001541
O6	O	1.849754	0.577106	0.501541
O7	O	1.333721	0.077162	-0.328800
O8	O	1.833721	0.577162	0.171200
O9	O	1.349725	-0.077118	0.001515
O10	O	1.849725	0.422882	0.501515
O11	O	1.176539	-0.077088	-0.171664
O12	O	1.676539	0.422912	0.328336
O13	O	1.506878	-0.077092	-0.155646
O14	O	2.006878	0.422908	0.344354
Cu15	Cu	1.341706	-0.091171	-0.163658
Cu16	Cu	1.841706	0.408829	0.336342
Cu17	Cu	1.341740	0.091216	-0.163627
Cu18	Cu	1.841740	0.591216	0.336373
O19	O	1.333692	-0.077061	-0.328826
O20	O	1.833692	0.422939	0.171174
C21	C	1.134263	0.000024	-0.170642
C22	C	1.634263	0.500024	0.329358
C23	C	1.008250	0.000024	-0.167622
C24	C	1.508250	0.500024	0.332378
C25	C	0.905913	0.000028	-0.165168
C26	C	1.405913	0.500028	0.334832
C27	C	0.777527	0.000028	-0.162100
C28	C	1.277527	0.500028	0.337900
N29	N	1.341690	-0.219453	-0.163679
N30	N	1.841690	0.280547	0.336321
C31	C	1.261595	-0.469092	-0.243720
C32	C	1.761595	0.030908	0.256280
C33	C	1.364290	-0.530892	-0.266386
C34	C	1.864290	-0.030892	0.233614
C35	C	1.341718	-0.408614	-0.163652
C36	C	1.841718	0.091386	0.336348
C37	C	1.239050	-0.530909	-0.141013
C38	C	1.739050	-0.030909	0.358987
C39	C	1.341735	-0.591336	-0.163628
C40	C	1.841735	-0.091336	0.336372
C41	C	1.444465	-0.469053	-0.186368
C42	C	1.944465	0.030947	0.313632
C43	C	1.319157	-0.469064	-0.060951
C44	C	1.819157	0.030936	0.439049
C45	C	1.421926	-0.530836	-0.083573
C46	C	1.921926	-0.030836	0.416427
C47	C	1.341706	-0.303353	-0.163668
C48	C	1.841706	0.196647	0.336332
C49	C	1.341759	-0.696594	-0.163611
C50	C	1.841759	-0.196594	0.336389
C51	C	1.549183	0.000022	-0.156643
C52	C	2.049183	0.500022	0.343357
C53	C	1.675196	0.000028	-0.159663
C54	C	2.175196	0.500028	0.340337
C55	C	1.348732	-0.000011	0.043819
C56	C	1.848732	0.499989	0.543819
C57	C	1.345718	-0.000027	0.169832
C58	C	1.845718	0.499973	0.669832
N59	N	1.341765	0.219497	-0.163598
N60	N	1.841765	0.719497	0.336402
C61	C	1.340175	-0.000042	0.400545
C62	C	1.840175	0.499958	0.900545
C63	C	1.343255	-0.000033	0.272160
C64	C	1.843255	0.499967	0.772160
C65	C	1.334714	0.000025	0.628896
C66	C	1.834714	0.500025	1.128896
C67	C	1.337728	-0.000052	0.502883
C68	C	1.837728	0.499948	1.002883
H69	H	1.383388	-0.558049	-0.353228
H70	H	1.883388	-0.058049	0.146772
H71	H	1.152218	-0.558082	-0.121876
H72	H	1.652218	-0.058082	0.378124
N73	N	1.507035	-0.564624	0.001385
N74	N	2.007035	-0.064624	0.501385
N75	N	1.609505	-0.544600	-0.003879
N76	N	2.109505	-0.044600	0.496121
H77	H	1.669617	-0.568464	0.056119
H78	H	2.169617	-0.068464	0.556119
H79	H	1.193907	-0.441983	-0.311487
H80	H	1.693907	0.058017	0.188513
H81	H	1.300027	-0.441885	0.025864
H82	H	1.800027	0.058115	0.525864
H83	H	1.531316	-0.441996	-0.205610
H84	H	2.031316	0.058004	0.294390
