data_functionalizedCrystal
_audit_creation_method	'MofGen! by Chris Wilmer'
_symmetry_space_group_name_H-M	'P1'
_symmetry_Int_Tables_number	1
_symmetry_cell_setting	triclinic
loop_
_symmetry_equiv_pos_as_xyz
  x,y,z
_cell_length_a	16.974829
_cell_length_b	16.992695
_cell_length_c	15.455313
_cell_angle_alpha	87.152573
_cell_angle_beta	96.328434
_cell_angle_gamma	87.025716
loop_
_atom_site_label
_atom_site_type_symbol
_atom_site_fract_x
_atom_site_fract_y
_atom_site_fract_z
O1	O	1.062069	0.092978	0.146683
O2	O	1.562069	0.592978	0.646683
O3	O	0.831939	0.106468	0.130531
O4	O	1.331939	0.606468	0.630531
O5	O	0.946081	-0.014415	0.138535
O6	O	1.446081	0.485585	0.638535
O7	O	0.947927	0.213861	0.138679
O8	O	1.447927	0.713861	0.638679
O9	O	0.939552	-0.007531	-0.006185
O10	O	1.439552	0.492469	0.493815
O11	O	0.825410	0.113353	-0.014189
O12	O	1.325410	0.613353	0.485811
O13	O	1.055540	0.099862	0.001963
O14	O	1.555540	0.599862	0.501963
Cu15	Cu	0.939879	0.107236	-0.019327
Cu16	Cu	1.439879	0.607236	0.480673
Cu17	Cu	0.947600	0.099094	0.151821
Cu18	Cu	1.447600	0.599094	0.651821
O19	O	0.941398	0.220746	-0.006041
O20	O	1.441398	0.720746	0.493959
C21	C	0.799092	0.109524	0.056095
C22	C	1.299092	0.609524	0.556095
C23	C	0.710945	0.108364	0.049908
C24	C	1.210945	0.608364	0.549908
C25	C	0.214385	0.102263	0.006614
C26	C	0.714385	0.602263	0.506614
C27	C	0.297209	0.103353	0.012429
C28	C	0.797209	0.603353	0.512429
C29	C	0.342180	0.100139	0.094225
C30	C	0.842180	0.600139	0.594225
C31	C	0.304323	0.095844	0.170210
C32	C	0.804323	0.595844	0.670210
C33	C	0.221501	0.094760	0.164394
C34	C	0.721501	0.594760	0.664394
C35	C	0.590265	0.102984	0.120078
C36	C	1.090265	0.602984	0.620078
C37	C	0.673093	0.104066	0.125888
C38	C	1.173093	0.604066	0.625888
C39	C	0.665973	0.111577	-0.031894
C40	C	1.165973	0.611577	0.468106
C41	C	0.583150	0.110488	-0.037703
C42	C	1.083150	0.610488	0.462297
C43	C	0.545300	0.106197	0.038283
C44	C	1.045300	0.606197	0.538283
N45	N	0.426840	0.101251	0.100170
N46	N	0.926840	0.601251	0.600170
N47	N	0.460641	0.105091	0.032336
N48	N	0.960641	0.605091	0.532336
C49	C	0.940443	-0.040175	0.066009
C50	C	1.440443	0.459825	0.566009
C51	C	0.933361	-0.127188	0.065512
C52	C	1.433361	0.372812	0.565512
C53	C	1.001692	-0.177729	0.070307
C54	C	1.501692	0.322271	0.570307
C55	C	0.995034	-0.259487	0.069848
C56	C	1.495034	0.240513	0.569848
C57	C	0.920043	-0.290702	0.064587
C58	C	1.420043	0.209298	0.564587
C59	C	0.851706	-0.240155	0.059795
C60	C	1.351706	0.259845	0.559795
C61	C	0.858366	-0.158400	0.060260
C62	C	1.358366	0.341600	0.560260
C63	C	0.892441	-0.534179	0.062662
C64	C	1.392441	-0.034179	0.562662
C65	C	0.885786	-0.615942	0.062195
C66	C	1.385786	-0.115942	0.562195
C67	C	1.029115	-0.635267	0.072249
C68	C	1.529115	-0.135267	0.572249
C69	C	1.035768	-0.553508	0.072709
C70	C	1.535768	-0.053508	0.572709
C71	C	0.967431	-0.502969	0.067921
C72	C	1.467431	-0.002969	0.567921
N73	N	0.913234	-0.374271	0.064115
N74	N	1.413234	0.125729	0.564115
N75	N	0.974240	-0.419402	0.068399
N76	N	1.474240	0.080598	0.568399
C77	C	1.088387	0.096806	0.076401
C78	C	1.588387	0.596806	0.576401
C79	C	1.176534	0.097966	0.082594
C80	C	1.676534	0.597966	0.582594
C81	C	0.947036	0.246505	0.066487
C82	C	1.447036	0.746505	0.566487
C83	C	0.954118	0.333518	0.066990
C84	C	1.454118	0.833518	0.566990
N85	N	0.934454	0.112962	-0.139703
N86	N	1.434454	0.612962	0.360297
C87	C	0.982964	0.061625	-0.181695
C88	C	1.482964	0.561625	0.318305
C89	C	0.978869	0.065962	-0.272790
C90	C	1.478869	0.565962	0.227210
C91	C	0.926267	0.121641	-0.321891
C92	C	1.426267	0.621641	0.178109
C93	C	0.877751	0.172980	-0.279893
C94	C	1.377751	0.672980	0.220107
C95	C	0.881843	0.168638	-0.188800
C96	C	1.381843	0.668638	0.311200
C97	C	0.908606	0.140360	-0.594711
C98	C	1.408606	0.640360	-0.094711
C99	C	0.904520	0.144699	-0.685810
C100	C	1.404520	0.644699	-0.185810
C101	C	1.005638	0.037680	-0.678701
C102	C	1.505638	0.537680	-0.178701
C103	C	1.009728	0.033346	-0.587607
C104	C	1.509728	0.533346	-0.087607
C105	C	0.961209	0.084683	-0.545617
C106	C	1.461209	0.584683	-0.045617
N107	N	0.922082	0.126077	-0.415005
N108	N	1.422082	0.626077	0.084995
N109	N	0.965390	0.080242	-0.452505
N110	N	1.465390	0.580242	0.047495
N111	N	0.953031	0.093362	0.272197
N112	N	1.453031	0.593362	0.772197
H113	H	0.709707	0.101456	0.192499
H114	H	1.209707	0.601456	0.692499
H115	H	0.546540	0.113088	-0.104310
H116	H	1.046540	0.613088	0.395690
H117	H	0.836796	-0.493039	0.058763
H118	H	1.336796	0.006961	0.558763
H119	H	0.802723	-0.117250	0.056356
H120	H	1.302723	0.382750	0.556356
H121	H	0.328024	0.106851	-0.049442
H122	H	0.828024	0.606851	0.450558
H123	H	0.696799	0.115073	-0.093757
H124	H	1.196799	0.615073	0.406243
H125	H	1.052560	-0.011991	-0.547630
H126	H	1.552560	0.488009	-0.047630
H127	H	0.790647	-0.265578	0.055517
H128	H	1.290647	0.234422	0.555517
H129	H	1.050677	-0.300634	0.073751
H130	H	1.550677	0.199366	0.573751
H131	H	0.861683	0.190043	-0.725785
H132	H	1.361683	0.690043	-0.225785
H133	H	1.062758	-0.152320	0.074585
H134	H	1.562758	0.347680	0.574585
H135	H	1.018370	0.024159	-0.306980
H136	H	1.518370	0.524159	0.193020
H137	H	0.869101	0.182161	-0.560530
H138	H	1.369101	0.682161	-0.060530
H139	H	0.559458	0.099487	0.181951
H140	H	1.059458	0.599487	0.681951
H141	H	0.177775	0.104884	-0.059993
H142	H	0.677775	0.604884	0.440007
H143	H	0.340946	0.093232	0.236810
H144	H	0.840946	0.593232	0.736810
H145	H	1.045139	-0.004117	-0.712898
H146	H	1.545139	0.495883	-0.212898
H147	H	0.834917	0.218312	-0.319877
H148	H	1.334917	0.718312	0.180123
H149	H	0.190684	0.091262	0.226265
H150	H	0.690684	0.591262	0.726265
H151	H	0.842339	0.210441	-0.154611
H152	H	1.342339	0.710441	0.345389
H153	H	1.096833	-0.528099	0.076993
H154	H	1.596833	-0.028099	0.576993
H155	H	0.824716	-0.641353	0.057897
H156	H	1.324716	-0.141353	0.557897
H157	H	1.084750	-0.676424	0.076149
H158	H	1.584750	-0.176424	0.576149
H159	H	1.025802	0.016289	-0.141723
H160	H	1.525802	0.516289	0.358277
