data_functionalizedCrystal
_audit_creation_method	'MofGen! by Chris Wilmer'
_symmetry_space_group_name_H-M	'P1'
_symmetry_Int_Tables_number	1
_symmetry_cell_setting	triclinic
loop_
_symmetry_equiv_pos_as_xyz
  x,y,z
_cell_length_a	29.839134
_cell_length_b	29.839131
_cell_length_c	29.839125
_cell_angle_alpha	89.982291
_cell_angle_beta	90.021980
_cell_angle_gamma	89.963719
loop_
_atom_site_label
_atom_site_type_symbol
_atom_site_fract_x
_atom_site_fract_y
_atom_site_fract_z
Zn1	Zn	0.686720	0.178978	0.254125
Zn2	Zn	1.186720	0.678978	0.754125
Zn3	Zn	0.686652	0.254090	0.178995
Zn4	Zn	1.186652	0.754090	0.678995
Zn5	Zn	0.611602	0.178968	0.178995
Zn6	Zn	1.111602	0.678968	0.678995
Zn7	Zn	0.611550	0.254075	0.254083
Zn8	Zn	1.111550	0.754075	0.754083
O9	O	0.649131	0.216528	0.216549
O10	O	1.149131	0.716528	0.716549
O11	O	0.749578	0.188952	0.244176
O12	O	1.249578	0.688952	0.744176
O13	O	0.676690	0.244127	0.116128
O14	O	1.176690	0.744127	0.616128
O15	O	0.621617	0.116102	0.188978
O16	O	1.121617	0.616102	0.688978
O17	O	0.749528	0.244137	0.188979
O18	O	1.249528	0.744137	0.688979
O19	O	0.676805	0.116109	0.244176
O20	O	1.176805	0.616109	0.744176
O21	O	0.621551	0.188935	0.116127
O22	O	1.121551	0.688935	0.616127
O23	O	0.548728	0.188921	0.188938
O24	O	1.048728	0.688921	0.688938
O25	O	0.621528	0.244111	0.316956
O26	O	1.121528	0.744111	0.816956
O27	O	0.548690	0.244101	0.244105
O28	O	1.048690	0.744101	0.744105
O29	O	0.676755	0.188937	0.316987
O30	O	1.176755	0.688937	0.816987
O31	O	0.676639	0.316955	0.188938
O32	O	1.176639	0.816955	0.688938
O33	O	0.621462	0.316944	0.244105
O34	O	1.121462	0.816944	0.744105
C35	C	0.532408	0.216509	0.216517
C36	C	1.032408	0.716509	0.716517
C37	C	0.482474	0.216511	0.216514
C38	C	0.982474	0.716511	0.716514
C39	C	0.649143	0.216524	0.333728
C40	C	1.149143	0.716524	0.833728
C41	C	0.649148	0.216522	0.383662
C42	C	1.149148	0.716522	0.883662
C43	C	0.649050	0.333250	0.216527
C44	C	1.149050	0.833250	0.716527
C45	C	0.649056	0.383185	0.216533
C46	C	1.149056	0.883185	0.716533
C47	C	0.172820	0.245303	0.245240
C48	C	0.672820	0.745303	0.745240
C49	C	-0.014853	0.245315	0.245260
C50	C	0.485147	0.745315	0.745260
O51	O	-0.039127	0.269774	0.269665
O52	O	0.460873	0.769774	0.769665
N53	N	-0.038311	0.216544	0.216583
N54	N	0.461689	0.716544	0.716583
C55	C	-0.014848	0.187766	0.187902
C56	C	0.485152	0.687766	0.687902
O57	O	-0.039107	0.163291	0.163514
O58	O	0.460893	0.663291	0.663514
C59	C	0.172824	0.187751	0.187884
C60	C	0.672824	0.687751	0.687884
C61	C	0.196280	0.216527	0.216560
C62	C	0.696280	0.716527	0.716560
C63	C	0.196276	0.274076	0.273913
C64	C	0.696276	0.774076	0.773913
C65	C	0.243191	0.274075	0.273906
C66	C	0.743191	0.774075	0.773906
C67	C	0.266651	0.245299	0.245226
C68	C	0.766651	0.745299	0.745226
C69	C	0.243195	0.216526	0.216553
C70	C	0.743195	0.716526	0.716553
C71	C	0.196286	0.158971	0.159205
C72	C	0.696286	0.658971	0.659205
C73	C	0.243207	0.158969	0.159204
C74	C	0.743207	0.658969	0.659204
C75	C	0.266663	0.187745	0.187880
C76	C	0.766663	0.687745	0.687880
C77	C	0.313570	0.187749	0.187865
C78	C	0.813570	0.687749	0.687865
N79	N	0.337029	0.216520	0.216542
N80	N	0.837029	0.716520	0.716542
C81	C	0.313569	0.245295	0.245222
C82	C	0.813569	0.745295	0.745222
C83	C	-0.113379	0.187776	0.187912
C84	C	0.386621	0.687776	0.687912
C85	C	-0.160297	0.187780	0.187916
C86	C	0.339703	0.687780	0.687916
C87	C	-0.160298	0.245329	0.245275
C88	C	0.339702	0.745329	0.745275
C89	C	-0.113380	0.245327	0.245269
C90	C	0.386620	0.745327	0.745269
C91	C	-0.089921	0.216547	0.216589
C92	C	0.410079	0.716547	0.716589
C93	C	0.412095	0.245290	0.245205
C94	C	0.912095	0.745290	0.745205
C95	C	0.459014	0.245287	0.245194
C96	C	0.959014	0.745287	0.745194
C97	C	0.459012	0.187736	0.187837
C98	C	0.959012	0.687736	0.687837
C99	C	0.412096	0.187740	0.187846
C100	C	0.912096	0.687740	0.687846
C101	C	0.388639	0.216519	0.216534
C102	C	0.888639	0.716519	0.716534
O103	O	0.337873	0.163299	0.163477
O104	O	0.837873	0.663299	0.663477
O105	O	0.337836	0.269759	0.269613
O106	O	0.837836	0.769759	0.769613
C107	C	0.125905	0.245304	0.245247
C108	C	0.625905	0.745304	0.745247
C109	C	0.102449	0.216531	0.216574
C110	C	0.602449	0.716531	0.716574
C111	C	0.125909	0.187755	0.187893
C112	C	0.625909	0.687755	0.687893
C113	C	0.055531	0.216535	0.216577
C114	C	0.555531	0.716535	0.716577
C115	C	0.032071	0.245310	0.245258
C116	C	0.532071	0.745310	0.745258
C117	C	0.055529	0.274082	0.273934
C118	C	0.555529	0.774082	0.773934
C119	C	0.102445	0.274080	0.273927
C120	C	0.602445	0.774080	0.773927
C121	C	0.102451	0.158984	0.159217
C122	C	0.602451	0.658984	0.659217
C123	C	0.055535	0.158989	0.159226
C124	C	0.555535	0.658989	0.659226
C125	C	0.032075	0.187764	0.187906
C126	C	0.532075	0.687764	0.687906
C127	C	0.766309	0.216547	0.216582
C128	C	1.266309	0.716547	0.716582
C129	C	0.816244	0.216555	0.216596
C130	C	1.316244	0.716555	0.716596
C131	C	0.649225	0.099349	0.216582
C132	C	1.149225	0.599349	0.716582
C133	C	0.649265	0.049415	0.216595
C134	C	1.149265	0.549415	0.716595
C135	C	0.677914	0.692821	0.187866
C136	C	1.177914	1.192821	0.687866
C137	C	0.677969	0.880494	0.187883
C138	C	1.177969	1.380494	0.687883
O139	O	0.702441	0.904753	0.163493
O140	O	1.202441	1.404753	0.663493
N141	N	0.649224	0.903970	0.216583
N142	N	1.149224	1.403970	0.716583
C143	C	0.620465	0.880524	0.245283
C144	C	1.120465	1.380524	0.745283
O145	O	0.596020	0.904798	0.269698
O146	O	1.096020	1.404798	0.769698
C147	C	0.620412	0.692852	0.245268
C148	C	1.120412	1.192852	0.745268
C149	C	0.649156	0.669379	0.216563
C150	C	1.149156	1.169379	0.716563
C151	C	0.706656	0.669348	0.159164
C152	C	1.206656	1.169348	0.659164
C153	C	0.706640	0.622433	0.159158
C154	C	1.206640	1.122433	0.659158
C155	C	0.677882	0.598990	0.187854
C156	C	1.177882	1.098990	0.687854
C157	C	0.649140	0.622463	0.216557
C158	C	1.149140	1.122463	0.716557
C159	C	0.591656	0.669407	0.273969
C160	C	1.091656	1.169407	0.773969
C161	C	0.591646	0.622486	0.273964
C162	C	1.091646	1.122486	0.773964
C163	C	0.620390	0.599013	0.245259
C164	C	1.120390	1.099013	0.745259
C165	C	0.620367	0.552106	0.245248
C166	C	1.120367	1.052106	0.745248
N167	N	0.649112	0.528630	0.216548
N168	N	1.149112	1.028630	0.716548
C169	C	0.677869	0.552072	0.187851
C170	C	1.177869	1.052072	0.687851
C171	C	0.620494	0.979055	0.245289
C172	C	1.120494	1.479055	0.745289
C173	C	0.620507	1.025973	0.245292
C174	C	1.120507	1.525973	0.745292
C175	C	0.678012	1.025939	0.187893
C176	C	1.178012	1.525939	0.687893
C177	C	0.677996	0.979021	0.187887
C178	C	1.177996	1.479021	0.687887
C179	C	0.649239	0.955579	0.216589
C180	C	1.149239	1.455579	0.716589
C181	C	0.677834	0.453547	0.187841
C182	C	1.177834	0.953547	0.687841
C183	C	0.677814	0.406627	0.187836
C184	C	1.177814	0.906627	0.687836
C185	C	0.620311	0.406664	0.245237
C186	C	1.120311	0.906664	0.745237
C187	C	0.620329	0.453580	0.245240
C188	C	1.120329	0.953580	0.745240
C189	C	0.649094	0.477020	0.216540
C190	C	1.149094	0.977020	0.716540
O191	O	0.595912	0.527818	0.269629
O192	O	1.095912	1.027818	0.769629
O193	O	0.702318	0.527791	0.163447
O194	O	1.202318	1.027791	0.663447
C195	C	0.677930	0.739737	0.187872
C196	C	1.177930	1.239737	0.687872
C197	C	0.649188	0.763210	0.216574
C198	C	1.149188	1.263210	0.716574
C199	C	0.620430	0.739767	0.245271
C200	C	1.120430	1.239767	0.745271
C201	C	0.649200	0.810128	0.216578
C202	C	1.149200	1.310128	0.716578
C203	C	0.677958	0.833570	0.187881
C204	C	1.177958	1.333570	0.687881
C205	C	0.706703	0.810094	0.159181
C206	C	1.206703	1.310094	0.659181
C207	C	0.706687	0.763179	0.159175
C208	C	1.206687	1.263179	0.659175
C209	C	0.591685	0.763243	0.273971
C210	C	1.091685	1.263243	0.773971
C211	C	0.591703	0.810158	0.273974
C212	C	1.091703	1.310158	0.773974
C213	C	0.620461	0.833601	0.245277
C214	C	1.120461	1.333601	0.745277
C215	C	0.649145	0.216499	0.099827
C216	C	1.149145	0.716499	0.599827
C217	C	0.649227	0.216374	0.049893
C218	C	1.149227	0.716374	0.549893
C219	C	0.677935	0.187718	0.693325
C220	C	1.177935	0.687718	1.193325
C221	C	0.677957	0.187680	0.880998
C222	C	1.177957	0.687680	1.380998
O223	O	0.702399	0.163232	0.905279
O224	O	1.202399	0.663232	1.405279
N225	N	0.649208	0.216402	0.904448
N226	N	1.149208	0.716402	1.404448
C227	C	0.620449	0.245133	0.880976
C228	C	1.120449	0.745133	1.380976
O229	O	0.595993	0.269559	0.905228
O230	O	1.095993	0.769559	1.405228
C231	C	0.620424	0.245169	0.693304
C232	C	1.120424	0.745169	1.193304
C233	C	0.649179	0.216448	0.669857
C234	C	1.149179	0.716448	1.169857
C235	C	0.706687	0.158999	0.669877
C236	C	1.206687	0.658999	1.169877
C237	C	0.706683	0.159011	0.622962
C238	C	1.206683	0.659011	1.122962
C239	C	0.677927	0.187741	0.599494
C240	C	1.177927	0.687741	1.099494
C241	C	0.649175	0.216460	0.622941
C242	C	1.149175	0.716460	1.122941
C243	C	0.591663	0.273898	0.669833
C244	C	1.091663	0.773898	1.169833
C245	C	0.591659	0.273903	0.622912
C246	C	1.091659	0.773903	1.122912
C247	C	0.620414	0.245183	0.599465
C248	C	1.120414	0.745183	1.099465
C249	C	0.620415	0.245202	0.552558
C250	C	1.120415	0.745202	1.052558
N251	N	0.649164	0.216480	0.529108
N252	N	1.149164	0.716480	1.029108
C253	C	0.677920	0.187749	0.552576
C254	C	1.177920	0.687749	1.052576
C255	C	0.620464	0.245113	0.979507
C256	C	1.120464	0.745113	1.479507
C257	C	0.620471	0.245105	1.026425
C258	C	1.120471	0.745105	1.526425
C259	C	0.677979	0.187650	1.026443
C260	C	1.177979	0.687650	1.526443
C261	C	0.677974	0.187661	0.979524
C262	C	1.177974	0.687661	1.479524
C263	C	0.649214	0.216391	0.956057
C264	C	1.149214	0.716391	1.456057
C265	C	0.677910	0.187776	0.454050
C266	C	1.177910	0.687776	0.954050
C267	C	0.677904	0.187792	0.407130
C268	C	1.177904	0.687792	0.907130
C269	C	0.620395	0.245244	0.407116
C270	C	1.120395	0.745244	0.907116
C271	C	0.620401	0.245230	0.454032
C272	C	1.120401	0.745230	0.954032
C273	C	0.649161	0.216493	0.477497
C274	C	1.149161	0.716493	0.977497
O275	O	0.595982	0.269633	0.528248
O276	O	1.095982	0.769633	1.028248
O277	O	0.702366	0.163320	0.528316
O278	O	1.202366	0.663320	1.028316
C279	C	0.677939	0.187706	0.740240
C280	C	1.177939	0.687706	1.240240
C281	C	0.649187	0.216425	0.763688
C282	C	1.149187	0.716425	1.263688
C283	C	0.620431	0.245155	0.740219
C284	C	1.120431	0.745155	1.240219
C285	C	0.649194	0.216417	0.810605
C286	C	1.149194	0.716417	1.310605
C287	C	0.677950	0.187686	0.834074
C288	C	1.177950	0.687686	1.334074
C289	C	0.706699	0.158964	0.810624
C290	C	1.206699	0.658964	1.310624
C291	C	0.706695	0.158976	0.763708
C292	C	1.206695	0.658976	1.263708
C293	C	0.591682	0.273877	0.763669
C294	C	1.091682	0.773877	1.263669
C295	C	0.591689	0.273864	0.810585
C296	C	1.091689	0.773864	1.310585
C297	C	0.620445	0.245133	0.834053
C298	C	1.120445	0.745133	1.334053
H299	H	0.478110	0.268721	0.268545
H300	H	0.978110	0.768721	0.768545
H301	H	0.121538	0.297512	0.297278
H302	H	0.621538	0.797512	0.797278
C303	C	0.128250	0.127329	0.127662
C304	C	0.628250	0.627329	0.627662
N305	N	0.147680	0.103487	0.103891
N306	N	0.647680	0.603487	0.603891
C307	C	0.588681	0.380869	0.276803
C308	C	1.088681	0.880869	0.776803
N309	N	0.564860	0.361438	0.300582
N310	N	1.064860	0.861438	0.800582
C311	C	0.738325	0.127392	0.695685
C312	C	1.238325	0.627392	1.195685
N313	N	0.762160	0.103587	0.715120
N314	N	1.262160	0.603587	1.215120
C315	C	0.709433	0.380809	0.156255
C316	C	1.209433	0.880809	0.656255
N317	N	0.733248	0.361365	0.132468
N318	N	1.233248	0.861365	0.632468
H319	H	0.568248	0.688511	0.297342
H320	H	1.068248	1.188511	0.797342
H321	H	0.730076	0.688430	0.135795
H322	H	1.230076	1.188430	0.635795
H323	H	-0.179390	0.164352	0.164561
H324	H	0.320610	0.664352	0.664561
C325	C	0.709603	0.156063	0.953737
C326	C	1.209603	0.656063	1.453737
N327	N	0.733425	0.132261	0.934316
N328	N	1.233425	0.632261	1.434316
C329	C	0.029739	0.127329	0.127680
C330	C	0.529739	0.627329	0.627680
N331	N	0.010311	0.103480	0.103923
N332	N	0.510311	0.603480	0.603923
H333	H	0.701258	0.472626	0.164472
H334	H	1.201258	0.972626	0.664472
C335	C	-0.087580	0.156116	0.156357
C336	C	0.412420	0.656116	0.656357
N337	N	-0.068150	0.132272	0.132588
N338	N	0.431850	0.632272	0.632588
C339	C	0.560046	0.305484	0.737861
C340	C	1.060046	0.805484	1.237861
N341	N	0.536217	0.329294	0.718424
N342	N	1.036217	0.829294	1.218424
C343	C	0.560010	0.596703	0.305538
C344	C	1.060010	1.096703	0.805538
N345	N	0.536182	0.577285	0.329320
N346	N	1.036182	1.077285	0.829320
H347	H	0.036420	0.297513	0.297286
H348	H	0.536420	0.797513	0.797286
C349	C	0.269009	0.127309	0.127652
C350	C	0.769009	0.627309	0.627652
N351	N	0.288442	0.103464	0.103886
N352	N	0.788442	0.603464	0.603886
H353	H	0.730047	0.603324	0.135785
H354	H	1.230047	1.103324	0.635785
C355	C	0.709618	0.953205	0.156311
C356	C	1.209618	1.453205	0.656311
N357	N	0.733437	0.933762	0.132527
N358	N	1.233437	1.433762	0.632527
H359	H	0.701427	1.045034	0.164527
H360	H	1.201427	1.545034	0.664527
H361	H	0.597097	1.045080	0.268662
H362	H	1.097097	1.545080	0.768662
C363	C	0.738309	0.127409	0.597176
C364	C	1.238309	0.627409	1.097176
N365	N	0.762129	0.103602	0.577757
N366	N	1.262129	0.603602	1.077757
H367	H	0.597044	0.268511	0.960404
H368	H	1.097044	0.768511	1.460404
H369	H	0.596984	0.268637	0.388000
H370	H	1.096984	0.768637	0.888000
H371	H	0.730115	0.135573	0.829740
H372	H	1.230115	0.635573	1.329740
H373	H	0.596925	0.472692	0.268615
H374	H	1.096925	0.972692	0.768615
H375	H	0.730117	0.829189	0.135814
H376	H	1.230117	1.329189	0.635814
H377	H	0.701327	0.164374	0.473150
H378	H	1.201327	0.664374	0.973150
C379	C	0.709608	0.156044	1.052267
C380	C	1.209608	0.656044	1.552267
N381	N	0.733427	0.132237	1.071719
N382	N	1.233427	0.632237	1.571719
H383	H	0.597076	0.959972	0.268661
H384	H	1.097076	1.459972	0.768661
C385	C	0.738307	0.737365	0.127595
C386	C	1.238307	1.237365	0.627595
N387	N	0.762123	0.717924	0.103807
N388	N	1.262123	1.217924	0.603807
C389	C	0.560079	0.835973	0.305553
C390	C	1.060079	1.335973	0.805553
N391	N	0.536264	0.855416	0.329341
N392	N	1.036264	1.355416	0.829341
H393	H	0.568233	0.297294	0.603808
H394	H	1.068233	0.797294	1.103808
C395	C	0.560060	0.737463	0.305553
C396	C	1.060060	1.237463	0.805553
N397	N	0.536240	0.718047	0.329346
N398	N	1.036240	1.218047	0.829346
H399	H	0.701321	0.164403	0.388042
H400	H	1.201321	0.664403	0.888042
H401	H	0.393001	0.268723	0.268566
H402	H	0.893001	0.768723	0.768566
C403	C	0.170477	0.305739	0.305462
C404	C	0.670477	0.805739	0.805462
N405	N	0.151049	0.329594	0.329222
N406	N	0.651049	0.829594	0.829222
H407	H	0.262285	0.297506	0.297258
H408	H	0.762285	0.797506	0.797258
H409	H	-0.094285	0.268759	0.268619
H410	H	0.405715	0.768759	0.768619
H411	H	0.568248	0.297285	0.688916
H412	H	1.068248	0.797285	1.188916
C413	C	0.588842	0.276703	1.052211
C414	C	1.088842	0.776703	1.552211
N415	N	0.565015	0.300502	1.071632
N416	N	1.065015	0.800502	1.571632
H417	H	0.596991	0.268621	0.473123
H418	H	1.096991	0.768621	0.973123
H419	H	0.730110	0.135588	0.744622
H420	H	1.230110	0.635588	1.244622
C421	C	0.560054	0.305461	0.836371
C422	C	1.060054	0.805461	1.336371
N423	N	0.536223	0.329255	0.855792
N424	N	1.036223	0.829255	1.355792
H425	H	-0.179407	0.268759	0.268628
H426	H	0.320593	0.768759	0.768628
H427	H	0.392998	0.164309	0.164496
H428	H	0.892998	0.664309	0.664496
C429	C	0.484826	0.156079	0.156296
C430	C	0.984826	0.656079	0.656296
N431	N	0.504272	0.132231	0.132542
N432	N	1.004272	0.632231	0.632542
H433	H	0.177197	0.135539	0.135854
H434	H	0.677197	0.635539	0.635854
