data_functionalizedCrystal
_audit_creation_method	'MofGen! by Chris Wilmer'
_symmetry_space_group_name_H-M	'P1'
_symmetry_Int_Tables_number	1
_symmetry_cell_setting	triclinic
loop_
_symmetry_equiv_pos_as_xyz
  x,y,z
_cell_length_a	25.427154
_cell_length_b	25.426324
_cell_length_c	25.422586
_cell_angle_alpha	60.006367
_cell_angle_beta	60.012446
_cell_angle_gamma	59.992398
loop_
_atom_site_label
_atom_site_type_symbol
_atom_site_fract_x
_atom_site_fract_y
_atom_site_fract_z
O1	O	0.072968	-0.768436	0.642532
O2	O	0.027520	-0.598284	0.517710
O3	O	0.135268	-0.705940	0.517611
O4	O	-0.034780	-0.660780	0.642632
O5	O	0.171018	-0.670200	0.553260
O6	O	0.063270	-0.562544	0.553360
O7	O	0.108718	-0.732696	0.678182
Zn8	Zn	0.091670	-0.641945	0.621431
Zn9	Zn	0.044568	-0.689034	0.574461
O10	O	0.000970	-0.625039	0.678281
N11	N	0.123818	-0.609812	0.653490
N12	N	0.012426	-0.721173	0.542402
C13	C	0.168482	-0.466269	0.698103
C14	C	0.168494	-0.565177	0.698095
C15	C	0.193243	-0.540453	0.722807
C16	C	0.301113	-0.521853	0.665993
C17	C	0.368545	-0.544324	0.643486
C18	C	0.368579	-0.653434	0.685090
C19	C	0.301149	-0.630961	0.707599
C20	C	0.184722	-0.432539	0.631812
C21	C	0.162210	-0.365100	0.609357
C22	C	0.107225	-0.365129	0.719489
C23	C	0.129737	-0.432567	0.741943
C24	C	0.102194	-0.548896	0.714421
C25	C	0.079702	-0.571372	0.691949
C26	C	0.189805	-0.626409	0.636839
C27	C	0.212300	-0.603934	0.659303
C28	C	0.102289	-0.548918	0.830735
C29	C	0.079866	-0.571415	0.898171
C30	C	0.190015	-0.626466	0.898104
C31	C	0.212437	-0.603971	0.830666
C32	C	0.168573	-0.565195	0.796984
C33	C	0.267418	-0.565170	0.698047
C34	C	-0.130981	-0.765617	0.497386
C35	C	-0.032127	-0.765741	0.497606
C36	C	-0.056804	-0.790430	0.472789
C37	C	-0.075480	-0.898263	0.529507
C38	C	-0.053057	-0.965702	0.552014
C39	C	0.056052	-0.965829	0.510599
C40	C	0.033627	-0.898392	0.488091
C41	C	-0.164787	-0.781859	0.563659
C42	C	-0.232219	-0.759299	0.586018
C43	C	-0.232034	-0.704261	0.475827
C44	C	-0.164602	-0.726821	0.453469
C45	C	-0.048372	-0.699446	0.481299
C46	C	-0.025938	-0.677008	0.503867
C47	C	0.028987	-0.787155	0.559036
C48	C	0.006552	-0.809596	0.536475
C49	C	-0.048188	-0.699454	0.364860
C50	C	-0.025608	-0.677017	0.297425
C51	C	0.029406	-0.787170	0.297492
C52	C	0.006827	-0.809605	0.364929
C53	C	-0.031972	-0.765745	0.398611
C54	C	-0.032140	-0.864611	0.497548
N55	N	0.401319	-0.609788	0.653344
O56	O	0.621664	-0.620517	0.494685
O57	O	0.621901	-0.745740	0.664659
O58	O	0.621803	-0.745452	0.556857
O59	O	0.621762	-0.620805	0.602487
O60	O	0.514676	-0.709815	0.592658
O61	O	0.514774	-0.710104	0.700460
O62	O	0.514537	-0.584881	0.530485
Zn63	Zn	0.497647	-0.641834	0.621157
Zn64	Zn	0.638791	-0.688787	0.573988
O65	O	0.514635	-0.585169	0.638287
N66	N	0.735119	-0.720834	0.541794
N67	N	0.123794	-0.332357	0.653504
O68	O	-0.034774	-0.111885	0.642639
O69	O	0.135202	-0.111860	0.517412
O70	O	0.027364	-0.111888	0.517742
O71	O	0.073064	-0.111857	0.642310
O72	O	0.063120	-0.219026	0.553444
O73	O	0.170958	-0.218998	0.553115
O74	O	0.000983	-0.219022	0.678342
Zn75	Zn	0.091647	-0.236020	0.621397
Zn76	Zn	0.044537	-0.094862	0.574357
O77	O	0.108821	-0.218994	0.678013
N78	N	0.012383	0.001474	0.542251
N79	N	0.124036	-0.609854	0.930891
O80	O	0.113202	-0.768401	1.151342
O81	O	-0.011992	-0.598359	1.151385
O82	O	-0.011700	-0.706176	1.151343
O83	O	0.112910	-0.660584	1.151384
O84	O	0.023980	-0.670446	1.044212
O85	O	0.023689	-0.562630	1.044253
O86	O	0.148882	-0.732671	1.044211
Zn87	Zn	0.091951	-0.641977	1.027223
Zn88	Zn	0.044940	-0.689053	1.168373
O89	O	0.148590	-0.624854	1.044252
N90	N	0.012853	-0.721183	1.264704
C91	C	0.041135	-0.558973	0.518338
C92	C	0.174567	-0.692292	0.518215
C93	C	0.095103	-0.772007	0.677553
C94	C	-0.038330	-0.638687	0.677677
C95	C	0.568366	-0.745166	0.703974
C96	C	0.568246	-0.744810	0.570474
C97	C	0.568069	-0.585454	0.491172
C98	C	0.568192	-0.585812	0.624671
C99	C	0.174449	-0.165294	0.517975
C100	C	0.040949	-0.165460	0.518427
C101	C	-0.038309	-0.165456	0.677735
C102	C	0.095236	-0.165423	0.677328
C103	C	-0.011393	-0.559072	1.097824
C104	C	-0.011024	-0.692583	1.097752
C105	C	0.148283	-0.771958	1.097772
C106	C	0.147922	-0.638440	1.097820
H107	H	0.025889	-0.558152	0.925643
C108	C	-0.104311	-0.625687	0.730715
N109	N	-0.154009	-0.615894	0.770664
H110	H	0.187070	-0.628684	1.097824
H111	H	0.567992	-0.546139	0.442358
H112	H	0.031425	-0.510094	0.479136
C113	C	0.108218	-0.838039	0.730517
N114	N	0.118097	-0.887776	0.770409
C115	C	0.240258	-0.164878	0.464728
N116	N	0.289825	-0.164563	0.424622
H117	H	0.187590	-0.820792	1.097751
C118	C	0.568269	-0.797711	0.557283
N119	N	0.568285	-0.837555	0.547347
C120	C	0.568170	-0.532911	0.637861
N121	N	0.568152	-0.493065	0.647798
H122	H	0.031160	-0.165463	0.479291
C123	C	0.285233	-0.621856	0.641361
N124	N	0.340165	-0.635362	0.627853
H125	H	0.223406	-0.701920	0.478955
C126	C	0.568454	-0.798276	0.769924
N127	N	0.568522	-0.838279	0.819597
H128	H	-0.087123	-0.165464	0.717049
C129	C	0.108456	-0.165415	0.730199
N130	N	0.118415	-0.165409	0.770023
H131	H	0.273715	-0.666239	0.733700
C132	C	-0.064492	-0.493096	1.097838
N133	N	-0.104487	-0.443403	1.097849
H134	H	-0.050155	-0.702322	1.097697
C135	C	0.128400	-1.002990	0.500199
N136	N	0.182892	-1.030979	0.492363
H137	H	0.225736	-0.658027	0.925521
C138	C	0.054031	-0.506259	0.793688
N139	N	0.017685	-0.474128	0.765784
H140	H	0.066522	-0.517340	0.746005
C141	C	0.006769	-0.553463	0.709905
N142	N	-0.048163	-0.539975	0.723430
C143	C	0.285356	-0.621880	0.793545
N144	N	0.340279	-0.635369	0.765586
H145	H	0.396045	-0.707006	0.692856
C146	C	0.405609	-0.496671	0.608223
N147	N	0.433527	-0.460777	0.581659
C148	C	0.237997	-0.669045	0.594173
N149	N	0.274298	-0.701157	0.562034
H150	H	0.273654	-0.468282	0.658214
H151	H	0.216267	-0.459978	0.596113
C152	C	-0.100737	-1.002718	0.587186
N153	N	-0.136653	-1.030601	0.613683
H154	H	0.175430	-0.337636	0.555374
C155	C	0.064580	-0.328054	0.767715
N156	N	0.032446	-0.300130	0.804039
H157	H	-0.038823	-0.623033	0.269953
C158	C	-0.090871	-0.651200	0.401908
N159	N	-0.123017	-0.614858	0.429812
C160	C	0.072076	-0.835421	0.260449
N161	N	0.104219	-0.871767	0.232549
C162	C	0.024671	-0.882533	0.402051
N163	N	0.038111	-0.937462	0.430009
C164	C	-0.043803	-0.604080	0.485928
N165	N	-0.057259	-0.549152	0.472414
C166	C	0.071559	-0.835403	0.601765
N167	N	0.103631	-0.871745	0.633943
C168	C	0.111874	-0.469673	0.814871
N169	N	0.098418	-0.497620	0.869800
H170	H	-0.079862	-0.663733	0.449648
H171	H	0.068924	-0.870994	0.462067
C172	C	0.024425	-0.882524	0.554408
N173	N	0.037889	-0.937453	0.567912
H174	H	-0.137414	-0.813456	0.599420
C175	C	-0.147827	-0.861110	0.539911
N176	N	-0.202319	-0.833126	0.547746
C177	C	-0.269407	-0.777166	0.658925
N178	N	-0.297417	-0.790626	0.713838
H179	H	-0.259410	-0.672678	0.440065
H180	H	-0.137077	-0.713589	0.399501
