data_functionalizedCrystal
_audit_creation_method	'MofGen! by Chris Wilmer'
_symmetry_space_group_name_H-M	'P1'
_symmetry_Int_Tables_number	1
_symmetry_cell_setting	triclinic
loop_
_symmetry_equiv_pos_as_xyz
  x,y,z
_cell_length_a	10.654541
_cell_length_b	15.455313
_cell_length_c	16.992695
_cell_angle_alpha	92.847427
_cell_angle_beta	87.576076
_cell_angle_gamma	87.294234
loop_
_atom_site_label
_atom_site_type_symbol
_atom_site_fract_x
_atom_site_fract_y
_atom_site_fract_z
O1	O	1.682527	-0.072105	0.106780
O2	O	1.317956	-0.072113	0.117280
O3	O	1.498779	-0.072102	-0.002120
O4	O	1.501703	-0.072116	0.226181
O5	O	1.488436	0.072159	0.004680
O6	O	1.307612	0.072149	0.124080
O7	O	1.672183	0.072156	0.113580
Cu8	Cu	1.488954	0.085325	0.119451
Cu9	Cu	1.501185	-0.085281	0.111410
O10	O	1.491360	0.072146	0.232980
C11	C	1.265919	0.000017	0.119909
C12	C	1.126277	0.000014	0.117604
N13	N	1.480359	0.205320	0.125106
C14	C	1.489847	0.000029	-0.027953
C15	C	1.478628	0.000028	-0.115058
C16	C	1.110646	-0.000005	0.260379
C17	C	1.037228	-0.000018	0.330680
C18	C	0.906022	-0.000019	0.328509
C19	C	0.848232	-0.000004	0.256029
C20	C	0.921650	0.000009	0.185728
C21	C	1.052858	0.000007	0.187907
C22	C	0.937281	0.000035	0.042955
C23	C	1.068487	0.000029	0.045124
C24	C	0.879491	0.000050	-0.029525
C25	C	0.952910	0.000057	-0.099828
C26	C	1.084123	0.000057	-0.097653
C27	C	1.141905	0.000043	-0.025177
C28	C	1.724220	0.000025	0.110951
C29	C	1.863863	0.000022	0.113256
N30	N	1.509789	-0.205276	0.105748
C31	C	1.557210	0.250719	0.074400
C32	C	1.550723	0.341526	0.078684
C33	C	1.467391	0.386933	0.133679
C34	C	1.390532	0.341528	0.184387
C35	C	1.397013	0.250722	0.180099
C36	C	1.439412	0.658513	0.152168
C37	C	1.432938	0.749325	0.156455
C38	C	1.593129	0.749317	0.050749
C39	C	1.599608	0.658509	0.046469
C40	C	1.522745	0.613112	0.097175
N41	N	1.460761	0.479753	0.138061
N42	N	1.529369	0.520294	0.092788
C43	C	1.586879	0.000031	-0.164711
C44	C	1.576330	0.000023	-0.246555
C45	C	1.457529	0.000017	-0.278745
C46	C	1.349271	0.000012	-0.229087
C47	C	1.359821	0.000014	-0.147244
C48	C	1.413803	0.000005	-0.522581
C49	C	1.403261	0.000005	-0.604430
C50	C	1.630322	0.000014	-0.621892
C51	C	1.640861	0.000022	-0.540047
C52	C	1.532603	0.000012	-0.490396
N53	N	1.446744	0.000011	-0.362403
N54	N	1.543390	0.000011	-0.406740
C55	C	1.500292	0.000013	0.258813
C56	C	1.511512	0.000008	0.345918
H57	H	1.217481	-0.000024	0.262153
H58	H	1.718459	0.000021	-0.662327
O59	O	1.756224	0.000175	-0.508732
C60	C	1.763746	0.074879	-0.458381
H61	H	1.692403	0.127099	-0.475635
H62	H	1.742440	0.057988	-0.394804
C63	C	1.984738	0.044620	-0.444762
C64	C	1.897122	0.108761	-0.465958
H65	H	2.067012	0.065519	-0.449432
H66	H	1.979671	-0.005711	-0.478682
H67	H	1.966968	0.030550	-0.391782
H68	H	1.914884	0.122822	-0.518939
H69	H	1.902195	0.159096	-0.432047
O70	O	1.638191	0.206748	0.020908
C71	C	1.704649	0.266295	-0.022915
H72	H	1.648423	0.331032	-0.021041
H73	H	1.799856	0.275936	0.003555
C74	C	1.793647	0.151361	-0.111374
C75	C	1.724584	0.230869	-0.109078
H76	H	1.805950	0.129507	-0.164523
H77	H	1.748877	0.111242	-0.081848
H78	H	1.872979	0.159405	-0.089311
H79	H	1.645249	0.222821	-0.131131
H80	H	1.769341	0.270986	-0.138610
H81	H	1.143893	0.000071	-0.154901
O82	O	1.309691	0.385768	0.237787
C83	C	1.320427	0.475652	0.230689
H84	H	1.416499	0.488045	0.202532
H85	H	1.243523	0.501440	0.192146
C86	C	1.188267	0.507035	0.347620
C87	C	1.306269	0.522257	0.313043
H88	H	1.179528	0.535785	0.398419
H89	H	1.181029	0.446479	0.352401
H90	H	1.124194	0.528525	0.315493
H91	H	1.370339	0.500757	0.345165
H92	H	1.313517	0.582811	0.308269
O93	O	1.308689	-0.000154	-0.474334
C94	C	1.313359	-0.074858	-0.429976
H95	H	1.378355	-0.127077	-0.462050
H96	H	1.350630	-0.057967	-0.369496
C97	C	1.100486	-0.044604	-0.380498
C98	C	1.180307	-0.108743	-0.419896
H99	H	1.018413	-0.065504	-0.374277
H100	H	1.097340	0.005728	-0.410381
H101	H	1.131560	-0.030534	-0.330102
H102	H	1.149241	-0.122804	-0.470294
H103	H	1.183444	-0.159078	-0.390021
H104	H	0.741396	0.000006	0.254268
H105	H	1.667464	0.621540	0.001688
H106	H	1.334432	0.213760	0.221388
O107	O	0.896823	0.000224	-0.170239
C108	C	0.928315	0.074931	-0.209622
H109	H	0.956078	0.127145	-0.164792
H110	H	1.010552	0.058039	-0.253672
C111	C	0.780022	0.044689	-0.308756
C112	C	0.814111	0.108823	-0.253694
H113	H	0.709579	0.065594	-0.335945
H114	H	0.758807	-0.005644	-0.282225
H115	H	0.848563	0.030619	-0.345457
H116	H	0.745576	0.122884	-0.216989
H117	H	0.835311	0.159159	-0.280220
O118	O	1.625201	0.385660	0.029352
C119	C	1.549323	0.438219	-0.016954
H120	H	1.452049	0.410873	-0.020150
H121	H	1.540290	0.507038	0.010805
C122	C	1.729513	0.473197	-0.096793
C123	C	1.610043	0.439605	-0.100723
H124	H	1.766969	0.474056	-0.148465
H125	H	1.780635	0.437790	-0.065594
H126	H	1.721970	0.530543	-0.073657
H127	H	1.617589	0.382257	-0.123849
H128	H	1.558923	0.475003	-0.131928
H129	H	1.655706	0.786287	0.009466
O130	O	1.351862	0.793301	0.209894
C131	C	1.285425	0.733762	0.253739
H132	H	1.285407	0.669036	0.218512
H133	H	1.332735	0.724091	0.311807
C134	C	1.148987	0.848719	0.314043
C135	C	1.148957	0.769224	0.270774
H136	H	1.064809	0.870594	0.324554
H137	H	1.193750	0.888833	0.284506
H138	H	1.188419	0.840649	0.362428
H139	H	1.109540	0.777296	0.222386
H140	H	1.104185	0.729112	0.300303
H141	H	1.306513	0.000014	-0.630635
H142	H	1.084294	-0.000028	0.389692
H143	H	0.846244	-0.000023	0.385754
H144	H	1.376828	0.621558	0.193456
H145	H	1.683619	0.000041	-0.138508
H146	H	0.772656	0.000054	-0.031287
H147	H	1.248739	0.000032	-0.023400
H148	H	1.664480	0.000027	-0.286979
H149	H	1.252541	0.000002	-0.255302
H150	H	1.271671	0.000011	-0.106817
