data_functionalizedCrystal
_audit_creation_method	'MofGen! by Chris Wilmer'
_symmetry_space_group_name_H-M	'P1'
_symmetry_Int_Tables_number	1
_symmetry_cell_setting	triclinic
loop_
_symmetry_equiv_pos_as_xyz
  x,y,z
_cell_length_a	16.120484
_cell_length_b	15.297475
_cell_length_c	15.296720
_cell_angle_alpha	91.617114
_cell_angle_beta	78.013482
_cell_angle_gamma	96.312526
loop_
_atom_site_label
_atom_site_type_symbol
_atom_site_fract_x
_atom_site_fract_y
_atom_site_fract_z
Zn1	Zn	-0.646916	-1.212936	0.755054
Zn2	Zn	-0.146916	-0.712936	1.255054
Zn3	Zn	-0.766607	-1.230712	0.613834
Zn4	Zn	-0.266607	-0.730712	1.113834
Zn5	Zn	-0.600220	-1.094735	0.581241
Zn6	Zn	-0.100220	-0.594735	1.081241
Zn7	Zn	-0.758436	-1.059450	0.734603
Zn8	Zn	-0.258436	-0.559450	1.234603
O9	O	-0.693045	-1.149458	0.671183
O10	O	-0.193045	-0.649458	1.171183
O11	O	-0.685755	-1.336436	0.758520
O12	O	-0.185755	-0.836436	1.258520
O13	O	-0.728412	-1.234881	0.486227
O14	O	-0.228412	-0.734881	0.986227
O15	O	-0.490110	-1.117742	0.599215
O16	O	0.009890	-0.617742	1.099215
O17	O	-0.773691	-1.349496	0.654766
O18	O	-0.273691	-0.849496	1.154766
O19	O	-0.524417	-1.204584	0.726915
O20	O	-0.024417	-0.704584	1.226915
O21	O	-0.606169	-1.134979	0.462280
O22	O	-0.106169	-0.634979	0.962280
O23	O	-0.598246	-0.968913	0.579385
O24	O	-0.098246	-0.468913	1.079385
O25	O	-0.759766	-1.057604	0.860600
O26	O	-0.259766	-0.557604	1.360600
O27	O	-0.714486	-0.942989	0.692060
O28	O	-0.214486	-0.442989	1.192060
O29	O	-0.677833	-1.170370	0.875625
O30	O	-0.177833	-0.670370	1.375625
O31	O	-0.881827	-1.200666	0.634936
O32	O	-0.381827	-0.700666	1.134936
O33	O	-0.875825	-1.074840	0.723665
O34	O	-0.375825	-0.574840	1.223665
C35	C	-0.650413	-0.924540	0.629967
C36	C	-0.150413	-0.424540	1.129967
C37	C	-0.632198	-0.828314	0.612357
C38	C	-0.132198	-0.328314	1.112357
C39	C	-0.908989	-1.135873	0.680642
C40	C	-0.408989	-0.635873	1.180642
C41	C	-1.001390	-1.130135	0.684732
C42	C	-0.501390	-0.630135	1.184732
C43	C	-0.723097	-1.108068	0.900972
C44	C	-0.223097	-0.608068	1.400972
C45	C	-0.735903	-1.090430	0.998895
C46	C	-0.235903	-0.590430	1.498895
C47	C	-1.170572	-1.119661	0.692219
C48	C	-0.670572	-0.619661	1.192219
C49	C	-1.214709	-1.179408	0.650189
C50	C	-0.714709	-0.679408	1.150189
C51	C	-1.308847	-1.173580	0.654355
C52	C	-0.808847	-0.673580	1.154355
C53	C	-1.076425	-1.125488	0.688054
C54	C	-0.576425	-0.625488	1.188054
C55	C	-0.476264	-1.163116	0.661711
C56	C	0.023736	-0.663116	1.161711
C57	C	-0.383885	-1.168937	0.657674
C58	C	0.116115	-0.668937	1.157674
C59	C	-0.735844	-1.375255	0.712560
C60	C	-0.235844	-0.875255	1.212560
C61	C	-0.754082	-1.471476	0.730193
C62	C	-0.254082	-0.971476	1.230193
C63	C	-0.823238	-0.503218	0.797050
C64	C	-0.323238	-0.003218	1.297050
C65	C	-0.840358	-0.593627	0.813594
C66	C	-0.340358	-0.093627	1.313594
C67	C	-0.788320	-0.652303	0.763286
C68	C	-0.288320	-0.152303	1.263286
C69	C	-0.719158	-0.620561	0.696432
C70	C	-0.219158	-0.120561	1.196432
C71	C	-0.702040	-0.530143	0.679882
C72	C	-0.202040	-0.030143	1.179882
C73	C	-0.667122	-0.679229	0.646118
C74	C	-0.167122	-0.179229	1.146118
C75	C	-0.597960	-0.647487	0.579263
C76	C	-0.097960	-0.147487	1.079263
C77	C	-0.580845	-0.557078	0.562717
C78	C	-0.080845	-0.057078	1.062717
C79	C	-0.632884	-0.498402	0.613024
C80	C	-0.132884	0.001598	1.113024
C81	C	-0.684239	-0.769646	0.662668
C82	C	-0.184239	-0.269646	1.162668
C83	C	-0.563041	-0.796572	0.545499
C84	C	-0.063041	-0.296572	1.045499
C85	C	-0.545921	-0.706162	0.528956
C86	C	-0.045921	-0.206162	1.028956
C87	C	-0.663059	-1.190741	0.442294
C88	C	-0.163059	-0.690741	0.942294
C89	C	-0.650051	-1.208562	0.344393
C90	C	-0.150051	-0.708562	0.844393
C91	C	-0.601377	-1.275562	1.306214
C92	C	-0.101377	-0.775562	1.806214
C93	C	-0.589347	-1.292140	1.214212
C94	C	-0.089347	-0.792140	1.714212
C95	C	-0.625985	-1.241714	1.160378
C96	C	-0.125985	-0.741714	1.660378
C97	C	-0.674655	-1.174707	1.198556
C98	C	-0.174655	-0.674707	1.698556
C99	C	-0.686691	-1.158133	1.290568
C100	C	-0.186691	-0.658133	1.790568
C101	C	-0.711299	-1.124284	1.144732
C102	C	-0.211299	-0.624284	1.644732
C103	C	-0.759969	-1.057278	1.182909
C104	C	-0.259969	-0.557278	1.682909
C105	C	-0.772003	-1.040706	1.274912
C106	C	-0.272003	-0.540706	1.774912
C107	C	-0.735365	-1.091132	1.328746
C108	C	-0.235365	-0.591132	1.828746
C109	C	-0.699263	-1.140858	1.052720
C110	C	-0.199263	-0.640858	1.552720
C111	C	-0.784577	-1.023429	1.037073
C112	C	-0.284577	-0.523429	1.537073
C113	C	-0.796607	-1.006852	1.129075
C114	C	-0.296607	-0.506852	1.629075
H115	H	-1.181795	-1.234934	0.611077
H116	H	-0.681795	-0.734934	1.111077
H117	H	-1.203483	-1.064138	0.731327
H118	H	-0.703483	-0.564138	1.231327
Br119	Br	-0.633214	-1.231793	1.000919
Br120	Br	-0.133214	-0.731793	1.500919
Br121	Br	-0.778099	-0.812714	0.753395
Br122	Br	-0.278099	-0.312714	1.253395
Br123	Br	-0.551673	-1.344000	1.379279
Br124	Br	-0.051673	-0.844000	1.879279
H125	H	-0.836234	-0.952294	1.160172
H126	H	-0.336234	-0.452294	1.660172
Br127	Br	-0.934219	-0.636701	0.904317
Br128	Br	-0.434219	-0.136701	1.404317
H129	H	-0.618947	-0.424782	0.599559
H130	H	-0.118947	0.075218	1.099559
Br131	Br	-0.838076	-0.949786	1.326726
Br132	Br	-0.338076	-0.449786	1.826726
H133	H	-0.814412	-0.982369	0.993241
H134	H	-0.314412	-0.482369	1.493241
Br135	Br	-0.893873	-0.423588	0.865294
Br136	Br	-0.393873	0.076412	1.365294
H137	H	-0.802263	-0.725918	0.776760
H138	H	-0.302263	-0.225918	1.276760
H139	H	-0.489610	-0.680305	0.474522
H140	H	0.010390	-0.180305	0.974522
Br141	Br	-0.486991	-0.514001	0.471976
Br142	Br	0.013009	-0.014001	0.971976
H143	H	-0.520668	-0.844347	0.504533
H144	H	-0.020668	-0.344347	1.004533
Br145	Br	-0.523300	-1.383074	1.162407
Br146	Br	-0.023300	-0.883074	1.662407
H147	H	-0.745157	-1.077639	1.403662
H148	H	-0.245157	-0.577639	1.903662
H149	H	-0.616187	-1.255215	1.085467
H150	H	-0.116187	-0.755215	1.585467
