data_functionalizedCrystal
_audit_creation_method	'MofGen! by Chris Wilmer'
_symmetry_space_group_name_H-M	'P1'
_symmetry_Int_Tables_number	1
_symmetry_cell_setting	triclinic
loop_
_symmetry_equiv_pos_as_xyz
  x,y,z
_cell_length_a	14.908571
_cell_length_b	17.637651
_cell_length_c	14.908308
_cell_angle_alpha	81.356405
_cell_angle_beta	90.175053
_cell_angle_gamma	97.315537
loop_
_atom_site_label
_atom_site_type_symbol
_atom_site_fract_x
_atom_site_fract_y
_atom_site_fract_z
Zn1	Zn	1.257978	-0.403217	-0.489413
Zn2	Zn	1.240094	-0.525429	-0.309299
Zn3	Zn	1.119507	-0.388376	-0.334024
Zn4	Zn	1.081320	-0.524511	-0.451174
O5	O	1.174725	-0.460383	-0.395977
O6	O	1.380004	-0.426024	-0.471176
O7	O	1.232594	-0.501422	-0.188173
O8	O	1.161342	-0.282226	-0.380987
O9	O	1.366864	-0.515812	-0.338847
O10	O	1.263076	-0.293130	-0.495151
O11	O	1.144000	-0.400730	-0.206338
O12	O	0.990044	-0.399840	-0.343908
O13	O	1.096258	-0.514248	-0.580653
O14	O	0.961988	-0.499858	-0.429978
O15	O	1.226048	-0.425134	-0.608746
O16	O	1.195566	-0.633426	-0.301768
O17	O	1.078915	-0.632752	-0.406003
C18	C	0.943761	-0.448139	-0.385477
C19	C	0.844948	-0.442921	-0.381002
C20	C	0.630079	-0.537409	-0.462026
C21	C	0.537235	-0.532508	-0.457824
C22	C	0.566414	-0.428216	-0.368400
C23	C	0.659258	-0.433116	-0.372603
C24	C	0.691087	-0.487716	-0.419416
C25	C	0.783932	-0.492620	-0.423613
C26	C	0.813110	-0.388324	-0.334195
C27	C	0.720266	-0.383423	-0.329992
C28	C	1.131179	-0.661125	-0.347074
C29	C	1.112629	-0.747009	-0.326186
C30	C	1.316205	-1.057562	-0.554965
C31	C	1.298747	-1.138260	-0.535321
C32	C	1.192895	-1.127013	-0.416336
C33	C	1.210347	-1.046312	-0.435967
C34	C	1.272002	-1.011592	-0.505283
C35	C	1.166144	-1.000342	-0.386285
C36	C	1.183592	-0.919648	-0.405918
C37	C	1.245242	-0.884923	-0.475233
C38	C	1.289450	-0.930898	-0.524916
C39	C	1.104485	-1.035063	-0.316974
C40	C	1.060282	-0.989094	-0.267292
C41	C	1.077734	-0.908398	-0.286920
C42	C	1.139384	-0.873673	-0.356235
C43	C	1.033526	-0.862423	-0.237237
C44	C	1.050974	-0.781728	-0.256870
C45	C	1.156832	-0.792978	-0.375868
C46	C	1.406591	-0.472676	-0.406519
C47	C	1.505398	-0.477914	-0.411011
C48	C	1.158888	-0.471244	-0.627859
C49	C	1.152139	-0.475872	-0.726672
C50	C	1.218464	-0.258860	-0.445092
C51	C	1.237103	-0.172983	-0.466022
C52	C	1.274609	-0.391756	-0.941615
C53	C	1.268271	-0.396102	-1.034460
C54	C	1.133123	-0.488905	-1.005211
C55	C	1.139461	-0.484559	-0.912366
C56	C	1.210207	-0.435984	-0.880571
C57	C	1.216548	-0.431642	-0.787723
C58	C	1.081396	-0.524441	-0.758477
C59	C	1.075059	-0.528787	-0.851322
C60	C	1.190563	-0.449512	-0.165014
C61	C	1.197532	-0.444676	-0.066262
H62	H	0.655993	-0.581870	-0.500138
H63	H	1.339663	-0.902629	-0.581354
H64	H	1.259447	-0.819216	-0.491216
H65	H	1.334734	-1.175687	-0.575795
C66	C	0.880227	-0.333659	-0.287317
N67	N	0.930780	-0.292490	-0.252007
C68	C	1.384028	-1.019366	-0.631218
N69	N	1.435106	-0.990597	-0.688652
H70	H	0.809845	-0.537078	-0.461729
C71	C	1.352433	-0.338327	-0.906638
N72	N	1.411051	-0.298083	-0.880295
C73	C	1.339121	-0.347450	-1.101605
N74	N	1.392488	-0.310803	-1.152179
C75	C	1.055291	-0.542313	-1.040206
N76	N	0.996662	-0.582535	-1.066567
H77	H	0.487564	-0.572973	-0.492523
H78	H	1.142693	-1.155292	-0.359901
H79	H	1.017458	-0.568334	-0.877223
H80	H	0.540482	-0.383759	-0.330294
C81	C	1.085288	-1.123830	-0.295384
N82	N	1.070830	-1.190689	-0.279124
H83	H	0.694338	-0.338968	-0.291881
C84	C	1.224654	-0.754783	-0.452121
N85	N	1.275733	-0.726014	-0.509555
C86	C	0.992523	-1.027295	-0.190993
N87	N	0.941509	-1.056067	-0.133503
H88	H	0.983320	-0.890703	-0.180806
C89	C	1.002357	-0.731159	-0.202210
N90	N	0.965738	-0.693071	-0.161037
C91	C	1.294367	-0.378206	-0.752751
N92	N	1.352980	-0.337954	-0.726414
C93	C	1.010549	-0.573096	-0.691320
N94	N	0.957190	-0.609743	-0.640737
