data_functionalizedCrystal
_audit_creation_method	'MofGen! by Chris Wilmer'
_symmetry_space_group_name_H-M	'P1'
_symmetry_Int_Tables_number	1
_symmetry_cell_setting	triclinic
loop_
_symmetry_equiv_pos_as_xyz
  x,y,z
_cell_length_a	16.109301
_cell_length_b	16.992700
_cell_length_c	14.586319
_cell_angle_alpha	89.989009
_cell_angle_beta	89.999213
_cell_angle_gamma	87.064326
loop_
_atom_site_label
_atom_site_type_symbol
_atom_site_fract_x
_atom_site_fract_y
_atom_site_fract_z
O1	O	1.109855	0.100784	-0.076197
O2	O	0.868630	0.113326	-0.076214
O3	O	0.988277	-0.007088	-0.076182
O4	O	0.990208	0.221197	-0.076229
O5	O	0.988268	-0.007089	0.076299
O6	O	0.868621	0.113324	0.076267
O7	O	1.109846	0.100782	0.076284
Cu8	Cu	0.989233	0.107053	0.090198
Cu9	Cu	0.989243	0.107055	-0.090128
O10	O	0.990199	0.221196	0.076252
C11	C	0.837617	0.112817	0.000025
C12	C	0.745220	0.111294	0.000020
C13	C	0.985784	-0.036300	0.000062
C14	C	0.978362	-0.123343	0.000074
C15	C	0.527478	0.179203	0.000017
C16	C	0.440662	0.177766	0.000023
C17	C	0.451004	0.034899	0.000048
C18	C	0.537819	0.036337	0.000048
C19	C	0.576054	0.108492	0.000028
C20	C	0.402423	0.105616	0.000034
C21	C	0.308292	0.104057	0.000041
C22	C	0.670190	0.110051	0.000023
C23	C	0.928489	-0.612289	-0.000013
C24	C	0.935469	-0.530505	-0.000004
C25	C	1.014076	-0.498982	0.000014
C26	C	1.085708	-0.549248	0.000013
C27	C	1.078726	-0.631031	-0.000003
C28	C	1.043011	-0.255392	0.000057
C29	C	1.049987	-0.173602	0.000075
C30	C	0.899748	-0.154865	0.000057
C31	C	0.892774	-0.236650	0.000046
C32	C	0.964405	-0.286910	0.000041
N33	N	1.021214	-0.415385	0.000026
N34	N	0.957267	-0.370505	0.000021
C35	C	1.140859	0.101291	0.000043
C36	C	1.233256	0.102814	0.000042
C37	C	0.992692	0.250408	0.000006
C38	C	1.000114	0.337451	-0.000012
N39	N	0.989231	0.107051	0.217030
N40	N	0.989251	0.107051	-0.216960
C41	C	1.042231	0.053750	0.452050
C42	C	1.042233	0.053748	0.548031
C43	C	0.936246	0.160355	0.548013
C44	C	0.936240	0.160352	0.452034
C45	C	0.989237	0.107051	0.404055
C46	C	0.989245	0.107051	0.596015
C47	C	0.989247	0.107050	0.700083
C48	C	0.989234	0.107051	0.299981
H49	H	0.401115	0.235347	0.000015
H50	H	0.828764	-0.262310	0.000021
H51	H	1.101339	-0.296304	0.000058
H52	H	1.137052	-0.671953	-0.000005
H53	H	0.577371	-0.021248	0.000060
C54	C	0.878806	0.218194	0.600273
C55	C	0.890169	0.206805	0.694601
C56	C	0.837279	0.260082	0.742768
H57	H	0.822719	0.209717	0.584663
H58	H	0.891319	0.270542	0.584579
H59	H	0.877650	0.154469	0.710288
H60	H	0.946245	0.215288	0.710237
H61	H	0.849793	0.312430	0.727074
H62	H	0.781195	0.251600	0.727151
H63	H	0.844987	0.252367	0.806774
C64	C	1.099633	-0.004211	0.600189
C65	C	1.052162	-0.052238	0.655286
C66	C	1.105010	-0.105649	0.703337
H67	H	1.136130	0.023912	0.637698
H68	H	1.131177	-0.035999	0.557894
H69	H	1.020632	-0.020454	0.697576
H70	H	1.015666	-0.080378	0.617800
H71	H	1.136555	-0.137437	0.661042
H72	H	1.141506	-0.077519	0.740840
H73	H	1.072809	-0.138246	0.740719
H74	H	1.085383	0.010347	0.412988
H75	H	0.419863	-0.023846	0.000070
H76	H	0.864478	-0.637949	-0.000017
C77	C	0.878669	0.218314	0.400082
C78	C	0.832279	0.265012	0.462641
C79	C	0.779245	0.318417	0.414817
H80	H	0.842114	0.190187	0.362649
H81	H	0.910725	0.251003	0.362648
H82	H	0.800226	0.232328	0.500060
H83	H	0.868812	0.293156	0.500077
H84	H	0.811300	0.351106	0.377383
H85	H	0.742695	0.290284	0.377385
H86	H	0.747768	0.350113	0.457255
H87	H	0.558606	0.237956	0.000007
C88	C	1.170980	-0.514874	0.000079
C89	C	1.161766	-0.432494	0.000120
C90	C	1.240302	-0.400804	0.000196
H91	H	1.200778	-0.532023	-0.053078
H92	H	1.200703	-0.532100	0.053276
H93	H	1.132056	-0.415274	-0.053071
H94	H	1.131982	-0.415323	0.053273
H95	H	1.270025	-0.418031	0.053393
H96	H	1.270094	-0.417959	-0.052962
H97	H	1.234061	-0.344907	0.000233
H98	H	0.841431	-0.113936	0.000060
C99	C	0.857604	-0.476067	0.000049
C100	C	0.787270	-0.521178	0.000063
C101	C	0.715523	-0.471058	0.000125
H102	H	0.857087	-0.443740	-0.053104
H103	H	0.857157	-0.443801	0.053250
H104	H	0.787717	-0.553430	-0.053133
H105	H	0.787760	-0.553504	0.053212
H106	H	0.715076	-0.438792	0.053326
H107	H	0.715015	-0.438733	-0.053029
H108	H	0.667793	-0.501658	0.000143
C109	C	1.135412	-0.139528	0.000033
C110	C	1.196651	-0.201046	-0.000005
C111	C	1.275348	-0.169686	-0.000059
H112	H	1.141377	-0.108041	0.053197
H113	H	1.141296	-0.108020	-0.053157
H114	H	1.190769	-0.232541	0.053179
H115	H	1.190714	-0.232539	-0.053166
H116	H	1.281232	-0.138178	-0.053249
H117	H	1.281304	-0.138199	0.053106
H118	H	1.316908	-0.211421	-0.000094
