data_functionalizedCrystal
_audit_creation_method	'MofGen! by Chris Wilmer'
_symmetry_space_group_name_H-M	'P1'
_symmetry_Int_Tables_number	1
_symmetry_cell_setting	triclinic
loop_
_symmetry_equiv_pos_as_xyz
  x,y,z
_cell_length_a	16.109302
_cell_length_b	16.176319
_cell_length_c	16.109298
_cell_angle_alpha	90.001949
_cell_angle_beta	96.539015
_cell_angle_gamma	90.007924
loop_
_atom_site_label
_atom_site_type_symbol
_atom_site_fract_x
_atom_site_fract_y
_atom_site_fract_z
O1	O	1.103132	0.068774	-0.106868
O2	O	1.603132	0.568774	0.393132
O3	O	0.861070	0.068766	-0.120167
O4	O	1.361070	0.568766	0.379833
O5	O	0.988752	0.068776	0.007513
O6	O	1.488752	0.568776	0.507513
O7	O	0.975450	0.068764	-0.234549
O8	O	1.475450	0.568764	0.265451
O9	O	0.988737	-0.068717	0.007514
O10	O	1.488737	0.431283	0.507514
O11	O	0.861055	-0.068727	-0.120167
O12	O	1.361055	0.431273	0.379833
O13	O	1.103117	-0.068720	-0.106868
O14	O	1.603117	0.431280	0.393132
Cu15	Cu	0.982085	-0.081278	-0.113517
Cu16	Cu	1.482085	0.418722	0.386483
Cu17	Cu	0.982103	0.081324	-0.113518
Cu18	Cu	1.482103	0.581324	0.386482
O19	O	0.975435	-0.068730	-0.234549
O20	O	1.475435	0.431270	0.265451
C21	C	0.830088	0.000018	-0.119628
C22	C	1.330088	0.500018	0.380372
C23	C	0.737793	0.000016	-0.118013
C24	C	1.237793	0.500016	0.381987
N25	N	0.982078	-0.195643	-0.113517
N26	N	1.482078	0.304357	0.386483
C27	C	0.525444	-0.074923	-0.114277
C28	C	1.025444	0.425077	0.385723
C29	C	0.438724	-0.074920	-0.112751
C30	C	0.938724	0.425080	0.387249
C31	C	0.438750	0.074982	-0.112755
C32	C	0.938750	0.574982	0.387245
C33	C	0.525470	0.074979	-0.114276
C34	C	1.025470	0.574979	0.385724
C35	C	0.568813	0.000023	-0.115041
C36	C	1.068813	0.500023	0.384959
C37	C	0.395374	0.000030	-0.111994
C38	C	0.895374	0.500030	0.388006
C39	C	0.301348	0.000034	-0.110338
C40	C	0.801348	0.500034	0.389662
C41	C	0.662845	0.000019	-0.116695
C42	C	1.162845	0.500019	0.383305
C43	C	1.032484	-0.238904	-0.163960
C44	C	1.532484	0.261096	0.336040
C45	C	1.032493	-0.325452	-0.163957
C46	C	1.532493	0.174548	0.336043
C47	C	0.982091	-0.368735	-0.113514
C48	C	1.482091	0.131265	0.386486
C49	C	0.931684	-0.325468	-0.063065
C50	C	1.431684	0.174532	0.436935
C51	C	0.931680	-0.238922	-0.063064
C52	C	1.431680	0.261078	0.436936
C53	C	0.931699	-0.674496	-0.063066
C54	C	1.431699	-0.174496	0.436934
C55	C	0.931705	-0.761048	-0.063072
C56	C	1.431705	-0.261048	0.436928
C57	C	1.032512	-0.761025	-0.163959
C58	C	1.532512	-0.261025	0.336041
C59	C	1.032508	-0.674480	-0.163958
C60	C	1.532508	-0.174480	0.336042
C61	C	0.982104	-0.631220	-0.113506
C62	C	1.482104	-0.131220	0.386494
C63	C	0.982097	-0.537376	-0.113509
C64	C	1.482097	-0.037376	0.386491
C65	C	0.982094	-0.462578	-0.113515
C66	C	1.482094	0.037422	0.386485
C67	C	1.134100	0.000030	-0.107407
C68	C	1.634100	0.500030	0.392593
C69	C	1.226395	0.000038	-0.109022
C70	C	1.726395	0.500038	0.390978
C71	C	0.988206	0.000033	0.038489
C72	C	1.488206	0.500033	0.538489
C73	C	0.986592	0.000042	0.130784
C74	C	1.486592	0.500042	0.630784
N75	N	0.982116	0.195689	-0.113512
N76	N	1.482116	0.695689	0.386488
C77	C	0.975981	0.000016	-0.265524
C78	C	1.475981	0.500016	0.234476
C79	C	0.977595	0.000011	-0.357819
C80	C	1.477595	0.500011	0.142181
C81	C	0.981333	0.074972	0.429853
C82	C	1.481333	0.574972	0.929853
C83	C	0.982861	0.074978	0.343133
C84	C	1.482861	0.574978	0.843133
C85	C	0.982857	-0.074924	0.343119
C86	C	1.482857	0.425076	0.843119
C87	C	0.981335	-0.074930	0.429838
C88	C	1.481335	0.425070	0.929838
C89	C	0.980569	0.000021	0.473202
C90	C	1.480569	0.500021	0.973202
C91	C	0.983619	0.000032	0.299763
C92	C	1.483619	0.500032	0.799763
C93	C	0.985275	0.000038	0.205737
C94	C	1.485275	0.500038	0.705737
C95	C	0.978914	0.000016	0.567234
C96	C	1.478914	0.500016	1.067234
H97	H	0.560732	-0.135957	-0.114901
H98	H	1.060732	0.364043	0.385099
H99	H	0.403449	0.136008	-0.112133
H100	H	0.903449	0.636008	0.387867
H101	H	0.403416	-0.135949	-0.112129
H102	H	0.903416	0.364051	0.387871
H103	H	0.890650	-0.360716	-0.021989
H104	H	1.390650	0.139284	0.478011
H105	H	0.980715	-0.135967	0.465134
H106	H	1.480715	0.364033	0.965134
H107	H	0.560783	0.136013	-0.114896
H108	H	1.060783	0.636013	0.385104
F109	F	1.086127	-0.192846	-0.217651
F110	F	1.586127	0.307154	0.282349
H111	H	1.073540	-0.360671	-0.205031
H112	H	1.573540	0.139329	0.294969
H113	H	1.073556	-0.796258	-0.205037
H114	H	1.573556	-0.296258	0.294963
H115	H	0.983485	0.136011	0.307842
H116	H	1.483485	0.636011	0.807842
H117	H	0.890660	-0.796287	-0.021993
H118	H	1.390660	-0.296287	0.478007
F119	F	1.086143	-0.628418	-0.217655
F120	F	1.586143	-0.128418	0.282345
H121	H	0.890658	-0.639284	-0.021984
H122	H	1.390658	-0.139284	0.478016
F123	F	0.878038	-0.192881	-0.009369
F124	F	1.378038	0.307119	0.490631
H125	H	0.983479	-0.135947	0.307801
H126	H	1.483479	0.364053	0.807801
F127	F	0.980521	0.154741	0.476001
F128	F	1.480521	0.654741	0.976001
