data_functionalizedCrystal
_audit_creation_method	'MofGen! by Chris Wilmer'
_symmetry_space_group_name_H-M	'P1'
_symmetry_Int_Tables_number	1
_symmetry_cell_setting	triclinic
loop_
_symmetry_equiv_pos_as_xyz
  x,y,z
_cell_length_a	14.044191
_cell_length_b	15.944493
_cell_length_c	13.101039
_cell_angle_alpha	93.367629
_cell_angle_beta	86.337551
_cell_angle_gamma	88.333410
loop_
_atom_site_label
_atom_site_type_symbol
_atom_site_fract_x
_atom_site_fract_y
_atom_site_fract_z
O1	O	1.262884	0.198294	-0.085140
O2	O	0.986917	0.190980	-0.085154
O3	O	1.132466	0.072925	-0.085155
O4	O	1.117335	0.316349	-0.085139
O5	O	1.122023	0.081411	0.085275
O6	O	0.976474	0.199466	0.085276
O7	O	1.252441	0.206780	0.085290
Zn8	Zn	1.112800	0.204470	0.112343
Zn9	Zn	1.126559	0.193290	-0.112206
O10	O	1.106892	0.324835	0.085291
C11	C	0.946382	0.192023	0.000059
C12	C	0.841158	0.182479	0.000053
C13	C	0.590862	0.232718	0.000067
C14	C	0.648503	0.165045	0.000061
C15	C	0.755706	0.174748	0.000056
C16	C	0.483649	0.223017	0.000071
C17	C	1.126626	0.045827	0.000056
C18	C	1.124773	-0.047561	0.000043
C19	C	1.210445	-0.276903	0.000066
C20	C	1.169394	-0.335115	-0.083966
C21	C	1.121337	-0.218539	0.000055
C22	C	1.159077	-0.326727	0.084064
C23	C	1.118025	-0.383696	0.000071
C24	C	1.080314	-0.275525	-0.084047
C25	C	1.070006	-0.267128	0.084059
C26	C	1.028890	-0.325314	0.000006
C27	C	1.123248	-0.123397	0.000045
C28	C	1.116107	-0.478836	0.000074
C29	C	1.292977	0.205737	0.000075
C30	C	1.398201	0.215280	0.000074
C31	C	1.112732	0.351933	0.000078
C32	C	1.114586	0.445321	0.000085
N33	N	1.103416	0.212100	0.265591
N34	N	1.135949	0.185654	-0.265455
C35	C	1.090650	0.222489	0.474634
C36	C	1.148713	0.175267	0.525509
C37	C	1.141609	0.181048	0.641828
C38	C	1.097752	0.216710	0.358305
H39	H	0.617343	0.099818	-0.000016
H40	H	1.028053	-0.237447	0.155102
H41	H	1.192375	-0.349301	0.155103
H42	H	1.203757	0.130499	0.481706
N43	N	1.036281	-0.245772	-0.178258
H44	H	1.073552	-0.271150	-0.241648
H45	H	0.967934	-0.263775	-0.178459
N46	N	1.017753	0.281798	0.532647
H47	H	0.979992	0.312513	0.482491
H48	H	0.973112	0.248724	0.577168
H49	H	1.287206	-0.255530	-0.000014
H50	H	0.622024	0.297937	0.000068
H51	H	1.211378	-0.364780	-0.155007
N52	N	0.927163	-0.353469	-0.000077
H53	H	0.897527	-0.334816	-0.063586
H54	H	0.926527	-0.416760	0.000557
