data_functionalizedCrystal
_audit_creation_method	'MofGen! by Chris Wilmer'
_symmetry_space_group_name_H-M	'P1'
_symmetry_Int_Tables_number	1
_symmetry_cell_setting	triclinic
loop_
_symmetry_equiv_pos_as_xyz
  x,y,z
_cell_length_a	12.837943
_cell_length_b	9.065215
_cell_length_c	8.140239
_cell_angle_alpha	89.997785
_cell_angle_beta	89.999586
_cell_angle_gamma	89.921819
loop_
_atom_site_label
_atom_site_type_symbol
_atom_site_fract_x
_atom_site_fract_y
_atom_site_fract_z
O1	O	1.379052	0.384028	-0.136578
O2	O	1.077069	0.365057	-0.136588
O3	O	1.234304	0.160659	-0.136576
O4	O	1.221817	0.588426	-0.136590
O5	O	1.234299	0.160657	0.136651
O6	O	1.077064	0.365055	0.136639
O7	O	1.379047	0.384026	0.136649
Zn8	Zn	1.228055	0.374540	0.180025
Zn9	Zn	1.228061	0.374543	-0.179964
O10	O	1.221812	0.588424	0.136637
C11	C	1.038385	0.358648	0.000024
C12	C	0.923129	0.339534	0.000021
C13	C	1.233102	0.105525	0.000036
C14	C	1.229516	-0.058754	0.000031
C15	C	0.684326	0.569311	0.000036
C16	C	0.576032	0.551359	0.000034
C17	C	0.598244	0.285680	0.000026
C18	C	0.706538	0.303632	0.000028
C19	C	0.749575	0.445452	0.000031
C20	C	0.857872	0.463402	0.000021
C21	C	0.880082	0.197725	0.000025
C22	C	0.771787	0.179773	0.000022
C23	C	1.417730	0.390435	0.000033
C24	C	1.532987	0.409548	0.000026
C25	C	1.223014	0.643557	0.000022
C26	C	1.226600	0.807837	0.000016
N27	N	1.228058	0.374538	0.425708
N28	N	1.228066	0.374534	-0.425646
H29	H	0.892910	0.578879	0.000027
H30	H	0.563184	0.170217	0.000159
H31	H	0.933220	0.096870	0.000009
F32	F	0.730132	0.720244	0.000019
H33	H	0.522909	0.652219	0.000043
H34	H	0.736732	0.064307	0.000039
