data_functionalizedCrystal
_audit_creation_method	'MofGen! by Chris Wilmer'
_symmetry_space_group_name_H-M	'P1'
_symmetry_Int_Tables_number	1
_symmetry_cell_setting	triclinic
loop_
_symmetry_equiv_pos_as_xyz
  x,y,z
_cell_length_a	19.288840
_cell_length_b	23.532357
_cell_length_c	17.766277
_cell_angle_alpha	89.988084
_cell_angle_beta	89.983415
_cell_angle_gamma	82.977153
loop_
_atom_site_label
_atom_site_type_symbol
_atom_site_fract_x
_atom_site_fract_y
_atom_site_fract_z
O1	O	0.921130	0.070979	-0.062729
O2	O	1.421130	0.570979	0.437271
O3	O	0.718835	0.080578	-0.062704
O4	O	1.218835	0.580578	0.437296
O5	O	0.826101	-0.007143	-0.062702
O6	O	1.326101	0.492857	0.437298
O7	O	0.813864	0.158700	-0.062731
O8	O	1.313864	0.658700	0.437269
O9	O	0.826082	-0.007147	0.062487
O10	O	1.326082	0.492853	0.562487
O11	O	0.718816	0.080574	0.062484
O12	O	1.218816	0.580574	0.562484
O13	O	0.921111	0.070975	0.062460
O14	O	1.421111	0.570975	0.562460
Cu15	Cu	0.819962	0.075774	0.073903
Cu16	Cu	1.319962	0.575774	0.573903
Cu17	Cu	0.819984	0.075779	-0.074147
Cu18	Cu	1.319984	0.575779	0.425853
O19	O	0.813845	0.158696	0.062457
O20	O	1.313845	0.658696	0.562457
C21	C	0.692950	0.080269	-0.000106
C22	C	1.192950	0.580269	0.499894
C23	C	0.615848	0.079349	-0.000096
C24	C	1.115848	0.579349	0.499904
C25	C	0.579657	0.078910	-0.068338
C26	C	1.079657	0.578910	0.431662
C27	C	0.507212	0.078039	-0.068347
C28	C	1.007212	0.578039	0.431653
C29	C	0.470965	0.077596	-0.000110
C30	C	0.970965	0.577596	0.499890
C31	C	0.507165	0.078039	0.068141
C32	C	1.007165	0.578039	0.568141
C33	C	0.579607	0.078916	0.068148
C34	C	1.079607	0.578916	0.568148
C35	C	0.361744	0.042847	0.052164
C36	C	0.861744	0.542847	0.552164
C37	C	0.289304	0.041967	0.052154
C38	C	0.789304	0.541967	0.552154
C39	C	0.247530	0.074895	-0.000130
C40	C	0.747530	0.574895	0.499870
C41	C	0.278206	0.108696	-0.052416
C42	C	0.778206	0.608696	0.447584
C43	C	0.350648	0.109573	-0.052409
C44	C	0.850648	0.609573	0.447591
C45	C	0.392414	0.076646	-0.000111
C46	C	0.892414	0.576646	0.499889
C47	C	0.132786	0.073512	-0.068386
C48	C	0.632786	0.573512	0.431614
C49	C	0.060340	0.072645	-0.068392
C50	C	0.560340	0.572645	0.431608
C51	C	0.060295	0.072639	0.068098
C52	C	0.560295	0.572639	0.568098
C53	C	0.132739	0.073513	0.068102
C54	C	0.632739	0.573513	0.568102
C55	C	0.168980	0.073946	-0.000142
C56	C	0.668980	0.573946	0.499858
C57	C	0.825785	-0.028362	-0.000105
C58	C	1.325785	0.471638	0.499895
C59	C	0.824865	-0.091583	-0.000098
C60	C	1.324865	0.408417	0.499902
C61	C	0.819098	-0.483603	-0.068378
C62	C	1.319098	0.016397	0.431622
C63	C	0.818223	-0.543004	-0.068382
C64	C	1.318223	-0.043004	0.431618
O65	O	0.817756	-0.573720	-0.126418
O66	O	1.317756	-0.073720	0.373582
N67	N	0.817779	-0.572719	-0.000143
N68	N	1.317779	-0.072719	0.499857
C69	C	0.818203	-0.543028	0.068105
C70	C	1.318203	-0.043028	0.568105
O71	O	0.817744	-0.573757	0.126148
O72	O	1.317744	-0.073757	0.626148
C73	C	0.819073	-0.483628	0.068108
C74	C	1.319073	0.016372	0.568108
C75	C	0.819524	-0.453917	-0.000135
C76	C	1.319524	0.046083	0.499865
C77	C	0.819548	-0.453892	-0.136616
C78	C	1.319548	0.046108	0.363384
C79	C	0.820424	-0.394495	-0.136612
C80	C	1.320424	0.105505	0.363388
C81	C	0.820850	-0.364809	-0.068369
C82	C	1.320850	0.135191	0.431631
C83	C	0.820400	-0.394520	-0.000131
C84	C	1.320400	0.105480	0.499869
C85	C	0.819492	-0.453938	0.136356
C86	C	1.319492	0.046062	0.636356
C87	C	0.820361	-0.394533	0.136353
C88	C	1.320361	0.105467	0.636353
C89	C	0.820812	-0.364822	0.068109
C90	C	1.320812	0.135178	0.568109
C91	C	0.821702	-0.305437	0.068116
C92	C	1.321702	0.194563	0.568116
N93	N	0.822146	-0.275722	-0.000123
N94	N	1.322146	0.224278	0.499877
C95	C	0.821720	-0.305409	-0.068366
C96	C	1.321720	0.194591	0.431634
C97	C	0.816375	-0.667773	0.068093
C98	C	1.316375	-0.167773	0.568093
C99	C	0.815511	-0.727174	0.068090
C100	C	1.315511	-0.227174	0.568090
C101	C	0.815530	-0.727145	-0.068398
C102	C	1.315530	-0.227145	0.431602
C103	C	0.816399	-0.667745	-0.068394
C104	C	1.316399	-0.167745	0.431606
C105	C	0.816819	-0.638059	-0.000147
C106	C	1.316819	-0.138059	0.499853
C107	C	0.823560	-0.180671	-0.068351
C108	C	1.323560	0.319329	0.431649
C109	C	0.824439	-0.121269	-0.068341
C110	C	1.324439	0.378731	0.431659
C111	C	0.824416	-0.121302	0.068146
C112	C	1.324416	0.378698	0.568146
C113	C	0.823541	-0.180699	0.068136
C114	C	1.323541	0.319301	0.568136
C115	C	0.823111	-0.210382	-0.000119
C116	C	1.323111	0.289618	0.499881
O117	O	0.822167	-0.274684	0.126122
O118	O	1.322167	0.225316	0.626122
O119	O	0.822169	-0.274672	-0.126399
O120	O	1.322169	0.225328	0.373601
C121	C	0.946996	0.071283	-0.000140
C122	C	1.446996	0.571283	0.499860
C123	C	1.024098	0.072203	-0.000155
C124	C	1.524098	0.572203	0.499845
C125	C	0.814161	0.179915	-0.000141
C126	C	1.314161	0.679915	0.499859
C127	C	0.815081	0.243135	-0.000153
C128	C	1.315081	0.743135	0.499847
N129	N	0.819951	0.075770	0.178033
N130	N	1.319951	0.575770	0.678033
N131	N	0.820000	0.075778	-0.178278
N132	N	1.320000	0.575778	0.321722
C133	C	0.867464	0.036946	0.217421
C134	C	1.367464	0.536946	0.717421
C135	C	0.867468	0.036943	0.296223
C136	C	1.367468	0.536943	0.796223
C137	C	0.819966	0.075774	0.335634
C138	C	1.319966	0.575774	0.835634
C139	C	0.772445	0.114601	0.296236
C140	C	1.272445	0.614601	0.796236
C141	C	0.772437	0.114599	0.217436
C142	C	1.272437	0.614599	0.717436
C143	C	0.810496	0.127667	0.460463
C144	C	1.310496	0.627667	0.960463
C145	C	0.810508	0.127670	0.539262
C146	C	1.310508	0.627670	1.039262
C147	C	0.819985	0.075781	0.578680
C148	C	1.319985	0.575781	1.078680
C149	C	0.829464	0.023887	0.539289
C150	C	1.329464	0.523887	1.039289
C151	C	0.829457	0.023884	0.460489
C152	C	1.329457	0.523884	0.960489
C153	C	0.819968	0.075781	0.421079
C154	C	1.319968	0.575781	0.921079
C155	C	0.867504	0.036951	0.703514
C156	C	1.367504	0.536951	1.203514
C157	C	0.867503	0.036948	0.782317
C158	C	1.367503	0.536948	1.282317
C159	C	0.772483	0.114611	0.782329
C160	C	1.272483	0.614611	1.282329
C161	C	0.772481	0.114609	0.703527
C162	C	1.272481	0.614609	1.203527
C163	C	0.819995	0.075780	0.664124
C164	C	1.319995	0.575780	1.164124
H165	H	0.162207	0.073867	0.123672
H166	H	0.662207	0.573867	0.623672
H167	H	0.733794	0.146225	0.671455
H168	H	1.233794	0.646225	1.171455
H169	H	0.733804	0.146225	0.814417
H170	H	1.233804	0.646225	1.314417
H171	H	0.477739	0.077682	-0.123920
H172	H	0.977739	0.577682	0.376080
H173	H	0.815180	-0.751326	-0.123965
H174	H	1.315180	-0.251326	0.376035
Cl175	Cl	0.816964	-0.630400	-0.154189
Cl176	Cl	1.316964	-0.130400	0.345811
H177	H	0.264335	0.014441	0.094726
H178	H	0.764335	0.514441	0.594726
H179	H	0.837180	-0.018366	0.571382
H180	H	1.337180	0.481634	1.071382
H181	H	0.030783	0.072283	0.123657
H182	H	0.530783	0.572283	0.623657
Cl183	Cl	0.712725	0.163415	0.345779
Cl184	Cl	1.212725	0.663415	0.845779
H185	H	0.609160	0.079263	-0.123908
H186	H	1.109160	0.579263	0.376092
Cl187	Cl	0.814957	-0.764518	0.153886
Cl188	Cl	1.314957	-0.264518	0.653886
H189	H	0.395752	0.016031	0.094744
H190	H	0.895752	0.516031	0.594744
H191	H	0.802794	0.169926	0.571328
H192	H	1.302794	0.669926	1.071328
Cl193	Cl	0.818920	-0.491273	0.222154
Cl194	Cl	1.318920	0.008727	0.722154
Cl195	Cl	0.798646	0.192907	0.410917
Cl196	Cl	1.298646	0.692907	0.910917
Cl197	Cl	0.823020	-0.217977	-0.154159
Cl198	Cl	1.323020	0.282023	0.345841
Cl199	Cl	0.461597	0.077486	0.153924
Cl200	Cl	0.961597	0.577486	0.653924
H201	H	0.375620	0.137096	-0.094981
H202	H	0.875620	0.637096	0.405019
Cl203	Cl	0.820985	-0.357153	-0.222409
Cl204	Cl	1.320985	0.142847	0.277591
H205	H	0.906191	0.005332	0.671431
H206	H	1.406191	0.505332	1.171431
H207	H	0.837173	-0.018370	0.428421
H208	H	1.337173	0.481630	0.928421
Cl209	Cl	0.625108	0.079468	0.153945
Cl210	Cl	1.125108	0.579468	0.653945
H211	H	0.819199	-0.478056	-0.192191
H212	H	1.319199	0.021944	0.307809
Cl213	Cl	0.225697	0.150098	-0.118147
Cl214	Cl	0.725697	0.650098	0.381853
Cl215	Cl	0.178349	0.074063	-0.154177
Cl216	Cl	0.678349	0.574063	0.345823
Cl217	Cl	0.825008	-0.083922	-0.154139
Cl218	Cl	1.325008	0.416078	0.345861
Cl219	Cl	0.816910	-0.630461	0.153899
Cl220	Cl	1.316910	-0.130461	0.653899
H221	H	0.030873	0.072291	-0.123966
H222	H	0.530873	0.572291	0.376034
Cl223	Cl	0.820889	-0.357217	0.222156
Cl224	Cl	1.320889	0.142783	0.722156
H225	H	0.823180	-0.204891	0.123706
H226	H	1.323180	0.295109	0.623706
Cl227	Cl	0.824952	-0.083971	0.153933
Cl228	Cl	1.324952	0.416029	0.653933
H229	H	0.906151	0.005328	0.185341
H230	H	1.406151	0.505328	0.685341
Cl231	Cl	0.927234	-0.011867	0.831836
Cl232	Cl	1.427234	0.488133	1.331836
Cl233	Cl	0.927204	-0.011868	0.345747
Cl234	Cl	1.427204	0.488132	0.845747
Cl235	Cl	0.712704	0.163411	0.167916
Cl236	Cl	1.212704	0.663411	0.667916
