data_functionalizedCrystal
_audit_creation_method	'MofGen! by Chris Wilmer'
_symmetry_space_group_name_H-M	'P1'
_symmetry_Int_Tables_number	1
_symmetry_cell_setting	triclinic
loop_
_symmetry_equiv_pos_as_xyz
  x,y,z
_cell_length_a	18.050589
_cell_length_b	16.625548
_cell_length_c	16.625539
_cell_angle_alpha	90.020568
_cell_angle_beta	89.975176
_cell_angle_gamma	89.970711
loop_
_atom_site_label
_atom_site_type_symbol
_atom_site_fract_x
_atom_site_fract_y
_atom_site_fract_z
Zn1	Zn	-0.295637	-1.232648	-0.455929
Zn2	Zn	0.204363	-0.732648	0.044071
Zn3	Zn	-0.419835	-1.232538	-0.321104
Zn4	Zn	0.080165	-0.732538	0.178896
Zn5	Zn	-0.295665	-1.097810	-0.321109
Zn6	Zn	0.204335	-0.597810	0.178891
Zn7	Zn	-0.419792	-1.097767	-0.455894
Zn8	Zn	0.080208	-0.597767	0.044106
O9	O	-0.357732	-1.165191	-0.388509
O10	O	0.142268	-0.665191	0.111491
O11	O	-0.312118	-1.345466	-0.438056
O12	O	0.187882	-0.845466	0.061944
O13	O	-0.403393	-1.214638	-0.208272
O14	O	0.096607	-0.714638	0.291728
O15	O	-0.191737	-1.115761	-0.339010
O16	O	0.308263	-0.615761	0.160990
O17	O	-0.403366	-1.345385	-0.339001
O18	O	0.096634	-0.845385	0.160999
O19	O	-0.191716	-1.214826	-0.438061
O20	O	0.308284	-0.714826	0.061939
O21	O	-0.312166	-1.115654	-0.208276
O22	O	0.187834	-0.615654	0.291724
O23	O	-0.312125	-0.984972	-0.338976
O24	O	0.187875	-0.484972	0.161024
O25	O	-0.403293	-1.115687	-0.568731
O26	O	0.096707	-0.615687	-0.068731
O27	O	-0.403320	-0.984940	-0.438002
O28	O	0.096680	-0.484940	0.061998
O29	O	-0.312077	-1.214784	-0.568757
O30	O	0.187923	-0.714784	-0.068757
O31	O	-0.523754	-1.214596	-0.338968
O32	O	-0.023754	-0.714596	0.161032
O33	O	-0.523722	-1.115580	-0.437997
O34	O	-0.023722	-0.615580	0.062003
C35	C	-0.550684	-1.165093	-0.388496
C36	C	-0.050684	-0.665093	0.111504
C37	C	-0.633230	-1.165126	-0.388517
C38	C	-0.133230	-0.665126	0.111483
C39	C	-0.357722	-0.955700	-0.388487
C40	C	0.142278	-0.455700	0.111513
C41	C	-0.357735	-0.866079	-0.388496
C42	C	0.142265	-0.366079	0.111504
C43	C	-0.357677	-1.165243	-0.598818
C44	C	0.142323	-0.665243	-0.098818
C45	C	-0.357653	-1.165266	-0.688439
C46	C	0.142347	-0.665266	-0.188439
C47	C	-0.832691	-1.111334	-0.442350
C48	C	-0.332691	-0.611334	0.057650
C49	C	-0.882133	-1.091677	-0.368775
C50	C	-0.382133	-0.591677	0.131225
C51	C	-0.784360	-1.165205	-0.388528
C52	C	-0.284360	-0.665205	0.111472
C53	C	-0.882000	-1.184901	-0.462112
C54	C	-0.382000	-0.684901	0.037888
C55	C	-0.930346	-1.165280	-0.388544
C56	C	-0.430346	-0.665280	0.111456
C57	C	-0.832715	-1.145510	-0.314913
C58	C	-0.332715	-0.645510	0.185087
C59	C	-0.832578	-1.238767	-0.408300
C60	C	-0.332578	-0.738767	0.091700
C61	C	-0.881998	-1.219139	-0.334673
C62	C	-0.381998	-0.719139	0.165327
C63	C	-0.700262	-1.165160	-0.388519
C64	C	-0.200262	-0.665160	0.111481
C65	C	-1.014442	-1.165325	-0.388544
C66	C	-0.514442	-0.665325	0.111456
C67	C	-0.164027	-1.165310	-0.388540
C68	C	0.335973	-0.665310	0.111460
C69	C	-0.081481	-1.165361	-0.388553
C70	C	0.418519	-0.665361	0.111447
C71	C	-0.357743	-1.375500	-0.388532
C72	C	0.142257	-0.875500	0.111468
C73	C	-0.357748	-1.465121	-0.388542
C74	C	0.142252	-0.965121	0.111458
C75	C	-0.357740	-0.537903	-0.388531
C76	C	0.142260	-0.037903	0.111469
C77	C	-0.357736	-0.629212	-0.388518
C78	C	0.142264	-0.129212	0.111482
C79	C	-0.357738	-0.701988	-0.388513
C80	C	0.142262	-0.201988	0.111487
C81	C	-0.357734	-0.793302	-0.388502
C82	C	0.142266	-0.293302	0.111498
C83	C	-0.357570	-1.165303	-1.016615
C84	C	0.142430	-0.665303	-0.516615
C85	C	-0.357596	-1.165290	-0.925307
C86	C	0.142404	-0.665290	-0.425307
C87	C	-0.357612	-1.165285	-0.852530
C88	C	0.142388	-0.665285	-0.352530
C89	C	-0.357637	-1.165271	-0.761216
C90	C	0.142363	-0.665271	-0.261216
C91	C	-0.357734	-1.165185	-0.179018
C92	C	0.142266	-0.665185	0.320982
C93	C	-0.357548	-1.165319	-0.089398
C94	C	0.142452	-0.665319	0.410602
H95	H	-0.903916	-1.029503	-0.352066
H96	H	-0.403916	-0.529503	0.147934
C97	C	-0.886038	-1.259903	-0.196211
C98	C	-0.386038	-0.759903	0.303789
C99	C	-0.911051	-1.280681	-0.273171
C100	C	-0.411051	-0.780681	0.226829
H101	H	-0.903980	-1.297892	-0.158242
H102	H	-0.403980	-0.797892	0.341758
H103	H	-0.833421	-1.259900	-0.195568
H104	H	-0.333421	-0.759900	0.304432
H105	H	-0.903760	-1.207830	-0.182625
H106	H	-0.403760	-0.707830	0.317375
H107	H	-0.893324	-1.332752	-0.286759
H108	H	-0.393324	-0.832752	0.213241
H109	H	-0.963678	-1.280693	-0.273816
H110	H	-0.463678	-0.780693	0.226184
C111	C	-0.725603	-1.321908	-0.429918
C112	C	-0.225603	-0.821908	0.070082
C113	C	-0.803167	-1.322682	-0.430895
C114	C	-0.303167	-0.822682	0.069105
H115	H	-0.707447	-1.373715	-0.443869
H116	H	-0.207447	-0.873715	0.056131
H117	H	-0.707992	-1.283488	-0.467614
H118	H	-0.207992	-0.783488	0.032386
H119	H	-0.708769	-1.308008	-0.377603
H120	H	-0.208769	-0.808008	0.122397
H121	H	-0.820001	-1.336576	-0.483213
H122	H	-0.320001	-0.836576	0.016787
H123	H	-0.820786	-1.361114	-0.393198
H124	H	-0.320786	-0.861114	0.106802
C125	C	-0.886329	-1.150819	-0.602356
C126	C	-0.386329	-0.650819	-0.102356
C127	C	-0.911224	-1.207357	-0.546108
C128	C	-0.411224	-0.707357	-0.046108
H129	H	-0.904366	-1.164682	-0.654212
H130	H	-0.404366	-0.664682	-0.154212
H131	H	-0.904029	-1.098965	-0.587948
H132	H	-0.404029	-0.598965	-0.087948
H133	H	-0.833707	-1.150476	-0.603061
H134	H	-0.333707	-0.650476	-0.103061
H135	H	-0.963846	-1.207695	-0.545399
H136	H	-0.463846	-0.707695	-0.045399
H137	H	-0.893528	-1.259224	-0.560520
H138	H	-0.393528	-0.759224	-0.060520
H139	H	-0.811156	-1.128809	-0.252673
H140	H	-0.311156	-0.628809	0.247327
H141	H	-0.811040	-1.065710	-0.487802
H142	H	-0.311040	-0.565710	0.012198
