data_functionalizedCrystal
_audit_creation_method	'MofGen! by Chris Wilmer'
_symmetry_space_group_name_H-M	'P1'
_symmetry_Int_Tables_number	1
_symmetry_cell_setting	triclinic
loop_
_symmetry_equiv_pos_as_xyz
  x,y,z
_cell_length_a	21.395364
_cell_length_b	21.395361
_cell_length_c	21.395355
_cell_angle_alpha	90.021511
_cell_angle_beta	90.025298
_cell_angle_gamma	90.047409
loop_
_atom_site_label
_atom_site_type_symbol
_atom_site_fract_x
_atom_site_fract_y
_atom_site_fract_z
Zn1	Zn	-0.957859	0.249232	-0.354261
Zn2	Zn	-0.957762	0.353992	-0.249478
Zn3	Zn	-0.853074	0.249263	-0.249496
Zn4	Zn	-0.853043	0.354006	-0.354217
O5	O	-0.905435	0.301623	-0.301863
O6	O	-1.045524	0.263110	-0.340372
O7	O	-0.943847	0.340106	-0.161802
O8	O	-0.867028	0.161581	-0.263420
O9	O	-1.045453	0.340076	-0.263388
O10	O	-0.944013	0.161558	-0.340390
O11	O	-0.866933	0.263162	-0.161816
O12	O	-0.765392	0.263176	-0.263377
O13	O	-0.866975	0.340101	-0.441901
O14	O	-0.765370	0.340131	-0.340315
O15	O	-0.943983	0.263124	-0.441933
O16	O	-0.943817	0.441672	-0.263346
O17	O	-0.866881	0.441682	-0.340297
C18	C	-0.742647	0.301659	-0.301843
C19	C	-0.673006	0.301689	-0.301850
C20	C	-0.640352	0.261679	-0.341997
C21	C	-0.574917	0.261664	-0.341998
C22	C	-0.542137	0.301671	-0.301859
C23	C	-0.574799	0.341683	-0.261705
C24	C	-0.640233	0.341692	-0.261700
C25	C	-0.438413	0.358099	-0.296818
C26	C	-0.372980	0.358090	-0.296827
C27	C	-0.340317	0.301642	-0.301871
C28	C	-0.373094	0.245200	-0.306919
C29	C	-0.438528	0.245210	-0.306914
C30	C	-0.471185	0.301665	-0.301860
C31	C	-0.236711	0.261613	-0.342021
C32	C	-0.171274	0.261597	-0.342019
C33	C	-0.171157	0.341622	-0.261728
C34	C	-0.236593	0.341632	-0.261728
C35	C	-0.269365	0.301629	-0.301878
C36	C	-0.905352	0.464411	-0.301828
C37	C	-0.905374	0.534052	-0.301834
C38	C	-0.905487	0.301610	-0.465286
C39	C	-0.905509	0.301605	-0.534928
C40	C	-0.068858	0.301596	-0.301880
C41	C	-0.138499	0.301604	-0.301879
C42	C	-0.905535	0.138200	-0.301912
C43	C	-0.905577	0.068558	-0.301932
C44	C	-0.945470	0.566739	-0.261807
C45	C	-0.945499	0.632174	-0.261821
C46	C	-0.905421	0.664920	-0.301856
C47	C	-0.865322	0.632226	-0.341891
C48	C	-0.865298	0.566791	-0.341880
C49	C	-0.849006	0.768652	-0.306765
C50	C	-0.849029	0.834085	-0.306771
C51	C	-0.905494	0.866741	-0.301892
C52	C	-0.961938	0.833956	-0.296994
C53	C	-0.961915	0.768522	-0.296983
C54	C	-0.905442	0.735873	-0.301872
C55	C	-0.945625	0.970380	-0.261878
C56	C	-0.945655	1.035817	-0.261896
C57	C	-0.865473	1.035867	-0.341963
C58	C	-0.865448	0.970432	-0.341948
C59	C	-0.905523	0.937692	-0.301902
C60	C	-0.945605	0.261521	-0.567659
C61	C	-0.945604	0.261494	-0.633094
C62	C	-0.905514	0.301562	-0.665796
C63	C	-0.865410	0.341649	-0.633057
C64	C	-0.865407	0.341670	-0.567623
C65	C	-0.900538	0.357979	-0.769459
C66	C	-0.900545	0.357959	-0.834892
C67	C	-0.905518	0.301496	-0.867617
C68	C	-0.910497	0.245052	-0.834901
C69	C	-0.910494	0.245073	-0.769467
C70	C	-0.905512	0.301543	-0.736748
C71	C	-0.945615	0.261380	-0.971300
C72	C	-0.945610	0.261352	-1.036737
C73	C	-0.865419	0.341512	-1.036699
C74	C	-0.865421	0.341534	-0.971263
C75	C	-0.905522	0.301469	-0.938568
C76	C	-0.905419	0.301591	-0.139075
C77	C	-0.905518	0.301419	-0.069435
H78	H	-0.666819	0.374274	-0.229006
H79	H	-0.978103	0.540084	-0.229201
C80	C	-0.821195	0.530835	-0.385923
N81	N	-0.787979	0.503751	-0.419100
C82	C	-0.336931	0.420177	-0.291267
N83	N	-0.309780	0.466941	-0.287075
H84	H	-0.978152	0.658793	-0.229226
H85	H	-0.978258	0.228896	-0.541042
H86	H	-0.548106	0.374256	-0.229023
C87	C	-1.024002	0.732461	-0.291595
N88	N	-1.070767	0.705300	-0.287537
H89	H	-0.803022	0.742070	-0.310740
H90	H	-0.914547	0.199115	-0.742833
C91	C	-0.821314	0.385633	-0.935258
N92	N	-0.788088	0.418848	-0.908139
H93	H	-0.144469	0.374196	-0.229047
C94	C	-0.915966	0.182938	-0.870894
N95	N	-0.920086	0.136155	-0.898007
C96	C	-0.895067	0.420048	-0.870872
N97	N	-0.890939	0.466815	-0.897972
H98	H	-0.978265	0.228753	-0.944679
C99	C	-0.989719	0.217401	-0.669105
N100	N	-1.022948	0.184192	-0.696227
C101	C	-1.024056	0.869873	-0.291632
N102	N	-1.070841	0.896928	-0.287594
C103	C	-0.272513	0.385652	-0.217568
N104	N	-0.299568	0.418809	-0.184303
H105	H	-0.832691	0.658892	-0.374489
H106	H	-0.978260	0.228707	-1.063386
H107	H	-0.978310	1.062429	-0.229303
C108	C	-0.989718	0.934365	-0.217836
N109	N	-1.022931	0.907239	-0.184666
H110	H	-0.465213	0.199253	-0.311022
H111	H	-0.346501	0.199235	-0.311026
C112	C	-0.895079	0.420098	-0.733467
N113	N	-0.890972	0.466884	-0.706359
C114	C	-0.821319	0.385588	-1.072667
N115	N	-0.788101	0.418787	-1.099762
C116	C	-0.821387	1.071884	-0.386004
N117	N	-0.788182	1.099015	-0.419177
C118	C	-0.272763	0.217603	-0.386181
N119	N	-0.299916	0.184453	-0.419441
H120	H	-0.832766	0.374270	-0.659687
H121	H	-0.803068	0.860773	-0.310753
H122	H	-0.832753	0.374310	-0.540974
C123	C	-0.821351	0.934475	-0.385995
N124	N	-0.788143	0.907392	-0.419180
H125	H	-0.465002	0.404069	-0.292710
C126	C	-0.676399	0.217666	-0.386155
N127	N	-0.703550	0.184512	-0.419413
H128	H	-0.144689	0.229013	-0.374710
H129	H	-0.548325	0.229080	-0.374689
