data_functionalizedCrystal
_audit_creation_method	'MofGen! by Chris Wilmer'
_symmetry_space_group_name_H-M	'P1'
_symmetry_Int_Tables_number	1
_symmetry_cell_setting	triclinic
loop_
_symmetry_equiv_pos_as_xyz
  x,y,z
_cell_length_a	17.699083
_cell_length_b	15.072220
_cell_length_c	17.699083
_cell_angle_alpha	90.002035
_cell_angle_beta	83.283015
_cell_angle_gamma	90.006459
loop_
_atom_site_label
_atom_site_type_symbol
_atom_site_fract_x
_atom_site_fract_y
_atom_site_fract_z
O1	O	1.004085	0.073660	0.095706
O2	O	0.783707	0.073689	0.108159
O3	O	0.900122	0.073666	-0.008257
O4	O	0.887670	0.073683	0.212122
O5	O	0.900093	-0.073899	-0.008250
O6	O	0.783678	-0.073876	0.108165
O7	O	1.004056	-0.073905	0.095713
Zn8	Zn	0.893863	-0.097320	0.101940
Zn9	Zn	0.893901	0.097104	0.101931
O10	O	0.887641	-0.073882	0.212128
C11	C	0.755495	-0.000090	0.107716
C12	C	0.671477	-0.000079	0.106377
N13	N	0.893842	-0.230009	0.101945
C14	C	0.622856	-0.000074	0.174710
C15	C	0.543913	-0.000085	0.173448
C16	C	0.513592	-0.000096	0.103852
C17	C	0.562219	-0.000103	0.035513
C18	C	0.641161	-0.000098	0.036776
C19	C	0.243856	-0.000126	0.030418
C20	C	0.164908	-0.000128	0.029160
C21	C	0.146608	-0.000113	0.167090
C22	C	0.225550	-0.000108	0.168353
C23	C	0.274170	-0.000120	0.100015
C24	C	0.359769	-0.000109	0.101384
C25	C	0.427995	-0.000100	0.102481
C26	C	0.893899	-0.589210	0.101928
C27	C	0.831399	-0.551591	0.164012
C28	C	0.831542	-0.448765	0.164238
C29	C	0.893870	-0.411006	0.101937
C30	C	0.972810	-0.448306	0.119040
C31	C	0.972460	-0.551164	0.119481
C32	C	0.878163	-0.551314	0.022557
C33	C	0.876350	-0.448450	0.023090
C34	C	0.893859	-0.310293	0.101940
C35	C	0.893915	-0.689923	0.101927
C36	C	1.032268	-0.000124	0.096156
C37	C	1.116286	-0.000130	0.097494
C38	C	0.899662	-0.000117	-0.036451
C39	C	0.898323	-0.000117	-0.120469
N40	N	0.893927	0.229792	0.101920
C41	C	0.966656	-0.000127	-0.169090
C42	C	0.965394	-0.000119	-0.248033
C43	C	0.895798	-0.000107	-0.278354
C44	C	0.827459	-0.000094	-0.229727
C45	C	0.828722	-0.000096	-0.150785
C46	C	0.822364	-0.000086	-0.548090
C47	C	0.821106	-0.000087	-0.627038
C48	C	0.959036	-0.000110	-0.645338
C49	C	0.960299	-0.000111	-0.566396
C50	C	0.891961	-0.000094	-0.517776
C51	C	0.893330	-0.000101	-0.432177
C52	C	0.894427	-0.000107	-0.363951
C53	C	0.888102	-0.000097	0.240322
C54	C	0.889440	-0.000091	0.324340
H55	H	0.647537	-0.000065	0.231384
H56	H	0.250232	-0.000095	0.225025
H57	H	0.504328	-0.000080	0.229092
H58	H	0.841293	-0.577426	0.222584
C59	C	0.845095	-0.415500	0.243811
C60	C	0.855827	-0.482528	0.307348
C61	C	0.869382	-0.449263	0.386925
C62	C	0.872205	-0.348971	0.402965
C63	C	0.861473	-0.281936	0.339427
C64	C	0.847918	-0.315201	0.259850
H65	H	0.853737	-0.556776	0.295476
H66	H	0.877327	-0.498887	0.433960
H67	H	0.882239	-0.324346	0.461873
H68	H	0.863562	-0.207688	0.351299
H69	H	0.839973	-0.265577	0.212814
H70	H	1.020424	-0.423846	0.075019
H71	H	0.107012	-0.000107	0.222734
C72	C	0.528869	-0.000113	-0.041045
C73	C	0.442037	-0.000113	-0.042439
C74	C	0.408689	-0.000119	-0.118999
C75	C	0.462174	-0.000126	-0.194165
C76	C	0.549011	-0.000126	-0.192774
C77	C	0.582359	-0.000120	-0.116214
H78	H	0.402440	-0.000107	0.013206
H79	H	0.344406	-0.000118	-0.120028
H80	H	0.437488	-0.000130	-0.250839
H81	H	0.588608	-0.000132	-0.248419
H82	H	0.646642	-0.000121	-0.115185
H83	H	0.283434	-0.000137	-0.025228
H84	H	0.140225	-0.000138	-0.027517
C85	C	1.040562	-0.000141	-0.301516
C86	C	1.039180	-0.000138	-0.388350
C87	C	1.114351	-0.000162	-0.441833
C88	C	1.190906	-0.000189	-0.408483
C89	C	1.192292	-0.000192	-0.321645
C90	C	1.117120	-0.000168	-0.268161
H91	H	0.982507	-0.000118	-0.413042
H92	H	1.113325	-0.000160	-0.506117
H93	H	1.246552	-0.000207	-0.448075
H94	H	1.248964	-0.000212	-0.296953
H95	H	1.118146	-0.000171	-0.203878
H96	H	1.023330	-0.000142	-0.144409
C97	C	0.752262	-0.414689	0.150519
C98	C	0.688379	-0.481071	0.139279
C99	C	0.609094	-0.447001	0.125567
C100	C	0.593692	-0.346549	0.123095
C101	C	0.657578	-0.280162	0.134335
C102	C	0.736862	-0.314232	0.148047
H103	H	0.699778	-0.555437	0.141109
H104	H	0.561802	-0.496146	0.117246
H105	H	0.535001	-0.321329	0.112944
H106	H	0.646178	-0.205796	0.132505
H107	H	0.784154	-0.265087	0.156368
C108	C	0.751853	-0.584955	0.150464
C109	C	0.742670	-0.646777	0.082867
C110	C	0.663117	-0.680110	0.069294
C111	C	0.592746	-0.651620	0.123317
C112	C	0.601926	-0.589794	0.190917
C113	C	0.681480	-0.556462	0.204491
H114	H	0.794765	-0.667870	0.042872
H115	H	0.656321	-0.725877	0.019251
H116	H	0.533856	-0.676295	0.113269
H117	H	0.549832	-0.568701	0.230912
H118	H	0.688275	-0.510694	0.254534
H119	H	0.680748	-0.000102	-0.018868
H120	H	0.986348	-0.575143	0.177362
C121	C	0.747194	-0.000086	-0.494614
C122	C	0.670641	-0.000088	-0.527969
C123	C	0.595467	-0.000094	-0.474489
C124	C	0.596845	-0.000098	-0.387655
C125	C	0.673401	-0.000097	-0.354296
C126	C	0.748575	-0.000091	-0.407775
H127	H	0.669618	-0.000084	-0.592253
H128	H	0.538796	-0.000095	-0.499184
H129	H	0.541197	-0.000103	-0.348066
H130	H	0.674423	-0.000100	-0.290012
H131	H	0.805246	-0.000090	-0.383080
H132	H	0.821858	-0.577298	0.006074
H133	H	0.818282	-0.424072	0.010107
H134	H	1.020413	-0.576048	0.076038
H135	H	0.987034	-0.422535	0.176260
H136	H	0.770792	-0.000079	-0.254420
H137	H	0.918926	-0.422751	-0.025263
H138	H	0.923743	-0.575641	-0.023642
H139	H	1.016971	-0.000126	-0.541714
H140	H	1.014680	-0.000120	-0.684934
H141	H	0.764429	-0.000079	-0.651721
H142	H	0.773078	-0.000087	-0.111198
