data_functionalizedCrystal
_audit_creation_method	'MofGen! by Chris Wilmer'
_symmetry_space_group_name_H-M	'P1'
_symmetry_Int_Tables_number	1
_symmetry_cell_setting	triclinic
loop_
_symmetry_equiv_pos_as_xyz
  x,y,z
_cell_length_a	10.654550
_cell_length_b	10.065875
_cell_length_c	10.654550
_cell_angle_alpha	81.125229
_cell_angle_beta	84.484931
_cell_angle_gamma	98.829657
loop_
_atom_site_label
_atom_site_type_symbol
_atom_site_fract_x
_atom_site_fract_y
_atom_site_fract_z
O1	O	1.686040	0.113390	0.158115
O2	O	1.320565	0.113415	0.174917
O3	O	1.511704	0.113393	-0.016222
O4	O	1.494901	0.113412	0.349254
O5	O	1.475258	-0.113591	0.020373
O6	O	1.284119	-0.113570	0.211512
O7	O	1.649593	-0.113595	0.194710
Zn8	Zn	1.461069	-0.149621	0.208921
Zn9	Zn	1.509089	0.149441	0.160706
O10	O	1.458454	-0.113573	0.385849
C11	C	1.255544	-0.000074	0.191980
C12	C	1.116103	-0.000065	0.188287
N13	N	1.428306	-0.353723	0.241827
C14	C	1.036617	-0.000063	0.300828
C15	C	0.905593	-0.000087	0.297355
C16	C	0.933552	-0.000109	0.068789
C17	C	1.064573	-0.000095	0.072265
C18	C	1.497682	-0.421509	0.172146
C19	C	1.472476	-0.578674	0.197481
C20	C	1.714614	-0.000102	0.177646
C21	C	1.854058	-0.000103	0.181338
C22	C	1.492247	-0.000098	-0.044722
C23	C	1.488555	-0.000096	-0.184166
N24	N	1.541862	0.353543	0.127791
C25	C	1.601096	-0.000103	-0.263650
C26	C	1.597622	-0.000086	-0.394674
C27	C	1.369057	-0.000061	-0.366715
C28	C	1.372533	-0.000068	-0.235695
C29	C	1.477912	-0.000078	0.414349
C30	C	1.481605	-0.000072	0.553791
H31	H	1.078567	-0.000049	0.395302
H32	H	1.280884	-0.000058	-0.170976
Br33	Br	0.863611	-0.000144	-0.088662
H34	H	1.689264	-0.000089	-0.459386
Br35	Br	1.627463	-0.324323	0.041133
Br36	Br	1.758553	-0.000142	-0.193721
H37	H	1.274595	-0.000040	-0.408686
Br38	Br	1.342359	-0.675856	0.328172
Br39	Br	1.172453	-0.000114	-0.080478
Br40	Br	1.298195	-0.450910	0.372512
Br41	Br	1.672267	-0.549279	-0.002615
Br42	Br	0.797722	-0.000091	0.450098
