data_functionalizedCrystal
_audit_creation_method	'MofGen! by Chris Wilmer'
_symmetry_space_group_name_H-M	'P1'
_symmetry_Int_Tables_number	1
_symmetry_cell_setting	triclinic
loop_
_symmetry_equiv_pos_as_xyz
  x,y,z
_cell_length_a	19.805405
_cell_length_b	19.805407
_cell_length_c	19.805399
_cell_angle_alpha	89.980803
_cell_angle_beta	90.029301
_cell_angle_gamma	89.977440
loop_
_atom_site_label
_atom_site_type_symbol
_atom_site_fract_x
_atom_site_fract_y
_atom_site_fract_z
Zn1	Zn	-0.269548	-1.034736	0.382705
Zn2	Zn	-0.019548	-0.784736	0.632705
Zn3	Zn	0.230452	-0.534736	0.882705
Zn4	Zn	0.480452	-0.284736	1.132705
Zn5	Zn	-0.382737	-1.034650	0.269513
Zn6	Zn	-0.132737	-0.784650	0.519513
Zn7	Zn	0.117263	-0.534650	0.769513
Zn8	Zn	0.367263	-0.284650	1.019513
Zn9	Zn	-0.269559	-0.921550	0.269530
Zn10	Zn	-0.019559	-0.671550	0.519530
Zn11	Zn	0.230441	-0.421550	0.769530
Zn12	Zn	0.480441	-0.171550	1.019530
Zn13	Zn	-0.382693	-0.921514	0.382661
Zn14	Zn	-0.132693	-0.671514	0.632661
Zn15	Zn	0.117307	-0.421514	0.882661
Zn16	Zn	0.367307	-0.171514	1.132661
O17	O	-0.326134	-0.978113	0.326102
O18	O	-0.076134	-0.728113	0.576102
O19	O	0.173866	-0.478113	0.826102
O20	O	0.423866	-0.228113	1.076102
O21	O	-0.284577	-1.129441	0.367701
O22	O	-0.034577	-0.879441	0.617701
O23	O	0.215423	-0.629441	0.867701
O24	O	0.465423	-0.379441	1.117701
O25	O	-0.367746	-1.019627	0.174799
O26	O	-0.117746	-0.769627	0.424799
O27	O	0.132254	-0.519627	0.674799
O28	O	0.382254	-0.269627	0.924799
O29	O	-0.174841	-0.936615	0.284569
O30	O	0.075159	-0.686615	0.534569
O31	O	0.325159	-0.436615	0.784569
O32	O	0.575159	-0.186615	1.034569
O33	O	-0.367736	-1.129378	0.284540
O34	O	-0.117736	-0.879378	0.534540
O35	O	0.132264	-0.629378	0.784540
O36	O	0.382264	-0.379378	1.034540
O37	O	-0.174833	-1.019772	0.367717
O38	O	0.075167	-0.769772	0.617717
O39	O	0.325167	-0.519772	0.867717
O40	O	0.575167	-0.269772	1.117717
O41	O	-0.284596	-0.936533	0.174811
O42	O	-0.034596	-0.686533	0.424811
O43	O	0.215404	-0.436533	0.674811
O44	O	0.465404	-0.186533	0.924811
O45	O	-0.284553	-0.826829	0.284526
O46	O	-0.034553	-0.576829	0.534526
O47	O	0.215447	-0.326829	0.784526
O48	O	0.465447	-0.076829	1.034526
O49	O	-0.367661	-0.936553	0.477383
O50	O	-0.117661	-0.686553	0.727383
O51	O	0.132339	-0.436553	0.977383
O52	O	0.382339	-0.186553	1.227383
O53	O	-0.367672	-0.826802	0.367642
O54	O	-0.117672	-0.576802	0.617642
O55	O	0.132328	-0.326802	0.867642
O56	O	0.382328	-0.076802	1.117642
O57	O	-0.284534	-1.019737	0.477415
O58	O	-0.034534	-0.769737	0.727415
O59	O	0.215466	-0.519737	0.977415
O60	O	0.465466	-0.269737	1.227415
O61	O	-0.477448	-1.019592	0.284497
O62	O	-0.227448	-0.769592	0.534497
O63	O	0.022552	-0.519592	0.784497
O64	O	0.272552	-0.269592	1.034497
O65	O	-0.477416	-0.936471	0.367626
O66	O	-0.227416	-0.686471	0.617626
O67	O	0.022584	-0.436471	0.867626
O68	O	0.272584	-0.186471	1.117626
C69	C	-0.326110	-0.802257	0.326081
C70	C	-0.076110	-0.552257	0.576081
C71	C	0.173890	-0.302257	0.826081
C72	C	0.423890	-0.052257	1.076081
C73	C	-0.326115	-0.727025	0.326089
C74	C	-0.076115	-0.477025	0.576089
C75	C	0.173885	-0.227025	0.826089
C76	C	0.423885	0.022975	1.076089
C77	C	-0.282890	-0.691714	0.369456
C78	C	-0.032890	-0.441714	0.619456
C79	C	0.217110	-0.191714	0.869456
C80	C	0.467110	0.058286	1.119456
C81	C	-0.282892	-0.621025	0.369457
C82	C	-0.032892	-0.371025	0.619457
C83	C	0.217108	-0.121025	0.869457
C84	C	0.467108	0.128975	1.119457
C85	C	-0.326124	-0.585649	0.326093
C86	C	-0.076124	-0.335649	0.576093
C87	C	0.173876	-0.085649	0.826093
C88	C	0.423876	0.164351	1.076093
C89	C	-0.369350	-0.620965	0.282721
C90	C	-0.119350	-0.370965	0.532721
C91	C	0.130650	-0.120965	0.782721
C92	C	0.380650	0.129035	1.032721
C93	C	-0.369344	-0.691652	0.282718
C94	C	-0.119344	-0.441652	0.532718
C95	C	0.130656	-0.191652	0.782718
C96	C	0.380656	0.058348	1.032718
C97	C	-0.369375	-0.335892	0.282735
C98	C	-0.119375	-0.085892	0.532735
C99	C	0.130625	0.164108	0.782735
C100	C	0.380625	0.414108	1.032735
C101	C	-0.369379	-0.265199	0.282744
C102	C	-0.119379	-0.015199	0.532744
C103	C	0.130621	0.234801	0.782744
C104	C	0.380621	0.484801	1.032744
C105	C	-0.282923	-0.265265	0.369474
C106	C	-0.032923	-0.015265	0.619474
C107	C	0.217077	0.234735	0.869474
C108	C	0.467077	0.484735	1.119474
C109	C	-0.282917	-0.335952	0.369470
C110	C	-0.032917	-0.085952	0.619470
C111	C	0.217083	0.164048	0.869470
C112	C	0.467083	0.414048	1.119470
C113	C	-0.326141	-0.371262	0.326096
C114	C	-0.076141	-0.121262	0.576096
C115	C	0.173859	0.128738	0.826096
C116	C	0.423859	0.378738	1.076096
C117	C	-0.326137	-0.447910	0.326095
C118	C	-0.076137	-0.197910	0.576095
C119	C	0.173863	0.052090	0.826095
C120	C	0.423863	0.302090	1.076095
C121	C	-0.326131	-0.509002	0.326098
C122	C	-0.076131	-0.259002	0.576098
C123	C	0.173869	-0.009002	0.826098
C124	C	0.423869	0.240998	1.076098
C125	C	-0.501991	-0.978036	0.326069
C126	C	-0.251991	-0.728036	0.576069
C127	C	-0.001991	-0.478036	0.826069
C128	C	0.248009	-0.228036	1.076069
C129	C	-0.577222	-0.978066	0.326078
C130	C	-0.327222	-0.728066	0.576078
C131	C	-0.077222	-0.478066	0.826078
C132	C	0.172778	-0.228066	1.076078
C133	C	-0.612561	-1.021389	0.282838
C134	C	-0.362561	-0.771389	0.532838
C135	C	-0.112561	-0.521389	0.782838
C136	C	0.137439	-0.271389	1.032838
C137	C	-0.683249	-1.021418	0.282853
C138	C	-0.433249	-0.771418	0.532853
C139	C	-0.183249	-0.521418	0.782853
C140	C	0.066751	-0.271418	1.032853
C141	C	-0.718598	-0.978119	0.326105
C142	C	-0.468598	-0.728119	0.576105
C143	C	-0.218598	-0.478119	0.826105
C144	C	0.031402	-0.228119	1.076105
C145	C	-0.683255	-0.934794	0.369350
C146	C	-0.433255	-0.684794	0.619350
C147	C	-0.183255	-0.434794	0.869350
C148	C	0.066745	-0.184794	1.119350
C149	C	-0.612568	-0.934769	0.369338
C150	C	-0.362568	-0.684769	0.619338
C151	C	-0.112568	-0.434769	0.869338
C152	C	0.137432	-0.184769	1.119338
C153	C	-0.968328	-0.934894	0.369400
C154	C	-0.718328	-0.684894	0.619400
C155	C	-0.468328	-0.434894	0.869400
C156	C	-0.218328	-0.184894	1.119400
C157	C	-1.039020	-0.934921	0.369407
C158	C	-0.789020	-0.684921	0.619407
C159	C	-0.539020	-0.434921	0.869407
C160	C	-0.289020	-0.184921	1.119407
C161	C	-1.039010	-1.021542	0.282915
C162	C	-0.789010	-0.771542	0.532915
C163	C	-0.539010	-0.521542	0.782915
C164	C	-0.289010	-0.271542	1.032915
C165	C	-0.968322	-1.021517	0.282903
C166	C	-0.718322	-0.771517	0.532903
C167	C	-0.468322	-0.521517	0.782903
C168	C	-0.218322	-0.271517	1.032903
C169	C	-0.932985	-0.978195	0.326150
C170	C	-0.682985	-0.728195	0.576150
C171	C	-0.432985	-0.478195	0.826150
C172	C	-0.182985	-0.228195	1.076150
C173	C	-0.856337	-0.978165	0.326134
C174	C	-0.606337	-0.728165	0.576134
C175	C	-0.356337	-0.478165	0.826134
C176	C	-0.106337	-0.228165	1.076134
C177	C	-0.795245	-0.978145	0.326118
C178	C	-0.545245	-0.728145	0.576118
C179	C	-0.295245	-0.478145	0.826118
C180	C	-0.045245	-0.228145	1.076118
C181	C	-0.149592	-0.978207	0.326150
C182	C	0.100408	-0.728207	0.576150
C183	C	0.350408	-0.478207	0.826150
C184	C	0.600408	-0.228207	1.076150
C185	C	-0.074360	-0.978248	0.326170
C186	C	0.175640	-0.728248	0.576170
C187	C	0.425640	-0.478248	0.826170
C188	C	0.675640	-0.228248	1.076170
C189	C	-0.326092	-0.978151	0.502645
C190	C	-0.076092	-0.728151	0.752645
C191	C	0.173908	-0.478151	1.002645
C192	C	0.423908	-0.228151	1.252645
C193	C	-0.326074	-0.978167	0.577877
C194	C	-0.076074	-0.728167	0.827877
C195	C	0.173926	-0.478167	1.077877
C196	C	0.423926	-0.228167	1.327877
C197	C	-0.326155	-0.154655	0.326117
C198	C	-0.076155	0.095345	0.576117
C199	C	0.173845	0.345345	0.826117
C200	C	0.423845	0.595345	1.076117
C201	C	-0.326150	-0.229887	0.326108
C202	C	-0.076150	0.020113	0.576108
C203	C	0.173850	0.270113	0.826108
C204	C	0.423850	0.520113	1.076108
C205	C	-0.326128	-0.978114	0.150246
C206	C	-0.076128	-0.728114	0.400246
C207	C	0.173872	-0.478114	0.650246
C208	C	0.423872	-0.228114	0.900246
C209	C	-0.325956	-0.978229	0.075015
C210	C	-0.075956	-0.728229	0.325015
C211	C	0.174044	-0.478229	0.575015
C212	C	0.424044	-0.228229	0.825015
C213	C	-0.282787	-1.021481	0.613239
C214	C	-0.032787	-0.771481	0.863239
C215	C	0.217213	-0.521481	1.113239
C216	C	0.467213	-0.271481	1.363239
C217	C	-0.282768	-1.021488	0.683928
C218	C	-0.032768	-0.771488	0.933928
C219	C	0.217232	-0.521488	1.183928
C220	C	0.467232	-0.271488	1.433928
C221	C	-0.326038	-0.978184	0.719253
C222	C	-0.076038	-0.728184	0.969253
C223	C	0.173962	-0.478184	1.219253
C224	C	0.423962	-0.228184	1.469253
C225	C	-0.369327	-0.934864	0.683886
C226	C	-0.119327	-0.684864	0.933886
C227	C	0.130673	-0.434864	1.183886
C228	C	0.380673	-0.184864	1.433886
C229	C	-0.369342	-0.934854	0.613198
C230	C	-0.119342	-0.684854	0.863198
C231	C	0.130658	-0.434854	1.113198
C232	C	0.380658	-0.184854	1.363198
C233	C	-0.369264	-0.934902	0.968959
C234	C	-0.119264	-0.684902	1.218959
C235	C	0.130736	-0.434902	1.468959
C236	C	0.380736	-0.184902	1.718959
C237	C	-0.369246	-0.934917	1.039651
C238	C	-0.119246	-0.684917	1.289651
C239	C	0.130754	-0.434917	1.539651
C240	C	0.380754	-0.184917	1.789651
C241	C	-0.282689	-1.021536	1.039688
C242	C	-0.032689	-0.771536	1.289688
C243	C	0.217311	-0.521536	1.539688
C244	C	0.467311	-0.271536	1.789688
C245	C	-0.282705	-1.021527	0.969001
C246	C	-0.032705	-0.771527	1.219001
C247	C	0.217295	-0.521527	1.469001
C248	C	0.467295	-0.271527	1.719001
C249	C	-0.325990	-0.978205	0.933640
C250	C	-0.075990	-0.728205	1.183640
C251	C	0.174010	-0.478205	1.433640
C252	C	0.424010	-0.228205	1.683640
C253	C	-0.326010	-0.978197	0.856992
C254	C	-0.076010	-0.728197	1.106992
C255	C	0.173990	-0.478197	1.356992
C256	C	0.423990	-0.228197	1.606992
C257	C	-0.326022	-0.978194	0.795900
C258	C	-0.076022	-0.728194	1.045900
C259	C	0.173978	-0.478194	1.295900
C260	C	0.423978	-0.228194	1.545900
H261	H	-0.247696	-0.592278	0.404772
H262	H	0.002304	-0.342278	0.654772
H263	H	0.252304	-0.092278	0.904772
H264	H	0.502304	0.157722	1.154772
C265	C	-0.235361	-0.374862	0.417168
C266	C	0.014639	-0.124862	0.667168
C267	C	0.264639	0.125138	0.917168
C268	C	0.514639	0.375138	1.167168
H269	H	-0.209613	-0.343708	0.442992
H270	H	0.040387	-0.093708	0.692992
H271	H	0.290387	0.156292	0.942992
H272	H	0.540387	0.406292	1.192992
H273	H	-0.261286	-0.402443	0.446610
H274	H	-0.011286	-0.152443	0.696610
H275	H	0.238714	0.097557	0.946610
H276	H	0.488714	0.347557	1.196610
H277	H	-0.205832	-0.402434	0.391321
H278	H	0.044168	-0.152434	0.641321
H279	H	0.294168	0.097566	0.891321
H280	H	0.544168	0.347566	1.141321
C281	C	-0.573683	-1.069019	0.235261
C282	C	-0.323683	-0.819019	0.485261
C283	C	-0.073683	-0.569019	0.735261
C284	C	0.176317	-0.319019	0.985261
H285	H	-0.604856	-1.094829	0.209516
H286	H	-0.354856	-0.844829	0.459516
H287	H	-0.104856	-0.594829	0.709516
H288	H	0.145144	-0.344829	0.959516
H289	H	-0.546146	-1.043138	0.205740
H290	H	-0.296146	-0.793138	0.455740
H291	H	-0.046146	-0.543138	0.705740
H292	H	0.203854	-0.293138	0.955740
H293	H	-0.546070	-1.098487	0.261181
H294	H	-0.296070	-0.848487	0.511181
H295	H	-0.046070	-0.598487	0.761181
H296	H	0.203930	-0.348487	1.011181
C297	C	-0.722119	-1.069070	0.235286
C298	C	-0.472119	-0.819070	0.485286
C299	C	-0.222119	-0.569070	0.735286
C300	C	0.027881	-0.319070	0.985286
H301	H	-0.690942	-1.094846	0.209519
H302	H	-0.440942	-0.844846	0.459519
H303	H	-0.190942	-0.594846	0.709519
H304	H	0.059058	-0.344846	0.959519
H305	H	-0.749654	-1.098558	0.261206
H306	H	-0.499654	-0.848558	0.511206
H307	H	-0.249654	-0.598558	0.761206
H308	H	0.000346	-0.348558	1.011206
H309	H	-0.749733	-1.043199	0.205775
H310	H	-0.499733	-0.793199	0.455775
H311	H	-0.249733	-0.543199	0.705775
H312	H	0.000267	-0.293199	0.955775
C313	C	-0.416897	-0.730494	0.235019
C314	C	-0.166897	-0.480494	0.485019
C315	C	0.083103	-0.230494	0.735019
C316	C	0.333103	0.019506	0.985019
H317	H	-0.442651	-0.699303	0.209199
H318	H	-0.192651	-0.449303	0.459199
H319	H	0.057349	-0.199303	0.709199
H320	H	0.307349	0.050697	0.959199
H321	H	-0.390968	-0.758068	0.205573
H322	H	-0.140968	-0.508068	0.455573
H323	H	0.109032	-0.258068	0.705573
H324	H	0.359032	-0.008068	0.955573
H325	H	-0.446422	-0.758068	0.260863
H326	H	-0.196422	-0.508068	0.510863
H327	H	0.053578	-0.258068	0.760863
H328	H	0.303578	-0.008068	1.010863
C329	C	-1.077882	-1.069201	0.235348
C330	C	-0.827882	-0.819201	0.485348
C331	C	-0.577882	-0.569201	0.735348
C332	C	-0.327882	-0.319201	0.985348
H333	H	-1.125044	-1.063022	0.241552
H334	H	-0.875044	-0.813022	0.491552
H335	H	-0.625044	-0.563022	0.741552
H336	H	-0.375044	-0.313022	0.991552
H337	H	-1.066335	-1.059316	0.189861
H338	H	-0.816335	-0.809316	0.439861
H339	H	-0.566335	-0.559316	0.689861
H340	H	-0.316335	-0.309316	0.939861
H341	H	-1.066255	-1.114671	0.245296
H342	H	-0.816255	-0.864671	0.495296
H343	H	-0.566255	-0.614671	0.745296
H344	H	-0.316255	-0.364671	0.995296
C345	C	-0.235338	-0.730624	0.417156
C346	C	0.014662	-0.480624	0.667156
C347	C	0.264662	-0.230624	0.917156
C348	C	0.514662	0.019376	1.167156
H349	H	-0.241529	-0.777781	0.410949
H350	H	0.008471	-0.527781	0.660949
H351	H	0.258471	-0.277781	0.910949
H352	H	0.508471	-0.027781	1.160949
H353	H	-0.189849	-0.719051	0.407336
H354	H	0.060151	-0.469051	0.657336
H355	H	0.310151	-0.219051	0.907336
H356	H	0.560151	0.030949	1.157336
H357	H	-0.245310	-0.719053	0.462618
H358	H	0.004690	-0.469053	0.712618
H359	H	0.254690	-0.219053	0.962618
H360	H	0.504690	0.030947	1.212618
H361	H	-0.247471	-1.056792	0.940243
H362	H	0.002529	-0.806792	1.190243
H363	H	0.252529	-0.556792	1.440243
H364	H	0.502529	-0.306792	1.690243
H365	H	-0.247441	-1.056809	1.068488
H366	H	0.002559	-0.806809	1.318488
H367	H	0.252559	-0.556809	1.568488
H368	H	0.502559	-0.306809	1.818488
C369	C	-0.235171	-1.069150	0.722826
C370	C	0.014829	-0.819150	0.972826
C371	C	0.264829	-0.569150	1.222826
C372	C	0.514829	-0.319150	1.472826
H373	H	-0.241356	-1.062954	0.769984
H374	H	0.008644	-0.812954	1.019984
H375	H	0.258644	-0.562954	1.269984
H376	H	0.508644	-0.312954	1.519984
H377	H	-0.245102	-1.114615	0.711241
H378	H	0.004898	-0.864615	0.961241
H379	H	0.254898	-0.614615	1.211241
H380	H	0.504898	-0.364615	1.461241
H381	H	-0.189687	-1.059280	0.711258
H382	H	0.060313	-0.809280	0.961258
H383	H	0.310313	-0.559280	1.211258
H384	H	0.560313	-0.309280	1.461258
H385	H	-0.404571	-0.364632	0.247418
H386	H	-0.154571	-0.114632	0.497418
H387	H	0.095429	0.135368	0.747418
H388	H	0.345429	0.385368	0.997418
H389	H	-0.247553	-1.056747	0.584482
H390	H	0.002447	-0.806747	0.834482
H391	H	0.252447	-0.556747	1.084482
H392	H	0.502447	-0.306747	1.334482
H393	H	-0.712041	-0.899543	0.404569
H394	H	-0.462041	-0.649543	0.654569
H395	H	-0.212041	-0.399543	0.904569
H396	H	0.037959	-0.149543	1.154569
H397	H	-0.939544	-1.056773	0.247681
H398	H	-0.689544	-0.806773	0.497681
H399	H	-0.439544	-0.556773	0.747681
H400	H	-0.189544	-0.306773	0.997681
C401	C	-0.416925	-0.887228	0.722738
C402	C	-0.166925	-0.637228	0.972738
C403	C	0.083075	-0.387228	1.222738
C404	C	0.333075	-0.137228	1.472738
H405	H	-0.442703	-0.861426	0.691552
H406	H	-0.192703	-0.611426	0.941552
H407	H	0.057297	-0.361426	1.191552
H408	H	0.307297	-0.111426	1.441552
H409	H	-0.446414	-0.913108	0.750309
H410	H	-0.196414	-0.663108	1.000309
H411	H	0.053586	-0.413108	1.250309
H412	H	0.303586	-0.163108	1.500309
H413	H	-0.391019	-0.857753	0.750315
H414	H	-0.141019	-0.607753	1.000315
H415	H	0.108981	-0.357753	1.250315
H416	H	0.358981	-0.107753	1.500315
C417	C	-0.235370	-0.226422	0.417179
C418	C	0.014630	0.023578	0.667179
C419	C	0.264630	0.273578	0.917179
C420	C	0.514630	0.523578	1.167179
H421	H	-0.241557	-0.179257	0.410968
H422	H	0.008443	0.070743	0.660968
H423	H	0.258443	0.320743	0.910968
H424	H	0.508443	0.570743	1.160968
H425	H	-0.245335	-0.238021	0.462637
H426	H	0.004665	0.011979	0.712637
H427	H	0.254665	0.261979	0.962637
H428	H	0.504665	0.511979	1.212637
H429	H	-0.189877	-0.238020	0.407352
H430	H	0.060123	0.011980	0.657352
H431	H	0.310123	0.261980	0.907352
H432	H	0.560123	0.511980	1.157352
C433	C	-1.077903	-0.887296	0.416992
C434	C	-0.827903	-0.637296	0.666992
C435	C	-0.577903	-0.387296	0.916992
C436	C	-0.327903	-0.137296	1.166992
H437	H	-1.046734	-0.861496	0.442752
H438	H	-0.796734	-0.611496	0.692752
H439	H	-0.546734	-0.361496	0.942752
H440	H	-0.296734	-0.111496	1.192752
H441	H	-1.105518	-0.857828	0.391081
H442	H	-0.855518	-0.607828	0.641081
H443	H	-0.605518	-0.357828	0.891081
H444	H	-0.355518	-0.107828	1.141081
H445	H	-1.105438	-0.913190	0.446509
H446	H	-0.855438	-0.663190	0.696509
H447	H	-0.605438	-0.413190	0.946509
H448	H	-0.355438	-0.163190	1.196509
H449	H	-0.583796	-0.899492	0.404549
H450	H	-0.333796	-0.649492	0.654549
H451	H	-0.083796	-0.399492	0.904549
H452	H	0.166204	-0.149492	1.154549
H453	H	-0.939562	-0.899618	0.404612
H454	H	-0.689562	-0.649618	0.654612
H455	H	-0.439562	-0.399618	0.904612
H456	H	-0.189562	-0.149618	1.154612
H457	H	-0.404547	-0.592156	0.247411
H458	H	-0.154547	-0.342156	0.497411
H459	H	0.095453	-0.092156	0.747411
H460	H	0.345453	0.157844	0.997411
C461	C	-0.416841	-0.887275	1.078508
C462	C	-0.166841	-0.637275	1.328508
C463	C	0.083159	-0.387275	1.578508
C464	C	0.333159	-0.137275	1.828508
H465	H	-0.442618	-0.861467	1.047325
H466	H	-0.192618	-0.611467	1.297325
H467	H	0.057382	-0.361467	1.547325
H468	H	0.307382	-0.111467	1.797325
H469	H	-0.446331	-0.913152	1.106079
H470	H	-0.196331	-0.663152	1.356079
H471	H	0.053669	-0.413152	1.606079
H472	H	0.303669	-0.163152	1.856079
H473	H	-0.390929	-0.857804	1.106084
H474	H	-0.140929	-0.607804	1.356084
H475	H	0.109071	-0.357804	1.606084
H476	H	0.359071	-0.107804	1.856084
C477	C	-0.416862	-0.887237	0.930071
C478	C	-0.166862	-0.637237	1.180071
C479	C	0.083138	-0.387237	1.430071
C480	C	0.333138	-0.137237	1.680071
H481	H	-0.442628	-0.861449	0.961235
H482	H	-0.192628	-0.611449	1.211235
H483	H	0.057372	-0.361449	1.461235
H484	H	0.307372	-0.111449	1.711235
H485	H	-0.390957	-0.857760	0.902508
H486	H	-0.140957	-0.607760	1.152508
H487	H	0.109043	-0.357760	1.402508
H488	H	0.359043	-0.107760	1.652508
H489	H	-0.446372	-0.913094	0.902483
H490	H	-0.196372	-0.663094	1.152483
H491	H	0.053628	-0.413094	1.402483
H492	H	0.303628	-0.163094	1.652483
C493	C	-0.416974	-0.887225	0.574300
C494	C	-0.166974	-0.637225	0.824300
C495	C	0.083026	-0.387225	1.074300
C496	C	0.333026	-0.137225	1.324300
H497	H	-0.442751	-0.861444	0.605461
H498	H	-0.192751	-0.611444	0.855461
H499	H	0.057249	-0.361444	1.105461
H500	H	0.307249	-0.111444	1.355461
H501	H	-0.391098	-0.857739	0.546719
H502	H	-0.141098	-0.607739	0.796719
H503	H	0.108902	-0.357739	1.046719
H504	H	0.358902	-0.107739	1.296719
H505	H	-0.446473	-0.913115	0.546730
H506	H	-0.196473	-0.663115	0.796730
H507	H	0.053527	-0.413115	1.046730
H508	H	0.303527	-0.163115	1.296730
H509	H	-0.404585	-0.236398	0.247430
H510	H	-0.154585	0.013602	0.497430
H511	H	0.095415	0.263602	0.747430
H512	H	0.345415	0.513602	0.997430
