data_functionalizedCrystal
_audit_creation_method	'MofGen! by Chris Wilmer'
_symmetry_space_group_name_H-M	'P1'
_symmetry_Int_Tables_number	1
_symmetry_cell_setting	triclinic
loop_
_symmetry_equiv_pos_as_xyz
  x,y,z
_cell_length_a	15.944551
_cell_length_b	9.730223
_cell_length_c	10.654550
_cell_angle_alpha	90.004253
_cell_angle_beta	96.008166
_cell_angle_gamma	90.001200
loop_
_atom_site_label
_atom_site_type_symbol
_atom_site_fract_x
_atom_site_fract_y
_atom_site_fract_z
O1	O	1.115460	-0.114146	-0.161966
O2	O	1.615460	0.385854	0.338034
O3	O	0.871026	-0.114180	-0.181935
O4	O	1.371026	0.385820	0.318065
O5	O	0.998863	-0.114154	0.010862
O6	O	1.498863	0.385846	0.510862
O7	O	0.987623	-0.114173	-0.354762
O8	O	1.487623	0.385827	0.145238
O9	O	0.998855	0.114426	0.010867
O10	O	1.498855	0.614426	0.510867
O11	O	0.871018	0.114400	-0.181929
O12	O	1.371018	0.614400	0.318071
O13	O	1.115452	0.114434	-0.161961
O14	O	1.615452	0.614434	0.338039
Zn15	Zn	0.993234	0.150709	-0.171944
Zn16	Zn	1.493234	0.650709	0.328056
Zn17	Zn	0.993244	-0.150455	-0.171951
Zn18	Zn	1.493244	0.349545	0.328049
O19	O	0.987615	0.114407	-0.354757
O20	O	1.487615	0.614407	0.145243
C21	C	0.839723	0.000105	-0.181103
C22	C	1.339723	0.500105	0.318897
C23	C	0.746463	0.000093	-0.178618
C24	C	1.246463	0.500093	0.321382
N25	N	0.993232	0.356245	-0.171939
N26	N	1.493232	0.856245	0.328061
N27	N	0.993252	-0.355992	-0.171947
N28	N	1.493252	0.144008	0.328053
C29	C	0.530880	0.000126	-0.053173
C30	C	1.030880	0.500126	0.446827
C31	C	0.470201	-0.112579	-0.111428
C32	C	0.970201	0.387421	0.388572
C33	C	0.575711	0.000109	-0.174122
C34	C	1.075711	0.500109	0.325878
C35	C	0.470215	0.112783	-0.111451
C36	C	0.970215	0.612783	0.388549
C37	C	0.410773	0.000131	-0.169770
C38	C	0.910773	0.500131	0.330230
C39	C	0.516260	-0.112689	-0.232410
C40	C	1.016260	0.387311	0.267590
C41	C	0.516281	0.112774	-0.232416
C42	C	1.016281	0.612774	0.267584
C43	C	0.455620	0.000042	-0.290759
C44	C	0.955620	0.500042	0.209241
C45	C	0.670728	0.000095	-0.176625
C46	C	1.170728	0.500095	0.323375
C47	C	0.315757	0.000135	-0.167276
C48	C	0.815757	0.500135	0.332724
C49	C	1.146755	0.000145	-0.162792
C50	C	1.646755	0.500145	0.337208
C51	C	1.240015	0.000149	-0.165278
C52	C	1.740015	0.500149	0.334722
C53	C	0.998034	0.000135	0.057652
C54	C	1.498034	0.500135	0.557652
C55	C	0.995565	0.000133	0.197063
C56	C	1.495565	0.500133	0.697063
C57	C	1.049858	0.428183	-0.086604
C58	C	1.549858	0.928183	0.413396
C59	C	1.049866	0.572066	-0.086605
C60	C	1.549866	1.072066	0.413395
C61	C	0.936621	0.572061	-0.257285
C62	C	1.436621	1.072061	0.242715
C63	C	0.936609	0.428180	-0.257278
C64	C	1.436609	0.928180	0.242722
C65	C	0.988444	0.000115	-0.401547
C66	C	1.488444	0.500115	0.098453
C67	C	0.990913	0.000109	-0.540958
C68	C	1.490913	0.500109	-0.040958
C69	C	1.070833	0.000143	0.277522
C70	C	1.570833	0.500143	0.777522
C71	C	1.068508	0.000126	0.408513
C72	C	1.568508	0.500126	0.908513
C73	C	0.915639	0.000095	0.378572
C74	C	1.415639	0.500095	0.878572
C75	C	0.917965	0.000102	0.247584
C76	C	1.417965	0.500102	0.747584
H77	H	0.563632	-0.000009	0.047204
H78	H	1.063632	0.499991	0.547204
Br79	Br	0.859748	0.330539	-0.373087
Br80	Br	1.359748	0.830539	0.126913
H81	H	0.449798	-0.207858	-0.060274
H82	H	0.949798	0.292142	0.439726
H83	H	0.536547	-0.208076	-0.283530
H84	H	1.036547	0.291924	0.216470
H85	H	1.095963	0.369617	-0.017115
H86	H	1.595963	0.869617	0.482885
H87	H	1.134019	0.000165	0.236393
H88	H	1.634019	0.500165	0.736393
Br89	Br	1.126714	0.669693	0.029217
Br90	Br	1.626714	1.169693	0.529217
Br91	Br	0.859779	0.669692	-0.373100
Br92	Br	1.359779	1.169692	0.126900
Br93	Br	1.170663	0.000131	0.517705
Br94	Br	1.670663	0.500131	1.017705
H95	H	0.423043	-0.000026	-0.391240
H96	H	0.923043	0.499974	0.108760
H97	H	0.856669	0.000090	0.182070
H98	H	1.356669	0.500090	0.682070
Br99	Br	0.550325	0.271587	-0.317610
Br100	Br	1.050325	0.771587	0.182390
Br101	Br	0.436237	0.271590	-0.026152
Br102	Br	0.936237	0.771590	0.473848
Br103	Br	0.810331	0.000048	0.447145
Br104	Br	1.310331	0.500048	0.947145
