data_functionalizedCrystal
_audit_creation_method	'MofGen! by Chris Wilmer'
_symmetry_space_group_name_H-M	'P1'
_symmetry_Int_Tables_number	1
_symmetry_cell_setting	triclinic
loop_
_symmetry_equiv_pos_as_xyz
  x,y,z
_cell_length_a	11.792241
_cell_length_b	14.971486
_cell_length_c	10.868271
_cell_angle_alpha	90.001624
_cell_angle_beta	90.000156
_cell_angle_gamma	83.903772
loop_
_atom_site_label
_atom_site_type_symbol
_atom_site_fract_x
_atom_site_fract_y
_atom_site_fract_z
O1	O	-1.506118	-0.122593	-0.102203
O2	O	-1.006118	0.377407	0.397797
O3	O	-1.175696	-0.135228	-0.102232
O4	O	-0.675696	0.364772	0.397768
O5	O	-1.349763	0.001254	-0.102208
O6	O	-0.849763	0.501254	0.397792
O7	O	-1.332051	-0.259075	-0.102227
O8	O	-0.832051	0.240925	0.397773
O9	O	-1.349747	0.001250	0.102436
O10	O	-0.849747	0.501250	0.602436
O11	O	-1.175680	-0.135232	0.102412
O12	O	-0.675680	0.364768	0.602412
O13	O	-1.506102	-0.122597	0.102441
O14	O	-1.006102	0.377403	0.602441
Zn15	Zn	-1.340889	-0.128915	0.134919
Zn16	Zn	-0.840889	0.371085	0.634919
Zn17	Zn	-1.340909	-0.128909	-0.134710
Zn18	Zn	-0.840909	0.371091	0.365290
O19	O	-1.332035	-0.259079	0.102417
O20	O	-0.832035	0.240921	0.602417
C21	C	-1.348963	0.034580	0.000114
C22	C	-0.848963	0.534580	0.500114
C23	C	-1.346589	0.133887	0.000112
C24	C	-0.846589	0.633887	0.500112
C25	C	-1.133402	-0.134436	0.000087
C26	C	-0.633402	0.365564	0.500087
C27	C	-1.007404	-0.132061	0.000076
C28	C	-0.507404	0.367939	0.500076
C29	C	-1.548396	-0.123389	0.000120
C30	C	-1.048396	0.376611	0.500120
C31	C	-1.674395	-0.125764	0.000122
C32	C	-1.174395	0.374236	0.500122
C33	C	-0.776720	-0.127692	0.000111
C34	C	-0.276720	0.372308	0.500111
C35	C	-0.905089	-0.130120	0.000092
C36	C	-0.405089	0.369880	0.500092
C37	C	-1.332835	-0.292405	0.000093
C38	C	-0.832835	0.207595	0.500093
C39	C	-1.335209	-0.391711	0.000086
C40	C	-0.835209	0.108289	0.500086
N41	N	-1.340883	-0.128919	0.318933
N42	N	-0.840883	0.371081	0.818933
C43	C	-1.448849	0.190702	0.000122
C44	C	-0.948849	0.690702	0.500122
C45	C	-1.446612	0.284011	0.000109
C46	C	-0.946612	0.784011	0.500109
C47	C	-1.342114	0.320502	0.000096
C48	C	-0.842114	0.820502	0.500096
C49	C	-1.239846	0.263679	0.000082
C50	C	-0.739846	0.763679	0.500082
C51	C	-1.242084	0.170372	0.000086
C52	C	-0.742084	0.670372	0.500086
C53	C	-1.235188	0.458160	0.000078
C54	C	-0.735188	0.958160	0.500078
C55	C	-1.232949	0.551473	0.000076
C56	C	-0.732949	1.051473	0.500076
C57	C	-1.439715	0.571798	0.000101
C58	C	-0.939715	1.071798	0.500101
C59	C	-1.441954	0.478492	0.000105
C60	C	-0.941954	0.978492	0.500105
C61	C	-1.339685	0.421675	0.000093
C62	C	-0.839685	0.921675	0.500093
N63	N	-1.340924	-0.128899	-0.318724
N64	N	-0.840924	0.371101	0.181276
C65	C	-1.340892	-0.128919	0.430270
C66	C	-0.840892	0.371081	0.930270
C67	C	-1.340906	-0.128911	0.569948
C68	C	-0.840906	0.371089	1.069948
H69	H	-1.533944	0.160999	0.000141
H70	H	-1.033944	0.660999	0.500141
H71	H	-1.529883	0.330267	0.000120
H72	H	-1.029883	0.830267	0.500120
C73	C	-1.129599	0.107875	0.000079
C74	C	-0.629599	0.607875	0.500079
H75	H	-1.067042	0.142970	0.000081
H76	H	-0.567042	0.642970	0.500081
H77	H	-1.126181	0.071052	-0.071285
H78	H	-0.626181	0.571052	0.428715
H79	H	-1.126168	0.071056	0.071452
H80	H	-0.626168	0.571056	0.571452
H81	H	-1.527045	0.448784	0.000125
H82	H	-1.027045	0.948784	0.500125
H83	H	-1.151910	0.411902	0.000065
H84	H	-0.651910	0.911902	0.500065
H85	H	-1.154761	0.293397	0.000064
H86	H	-0.654761	0.793397	0.500064
H87	H	-1.522986	0.618063	0.000106
H88	H	-1.022986	1.118063	0.500106
C89	C	-1.118004	0.591612	0.000033
C90	C	-0.618004	1.091612	0.500033
H91	H	-1.057417	0.544413	0.000003
H92	H	-0.557417	1.044413	0.500003
H93	H	-1.112811	0.627594	0.071389
H94	H	-0.612811	1.127594	0.571389
H95	H	-1.112863	0.627584	-0.071348
H96	H	-0.612863	1.127584	0.428652
