data_functionalizedCrystal
_audit_creation_method	'MofGen! by Chris Wilmer'
_symmetry_space_group_name_H-M	'P1'
_symmetry_Int_Tables_number	1
_symmetry_cell_setting	triclinic
loop_
_symmetry_equiv_pos_as_xyz
  x,y,z
_cell_length_a	21.395362
_cell_length_b	19.805405
_cell_length_c	21.395355
_cell_angle_alpha	90.017223
_cell_angle_beta	90.043940
_cell_angle_gamma	90.042604
loop_
_atom_site_label
_atom_site_type_symbol
_atom_site_fract_x
_atom_site_fract_y
_atom_site_fract_z
Zn1	Zn	0.957877	-0.269255	0.354591
Zn2	Zn	1.457877	0.230745	0.854591
Zn3	Zn	0.957787	-0.382425	0.249816
Zn4	Zn	1.457787	0.117575	0.749816
Zn5	Zn	0.853092	-0.269286	0.249793
Zn6	Zn	1.353092	0.230714	0.749793
Zn7	Zn	0.853068	-0.382438	0.354521
Zn8	Zn	1.353068	0.117562	0.854521
O9	O	0.905456	-0.325851	0.302180
O10	O	1.405456	0.174149	0.802180
O11	O	1.045543	-0.284248	0.340732
O12	O	1.545543	0.215752	0.840732
O13	O	0.943871	-0.367424	0.162135
O14	O	1.443871	0.132576	0.662135
O15	O	0.867039	-0.174565	0.263714
O16	O	1.367039	0.325435	0.763714
O17	O	1.045476	-0.367393	0.263754
O18	O	1.545476	0.132607	0.763754
O19	O	0.944024	-0.174542	0.340709
O20	O	1.444024	0.325458	0.840709
O21	O	0.866952	-0.284302	0.162118
O22	O	1.366952	0.215698	0.662118
O23	O	0.765411	-0.284315	0.263646
O24	O	1.265411	0.215685	0.763646
O25	O	0.866999	-0.367417	0.442208
O26	O	1.366999	0.132583	0.942208
O27	O	0.765393	-0.367448	0.340589
O28	O	1.265393	0.132552	0.840589
O29	O	0.944002	-0.284261	0.442260
O30	O	1.444002	0.215739	0.942260
O31	O	0.943848	-0.477143	0.263686
O32	O	1.443848	0.022857	0.763686
O33	O	0.866912	-0.477153	0.340612
O34	O	1.366912	0.022847	0.840612
C35	C	0.742668	-0.325887	0.302107
C36	C	1.242668	0.174113	0.802107
C37	C	0.673027	-0.325918	0.302091
C38	C	1.173027	0.174082	0.802091
C39	C	0.905384	-0.501707	0.302157
C40	C	1.405384	-0.001707	0.802157
C41	C	0.905411	-0.576939	0.302169
C42	C	1.405411	-0.076939	0.802169
C43	C	0.640321	-0.369263	0.342096
C44	C	1.140321	0.130737	0.842096
C45	C	0.574886	-0.369246	0.342124
C46	C	1.074886	0.130754	0.842124
C47	C	0.542159	-0.325892	0.302136
C48	C	1.042159	0.174108	0.802136
C49	C	0.574872	-0.282539	0.262129
C50	C	1.074872	0.217461	0.762129
C51	C	0.640306	-0.282553	0.262106
C52	C	1.140306	0.217447	0.762106
C53	C	0.438434	-0.320440	0.245731
C54	C	0.938434	0.179560	0.745731
C55	C	0.373001	-0.320431	0.245752
C56	C	0.873001	0.179569	0.745752
C57	C	0.340338	-0.325848	0.302205
C58	C	0.840338	0.174152	0.802205
C59	C	0.373116	-0.331287	0.358639
C60	C	0.873116	0.168713	0.858639
C61	C	0.438550	-0.331301	0.358616
C62	C	0.938550	0.168699	0.858616
C63	C	0.471206	-0.325873	0.302156
C64	C	0.971206	0.174127	0.802156
C65	C	0.236680	-0.369177	0.342243
C66	C	0.736680	0.130823	0.842243
C67	C	0.171243	-0.369156	0.342272
C68	C	0.671243	0.130844	0.842272
C69	C	0.171231	-0.282452	0.262272
C70	C	0.671231	0.217548	0.762272
C71	C	0.236666	-0.282470	0.262248
C72	C	0.736666	0.217530	0.762248
C73	C	0.269387	-0.325836	0.302233
C74	C	0.769387	0.174164	0.802233
C75	C	0.945474	-0.612213	0.342292
C76	C	1.445474	-0.112213	0.842292
C77	C	0.945496	-0.682901	0.342303
C78	C	1.445496	-0.182901	0.842303
C79	C	0.905459	-0.718315	0.302188
C80	C	1.405459	-0.218315	0.802188
C81	C	0.865392	-0.683036	0.262064
C82	C	1.365392	-0.183036	0.762064
C83	C	0.865367	-0.612349	0.262056
C84	C	1.365367	-0.112349	0.762056
C85	C	0.865493	-0.968109	0.262096
C86	C	1.365493	-0.468109	0.762096
C87	C	0.865523	-1.038801	0.262106
C88	C	1.365523	-0.538801	0.762106
C89	C	0.945622	-1.038662	0.342343
C90	C	1.445622	-0.538662	0.842343
C91	C	0.945597	-0.967975	0.342335
C92	C	1.445597	-0.467975	0.842335
C93	C	0.905528	-0.932702	0.302213
C94	C	1.405528	-0.432702	0.802213
C95	C	0.905503	-0.856053	0.302202
C96	C	1.405503	-0.356053	0.802202
C97	C	0.905487	-0.794962	0.302196
C98	C	1.405487	-0.294962	0.802196
C99	C	1.068879	-0.325816	0.302253
C100	C	1.568879	0.174184	0.802253
C101	C	1.138520	-0.325800	0.302285
C102	C	1.638520	0.174200	0.802285
C103	C	0.905508	-0.325837	0.465604
C104	C	1.405508	0.174163	0.965604
C105	C	0.905530	-0.325831	0.535245
C106	C	1.405530	0.174169	1.035245
C107	C	0.905545	-0.149308	0.302217
C108	C	1.405545	0.350692	0.802217
C109	C	0.905582	-0.074076	0.302232
C110	C	1.405582	0.425924	0.802232
C111	C	0.905440	-0.325816	0.139393
C112	C	1.405440	0.174184	0.639393
C113	C	0.905539	-0.325631	0.069752
C114	C	1.405539	0.174369	0.569752
C115	C	0.945623	-0.282530	0.567986
C116	C	1.445623	0.217470	1.067986
C117	C	0.945623	-0.282501	0.633421
C118	C	1.445623	0.217499	1.133421
C119	C	0.905535	-0.325785	0.666113
C120	C	1.405535	0.174215	1.166113
C121	C	0.865434	-0.369089	0.633364
C122	C	1.365434	0.130911	1.133364
C123	C	0.865431	-0.369112	0.567930
C124	C	1.365431	0.130888	1.067930
C125	C	0.900563	-0.386731	0.769778
C126	C	1.400563	0.113269	1.269778
C127	C	0.900570	-0.386709	0.835211
C128	C	1.400570	0.113291	1.335211
C129	C	0.905539	-0.325714	0.867934
C130	C	1.405539	0.174286	1.367934
C131	C	0.910514	-0.264738	0.835216
C132	C	1.410514	0.235262	1.335216
C133	C	0.910512	-0.264762	0.769782
C134	C	1.410512	0.235238	1.269782
C135	C	0.905533	-0.325765	0.737066
C136	C	1.405533	0.174235	1.237066
C137	C	0.945633	-0.282378	0.971628
C138	C	1.445633	0.217622	1.471628
C139	C	0.945628	-0.282347	1.037064
C140	C	1.445628	0.217653	1.537064
C141	C	0.865443	-0.368941	1.037006
C142	C	1.365443	0.131059	1.537006
C143	C	0.865445	-0.368966	0.971571
C144	C	1.365445	0.131034	1.471571
C145	C	0.905543	-0.325685	0.938885
C146	C	1.405543	0.174315	1.438885
H147	H	0.548252	-0.404542	0.374702
H148	H	1.048252	0.095458	0.874702
H149	H	0.978079	-0.583384	0.374955
H150	H	1.478079	-0.083384	0.874955
O151	O	0.826480	-0.411096	0.939859
O152	O	1.326480	0.088904	1.439859
C153	C	0.791084	-0.449281	0.982743
C154	C	1.291084	0.050719	1.482743
H155	H	0.816748	-0.451605	1.029405
H156	H	1.316748	0.048395	1.529405
H157	H	0.743513	-0.424500	0.989667
H158	H	1.243513	0.075500	1.489667
C159	C	0.750492	-0.518474	0.899887
C160	C	1.250492	-0.018474	1.399887
C161	C	0.782015	-0.521333	0.957197
C162	C	1.282015	-0.021333	1.457197
H163	H	0.744895	-0.562918	0.884129
H164	H	1.244895	-0.062918	1.384129
H165	H	0.774337	-0.492746	0.870995
H166	H	1.274337	0.007254	1.370995
H167	H	0.710852	-0.497820	0.905666
H168	H	1.210852	0.002180	1.405666
H169	H	0.821657	-0.541978	0.951417
H170	H	1.321657	-0.041978	1.451417
H171	H	0.758177	-0.547066	0.986088
H172	H	1.258177	-0.047066	1.486088
O173	O	0.826664	-0.933774	0.223089
O174	O	1.326664	-0.433774	0.723089
C175	C	0.862342	-0.892872	0.182653
C176	C	1.362342	-0.392872	0.682653
H177	H	0.909809	-0.882213	0.204811
H178	H	1.409809	-0.382213	0.704811
H179	H	0.869261	-0.920126	0.136233
H180	H	1.369261	-0.420126	0.636233
C181	C	0.769551	-0.838865	0.144042
C182	C	1.269551	-0.338865	0.644042
C183	C	0.827848	-0.825769	0.171260
C184	C	1.327848	-0.325769	0.671260
H185	H	0.748272	-0.797474	0.137011
H186	H	1.248272	-0.297474	0.637011
H187	H	0.745513	-0.866423	0.171283
H188	H	1.245513	-0.366423	0.671283
H189	H	0.775324	-0.861579	0.105362
H190	H	1.275324	-0.361579	0.605362
H191	H	0.822073	-0.803064	0.209943
H192	H	1.322073	-0.303064	0.709943
H193	H	0.851884	-0.798206	0.144025
H194	H	1.351884	-0.298206	0.644025
H195	H	0.832791	-0.711875	0.229404
H196	H	1.332791	-0.211875	0.729404
H197	H	0.666958	-0.404574	0.374656
H198	H	1.166958	0.095426	0.874656
H199	H	0.978274	-0.247287	0.541378
H200	H	1.478274	0.252713	1.041378
H201	H	0.832779	-0.404372	0.541273
H202	H	1.332779	0.095628	1.041273
O203	O	0.268442	-0.411221	0.381178
O204	O	0.768442	0.088779	0.881178
C205	C	0.252526	-0.396532	0.443653
C206	C	0.752526	0.103468	0.943653
H207	H	0.234589	-0.342461	0.446909
H208	H	0.734589	0.157539	0.946909
H209	H	0.214532	-0.432837	0.459988
H210	H	0.714532	0.067163	0.959988
C211	C	0.332726	-0.470895	0.481433
C212	C	0.832726	0.029105	0.981433
C213	C	0.310700	-0.404482	0.485434
C214	C	0.810700	0.095518	0.985434
H215	H	0.368609	-0.475802	0.507207
H216	H	0.868609	0.024198	1.007207
H217	H	0.343447	-0.480794	0.439343
H218	H	0.843447	0.019206	0.939343
H219	H	0.301058	-0.501142	0.495045
H220	H	0.801058	-0.001142	0.995045
H221	H	0.342364	-0.374237	0.471815
H222	H	0.842364	0.125763	0.971815
H223	H	0.299985	-0.394579	0.527523
H224	H	0.799985	0.105421	1.027523
O225	O	0.895698	-0.446044	0.738092
O226	O	1.395698	0.053956	1.238092
C227	C	0.891265	-0.499850	0.780998
C228	C	1.391265	0.000150	1.280998
H229	H	0.912383	-0.483838	0.827642
H230	H	1.412383	0.016162	1.327642
H231	H	0.840045	-0.513842	0.787958
H232	H	1.340045	-0.013842	1.287958
C233	C	0.901147	-0.581021	0.698168
C234	C	1.401147	-0.081021	1.198168
C235	C	0.927090	-0.561356	0.755456
C236	C	1.427090	-0.061356	1.255456
H237	H	0.923243	-0.618963	0.682412
H238	H	1.423243	-0.118963	1.182412
H239	H	0.904131	-0.544771	0.669260
H240	H	1.404131	-0.044771	1.169260
H241	H	0.858465	-0.592677	0.703976
H242	H	1.358465	-0.092677	1.203976
H243	H	0.969768	-0.549693	0.749646
H244	H	1.469768	-0.049693	1.249646
H245	H	0.924113	-0.597606	0.784362
H246	H	1.424113	-0.097606	1.284362
H247	H	0.896522	-0.436359	0.861846
H248	H	1.396522	0.063641	1.361846
O249	O	0.470295	-0.336553	0.413490
O250	O	0.970295	0.163447	0.913490
C251	C	0.427441	-0.341349	0.463324
C252	C	0.927441	0.158651	0.963324
H253	H	0.380798	-0.318575	0.448547
H254	H	0.880798	0.181425	0.948547
H255	H	0.420452	-0.396680	0.476249
H256	H	0.920452	0.103320	0.976249
C257	C	0.510366	-0.330582	0.538414
C258	C	1.010366	0.169418	1.038414
C259	C	0.453080	-0.302605	0.520265
C260	C	0.953080	0.197395	1.020265
H261	H	0.526181	-0.306686	0.573539
H262	H	1.026181	0.193314	1.073539
H263	H	0.539238	-0.327353	0.504840
H264	H	1.039238	0.172647	1.004840
H265	H	0.504534	-0.376690	0.549180
H266	H	1.004534	0.123310	1.049180
H267	H	0.458914	-0.256501	0.509492
H268	H	0.958914	0.243499	1.009492
H269	H	0.424209	-0.305826	0.553839
H270	H	0.924209	0.194174	1.053839
O271	O	0.826524	-0.411231	0.665049
O272	O	1.326524	0.088769	1.165049
C273	C	0.840192	-0.478694	0.649080
C274	C	1.340192	0.021306	1.149080
H275	H	0.864274	-0.480107	0.601588
H276	H	1.364274	0.019893	1.101588
H277	H	0.872395	-0.501473	0.685930
H278	H	1.372395	-0.001473	1.185930
C279	C	0.749512	-0.517971	0.704344
C280	C	1.249512	-0.017971	1.204344
C281	C	0.779085	-0.519707	0.646011
C282	C	1.279085	-0.019707	1.146011
H283	H	0.711819	-0.543272	0.702454
H284	H	1.211819	-0.043272	1.202454
H285	H	0.740305	-0.472521	0.715105
H286	H	1.240305	0.027479	1.215105
H287	H	0.776354	-0.536953	0.735046
H288	H	1.276354	-0.036953	1.235046
H289	H	0.752246	-0.500718	0.615312
H290	H	1.252246	-0.000718	1.115312
H291	H	0.788287	-0.565155	0.635245
H292	H	1.288287	-0.065155	1.135245
O293	O	0.984629	-1.072894	0.381262
O294	O	1.484629	-0.572894	0.881262
C295	C	1.047076	-1.055539	0.367658
C296	C	1.547076	-0.555539	0.867658
H297	H	1.050260	-1.036135	0.317603
H298	H	1.550260	-0.536135	0.817603
H299	H	1.063419	-1.014467	0.401261
H300	H	1.563419	-0.514467	0.901261
C301	C	1.084999	-1.142108	0.436500
C302	C	1.584999	-0.642108	0.936500
C303	C	1.088911	-1.118281	0.375020
C304	C	1.588911	-0.618281	0.875020
H305	H	1.110807	-1.180809	0.441043
H306	H	1.610807	-0.680809	0.941043
H307	H	1.042928	-1.153799	0.445667
H308	H	1.542928	-0.653799	0.945667
H309	H	1.098618	-1.107876	0.464495
H310	H	1.598618	-0.607876	0.964495
H311	H	1.075286	-1.152511	0.347027
H312	H	1.575286	-0.652511	0.847027
H313	H	1.130982	-1.106598	0.365848
H314	H	1.630982	-0.606598	0.865848
H315	H	0.914561	-0.215070	0.861857
H316	H	1.414561	0.284930	1.361857
H317	H	0.346524	-0.335697	0.404609
H318	H	0.846524	0.164303	0.904609
O319	O	0.826429	-0.578186	0.223022
O320	O	1.326429	-0.078186	0.723022
C321	C	0.791084	-0.624598	0.187629
C322	C	1.291084	-0.124598	0.687629
H323	H	0.816769	-0.674955	0.185493
H324	H	1.316769	-0.174955	0.685493
H325	H	0.743493	-0.632167	0.210519
H326	H	1.243493	-0.132167	0.710519
C327	C	0.750523	-0.535200	0.123557
C328	C	1.250523	-0.035200	0.623557
C329	C	0.782072	-0.597047	0.120929
C330	C	1.282072	-0.097047	0.620929
H331	H	0.744961	-0.518205	0.082414
H332	H	1.244961	-0.018205	0.582414
H333	H	0.774334	-0.503930	0.147403
H334	H	1.274334	-0.003930	0.647403
H335	H	0.710867	-0.541516	0.142634
H336	H	1.210867	-0.041516	0.642634
H337	H	0.821730	-0.590729	0.101859
H338	H	1.321730	-0.090729	0.601859
H339	H	0.758268	-0.628316	0.097077
H340	H	1.258268	-0.128316	0.597077
H341	H	0.465022	-0.316026	0.199756
H342	H	0.965022	0.183974	0.699756
H343	H	0.978124	-0.711618	0.374970
H344	H	1.478124	-0.211618	0.874970
H345	H	0.144615	-0.404451	0.374852
H346	H	0.644615	0.095549	0.874852
O347	O	0.984632	-0.240418	0.665138
O348	O	1.484632	0.259582	1.165138
C349	C	1.020010	-0.202209	0.622258
C350	C	1.520010	0.297791	1.122258
H351	H	1.022162	-0.229945	0.575614
H352	H	1.522162	0.270055	1.075614
H353	H	0.997098	-0.150807	0.615284
H354	H	1.497098	0.349193	1.115284
C355	C	1.084058	-0.158375	0.705134
C356	C	1.584058	0.341625	1.205134
C357	C	1.086705	-0.192443	0.647847
C358	C	1.586705	0.307557	1.147847
H359	H	1.125197	-0.152348	0.720920
H360	H	1.625197	0.347652	1.220920
H361	H	1.060222	-0.184115	0.734024
H362	H	1.560222	0.315885	1.234024
H363	H	1.064961	-0.115544	0.699315
H364	H	1.564961	0.384456	1.199315
H365	H	1.105794	-0.235277	0.653669
H366	H	1.605794	0.264723	1.153669
H367	H	1.110546	-0.166711	0.618959
H368	H	1.610546	0.333289	1.118959
O369	O	0.139351	-0.240418	0.223432
O370	O	0.639351	0.259582	0.723432
C371	C	0.074583	-0.249694	0.232033
C372	C	0.574583	0.250306	0.732033
H373	H	0.065628	-0.301951	0.252492
H374	H	0.565628	0.198049	0.752492
H375	H	0.056074	-0.209583	0.265451
H376	H	0.556074	0.290417	0.765451
C377	C	0.051932	-0.179239	0.143525
C378	C	0.551932	0.320761	0.643525
C379	C	0.040933	-0.243424	0.168647
C380	C	0.540933	0.256576	0.668647
H381	H	0.031174	-0.175369	0.104426
H382	H	0.531174	0.324631	0.604426
H383	H	0.095567	-0.172987	0.137731
H384	H	0.595567	0.327013	0.637731
H385	H	0.036508	-0.145820	0.171378
H386	H	0.536508	0.354180	0.671378
H387	H	0.056364	-0.276842	0.140797
H388	H	0.556364	0.223158	0.640797
H389	H	-0.002701	-0.249682	0.174435
H390	H	0.497299	0.250318	0.674435
H391	H	0.263295	-0.247178	0.229669
H392	H	0.763295	0.252822	0.729669
H393	H	0.978281	-0.247132	0.945014
H394	H	1.478281	0.252868	1.445014
O395	O	0.341260	-0.315113	0.190882
O396	O	0.841260	0.184887	0.690882
C397	C	0.384118	-0.310341	0.141050
C398	C	0.884118	0.189659	0.641050
H399	H	0.430798	-0.290765	0.159333
H400	H	0.930798	0.209235	0.659333
H401	H	0.391009	-0.362334	0.119251
H402	H	0.891009	0.137666	0.619251
C403	C	0.301233	-0.285380	0.068907
C404	C	0.801233	0.214620	0.568907
C405	C	0.358565	-0.261331	0.091363
C406	C	0.858565	0.238669	0.591363
H407	H	0.285470	-0.255152	0.038256
H408	H	0.785470	0.244848	0.538256
H409	H	0.272358	-0.288598	0.102479
H410	H	0.772358	0.211402	0.602479
H411	H	0.306984	-0.328708	0.050746
H412	H	0.806984	0.171292	0.550746
H413	H	0.352812	-0.218008	0.109531
H414	H	0.852812	0.281992	0.609531
H415	H	0.387438	-0.258105	0.057792
H416	H	0.887438	0.241895	0.557792
O417	O	0.543154	-0.240460	0.223195
O418	O	1.043154	0.259540	0.723195
C419	C	0.559054	-0.255167	0.160719
C420	C	1.059054	0.244833	0.660719
H421	H	0.606540	-0.281193	0.159365
H422	H	1.106540	0.218807	0.659365
H423	H	0.522175	-0.289925	0.139569
H424	H	1.022175	0.210075	0.639569
C425	C	0.503771	-0.157157	0.124538
C426	C	1.003771	0.342843	0.624538
C427	C	0.562097	-0.189118	0.122874
C428	C	1.062097	0.310882	0.622874
H429	H	0.505646	-0.116415	0.101192
H430	H	1.005646	0.383585	0.601192
H431	H	0.493057	-0.147249	0.166628
H432	H	0.993057	0.352751	0.666628
H433	H	0.473045	-0.186129	0.106914
H434	H	0.973045	0.313871	0.606914
H435	H	0.592820	-0.160149	0.140504
H436	H	1.092820	0.339851	0.640504
H437	H	0.572817	-0.199019	0.080785
H438	H	1.072817	0.300981	0.580785
H439	H	0.978201	-0.939143	0.374998
H440	H	1.478201	-0.439143	0.874998
O441	O	0.672149	-0.240543	0.223210
O442	O	1.172149	0.259457	0.723210
C443	C	0.709905	-0.279026	0.182655
C444	C	1.209905	0.220974	0.682655
H445	H	0.719685	-0.330358	0.204665
H446	H	1.219685	0.169642	0.704665
H447	H	0.684628	-0.286382	0.136220
H448	H	1.184628	0.213618	0.636220
C449	C	0.760071	-0.178738	0.144315
C450	C	1.260071	0.321262	0.644315
C451	C	0.772087	-0.241783	0.171351
C452	C	1.272087	0.258217	0.671351
H453	H	0.798426	-0.155764	0.137340
H454	H	1.298426	0.344236	0.637340
H455	H	0.734632	-0.152811	0.171636
H456	H	1.234632	0.347189	0.671636
H457	H	0.739005	-0.184877	0.105623
H458	H	1.239005	0.315123	0.605623
H459	H	0.793145	-0.235643	0.210046
H460	H	1.293145	0.264357	0.710046
H461	H	0.797531	-0.267708	0.144036
H462	H	1.297531	0.232292	0.644036
O463	O	0.915315	-0.205472	0.738096
O464	O	1.415315	0.294528	1.238096
C465	C	0.919719	-0.151628	0.781002
C466	C	1.419719	0.348372	1.281002
H467	H	0.898661	-0.167638	0.827633
H468	H	1.398661	0.332362	1.327633
H469	H	0.970927	-0.137557	0.787995
H470	H	1.470927	0.362443	1.287995
C471	C	0.909663	-0.070531	0.698161
C472	C	1.409663	0.429469	1.198161
C473	C	0.883795	-0.090193	0.755432
C474	C	1.383795	0.409807	1.255432
H475	H	0.887507	-0.032633	0.682388
H476	H	1.387507	0.467367	1.182388
H477	H	0.906699	-0.106806	0.669253
H478	H	1.406699	0.393194	1.169253
H479	H	0.952336	-0.058810	0.703996
H480	H	1.452336	0.441190	1.203996
H481	H	0.841126	-0.101922	0.749595
H482	H	1.341126	0.398078	1.249595
H483	H	0.886752	-0.053918	0.784338
H484	H	1.386752	0.446082	1.284338
H485	H	0.978276	-0.247083	1.063721
H486	H	1.478276	0.252917	1.563721
H487	H	0.832917	-1.067633	0.229439
H488	H	1.332917	-0.567633	0.729439
H489	H	0.832796	-0.404177	1.063623
H490	H	1.332796	0.095823	1.563623
