data_functionalizedCrystal
_audit_creation_method	'MofGen! by Chris Wilmer'
_symmetry_space_group_name_H-M	'P1'
_symmetry_Int_Tables_number	1
_symmetry_cell_setting	triclinic
loop_
_symmetry_equiv_pos_as_xyz
  x,y,z
_cell_length_a	16.109318
_cell_length_b	16.109301
_cell_length_c	13.448316
_cell_angle_alpha	89.991973
_cell_angle_beta	89.996821
_cell_angle_gamma	83.465022
loop_
_atom_site_label
_atom_site_type_symbol
_atom_site_fract_x
_atom_site_fract_y
_atom_site_fract_z
O1	O	1.103125	0.106938	-0.082612
O2	O	1.436459	0.440271	0.250721
O3	O	1.769792	0.773604	0.584054
O4	O	0.861065	0.120222	-0.082633
O5	O	1.194399	0.453555	0.250701
O6	O	1.527732	0.786889	0.584034
O7	O	0.988745	-0.007451	-0.082612
O8	O	1.322078	0.325883	0.250721
O9	O	1.655412	0.659216	0.584055
O10	O	0.975446	0.234610	-0.082633
O11	O	1.308779	0.567944	0.250700
O12	O	1.642112	0.901277	0.584033
O13	O	0.988729	-0.007459	0.082772
O14	O	1.322062	0.325875	0.416105
O15	O	1.655396	0.659208	0.749439
O16	O	0.861049	0.120214	0.082751
O17	O	1.194383	0.453547	0.416084
O18	O	1.527716	0.786881	0.749418
O19	O	1.103109	0.106930	0.082772
O20	O	1.436443	0.440263	0.416105
O21	O	1.769776	0.773597	0.749438
Cu22	Cu	0.982078	0.113571	0.097862
Cu23	Cu	1.315411	0.446905	0.431195
Cu24	Cu	1.648745	0.780238	0.764529
Cu25	Cu	0.982097	0.113581	-0.097723
Cu26	Cu	1.315430	0.446914	0.235610
Cu27	Cu	1.648764	0.780247	0.568943
O28	O	0.975430	0.234603	0.082751
O29	O	1.308763	0.567936	0.416084
O30	O	1.642096	0.901269	0.749417
C31	C	0.830083	0.119677	0.000057
C32	C	1.163416	0.453011	0.333390
C33	C	1.496749	0.786344	0.666723
C34	C	0.737788	0.118057	0.000049
C35	C	1.071122	0.451390	0.333382
C36	C	1.404455	0.784723	0.666716
C37	C	0.438723	0.112826	-0.090084
C38	C	0.772057	0.446159	0.243250
C39	C	1.105390	0.779493	0.576583
C40	C	0.525444	0.114343	-0.090090
C41	C	0.858778	0.447677	0.243243
C42	C	1.192111	0.781010	0.576577
C43	C	0.525446	0.114323	0.090221
C44	C	0.858779	0.447657	0.423554
C45	C	1.192112	0.780990	0.756887
C46	C	0.438727	0.112800	0.090226
C47	C	0.772060	0.446133	0.423559
C48	C	1.105394	0.779467	0.756892
C49	C	0.395367	0.112056	0.000071
C50	C	0.728701	0.445389	0.333404
C51	C	1.062034	0.778722	0.666737
C52	C	0.568807	0.115096	0.000059
C53	C	0.902141	0.448430	0.333393
C54	C	1.235474	0.781763	0.666726
C55	C	0.662835	0.116742	0.000053
C56	C	0.996168	0.450075	0.333387
C57	C	1.329501	0.783408	0.666720
C58	C	0.301334	0.110409	0.000076
C59	C	0.634668	0.443742	0.333410
C60	C	0.968001	0.777075	0.666743
C61	C	0.988198	-0.038430	0.000080
C62	C	1.321532	0.294904	0.333414
C63	C	1.654865	0.628237	0.666747
C64	C	0.986583	-0.130725	0.000082
C65	C	1.319916	0.202608	0.333415
C66	C	1.653250	0.535942	0.666748
C67	C	1.058590	-0.352993	0.000072
C68	C	1.391924	-0.019660	0.333405
C69	C	1.725257	0.313674	0.666739
C70	C	1.057066	-0.439713	0.000064
C71	C	1.390400	-0.106380	0.333397
C72	C	1.723733	0.226953	0.666730
C73	C	0.905579	-0.419848	0.000055
C74	C	1.238912	-0.086515	0.333388
C75	C	1.572245	0.246818	0.666722
C76	C	0.907104	-0.333130	0.000056
C77	C	1.240437	0.000204	0.333389
C78	C	1.573770	0.333537	0.666723
C79	C	0.983612	-0.299704	0.000070
C80	C	1.316945	0.033629	0.333403
C81	C	1.650279	0.366962	0.666736
C82	C	0.980563	-0.473144	0.000060
C83	C	1.313896	-0.139810	0.333394
C84	C	1.647230	0.193523	0.666727
C85	C	0.978910	-0.567170	0.000051
C86	C	1.312243	-0.233837	0.333385
C87	C	1.645577	0.099497	0.666718
C88	C	0.985265	-0.205672	0.000077
C89	C	1.318599	0.127661	0.333410
C90	C	1.651932	0.460994	0.666744
C91	C	1.134092	0.107474	0.000080
C92	C	1.467425	0.440808	0.333413
C93	C	1.800759	0.774141	0.666747
C94	C	1.226387	0.109095	0.000081
C95	C	1.559720	0.442429	0.333414
C96	C	1.893053	0.775762	0.666748
C97	C	0.975976	0.265581	0.000056
C98	C	1.309310	0.598915	0.333389
C99	C	1.642643	0.932248	0.666723
C100	C	0.977592	0.357877	0.000048
C101	C	1.310925	0.691210	0.333382
C102	C	1.644258	1.024543	0.666715
N103	N	0.982071	0.113564	0.235426
N104	N	1.315404	0.446898	0.568760
N105	N	1.648737	0.780231	0.902093
N106	N	0.982111	0.113581	-0.235288
N107	N	1.315444	0.446914	0.098046
N108	N	1.648777	0.780248	0.431379
C109	C	1.038625	0.057054	0.287476
C110	C	1.371958	0.390387	0.620809
C111	C	1.705291	0.723721	0.954143
C112	C	1.038630	0.057053	0.391579
C113	C	1.371963	0.390387	0.724913
C114	C	1.705297	0.723720	1.058246
C115	C	0.982084	0.113567	0.443631
C116	C	1.315418	0.446901	0.776964
C117	C	1.648751	0.780234	1.110298
C118	C	0.925524	0.170080	0.391574
C119	C	1.258858	0.503414	0.724907
C120	C	1.592191	0.836747	1.058241
C121	C	0.925516	0.170076	0.287473
C122	C	1.258849	0.503410	0.620806
C123	C	1.592182	0.836743	0.954139
C124	C	0.925547	0.170086	0.608554
C125	C	1.258881	0.503419	0.941887
C126	C	1.592214	0.836753	1.275221
C127	C	0.925557	0.170091	0.712663
C128	C	1.258890	0.503425	1.045996
C129	C	1.592223	0.836758	1.379329
C130	C	1.038661	0.057063	0.712661
C131	C	1.371995	0.390396	1.045994
C132	C	1.705328	0.723729	1.379327
C133	C	1.038653	0.057059	0.608559
C134	C	1.371986	0.390392	0.941893
C135	C	1.705320	0.723726	1.275226
C136	C	0.982094	0.113573	0.556510
C137	C	1.315427	0.446906	0.889843
C138	C	1.648760	0.780240	1.223176
H139	H	0.560741	0.114969	-0.163503
H140	H	0.894074	0.448303	0.169831
H141	H	1.227408	0.781636	0.503164
Cl142	Cl	0.809402	-0.461875	0.000038
Cl143	Cl	1.142736	-0.128542	0.333371
Cl144	Cl	1.476069	0.204791	0.666705
Cl145	Cl	0.579960	0.115268	0.203552
Cl146	Cl	0.913293	0.448602	0.536885
Cl147	Cl	1.246626	0.781935	0.870219
Cl148	Cl	0.384218	0.111829	0.203572
Cl149	Cl	0.717552	0.445163	0.536906
Cl150	Cl	1.050885	0.778496	0.870239
H151	H	1.084674	0.011037	0.245102
H152	H	1.418007	0.344370	0.578436
H153	H	1.751341	0.677704	0.911769
Cl154	Cl	1.151329	-0.506702	0.000065
Cl155	Cl	1.484663	-0.173368	0.333398
Cl156	Cl	1.817996	0.159965	0.666732
Cl157	Cl	1.109727	-0.013990	0.457015
Cl158	Cl	1.443060	0.319343	0.790348
Cl159	Cl	1.776393	0.652676	1.123682
H160	H	0.846043	-0.289740	0.000051
H161	H	1.179377	0.043594	0.333384
H162	H	1.512710	0.376927	0.666718
H163	H	1.120888	-0.325781	0.000081
H164	H	1.454221	0.007552	0.333414
H165	H	1.787555	0.340885	0.666748
H166	H	1.084700	0.011045	0.566179
H167	H	1.418034	0.344378	0.899512
H168	H	1.751367	0.677712	1.232846
H169	H	1.084714	0.011047	0.755046
H170	H	1.418047	0.344380	1.088379
H171	H	1.751380	0.677714	1.421712
H172	H	0.879511	0.216110	0.755038
H173	H	1.212844	0.549443	1.088371
H174	H	1.546177	0.882777	1.421705
H175	H	0.879488	0.216103	0.566179
H176	H	1.212821	0.549437	0.899512
H177	H	1.546155	0.882770	1.232845
H178	H	0.879480	0.216093	0.433961
H179	H	1.212813	0.549426	0.767294
H180	H	1.546146	0.882759	1.100627
H181	H	0.403423	0.112219	-0.163494
H182	H	0.736756	0.445552	0.169840
H183	H	1.070089	0.778885	0.503173
Cl184	Cl	0.854413	0.241119	0.222040
Cl185	Cl	1.187746	0.574452	0.555373
Cl186	Cl	1.521079	0.907785	0.888706
