data_functionalizedCrystal
_audit_creation_method	'MofGen! by Chris Wilmer'
_symmetry_space_group_name_H-M	'P1'
_symmetry_Int_Tables_number	1
_symmetry_cell_setting	triclinic
loop_
_symmetry_equiv_pos_as_xyz
  x,y,z
_cell_length_a	16.625548
_cell_length_b	16.625545
_cell_length_c	16.625539
_cell_angle_alpha	90.026243
_cell_angle_beta	90.017055
_cell_angle_gamma	90.026626
loop_
_atom_site_label
_atom_site_type_symbol
_atom_site_fract_x
_atom_site_fract_y
_atom_site_fract_z
Zn1	Zn	1.232635	-0.320992	0.455910
Zn2	Zn	1.232539	-0.455831	0.321078
Zn3	Zn	1.097805	-0.321018	0.321091
Zn4	Zn	1.097760	-0.455789	0.455868
O5	O	1.165185	-0.388408	0.388487
O6	O	1.345455	-0.338885	0.438037
O7	O	1.214645	-0.437976	0.208247
O8	O	1.115750	-0.208182	0.338998
O9	O	1.345384	-0.437951	0.338976
O10	O	1.214809	-0.208163	0.438049
O11	O	1.115657	-0.338930	0.208257
O12	O	0.984967	-0.338889	0.338957
O13	O	1.115673	-0.437879	0.568706
O14	O	0.984934	-0.437905	0.437977
O15	O	1.214765	-0.338845	0.568737
O16	O	1.214602	-0.568658	0.338935
O17	O	1.115580	-0.568627	0.437965
C18	C	0.955694	-0.388396	0.388464
C19	C	0.866073	-0.388410	0.388474
C20	C	0.537897	-0.388416	0.388508
C21	C	0.629206	-0.388412	0.388496
C22	C	0.701982	-0.388414	0.388490
C23	C	0.793297	-0.388409	0.388480
C24	C	1.165097	-0.597898	0.388461
C25	C	1.165134	-0.687520	0.388478
C26	C	1.165165	-0.760302	0.388494
C27	C	1.165212	-0.851610	0.388511
C28	C	1.165254	-0.924387	0.388522
C29	C	1.165300	-1.015701	0.388538
C30	C	1.375494	-0.388420	0.388510
C31	C	1.465115	-0.388425	0.388520
C32	C	1.165225	-0.388354	0.598796
C33	C	1.165241	-0.388332	0.688417
C34	C	1.165295	-0.178099	0.388530
C35	C	1.165342	-0.088477	0.388548
C36	C	1.165192	-0.388402	0.178996
C37	C	1.165331	-0.388198	0.089375
C38	C	1.165255	-0.388314	0.761200
C39	C	1.165273	-0.388284	0.852508
C40	C	1.165292	-0.388255	0.925285
C41	C	1.165312	-0.388226	1.016599
