data_functionalizedCrystal
_audit_creation_method	'MofGen! by Chris Wilmer'
_symmetry_space_group_name_H-M	'P1'
_symmetry_Int_Tables_number	1
_symmetry_cell_setting	triclinic
loop_
_symmetry_equiv_pos_as_xyz
  x,y,z
_cell_length_a	25.639242
_cell_length_b	29.839131
_cell_length_c	25.639234
_cell_angle_alpha	89.974256
_cell_angle_beta	89.970648
_cell_angle_gamma	90.036947
loop_
_atom_site_label
_atom_site_type_symbol
_atom_site_fract_x
_atom_site_fract_y
_atom_site_fract_z
Zn1	Zn	0.799252	-0.178934	-0.295739
Zn2	Zn	1.299252	0.321066	0.204261
Zn3	Zn	0.799161	-0.254057	-0.208302
Zn4	Zn	1.299161	0.245943	0.291698
Zn5	Zn	0.711818	-0.178936	-0.208303
Zn6	Zn	1.211818	0.321064	0.291697
Zn7	Zn	0.711769	-0.254032	-0.295692
Zn8	Zn	1.211769	0.245968	0.204308
O9	O	0.755500	-0.216490	-0.252009
O10	O	1.255500	0.283510	0.247991
O11	O	0.872405	-0.188909	-0.284160
O12	O	1.372405	0.311091	0.215840
O13	O	0.787556	-0.244103	-0.135137
O14	O	1.287556	0.255897	0.364863
O15	O	0.723474	-0.116068	-0.219922
O16	O	1.223474	0.383932	0.280078
O17	O	0.872338	-0.244101	-0.219920
O18	O	1.372338	0.255899	0.280080
O19	O	0.787712	-0.116067	-0.284161
O20	O	1.287712	0.383933	0.215839
O21	O	0.723386	-0.188912	-0.135138
O22	O	1.223386	0.311088	0.364862
O23	O	0.638646	-0.188888	-0.219876
O24	O	1.138646	0.311112	0.280124
O25	O	0.723392	-0.244059	-0.368864
O26	O	1.223392	0.255941	0.131136
O27	O	0.638611	-0.244061	-0.284081
O28	O	1.138611	0.255939	0.215919
O29	O	0.787666	-0.188885	-0.368898
O30	O	1.287666	0.311115	0.131102
O31	O	0.787509	-0.316921	-0.219875
O32	O	1.287509	0.183079	0.280125
O33	O	0.723304	-0.316903	-0.284080
O34	O	1.223304	0.183097	0.215920
C35	C	0.619657	-0.216472	-0.251974
C36	C	1.119657	0.283528	0.248026
C37	C	0.561543	-0.216475	-0.251971
C38	C	1.061543	0.283525	0.248029
C39	C	0.755406	-0.333212	-0.251983
C40	C	1.255406	0.166788	0.248017
C41	C	0.755413	-0.383147	-0.251990
C42	C	1.255413	0.116853	0.248010
C43	C	0.201171	-0.245266	-0.285409
C44	C	0.701171	0.254734	0.214591
C45	C	0.146566	-0.245269	-0.285417
C46	C	0.646566	0.254731	0.214583
O47	O	0.118322	-0.269726	-0.313817
O48	O	0.618322	0.230274	0.186183
N49	N	0.119261	-0.216502	-0.252043
N50	N	0.619261	0.283498	0.247957
C51	C	0.146562	-0.187727	-0.218663
C52	C	0.646562	0.312273	0.281337
O53	O	0.118323	-0.163259	-0.190277
O54	O	0.618323	0.336741	0.309723
C55	C	0.201166	-0.187723	-0.218658
C56	C	0.701166	0.312277	0.281342
C57	C	0.228469	-0.216495	-0.252030
C58	C	0.728469	0.283505	0.247970
C59	C	0.228474	-0.274036	-0.318778
C60	C	0.728474	0.225964	0.181222
C61	C	0.283074	-0.274033	-0.318769
C62	C	0.783074	0.225967	0.181231
C63	C	0.310372	-0.245262	-0.285391
C64	C	0.810372	0.254738	0.214609
C65	C	0.283069	-0.216492	-0.252021
C66	C	0.783069	0.283508	0.247979
C67	C	0.228466	-0.158946	-0.185281
C68	C	0.728466	0.341054	0.314719
C69	C	0.283073	-0.158943	-0.185279
C70	C	0.783073	0.341057	0.314721
C71	C	0.310376	-0.187716	-0.218651
C72	C	0.810376	0.312284	0.281349
C73	C	0.364967	-0.187719	-0.218633
C74	C	0.864967	0.312281	0.281367
N75	N	0.392273	-0.216485	-0.252007
N76	N	0.892273	0.283515	0.247993
C77	C	0.364975	-0.245257	-0.285385
C78	C	0.864975	0.254743	0.214615
C79	C	0.031892	-0.187739	-0.218677
C80	C	0.531892	0.312261	0.281323
C81	C	-0.022711	-0.187745	-0.218679
C82	C	0.477289	0.312255	0.281321
C83	C	-0.022703	-0.245287	-0.285434
C84	C	0.477297	0.254713	0.214566
C85	C	0.031901	-0.245282	-0.285429
C86	C	0.531901	0.254718	0.214571
C87	C	0.059197	-0.216506	-0.252051
C88	C	0.559197	0.283494	0.247949
C89	C	0.479640	-0.245250	-0.285363
C90	C	0.979640	0.254750	0.214637
C91	C	0.534246	-0.245247	-0.285350
C92	C	1.034246	0.254753	0.214650
C93	C	0.534233	-0.187704	-0.218597
C94	C	1.034233	0.312296	0.281403
C95	C	0.479632	-0.187709	-0.218609
C96	C	0.979632	0.312291	0.281391
C97	C	0.452337	-0.216484	-0.251996
C98	C	0.952337	0.283516	0.248004
O99	O	0.393247	-0.163273	-0.190249
O100	O	0.893247	0.336727	0.309751
O101	O	0.393221	-0.269717	-0.313771
O102	O	0.893221	0.230283	0.186229
C103	C	0.788993	-0.692787	-0.218627
C104	C	1.288993	-0.192787	0.281373
C105	C	0.789057	-0.880460	-0.218647
C106	C	1.289057	-0.380460	0.281353
O107	O	0.817533	-0.904722	-0.190260
O108	O	1.317533	-0.404722	0.309740
N109	N	0.755608	-0.903932	-0.252049
N110	N	1.255608	-0.403932	0.247951
C111	C	0.722143	-0.880482	-0.285450
C112	C	1.222143	-0.380482	0.214550
O113	O	0.693698	-0.904753	-0.313865
O114	O	1.193698	-0.404753	0.186135
C115	C	0.722082	-0.692810	-0.285432
C116	C	1.222082	-0.192810	0.214568
C117	C	0.755529	-0.669341	-0.252024
C118	C	1.255529	-0.169341	0.247976
C119	C	0.822438	-0.669318	-0.185222
C120	C	1.322438	-0.169318	0.314778
C121	C	0.822419	-0.622402	-0.185215
C122	C	1.322419	-0.122402	0.314785
C123	C	0.788956	-0.598956	-0.218613
C124	C	1.288956	-0.098956	0.281387
C125	C	0.755511	-0.622425	-0.252018
C126	C	1.255511	-0.122425	0.247982
C127	C	0.688620	-0.669362	-0.318836
C128	C	1.188620	-0.169362	0.181164
C129	C	0.688608	-0.622441	-0.318829
C130	C	1.188608	-0.122441	0.181171
C131	C	0.722056	-0.598971	-0.285422
C132	C	1.222056	-0.098971	0.214578
C133	C	0.722029	-0.552064	-0.285409
C134	C	1.222029	-0.052064	0.214591
N135	N	0.755478	-0.528592	-0.252007
N136	N	1.255478	-0.028592	0.247993
C137	C	0.788941	-0.552038	-0.218609
C138	C	1.288941	-0.052038	0.281391
C139	C	0.722177	-0.979013	-0.285457
C140	C	1.222177	-0.479013	0.214543
C141	C	0.722192	-1.025931	-0.285461
C142	C	1.222192	-0.525931	0.214539
C143	C	0.789107	-1.025905	-0.218658
C144	C	1.289107	-0.525905	0.281342
C145	C	0.789089	-0.978986	-0.218652
C146	C	1.289089	-0.478986	0.281348
C147	C	0.755626	-0.955541	-0.252055
C148	C	1.255626	-0.455541	0.247945
C149	C	0.788899	-0.453512	-0.218597
C150	C	1.288899	0.046488	0.281403
C151	C	0.788877	-0.406593	-0.218592
C152	C	1.288877	0.093407	0.281408
C153	C	0.721964	-0.406623	-0.285396
C154	C	1.221964	0.093377	0.214604
C155	C	0.721985	-0.453538	-0.285400
C156	C	1.221985	0.046462	0.214600
C157	C	0.755457	-0.476982	-0.251999
C158	C	1.255457	0.023018	0.248001
O159	O	0.693572	-0.527773	-0.313785
O160	O	1.193572	-0.027773	0.186215
O161	O	0.817390	-0.527760	-0.190207
O162	O	1.317390	-0.027760	0.309793
C163	C	0.789011	-0.739702	-0.218633
C164	C	1.289011	-0.239702	0.281367
C165	C	0.755566	-0.763172	-0.252038
C166	C	1.255566	-0.263172	0.247962
C167	C	0.722103	-0.739726	-0.285436
C168	C	1.222103	-0.239726	0.214564
C169	C	0.755581	-0.810090	-0.252042
C170	C	1.255581	-0.310090	0.247958
C171	C	0.789044	-0.833536	-0.218644
C172	C	1.289044	-0.333536	0.281356
C173	C	0.822493	-0.810064	-0.185242
C174	C	1.322493	-0.310064	0.314758
C175	C	0.822475	-0.763148	-0.185235
C176	C	1.322475	-0.263148	0.314765
C177	C	0.688654	-0.763198	-0.318838
C178	C	1.188654	-0.263198	0.181162
C179	C	0.688675	-0.810113	-0.318841
C180	C	1.188675	-0.310113	0.181159
C181	C	0.722138	-0.833559	-0.285443
C182	C	1.222138	-0.333559	0.214557
C183	C	0.891873	-0.216508	-0.252045
C184	C	1.391873	0.283492	0.247955
C185	C	0.949987	-0.216516	-0.252060
C186	C	1.449987	0.283484	0.247940
C187	C	0.755534	-0.216469	-0.388382
C188	C	1.255534	0.283531	0.111618
C189	C	0.755548	-0.216461	-0.446496
C190	C	1.255548	0.283539	0.053504
C191	C	0.755609	-0.099311	-0.252047
C192	C	1.255609	0.400689	0.247953
C193	C	0.755655	-0.049377	-0.252063
C194	C	1.255655	0.450623	0.247937
C195	C	0.722150	-0.187669	-0.806865
C196	C	1.222150	0.312331	-0.306865
C197	C	0.722152	-0.187661	-0.861470
C198	C	1.222152	0.312339	-0.361470
O199	O	0.693729	-0.163231	-0.889712
O200	O	1.193729	0.336769	-0.389712
N201	N	0.755566	-0.216390	-0.888779
N202	N	1.255566	0.283610	-0.388779
C203	C	0.788975	-0.245132	-0.861481
C204	C	1.288975	0.254868	-0.361481
O205	O	0.817396	-0.269568	-0.889724
O206	O	1.317396	0.230432	-0.389724
C207	C	0.788969	-0.245143	-0.806878
C208	C	1.288969	0.254857	-0.306878
C209	C	0.755557	-0.216408	-0.779571
C210	C	1.255557	0.283592	-0.279571
C211	C	0.688740	-0.158937	-0.779559
C212	C	1.188740	0.341063	-0.279559
C213	C	0.688738	-0.158945	-0.724958
C214	C	1.188738	0.341055	-0.224958
C215	C	0.722146	-0.187684	-0.697664
C216	C	1.222146	0.312316	-0.197664
C217	C	0.755555	-0.216416	-0.724971
C218	C	1.255555	0.283584	-0.224971
C219	C	0.822375	-0.273887	-0.779581
C220	C	1.322375	0.226113	-0.279581
C221	C	0.822366	-0.273895	-0.724974
C222	C	1.322366	0.226105	-0.224974
C223	C	0.788954	-0.245160	-0.697667
C224	C	1.288954	0.254840	-0.197667
C225	C	0.788961	-0.245163	-0.643076
C226	C	1.288961	0.254837	-0.143076
N227	N	0.755547	-0.216434	-0.615767
N228	N	1.255547	0.283566	-0.115767
C229	C	0.722140	-0.187694	-0.643061
C230	C	1.222140	0.312306	-0.143061
C231	C	0.788984	-0.245110	-0.976152
C232	C	1.288984	0.254890	-0.476152
C233	C	0.788993	-0.245098	-1.030754
C234	C	1.288993	0.254902	-0.530754
C235	C	0.722169	-0.187627	-1.030739
C236	C	1.222169	0.312373	-0.530739
C237	C	0.722164	-0.187637	-0.976136
C238	C	1.222164	0.312363	-0.476136
C239	C	0.755571	-0.216381	-0.948843
C240	C	1.255571	0.283619	-0.448843
C241	C	0.722138	-0.187712	-0.528396
C242	C	1.222138	0.312288	-0.028396
C243	C	0.722141	-0.187721	-0.473790
C244	C	1.222141	0.312279	0.026210
C245	C	0.788962	-0.245194	-0.473810
C246	C	1.288962	0.254806	0.026190
C247	C	0.788962	-0.245184	-0.528411
C248	C	1.288962	0.254816	-0.028411
C249	C	0.755546	-0.216441	-0.555702
C250	C	1.255546	0.283559	-0.055702
O251	O	0.817368	-0.269582	-0.614800
O252	O	1.317368	0.230418	-0.114800
O253	O	0.693719	-0.163267	-0.614812
O254	O	1.193719	0.336733	-0.114812
C255	C	0.755496	-0.216478	-0.116167
C256	C	1.255496	0.283522	0.383833
C257	C	0.755583	-0.216360	-0.058053
C258	C	1.255583	0.283640	0.441947
H259	H	0.556473	-0.268678	-0.312526
H260	H	1.056473	0.231322	0.187474
C261	C	0.825707	-0.276807	-0.443776
C262	C	1.325707	0.223193	0.056224
N263	N	0.853380	-0.300621	-0.421153
N264	N	1.353380	0.199379	0.078847
H265	H	0.849656	-0.603296	-0.158013
H266	H	1.349656	-0.103296	0.341987
H267	H	0.816157	-0.472595	-0.191400
H268	H	1.316157	0.027405	0.308600
H269	H	0.849582	-0.297286	-0.801804
H270	H	1.349582	0.202714	-0.301804
C271	C	0.651853	-0.737413	-0.355594
C272	C	1.151853	-0.237413	0.144406
N273	N	0.624136	-0.717995	-0.383285
N274	N	1.124136	-0.217995	0.116715
H275	H	0.816174	-0.268576	-0.550645
H276	H	1.316174	0.231424	-0.050645
C277	C	0.313100	-0.305683	-0.355484
C278	C	0.813100	0.194317	0.144516
N279	N	0.335712	-0.329522	-0.383141
N280	N	0.835712	0.170478	0.116859
H281	H	0.206246	-0.135518	-0.158104
H282	H	0.706246	0.364482	0.341896
H283	H	0.661433	-0.829218	-0.346045
H284	H	1.161433	-0.329218	0.153955
H285	H	0.849711	-0.744043	-0.158032
H286	H	1.349711	-0.244043	0.341968
C287	C	0.313096	-0.127288	-0.148557
C288	C	0.813096	0.372712	0.351443
N289	N	0.335709	-0.103446	-0.120898
N290	N	0.835709	0.396554	0.379102
H291	H	0.661381	-0.688463	-0.346038
H292	H	1.161381	-0.188463	0.153962
H293	H	0.457401	-0.164282	-0.191433
H294	H	0.957401	0.335718	0.308567
H295	H	0.054114	-0.164306	-0.191493
H296	H	0.554114	0.335694	0.308507
H297	H	0.694957	-0.164238	-0.953906
H298	H	1.194957	0.335762	-0.453906
H299	H	0.694967	-0.164226	-1.052972
H300	H	1.194967	0.335774	-0.552972
H301	H	0.849574	-0.297299	-0.702754
H302	H	1.349574	0.202701	-0.202754
C303	C	0.449624	-0.276907	-0.322087
C304	C	0.949624	0.223093	0.177913
N305	N	0.427015	-0.300754	-0.349744
N306	N	0.927015	0.199246	0.150256
C307	C	0.685382	-0.156092	-0.558408
C308	C	1.185382	0.343908	-0.058408
N309	N	0.657701	-0.132272	-0.581014
N310	N	1.157701	0.367728	-0.081014
H311	H	0.206254	-0.297465	-0.345962
H312	H	0.706254	0.202535	0.154038
C313	C	0.061928	-0.276931	-0.322143
C314	C	0.561928	0.223069	0.177857
N315	N	0.084543	-0.300769	-0.349800
N316	N	0.584543	0.199231	0.150200
H317	H	0.816206	-0.268491	-1.052982
H318	H	1.316206	0.231509	-0.552982
H319	H	-0.044938	-0.268713	-0.312615
H320	H	0.455062	0.231287	0.187385
H321	H	-0.044936	-0.164321	-0.191499
H322	H	0.455064	0.335679	0.308501
C323	C	0.685158	-0.380823	-0.322134
C324	C	1.185158	0.119177	0.177866
N325	N	0.657439	-0.361389	-0.349809
N326	N	1.157439	0.138611	0.150191
C327	C	0.825670	-0.380779	-0.181837
C328	C	1.325670	0.119221	0.318163
N329	N	0.853382	-0.361338	-0.154153
N330	N	1.353382	0.138662	0.345847
C331	C	0.564271	-0.156052	-0.181889
C332	C	1.064271	0.343948	0.318111
N333	N	0.586897	-0.132207	-0.154244
N334	N	1.086897	0.367793	0.345756
C335	C	0.859251	-0.695101	-0.148475
C336	C	1.359251	-0.195101	0.351525
N337	N	0.886977	-0.714518	-0.120792
N338	N	1.386977	-0.214518	0.379208
C339	C	0.825885	-0.953175	-0.181902
C340	C	1.325885	-0.453175	0.318098
N341	N	0.853602	-0.933735	-0.154222
N342	N	1.353602	-0.433735	0.345778
H343	H	0.816354	-1.045003	-0.191464
H344	H	1.316354	-0.545003	0.308536
H345	H	0.694951	-1.045036	-0.312660
H346	H	1.194951	-0.545036	0.187340
C347	C	0.651796	-0.596654	-0.355577
C348	C	1.151796	-0.096654	0.144423
N349	N	0.624068	-0.577232	-0.383254
N350	N	1.124068	-0.077232	0.116746
C351	C	0.685377	-0.953229	-0.322219
C352	C	1.185377	-0.453229	0.177781
N353	N	0.657662	-0.933811	-0.349913
N354	N	1.157662	-0.433811	0.150087
C355	C	0.685189	-0.479355	-0.322148
C356	C	1.185189	0.020645	0.177852
N357	N	0.657478	-0.498797	-0.349832
N358	N	1.157478	0.001203	0.150168
H359	H	0.849739	-0.829162	-0.158047
H360	H	1.349739	-0.329162	0.341953
C361	C	0.685382	-0.156111	-0.443757
C362	C	1.185382	0.343889	0.056243
N363	N	0.657695	-0.132304	-0.421137
N364	N	1.157695	0.367696	0.078863
H365	H	0.661528	-0.135548	-0.702730
H366	H	1.161528	0.364452	-0.202730
H367	H	0.661533	-0.135534	-0.801776
H368	H	1.161533	0.364466	-0.301776
C369	C	0.825750	-0.276721	-0.946134
C370	C	1.325750	0.223279	-0.446134
N371	N	0.853446	-0.300527	-0.923528
N372	N	1.353446	0.199473	-0.423528
