data_functionalizedCrystal
_audit_creation_method	'MofGen! by Chris Wilmer'
_symmetry_space_group_name_H-M	'P1'
_symmetry_Int_Tables_number	1
_symmetry_cell_setting	triclinic
loop_
_symmetry_equiv_pos_as_xyz
  x,y,z
_cell_length_a	16.956984
_cell_length_b	15.625429
_cell_length_c	16.053802
_cell_angle_alpha	74.515382
_cell_angle_beta	87.610701
_cell_angle_gamma	80.348581
loop_
_atom_site_label
_atom_site_type_symbol
_atom_site_fract_x
_atom_site_fract_y
_atom_site_fract_z
O1	O	1.061920	0.032726	-0.079339
O2	O	0.830252	0.063827	-0.088755
O3	O	0.950391	-0.081140	-0.044866
O4	O	0.941780	0.177692	-0.123228
O5	O	0.943778	-0.073191	0.091586
O6	O	0.823639	0.071775	0.047698
O7	O	1.055306	0.040674	0.057113
Zn8	Zn	0.938423	0.057487	0.074070
Zn9	Zn	0.947136	0.047014	-0.105712
O10	O	0.935167	0.185641	0.013225
C11	C	0.797263	0.069393	-0.021011
C12	C	0.708817	0.074128	-0.022444
C13	C	0.675484	-0.005037	0.001525
C14	C	0.592379	-0.000583	0.000170
C15	C	0.542608	0.083037	-0.025147
C16	C	0.575946	0.162207	-0.049120
C17	C	0.659050	0.157752	-0.047771
C18	C	0.293184	0.105088	-0.031829
C19	C	0.210075	0.109537	-0.033173
C20	C	0.226514	-0.053254	0.016115
C21	C	0.309618	-0.057701	0.017467
C22	C	0.342949	0.021469	-0.006510
N23	N	0.457662	0.087591	-0.026530
N24	N	0.427894	0.016913	-0.005133
C25	C	0.946040	-0.110130	0.033338
C26	C	0.942919	-0.208352	0.063069
C27	C	0.950653	-0.553053	-0.211020
C28	C	0.947715	-0.645346	-0.183057
C29	C	0.940506	-0.636667	-0.034306
C30	C	0.943447	-0.544373	-0.062256
C31	C	0.948520	-0.502573	-0.150614
C32	C	0.941314	-0.493893	-0.001850
C33	C	0.944251	-0.401606	-0.029798
C34	C	0.949321	-0.359799	-0.118152
C35	C	0.951457	-0.410286	-0.178562
C36	C	0.936236	-0.535693	0.086507
C37	C	0.934102	-0.485213	0.146913
C38	C	0.937045	-0.392926	0.118966
C39	C	0.942115	-0.351119	0.030611
C40	C	0.934909	-0.342438	0.179375
C41	C	0.937846	-0.250151	0.151427
C42	C	0.945052	-0.258832	0.002663
C43	C	1.088296	0.035108	-0.010633
C44	C	1.176742	0.030373	-0.009205
C45	C	0.939518	0.214631	-0.064981
C46	C	0.942640	0.312852	-0.094718
N47	N	0.932482	0.064633	0.196767
N48	N	0.953083	0.039861	-0.228406
C49	C	0.983621	0.002969	0.259130
C50	C	0.979472	0.007976	0.345021
C51	C	0.924189	0.074651	0.368546
C52	C	0.873045	0.136318	0.306176
C53	C	0.877190	0.131307	0.220288
C54	C	0.906083	0.096516	0.623336
C55	C	0.901944	0.101525	0.709231
C56	C	1.008371	-0.026820	0.748070
C57	C	1.012514	-0.031822	0.662177
C58	C	0.961367	0.029842	0.599816
N59	N	0.919949	0.079772	0.456339
N60	N	0.965604	0.024717	0.512026
H61	H	0.535416	0.230292	-0.069739
O62	O	0.691299	0.234742	-0.071042
C63	C	0.666231	0.396675	-0.120124
C64	C	0.629604	0.309554	-0.093765
H65	H	0.616370	0.457181	-0.138520
H66	H	0.701932	0.402052	-0.063628
H67	H	0.707520	0.395280	-0.177802
H68	H	0.588281	0.310889	-0.036109
H69	H	0.593951	0.304210	-0.150310
O70	O	0.935688	-0.677197	0.051551
C71	C	0.997464	-0.713154	0.191805
C72	C	1.003007	-0.667205	0.094593
H73	H	1.051892	-0.705108	0.226630
H74	H	0.940726	-0.680662	0.219357
H75	H	0.995693	-0.787774	0.201384
H76	H	1.004811	-0.592584	0.084938
H77	H	1.059736	-0.699768	0.067088
O78	O	1.065932	-0.096955	0.639534
C79	C	1.085037	-0.225365	0.580378
C80	C	1.024570	-0.151422	0.605777
H81	H	1.051619	-0.269433	0.553098
H82	H	1.127618	-0.192963	0.529392
H83	H	1.120644	-0.268478	0.639908
H84	H	0.988908	-0.108285	0.546301
H85	H	0.982043	-0.183882	0.656795
H86	H	0.933836	-0.610837	0.109259
O87	O	0.930014	-0.383196	0.265172
C88	C	0.922237	-0.521511	0.374151
C89	C	0.927799	-0.475473	0.276962
H90	H	0.920428	-0.596120	0.383714
H91	H	0.976626	-0.513493	0.409060
H92	H	0.865477	-0.488979	0.401630
H93	H	0.984526	-0.507973	0.249407
H94	H	0.873370	-0.483484	0.242114
H95	H	0.856923	0.155824	0.728378
H96	H	0.949190	-0.224798	-0.069286
O97	O	0.955550	-0.512575	-0.296886
C98	C	0.962448	-0.530926	-0.441490
C99	C	0.956884	-0.576876	-0.344281
H100	H	0.963546	-0.582896	-0.479836
H101	H	0.908416	-0.475769	-0.462035
H102	H	1.019566	-0.500098	-0.454558
H103	H	0.899800	-0.607757	-0.331140
H104	H	1.010957	-0.631988	-0.323785
H105	H	0.565244	-0.065047	0.019687
O106	O	0.357850	-0.139006	0.042048
C107	C	0.365379	-0.299998	0.090852
C108	C	0.310666	-0.207982	0.063006
H109	H	0.327252	-0.355789	0.107821
H110	H	0.407453	-0.309546	0.035619
H111	H	0.401943	-0.302772	0.149793
H112	H	0.274051	-0.205143	0.004084
H113	H	0.268644	-0.198472	0.118288
H114	H	0.936092	-0.209046	0.200615
H115	H	0.199367	-0.117710	0.035627
H116	H	1.028642	-0.051322	0.239982
H117	H	1.050012	-0.077025	0.798852
O118	O	0.856371	0.156514	0.562866
C119	C	0.750343	0.284312	0.533424
C120	C	0.806610	0.216431	0.601995
H121	H	0.710086	0.332760	0.565037
H122	H	0.787321	0.323787	0.480560
H123	H	0.711928	0.246592	0.503917
H124	H	0.845037	0.254080	0.631569
H125	H	0.769585	0.176957	0.654806
O126	O	0.952061	-0.270122	-0.145210
C127	C	0.885472	-0.120206	-0.149131
C128	C	0.882277	-0.221739	-0.118417
H129	H	0.829051	-0.081058	-0.127497
H130	H	0.940211	-0.105354	-0.120043
H131	H	0.889502	-0.099036	-0.222654
H132	H	0.878218	-0.242979	-0.044900
H133	H	0.827547	-0.236534	-0.147569
O134	O	0.956353	-0.369808	-0.264428
C135	C	0.963252	-0.388159	-0.409032
C136	C	0.957688	-0.434109	-0.311823
H137	H	0.964350	-0.440129	-0.447378
H138	H	0.909219	-0.333002	-0.429577
H139	H	1.020369	-0.357331	-0.422100
H140	H	0.900604	-0.464990	-0.298682
H141	H	1.011761	-0.489221	-0.291327
H142	H	0.828028	0.190604	0.325336
H143	H	0.169552	0.177634	-0.053787
O144	O	0.949881	-0.694481	-0.241668
C145	C	1.019551	-0.818742	-0.291977
C146	C	1.017193	-0.763199	-0.225527
H147	H	1.073977	-0.874301	-0.278961
H148	H	0.962812	-0.850033	-0.286299
H149	H	1.023636	-0.772961	-0.359910
H150	H	1.013136	-0.808920	-0.157565
H151	H	1.073932	-0.731898	-0.231281
H152	H	0.929969	-0.519259	0.218854
O153	O	1.029240	-0.051962	0.405481
C154	C	1.135227	-0.179802	0.434943
C155	C	1.078919	-0.111968	0.366383
H156	H	1.175394	-0.228346	0.403362
H157	H	1.173724	-0.142140	0.464422
H158	H	1.098201	-0.219179	0.487825
H159	H	1.115881	-0.072573	0.313450
H160	H	1.040418	-0.149682	0.336973
O161	O	0.827481	0.191305	0.159807
C162	C	0.721451	0.319100	0.130353
C163	C	0.777715	0.251224	0.198929
H164	H	0.681189	0.367550	0.161961
H165	H	0.758430	0.358574	0.077489
H166	H	0.683039	0.281377	0.100845
H167	H	0.816138	0.288876	0.228504
H168	H	0.740689	0.211751	0.251739
H169	H	0.716002	-0.073129	0.022144
O170	O	0.325421	0.182080	-0.055101
C171	C	0.300341	0.344014	-0.104170
C172	C	0.263722	0.256887	-0.077818
H173	H	0.250475	0.404516	-0.122561
H174	H	0.336041	0.349389	-0.047672
H175	H	0.341629	0.342627	-0.161850
H176	H	0.222398	0.258213	-0.020159
H177	H	0.228070	0.251545	-0.134364
