data_functionalizedCrystal
_audit_creation_method	'MofGen! by Chris Wilmer'
_symmetry_space_group_name_H-M	'P1'
_symmetry_Int_Tables_number	1
_symmetry_cell_setting	triclinic
loop_
_symmetry_equiv_pos_as_xyz
  x,y,z
_cell_length_a	17.077404
_cell_length_b	19.805405
_cell_length_c	17.077396
_cell_angle_alpha	90.028963
_cell_angle_beta	90.019501
_cell_angle_gamma	90.026951
loop_
_atom_site_label
_atom_site_type_symbol
_atom_site_fract_x
_atom_site_fract_y
_atom_site_fract_z
Zn1	Zn	1.200034	-0.269459	0.443840
Zn2	Zn	1.199932	-0.382652	0.312573
Zn3	Zn	1.068765	-0.269483	0.312588
Zn4	Zn	1.068725	-0.382612	0.443797
O5	O	1.134364	-0.326052	0.378199
O6	O	1.309867	-0.284481	0.426439
O7	O	1.182507	-0.367667	0.202728
O8	O	1.086238	-0.174763	0.330023
O9	O	1.309792	-0.367644	0.329998
O10	O	1.182680	-0.174746	0.426454
O11	O	1.086140	-0.284522	0.202739
O12	O	0.958913	-0.284483	0.329981
O13	O	1.086169	-0.367575	0.553649
O14	O	0.958883	-0.367598	0.426380
O15	O	1.182641	-0.284442	0.553681
O16	O	1.182467	-0.477363	0.329956
O17	O	1.086070	-0.477334	0.426365
C18	C	0.930416	-0.326039	0.378178
C19	C	0.843166	-0.326050	0.378187
C20	C	0.802181	-0.369394	0.428301
C21	C	0.720201	-0.369395	0.428314
C22	C	0.679207	-0.326056	0.378208
C23	C	0.720198	-0.282708	0.328091
C24	C	0.802177	-0.282703	0.328083
C25	C	0.549328	-0.282721	0.328110
C26	C	0.467343	-0.282726	0.328117
C27	C	0.467352	-0.369413	0.428341
C28	C	0.549331	-0.369409	0.428333
C29	C	0.590316	-0.326061	0.378215
C30	C	1.134275	-0.501908	0.378171
C31	C	1.134308	-0.577140	0.378185
C32	C	1.184496	-0.612416	0.428436
C33	C	1.184524	-0.683105	0.428450
C34	C	1.134368	-0.718515	0.378210
C35	C	1.084175	-0.683233	0.327957
C36	C	1.084143	-0.612546	0.327947
C37	C	1.084301	-0.968307	0.327997
C38	C	1.084338	-1.038999	0.328009
C39	C	1.184682	-1.038865	0.428501
C40	C	1.184650	-0.968178	0.428491
C41	C	1.134454	-0.932902	0.378241
C42	C	1.134423	-0.856254	0.378227
C43	C	1.134403	-0.795162	0.378219
C44	C	1.339108	-0.326064	0.378222
C45	C	1.426358	-0.326070	0.378231
C46	C	1.134411	-0.326002	0.582944
C47	C	1.134432	-0.325980	0.670194
C48	C	1.134475	-0.149509	0.378245
C49	C	1.134523	-0.074277	0.378265
C50	C	1.134362	-0.326052	0.174252
C51	C	1.134494	-0.325883	0.087002
C52	C	1.184667	-0.282689	0.711202
C53	C	1.184676	-0.282667	0.793182
C54	C	1.134454	-0.325939	0.834153
C55	C	1.084214	-0.369232	0.793139
C56	C	1.084201	-0.369251	0.711160
C57	C	1.084245	-0.369191	0.964009
C58	C	1.084259	-0.369174	1.045994
C59	C	1.184720	-0.282608	1.046031
C60	C	1.184708	-0.282626	0.964052
C61	C	1.134468	-0.325920	0.923044
H62	H	0.582696	-0.247417	0.287306
H63	H	0.835546	-0.247405	0.287279
O64	O	1.233318	-0.717452	0.477148
C65	C	1.284065	-0.758315	0.432498
H66	H	1.256411	-0.768952	0.372989
H67	H	1.294588	-0.808000	0.464483
H68	H	1.342231	-0.731038	0.423918
O69	O	1.035720	-1.073428	0.279126
C70	C	1.080454	-1.114324	0.228482
H71	H	1.142269	-1.092974	0.223676
H72	H	1.052089	-1.115185	0.168051
H73	H	1.083177	-1.167879	0.252767
O74	O	1.233506	-0.240706	0.833109
C75	C	1.284198	-0.279229	0.880523
H76	H	1.256486	-0.330521	0.892781
H77	H	1.294731	-0.251645	0.938181
H78	H	1.342366	-0.286672	0.848947
O79	O	1.233396	-0.933886	0.477369
C80	C	1.277714	-0.980181	0.521713
H81	H	1.245585	-1.030593	0.524408
H82	H	1.286040	-0.959717	0.583565
H83	H	1.337352	-0.987669	0.493025
O84	O	1.035528	-0.934151	0.279103
C85	C	0.991260	-0.980565	0.234772
H86	H	1.023438	-1.030931	0.232101
H87	H	0.982921	-0.960186	0.172911
H88	H	0.931625	-0.988111	0.263456
H89	H	1.043334	-0.712070	0.287053
H90	H	1.225551	-1.067595	0.469419
O91	O	1.233479	-0.240590	0.671527
C92	C	1.277831	-0.202388	0.725306
H93	H	1.245689	-0.200030	0.783738
H94	H	1.286234	-0.149064	0.701637
H95	H	1.337435	-0.227175	0.734029
H96	H	1.043286	-0.404496	0.677773
O97	O	0.589032	-0.411530	0.477077
C98	C	0.535281	-0.449803	0.521301
H99	H	0.476856	-0.422088	0.524086
H100	H	0.558995	-0.457090	0.583129
H101	H	0.526527	-0.501177	0.492449
H102	H	1.043274	-0.583824	0.287029
H103	H	0.835552	-0.404688	0.469101
O104	O	1.035466	-0.411361	0.832851
C105	C	1.052587	-0.478827	0.812816
H106	H	1.082751	-0.480245	0.753298
H107	H	0.995915	-0.509173	0.809994
H108	H	1.092939	-0.501616	0.858954
H109	H	1.225607	-0.247394	0.930696
H110	H	1.225626	-0.247355	1.079424
H111	H	0.433977	-0.404706	0.469150
O112	O	0.680297	-0.411534	0.476880
C113	C	0.632850	-0.455209	0.432096
H114	H	0.620558	-0.431267	0.372661
H115	H	0.575210	-0.464317	0.464054
H116	H	0.664413	-0.505358	0.423360
O117	O	1.035397	-0.411226	1.085673
C118	C	0.991060	-0.449450	1.031902
H119	H	0.988349	-0.421742	0.973471
H120	H	0.929213	-0.456655	1.055581
H121	H	1.019765	-0.500863	1.023174
H122	H	0.433968	-0.247428	0.287326
O123	O	0.680500	-0.240544	0.279392
C124	C	0.734258	-0.202299	0.235145
H125	H	0.792709	-0.199985	0.267298
H126	H	0.710592	-0.148963	0.226882
H127	H	0.742941	-0.227020	0.175476
H128	H	1.043322	-0.404435	0.930623
H129	H	1.225342	-0.583590	0.469344
