data_functionalizedCrystal
_audit_creation_method	'MofGen! by Chris Wilmer'
_symmetry_space_group_name_H-M	'P1'
_symmetry_Int_Tables_number	1
_symmetry_cell_setting	triclinic
loop_
_symmetry_equiv_pos_as_xyz
  x,y,z
_cell_length_a	17.077404
_cell_length_b	18.050590
_cell_length_c	17.077395
_cell_angle_alpha	89.971485
_cell_angle_beta	89.985498
_cell_angle_gamma	90.016523
loop_
_atom_site_label
_atom_site_type_symbol
_atom_site_fract_x
_atom_site_fract_y
_atom_site_fract_z
Zn1	Zn	1.200048	-0.295709	-0.443812
Zn2	Zn	1.450048	-0.045709	-0.193812
Zn3	Zn	1.700048	0.204291	0.056188
Zn4	Zn	1.950048	0.454291	0.306188
Zn5	Zn	1.199974	-0.419903	-0.312543
Zn6	Zn	1.449974	-0.169903	-0.062543
Zn7	Zn	1.699974	0.080097	0.187457
Zn8	Zn	1.949974	0.330097	0.437457
Zn9	Zn	1.068789	-0.295727	-0.312562
Zn10	Zn	1.318789	-0.045727	-0.062562
Zn11	Zn	1.568789	0.204273	0.187438
Zn12	Zn	1.818789	0.454273	0.437438
Zn13	Zn	1.068758	-0.419857	-0.443769
Zn14	Zn	1.318758	-0.169857	-0.193769
Zn15	Zn	1.568758	0.080143	0.056231
Zn16	Zn	1.818758	0.330143	0.306231
O17	O	1.134392	-0.357799	-0.378171
O18	O	1.384392	-0.107799	-0.128171
O19	O	1.634392	0.142201	0.121829
O20	O	1.884392	0.392201	0.371829
O21	O	1.309885	-0.312195	-0.426408
O22	O	1.559885	-0.062195	-0.176408
O23	O	1.809885	0.187805	0.073592
O24	O	2.059885	0.437805	0.323592
O25	O	1.182554	-0.403458	-0.202698
O26	O	1.432554	-0.153458	0.047302
O27	O	1.682554	0.096542	0.297302
O28	O	1.932554	0.346542	0.547302
O29	O	1.086245	-0.191800	-0.329999
O30	O	1.336245	0.058200	-0.079999
O31	O	1.586245	0.308200	0.170001
O32	O	1.836245	0.558200	0.420001
O33	O	1.309831	-0.403440	-0.329966
O34	O	1.559831	-0.153440	-0.079966
O35	O	1.809831	0.096560	0.170034
O36	O	2.059831	0.346560	0.420034
O37	O	1.182680	-0.191787	-0.426427
O38	O	1.432680	0.058213	-0.176427
O39	O	1.682680	0.308213	0.073573
O40	O	1.932680	0.558213	0.323573
O41	O	1.086173	-0.312227	-0.202713
O42	O	1.336173	-0.062227	0.047287
O43	O	1.586173	0.187773	0.297287
O44	O	1.836173	0.437773	0.547287
O45	O	0.958938	-0.312182	-0.329957
O46	O	1.208938	-0.062182	-0.079957
O47	O	1.458938	0.187818	0.170043
O48	O	1.708938	0.437818	0.420043
O49	O	1.086192	-0.403362	-0.553622
O50	O	1.336192	-0.153362	-0.303622
O51	O	1.586192	0.096638	-0.053622
O52	O	1.836192	0.346638	0.196378
O53	O	0.958915	-0.403379	-0.426354
O54	O	1.208915	-0.153379	-0.176354
O55	O	1.458915	0.096621	0.073646
O56	O	1.708915	0.346621	0.323646
O57	O	1.182650	-0.312150	-0.553653
O58	O	1.432650	-0.062150	-0.303653
O59	O	1.682650	0.187850	-0.053653
O60	O	1.932650	0.437850	0.196347
O61	O	1.182524	-0.523822	-0.329924
O62	O	1.432524	-0.273822	-0.079924
O63	O	1.682524	-0.023822	0.170076
O64	O	1.932524	0.226178	0.420076
O65	O	1.086120	-0.523788	-0.426336
O66	O	1.336120	-0.273788	-0.176336
O67	O	1.586120	-0.023788	0.073664
O68	O	1.836120	0.226212	0.323664
C69	C	0.930445	-0.357778	-0.378154
C70	C	1.180445	-0.107778	-0.128154
C71	C	1.430445	0.142222	0.121846
C72	C	1.680445	0.392222	0.371846
C73	C	0.843195	-0.357787	-0.378165
C74	C	1.093195	-0.107787	-0.128165
C75	C	1.343195	0.142213	0.121835
C76	C	1.593195	0.392213	0.371835
C77	C	0.802234	-0.310360	-0.428459
C78	C	1.052234	-0.060360	-0.178459
C79	C	1.302234	0.189640	0.071541
C80	C	1.552234	0.439640	0.321541
C81	C	0.720253	-0.310365	-0.428463
C82	C	0.970253	-0.060365	-0.178463
C83	C	1.220253	0.189635	0.071537
C84	C	1.470253	0.439635	0.321537
C85	C	0.679235	-0.357801	-0.378176
C86	C	0.929235	-0.107801	-0.128176
C87	C	1.179235	0.142199	0.121824
C88	C	1.429235	0.392199	0.371824
C89	C	0.720202	-0.405230	-0.327876
C90	C	0.970202	-0.155230	-0.077876
C91	C	1.220202	0.094770	0.172124
C92	C	1.470202	0.344770	0.422124
C93	C	0.802181	-0.405221	-0.327869
C94	C	1.052181	-0.155221	-0.077869
C95	C	1.302181	0.094779	0.172131
C96	C	1.552181	0.344779	0.422131
C97	C	0.549332	-0.405247	-0.327895
C98	C	0.799332	-0.155247	-0.077895
C99	C	1.049332	0.094753	0.172105
C100	C	1.299332	0.344753	0.422105
C101	C	0.467347	-0.405257	-0.327903
C102	C	0.717347	-0.155257	-0.077903
C103	C	0.967347	0.094743	0.172097
C104	C	1.217347	0.344743	0.422097
C105	C	0.467404	-0.310391	-0.428489
C106	C	0.717404	-0.060391	-0.178489
C107	C	0.967404	0.189609	0.071511
C108	C	1.217404	0.439609	0.321511
C109	C	0.549383	-0.310382	-0.428482
C110	C	0.799383	-0.060382	-0.178482
C111	C	1.049383	0.189618	0.071518
C112	C	1.299383	0.439618	0.321518
C113	C	0.590344	-0.357812	-0.378183
C114	C	0.840344	-0.107812	-0.128183
C115	C	1.090344	0.142188	0.121817
C116	C	1.340344	0.392188	0.371817
C117	C	1.134332	-0.550751	-0.378140
C118	C	1.384332	-0.300751	-0.128140
C119	C	1.634332	-0.050751	0.121860
C120	C	1.884332	0.199249	0.371860
C121	C	1.134378	-0.633297	-0.378153
C122	C	1.384378	-0.383297	-0.128153
C123	C	1.634378	-0.133297	0.121847
C124	C	1.884378	0.116703	0.371847
C125	C	1.186912	-0.832739	-0.325798
C126	C	1.436912	-0.582739	-0.075798
C127	C	1.686912	-0.332739	0.174202
C128	C	1.936912	-0.082739	0.424202
C129	C	1.206082	-0.882072	-0.397440
C130	C	1.456082	-0.632072	-0.147440
C131	C	1.706082	-0.382072	0.102560
C132	C	1.956082	-0.132072	0.352560
C133	C	1.134423	-0.784427	-0.378184
C134	C	1.384423	-0.534427	-0.128184
C135	C	1.634423	-0.284427	0.121816
C136	C	1.884423	-0.034427	0.371816
C137	C	1.115333	-0.882176	-0.306574
C138	C	1.365333	-0.632176	-0.056574
C139	C	1.615333	-0.382176	0.193426
C140	C	1.865333	-0.132176	0.443426
C141	C	1.134467	-0.930413	-0.378208
C142	C	1.384467	-0.680413	-0.128208
C143	C	1.634467	-0.430413	0.121792
C144	C	1.884467	-0.180413	0.371792
C145	C	1.153629	-0.832673	-0.449864
C146	C	1.403629	-0.582673	-0.199864
C147	C	1.653629	-0.332673	0.050136
C148	C	1.903629	-0.082673	0.300136
C149	C	1.062847	-0.832773	-0.358950
C150	C	1.312847	-0.582773	-0.108950
C151	C	1.562847	-0.332773	0.141050
C152	C	1.812847	-0.082773	0.391050
C153	C	1.081990	-0.882083	-0.430642
C154	C	1.331990	-0.632083	-0.180642
C155	C	1.581990	-0.382083	0.069358
C156	C	1.831990	-0.132083	0.319358
C157	C	1.134399	-0.700329	-0.378170
C158	C	1.384399	-0.450329	-0.128170
C159	C	1.634399	-0.200329	0.121830
C160	C	1.884399	0.049671	0.371830
C161	C	1.134491	-1.014509	-0.378231
C162	C	1.384491	-0.764509	-0.128231
C163	C	1.634491	-0.514509	0.121769
C164	C	1.884491	-0.264509	0.371769
C165	C	1.339137	-0.357821	-0.378190
C166	C	1.589137	-0.107821	-0.128190
C167	C	1.839137	0.142179	0.121810
C168	C	2.089137	0.392179	0.371810
C169	C	1.426386	-0.357830	-0.378197
C170	C	1.676386	-0.107830	-0.128197
C171	C	1.926386	0.142170	0.121803
C172	C	2.176386	0.392170	0.371803
C173	C	1.134426	-0.357749	-0.582916
C174	C	1.384426	-0.107749	-0.332916
C175	C	1.634426	0.142251	-0.082916
C176	C	1.884426	0.392251	0.167084
C177	C	1.134440	-0.357727	-0.670166
C178	C	1.384440	-0.107727	-0.420166
C179	C	1.634440	0.142273	-0.170166
C180	C	1.884440	0.392273	0.079834
C181	C	1.134474	-0.164094	-0.378220
C182	C	1.384474	0.085906	-0.128220
C183	C	1.634474	0.335906	0.121780
C184	C	1.884474	0.585906	0.371780
C185	C	1.134509	-0.081548	-0.378241
C186	C	1.384509	0.168452	-0.128241
C187	C	1.634509	0.418452	0.121759
C188	C	1.884509	0.668452	0.371759
C189	C	1.184753	-0.310133	-1.045998
C190	C	1.434753	-0.060133	-0.795998
C191	C	1.684753	0.189867	-0.545998
C192	C	1.934753	0.439867	-0.295998
C193	C	1.184737	-0.310159	-0.964017
C194	C	1.434737	-0.060159	-0.714017
C195	C	1.684737	0.189841	-0.464017
C196	C	1.934737	0.439841	-0.214017
C197	C	1.134505	-0.357657	-0.923015
C198	C	1.384505	-0.107657	-0.673015
C199	C	1.634505	0.142343	-0.423015
C200	C	1.884505	0.392343	-0.173015
C201	C	1.084291	-0.405138	-0.963997
C202	C	1.334291	-0.155138	-0.713997
C203	C	1.584291	0.094862	-0.463997
C204	C	1.834291	0.344862	-0.213997
C205	C	1.084312	-0.405115	-1.045976
C206	C	1.334312	-0.155115	-0.795976
C207	C	1.584312	0.094885	-0.545976
C208	C	1.834312	0.344885	-0.295976
C209	C	1.084251	-0.405181	-0.793127
C210	C	1.334251	-0.155181	-0.543127
C211	C	1.584251	0.094819	-0.293127
C212	C	1.834251	0.344819	-0.043127
C213	C	1.084229	-0.405203	-0.711142
C214	C	1.334229	-0.155203	-0.461142
C215	C	1.584229	0.094797	-0.211142
C216	C	1.834229	0.344797	0.038858
C217	C	1.184676	-0.310225	-0.711168
C218	C	1.434676	-0.060225	-0.461168
C219	C	1.684676	0.189775	-0.211168
C220	C	1.934676	0.439775	0.038832
C221	C	1.184697	-0.310202	-0.793147
C222	C	1.434697	-0.060202	-0.543147
C223	C	1.684697	0.189798	-0.293147
C224	C	1.934697	0.439798	-0.043147
C225	C	1.134482	-0.357682	-0.834124
C226	C	1.384482	-0.107682	-0.584124
C227	C	1.634482	0.142318	-0.334124
C228	C	1.884482	0.392318	-0.084124
C229	C	1.134404	-0.357796	-0.174224
C230	C	1.384404	-0.107796	0.075776
C231	C	1.634404	0.142204	0.325776
C232	C	1.884404	0.392204	0.575776
C233	C	1.134542	-0.357608	-0.086974
C234	C	1.384542	-0.107608	0.163026
C235	C	1.634542	0.142392	0.413026
C236	C	1.884542	0.392392	0.663026
H237	H	0.433953	-0.443884	-0.286955
H238	H	0.683953	-0.193884	-0.036955
H239	H	0.933953	0.056116	0.213045
H240	H	1.183953	0.306116	0.463045
F241	F	1.030832	-0.455691	-0.920357
F242	F	1.280832	-0.205691	-0.670357
F243	F	1.530832	0.044309	-0.420357
F244	F	1.780832	0.294309	-0.170357
H245	H	1.225562	-0.271563	-0.677801
H246	H	1.475562	-0.021563	-0.427801
H247	H	1.725562	0.228437	-0.177801
H248	H	1.975562	0.478437	0.072199
F249	F	0.593036	-0.259901	-0.482010
F250	F	0.843036	-0.009901	-0.232010
F251	F	1.093036	0.240099	0.017990
F252	F	1.343036	0.490099	0.267990
H253	H	1.043307	-0.443863	-0.677760
H254	H	1.293307	-0.193863	-0.427760
H255	H	1.543307	0.056137	-0.177760
H256	H	1.793307	0.306137	0.072240
H257	H	0.434050	-0.271770	-0.469443
H258	H	0.684050	-0.021770	-0.219443
H259	H	0.934050	0.228230	0.030557
H260	H	1.184050	0.478230	0.280557
H261	H	0.582680	-0.443868	-0.286934
H262	H	0.832680	-0.193868	-0.036934
H263	H	1.082680	0.056132	0.213066
H264	H	1.332680	0.306132	0.463066
H265	H	1.043425	-0.443775	-1.079338
H266	H	1.293425	-0.193775	-0.829338
H267	H	1.543425	0.056225	-0.579338
H268	H	1.793425	0.306225	-0.329338
H269	H	1.231315	-0.811072	-0.281542
H270	H	1.481315	-0.561072	-0.031542
H271	H	1.731315	-0.311072	0.218458
H272	H	1.981315	-0.061072	0.468458
H273	H	0.686799	-0.443849	-0.286927
H274	H	0.936799	-0.193849	-0.036927
H275	H	1.186799	0.056151	0.213073
H276	H	1.436799	0.306151	0.463073
H277	H	0.835531	-0.443840	-0.286913
H278	H	1.085531	-0.193840	-0.036913
H279	H	1.335531	0.056160	0.213087
H280	H	1.585531	0.306160	0.463087
H281	H	0.835625	-0.271734	-0.469411
H282	H	1.085625	-0.021734	-0.219411
H283	H	1.335625	0.228266	0.030589
H284	H	1.585625	0.478266	0.280589
F285	F	1.023996	-0.910227	-0.488625
F286	F	1.273996	-0.660227	-0.238625
F287	F	1.523996	-0.410227	0.011375
F288	F	1.773996	-0.160227	0.261375
F289	F	1.030806	-0.455715	-0.836735
F290	F	1.280806	-0.205715	-0.586735
F291	F	1.530806	0.044285	-0.336735
F292	F	1.780806	0.294285	-0.086735
F293	F	0.676663	-0.259888	-0.481995
F294	F	0.926663	-0.009888	-0.231995
F295	F	1.176663	0.240112	0.018005
F296	F	1.426663	0.490112	0.268005
F297	F	1.285225	-0.910366	-0.418736
F298	F	1.535225	-0.660366	-0.168736
F299	F	1.785225	-0.410366	0.081264
F300	F	2.035225	-0.160366	0.331264
F301	F	1.094203	-0.910598	-0.227407
F302	F	1.344203	-0.660598	0.022593
F303	F	1.594203	-0.410598	0.272593
F304	F	1.844203	-0.160598	0.522593
F305	F	1.174859	-0.804376	-0.529055
F306	F	1.424859	-0.554376	-0.279055
F307	F	1.674859	-0.304376	-0.029055
F308	F	1.924859	-0.054376	0.220945
H309	H	1.225653	-0.271449	-1.079376
H310	H	1.475653	-0.021449	-0.829376
H311	H	1.725653	0.228551	-0.579376
H312	H	1.975653	0.478551	-0.329376
H313	H	1.002315	-0.811100	-0.342645
H314	H	1.252315	-0.561100	-0.092645
H315	H	1.502315	-0.311100	0.157355
H316	H	1.752315	-0.061100	0.407355
F317	F	1.238180	-0.259630	-0.920411
F318	F	1.488180	-0.009630	-0.670411
F319	F	1.738180	0.240370	-0.420411
F320	F	1.988180	0.490370	-0.170411
F321	F	1.238169	-0.259658	-0.836784
F322	F	1.488169	-0.009658	-0.586784
F323	F	1.738169	0.240342	-0.336784
F324	F	1.988169	0.490342	-0.086784
