data_functionalizedCrystal
_audit_creation_method	'MofGen! by Chris Wilmer'
_symmetry_space_group_name_H-M	'P1'
_symmetry_Int_Tables_number	1
_symmetry_cell_setting	triclinic
loop_
_symmetry_equiv_pos_as_xyz
  x,y,z
_cell_length_a	13.897449
_cell_length_b	16.625539
_cell_length_c	13.897448
_cell_angle_alpha	90.027549
_cell_angle_beta	89.981481
_cell_angle_gamma	89.977908
loop_
_atom_site_label
_atom_site_type_symbol
_atom_site_fract_x
_atom_site_fract_y
_atom_site_fract_z
Zn1	Zn	1.474690	-0.455946	0.383992
Zn2	Zn	1.974690	0.044054	0.883992
Zn3	Zn	1.474588	-0.321115	0.545305
Zn4	Zn	1.974588	0.178885	1.045305
Zn5	Zn	1.313383	-0.321123	0.384028
Zn6	Zn	1.813383	0.178877	0.884028
Zn7	Zn	1.313361	-0.455902	0.545249
Zn8	Zn	1.813361	0.044098	1.045249
O9	O	1.394006	-0.388522	0.464643
O10	O	1.894006	0.111478	0.964643
O11	O	1.609658	-0.438076	0.405399
O12	O	2.109658	0.061924	0.905399
O13	O	1.453170	-0.208284	0.523950
O14	O	1.953170	0.291716	1.023950
O15	O	1.334833	-0.339030	0.249042
O16	O	1.834833	0.160970	0.749042
O17	O	1.609583	-0.339016	0.523915
O18	O	2.109583	0.160984	1.023915
O19	O	1.453345	-0.438084	0.249015
O20	O	1.953345	0.061916	0.749015
O21	O	1.334734	-0.208290	0.405460
O22	O	1.834734	0.291710	0.905460
O23	O	1.178399	-0.338987	0.405406
O24	O	1.678399	0.161013	0.905406
O25	O	1.334795	-0.568740	0.523819
O26	O	1.834795	-0.068740	1.023819
O27	O	1.178382	-0.438008	0.523854
O28	O	1.678382	0.061992	1.023854
O29	O	1.453323	-0.568773	0.405344
O30	O	1.953323	-0.068773	0.905344
O31	O	1.453149	-0.338973	0.680279
O32	O	1.953149	0.161027	1.180279
O33	O	1.334696	-0.438000	0.680238
O34	O	1.834696	0.062000	1.180238
C35	C	1.143391	-0.388494	0.464629
C36	C	1.643391	0.111506	0.964629
C37	C	1.036177	-0.388501	0.464645
C38	C	1.536177	0.111499	0.964645
C39	C	0.949108	-0.388514	0.464649
C40	C	1.449108	0.111486	0.964649
C41	C	0.839875	-0.388539	0.464655
C42	C	1.339875	0.111461	0.964655
C43	C	1.394068	-0.598831	0.464572
C44	C	1.894068	-0.098831	0.964572
C45	C	1.394095	-0.688452	0.464541
C46	C	1.894095	-0.188452	0.964541
C47	C	1.394139	-1.016628	0.464433
C48	C	1.894139	-0.516628	0.964433
C49	C	1.394124	-0.925319	0.464466
C50	C	1.894124	-0.425319	0.964466
C51	C	1.394118	-0.852543	0.464488
C52	C	1.894118	-0.352543	0.964488
C53	C	1.394102	-0.761228	0.464519
C54	C	1.894102	-0.261228	0.964519
C55	C	1.645599	-0.388550	0.464659
C56	C	2.145599	0.111450	0.964659
C57	C	1.752812	-0.388563	0.464666
C58	C	2.252812	0.111437	0.964666
C59	C	1.393935	-0.388498	0.715258
C60	C	1.893935	0.111502	1.215258
C61	C	1.393993	-0.388515	0.822472
C62	C	1.893993	0.111485	1.322472
C63	C	1.393999	-0.179031	0.464645
C64	C	1.893999	0.320969	0.964645
C65	C	1.394159	-0.089410	0.464404
C66	C	1.894159	0.410590	0.964404
C67	C	1.394103	-0.388563	0.213050
C68	C	1.894103	0.111437	0.713050
C69	C	1.394144	-0.388580	0.105836
C70	C	1.894144	0.111420	0.605836
C71	C	1.394095	-0.388566	1.018767
C72	C	1.894095	0.111434	1.518767
C73	C	1.394036	-0.388540	0.909534
C74	C	1.894036	0.111460	1.409534
