data_functionalizedCrystal
_audit_creation_method	'MofGen! by Chris Wilmer'
_symmetry_space_group_name_H-M	'P1'
_symmetry_Int_Tables_number	1
_symmetry_cell_setting	triclinic
loop_
_symmetry_equiv_pos_as_xyz
  x,y,z
_cell_length_a	9.065215
_cell_length_b	14.853567
_cell_length_c	8.140239
_cell_angle_alpha	90.000276
_cell_angle_beta	89.997810
_cell_angle_gamma	84.324814
loop_
_atom_site_label
_atom_site_type_symbol
_atom_site_fract_x
_atom_site_fract_y
_atom_site_fract_z
O1	O	1.957781	0.132179	-0.136579
O2	O	2.457781	0.632179	0.363421
O3	O	1.528280	0.143024	-0.136585
O4	O	2.028280	0.643024	0.363415
O5	O	1.754503	0.006456	-0.136587
O6	O	2.254503	0.506456	0.363413
O7	O	1.731558	0.268746	-0.136577
O8	O	2.231558	0.768746	0.363423
O9	O	1.754490	0.006455	0.136641
O10	O	2.254490	0.506455	0.636641
O11	O	1.528268	0.143023	0.136642
O12	O	2.028268	0.643023	0.636642
O13	O	1.957768	0.132177	0.136648
O14	O	2.457768	0.632177	0.636648
Zn15	Zn	1.743016	0.137599	0.180026
Zn16	Zn	2.243016	0.637599	0.680026
Zn17	Zn	1.743032	0.137602	-0.179962
Zn18	Zn	2.243032	0.637602	0.320038
O19	O	1.731545	0.268745	0.136650
O20	O	2.231545	0.768745	0.636650
C21	C	1.473308	0.141982	0.000028
C22	C	1.973308	0.641982	0.500028
C23	C	1.309527	0.138867	0.000025
C24	C	1.809527	0.638867	0.500025
C25	C	1.753457	-0.027141	0.000022
C26	C	2.253457	0.472859	0.500022
C27	C	1.750342	-0.127248	0.000008
C28	C	2.250342	0.372752	0.500008
C29	C	1.602790	-0.540872	0.000037
C30	C	2.102790	-0.040872	0.500037
C31	C	1.871548	-0.560166	0.000041
C32	C	2.371548	-0.060166	0.500041
C33	C	1.874478	-0.466111	0.000031
C34	C	2.374478	0.033889	0.500031
C35	C	1.741561	-0.409432	0.000027
C36	C	2.241561	0.090568	0.500027
C37	C	1.605716	-0.446808	0.000032
C38	C	2.105716	0.053192	0.500032
C39	C	2.010321	-0.428727	0.000042
C40	C	2.510321	0.071273	0.500042
C41	C	2.013256	-0.334666	0.000035
C42	C	2.513256	0.165334	0.500035
C43	C	1.880338	-0.277986	0.000019
C44	C	2.380338	0.222014	0.500019
C45	C	1.744487	-0.315367	0.000022
C46	C	2.244487	0.184633	0.500022
C47	C	1.611571	-0.258688	0.000018
C48	C	2.111571	0.241312	0.500018
C49	C	1.475718	-0.296068	0.000010
C50	C	1.975718	0.203932	0.500010
C51	C	1.472798	-0.390127	0.000016
C52	C	1.972798	0.109873	0.500016
C53	C	1.883258	-0.183927	0.000012
C54	C	2.383258	0.316073	0.500012
C55	C	1.614496	-0.164624	0.000013
C56	C	2.114496	0.335376	0.500013
C57	C	2.012740	0.133219	0.000032
C58	C	2.512740	0.633219	0.500032
C59	C	2.176522	0.136334	0.000024
C60	C	2.676522	0.636334	0.500024
C61	C	1.732591	0.302342	0.000038
C62	C	2.232591	0.802342	0.500038
C63	C	1.735707	0.402449	0.000041
C64	C	2.235707	0.902449	0.500041
N65	N	1.743015	0.137597	0.425709
N66	N	2.243015	0.637597	0.925709
N67	N	1.743044	0.137597	-0.425645
N68	N	2.243044	0.637597	0.074355
H69	H	1.506258	-0.118481	0.000003
H70	H	2.006258	0.381519	0.500003
H71	H	2.123875	-0.304240	0.000039
H72	H	2.623875	0.195760	0.500039
H73	H	1.993867	-0.153496	0.000030
H74	H	2.493867	0.346504	0.500030
C75	C	2.156518	-0.491068	0.000046
C76	C	2.656518	0.008932	0.500046
H77	H	2.237842	-0.455337	0.000064
H78	H	2.737842	0.044663	0.500064
H79	H	2.160966	-0.528161	-0.095236
H80	H	2.660966	-0.028161	0.404764
H81	H	2.160952	-0.528162	0.095337
H82	H	2.660952	-0.028162	0.595337
C83	C	1.329519	-0.233716	0.000003
C84	C	1.829519	0.266284	0.500003
H85	H	1.350728	-0.172346	-0.000005
H86	H	1.850728	0.327654	0.499995
H87	H	1.273811	-0.245162	0.095276
H88	H	1.773811	0.254838	0.595276
H89	H	1.273837	-0.245161	-0.095297
H90	H	1.773837	0.254839	0.404703
H91	H	1.492182	-0.571311	0.000024
H92	H	1.992182	-0.071311	0.500024
C93	C	2.017747	-0.622505	0.000047
C94	C	2.517747	-0.122505	0.500047
H95	H	2.099070	-0.586772	0.000052
H96	H	2.599070	-0.086772	0.500052
H97	H	2.022193	-0.659604	-0.095227
H98	H	2.522193	-0.159604	0.404773
H99	H	2.022188	-0.659593	0.095345
H100	H	2.522188	-0.159593	0.595345
H101	H	1.362194	-0.420571	0.000012
H102	H	1.862194	0.079429	0.500012
