data_functionalizedCrystal
_audit_creation_method	'MofGen! by Chris Wilmer'
_symmetry_space_group_name_H-M	'P1'
_symmetry_Int_Tables_number	1
_symmetry_cell_setting	triclinic
loop_
_symmetry_equiv_pos_as_xyz
  x,y,z
_cell_length_a	17.699083
_cell_length_b	19.288864
_cell_length_c	17.766277
_cell_angle_alpha	90.023209
_cell_angle_beta	89.992740
_cell_angle_gamma	96.790370
loop_
_atom_site_label
_atom_site_type_symbol
_atom_site_fract_x
_atom_site_fract_y
_atom_site_fract_z
O1	O	0.094417	-0.921465	-0.062837
O2	O	0.107154	-0.719219	-0.062786
O3	O	-0.009412	-0.826056	-0.062806
O4	O	0.210983	-0.814628	-0.062817
O5	O	-0.009417	-0.826037	0.062382
O6	O	0.107148	-0.719201	0.062403
O7	O	0.094411	-0.921446	0.062351
Cu8	Cu	0.100779	-0.820322	0.073808
Cu9	Cu	0.100786	-0.820344	-0.074242
O10	O	0.210977	-0.814609	0.062372
C11	C	0.106741	-0.693333	-0.000185
C12	C	0.105511	-0.616228	-0.000165
C13	C	-0.037611	-0.825637	-0.000212
C14	C	-0.121627	-0.824409	-0.000211
C15	C	0.094824	-0.947332	-0.000251
C16	C	0.096054	-1.024437	-0.000276
C17	C	-0.170336	-0.887120	-0.000226
C18	C	-0.249278	-0.885961	-0.000232
C19	C	-0.279509	-0.822091	-0.000219
C20	C	-0.230794	-0.759375	-0.000206
C21	C	-0.151854	-0.760535	-0.000205
C22	C	-0.549150	-0.754699	-0.000211
C23	C	-0.628097	-0.753545	-0.000210
C24	C	-0.646575	-0.880126	-0.000238
C25	C	-0.567635	-0.881285	-0.000237
C26	C	-0.518926	-0.818570	-0.000229
C27	C	-0.433329	-0.819827	-0.000223
C28	C	-0.365105	-0.820834	-0.000219
C29	C	0.239176	-0.815028	-0.000224
C30	C	0.323193	-0.816257	-0.000230
N31	N	0.100774	-0.820311	0.177938
C32	C	0.173906	-0.571613	-0.000180
C33	C	0.172751	-0.499164	-0.000188
C34	C	0.103196	-0.471334	-0.000197
C35	C	0.034791	-0.515959	-0.000177
C36	C	0.035949	-0.588406	-0.000162
C37	C	0.048520	-0.363014	-0.044079
C38	C	0.047365	-0.290568	-0.044099
C39	C	0.099622	-0.247884	-0.000242
C40	C	0.153047	-0.277654	0.043625
C41	C	0.154204	-0.350101	0.043641
C42	C	0.101932	-0.392779	-0.000213
C43	C	0.166769	-0.124712	-0.000265
C44	C	0.165610	-0.052262	-0.000269
C45	C	0.027649	-0.069059	-0.000265
C46	C	0.028809	-0.141507	-0.000254
C47	C	0.098371	-0.169329	-0.000258
N48	N	0.100786	-0.820360	-0.178372
C49	C	0.049184	-0.867634	0.217316
C50	C	0.049180	-0.867638	0.296118
C51	C	0.100780	-0.820326	0.335539
C52	C	0.152374	-0.772994	0.296151
C53	C	0.152371	-0.772987	0.217351
C54	C	0.169742	-0.811109	0.460375
C55	C	0.169746	-0.811121	0.539174
C56	C	0.100789	-0.820344	0.578585
C57	C	0.031825	-0.829570	0.539188
C58	C	0.031822	-0.829563	0.460388
C59	C	0.100789	-0.820328	0.420984
C60	C	0.049191	-0.867674	0.703409
C61	C	0.049186	-0.867673	0.782212
C62	C	0.152386	-0.773033	0.782244
C63	C	0.152384	-0.773030	0.703442
C64	C	0.100787	-0.820355	0.664029
H65	H	-0.145729	-0.939130	-0.000233
H66	H	-0.288934	-0.937027	-0.000243
H67	H	-0.543025	-0.933295	-0.000245
N68	N	0.244123	-0.801161	0.417873
H69	H	0.275566	-0.839720	0.431560
H70	H	0.233593	-0.802537	0.361990
N71	N	-0.006467	-0.918671	0.174806
H72	H	-0.039151	-0.948650	0.211715
H73	H	-0.039857	-0.892137	0.142134
N74	N	0.208036	-0.722000	0.660960
H75	H	0.179196	-0.691296	0.628287
H76	H	0.240714	-0.692074	0.697931
N77	N	-0.044965	-0.189627	-0.000241
H78	H	-0.075321	-0.180716	-0.046650
H79	H	-0.033619	-0.239725	-0.000200
H80	H	0.230549	-0.594260	-0.000184
H81	H	-0.024330	-0.837073	0.428314
H82	H	0.007175	-0.906206	0.671318
H83	H	-0.652707	-0.701531	-0.000197
N84	N	-0.007845	-0.409049	-0.091387
H85	H	-0.039874	-0.443045	-0.057784
H86	H	-0.041807	-0.379149	-0.119176
H87	H	0.194386	-0.734471	0.328252
H88	H	-0.028984	-0.046401	-0.000319
N89	N	-0.496621	-0.687060	-0.000198
H90	H	-0.527753	-0.646425	-0.000186
H91	H	-0.463470	-0.684775	0.046211
H92	H	-0.112195	-0.709469	-0.000193
N93	N	-0.010252	-0.258462	-0.091412
H94	H	-0.043188	-0.296494	-0.119185
H95	H	-0.043183	-0.232334	-0.057772
H96	H	0.007168	-0.906175	0.328185
N97	N	0.241793	-0.154724	-0.000254
H98	H	0.232149	-0.207389	-0.000247
H99	H	0.271716	-0.138416	-0.046665
H100	H	0.221308	-0.015936	-0.000277
N101	N	0.246522	-0.451031	-0.000206
H102	H	0.290764	-0.479649	-0.000206
H103	H	0.249039	-0.420636	-0.046624
N104	N	-0.040230	-0.485948	-0.000178
H105	H	-0.030586	-0.433283	-0.000191
H106	H	-0.070152	-0.502304	-0.046580
N107	N	-0.042557	-0.839523	0.581683
H108	H	-0.032094	-0.838125	0.637580
H109	H	-0.073971	-0.800963	0.567931
N110	N	-0.006447	-0.918728	0.824688
H111	H	-0.039125	-0.948710	0.787760
H112	H	0.022466	-0.949374	0.857354
N113	N	-0.263396	-0.690485	-0.000196
H114	H	-0.320795	-0.699266	-0.000196
H115	H	-0.245565	-0.663042	0.046219
N116	N	-0.699110	-0.947772	-0.000248
H117	H	-0.753707	-0.937350	-0.000248
H118	H	-0.689341	-0.975624	-0.046660
N119	N	0.211818	-0.382212	0.090954
H120	H	0.244750	-0.344184	0.118737
H121	H	0.184441	-0.415639	0.128422
N122	N	0.209419	-0.231627	0.090928
H123	H	0.200580	-0.181216	0.084267
H124	H	0.202545	-0.245125	0.145638
H125	H	-0.019749	-0.624733	-0.000150
H126	H	0.194397	-0.734508	0.814340
N127	N	0.244123	-0.801166	0.581663
H128	H	0.287806	-0.795310	0.544741
H129	H	0.245815	-0.758179	0.614379
N130	N	0.208014	-0.721942	0.174873
H131	H	0.240701	-0.691967	0.211801
H132	H	0.241402	-0.748469	0.142159
