data_functionalizedCrystal
_audit_creation_method	'MofGen! by Chris Wilmer'
_symmetry_space_group_name_H-M	'P1'
_symmetry_Int_Tables_number	1
_symmetry_cell_setting	triclinic
loop_
_symmetry_equiv_pos_as_xyz
  x,y,z
_cell_length_a	17.699083
_cell_length_b	17.699083
_cell_length_c	16.176319
_cell_angle_alpha	89.999648
_cell_angle_beta	90.001389
_cell_angle_gamma	96.716986
loop_
_atom_site_label
_atom_site_type_symbol
_atom_site_fract_x
_atom_site_fract_y
_atom_site_fract_z
O1	O	-1.004079	0.095713	-0.068619
O2	O	-0.670745	0.429046	0.264714
O3	O	-0.337412	0.762380	0.598048
O4	O	-0.783700	0.108166	-0.068644
O5	O	-0.450367	0.441499	0.264689
O6	O	-0.117034	0.774832	0.598022
O7	O	-0.900116	-0.008250	-0.068639
O8	O	-0.566782	0.325083	0.264694
O9	O	-0.233449	0.658417	0.598028
O10	O	-0.887663	0.212129	-0.068624
O11	O	-0.554330	0.545462	0.264709
O12	O	-0.220997	0.878795	0.598042
O13	O	-0.900100	-0.008257	0.068854
O14	O	-0.566766	0.325076	0.402187
O15	O	-0.233433	0.658409	0.735521
O16	O	-0.783684	0.108158	0.068849
O17	O	-0.450351	0.441492	0.402182
O18	O	-0.117018	0.774825	0.735515
O19	O	-1.004063	0.095706	0.068874
O20	O	-0.670729	0.429039	0.402208
O21	O	-0.337396	0.762372	0.735541
Cu22	Cu	-0.893872	0.101931	0.081416
Cu23	Cu	-0.560539	0.435265	0.414749
Cu24	Cu	-0.227205	0.768598	0.748082
Cu25	Cu	-0.893891	0.101940	-0.081186
Cu26	Cu	-0.560558	0.435273	0.252147
Cu27	Cu	-0.227224	0.768607	0.585481
O28	O	-0.887647	0.212121	0.068869
O29	O	-0.554314	0.545454	0.402202
O30	O	-0.220981	0.878788	0.735536
C31	C	-0.755495	0.107716	0.000099
C32	C	-0.422162	0.441049	0.333432
C33	C	-0.088829	0.774382	0.666765
C34	C	-0.671477	0.106377	0.000088
C35	C	-0.338144	0.439710	0.333422
C36	C	-0.004811	0.773044	0.666755
C37	C	-0.899662	-0.036451	0.000104
C38	C	-0.566328	0.296883	0.333437
C39	C	-0.232995	0.630216	0.666770
C40	C	-0.898323	-0.120469	0.000092
C41	C	-0.564990	0.212865	0.333425
C42	C	-0.231656	0.546198	0.666759
C43	C	-1.032268	0.096156	0.000129
C44	C	-0.698934	0.429489	0.333463
C45	C	-0.365601	0.762822	0.666796
C46	C	-1.116286	0.097494	0.000134
C47	C	-0.782953	0.430828	0.333468
C48	C	-0.449619	0.764161	0.666801
C49	C	-0.888102	0.240322	0.000124
C50	C	-0.554768	0.573655	0.333458
C51	C	-0.221435	0.906989	0.666791
C52	C	-0.889440	0.324340	0.000131
C53	C	-0.556107	0.657673	0.333464
C54	C	-0.222773	0.991007	0.666797
C55	C	-0.622856	0.174710	0.000093
C56	C	-0.289523	0.508044	0.333426
C57	C	0.043810	0.841377	0.666760
C58	C	-0.543913	0.173448	0.000104
C59	C	-0.210580	0.506782	0.333437
C60	C	0.122754	0.840115	0.666770
C61	C	-0.513592	0.103852	0.000104
C62	C	-0.180259	0.437185	0.333437
C63	C	0.153074	0.770518	0.666770
C64	C	-0.562219	0.035513	0.000101
C65	C	-0.228886	0.368846	0.333435
C66	C	0.104447	0.702180	0.666768
C67	C	-0.641161	0.036776	0.000097
C68	C	-0.307828	0.370109	0.333430
C69	C	0.025505	0.703443	0.666763
C70	C	-0.243856	0.030418	0.000121
C71	C	0.089477	0.363751	0.333455
C72	C	0.422810	0.697085	0.666788
C73	C	-0.164908	0.029160	0.000124
C74	C	0.168425	0.362493	0.333457
C75	C	0.501758	0.695827	0.666790
C76	C	-0.146608	0.167090	0.000129
C77	C	0.186725	0.500423	0.333462
C78	C	0.520058	0.833757	0.666795
C79	C	-0.225550	0.168353	0.000124
C80	C	0.107783	0.501686	0.333457
C81	C	0.441117	0.835020	0.666791
C82	C	-0.274170	0.100015	0.000126
C83	C	0.059163	0.433348	0.333459
C84	C	0.392496	0.766681	0.666793
C85	C	-0.359769	0.101384	0.000116
C86	C	-0.026436	0.434718	0.333449
C87	C	0.306897	0.768051	0.666783
C88	C	-0.427995	0.102481	0.000108
C89	C	-0.094661	0.435815	0.333441
C90	C	0.238672	0.769148	0.666774
N91	N	-0.893864	0.101925	0.195781
N92	N	-0.560531	0.435258	0.529114
N93	N	-0.227198	0.768591	0.862448
C94	C	-0.821107	0.372961	0.000123
C95	C	-0.487773	0.706294	0.333456
C96	C	-0.154440	1.039628	0.666789
C97	C	-0.822369	0.451904	0.000113
C98	C	-0.489036	0.785238	0.333446
C99	C	-0.155702	1.118571	0.666780
C100	C	-0.891965	0.482225	0.000117
C101	C	-0.558632	0.815558	0.333451
C102	C	-0.225299	1.148892	0.666784
C103	C	-0.960304	0.433598	0.000123
C104	C	-0.626971	0.766931	0.333456
C105	C	-0.293637	1.100264	0.666790
C106	C	-0.959041	0.354656	0.000126
C107	C	-0.625708	0.687989	0.333460
C108	C	-0.292374	1.021323	0.666793
C109	C	-0.965399	0.751961	0.000107
C110	C	-0.632066	1.085294	0.333440
C111	C	-0.298733	1.418628	0.666774
C112	C	-0.966657	0.830909	0.000106
C113	C	-0.633324	1.164242	0.333439
C114	C	-0.299991	1.497576	0.666773
C115	C	-0.828727	0.849209	0.000094
C116	C	-0.495394	1.182542	0.333427
C117	C	-0.162061	1.515876	0.666760
C118	C	-0.827464	0.770267	0.000097
C119	C	-0.494131	1.103601	0.333431
C120	C	-0.160798	1.436934	0.666764
C121	C	-0.895803	0.721647	0.000098
C122	C	-0.562469	1.054980	0.333432
C123	C	-0.229136	1.388314	0.666765
C124	C	-0.894433	0.636048	0.000107
C125	C	-0.561100	0.969381	0.333441
C126	C	-0.227766	1.302714	0.666774
C127	C	-0.893336	0.567823	0.000115
C128	C	-0.560002	0.901156	0.333448
C129	C	-0.226669	1.234489	0.666781
N130	N	-0.893905	0.101941	-0.195551
N131	N	-0.560571	0.435274	0.137782
N132	N	-0.227238	0.768607	0.471116
C133	C	-0.945429	0.050397	0.239048
C134	C	-0.612095	0.383730	0.572381
C135	C	-0.278762	0.717064	0.905714
C136	C	-0.945432	0.050396	0.325595
C137	C	-0.612099	0.383729	0.658928
C138	C	-0.278766	0.717063	0.992261
C139	C	-0.893875	0.101927	0.368874
C140	C	-0.560542	0.435261	0.702207
C141	C	-0.227208	0.768594	1.035540
C142	C	-0.842305	0.153457	0.325601
C143	C	-0.508972	0.486791	0.658934
C144	C	-0.175639	0.820124	0.992268
C145	C	-0.842299	0.153454	0.239055
C146	C	-0.508965	0.486787	0.572389
C147	C	-0.175632	0.820121	0.905722
C148	C	-0.842331	0.153472	0.674629
C149	C	-0.508998	0.486805	1.007963
C150	C	-0.175665	0.820138	1.341296
C151	C	-0.842344	0.153473	0.761181
C152	C	-0.509010	0.486806	1.094514
C153	C	-0.175677	0.820139	1.427847
C154	C	-0.945465	0.050414	0.761168
C155	C	-0.612132	0.383747	1.094502
C156	C	-0.278799	0.717080	1.427835
C157	C	-0.945458	0.050410	0.674623
C158	C	-0.612125	0.383744	1.007956
C159	C	-0.278792	0.717077	1.341290
C160	C	-0.893886	0.101937	0.631358
C161	C	-0.560553	0.435271	0.964691
C162	C	-0.227220	0.768604	1.298024
C163	C	-0.893882	0.101937	0.537514
C164	C	-0.560548	0.435270	0.870847
C165	C	-0.227215	0.768603	1.204180
C166	C	-0.893883	0.101932	0.462716
C167	C	-0.560549	0.435265	0.796049
C168	C	-0.227216	0.768599	1.129383
H169	H	-0.647537	0.231384	0.000093
H170	H	-0.314203	0.564717	0.333426
H171	H	0.019130	0.898051	0.666759
H172	H	-0.764433	0.348280	0.000129
H173	H	-0.431100	0.681614	0.333462
H174	H	-0.097767	1.014947	0.666796
H175	H	-0.766725	0.491489	0.000104
H176	H	-0.433392	0.824822	0.333437
H177	H	-0.100058	1.158155	0.666771
H178	H	-0.773083	0.888806	0.000090
H179	H	-0.439750	1.222139	0.333423
H180	H	-0.106416	1.555472	0.666756
Cl181	Cl	-0.777523	0.218259	0.815588
Cl182	Cl	-0.444189	0.551592	1.148921
Cl183	Cl	-0.110856	0.884925	1.482255
Cl184	Cl	-1.010256	-0.014383	0.379988
Cl185	Cl	-0.676923	0.318950	0.713322
Cl186	Cl	-0.343590	0.652283	1.046655
H187	H	-0.140225	-0.027517	0.000125
H188	H	0.193108	0.305816	0.333458
H189	H	0.526442	0.639150	0.666791
Cl190	Cl	-0.304969	-0.055494	0.000123
Cl191	Cl	0.028365	0.277840	0.333456
Cl192	Cl	0.361698	0.611173	0.666790
H193	H	-0.770792	0.745585	0.000098
H194	H	-0.437458	1.078918	0.333432
H195	H	-0.104125	1.412252	0.666765
Cl196	Cl	-0.777469	0.218232	0.184664
Cl197	Cl	-0.444136	0.551566	0.517997
Cl198	Cl	-0.110802	0.884899	0.851331
Cl199	Cl	-0.482792	0.259357	0.000105
Cl200	Cl	-0.149459	0.592691	0.333438
Cl201	Cl	0.183874	0.926024	0.666771
Cl202	Cl	-1.054157	0.869025	0.000108
Cl203	Cl	-0.720823	1.202358	0.333442
Cl204	Cl	-0.387490	1.535691	0.666775
Cl205	Cl	-0.777503	0.218250	0.620245
Cl206	Cl	-0.444169	0.551583	0.953578
Cl207	Cl	-0.110836	0.884916	1.286911
Cl208	Cl	-0.524102	-0.051980	0.000106
Cl209	Cl	-0.190768	0.281353	0.333440
Cl210	Cl	0.142565	0.614686	0.666773
H211	H	-1.014685	0.315069	0.000129
H212	H	-0.681352	0.648402	0.333463
H213	H	-0.348019	0.981736	0.666796
H214	H	-0.800323	0.195413	0.360844
H215	H	-0.466989	0.528746	0.694177
H216	H	-0.133656	0.862079	1.027510
Cl217	Cl	-1.047798	0.471715	0.000122
Cl218	Cl	-0.714464	0.805049	0.333455
Cl219	Cl	-0.381131	1.138382	0.666788
H220	H	-0.107012	0.222734	0.000131
H221	H	0.226322	0.556067	0.333465
H222	H	0.559655	0.889401	0.666798
H223	H	-0.250232	0.225025	0.000120
H224	H	0.083101	0.558359	0.333454
H225	H	0.416434	0.891692	0.666787
H226	H	-1.021045	0.712383	0.000113
H227	H	-0.687711	1.045717	0.333446
H228	H	-0.354378	1.379050	0.666780
Cl229	Cl	-0.702285	-0.049132	0.000094
Cl230	Cl	-0.368952	0.284201	0.333427
Cl231	Cl	-0.035619	0.617534	0.666761
H232	H	-0.987416	0.008438	0.203816
H233	H	-0.654082	0.341771	0.537149
H234	H	-0.320749	0.675104	0.870482
Cl235	Cl	-1.010277	-0.014371	0.620218
Cl236	Cl	-0.676944	0.318962	0.953552
Cl237	Cl	-0.343611	0.652295	1.286885
H238	H	-0.987456	0.008455	0.796404
H239	H	-0.654122	0.341788	1.129737
H240	H	-0.320789	0.675122	1.463071
