data_functionalizedCrystal
_audit_creation_method	'MofGen! by Chris Wilmer'
_symmetry_space_group_name_H-M	'P1'
_symmetry_Int_Tables_number	1
_symmetry_cell_setting	triclinic
loop_
_symmetry_equiv_pos_as_xyz
  x,y,z
_cell_length_a	14.908979
_cell_length_b	14.908178
_cell_length_c	10.686551
_cell_angle_alpha	82.564310
_cell_angle_beta	89.147433
_cell_angle_gamma	96.795332
loop_
_atom_site_label
_atom_site_type_symbol
_atom_site_fract_x
_atom_site_fract_y
_atom_site_fract_z
Zn1	Zn	1.396868	-0.246577	-0.580964
Zn2	Zn	1.375070	-0.410947	-0.358432
Zn3	Zn	1.233876	-0.266985	-0.381464
Zn4	Zn	1.236742	-0.406660	-0.580876
O5	O	1.310639	-0.332792	-0.475434
O6	O	1.520080	-0.261634	-0.541843
O7	O	1.346019	-0.402185	-0.184902
O8	O	1.263420	-0.137034	-0.417604
O9	O	1.504066	-0.382396	-0.378349
O10	O	1.383169	-0.122040	-0.564176
O11	O	1.242284	-0.296417	-0.201824
O12	O	1.108152	-0.292260	-0.417519
O13	O	1.268305	-0.375090	-0.757473
O14	O	1.110258	-0.394879	-0.564026
O15	O	1.385949	-0.257478	-0.757537
O16	O	1.348798	-0.537622	-0.378264
O17	O	1.247169	-0.534473	-0.541693
C18	C	1.076508	-0.345320	-0.493263
C19	C	0.976346	-0.350699	-0.500918
C20	C	0.836279	-0.411806	-0.587834
C21	C	0.930390	-0.406751	-0.580652
C22	C	0.928183	-0.299700	-0.428358
C23	C	0.834071	-0.304754	-0.435540
C24	C	0.788122	-0.360808	-0.515282
C25	C	0.694010	-0.365857	-0.522470
C26	C	0.691803	-0.258811	-0.370170
C27	C	0.785915	-0.253756	-0.362988
C28	C	1.295955	-0.569037	-0.457495
C29	C	1.289759	-0.670097	-0.449856
C30	C	1.402732	-0.844231	-0.588308
C31	C	1.396913	-0.939185	-0.581135
C32	C	1.272298	-0.954962	-0.428345
C33	C	1.278117	-0.860007	-0.435518
C34	C	1.343337	-0.804645	-0.515501
C35	C	1.349160	-0.709689	-0.522666
C36	C	1.224541	-0.725467	-0.369884
C37	C	1.218722	-0.820421	-0.362711
C38	C	1.545684	-0.320217	-0.457537
C39	C	1.645847	-0.314858	-0.449910
C40	C	1.329878	-0.313529	-0.804572
C41	C	1.338077	-0.305320	-0.944831
C42	C	1.325406	-0.095622	-0.493469
C43	C	1.331699	0.005446	-0.501155
C44	C	1.291531	-0.351912	-0.147578
C45	C	1.283523	-0.359855	-0.007326
H46	H	0.798868	-0.457439	-0.652775
N47	N	0.644453	-0.426320	-0.608469
H48	H	0.599788	-0.473501	-0.556871
H49	H	0.611178	-0.388042	-0.672802
N50	N	1.408249	-0.235141	-1.016090
H51	H	1.443486	-0.199914	-0.954461
H52	H	1.450812	-0.266753	-1.064788
H53	H	0.965610	-0.254071	-0.363425
N54	N	0.982332	-0.461759	-0.658898
H55	H	0.938939	-0.498035	-0.710500
H56	H	1.027096	-0.419294	-0.717206
H57	H	1.219195	-1.000053	-0.363233
H58	H	0.823339	-0.208122	-0.298060
H59	H	0.652585	-0.217281	-0.311097
N60	N	1.419503	-0.649974	-0.608924
H61	H	1.456244	-0.689464	-0.653961
H62	H	1.388608	-0.609144	-0.673045
N63	N	1.213330	-0.430007	-0.936075
H64	H	1.178087	-0.465230	-0.997704
H65	H	1.244221	-0.473293	-0.875390
N66	N	1.473080	-0.784513	-0.674554
H67	H	1.509828	-0.824000	-0.719585
H68	H	1.442191	-0.743681	-0.738681
N69	N	1.160472	-0.682774	-0.291349
H70	H	1.168247	-0.703840	-0.198888
H71	H	1.174089	-0.614228	-0.308128
H72	H	1.445275	-0.971412	-0.640428
H73	H	1.165620	-0.865510	-0.297594
