data_functionalizedCrystal
_audit_creation_method	'MofGen! by Chris Wilmer'
_symmetry_space_group_name_H-M	'P1'
_symmetry_Int_Tables_number	1
_symmetry_cell_setting	triclinic
loop_
_symmetry_equiv_pos_as_xyz
  x,y,z
_cell_length_a	19.188933
_cell_length_b	23.532357
_cell_length_c	18.266242
_cell_angle_alpha	89.988103
_cell_angle_beta	89.992377
_cell_angle_gamma	82.986930
loop_
_atom_site_label
_atom_site_type_symbol
_atom_site_fract_x
_atom_site_fract_y
_atom_site_fract_z
O1	O	0.925906	0.071109	-0.060865
O2	O	0.722562	0.080679	-0.060873
O3	O	0.830384	-0.007027	-0.060854
O4	O	0.818084	0.158815	-0.060885
O5	O	0.830366	-0.007031	0.060908
O6	O	0.722544	0.080675	0.060889
O7	O	0.925888	0.071104	0.060897
Zn8	Zn	0.824213	0.075889	0.080225
Zn9	Zn	0.824237	0.075895	-0.080202
O10	O	0.818066	0.158810	0.060877
C11	C	0.696543	0.080367	0.000007
C12	C	0.619042	0.079436	0.000004
C13	C	0.065819	0.072794	-0.066359
C14	C	0.138640	0.073666	-0.066362
C15	C	0.175046	0.074102	0.000010
C16	C	0.138627	0.073651	0.066390
C17	C	0.065808	0.072774	0.066391
N18	N	0.283943	0.107885	0.049408
N19	N	0.353118	0.108719	0.049402
C20	C	0.394445	0.076743	0.000011
N21	N	0.363984	0.043908	-0.049386
N22	N	0.294802	0.043076	-0.049382
C23	C	0.254006	0.075052	0.000016
C24	C	0.509818	0.078133	-0.066368
C25	C	0.582641	0.079001	-0.066368
C26	C	0.582625	0.078993	0.066386
C27	C	0.509804	0.078119	0.066384
C28	C	0.473404	0.077692	0.000005
C29	C	0.830067	-0.028246	0.000029
C30	C	0.829142	-0.091467	0.000036
C31	C	0.823345	-0.483488	-0.066376
C32	C	0.822466	-0.542889	-0.066380
O33	O	0.821996	-0.573604	-0.122828
N34	N	0.822020	-0.572604	-0.000009
C35	C	0.822446	-0.542913	0.066371
O36	O	0.821985	-0.573642	0.122825
C37	C	0.823320	-0.483512	0.066375
C38	C	0.823773	-0.453802	-0.000001
C39	C	0.823797	-0.453777	-0.132747
C40	C	0.824678	-0.394380	-0.132742
C41	C	0.825106	-0.364694	-0.066367
C42	C	0.824654	-0.394404	0.000003
C43	C	0.823742	-0.453822	0.132754
C44	C	0.824615	-0.394417	0.132752
C45	C	0.825068	-0.364707	0.066376
C46	C	0.825963	-0.305321	0.066383
N47	N	0.826409	-0.275607	0.000011
C48	C	0.825980	-0.305293	-0.066364
C49	C	0.820609	-0.667658	0.066359
C50	C	0.819740	-0.727059	0.066356
C51	C	0.819758	-0.727031	-0.066396
C52	C	0.820632	-0.667630	-0.066392
C53	C	0.821055	-0.637944	-0.000013
C54	C	0.827830	-0.180555	-0.066349
C55	C	0.828714	-0.121153	-0.066339
C56	C	0.828692	-0.121186	0.066412
C57	C	0.827812	-0.180583	0.066403
C58	C	0.827379	-0.210266	0.000016
O59	O	0.826431	-0.274568	0.122801
O60	O	0.826432	-0.274556	-0.122808
C61	C	0.951907	0.071417	0.000015
C62	C	1.029408	0.072348	0.000012
C63	C	0.818382	0.180030	-0.000008
C64	C	0.819307	0.243250	-0.000019
N65	N	0.824202	0.075885	0.189712
N66	N	0.824254	0.075895	-0.189689
C67	C	0.871961	0.037067	0.228029
C68	C	0.871965	0.037065	0.304674
C69	C	0.824217	0.075889	0.342999
C70	C	0.776449	0.114709	0.304672
C71	C	0.776441	0.114707	0.228029
N72	N	0.814970	0.126305	0.463322
N73	N	0.814981	0.126306	0.536130
C74	C	0.824237	0.075897	0.573921
N75	N	0.833494	0.025487	0.536154
N76	N	0.833486	0.025487	0.463339
C77	C	0.824220	0.075896	0.426106
C78	C	0.872003	0.037074	0.695346
C79	C	0.872003	0.037071	0.771992
C80	C	0.776490	0.114720	0.771989
C81	C	0.776487	0.114719	0.695344
C82	C	0.824247	0.075896	0.657027
H83	H	0.168291	0.074033	-0.120411
O84	O	0.829218	-0.092385	0.130909
C85	C	0.889455	-0.113514	0.171320
H86	H	0.931507	-0.134448	0.132500
H87	H	0.910310	-0.076668	0.201439
H88	H	0.875260	-0.146508	0.212698
H89	H	0.910857	0.005454	0.335878
O90	O	0.825120	-0.365532	0.197191
C91	C	0.886113	-0.337791	0.201189
H92	H	0.906421	-0.331077	0.143566
H93	H	0.873122	-0.294543	0.229291
H94	H	0.928116	-0.365319	0.233944
H95	H	0.168273	0.074005	0.120431
H96	H	0.480180	0.077784	-0.120418
O97	O	0.618069	0.079339	0.130815
C98	C	0.668437	0.030523	0.134800
H99	H	0.682108	0.014219	0.077173
H100	H	0.717783	0.042225	0.162892
H101	H	0.646152	-0.004348	0.167557
O102	O	0.918498	-0.000545	0.658111
C103	C	0.961333	0.029899	0.613781
H104	H	0.962124	0.074819	0.636865
H105	H	1.017013	0.006587	0.612952
H106	H	0.939500	0.032908	0.555680
H107	H	0.480158	0.077757	0.120431
O108	O	0.827430	-0.209297	-0.130902
C109	C	0.827993	-0.170324	-0.189473
H110	H	0.850736	-0.130406	-0.170006
H111	H	0.861636	-0.191177	-0.235907
H112	H	0.772065	-0.157873	-0.209870
O113	O	0.823416	-0.482524	-0.197294
C114	C	0.823984	-0.443549	-0.255864
H115	H	0.846707	-0.403626	-0.236387
H116	H	0.857646	-0.464396	-0.302287
H117	H	0.768060	-0.431110	-0.276279
H118	H	0.737571	0.146320	0.335880
H119	H	0.036162	0.072413	0.120441
O120	O	0.820933	-0.638876	0.130891
C121	C	0.760228	-0.646787	0.171258
H122	H	0.739432	-0.687709	0.152375
H123	H	0.773793	-0.650321	0.231979
H124	H	0.718373	-0.608728	0.162063
H125	H	0.612286	0.079361	-0.120418
H126	H	0.829084	-0.096965	-0.120393
O127	O	0.730023	0.152473	0.190917
C128	C	0.687863	0.186730	0.241174
H129	H	0.716485	0.187317	0.295803
H130	H	0.676882	0.232235	0.219018
H131	H	0.636133	0.168341	0.249340
O132	O	0.730135	0.152512	0.809128
C133	C	0.741086	0.208869	0.790394
H134	H	0.767994	0.208744	0.734740
H135	H	0.688404	0.237021	0.787776
H136	H	0.775715	0.226412	0.833517
H137	H	0.825044	-0.370194	-0.186792
O138	O	0.821035	-0.638855	-0.130934
C139	C	0.820490	-0.677804	-0.189514
H140	H	0.797758	-0.717736	-0.170053
H141	H	0.786847	-0.656937	-0.235940
H142	H	0.876422	-0.690235	-0.209919
O143	O	0.827257	-0.209413	0.130894
C144	C	0.767000	-0.188289	0.171284
H145	H	0.724977	-0.167330	0.132450
H146	H	0.746115	-0.225141	0.201384
H147	H	0.781182	-0.155315	0.212677
H148	H	0.910848	0.005455	0.196834
H149	H	0.823374	-0.478003	0.186804
H150	H	0.819407	-0.751212	-0.120442
O151	O	0.030575	0.072347	-0.130903
C152	C	0.078332	0.072941	-0.189485
H153	H	0.133259	0.055542	-0.170022
H154	H	0.061933	0.045044	-0.235902
H155	H	0.078422	0.118715	-0.209903
H156	H	0.819381	-0.751245	0.120406
H157	H	0.910892	0.005458	0.803191
H158	H	0.737600	0.146329	0.664144
