data_functionalizedCrystal
_audit_creation_method	'MofGen! by Chris Wilmer'
_symmetry_space_group_name_H-M	'P1'
_symmetry_Int_Tables_number	1
_symmetry_cell_setting	triclinic
loop_
_symmetry_equiv_pos_as_xyz
  x,y,z
_cell_length_a	21.295418
_cell_length_b	11.169416
_cell_length_c	11.169409
_cell_angle_alpha	89.969126
_cell_angle_beta	90.042364
_cell_angle_gamma	89.973844
loop_
_atom_site_label
_atom_site_type_symbol
_atom_site_fract_x
_atom_site_fract_y
_atom_site_fract_z
Zn1	Zn	0.962435	0.477203	0.679277
Zn2	Zn	1.462435	0.977203	1.179277
Zn3	Zn	0.962377	0.677944	0.478599
Zn4	Zn	1.462377	1.177944	0.978599
Zn5	Zn	0.857161	0.477329	0.478532
Zn6	Zn	1.357161	0.977329	0.978532
Zn7	Zn	0.857165	0.677898	0.679165
Zn8	Zn	1.357165	1.177898	1.179165
O9	O	0.909785	0.577593	0.578893
O10	O	1.409785	1.077593	1.078893
O11	O	1.050517	0.503798	0.652731
O12	O	1.550517	1.003798	1.152731
O13	O	0.948394	0.651403	0.310640
O14	O	1.448394	1.151403	0.810640
O15	O	0.871149	0.309362	0.505181
O16	O	1.371149	0.809362	1.005181
O17	O	1.050475	0.651281	0.505294
O18	O	1.550475	1.151281	1.005294
O19	O	0.948493	0.309270	0.652667
O20	O	1.448493	0.809270	1.152667
O21	O	0.871092	0.504012	0.310591
O22	O	1.371092	1.004012	0.810591
O23	O	0.769072	0.503968	0.505072
O24	O	1.269072	1.003968	1.005072
O25	O	0.871155	0.651204	0.847130
O26	O	1.371155	1.151204	1.347130
O27	O	0.769075	0.651326	0.652476
O28	O	1.269075	1.151326	1.152476
O29	O	0.948497	0.503754	0.847212
O30	O	1.448497	1.003754	1.347212
O31	O	0.948398	0.845887	0.505186
O32	O	1.448398	1.345887	1.005186
O33	O	0.871099	0.845854	0.652540
O34	O	1.371099	1.345854	1.152540
C35	C	0.909760	0.889418	0.578884
C36	C	1.409760	1.389418	1.078884
C37	C	0.909807	1.022818	0.578920
C38	C	1.409807	1.522818	1.078920
C39	C	0.746233	0.577657	0.578755
C40	C	1.246233	1.077657	1.078755
C41	C	0.676265	0.577712	0.578725
C42	C	1.176265	1.077712	1.078725
C43	C	0.909833	0.577460	0.891936
C44	C	1.409833	1.077460	1.391936
C45	C	0.909854	0.577403	1.025336
C46	C	1.409854	1.077403	1.525336
C47	C	0.643416	0.654543	0.655363
C48	C	1.143416	1.154543	1.155363
C49	C	0.577674	0.654514	0.655417
C50	C	1.077674	1.154514	1.155417
C51	C	0.544783	0.577666	0.578811
C52	C	1.044783	1.077666	1.078811
C53	C	0.577639	0.500820	0.502167
C54	C	1.077639	1.000820	1.002167
C55	C	0.643380	0.500843	0.502124
C56	C	1.143380	1.000843	1.002124
N57	N	0.441506	0.568308	0.473837
N58	N	0.941506	1.068308	0.973837
N59	N	0.379055	0.568293	0.473882
N60	N	0.879055	1.068293	0.973882
C61	C	0.346708	0.577589	0.578938
C62	C	0.846708	1.077589	1.078938
N63	N	0.379172	0.586925	0.683951
N64	N	0.879172	1.086925	1.183951
N65	N	0.441629	0.586946	0.683905
N66	N	0.941629	1.086946	1.183905
C67	C	0.473497	0.577632	0.578850
C68	C	0.973497	1.077632	1.078850
C69	C	0.242574	0.654392	0.655642
C70	C	0.742574	1.154392	1.155642
C71	C	0.176830	0.654354	0.655698
C72	C	0.676830	1.154354	1.155698
C73	C	0.176797	0.500667	0.502437
C74	C	0.676797	1.000667	1.002437
C75	C	0.242539	0.500699	0.502392
C76	C	0.742539	1.000699	1.002392
C77	C	0.275424	0.577568	0.578992
C78	C	0.775424	1.077568	1.078992
C79	C	1.073975	0.577531	0.579033
C80	C	1.573975	1.077531	1.079033
C81	C	1.143943	0.577504	0.579092
C82	C	1.643943	1.077504	1.079092
C83	C	0.909827	0.264551	0.578929
C84	C	1.409827	0.764551	1.078929
C85	C	0.909845	0.131151	0.578944
C86	C	1.409845	0.631151	1.078944
C87	C	0.909773	0.577640	0.267069
C88	C	1.409773	1.077640	0.767069
C89	C	0.909874	0.577358	0.133669
C90	C	1.409874	1.077358	0.633669
H91	H	0.670187	0.717134	0.717739
H92	H	1.170187	1.217134	1.217739
F93	F	0.542707	0.736290	0.736990
F94	F	1.042707	1.236290	1.236990
F95	F	0.277500	0.418927	0.420818
F96	F	0.777500	0.918927	0.920818
H97	H	0.550855	0.438248	0.439796
H98	H	1.050855	0.938248	0.939796
F99	F	0.678341	0.419065	0.420552
F100	F	1.178341	0.919065	0.920552
H101	H	0.150017	0.438090	0.440068
H102	H	0.650017	0.938090	0.940068
F103	F	0.141870	0.736126	0.737278
F104	F	0.641870	1.236126	1.237278
H105	H	0.269350	0.716977	0.718021
H106	H	0.769350	1.216977	1.218021
