data_functionalizedCrystal
_audit_creation_method	'MofGen! by Chris Wilmer'
_symmetry_space_group_name_H-M	'P1'
_symmetry_Int_Tables_number	1
_symmetry_cell_setting	triclinic
loop_
_symmetry_equiv_pos_as_xyz
  x,y,z
_cell_length_a	11.169417
_cell_length_b	15.297327
_cell_length_c	11.169409
_cell_angle_alpha	99.639974
_cell_angle_beta	89.979436
_cell_angle_gamma	99.707226
loop_
_atom_site_label
_atom_site_type_symbol
_atom_site_fract_x
_atom_site_fract_y
_atom_site_fract_z
Zn1	Zn	1.752176	-0.359064	-0.761131
Zn2	Zn	1.717269	-0.509957	-0.595155
Zn3	Zn	1.551447	-0.359119	-0.560478
Zn4	Zn	1.516693	-0.509883	-0.795783
O5	O	1.634396	-0.434506	-0.678137
O6	O	1.915493	-0.379088	-0.739125
O7	O	1.695208	-0.490001	-0.422618
O8	O	1.607227	-0.232867	-0.558081
O9	O	1.889848	-0.489948	-0.617183
O10	O	1.754702	-0.232827	-0.705500
O11	O	1.573379	-0.379182	-0.397141
O12	O	1.378889	-0.379111	-0.591682
O13	O	1.547994	-0.489823	-0.959124
O14	O	1.353355	-0.489876	-0.764559
O15	O	1.721003	-0.379017	-0.933666
O16	O	1.661509	-0.636191	-0.650783
O17	O	1.514146	-0.636138	-0.798184
C18	C	1.322575	-0.434492	-0.678119
C19	C	1.189171	-0.434508	-0.678144
C20	C	1.580301	-0.668898	-0.732033
C21	C	1.557269	-0.769172	-0.755130
C22	C	1.799506	-1.051815	-0.513469
C23	C	1.821146	-0.957602	-0.491762
C24	C	1.755179	-0.910490	-0.557602
C25	C	1.667568	-0.957600	-0.645153
C26	C	1.645920	-1.051821	-0.666855
C27	C	1.601592	-0.910497	-0.710988
C28	C	1.513981	-0.957606	-0.798539
C29	C	1.492338	-1.051819	-0.820238
C30	C	1.558305	-1.098931	-0.754398
C31	C	1.623240	-0.816275	-0.689286
C32	C	1.469654	-0.816282	-0.842672
C33	C	1.448014	-0.910494	-0.864379
C34	C	1.947435	-0.434520	-0.678157
C35	C	2.080834	-0.434526	-0.678165
C36	C	1.634515	-0.434406	-0.991157
C37	C	1.634566	-0.434363	-1.124547
C38	C	1.688735	-0.199198	-0.624057
C39	C	1.711891	-0.098924	-0.601012
C40	C	1.634361	-0.434540	-0.366320
C41	C	1.634602	-0.434329	-0.232872
H42	H	1.772802	-0.833778	-0.539922
H43	H	1.415935	-0.777924	-0.896283
H44	H	1.694573	-0.777927	-0.618002
O45	O	1.407374	-1.097679	-0.905362
C46	C	1.463175	-1.152070	-0.995483
H47	H	1.550911	-1.166155	-0.956470
H48	H	1.484681	-1.115696	-1.076055
C49	C	1.268805	-1.224294	-1.085700
C50	C	1.376558	-1.241599	-1.037781
H51	H	1.215374	-1.279518	-1.111797
H52	H	1.231209	-1.187647	-1.024987
H53	H	1.286742	-1.193980	-1.152838
H54	H	1.358621	-1.271902	-0.970636
H55	H	1.414148	-1.278253	-1.098484
O56	O	1.906332	-0.911983	-0.406725
C57	C	1.959897	-0.973764	-0.353248
H58	H	1.948603	-1.040893	-0.417872
H59	H	1.913674	-0.983866	-0.264384
C60	C	2.109977	-0.854476	-0.248208
C61	C	2.096114	-0.936923	-0.327584
H62	H	2.194001	-0.831751	-0.232371
H63	H	2.073887	-0.812852	-0.284231
H64	H	2.071450	-0.862906	-0.174163
H65	H	2.134627	-0.928491	-0.401631
H66	H	2.132214	-0.978546	-0.291571
O67	O	1.863470	-1.097718	-0.449628
C68	C	1.825528	-1.190976	-0.487514
H69	H	1.783276	-1.203818	-0.583081
H70	H	1.755440	-1.217769	-0.422474
C71	C	1.987731	-1.223535	-0.370288
C72	C	1.935846	-1.239307	-0.487669
H73	H	2.055778	-1.253349	-0.370378
H74	H	2.013291	-1.160705	-0.344759
H75	H	1.929313	-1.245862	-0.316100
H76	H	1.994259	-1.216970	-0.541851
H77	H	1.910298	-1.302135	-0.513207
H78	H	1.540693	-1.175646	-0.772069
O79	O	1.363051	-0.956361	-0.949499
C80	C	1.418855	-1.010752	-1.039617
H81	H	1.506596	-1.024828	-1.000605
H82	H	1.440351	-0.974382	-1.120195
C83	C	1.224485	-1.082992	-1.129822
C84	C	1.332246	-1.100287	-1.081904
H85	H	1.171060	-1.138220	-1.155912
H86	H	1.186888	-1.046345	-1.069111
H87	H	1.242415	-1.052682	-1.196965
H88	H	1.314317	-1.130586	-1.014755
H89	H	1.369838	-1.136941	-1.142605
