data_functionalizedCrystal
_audit_creation_method	'MofGen! by Chris Wilmer'
_symmetry_space_group_name_H-M	'P1'
_symmetry_Int_Tables_number	1
_symmetry_cell_setting	triclinic
loop_
_symmetry_equiv_pos_as_xyz
  x,y,z
_cell_length_a	17.038272
_cell_length_b	11.026607
_cell_length_c	9.483335
_cell_angle_alpha	101.374700
_cell_angle_beta	99.997140
_cell_angle_gamma	80.151214
loop_
_atom_site_label
_atom_site_type_symbol
_atom_site_fract_x
_atom_site_fract_y
_atom_site_fract_z
O1	O	0.341918	-1.626508	0.120904
O2	O	0.304087	-1.269296	0.120904
O3	O	0.208887	-1.445781	0.120892
O4	O	0.437118	-1.450024	0.120915
O5	O	0.189505	-1.481667	-0.120885
O6	O	0.284705	-1.305183	-0.120874
O7	O	0.322536	-1.662394	-0.120874
Cu8	Cu	0.301851	-1.487065	-0.142950
Cu9	Cu	0.324772	-1.444626	0.142980
O10	O	0.417736	-1.485910	-0.120862
C11	C	0.287417	-1.241308	0.000015
C12	C	0.266612	-1.104446	0.000015
C13	C	0.169524	-1.459862	0.000004
C14	C	0.081107	-1.448340	0.000004
C15	C	0.339206	-1.690382	0.000018
C16	C	0.360012	-1.827243	0.000028
C17	C	0.045899	-1.554124	0.000003
C18	C	-0.037177	-1.543289	0.000016
C19	C	-0.085044	-1.426670	0.000021
C20	C	-0.049830	-1.320877	0.000027
C21	C	0.033245	-1.331712	0.000024
C22	C	-0.336194	-1.388391	0.000041
C23	C	-0.419275	-1.377564	0.000040
C24	C	-0.406616	-1.599977	0.000032
C25	C	-0.323540	-1.610803	0.000020
C26	C	-0.288333	-1.505009	0.000034
C27	C	-0.169962	-1.415592	0.000031
C28	C	-0.203416	-1.516086	0.000034
C29	C	0.457100	-1.471828	0.000030
C30	C	0.545517	-1.483349	0.000039
N31	N	0.285730	-1.516924	-0.344058
C32	C	0.324059	-1.036570	0.000022
C33	C	0.302557	-0.895116	0.000021
C34	C	0.306603	-1.478282	-0.583687
C35	C	0.320020	-1.453409	-0.416279
N36	N	0.340888	-1.414776	0.344088
H37	H	0.084867	-1.649089	-0.000010
C38	C	0.178662	-1.041483	0.000006
N39	N	0.112416	-0.994060	0.000002
C40	C	0.232653	-1.615259	-0.427939
N41	N	0.192675	-1.689322	-0.491119
C42	C	0.447967	-0.890198	0.000038
N43	N	0.514214	-0.937616	0.000049
H44	H	0.237455	-0.848505	0.000052
H45	H	-0.088810	-1.225922	0.000041
H46	H	-0.164436	-1.611032	0.000063
H47	H	0.267321	-1.551071	-0.645785
C48	C	-0.075903	-1.659665	-0.000009
N49	N	-0.105072	-1.747325	-0.000035
C50	C	0.373096	-1.355073	-0.332395
N51	N	0.413071	-1.281007	-0.269212
C52	C	-0.270892	-1.739093	0.000013
N53	N	-0.231237	-1.835724	0.000002
C54	C	0.393962	-1.316446	-0.572022
N55	N	0.433937	-1.242379	-0.508839
H56	H	-0.208945	-1.320641	0.000032
C57	C	-0.445350	-1.716340	0.000031
N58	N	-0.474523	-1.803988	0.000037
C59	C	0.412008	-1.099535	0.000025
N60	N	0.478254	-1.146957	0.000028
C61	C	-0.297476	-1.272011	0.000064
N62	N	-0.268312	-1.184348	0.000086
H63	H	-0.458249	-1.282598	0.000021
C64	C	0.071973	-1.215341	0.000022
N65	N	0.101142	-1.127686	0.000025
