data_functionalizedCrystal
_audit_creation_method	'MofGen! by Chris Wilmer'
_symmetry_space_group_name_H-M	'P1'
_symmetry_Int_Tables_number	1
_symmetry_cell_setting	triclinic
loop_
_symmetry_equiv_pos_as_xyz
  x,y,z
_cell_length_a	21.395362
_cell_length_b	12.759394
_cell_length_c	21.395355
_cell_angle_alpha	89.985423
_cell_angle_beta	89.956060
_cell_angle_gamma	90.030716
loop_
_atom_site_label
_atom_site_type_symbol
_atom_site_fract_x
_atom_site_fract_y
_atom_site_fract_z
Zn1	Zn	0.957929	-0.417943	-0.354603
Zn2	Zn	1.457929	0.082057	0.145397
Zn3	Zn	0.957860	-0.593608	-0.249833
Zn4	Zn	1.457860	-0.093608	0.250167
Zn5	Zn	0.853143	-0.417992	-0.249804
Zn6	Zn	1.353143	0.082008	0.250196
Zn7	Zn	0.853142	-0.593629	-0.354537
Zn8	Zn	1.353142	-0.093629	0.145463
O9	O	0.905518	-0.505793	-0.302194
O10	O	1.405518	-0.005793	0.197806
O11	O	1.045597	-0.441216	-0.340744
O12	O	1.545597	0.058784	0.159256
O13	O	0.943941	-0.570323	-0.162151
O14	O	1.443941	-0.070323	0.337849
O15	O	0.867073	-0.270964	-0.263721
O16	O	1.367073	0.229036	0.236279
O17	O	1.045547	-0.570276	-0.263770
O18	O	1.545547	-0.070276	0.236230
O19	O	0.944058	-0.270928	-0.340717
O20	O	1.444058	0.229072	0.159283
O21	O	0.867006	-0.441299	-0.162130
O22	O	1.367006	0.058701	0.337870
O23	O	0.765465	-0.441320	-0.263658
O24	O	1.265465	0.058680	0.236342
O25	O	0.867070	-0.570313	-0.442224
O26	O	1.367070	-0.070313	0.057776
O27	O	0.765464	-0.570360	-0.340605
O28	O	1.265464	-0.070360	0.159395
O29	O	0.944056	-0.441237	-0.442272
O30	O	1.444056	0.058763	0.057728
O31	O	0.943940	-0.740632	-0.263706
O32	O	1.443940	-0.240632	0.236294
O33	O	0.867003	-0.740647	-0.340632
O34	O	1.367003	-0.240647	0.159368
C35	C	0.742731	-0.505848	-0.302121
C36	C	1.242731	-0.005848	0.197879
C37	C	0.673089	-0.505897	-0.302105
C38	C	1.173089	-0.005897	0.197895
C39	C	0.640392	-0.573178	-0.342112
C40	C	1.140392	-0.073178	0.157888
C41	C	0.574957	-0.573152	-0.342139
C42	C	1.074957	-0.073152	0.157861
C43	C	0.542221	-0.505857	-0.302150
C44	C	1.042221	-0.005857	0.197850
C45	C	0.574927	-0.438564	-0.262141
C46	C	1.074927	0.061436	0.237859
C47	C	0.640361	-0.438584	-0.262118
C48	C	1.140361	0.061416	0.237882
C49	C	0.438495	-0.497393	-0.245744
C50	C	0.938495	0.002607	0.254256
C51	C	0.373062	-0.497380	-0.245766
C52	C	0.873062	0.002620	0.254234
C53	C	0.340401	-0.505788	-0.302219
C54	C	0.840401	-0.005788	0.197781
C55	C	0.373180	-0.514231	-0.358653
C56	C	0.873180	-0.014231	0.141347
C57	C	0.438614	-0.514252	-0.358631
C58	C	0.938614	-0.014252	0.141369
C59	C	0.471269	-0.505827	-0.302170
C60	C	0.971269	-0.005827	0.197830
C61	C	0.236751	-0.573044	-0.342259
C62	C	0.736751	-0.073044	0.157741
C63	C	0.171314	-0.573011	-0.342288
C64	C	0.671314	-0.073011	0.157712
C65	C	0.171285	-0.438429	-0.262284
C66	C	0.671285	0.061571	0.237716
C67	C	0.236720	-0.438456	-0.262260
C68	C	0.736720	0.061544	0.237740
C69	C	0.269449	-0.505770	-0.302247
C70	C	0.769449	-0.005770	0.197753
C71	C	0.905481	-0.778760	-0.302179
C72	C	1.405481	-0.278760	0.197821
C73	C	0.905522	-0.895537	-0.302193
C74	C	1.405522	-0.395537	0.197807
C75	C	0.985696	-0.895467	-0.222150
C76	C	1.485696	-0.395467	0.277850
C77	C	1.025799	-0.950293	-0.182136
C78	C	1.525799	-0.450293	0.317864
C79	C	1.025836	-1.060015	-0.182153
C80	C	1.525836	-0.560015	0.317847
C81	C	0.985766	-1.114913	-0.222190
C82	C	1.485766	-0.614913	0.277810
C83	C	0.945663	-1.060087	-0.262204
C84	C	1.445663	-0.560087	0.237796
C85	C	0.945629	-0.950363	-0.262182
C86	C	1.445629	-0.450363	0.237818
C87	C	0.865493	-1.060157	-0.342250
C88	C	1.365493	-0.560157	0.157750
C89	C	0.865453	-0.950435	-0.342230
C90	C	1.365453	-0.450435	0.157770
C91	C	0.825424	-1.115055	-0.382286
C92	C	1.325424	-0.615055	0.117714
C93	C	0.785317	-1.060229	-0.422298
C94	C	1.285317	-0.560229	0.077702
C95	C	0.785281	-0.950501	-0.422279
C96	C	1.285281	-0.450501	0.077721
C97	C	0.825349	-0.895609	-0.382244
C98	C	1.325349	-0.395609	0.117756
C99	C	1.068942	-0.505738	-0.302267
C100	C	1.568942	-0.005738	0.197733
C101	C	1.138583	-0.505714	-0.302299
C102	C	1.638583	-0.005714	0.197701
C103	C	0.905570	-0.505772	-0.465618
C104	C	1.405570	-0.005772	0.034382
C105	C	0.905593	-0.505762	-0.535259
C106	C	1.405593	-0.005762	-0.035259
C107	C	0.905573	-0.231759	-0.302223
C108	C	1.405573	0.268241	0.197777
C109	C	0.905597	-0.114983	-0.302235
C110	C	1.405597	0.385017	0.197765
C111	C	0.945678	-0.438550	-0.567998
C112	C	1.445678	0.061450	-0.067998
C113	C	0.945677	-0.438505	-0.633433
C114	C	1.445677	0.061495	-0.133433
C115	C	0.905597	-0.505691	-0.666127
C116	C	1.405597	-0.005691	-0.166127
C117	C	0.865505	-0.572908	-0.633380
C118	C	1.365505	-0.072908	-0.133380
C119	C	0.865502	-0.572944	-0.567946
C120	C	1.365502	-0.072944	-0.067946
C121	C	0.900637	-0.600292	-0.769795
C122	C	1.400637	-0.100292	-0.269795
C123	C	0.900644	-0.600258	-0.835228
C124	C	1.400644	-0.100258	-0.335228
C125	C	0.905601	-0.505580	-0.867948
C126	C	1.405601	-0.005580	-0.367948
C127	C	0.910565	-0.410933	-0.835227
C128	C	1.410565	0.089067	-0.335227
C129	C	0.910563	-0.410968	-0.769793
C130	C	1.410563	0.089032	-0.269793
C131	C	0.905595	-0.505659	-0.737080
C132	C	1.405595	-0.005659	-0.237080
C133	C	0.945688	-0.438313	-0.971640
C134	C	1.445688	0.061687	-0.471640
C135	C	0.945682	-0.438266	-1.037076
C136	C	1.445682	0.061734	-0.537076
C137	C	0.865513	-0.572679	-1.037022
C138	C	1.365513	-0.072679	-0.537022
C139	C	0.865515	-0.572716	-0.971586
C140	C	1.365515	-0.072716	-0.471586
C141	C	0.905606	-0.505535	-0.938899
C142	C	1.405606	-0.005535	-0.438899
C143	C	0.905503	-0.505738	-0.139407
C144	C	1.405503	-0.005738	0.360593
C145	C	0.905602	-0.505451	-0.069766
C146	C	1.405602	-0.005451	0.430234
H147	H	0.346588	-0.521076	-0.404623
H148	H	0.846588	-0.021076	0.095377
H149	H	0.978324	-0.383527	-1.063732
H150	H	1.478324	0.116473	-0.563732
H151	H	0.978322	-0.383844	-0.541388
H152	H	1.478322	0.116156	-0.041388
H153	H	0.985805	-1.204254	-0.222206
H154	H	1.485805	-0.704254	0.277794
H155	H	0.144633	-0.383631	-0.229726
H156	H	0.644633	0.116369	0.270274
H157	H	0.666983	-0.383793	-0.229540
H158	H	1.166983	0.116207	0.270460
H159	H	0.832874	-0.627372	-1.063640
H160	H	1.332874	-0.127372	-0.563640
N161	N	0.825463	-1.233397	-0.382310
N162	N	1.325463	-0.733397	0.117690
H163	H	0.856946	-1.259801	-0.350885
H164	H	1.356946	-0.759801	0.149115
H165	H	0.782473	-1.259827	-0.370769
H166	H	1.282473	-0.759827	0.129231
H167	H	0.978318	-0.383766	-0.660095
H168	H	1.478318	0.116234	-0.160095
H169	H	0.465083	-0.490542	-0.199770
H170	H	0.965083	0.009458	0.300230
H171	H	0.914603	-0.333904	-0.743154
H172	H	1.414603	0.166096	-0.243154
N173	N	0.822270	-0.645194	-0.936270
N174	N	1.322270	-0.145194	-0.436270
H175	H	0.796875	-0.687744	-0.966908
H176	H	1.296875	-0.187744	-0.466908
H177	H	0.847751	-0.693828	-0.909134
H178	H	1.347751	-0.193828	-0.409134
H179	H	1.058494	-1.104654	-0.149573
H180	H	1.558494	-0.604654	0.350427
H181	H	1.058425	-0.905585	-0.149540
H182	H	1.558425	-0.405585	0.350460
H183	H	0.752627	-0.905868	-0.454866
H184	H	1.252627	-0.405868	0.045134
H185	H	0.896606	-0.677326	-0.861864
H186	H	1.396606	-0.177326	-0.361864
N187	N	0.895297	-0.702417	-0.734507
N188	N	1.395297	-0.202417	-0.234507
H189	H	0.931522	-0.749404	-0.745924
H190	H	1.431522	-0.249404	-0.245924
H191	H	0.896031	-0.687984	-0.688102
H192	H	1.396031	-0.187984	-0.188102
N193	N	0.822265	-0.645358	-0.668638
N194	N	1.322265	-0.145358	-0.168638
H195	H	0.828348	-0.635135	-0.715059
H196	H	1.328348	-0.135135	-0.215059
H197	H	0.831992	-0.720400	-0.657214
H198	H	1.331992	-0.220400	-0.157214
H199	H	0.825320	-0.806268	-0.382221
H200	H	1.325320	-0.306268	0.117779
H201	H	0.752698	-1.104936	-0.454896
H202	H	1.252698	-0.604936	0.045104
H203	H	0.548329	-0.627939	-0.374720
H204	H	1.048329	-0.127939	0.125280
N205	N	0.675697	-0.645757	-0.385246
N206	N	1.175697	-0.145757	0.114754
H207	H	0.702798	-0.694390	-0.359726
H208	H	1.202798	-0.194390	0.140274
H209	H	0.645014	-0.688306	-0.410590
H210	H	1.145014	-0.188306	0.089410
N211	N	0.822257	-0.645426	-0.532630
N212	N	1.322257	-0.145426	-0.032630
H213	H	0.796861	-0.687976	-0.563267
H214	H	1.296861	-0.187976	-0.063267
H215	H	0.847742	-0.694060	-0.505498
H216	H	1.347742	-0.194060	-0.005498
H217	H	0.263400	-0.627850	-0.374822
H218	H	0.763400	-0.127850	0.125178
N219	N	0.473970	-0.523355	-0.419493
N220	N	0.973970	-0.023355	0.080507
H221	H	0.443355	-0.528680	-0.455262
H222	H	0.943355	-0.028680	0.044738
H223	H	0.501153	-0.459364	-0.425365
H224	H	1.001153	0.040636	0.074635
N225	N	0.337708	-0.488278	-0.184902
N226	N	0.837708	0.011722	0.315098
H227	H	0.349041	-0.548957	-0.156793
H228	H	0.849041	-0.048957	0.343207
H229	H	0.349114	-0.420195	-0.163705
H230	H	0.849114	0.079805	0.336295
H231	H	0.548269	-0.383770	-0.229582
H232	H	1.048269	0.116230	0.270418
N233	N	0.136044	-0.645585	-0.385438
N234	N	0.636044	-0.145585	0.114562
H235	H	0.166709	-0.688232	-0.410761
H236	H	0.666709	-0.188232	0.089239
H237	H	0.108847	-0.694124	-0.359885
H238	H	0.608847	-0.194124	0.140115
H239	H	0.914603	-0.333837	-0.861866
H240	H	1.414603	0.166163	-0.361866
H241	H	0.978328	-0.383603	-0.945025
H242	H	1.478328	0.116397	-0.445025
N243	N	0.271992	-0.365883	-0.219114
N244	N	0.771992	0.134117	0.280886
H245	H	0.241327	-0.323243	-0.193786
H246	H	0.741327	0.176757	0.306214
H247	H	0.299094	-0.408575	-0.190063
H248	H	0.799094	0.091425	0.309937
H249	H	0.985662	-0.806126	-0.222124
H250	H	1.485662	-0.306126	0.277876
