data_functionalizedCrystal
_audit_creation_method	'MofGen! by Chris Wilmer'
_symmetry_space_group_name_H-M	'P1'
_symmetry_Int_Tables_number	1
_symmetry_cell_setting	triclinic
loop_
_symmetry_equiv_pos_as_xyz
  x,y,z
_cell_length_a	29.839134
_cell_length_b	12.759399
_cell_length_c	12.759393
_cell_angle_alpha	89.969094
_cell_angle_beta	90.032473
_cell_angle_gamma	89.990022
loop_
_atom_site_label
_atom_site_type_symbol
_atom_site_fract_x
_atom_site_fract_y
_atom_site_fract_z
Zn1	Zn	0.686848	0.418359	0.594340
Zn2	Zn	0.686801	0.594075	0.418659
Zn3	Zn	0.611717	0.418395	0.418640
Zn4	Zn	0.611713	0.593981	0.594261
O5	O	0.649270	0.506203	0.506475
O6	O	0.749709	0.441693	0.571077
O7	O	0.676823	0.570825	0.271636
O8	O	0.621705	0.271369	0.441972
O9	O	0.749675	0.570790	0.442005
O10	O	0.676903	0.271343	0.571059
O11	O	0.621659	0.441753	0.271622
O12	O	0.548850	0.441662	0.441896
O13	O	0.621698	0.570630	0.741293
O14	O	0.548847	0.570665	0.570923
O15	O	0.676900	0.441602	0.741351
O16	O	0.676819	0.741083	0.441928
O17	O	0.621652	0.741015	0.570942
C18	C	0.532547	0.506158	0.506399
C19	C	0.482613	0.506164	0.506392
C20	C	0.649243	0.779170	0.506451
C21	C	0.649272	0.895947	0.506476
C22	C	0.649304	0.506102	0.780509
C23	C	0.649318	0.506059	0.897285
C24	C	0.172978	0.573474	0.573578
C25	C	-0.014695	0.573503	0.573624
O26	O	-0.038954	0.630682	0.630703
N27	N	-0.038172	0.506241	0.506554
C28	C	-0.014727	0.438962	0.439473
O29	O	-0.039002	0.381745	0.382434
C30	C	0.172945	0.438928	0.439432
C31	C	0.196419	0.506202	0.506499
C32	C	0.196452	0.640741	0.640640
C33	C	0.243367	0.640737	0.640624
C34	C	0.266809	0.573465	0.573545
C35	C	0.243334	0.506198	0.506483
C36	C	0.196388	0.371644	0.372356
C37	C	0.243309	0.371640	0.372354
C38	C	0.266784	0.438914	0.439421
C39	C	0.313691	0.438922	0.439387
N40	N	0.337168	0.506184	0.506458
C41	C	0.313726	0.573456	0.573536
C42	C	-0.113258	0.438986	0.439497
C43	C	-0.160176	0.438996	0.439506
C44	C	-0.160141	0.573536	0.573659
C45	C	-0.113222	0.573531	0.573645
C46	C	-0.089782	0.506248	0.506567
C47	C	0.412252	0.573443	0.573496
C48	C	0.459172	0.573436	0.573471
C49	C	0.459132	0.438892	0.439322
C50	C	0.412217	0.438903	0.439343
C51	C	0.388778	0.506182	0.506438
O52	O	0.337978	0.381764	0.382347
O53	O	0.338009	0.630648	0.630583
C54	C	0.126062	0.573478	0.573594
C55	C	0.102588	0.506210	0.506532
C56	C	0.126029	0.438938	0.439453
C57	C	0.055670	0.506220	0.506540
C58	C	0.032229	0.573491	0.573619
C59	C	0.055705	0.640753	0.640689
C60	C	0.102621	0.640749	0.640673
C61	C	0.102553	0.371676	0.372383
C62	C	0.055637	0.371687	0.372404
C63	C	0.032196	0.438958	0.439483
C64	C	0.766448	0.506248	0.506552
C65	C	0.816383	0.506267	0.506585
C66	C	0.649310	0.232169	0.506522
C67	C	0.649327	0.115393	0.506542
C68	C	0.678030	0.950809	0.439375
C69	C	0.678059	1.060533	0.439410
C70	C	0.620568	1.060522	0.573651
C71	C	0.620541	0.950800	0.573620
C72	C	0.649262	0.506227	0.233508
C73	C	0.649335	0.505974	0.116732
C74	C	0.678063	0.438863	0.952179
C75	C	0.678071	0.438818	1.061904
C76	C	0.620586	0.573173	1.061830
C77	C	0.620577	0.573212	0.952108
H78	H	0.478282	0.628222	0.628086
C79	C	0.029911	0.714751	0.714478
N80	N	0.010480	0.770477	0.770057
H81	H	0.597166	0.627930	0.907412
H82	H	-0.094177	0.384195	0.384870
H83	H	0.597123	0.906128	0.628267
C84	C	0.709693	1.120878	0.365589
N85	N	0.733521	1.166328	0.309983
C86	C	0.128332	0.297672	0.298582
N87	N	0.147746	0.241933	0.242986
C88	C	0.588961	1.120871	0.647493
N89	N	0.565152	1.166325	0.703109
H90	H	0.036529	0.316905	0.317780
C91	C	0.170674	0.714764	0.714427
N92	N	0.151261	0.770531	0.769999
C93	C	0.709675	0.364983	0.891879
N94	N	0.733485	0.309330	0.846463
C95	C	0.709694	0.364899	1.122282
N96	N	0.733515	0.309220	1.167758
C97	C	0.709637	0.890475	0.365521
N98	N	0.733445	0.845033	0.309894
H99	H	0.597188	0.627849	1.106480
H100	H	0.393174	0.628225	0.628134
H101	H	0.262476	0.695516	0.695239
H102	H	-0.094112	0.628310	0.628258
H103	H	-0.179234	0.628311	0.628278
H104	H	-0.179285	0.384225	0.384883
H105	H	0.177284	0.316865	0.317740
H106	H	0.262392	0.316843	0.317737
H107	H	0.393103	0.384125	0.384729
H108	H	0.478227	0.384125	0.384704
H109	H	0.121729	0.695530	0.695286
