data_functionalizedCrystal
_audit_creation_method	'MofGen! by Chris Wilmer'
_symmetry_space_group_name_H-M	'P1'
_symmetry_Int_Tables_number	1
_symmetry_cell_setting	triclinic
loop_
_symmetry_equiv_pos_as_xyz
  x,y,z
_cell_length_a	13.635800
_cell_length_b	7.190378
_cell_length_c	7.190339
_cell_angle_alpha	97.677859
_cell_angle_beta	60.611724
_cell_angle_gamma	119.389020
loop_
_atom_site_label
_atom_site_type_symbol
_atom_site_fract_x
_atom_site_fract_y
_atom_site_fract_z
V1	V	-2.154344	-0.663518	0.291746
V2	V	-1.654344	-0.163518	0.791746
O3	O	-2.100810	-0.652439	-0.017473
O4	O	-1.600810	-0.152439	0.482527
O5	O	-2.172039	-0.657488	0.581805
O6	O	-1.672039	-0.157488	1.081805
O7	O	-2.172049	-0.953582	0.285743
O8	O	-1.672049	-0.453582	0.785743
O9	O	-2.100800	-0.354295	0.280638
O10	O	-1.600800	0.145705	0.780638
V11	V	-2.385299	-0.626714	0.254939
V12	V	-1.885299	-0.126714	0.754939
O13	O	-2.308677	-0.744251	0.372485
O14	O	-1.808677	-0.244251	0.872485
O15	O	-2.456064	-0.545980	0.174199
O16	O	-1.956064	-0.045980	0.674199
O17	O	-2.256000	-0.632744	-0.035120
O18	O	-1.756000	-0.132744	0.464880
O19	O	-2.497531	-0.637793	0.564158
O20	O	-1.997531	-0.137793	1.064158
O21	O	-2.497541	-0.935937	0.266046
O22	O	-1.997541	-0.435937	0.766046
O23	O	-2.255990	-0.336650	0.260942
O24	O	-1.755990	0.163350	0.760942
V25	V	-1.885291	-0.626714	0.254939
V26	V	-1.385291	-0.126714	0.754939
O27	O	-1.938835	-0.935937	0.266046
O28	O	-1.438835	-0.435937	0.766046
O29	O	-1.867586	-0.336650	0.260942
O30	O	-1.367586	0.163350	0.760942
O31	O	-1.867596	-0.632744	-0.035120
O32	O	-1.367596	-0.132744	0.464880
O33	O	-1.938825	-0.637793	0.564158
O34	O	-1.438825	-0.137793	1.064158
V35	V	-1.654336	-0.663518	0.291746
V36	V	-1.154336	-0.163518	0.791746
O37	O	-1.730958	-0.545980	0.174199
O38	O	-1.230958	-0.045980	0.674199
O39	O	-1.583571	-0.744251	0.372485
O40	O	-1.083571	-0.244251	0.872485
O41	O	-1.783645	-0.953582	0.285743
O42	O	-1.283645	-0.453582	0.785743
O43	O	-1.542094	-0.354295	0.280638
O44	O	-1.042094	0.145705	0.780638
O45	O	-1.542105	-0.652439	-0.017473
O46	O	-1.042105	-0.152439	0.482527
O47	O	-1.783635	-0.657488	0.581805
O48	O	-1.283635	-0.157488	1.081805
C49	C	-1.879823	-0.024329	0.274898
C50	C	-1.379823	0.475671	0.774898
C51	C	-1.936258	-0.265900	0.271818
C52	C	-1.436258	0.234100	0.771818
C53	C	-2.103385	-0.646645	0.652565
C54	C	-1.603385	-0.146645	1.152565
C55	C	-2.159818	-0.643597	0.894139
C56	C	-1.659818	-0.143597	1.394139
C57	C	-2.159840	-1.265907	0.271899
C58	C	-1.659840	-0.765907	0.771899
C59	C	-2.103390	-1.024328	0.274923
C60	C	-1.603390	-0.524328	0.774923
C61	C	-1.936256	-0.643599	-0.105866
C62	C	-1.436256	-0.143599	0.394134
C63	C	-1.879830	-0.646674	-0.347437
C64	C	-1.379830	-0.146674	0.152563
