data_functionalizedCrystal
_audit_creation_method	'MofGen! by Chris Wilmer'
_symmetry_space_group_name_H-M	'P1'
_symmetry_Int_Tables_number	1
_symmetry_cell_setting	triclinic
loop_
_symmetry_equiv_pos_as_xyz
  x,y,z
_cell_length_a	19.121241
_cell_length_b	21.295417
_cell_length_c	21.295411
_cell_angle_alpha	89.978356
_cell_angle_beta	87.531430
_cell_angle_gamma	92.464587
loop_
_atom_site_label
_atom_site_type_symbol
_atom_site_fract_x
_atom_site_fract_y
_atom_site_fract_z
Zn1	Zn	1.073771	-0.209718	-0.397041
Zn2	Zn	1.073662	-0.314974	-0.291763
Zn3	Zn	0.956306	-0.214199	-0.287287
Zn4	Zn	0.956272	-0.319436	-0.392498
O5	O	1.015003	-0.264582	-0.342147
O6	O	1.172044	-0.219937	-0.386850
O7	O	1.058063	-0.301614	-0.203078
O8	O	0.971948	-0.125513	-0.301875
O9	O	1.171964	-0.297269	-0.309503
O10	O	1.058249	-0.122221	-0.382511
O11	O	0.971842	-0.227576	-0.199790
O12	O	0.858014	-0.231902	-0.297469
O13	O	0.971890	-0.304873	-0.481191
O14	O	0.857988	-0.309219	-0.374767
O15	O	1.058216	-0.224264	-0.484529
O16	O	1.058030	-0.403657	-0.305097
O17	O	0.971784	-0.406935	-0.379107
C18	C	0.832516	-0.271531	-0.335139
C19	C	0.754448	-0.274519	-0.332156
C20	C	0.717813	-0.235725	-0.371087
C21	C	0.644459	-0.238530	-0.368279
C22	C	0.607741	-0.280133	-0.326543
C23	C	0.644381	-0.318929	-0.287607
C24	C	0.717733	-0.316120	-0.290413
C25	C	0.386262	-0.290620	-0.316051
C26	C	0.312905	-0.293427	-0.313250
C27	C	0.312988	-0.213027	-0.393921
C28	C	0.386342	-0.210225	-0.396725
C29	C	0.422975	-0.249019	-0.357788
C30	C	0.532762	-0.283002	-0.323673
C31	C	0.497953	-0.246146	-0.360655
C32	C	1.014911	-0.428137	-0.342109
C33	C	1.014935	-0.498104	-0.342116
C34	C	1.059884	-0.529241	-0.303622
C35	C	1.059917	-0.594983	-0.303637
C36	C	1.014989	-0.629584	-0.342140
C37	C	0.970037	-0.598439	-0.380641
C38	C	0.970011	-0.532699	-0.380629
N39	N	0.953546	-0.735195	-0.344579
N40	N	0.953574	-0.797645	-0.344587
C41	C	1.015067	-0.827656	-0.342179
N42	N	1.076534	-0.792857	-0.339750
N43	N	1.076506	-0.730401	-0.339739
C44	C	1.015013	-0.700869	-0.342157
C45	C	1.060055	-0.930077	-0.303699
C46	C	1.060089	-0.995820	-0.303719
C47	C	0.970204	-0.999276	-0.380720
C48	C	0.970176	-0.933534	-0.380704
C49	C	1.015101	-0.898939	-0.342190
C50	C	1.198202	-0.257605	-0.349183
C51	C	1.276270	-0.254632	-0.352181
C52	C	1.015061	-0.264566	-0.506340
C53	C	1.015086	-0.264560	-0.576309
C54	C	1.015114	-0.100387	-0.342200
C55	C	1.015162	-0.030417	-0.342223
C56	C	1.060034	-0.222585	-0.610915
C57	C	1.060033	-0.222557	-0.676657
C58	C	1.015091	-0.264516	-0.707792
C59	C	0.970134	-0.306494	-0.673178
C60	C	0.970132	-0.306516	-0.607436
N61	N	1.009672	-0.319790	-0.810799
N62	N	1.009679	-0.319768	-0.873251
C63	C	1.015096	-0.264452	-0.905867
N64	N	1.020519	-0.209158	-0.873672
N65	N	1.020516	-0.209181	-0.811214
C66	C	1.015089	-0.264497	-0.779077
C67	C	1.060045	-0.222444	-1.011758
C68	C	1.060039	-0.222416	-1.077501
C69	C	0.970144	-0.306358	-1.074021
C70	C	0.970147	-0.306381	-1.008278
C71	C	1.015101	-0.264424	-0.977151
C72	C	1.014985	-0.264550	-0.178595
C73	C	1.015096	-0.264374	-0.108631
H74	H	0.614479	-0.352799	-0.253622
O75	O	0.926580	-0.347318	-0.703450
C76	C	0.966543	-0.386432	-0.743029
H77	H	1.021858	-0.388220	-0.725354
H78	H	0.941107	-0.435845	-0.742788
H79	H	0.968979	-0.366862	-0.792949
O80	O	1.103661	-0.896536	-0.266205
C81	C	1.088342	-0.913223	-0.202868
H82	H	1.061367	-0.962009	-0.200517
H83	H	1.139049	-0.913508	-0.176626
H84	H	1.052224	-0.877644	-0.180246
H85	H	0.933626	-1.027448	-0.412072
O86	O	1.103689	-1.026169	-0.266342
C87	C	1.063787	-1.065804	-0.224121
H88	H	1.010523	-1.077690	-0.244198
H89	H	1.092429	-1.110933	-0.216893
H90	H	1.056145	-1.040843	-0.177133
H91	H	1.096640	-0.188231	-1.105677
O92	O	0.753586	-0.195367	-0.411615
C93	C	0.826185	-0.201194	-0.405735
H94	H	0.836173	-0.249361	-0.385412
H95	H	0.854090	-0.195924	-0.453962
H96	H	0.846999	-0.163010	-0.373077
H97	H	0.283154	-0.181443	-0.425621
O98	O	0.926308	-0.502382	-0.417933
C99	C	0.880935	-0.466156	-0.380310
H100	H	0.905727	-0.455369	-0.333573
H101	H	0.871488	-0.420279	-0.405571
H102	H	0.828899	-0.493524	-0.371364
O103	O	0.926439	-0.903384	-0.418108
C104	C	0.886802	-0.948018	-0.452107
H105	H	0.884406	-0.994989	-0.426238
H106	H	0.831451	-0.931176	-0.456650
H107	H	0.912497	-0.953981	-0.500924
H108	H	0.933526	-0.340696	-0.579260
O109	O	1.103718	-0.181765	-0.580777
C110	C	1.143403	-0.144721	-0.625424
H111	H	1.114638	-0.143623	-0.671175
H112	H	1.150929	-0.094843	-0.606725
H113	H	1.196731	-0.165741	-0.634475
H114	H	1.096646	-0.188277	-0.986413
H115	H	1.096634	-0.188373	-0.704838
O116	O	0.926559	-0.347099	-1.104357
C117	C	0.936187	-0.338070	-1.169803
H118	H	0.990402	-0.315379	-1.180878
H119	H	0.931401	-0.385398	-1.194599
H120	H	0.894544	-0.306134	-1.186854
O121	O	0.926465	-0.347219	-0.974755
C122	C	0.886783	-0.384236	-1.016329
H123	H	0.915552	-0.385307	-1.064304
H124	H	0.879252	-0.434126	-0.997040
H125	H	0.833456	-0.363210	-1.021262
H126	H	0.416233	-0.176350	-0.430714
O127	O	0.608981	-0.200821	-0.406161
C128	C	0.657119	-0.163491	-0.443591
H129	H	0.709395	-0.187280	-0.447723
H130	H	0.635954	-0.157659	-0.492390
H131	H	0.664932	-0.115349	-0.420927
O132	O	1.103596	-0.495731	-0.266200
C133	C	1.143265	-0.537317	-0.232217
H134	H	1.145696	-0.584072	-0.258102
H135	H	1.198602	-0.516174	-0.227667
H136	H	1.117575	-0.545333	-0.183403
O137	O	0.277344	-0.333858	-0.272649
C138	C	0.325406	-0.367509	-0.238895
H139	H	0.377704	-0.339719	-0.238757
H140	H	0.304175	-0.374963	-0.188476
H141	H	0.333203	-0.415053	-0.262155
H142	H	0.527852	-0.212270	-0.394634
O143	O	0.497169	-0.323503	-0.283170
C144	C	0.515054	-0.385579	-0.297510
H145	H	0.568328	-0.384883	-0.323738
H146	H	0.517517	-0.413649	-0.252123
H147	H	0.473780	-0.408401	-0.328262
H148	H	0.416080	-0.322209	-0.284346
H149	H	0.747560	-0.347710	-0.258711
O150	O	1.103639	-0.625271	-0.266325
C151	C	1.148990	-0.661538	-0.303927
H152	H	1.153326	-0.641530	-0.353670
H153	H	1.203045	-0.660208	-0.283253
H154	H	1.127274	-0.712200	-0.305264
O155	O	0.926491	-0.632114	-0.418076
C156	C	0.966474	-0.668552	-0.460313
H157	H	1.019717	-0.676339	-0.440195
H158	H	0.937878	-0.715891	-0.467637
H159	H	0.974157	-0.642893	-0.507260
