data_functionalizedCrystal
_audit_creation_method	'MofGen! by Chris Wilmer'
_symmetry_space_group_name_H-M	'P1'
_symmetry_Int_Tables_number	1
_symmetry_cell_setting	triclinic
loop_
_symmetry_equiv_pos_as_xyz
  x,y,z
_cell_length_a	10.654541
_cell_length_b	9.130307
_cell_length_c	19.188937
_cell_angle_alpha	90.004350
_cell_angle_beta	83.815679
_cell_angle_gamma	90.000178
loop_
_atom_site_label
_atom_site_type_symbol
_atom_site_fract_x
_atom_site_fract_y
_atom_site_fract_z
O1	O	-1.665768	-0.121758	-0.098052
O2	O	-1.300092	-0.121772	-0.107397
O3	O	-1.493478	-0.121751	-0.001138
O4	O	-1.472381	-0.121779	-0.204311
O5	O	-1.493472	0.121848	-0.001137
O6	O	-1.300085	0.121827	-0.107396
O7	O	-1.665762	0.121841	-0.098051
Cu8	Cu	-1.482923	0.144077	-0.102724
Cu9	Cu	-1.482930	-0.144008	-0.102725
O10	O	-1.472375	0.121820	-0.204310
C11	C	-1.253305	0.000026	-0.106711
C12	C	-1.113905	0.000022	-0.104659
N13	N	-1.482927	0.346699	-0.102722
C14	C	-1.492790	0.000049	0.024878
C15	C	-1.490736	0.000050	0.102395
C16	C	-1.712548	0.000039	-0.098738
C17	C	-1.851949	0.000034	-0.100789
C18	C	-1.083251	-0.000014	-0.231720
C19	C	-1.002435	-0.000038	-0.294284
C20	C	-0.871458	-0.000039	-0.292352
C21	C	-0.821295	-0.000012	-0.227849
C22	C	-0.902110	0.000012	-0.165285
C23	C	-1.033089	0.000009	-0.167224
C24	C	-0.932764	0.000058	-0.038226
C25	C	-1.063742	0.000049	-0.040156
C26	C	-0.882601	0.000085	0.026277
C27	C	-0.963417	0.000098	0.088842
C28	C	-1.094401	0.000098	0.086907
C29	C	-1.144557	0.000072	0.022407
N30	N	-1.482936	-0.346630	-0.102721
C31	C	-1.654240	0.346708	-0.008658
C32	C	-1.739905	0.423378	0.038372
C33	C	-1.739917	0.576712	0.038373
C34	C	-1.654253	0.653378	-0.008661
C35	C	-1.568589	0.576707	-0.055691
C36	C	-1.568588	0.423370	-0.055688
C37	C	-1.397272	0.576699	-0.149751
C38	C	-1.397263	0.423365	-0.149756
C39	C	-1.311608	0.653365	-0.196784
C40	C	-1.225947	0.576694	-0.243819
C41	C	-1.225939	0.423352	-0.243818
C42	C	-1.311598	0.346695	-0.196786
C43	C	-1.476112	0.132813	0.655752
C44	C	-1.478030	0.132820	0.582915
C45	C	-1.478998	0.000035	0.546488
C46	C	-1.478016	-0.132767	0.582902
C47	C	-1.476086	-0.132769	0.655737
N48	N	-1.553489	-0.098799	0.436977
N49	N	-1.555325	-0.098788	0.367787
C50	C	-1.484809	0.000035	0.327040
N51	N	-1.412404	0.098868	0.358099
N52	N	-1.410573	0.098860	0.427296
C53	C	-1.481089	0.000023	0.467511
C54	C	-1.487860	0.132835	0.211656
C55	C	-1.489770	0.132836	0.138817
C56	C	-1.489769	-0.132754	0.138807
C57	C	-1.487847	-0.132751	0.211644
C58	C	-1.486899	0.000047	0.248064
C59	C	-1.473068	0.000023	0.769674
C60	C	-1.475138	0.000029	0.692158
H61	H	-1.043292	-0.000056	-0.346801
H62	H	-1.189898	-0.000045	-0.233299
H63	H	-1.475291	-0.240901	0.685379
H64	H	-1.487078	0.240968	0.241310
O65	O	-1.475073	0.276046	0.695028
H66	H	-1.559770	0.282405	0.734017
O67	O	-1.654228	0.181326	-0.008657
H68	H	-1.747969	0.140887	-0.020311
H69	H	-1.311604	0.221842	-0.196783
H70	H	-1.160196	0.000122	0.137855
H71	H	-1.311616	0.778217	-0.196779
O72	O	-1.479054	-0.275990	0.543620
H73	H	-1.565511	-0.282357	0.516250
H74	H	-1.490560	0.240969	0.109176
H75	H	-0.805657	-0.000048	-0.343296
H76	H	-1.490542	-0.240870	0.109148
O77	O	-0.680026	0.000011	-0.225767
H78	H	-0.658721	0.000043	-0.170407
H79	H	-1.809649	0.360943	0.076668
H80	H	-1.478800	0.240952	0.553265
O81	O	-0.741334	0.000088	0.028367
H82	H	-0.693562	0.000054	-0.025972
O83	O	-1.486768	-0.275968	0.250916
H84	H	-1.487757	-0.368304	0.213352
O85	O	-0.909318	0.000140	0.158407
H86	H	-0.850377	-0.099143	0.162336
H87	H	-1.654259	0.778230	-0.008652
H88	H	-1.251204	0.000055	0.020826
O89	O	-1.133563	0.659376	-0.294546
H90	H	-1.147965	0.778878	-0.286645
H91	H	-1.809668	0.639137	0.076671
O92	O	-1.133545	0.340656	-0.294545
H93	H	-1.073993	0.419732	-0.327250
