data_functionalizedCrystal
_audit_creation_method	'MofGen! by Chris Wilmer'
_symmetry_space_group_name_H-M	'P1'
_symmetry_Int_Tables_number	1
_symmetry_cell_setting	triclinic
loop_
_symmetry_equiv_pos_as_xyz
  x,y,z
_cell_length_a	12.827893
_cell_length_b	12.759399
_cell_length_c	12.827885
_cell_angle_alpha	90.029138
_cell_angle_beta	90.019272
_cell_angle_gamma	90.015597
loop_
_atom_site_label
_atom_site_type_symbol
_atom_site_fract_x
_atom_site_fract_y
_atom_site_fract_z
Zn1	Zn	1.597669	-0.418211	0.590853
Zn2	Zn	1.597563	-0.593926	0.416116
Zn3	Zn	1.422911	-0.418263	0.416127
Zn4	Zn	1.422896	-0.593849	0.590816
O5	O	1.510260	-0.506062	0.503478
O6	O	1.743891	-0.441531	0.567685
O7	O	1.574357	-0.570678	0.269881
O8	O	1.446143	-0.271235	0.439325
O9	O	1.743813	-0.570628	0.439306
O10	O	1.574538	-0.271197	0.567696
O11	O	1.446041	-0.441619	0.269889
O12	O	1.276673	-0.441544	0.439289
O13	O	1.446118	-0.570496	0.737057
O14	O	1.276662	-0.570546	0.567632
O15	O	1.574523	-0.441456	0.737084
O16	O	1.574343	-0.740937	0.439269
O17	O	1.446015	-0.740880	0.567621
C18	C	1.238750	-0.506043	0.503458
C19	C	1.122597	-0.506060	0.503474
C20	C	1.070850	-0.442292	0.567099
C21	C	0.950800	-0.442308	0.567118
C22	C	1.510194	-0.779030	0.503463
C23	C	1.510262	-0.895806	0.503491
C24	C	1.443571	-1.060501	0.436630
C25	C	1.443501	-0.950777	0.436612
C26	C	1.577088	-0.950566	0.570400
C27	C	1.577152	-1.060288	0.570423
C28	C	1.376813	-1.115465	0.369740
C29	C	1.309985	-1.060714	0.302831
C30	C	1.309916	-0.950990	0.302813
C31	C	1.376675	-0.896017	0.369702
C32	C	1.782830	-0.506082	0.503499
C33	C	1.898983	-0.506091	0.503507
C34	C	1.510331	-0.505961	0.776048
C35	C	1.510361	-0.505918	0.892201
C36	C	1.510354	-0.232029	0.503516
C37	C	1.510394	-0.115252	0.503533
C38	C	1.510249	-0.506087	0.231968
C39	C	1.510421	-0.505834	0.115815
C40	C	1.573907	-0.442053	0.944000
C41	C	1.573940	-0.442007	1.064050
H42	H	0.906299	-0.387717	0.621593
H43	H	0.943477	-0.560694	0.449039
C44	C	1.436917	-0.579708	1.055654
C45	C	1.318112	-0.571134	1.070554
C46	C	1.244607	-0.645008	1.010384
C47	C	1.289908	-0.727457	0.935314
C48	C	1.408719	-0.736034	0.920411
C49	C	1.482223	-0.662160	0.980581
H50	H	1.284572	-0.510098	1.126128
H51	H	1.156655	-0.638658	1.021416
H52	H	1.235495	-0.782143	0.890773
H53	H	1.442258	-0.797071	0.864837
H54	H	1.570175	-0.668510	0.969549
C55	C	1.131056	-0.368508	0.640665
C56	C	1.251102	-0.368591	0.640535
C57	C	1.311305	-0.294801	0.714100
C58	C	1.251462	-0.220928	0.787794
C59	C	1.131410	-0.220842	0.787927
C60	C	1.071207	-0.294632	0.714362
H61	H	1.295407	-0.423279	0.585980
H62	H	1.400175	-0.294865	0.714001
H63	H	1.296028	-0.166304	0.842251
H64	H	1.087105	-0.166154	0.842482
H65	H	0.982336	-0.294569	0.714461
C66	C	1.062391	-0.579835	0.429900
C67	C	0.987295	-0.534154	0.348012
C68	C	0.927092	-0.607931	0.274435
C69	C	0.941985	-0.727389	0.282745
C70	C	1.017084	-0.773076	0.364636
C71	C	1.077287	-0.699299	0.438214
H72	H	0.976268	-0.445719	0.341857
H73	H	0.871499	-0.574110	0.213814
H74	H	0.897419	-0.782003	0.228279
H75	H	1.028112	-0.861511	0.370791
H76	H	1.132880	-0.733120	0.498835
C77	C	1.650529	-0.890099	0.643965
C78	C	1.724037	-0.950324	0.717557
C79	C	1.797483	-0.889859	0.791120
C80	C	1.797420	-0.769170	0.791090
C81	C	1.723909	-0.708938	0.717496
C82	C	1.650463	-0.769402	0.643933
H83	H	1.724086	-1.039672	0.717582
H84	H	1.851900	-0.934448	0.845600
H85	H	1.851789	-0.724410	0.845546
H86	H	1.723860	-0.619590	0.717471
H87	H	1.596045	-0.724814	0.589454
H88	H	1.255495	-0.906412	0.248341
H89	H	1.376864	-1.204808	0.369745
H90	H	1.631553	-1.104867	0.624913
H91	H	1.628347	-0.387332	1.108596
C92	C	1.647377	-0.368230	0.883852
C93	C	1.602036	-0.285840	0.808795
C94	C	1.675509	-0.212016	0.748649
C95	C	1.794322	-0.220582	0.763560
C96	C	1.839668	-0.302974	0.838620
C97	C	1.766196	-0.376799	0.898766
H98	H	1.514078	-0.279497	0.797755
H99	H	1.641940	-0.151024	0.693085
H100	H	1.848711	-0.165933	0.719037
H101	H	1.927626	-0.309318	0.849661
H102	H	1.799765	-0.437791	0.954330
H103	H	1.455975	-0.560555	0.936732
C104	C	1.236551	-1.121178	0.229259
C105	C	1.281926	-1.196622	0.147267
C106	C	1.208489	-1.257085	0.073694
C107	C	1.089677	-1.242103	0.082113
C108	C	1.044295	-1.166656	0.164108
C109	C	1.117732	-1.106193	0.237681
H110	H	1.369884	-1.207716	0.141032
H111	H	1.242085	-1.312936	0.012996
H112	H	1.035314	-1.286861	0.027650
H113	H	0.956337	-1.155562	0.170344
H114	H	1.084136	-1.050342	0.298380
H115	H	1.376610	-0.806672	0.369684
