data_functionalizedCrystal
_audit_creation_method	'MofGen! by Chris Wilmer'
_symmetry_space_group_name_H-M	'P1'
_symmetry_Int_Tables_number	1
_symmetry_cell_setting	triclinic
loop_
_symmetry_equiv_pos_as_xyz
  x,y,z
_cell_length_a	14.853567
_cell_length_b	9.065218
_cell_length_c	7.540329
_cell_angle_alpha	90.001757
_cell_angle_beta	89.999401
_cell_angle_gamma	95.674592
loop_
_atom_site_label
_atom_site_type_symbol
_atom_site_fract_x
_atom_site_fract_y
_atom_site_fract_z
O1	O	1.197788	-0.192614	-0.147378
O2	O	0.935499	-0.215559	-0.147402
O3	O	1.072065	0.010663	-0.147386
O4	O	1.061222	-0.418836	-0.147394
O5	O	1.072057	0.010666	0.147579
O6	O	0.935490	-0.215556	0.147563
O7	O	1.197780	-0.192611	0.147587
Cu8	Cu	1.066634	-0.204084	0.174508
Cu9	Cu	1.066644	-0.204087	-0.174323
O10	O	1.061214	-0.418834	0.147571
C11	C	1.071019	0.065631	0.000094
C12	C	1.067903	0.229412	0.000085
C13	C	0.901898	-0.214518	0.000077
C14	C	0.801791	-0.211403	0.000068
C15	C	1.231381	-0.193652	0.000104
C16	C	1.331487	-0.196768	0.000102
C17	C	1.745113	-0.344319	0.000067
C18	C	1.764405	-0.075561	0.000073
C19	C	1.670350	-0.072632	0.000083
C20	C	1.613672	-0.205548	0.000083
C21	C	1.651049	-0.341393	0.000072
C22	C	1.632965	0.063211	0.000076
C23	C	1.538905	0.066146	0.000084
C24	C	1.482225	-0.066772	0.000096
C25	C	1.519607	-0.202622	0.000087
C26	C	1.462929	-0.335539	0.000086
C27	C	1.500310	-0.471391	0.000091
C28	C	1.594369	-0.474311	0.000084
C29	C	1.388166	-0.063852	0.000102
C30	C	1.368864	-0.332613	0.000091
C31	C	1.062260	-0.473801	0.000088
C32	C	1.065376	-0.637582	0.000085
N33	N	1.066634	-0.204080	0.419856
N34	N	1.066652	-0.204078	-0.419671
H35	H	1.322722	-0.440851	0.000102
H36	H	1.454150	-0.579611	0.000080
C37	C	1.729987	-0.598123	0.000066
C38	C	1.635460	-0.623629	0.000082
H39	H	1.755355	-0.690307	0.000054
H40	H	1.749360	-0.543394	0.102918
H41	H	1.749352	-0.543390	-0.102804
H42	H	1.616094	-0.678354	0.102960
H43	H	1.616079	-0.678382	-0.102780
H44	H	1.775553	-0.454927	0.000078
H45	H	1.810558	0.032653	0.000063
C46	C	1.785717	0.178045	0.000101
C47	C	1.695265	0.209305	0.000084
H48	H	1.824180	0.268243	0.000122
H49	H	1.797165	0.122362	-0.102754
H50	H	1.797151	0.122348	0.102969
H51	H	1.683829	0.264993	-0.102790
H52	H	1.683813	0.265011	0.102950
H53	H	1.508478	0.176765	0.000083
C54	C	1.416687	0.201507	0.000083
C55	C	1.347076	0.085462	0.000095
H56	H	1.391319	0.293691	0.000090
H57	H	1.452967	0.194769	-0.102775
H58	H	1.452977	0.194774	0.102948
H59	H	1.310790	0.092188	-0.102777
H60	H	1.310781	0.092204	0.102964
