data_functionalizedCrystal
_audit_creation_method	'MofGen! by Chris Wilmer'
_symmetry_space_group_name_H-M	'P1'
_symmetry_Int_Tables_number	1
_symmetry_cell_setting	triclinic
loop_
_symmetry_equiv_pos_as_xyz
  x,y,z
_cell_length_a	16.053811
_cell_length_b	16.992697
_cell_length_c	16.956993
_cell_angle_alpha	83.361577
_cell_angle_beta	87.629512
_cell_angle_gamma	92.750493
loop_
_atom_site_label
_atom_site_type_symbol
_atom_site_fract_x
_atom_site_fract_y
_atom_site_fract_z
O1	O	-0.069317	-1.032984	-0.165259
O2	O	0.430683	-0.532984	0.334741
O3	O	-0.069345	-0.804820	-0.163410
O4	O	0.430655	-0.304820	0.336590
O5	O	-0.069319	-0.932608	-0.049130
O6	O	0.430681	-0.432608	0.450870
O7	O	-0.069343	-0.905196	-0.279539
O8	O	0.430657	-0.405196	0.220461
O9	O	0.069539	-0.925575	-0.055393
O10	O	0.569539	-0.425575	0.444607
O11	O	0.069513	-0.797787	-0.169673
O12	O	0.569513	-0.297787	0.330327
O13	O	0.069541	-1.025951	-0.171522
O14	O	0.569541	-0.525951	0.328478
Zn15	Zn	0.091574	-0.910752	-0.171592
Zn16	Zn	0.591574	-0.410752	0.328408
Zn17	Zn	-0.091377	-0.920018	-0.163340
Zn18	Zn	0.408623	-0.420018	0.336660
O19	O	0.069515	-0.898163	-0.285802
O20	O	0.569515	-0.398163	0.214198
C21	C	0.000081	-0.772245	-0.164165
C22	C	0.500081	-0.272245	0.335835
C23	C	0.000070	-0.685661	-0.157074
C24	C	0.500070	-0.185661	0.342926
N25	N	0.216433	-0.904434	-0.177224
N26	N	0.716433	-0.404434	0.322776
C27	C	0.000063	-0.630987	-0.225488
C28	C	0.500063	-0.130987	0.274512
C29	C	0.000074	-0.549632	-0.218821
C30	C	0.500074	-0.049632	0.281179
C31	C	0.000086	-0.522953	-0.143739
C32	C	0.500086	-0.022953	0.356261
C33	C	0.000096	-0.577633	-0.075320
C34	C	0.500096	-0.077633	0.424680
C35	C	0.000091	-0.658986	-0.081987
C36	C	0.500091	-0.158986	0.418013
C37	C	0.000108	-0.281145	-0.116104
C38	C	0.500108	0.218855	0.383896
C39	C	0.000110	-0.199785	-0.109441
C40	C	0.500110	0.300215	0.390559
C41	C	0.000090	-0.171789	-0.252943
C42	C	0.500090	0.328211	0.247057
C43	C	0.000080	-0.253146	-0.259604
C44	C	0.500080	0.246854	0.240396
C45	C	0.000094	-0.307819	-0.191185
C46	C	0.500094	0.192181	0.308815
N47	N	0.000095	-0.439795	-0.136923
N48	N	0.500095	0.060205	0.363077
N49	N	0.000091	-0.390974	-0.198003
N50	N	0.500091	0.109026	0.301997
C51	C	0.260138	-0.958825	-0.128617
C52	C	0.760138	-0.458825	0.371383
C53	C	0.347543	-0.954412	-0.132565
C54	C	0.847543	-0.454412	0.367435
C55	C	0.391243	-0.895611	-0.185123
C56	C	0.891243	-0.395611	0.314877
C57	C	0.347532	-0.841215	-0.233732
C58	C	0.847532	-0.341215	0.266268
C59	C	0.260127	-0.845625	-0.229780
C60	C	0.760127	-0.345625	0.270220
C61	C	0.652648	-0.876350	-0.202363
C62	C	1.152648	-0.376350	0.297637
C63	C	0.740059	-0.871946	-0.206313
C64	C	1.240059	-0.371946	0.293687
C65	C	0.740065	-0.985143	-0.105145
C66	C	1.240065	-0.485143	0.394855
C67	C	0.652659	-0.989551	-0.101201
C68	C	1.152659	-0.489551	0.398799
C69	C	0.608955	-0.935151	-0.149806
C70	C	1.108955	-0.435151	0.350194
N71	N	0.480586	-0.891101	-0.189161
N72	N	0.980586	-0.391101	0.310839
N73	N	0.519614	-0.939659	-0.145764
N74	N	1.019614	-0.439659	0.354236
N75	N	0.783764	-0.926337	-0.157707
N76	N	1.283764	-0.426337	0.342293
C77	C	0.000111	-0.930495	-0.022643
C78	C	0.500111	-0.430495	0.477357
C79	C	0.000114	-0.934667	0.065611
C80	C	0.500114	-0.434667	0.565611
C81	C	0.000110	-0.058526	-0.170766
C82	C	0.500110	0.441474	0.329234
C83	C	0.000103	-0.145111	-0.177855
C84	C	0.500103	0.354889	0.322145
C85	C	0.000146	-0.965883	0.562921
C86	C	0.500146	-0.465883	1.062921
C87	C	0.000145	-0.961956	0.479996
C88	C	0.500145	-0.461956	0.979996
C89	C	0.000129	-0.888244	0.433606
C90	C	0.500129	-0.388244	0.933606
C91	C	0.000122	-0.818454	0.470144
C92	C	0.500122	-0.318454	0.970144
C93	C	0.000129	-0.822382	0.553067
C94	C	0.500129	-0.322382	1.053067
C95	C	0.000114	-0.868805	0.185073
C96	C	0.500114	-0.368805	0.685073
C97	C	0.000105	-0.864883	0.102145
C98	C	0.500105	-0.364883	0.602145
C99	C	0.000129	-1.008385	0.112002
C100	C	0.500129	-0.508385	0.612002
C101	C	0.000131	-1.012306	0.194926
C102	C	0.500131	-0.512306	0.694926
C103	C	0.000128	-0.942516	0.231457
C104	C	0.500128	-0.442516	0.731457
N105	N	0.000126	-0.884229	0.348843
N106	N	0.500126	-0.384229	0.848843
N107	N	0.000137	-0.946532	0.316218
N108	N	0.500137	-0.446532	0.816218
C109	C	0.000099	-0.900275	0.687710
C110	C	0.500099	-0.400275	1.187710
C111	C	0.000136	-0.896099	0.599454
C112	C	0.500136	-0.396099	1.099454
H113	H	0.000053	-0.652702	-0.286628
H114	H	0.500053	-0.152702	0.213372
C115	C	0.000144	-1.085148	0.071810
C116	C	0.500144	-0.585148	0.571810
N117	N	0.000161	-1.142969	0.041538
N118	N	0.500161	-0.642969	0.541538
H119	H	0.617072	-0.832057	-0.241941
H120	H	1.117072	-0.332057	0.258059
C121	C	0.000111	-0.548283	0.007272
C122	C	0.500111	-0.048283	0.507272
N123	N	0.000119	-0.526178	0.069482
N124	N	0.500119	-0.026178	0.569482
C125	C	0.000081	-0.489492	-0.294084
C126	C	0.500081	0.010508	0.205916
N127	N	0.000093	-0.444195	-0.350776
N128	N	0.500093	0.055805	0.149224
C129	C	0.000156	-1.038725	0.439814
C130	C	0.500156	-0.538725	0.939814
N131	N	0.000164	-1.096551	0.409549
N132	N	0.500164	-0.596551	0.909549
H133	H	0.000080	-0.127266	-0.308646
H134	H	0.500080	0.372734	0.191354
H135	H	0.000095	-0.804855	0.064375
H136	H	0.500095	-0.304855	0.564375
C137	C	0.212052	-0.785796	-0.283257
C138	C	0.712052	-0.285796	0.216743
N139	N	0.175843	-0.740731	-0.323539
N140	N	0.675843	-0.240731	0.176461
C141	C	0.788146	-1.044972	-0.051676
C142	C	1.288146	-0.544972	0.448324
N143	N	0.824360	-1.090035	-0.011397
N144	N	1.324360	-0.590035	0.488603
C145	C	0.604596	-1.054233	-0.043378
C146	C	1.104596	-0.554233	0.456622
N147	N	0.568395	-1.102953	0.000175
N148	N	1.068395	-0.602953	0.500175
C149	C	0.000118	-0.341276	-0.040839
C150	C	0.500118	0.158724	0.459161
N151	N	0.000124	-0.386570	0.015854
N152	N	0.500124	0.113430	0.515854
H153	H	0.000128	-0.765555	0.582811
H154	H	0.500128	-0.265555	1.082811
H155	H	0.000102	-0.811977	0.214807
H156	H	0.500102	-0.311977	0.714807
H157	H	0.000060	-0.274861	-0.320744
H158	H	0.500060	0.225139	0.179256
H159	H	0.775635	-0.824060	-0.249116
H160	H	1.275635	-0.324060	0.250884
C161	C	0.212076	-1.023511	-0.070798
C162	C	0.712076	-0.523511	0.429202
N163	N	0.175879	-1.072232	-0.027244
N164	N	0.675879	-0.572232	0.472756
H165	H	0.000119	-0.178068	-0.048297
H166	H	0.500119	0.321932	0.451703
H167	H	0.000114	-0.758437	0.432367
H168	H	0.500114	-0.258437	0.932367
H169	H	0.000147	-1.072330	0.232692
H170	H	0.500147	-0.572330	0.732692
H171	H	0.000097	-0.703502	-0.026277
H172	H	0.500097	-0.203502	0.473723
H173	H	0.383128	-0.998701	-0.092985
H174	H	0.883128	-0.498701	0.407015
C175	C	0.395604	-0.776526	-0.291539
C176	C	0.895604	-0.276526	0.208461
N177	N	0.431811	-0.727800	-0.335080
N178	N	0.931811	-0.227800	0.164920
H179	H	0.000152	-1.025908	0.600687
H180	H	0.500152	-0.525908	1.100687
