data_functionalizedCrystal
_audit_creation_method	'MofGen! by Chris Wilmer'
_symmetry_space_group_name_H-M	'P1'
_symmetry_Int_Tables_number	1
_symmetry_cell_setting	triclinic
loop_
_symmetry_equiv_pos_as_xyz
  x,y,z
_cell_length_a	17.038272
_cell_length_b	17.038272
_cell_length_c	13.596369
_cell_angle_alpha	89.993837
_cell_angle_beta	90.000447
_cell_angle_gamma	91.111556
loop_
_atom_site_label
_atom_site_type_symbol
_atom_site_fract_x
_atom_site_fract_y
_atom_site_fract_z
O1	O	1.048755	0.170538	-0.081669
O2	O	1.298755	0.420538	0.168331
O3	O	1.548755	0.670538	0.418331
O4	O	1.798755	0.920538	0.668331
O5	O	0.820944	0.167830	-0.081698
O6	O	1.070944	0.417830	0.168302
O7	O	1.320944	0.667830	0.418302
O8	O	1.570944	0.917830	0.668302
O9	O	0.933496	0.055278	-0.081676
O10	O	1.183496	0.305278	0.168324
O11	O	1.433496	0.555278	0.418324
O12	O	1.683496	0.805278	0.668324
O13	O	0.936204	0.283090	-0.081691
O14	O	1.186204	0.533090	0.168309
O15	O	1.436204	0.783090	0.418309
O16	O	1.686204	1.033090	0.668309
O17	O	0.933483	0.055271	0.081907
O18	O	1.183483	0.305271	0.331907
O19	O	1.433483	0.555271	0.581907
O20	O	1.683483	0.805271	0.831907
O21	O	0.820931	0.167823	0.081885
O22	O	1.070931	0.417823	0.331885
O23	O	1.320931	0.667823	0.581885
O24	O	1.570931	0.917823	0.831885
O25	O	1.048743	0.170531	0.081914
O26	O	1.298743	0.420531	0.331914
O27	O	1.548743	0.670531	0.581914
O28	O	1.798743	0.920531	0.831914
Zn29	Zn	0.934835	0.169176	0.107872
Zn30	Zn	1.184835	0.419176	0.357872
Zn31	Zn	1.434835	0.669176	0.607872
Zn32	Zn	1.684835	0.919176	0.857872
Zn33	Zn	0.934852	0.169185	-0.107656
Zn34	Zn	1.184852	0.419185	0.142344
Zn35	Zn	1.434852	0.669185	0.392344
Zn36	Zn	1.684852	0.919185	0.642344
O37	O	0.936191	0.283083	0.081892
O38	O	1.186191	0.533083	0.331892
O39	O	1.436191	0.783083	0.581892
O40	O	1.686191	1.033083	0.831892
C41	C	0.791645	0.165364	0.000090
C42	C	1.041645	0.415364	0.250090
C43	C	1.291645	0.665364	0.500090
C44	C	1.541645	0.915364	0.750090
C45	C	0.704361	0.158016	0.000079
C46	C	0.954361	0.408016	0.250079
C47	C	1.204361	0.658016	0.500079
C48	C	1.454361	0.908016	0.750079
C49	C	0.658752	0.225479	0.000075
C50	C	0.908752	0.475479	0.250075
C51	C	1.158752	0.725479	0.500075
C52	C	1.408752	0.975479	0.750075
C53	C	0.576740	0.218570	0.000089
C54	C	0.826740	0.468570	0.250089
C55	C	1.076740	0.718570	0.500089
C56	C	1.326740	0.968570	0.750089
C57	C	0.540339	0.144197	0.000100
C58	C	0.790339	0.394197	0.250100
C59	C	1.040339	0.644197	0.500100
C60	C	1.290339	0.894197	0.750100
C61	C	0.585954	0.076728	0.000107
C62	C	0.835954	0.326728	0.250107
C63	C	1.085954	0.576728	0.500107
C64	C	1.335954	0.826728	0.750107
C65	C	0.667965	0.083638	0.000100
C66	C	0.917965	0.333638	0.250100
C67	C	1.167965	0.583638	0.500100
C68	C	1.417965	0.833638	0.750100
C69	C	0.292951	0.119787	0.000128
C70	C	0.542951	0.369787	0.250128
C71	C	0.792951	0.619787	0.500128
C72	C	1.042951	0.869787	0.750128
C73	C	0.210935	0.112882	0.000132
C74	C	0.460935	0.362882	0.250132
C75	C	0.710935	0.612882	0.500132
C76	C	0.960935	0.862882	0.750132
C77	C	0.201726	0.254725	0.000116
C78	C	0.451726	0.504725	0.250116
C79	C	0.701726	0.754725	0.500116
C80	C	0.951726	1.004725	0.750116
C81	C	0.283739	0.261628	0.000103
C82	C	0.533739	0.511628	0.250103
C83	C	0.783739	0.761628	0.500103
C84	C	1.033739	1.011628	0.750103
C85	C	0.329347	0.194159	0.000115
C86	C	0.579347	0.444159	0.250115
C87	C	0.829347	0.694159	0.500115
C88	C	1.079347	0.944159	0.750115
C89	C	0.456510	0.137133	0.000111
C90	C	0.706510	0.387133	0.250111
C91	C	0.956510	0.637133	0.500111
C92	C	1.206510	0.887133	0.750111
C93	C	0.413174	0.201224	0.000111
C94	C	0.663174	0.451224	0.250111
C95	C	0.913174	0.701224	0.500111
C96	C	1.163174	0.951224	0.750111
C97	C	0.931027	0.025982	0.000115
C98	C	1.181027	0.275982	0.250115
C99	C	1.431027	0.525982	0.500115
C100	C	1.681027	0.775982	0.750115
C101	C	0.923679	-0.061301	0.000114
C102	C	1.173679	0.188699	0.250114
C103	C	1.423679	0.438699	0.500114
C104	C	1.673679	0.688699	0.750114
C105	C	0.991142	-0.106911	0.000123
C106	C	1.241142	0.143089	0.250123
C107	C	1.491142	0.393089	0.500123
C108	C	1.741142	0.643089	0.750123
C109	C	0.984233	-0.188923	0.000113
C110	C	1.234233	0.061077	0.250113
C111	C	1.484233	0.311077	0.500113
C112	C	1.734233	0.561077	0.750113
C113	C	0.909860	-0.225324	0.000100
C114	C	1.159860	0.024676	0.250100
C115	C	1.409860	0.274676	0.500100
C116	C	1.659860	0.524676	0.750100
C117	C	0.842391	-0.179708	0.000088
C118	C	1.092391	0.070292	0.250088
C119	C	1.342391	0.320292	0.500088
C120	C	1.592391	0.570292	0.750088
C121	C	0.849301	-0.097698	0.000091
C122	C	1.099301	0.152302	0.250091
C123	C	1.349301	0.402302	0.500091
C124	C	1.599301	0.652302	0.750091
C125	C	0.885449	-0.472712	0.000084
C126	C	1.135449	-0.222712	0.250084
C127	C	1.385449	0.027288	0.500084
C128	C	1.635449	0.277288	0.750084
C129	C	0.878545	-0.554728	0.000084
C130	C	1.128545	-0.304728	0.250084
C131	C	1.378545	-0.054728	0.500084
C132	C	1.628545	0.195272	0.750084
C133	C	1.020387	-0.563937	0.000107
C134	C	1.270387	-0.313937	0.250107
C135	C	1.520387	-0.063937	0.500107
C136	C	1.770387	0.186063	0.750107
C137	C	1.027291	-0.481924	0.000116
C138	C	1.277291	-0.231924	0.250116
C139	C	1.527291	0.018076	0.500116
C140	C	1.777291	0.268076	0.750116
C141	C	0.959822	-0.436316	0.000098
C142	C	1.209822	-0.186316	0.250098
C143	C	1.459822	0.063684	0.500098
C144	C	1.709822	0.313684	0.750098
C145	C	0.902796	-0.309153	0.000093
C146	C	1.152796	-0.059153	0.250093
C147	C	1.402796	0.190847	0.500093
C148	C	1.652796	0.440847	0.750093
C149	C	0.966886	-0.352488	0.000099
C150	C	1.216886	-0.102488	0.250099
C151	C	1.466886	0.147512	0.500099
C152	C	1.716886	0.397512	0.750099
C153	C	1.078042	0.172997	0.000124
C154	C	1.328042	0.422997	0.250124
C155	C	1.578042	0.672997	0.500124
C156	C	1.828042	0.922997	0.750124
C157	C	1.165326	0.180346	0.000128
C158	C	1.415326	0.430346	0.250128
C159	C	1.665326	0.680346	0.500128
C160	C	1.915326	0.930346	0.750128
C161	C	0.938660	0.312379	0.000098
C162	C	1.188660	0.562379	0.250098
C163	C	1.438660	0.812379	0.500098
C164	C	1.688660	1.062379	0.750098
C165	C	0.946008	0.399663	0.000093
C166	C	1.196008	0.649663	0.250093
C167	C	1.446008	0.899663	0.500093
C168	C	1.696008	1.149663	0.750093
N169	N	0.934830	0.169169	0.254963
N170	N	1.184830	0.419169	0.504963
N171	N	1.434830	0.669169	0.754963
N172	N	1.684830	0.919169	1.004963
N173	N	0.934863	0.169186	-0.254748
N174	N	1.184863	0.419186	-0.004748
N175	N	1.434863	0.669186	0.245252
N176	N	1.684863	0.919186	0.495252
C177	C	0.934851	0.169186	0.656254
C178	C	1.184851	0.419186	0.906254
C179	C	1.434851	0.669186	1.156254
C180	C	1.684851	0.919186	1.406254
C181	C	0.934843	0.169184	0.544603
C182	C	1.184843	0.419184	0.794603
C183	C	1.434843	0.669184	1.044603
C184	C	1.684843	0.919184	1.294603
C185	C	0.934841	0.169178	0.455612
C186	C	1.184841	0.419178	0.705612
C187	C	1.434841	0.669178	0.955612
C188	C	1.684841	0.919178	1.205612
C189	C	0.934832	0.169175	0.343954
C190	C	1.184832	0.419175	0.593954
C191	C	1.434832	0.669175	0.843954
C192	C	1.684832	0.919175	1.093954
H193	H	0.313370	0.322190	0.000083
H194	H	0.563370	0.572190	0.250083
H195	H	0.813370	0.822190	0.500083
H196	H	1.063370	1.072190	0.750083
H197	H	0.330076	0.064848	0.000138
H198	H	0.580076	0.314848	0.250138
H199	H	0.830076	0.564848	0.500138
H200	H	1.080076	0.814848	0.750138
H201	H	0.781835	-0.209353	0.000071
H202	H	1.031835	0.040647	0.250071
H203	H	1.281835	0.290647	0.500071
H204	H	1.531835	0.540647	0.750071
F205	F	0.799383	-0.593467	0.000075
F206	F	1.049383	-0.343467	0.250075
F207	F	1.299383	-0.093467	0.500075
F208	F	1.549383	0.156533	0.750075
F209	F	1.070301	-0.068177	0.000146
F210	F	1.320301	0.181823	0.250146
F211	F	1.570301	0.431823	0.500146
F212	F	1.820301	0.681823	0.750146
H213	H	1.027441	-0.322847	0.000087
H214	H	1.277441	-0.072847	0.250087
H215	H	1.527441	0.177153	0.500087
H216	H	1.777441	0.427153	0.750087
H217	H	0.688384	0.286042	0.000066
H218	H	0.938384	0.536042	0.250066
H219	H	1.188384	0.786042	0.500066
H220	H	1.438384	1.036042	0.750066
H221	H	1.075316	-0.601079	0.000120
H222	H	1.325316	-0.351079	0.250120
H223	H	1.575316	-0.101079	0.500120
H224	H	1.825316	0.148921	0.750120
H225	H	0.556310	0.016172	0.000129
H226	H	0.806310	0.266172	0.250129
H227	H	1.056310	0.516172	0.500129
H228	H	1.306310	0.766172	0.750129
F229	F	0.528203	0.290375	0.000081
F230	F	0.778203	0.540375	0.250081
F231	F	1.028203	0.790375	0.500081
F232	F	1.278203	1.040375	0.750081
F233	F	1.106449	-0.443190	0.000105
F234	F	1.356449	-0.193190	0.250105
F235	F	1.606449	0.056810	0.500105
F236	F	1.856449	0.306810	0.750105
H237	H	0.830511	-0.435587	0.000070
H238	H	1.080511	-0.185587	0.250070
H239	H	1.330511	0.064413	0.500070
H240	H	1.580511	0.314413	0.750070
H241	H	0.181300	0.052315	0.000140
H242	H	0.431300	0.302315	0.250140
H243	H	0.681300	0.552315	0.500140
H244	H	0.931300	0.802315	0.750140
H245	H	0.794365	-0.060564	0.000083
H246	H	1.044365	0.189436	0.250083
H247	H	1.294365	0.439436	0.500083
H248	H	1.544365	0.689436	0.750083
H249	H	0.705099	0.028702	0.000102
H250	H	0.955099	0.278702	0.250102
H251	H	1.205099	0.528702	0.500102
H252	H	1.455099	0.778702	0.750102
H253	H	0.442816	0.261778	0.000108
H254	H	0.692816	0.511778	0.250108
H255	H	0.942816	0.761778	0.500108
H256	H	1.192816	1.011778	0.750108
F257	F	0.153181	0.326524	0.000106
F258	F	0.403181	0.576524	0.250106
F259	F	0.653181	0.826524	0.500106
F260	F	0.903181	1.076524	0.750106
F261	F	0.823644	-0.347901	0.000075
F262	F	1.073644	-0.097901	0.250075
F263	F	1.323644	0.152099	0.500075
F264	F	1.573644	0.402099	0.750075
H265	H	0.426863	0.076578	0.000148
H266	H	0.676863	0.326578	0.250148
H267	H	0.926863	0.576578	0.500148
H268	H	1.176863	0.826578	0.750148
H269	H	1.039170	-0.226054	0.000123
H270	H	1.289170	0.023946	0.250123
H271	H	1.539170	0.273946	0.500123
H272	H	1.789170	0.523946	0.750123
