data_functionalizedCrystal
_audit_creation_method	'MofGen! by Chris Wilmer'
_symmetry_space_group_name_H-M	'P1'
_symmetry_Int_Tables_number	1
_symmetry_cell_setting	triclinic
loop_
_symmetry_equiv_pos_as_xyz
  x,y,z
_cell_length_a	18.215407
_cell_length_b	12.759399
_cell_length_c	18.215399
_cell_angle_alpha	89.975038
_cell_angle_beta	89.980167
_cell_angle_gamma	90.015564
loop_
_atom_site_label
_atom_site_type_symbol
_atom_site_fract_x
_atom_site_fract_y
_atom_site_fract_z
Zn1	Zn	1.125122	-0.418265	-0.416131
Zn2	Zn	1.125051	-0.593962	-0.293071
Zn3	Zn	1.002054	-0.418299	-0.293079
Zn4	Zn	1.002041	-0.593903	-0.416096
O5	O	1.063567	-0.506107	-0.354594
O6	O	1.228097	-0.441581	-0.399819
O7	O	1.108711	-0.570699	-0.190088
O8	O	1.018415	-0.271273	-0.309419
O9	O	1.228045	-0.570665	-0.309407
O10	O	1.108832	-0.271248	-0.399826
O11	O	1.018346	-0.441640	-0.190093
O12	O	0.899068	-0.441583	-0.309385
O13	O	1.018392	-0.570566	-0.519085
O14	O	0.899059	-0.570599	-0.399766
O15	O	1.108819	-0.441525	-0.519111
O16	O	1.108699	-0.740975	-0.309373
O17	O	1.018324	-0.740932	-0.399759
C18	C	0.872361	-0.506089	-0.354573
C19	C	0.790562	-0.506107	-0.354582
C20	C	0.602382	-0.573391	-0.401584
C21	C	0.525524	-0.573394	-0.401593
C22	C	0.525504	-0.438842	-0.307621
C23	C	0.602361	-0.438835	-0.307616
C24	C	0.640799	-0.506115	-0.354596
C25	C	0.487083	-0.506126	-0.354610
C26	C	0.403749	-0.506129	-0.354620
C27	C	0.724138	-0.506111	-0.354588
C28	C	1.063522	-0.779075	-0.354578
C29	C	1.063570	-0.895851	-0.354595
C30	C	1.110682	-0.950701	-0.307585
C31	C	1.110729	-1.060425	-0.307609
C32	C	1.016546	-1.060440	-0.401657
C33	C	1.016503	-0.950718	-0.401635
C34	C	1.197595	-1.210299	-0.281423
C35	C	1.244701	-1.265152	-0.234401
C36	C	1.256026	-1.229601	-0.162596
C37	C	1.220235	-1.139198	-0.137798
C38	C	1.173125	-1.084351	-0.184816
C39	C	1.161813	-1.119900	-0.256632
C40	C	0.929636	-0.800842	-0.427814
C41	C	0.882521	-0.745993	-0.474829
C42	C	0.871188	-0.781542	-0.546635
C43	C	0.906966	-0.871947	-0.571430
C44	C	0.954081	-0.926797	-0.524415
C45	C	0.965415	-0.891240	-0.452610
C46	C	1.255520	-0.506126	-0.354616
C47	C	1.337319	-0.506134	-0.354625
C48	C	1.063612	-0.506035	-0.546547
C49	C	1.063631	-0.506004	-0.628346
C50	C	1.063633	-0.232074	-0.354627
C51	C	1.063660	-0.115297	-0.354641
C52	C	1.110733	-0.438749	-0.816555
C53	C	1.110742	-0.438719	-0.893414
C54	C	1.016581	-0.573096	-0.893376
C55	C	1.016569	-0.573120	-0.816518
C56	C	1.063649	-0.505949	-0.778110
C57	C	1.063670	-0.505894	-0.931826
C58	C	1.063679	-0.505861	-1.015160
C59	C	1.063639	-0.505980	-0.694771
C60	C	1.063565	-0.506103	-0.163388
C61	C	1.063688	-0.505838	-0.081590
H62	H	0.633676	-0.628172	-0.439840
H63	H	0.978252	-0.627787	-0.924657
Br64	Br	0.952658	-0.664317	-0.764338
Br65	Br	1.002638	-1.049494	-0.558066
Br66	Br	0.891586	-0.920200	-0.668884
Br67	Br	0.654503	-0.347514	-0.243850
Br68	Br	1.182241	-1.258540	-0.378883
H69	H	0.832821	-0.736874	-0.584913
H70	H	0.978225	-1.105126	-0.439954
H71	H	0.853393	-0.672375	-0.454636
Br72	Br	0.473390	-0.664697	-0.465368
H73	H	0.494199	-0.384067	-0.269370
Br74	Br	1.174558	-0.876241	-0.243745
H75	H	1.143986	-1.010746	-0.164627
Br76	Br	1.235597	-1.090966	-0.040338
Br77	Br	1.319953	-1.304048	-0.098782
Br78	Br	1.293270	-1.387838	-0.268053
H79	H	0.938866	-0.771884	-0.369345
Br80	Br	1.174626	-0.347586	-0.764431
H81	H	1.149081	-0.383996	-0.924712
