data_functionalizedCrystal
_audit_creation_method	'MofGen! by Chris Wilmer'
_symmetry_space_group_name_H-M	'P1'
_symmetry_Int_Tables_number	1
_symmetry_cell_setting	triclinic
loop_
_symmetry_equiv_pos_as_xyz
  x,y,z
_cell_length_a	16.109301
_cell_length_b	11.026607
_cell_length_c	15.186229
_cell_angle_alpha	89.998222
_cell_angle_beta	89.999362
_cell_angle_gamma	96.023749
loop_
_atom_site_label
_atom_site_type_symbol
_atom_site_fract_x
_atom_site_fract_y
_atom_site_fract_z
O1	O	1.126503	0.155971	-0.073169
O2	O	0.887350	0.175382	-0.073183
O3	O	0.987106	-0.010969	-0.073174
O4	O	1.026747	0.342322	-0.073178
O5	O	0.987097	-0.010971	0.073283
O6	O	0.887341	0.175379	0.073274
O7	O	1.126494	0.155969	0.073288
Zn8	Zn	1.006916	0.165674	0.096534
Zn9	Zn	1.006928	0.165677	-0.096429
O10	O	1.026738	0.342319	0.073279
C11	C	0.856253	0.174594	0.000044
C12	C	0.763604	0.172237	0.000039
C13	C	0.979788	-0.056178	0.000053
C14	C	0.957987	-0.190883	0.000049
C15	C	0.557080	0.277333	0.000048
C16	C	0.470027	0.275108	0.000053
C17	C	0.456769	0.054010	0.000052
C18	C	0.543821	0.056235	0.000053
C19	C	0.593975	0.167900	0.000046
C20	C	0.419869	0.163450	0.000051
C21	C	0.325481	0.161038	0.000057
C22	C	0.688369	0.170314	0.000042
C23	C	1.018183	-0.264713	0.000051
C24	C	0.995652	-0.403938	0.000046
C25	C	1.157591	0.156756	0.000059
C26	C	1.250240	0.159114	0.000059
C27	C	1.034056	0.387529	0.000050
C28	C	1.055857	0.522234	0.000049
N29	N	1.006914	0.165670	0.228227
N30	N	1.006935	0.165671	-0.228122
C31	C	1.051109	0.083182	0.453954
C32	C	1.051112	0.083179	0.546144
C33	C	0.962734	0.248163	0.546145
C34	C	0.962728	0.248159	0.453957
C35	C	1.006920	0.165670	0.407864
C36	C	1.006929	0.165671	0.592241
C37	C	1.006931	0.165669	0.692198
C38	C	1.006917	0.165671	0.307901
H39	H	0.439992	0.364219	0.000056
O40	O	0.407926	-0.054350	0.000013
C41	C	0.267943	-0.155769	0.000059
C42	C	0.323156	-0.032965	0.000087
H43	H	0.199395	-0.138522	0.000138
H44	H	0.281730	-0.209859	-0.061247
H45	H	0.281837	-0.209849	0.061337
H46	H	0.309293	0.021214	-0.061149
H47	H	0.309359	0.021033	0.061434
H48	H	1.087092	0.016013	0.416427
H49	H	0.573861	-0.032883	0.000054
O50	O	1.094112	0.003008	0.590779
C51	C	1.181731	-0.160679	0.581042
C52	C	1.133084	-0.069925	0.530385
H53	H	1.213238	-0.219686	0.532236
H54	H	1.231156	-0.108334	0.624175
H55	H	1.136759	-0.221262	0.624230
H56	H	1.177991	-0.009320	0.487150
H57	H	1.083649	-0.122346	0.487308
O58	O	0.919737	0.328337	0.590785
C59	C	0.832114	0.492019	0.581055
C60	C	0.880758	0.401268	0.530394
H61	H	0.800601	0.551025	0.532251
H62	H	0.782695	0.439673	0.624197
H63	H	0.877090	0.552604	0.624234
H64	H	0.835847	0.340660	0.487167
H65	H	0.930187	0.453690	0.487308
O66	O	1.137288	-0.430430	0.000017
C67	C	1.281129	-0.472268	0.000084
C68	C	1.188946	-0.526037	0.000098
H69	H	1.322921	-0.549540	0.000168
H70	H	1.294405	-0.413760	-0.061220
H71	H	1.294302	-0.413683	0.061364
H72	H	1.175708	-0.584677	-0.061140
H73	H	1.175717	-0.584476	0.061443
O74	O	0.605678	0.385905	0.000088
C75	C	0.609635	0.604969	0.000043
C76	C	0.554504	0.482094	0.000015
H77	H	0.568284	0.682769	-0.000035
H78	H	0.650703	0.611616	0.061349
H79	H	0.650742	0.611480	-0.061235
H80	H	0.513347	0.475499	0.061251
H81	H	0.513491	0.475499	-0.061332
O82	O	1.099524	-0.216966	0.000096
C83	C	1.196144	-0.034669	0.000051
C84	C	1.103990	-0.088575	0.000020
H85	H	1.199785	0.069141	-0.000029
H86	H	1.228451	-0.066552	0.061359
H87	H	1.228423	-0.066705	-0.061225
H88	H	1.071640	-0.056564	0.061255
H89	H	1.071746	-0.056699	-0.061329
H90	H	0.926740	0.315331	0.416428
H91	H	0.927432	-0.443797	0.000037
O92	O	0.876646	-0.238630	0.000080
C93	C	0.780026	-0.420927	0.000011
C94	C	0.872180	-0.367021	-0.000003
H95	H	0.776385	-0.524737	-0.000074
H96	H	0.747709	-0.389057	0.061316
H97	H	0.747758	-0.388879	-0.061268
H98	H	0.904520	-0.399044	0.061235
H99	H	0.904435	-0.398885	-0.061349
