data_functionalizedCrystal
_audit_creation_method	'MofGen! by Chris Wilmer'
_symmetry_space_group_name_H-M	'P1'
_symmetry_Int_Tables_number	1
_symmetry_cell_setting	triclinic
loop_
_symmetry_equiv_pos_as_xyz
  x,y,z
_cell_length_a	11.792254
_cell_length_b	10.868271
_cell_length_c	16.992695
_cell_angle_alpha	89.994841
_cell_angle_beta	92.566590
_cell_angle_gamma	90.006153
loop_
_atom_site_label
_atom_site_type_symbol
_atom_site_fract_x
_atom_site_fract_y
_atom_site_fract_z
O1	O	-1.515699	-0.102359	0.107560
O2	O	-1.186265	-0.102354	0.118630
O3	O	-1.349662	-0.102346	-0.001054
O4	O	-1.352303	-0.102366	0.227243
O5	O	-1.349645	0.102298	-0.001058
O6	O	-1.186248	0.102291	0.118625
O7	O	-1.515682	0.102286	0.107556
Zn8	Zn	-1.350963	0.134780	0.113090
Zn9	Zn	-1.350985	-0.134848	0.113095
O10	O	-1.352286	0.102279	0.227239
C11	C	-1.143909	-0.000031	0.117930
C12	C	-1.017725	-0.000028	0.115843
N13	N	-1.350956	0.318794	0.113086
C14	C	-0.915250	-0.000031	0.114147
C15	C	-0.786690	-0.000029	0.112027
C16	C	-1.350971	0.569800	0.113096
C17	C	-1.350959	0.430123	0.113092
C18	C	-0.558038	-0.000034	0.108255
C19	C	-0.684222	-0.000026	0.110342
C20	C	-1.346255	-0.000024	-0.030283
C21	C	-1.336117	-0.000024	-0.117370
N22	N	-1.350990	0.681138	0.113096
C23	C	-1.433935	-0.000025	-0.167192
C24	C	-1.424402	-0.000036	-0.249019
C25	C	-1.317051	-0.000039	-0.281024
C26	C	-1.219227	-0.000042	-0.231196
C27	C	-1.228760	-0.000039	-0.149370
C28	C	-1.277539	-0.000055	-0.524791
C29	C	-1.268013	-0.000054	-0.606623
C30	C	-1.473190	-0.000050	-0.624441
C31	C	-1.482714	-0.000040	-0.542613
C32	C	-1.384889	-0.000050	-0.492792
N33	N	-1.307305	-0.000046	-0.364664
N34	N	-1.394636	-0.000051	-0.409153
C35	C	-1.355692	-0.000046	0.256468
C36	C	-1.365830	-0.000054	0.343556
H37	H	-1.504056	-0.000034	-0.289581
H38	H	-1.197882	-0.000063	-0.484236
H39	H	-1.180590	-0.000036	-0.632677
N40	N	-1.578689	-0.000041	-0.678181
H41	H	-1.579315	-0.075904	-0.712523
H42	H	-1.648084	0.000008	-0.645438
H43	H	-1.131819	-0.000052	-0.257260
H44	H	-1.149106	-0.000039	-0.108805
H45	H	-1.570130	-0.000038	-0.516561
H46	H	-1.521351	-0.000015	-0.141141
