data_functionalizedCrystal
_audit_creation_method	'MofGen! by Chris Wilmer'
_symmetry_space_group_name_H-M	'P1'
_symmetry_Int_Tables_number	1
_symmetry_cell_setting	triclinic
loop_
_symmetry_equiv_pos_as_xyz
  x,y,z
_cell_length_a	12.759401
_cell_length_b	12.759399
_cell_length_c	12.759393
_cell_angle_alpha	89.969730
_cell_angle_beta	89.979914
_cell_angle_gamma	90.013324
loop_
_atom_site_label
_atom_site_type_symbol
_atom_site_fract_x
_atom_site_fract_y
_atom_site_fract_z
Zn1	Zn	-1.606258	0.418272	0.594007
Zn2	Zn	-1.272925	0.751606	0.927340
Zn3	Zn	-0.939592	1.084939	1.260673
Zn4	Zn	-1.606150	0.593986	0.418326
Zn5	Zn	-1.272816	0.927319	0.751659
Zn6	Zn	-0.939483	1.260653	1.084992
Zn7	Zn	-1.430559	0.418316	0.418343
Zn8	Zn	-1.097225	0.751649	0.751676
Zn9	Zn	-0.763892	1.084983	1.085010
Zn10	Zn	-1.430548	0.593904	0.593964
Zn11	Zn	-1.097214	0.927238	0.927297
Zn12	Zn	-0.763881	1.260571	1.260631
O13	O	-1.518379	0.506120	0.506160
O14	O	-1.185045	0.839453	0.839493
O15	O	-0.851712	1.172786	1.172826
O16	O	-1.753265	0.441597	0.570713
O17	O	-1.419932	0.774930	0.904046
O18	O	-1.086598	1.108264	1.237379
O19	O	-1.582816	0.570735	0.271307
O20	O	-1.249483	0.904069	0.604640
O21	O	-0.916149	1.237402	0.937973
O22	O	-1.453916	0.271289	0.441670
O23	O	-1.120582	0.604623	0.775004
O24	O	-0.787249	0.937956	1.108337
O25	O	-1.753185	0.570693	0.441641
O26	O	-1.419852	0.904026	0.774974
O27	O	-1.086518	1.237360	1.108307
O28	O	-1.583001	0.271257	0.570730
O29	O	-1.249668	0.604590	0.904063
O30	O	-0.916335	0.937924	1.237396
O31	O	-1.453810	0.441672	0.271320
O32	O	-1.120477	0.775005	0.604653
O33	O	-0.787143	1.108338	0.937986
O34	O	-1.283536	0.441592	0.441629
O35	O	-0.950203	0.774926	0.774962
O36	O	-0.616869	1.108259	1.108296
O37	O	-1.453897	0.570554	0.740991
O38	O	-1.120564	0.903887	1.074324
O39	O	-0.787230	1.237221	1.407657
O40	O	-1.283528	0.570596	0.570657
O41	O	-0.950195	0.903930	0.903990
O42	O	-0.616861	1.237263	1.237323
O43	O	-1.582991	0.441518	0.741022
O44	O	-1.249658	0.774851	1.074355
O45	O	-0.916324	1.108184	1.407689
O46	O	-1.582806	0.740996	0.441599
O47	O	-1.249472	1.074329	0.774932
O48	O	-0.916139	1.407663	1.108266
O49	O	-1.453792	0.740936	0.570640
O50	O	-1.120458	1.074269	0.903973
O51	O	-0.787125	1.407603	1.237307
C52	C	-1.245411	0.506091	0.506141
C53	C	-0.912078	0.839424	0.839474
C54	C	-0.578745	1.172758	1.172807
C55	C	-1.128635	0.506104	0.506157
C56	C	-0.795301	0.839437	0.839491
C57	C	-0.461968	1.172771	1.172824
C58	C	-1.073815	0.439003	0.573468
C59	C	-0.740481	0.772336	0.906801
C60	C	-0.407148	1.105670	1.240135
C61	C	-0.964091	0.439010	0.573473
C62	C	-0.630757	0.772343	0.906807
C63	C	-0.297424	1.105676	1.240140
C64	C	-0.964016	0.573227	0.438854
C65	C	-0.630683	0.906560	0.772188
C66	C	-0.297349	1.239894	1.105521
C67	C	-1.073738	0.573214	0.438845
C68	C	-0.740405	0.906548	0.772178
C69	C	-0.407071	1.239881	1.105511
C70	C	-1.518314	0.779087	0.506136
C71	C	-1.184981	1.112420	0.839469
C72	C	-0.851647	1.445754	1.172803
C73	C	-1.518383	0.895864	0.506161
C74	C	-1.185049	1.229197	0.839494
C75	C	-0.851716	1.562530	1.172827
C76	C	-1.518455	0.506022	0.780193
C77	C	-1.185122	0.839355	1.113527
C78	C	-0.851788	1.172688	1.446860
C79	C	-1.518487	0.505980	0.896970
C80	C	-1.185154	0.839313	1.230303
C81	C	-0.851821	1.172647	1.563637
C82	C	-0.792412	0.506139	0.506176
C83	C	-0.459078	0.839473	0.839509
C84	C	-0.125745	1.172806	1.172842
C85	C	-0.909188	0.506123	0.506172
C86	C	-0.575855	0.839456	0.839506
C87	C	-0.242522	1.172790	1.172839
C88	C	-1.518472	0.232086	0.506207
C89	C	-1.185138	0.565420	0.839540
C90	C	-0.851805	0.898753	1.172873
C91	C	-1.518512	0.115310	0.506227
C92	C	-1.185178	0.448643	0.839560
C93	C	-0.851845	0.781976	1.172893
C94	C	-1.585637	0.950722	0.439046
C95	C	-1.252304	1.284055	0.772379
C96	C	-0.918970	1.617389	1.105712
C97	C	-1.585704	1.060446	0.439081
C98	C	-1.252371	1.393779	0.772414
C99	C	-0.919038	1.727113	1.105748
C100	C	-1.451254	1.060444	0.573349
C101	C	-1.117921	1.393777	0.906683
C102	C	-0.784588	1.727110	1.240016
C103	C	-1.451193	0.950722	0.573319
C104	C	-1.117860	1.284055	0.906652
C105	C	-0.784526	1.617388	1.239985
C106	C	-1.518363	0.506141	0.233192
C107	C	-1.185030	0.839475	0.566526
C108	C	-0.851696	1.172808	0.899859
C109	C	-1.518534	0.505887	0.116416
C110	C	-1.185201	0.839220	0.449750
C111	C	-0.851867	1.172554	0.783083
C112	C	-1.585688	0.573106	1.061561
C113	C	-1.252355	0.906439	1.394894
C114	C	-0.919022	1.239772	1.728227
C115	C	-1.585663	0.573155	0.951837
C116	C	-1.252330	0.906489	1.285170
C117	C	-0.918996	1.239822	1.618503
C118	C	-1.451325	0.438758	0.951833
C119	C	-1.117992	0.772092	1.285166
C120	C	-0.784659	1.105425	1.618500
C121	C	-1.451346	0.438715	1.061555
C122	C	-1.118013	0.772048	1.394889
C123	C	-0.784680	1.105382	1.728222
H124	H	-1.118373	0.627857	0.384027
H125	H	-0.785040	0.961190	0.717360
H126	H	-0.451707	1.294524	1.050693
Br127	Br	-0.889507	0.664302	0.347507
Br128	Br	-0.556174	0.997636	0.680841
Br129	Br	-0.222840	1.330969	1.014174
H130	H	-1.640348	0.906059	0.384363
H131	H	-1.307015	1.239392	0.717697
H132	H	-0.973682	1.572726	1.051030
Br133	Br	-1.676801	0.664389	0.877393
Br134	Br	-1.343468	0.997722	1.210727
Br135	Br	-1.010134	1.331056	1.544060
H136	H	-1.396656	0.383976	1.106220
H137	H	-1.063323	0.717309	1.439553
H138	H	-0.729989	1.050643	1.772886
Br139	Br	-0.889696	0.347936	0.664824
Br140	Br	-0.556363	0.681269	0.998157
Br141	Br	-0.223029	1.014602	1.331490
Br142	Br	-1.676870	0.664268	1.136012
Br143	Br	-1.343536	0.997601	1.469345
Br144	Br	-1.010203	1.330935	1.802679
H145	H	-1.396426	0.906053	0.627977
H146	H	-1.063093	1.239386	0.961310
H147	H	-0.729760	1.572720	1.294643
H148	H	-1.118508	0.384354	0.628275
H149	H	-0.785175	0.717687	0.961609
H150	H	-0.451842	1.051021	1.294942
Br151	Br	-1.676988	1.134893	0.347998
Br152	Br	-1.343655	1.468226	0.681331
Br153	Br	-1.010321	1.801559	1.014664
H154	H	-1.396549	1.105123	0.628025
H155	H	-1.063216	1.438456	0.961359
H156	H	-0.729883	1.771789	1.294692
Br157	Br	-1.360171	0.347577	0.877372
Br158	Br	-1.026838	0.680910	1.210706
Br159	Br	-0.693504	1.014244	1.544039
