data_functionalizedCrystal
_audit_creation_method	'MofGen! by Chris Wilmer'
_symmetry_space_group_name_H-M	'P1'
_symmetry_Int_Tables_number	1
_symmetry_cell_setting	triclinic
loop_
_symmetry_equiv_pos_as_xyz
  x,y,z
_cell_length_a	17.077404
_cell_length_b	13.032721
_cell_length_c	13.033388
_cell_angle_alpha	76.692903
_cell_angle_beta	82.822147
_cell_angle_gamma	97.204757
loop_
_atom_site_label
_atom_site_type_symbol
_atom_site_fract_x
_atom_site_fract_y
_atom_site_fract_z
Zn1	Zn	1.089850	-0.499319	0.654242
Zn2	Zn	1.089803	-0.654346	0.499184
Zn3	Zn	0.977722	-0.476749	0.476653
Zn4	Zn	0.939463	-0.676886	0.676731
O5	O	1.024209	-0.576825	0.576702
O6	O	1.199688	-0.519897	0.633691
O7	O	1.090927	-0.611909	0.347569
O8	O	1.008627	-0.331106	0.481370
O9	O	1.199653	-0.633795	0.519770
O10	O	1.091007	-0.347688	0.611844
O11	O	1.008581	-0.481429	0.331016
O12	O	0.862802	-0.503285	0.503176
O13	O	0.943420	-0.672210	0.822373
O14	O	0.834694	-0.650324	0.650172
O15	O	1.053909	-0.541752	0.805851
O16	O	1.053829	-0.805974	0.541576
O17	O	0.943375	-0.822533	0.672019
C18	C	0.820267	-0.576802	0.576671
C19	C	0.733014	-0.576821	0.576685
C20	C	0.677409	-0.653473	0.653130
C21	C	0.595426	-0.653478	0.653148
C22	C	0.569050	-0.576834	0.576714
C23	C	0.624662	-0.500174	0.500266
C24	C	0.706643	-0.500166	0.500254
C25	C	0.453787	-0.500198	0.500294
C26	C	0.371801	-0.500207	0.500304
C27	C	0.342570	-0.653510	0.653188
C28	C	0.424551	-0.653502	0.653176
C29	C	0.480157	-0.576843	0.576725
C30	C	0.994464	-0.852797	0.611706
C31	C	0.981807	-0.970863	0.626716
C32	C	1.030852	-1.015279	0.568916
C33	C	1.017771	-1.137306	0.584429
C34	C	1.228948	-0.576849	0.576735
C35	C	1.316196	-0.576859	0.576749
C36	C	0.994402	-0.612013	0.853726
C37	C	0.981700	-0.627008	0.971777
C38	C	1.054090	-0.299779	0.541585
C39	C	1.066823	-0.181718	0.526620
C40	C	1.017587	-0.584648	1.138246
C41	C	1.030712	-0.569142	1.016233
C42	C	1.053892	-0.541795	1.300758
C43	C	1.066592	-0.526790	1.182706
H44	H	0.698876	-0.715889	0.715368
C45	C	1.135619	-1.111909	0.445176
C46	C	1.105315	-1.039663	0.369000
C47	C	1.168663	-0.975349	0.293951
H48	H	1.170073	-1.073641	0.480239
H49	H	1.164687	-1.155561	0.410859
H50	H	1.076260	-0.996016	0.403314
H51	H	1.070867	-1.077901	0.333910
H52	H	1.197731	-1.019001	0.259634
H53	H	1.203114	-0.937089	0.329024
H54	H	1.148110	-0.926330	0.242251
C55	C	0.948949	-1.207014	0.665903
C56	C	0.957551	-1.193417	0.767608
C57	C	0.894175	-1.257625	0.842689
H58	H	0.899769	-1.187037	0.648161
H59	H	0.949314	-1.279780	0.665598
H60	H	0.957178	-1.120667	0.767911
H61	H	1.006717	-1.213401	0.785384
H62	H	0.894540	-1.330391	0.842384
H63	H	0.845000	-1.237642	0.824937
H64	H	0.900007	-1.248415	0.911705
H65	H	0.930017	-0.688016	1.024038
C66	C	1.099508	-0.487692	0.946417
C67	C	1.069203	-0.411587	0.874097
C68	C	1.132552	-0.336547	0.809757
H69	H	1.128591	-0.453287	0.990001
H70	H	1.133951	-0.522822	0.908227
H71	H	1.034774	-0.376461	0.912283
H72	H	1.040127	-0.445960	0.830489
H73	H	1.166994	-0.371676	0.771567
H74	H	1.161630	-0.302151	0.853350
H75	H	1.111999	-0.284907	0.760674
H76	H	0.930137	-1.023178	0.687690
H77	H	0.965913	-0.645659	1.190512
H78	H	0.350329	-0.437786	0.438076
C79	C	1.135385	-0.445345	1.112886
C80	C	1.105079	-0.369240	1.040566
C81	C	1.168428	-0.294200	0.976226
H82	H	1.164467	-0.410940	1.156470
H83	H	1.169827	-0.480475	1.074696
H84	H	1.070651	-0.334114	1.078753
H85	H	1.076004	-0.403613	0.996958
H86	H	1.202870	-0.329329	0.938036
H87	H	1.197506	-0.259804	1.019819
H88	H	1.147875	-0.242560	0.927143
C89	C	0.514252	-0.417138	0.417250
C90	C	0.562183	-0.468521	0.356710
C91	C	0.617900	-0.392049	0.280209
H92	H	0.486911	-0.371455	0.371620
H93	H	0.546889	-0.376100	0.452058
H94	H	0.529551	-0.509541	0.321903
H95	H	0.589542	-0.514198	0.402310
H96	H	0.650536	-0.351011	0.315018
H97	H	0.590552	-0.346371	0.234587
H98	H	0.650432	-0.426902	0.239131
H99	H	0.550155	-0.715896	0.715396
C100	C	0.282326	-0.736865	0.736247
C101	C	0.322972	-0.804007	0.803156
C102	C	0.267499	-0.880816	0.879664
H103	H	0.249709	-0.702334	0.777566
H104	H	0.249748	-0.777969	0.701433
H105	H	0.355536	-0.762908	0.837968
H106	H	0.355585	-0.838563	0.761868
H107	H	0.234921	-0.921921	0.844850
H108	H	0.234885	-0.846276	0.920975
H109	H	0.295069	-0.926388	0.925065
C110	C	0.453238	-0.736820	0.736000
C111	C	0.499437	-0.797163	0.684367
C112	C	0.525869	-0.873931	0.760633
H113	H	0.484660	-0.702263	0.777224
H114	H	0.408403	-0.782536	0.781525
H115	H	0.544266	-0.751454	0.638860
H116	H	0.468032	-0.831744	0.643148
H117	H	0.481033	-0.919647	0.806159
H118	H	0.557287	-0.839365	0.801854
H119	H	0.557211	-0.914890	0.725612
C120	C	0.766983	-0.417057	0.417091
C121	C	0.755876	-0.426693	0.314885
C122	C	0.811454	-0.350158	0.238250
H123	H	0.759608	-0.347647	0.423555
H124	H	0.819599	-0.428030	0.427962
H125	H	0.703274	-0.415712	0.304018
H126	H	0.763258	-0.496087	0.308386
H127	H	0.864069	-0.361130	0.249121
H128	H	0.804074	-0.280752	0.244725
H129	H	0.803930	-0.356691	0.168896
H130	H	1.082528	-0.962967	0.507950
H131	H	0.603181	-0.437765	0.438036
