data_functionalizedCrystal
_audit_creation_method	'MofGen! by Chris Wilmer'
_symmetry_space_group_name_H-M	'P1'
_symmetry_Int_Tables_number	1
_symmetry_cell_setting	triclinic
loop_
_symmetry_equiv_pos_as_xyz
  x,y,z
_cell_length_a	17.699083
_cell_length_b	17.699083
_cell_length_c	17.666332
_cell_angle_alpha	89.991333
_cell_angle_beta	89.999456
_cell_angle_gamma	83.283016
loop_
_atom_site_label
_atom_site_type_symbol
_atom_site_fract_x
_atom_site_fract_y
_atom_site_fract_z
O1	O	-1.004079	-0.095707	0.062854
O2	O	-0.670745	0.237626	0.396187
O3	O	-0.337412	0.570959	0.729521
O4	O	-0.783700	-0.108160	0.062880
O5	O	-0.450367	0.225173	0.396214
O6	O	-0.117033	0.558507	0.729547
O7	O	-0.900116	0.008255	0.062848
O8	O	-0.566782	0.341589	0.396181
O9	O	-0.233449	0.674922	0.729515
O10	O	-0.887663	-0.212123	0.062886
O11	O	-0.554330	0.121210	0.396220
O12	O	-0.220996	0.454544	0.729553
O13	O	-0.900100	0.008252	-0.063049
O14	O	-0.566767	0.341585	0.270285
O15	O	-0.233433	0.674918	0.603618
O16	O	-0.783685	-0.108164	-0.063016
O17	O	-0.450351	0.225170	0.270317
O18	O	-0.117018	0.558503	0.603650
O19	O	-1.004063	-0.095711	-0.063043
O20	O	-0.670730	0.237622	0.270291
O21	O	-0.337396	0.570955	0.603624
Cu22	Cu	-0.893872	-0.101938	-0.074525
Cu23	Cu	-0.560539	0.231395	0.258808
Cu24	Cu	-0.227206	0.564729	0.592142
Cu25	Cu	-0.893891	-0.101933	0.074363
Cu26	Cu	-0.560557	0.231400	0.407696
Cu27	Cu	-0.227224	0.564733	0.741029
O28	O	-0.887648	-0.212127	-0.063010
O29	O	-0.554314	0.121207	0.270323
O30	O	-0.220981	0.454540	0.603656
C31	C	-0.755495	-0.107716	-0.000065
C32	C	-0.422162	0.225618	0.333268
C33	C	-0.088829	0.558951	0.666602
C34	C	-0.671477	-0.106377	-0.000056
C35	C	-0.338144	0.226956	0.333278
C36	C	-0.004811	0.560290	0.666611
C37	C	-0.899662	0.036451	-0.000104
C38	C	-0.566328	0.369784	0.333230
C39	C	-0.232995	0.703117	0.666563
C40	C	-0.898323	0.120469	-0.000113
C41	C	-0.564990	0.453802	0.333221
C42	C	-0.231656	0.787135	0.666554
N43	N	-0.893865	-0.101941	-0.179244
N44	N	-0.560532	0.231393	0.154089
N45	N	-0.227198	0.564726	0.487422
C46	C	-1.032268	-0.096156	-0.000096
C47	C	-0.698934	0.237178	0.333238
C48	C	-0.365601	0.570511	0.666571
C49	C	-1.116286	-0.097494	-0.000100
C50	C	-0.782953	0.235839	0.333233
C51	C	-0.449619	0.569172	0.666567
C52	C	-0.622856	-0.174711	-0.000044
C53	C	-0.289523	0.158623	0.333289
C54	C	0.043810	0.491956	0.666623
C55	C	-0.543913	-0.173448	-0.000054
C56	C	-0.210580	0.159885	0.333279
C57	C	0.122754	0.493218	0.666613
C58	C	-0.513592	-0.103852	-0.000070
C59	C	-0.180259	0.229482	0.333263
C60	C	0.153074	0.562815	0.666596
C61	C	-0.562219	-0.035513	-0.000084
C62	C	-0.228886	0.297820	0.333249
C63	C	0.104447	0.631154	0.666582
C64	C	-0.641161	-0.036776	-0.000080
C65	C	-0.307828	0.296557	0.333254
C66	C	0.025505	0.629890	0.666587
C67	C	-0.243856	-0.030418	-0.000104
C68	C	0.089477	0.302915	0.333229
C69	C	0.422810	0.636249	0.666563
C70	C	-0.164908	-0.029160	-0.000106
C71	C	0.168425	0.304173	0.333227
C72	C	0.501758	0.637507	0.666560
C73	C	-0.146608	-0.167090	-0.000078
C74	C	0.186725	0.166243	0.333255
C75	C	0.520058	0.499577	0.666588
C76	C	-0.225550	-0.168353	-0.000074
C77	C	0.107783	0.164980	0.333260
C78	C	0.441117	0.498314	0.666593
C79	C	-0.274170	-0.100015	-0.000092
C80	C	0.059163	0.233319	0.333242
C81	C	0.392496	0.566652	0.666575
C82	C	-0.359769	-0.101384	-0.000082
C83	C	-0.026436	0.231949	0.333251
C84	C	0.306897	0.565282	0.666584
C85	C	-0.427995	-0.102481	-0.000074
C86	C	-0.094661	0.230852	0.333259
C87	C	0.238672	0.564185	0.666592
C88	C	-0.966656	0.169090	-0.000127
C89	C	-0.633323	0.502423	0.333207
C90	C	-0.299990	0.835756	0.666540
C91	C	-0.965394	0.248033	-0.000128
C92	C	-0.632061	0.581366	0.333205
C93	C	-0.298727	0.914700	0.666538
C94	C	-0.895798	0.278354	-0.000121
C95	C	-0.562464	0.611687	0.333212
C96	C	-0.229131	0.945020	0.666545
C97	C	-0.827459	0.229727	-0.000105
C98	C	-0.494126	0.563060	0.333228
C99	C	-0.160792	0.896393	0.666562
C100	C	-0.828722	0.150785	-0.000098
C101	C	-0.495389	0.484118	0.333235
C102	C	-0.162055	0.817451	0.666569
C103	C	-0.822364	0.548090	-0.000132
C104	C	-0.489030	0.881423	0.333201
C105	C	-0.155697	1.214756	0.666534
C106	C	-0.821106	0.627038	-0.000142
C107	C	-0.487773	0.960371	0.333192
C108	C	-0.154439	1.293704	0.666525
C109	C	-0.959036	0.645338	-0.000163
C110	C	-0.625702	0.978671	0.333171
C111	C	-0.292369	1.312004	0.666504
C112	C	-0.960299	0.566396	-0.000156
C113	C	-0.626966	0.899729	0.333178
C114	C	-0.293632	1.233063	0.666511
C115	C	-0.891961	0.517776	-0.000135
C116	C	-0.558627	0.851109	0.333198
C117	C	-0.225294	1.184442	0.666531
C118	C	-0.893330	0.432177	-0.000132
C119	C	-0.559997	0.765510	0.333201
C120	C	-0.226664	1.098843	0.666534
C121	C	-0.894427	0.363951	-0.000130
C122	C	-0.561094	0.697285	0.333203
C123	C	-0.227761	1.030618	0.666537
C124	C	-0.888102	0.759678	-0.000084
C125	C	-0.554768	1.093011	0.333249
C126	C	-0.221435	1.426345	0.666582
C127	C	-0.889440	0.675660	-0.000150
C128	C	-0.556107	1.008993	0.333183
C129	C	-0.222773	1.342327	0.666516
C130	C	-0.939721	-0.147765	-0.781291
C131	C	-0.606388	0.185569	-0.447958
C132	C	-0.273054	0.518902	-0.114624
C133	C	-0.939713	-0.147772	-0.702043
C134	C	-0.606380	0.185561	-0.368710
C135	C	-0.273047	0.518895	-0.035377
C136	C	-0.893898	-0.101926	-0.662426
C137	C	-0.560564	0.231408	-0.329093
C138	C	-0.227231	0.564741	0.004241
C139	C	-0.848072	-0.056083	-0.702062
C140	C	-0.514738	0.277250	-0.368729
C141	C	-0.181405	0.610584	-0.035396
C142	C	-0.848075	-0.056082	-0.781309
C143	C	-0.514742	0.277251	-0.447975
C144	C	-0.181408	0.610584	-0.114642
N145	N	-0.891985	-0.035624	-0.538012
N146	N	-0.558651	0.297709	-0.204679
N147	N	-0.225318	0.631043	0.128654
N148	N	-0.891986	-0.035626	-0.462732
N149	N	-0.558653	0.297707	-0.129398
N150	N	-0.225319	0.631040	0.203935
C151	C	-0.893884	-0.101926	-0.423662
C152	C	-0.560551	0.231408	-0.090329
C153	C	-0.227218	0.564741	0.243005
N154	N	-0.895796	-0.168223	-0.462716
N155	N	-0.562463	0.165111	-0.129383
N156	N	-0.229129	0.498444	0.203950
N157	N	-0.895799	-0.168219	-0.538004
N158	N	-0.562465	0.165114	-0.204670
N159	N	-0.229132	0.498447	0.128663
C160	C	-0.893889	-0.101921	-0.576497
C161	C	-0.560555	0.231412	-0.243163
C162	C	-0.227222	0.564745	0.090170
C163	C	-0.939695	-0.147778	-0.298106
C164	C	-0.606362	0.185556	0.035228
C165	C	-0.273028	0.518889	0.368561
C166	C	-0.939682	-0.147787	-0.218857
C167	C	-0.606349	0.185547	0.114477
C168	C	-0.273015	0.518880	0.447810
C169	C	-0.848045	-0.056090	-0.218877
C170	C	-0.514712	0.277243	0.114456
C171	C	-0.181378	0.610576	0.447790
C172	C	-0.848053	-0.056088	-0.298125
C173	C	-0.514720	0.277245	0.035209
C174	C	-0.181387	0.610578	0.368542
C175	C	-0.893883	-0.101931	-0.337734
C176	C	-0.560549	0.231403	-0.004401
C177	C	-0.227216	0.564736	0.328933
N178	N	-0.893904	-0.101925	0.179082
N179	N	-0.560571	0.231409	0.512415
N180	N	-0.227237	0.564742	0.845749
H181	H	-0.504328	-0.229092	-0.000044
H182	H	-0.170995	0.104241	0.333290
H183	H	0.162338	0.437574	0.666623
H184	H	-1.014680	0.684934	-0.000175
H185	H	-0.681347	1.018268	0.333158
H186	H	-0.348013	1.351601	0.666491
O187	O	-0.984125	-0.192341	-0.819852
O188	O	-0.650792	0.140993	-0.486519
O189	O	-0.317459	0.474326	-0.153185
C190	C	-0.937884	-0.244060	-0.865671
C191	C	-0.604551	0.089274	-0.532338
C192	C	-0.271217	0.422607	-0.199004
H193	H	-0.881771	-0.220581	-0.877548
H194	H	-0.548437	0.112752	-0.544215
H195	H	-0.215104	0.446085	-0.210881
H196	H	-0.968294	-0.252449	-0.921395
H197	H	-0.634961	0.080885	-0.588062
H198	H	-0.301628	0.414218	-0.254728
H199	H	-0.926195	-0.300969	-0.835123
H200	H	-0.592862	0.032364	-0.501789
H201	H	-0.259529	0.365697	-0.168456
O202	O	-0.652342	-0.242299	0.000108
O203	O	-0.319008	0.091034	0.333441
O204	O	0.014325	0.424367	0.666775
C205	C	-0.697468	-0.247148	0.065306
C206	C	-0.364135	0.086185	0.398639
C207	C	-0.030801	0.419518	0.731973
H208	H	-0.678871	-0.207628	0.110870
H209	H	-0.345538	0.125705	0.444203
H210	H	-0.012205	0.459039	0.777536
H211	H	-0.690264	-0.308159	0.087204
H212	H	-0.356931	0.025175	0.420538
H213	H	-0.023597	0.358508	0.753871
H214	H	-0.759757	-0.229581	0.050566
H215	H	-0.426423	0.103753	0.383899
H216	H	-0.093090	0.437086	0.717232
H217	H	-0.250232	-0.225025	-0.000057
H218	H	0.083101	0.108308	0.333276
H219	H	0.416434	0.441641	0.666610
H220	H	-0.977008	-0.185109	-0.330357
H221	H	-0.643675	0.148225	0.002976
H222	H	-0.310342	0.481558	0.336309
H223	H	-0.107012	-0.222734	-0.000068
H224	H	0.226322	0.110599	0.333266
H225	H	0.559655	0.443932	0.666599
O226	O	-0.984261	-0.192339	-0.180478
O227	O	-0.650928	0.140994	0.152856
O228	O	-0.317594	0.474328	0.486189
C229	C	-1.024695	-0.232810	-0.232435
C230	C	-0.691362	0.100523	0.100898
C231	C	-0.358028	0.433856	0.434231
H232	H	-1.029171	-0.201470	-0.288928
H233	H	-0.695838	0.131864	0.044405
H234	H	-0.362505	0.465197	0.377739
H235	H	-1.084198	-0.237424	-0.209533
H236	H	-0.750865	0.095910	0.123800
H237	H	-0.417532	0.429243	0.457134
H238	H	-0.993413	-0.292263	-0.240859
H239	H	-0.660079	0.041070	0.092474
H240	H	-0.326746	0.374404	0.425807
O241	O	-0.135580	0.038516	-0.000160
O242	O	0.197754	0.371850	0.333173
O243	O	0.531087	0.705183	0.666506
C244	C	-0.195420	0.098564	-0.000158
C245	C	0.137913	0.431897	0.333175
C246	C	0.471247	0.765230	0.666509
H247	H	-0.249011	0.077447	-0.023986
H248	H	0.084322	0.410780	0.309347
H249	H	0.417655	0.744114	0.642680
H250	H	-0.179008	0.147157	-0.036723
H251	H	0.154325	0.480490	0.296611
H252	H	0.487659	0.813823	0.629944
H253	H	-0.206629	0.119643	0.060235
H254	H	0.126704	0.452977	0.393569
H255	H	0.460037	0.786310	0.726902
O256	O	-0.291153	0.035915	-0.000011
O257	O	0.042180	0.369248	0.333322
O258	O	0.375514	0.702582	0.666655
C259	C	-0.337348	0.039325	0.065203
C260	C	-0.004015	0.372658	0.398537
C261	C	0.329319	0.705992	0.731870
H262	H	-0.341235	-0.020742	0.086949
H263	H	-0.007902	0.312591	0.420283
H264	H	0.325431	0.645925	0.753616
H265	H	-0.396731	0.067635	0.050538
H266	H	-0.063398	0.400968	0.383872
H267	H	0.269935	0.734301	0.717205
H268	H	-0.311433	0.073840	0.110855
H269	H	0.021900	0.407173	0.444189
H270	H	0.355233	0.740507	0.777522
H271	H	-1.023330	0.144409	-0.000137
H272	H	-0.689997	0.477742	0.333196
H273	H	-0.356663	0.811076	0.666530
H274	H	-0.770792	0.254420	-0.000095
H275	H	-0.437459	0.587753	0.333239
H276	H	-0.104126	0.921087	0.666572
H277	H	-0.810736	-0.018766	-0.186621
H278	H	-0.477403	0.314567	0.146712
H279	H	-0.144070	0.647901	0.480045
O280	O	-0.762413	0.103444	-0.000053
O281	O	-0.429080	0.436777	0.333280
O282	O	-0.095746	0.770111	0.666613
C283	C	-0.778450	0.027267	-0.000066
C284	C	-0.445117	0.360600	0.333268
C285	C	-0.111784	0.693933	0.666601
H286	H	-0.837897	0.024351	0.023761
H287	H	-0.504564	0.357684	0.357094
H288	H	-0.171231	0.691018	0.690428
H289	H	-0.734891	-0.008582	0.036496
H290	H	-0.401557	0.324752	0.369829
H291	H	-0.068224	0.658085	0.703163
H292	H	-0.775531	0.004432	-0.060462
H293	H	-0.442197	0.337765	0.272872
H294	H	-0.108864	0.671098	0.606205
H295	H	-0.810767	-0.018756	-0.669801
H296	H	-0.477433	0.314577	-0.336467
H297	H	-0.144100	0.647911	-0.003134
H298	H	-0.810748	-0.018757	-0.330389
H299	H	-0.477415	0.314576	0.002944
H300	H	-0.144081	0.647910	0.336277
O301	O	-0.984294	-0.192321	-0.663656
O302	O	-0.650961	0.141013	-0.330323
O303	O	-0.317628	0.474346	0.003010
C304	C	-1.024728	-0.232798	-0.715610
C305	C	-0.691394	0.100536	-0.382277
C306	C	-0.358061	0.433869	-0.048943
H307	H	-1.029202	-0.201463	-0.772106
H308	H	-0.695869	0.131870	-0.438773
H309	H	-0.362536	0.465203	-0.105439
H310	H	-1.084232	-0.237407	-0.692708
H311	H	-0.750899	0.095926	-0.359374
H312	H	-0.417565	0.429259	-0.026041
H313	H	-0.993446	-0.292251	-0.724027
H314	H	-0.660113	0.041082	-0.390694
H315	H	-0.326779	0.374415	-0.057360
O316	O	-0.532731	0.032074	0.000034
O317	O	-0.199398	0.365407	0.333367
O318	O	0.133936	0.698741	0.666700
C319	C	-0.487599	0.036925	0.065225
C320	C	-0.154266	0.370259	0.398558
C321	C	0.179067	0.703592	0.731892
H322	H	-0.506196	-0.002589	0.110806
H323	H	-0.172862	0.330744	0.444140
H324	H	0.160471	0.664077	0.777473
H325	H	-0.494798	0.097938	0.087100
H326	H	-0.161464	0.431271	0.420433
H327	H	0.171869	0.764604	0.753766
H328	H	-0.425312	0.019352	0.050485
H329	H	-0.091979	0.352686	0.383819
H330	H	0.241354	0.686019	0.717152
H331	H	-0.680748	0.018868	-0.000089
H332	H	-0.347415	0.352201	0.333244
H333	H	-0.014082	0.685535	0.666578
O334	O	-0.755913	0.500975	-0.000156
O335	O	-0.422580	0.834308	0.333177
O336	O	-0.089246	1.167641	0.666510
C337	C	-0.694218	0.544668	-0.000139
C338	C	-0.360885	0.878001	0.333195
C339	C	-0.027551	1.211335	0.666528
H340	H	-0.713540	0.603625	-0.023979
H341	H	-0.380206	0.936958	0.309354
H342	H	-0.046873	1.270291	0.642688
H343	H	-0.646345	0.515464	-0.036686
H344	H	-0.313012	0.848797	0.296648
H345	H	0.020322	1.182131	0.629981
H346	H	-0.672881	0.550247	0.060261
H347	H	-0.339548	0.883580	0.393594
H348	H	-0.006214	1.216914	0.726927
H349	H	-1.021038	0.287618	-0.000141
H350	H	-0.687705	0.620951	0.333192
H351	H	-0.354372	0.954284	0.666525
O352	O	-0.753515	0.656528	-0.000262
O353	O	-0.420182	0.989862	0.333072
O354	O	-0.086848	1.323195	0.666405
C355	C	-0.748652	0.701660	-0.065459
C356	C	-0.415318	1.034994	0.267874
C357	C	-0.081985	1.368327	0.601208
H358	H	-0.788155	0.683061	-0.111041
H359	H	-0.454821	1.016395	0.222293
H360	H	-0.121488	1.349728	0.555626
H361	H	-0.687635	0.694466	-0.087329
H362	H	-0.354301	1.027800	0.246005
H363	H	-0.020968	1.361133	0.579338
H364	H	-0.766232	0.763947	-0.050729
H365	H	-0.432899	1.097280	0.282604
H366	H	-0.099566	1.430614	0.615937
H367	H	-0.810764	-0.018753	-0.813572
H368	H	-0.477430	0.314580	-0.480239
H369	H	-0.144097	0.647914	-0.146906
H370	H	-1.016971	0.541714	-0.000165
H371	H	-0.683638	0.875047	0.333168
H372	H	-0.350305	1.208380	0.666502
