data_functionalizedCrystal
_audit_creation_method	'MofGen! by Chris Wilmer'
_symmetry_space_group_name_H-M	'P1'
_symmetry_Int_Tables_number	1
_symmetry_cell_setting	triclinic
loop_
_symmetry_equiv_pos_as_xyz
  x,y,z
_cell_length_a	12.827893
_cell_length_b	16.625546
_cell_length_c	12.827885
_cell_angle_alpha	89.964876
_cell_angle_beta	89.980538
_cell_angle_gamma	90.022439
loop_
_atom_site_label
_atom_site_type_symbol
_atom_site_fract_x
_atom_site_fract_y
_atom_site_fract_z
Zn1	Zn	1.597620	-0.320963	-0.590810
Zn2	Zn	2.097620	0.179037	-0.090810
Zn3	Zn	1.597492	-0.455817	-0.416054
Zn4	Zn	2.097492	0.044183	0.083946
Zn5	Zn	1.422861	-0.321002	-0.416084
Zn6	Zn	1.922861	0.178998	0.083916
Zn7	Zn	1.422825	-0.455757	-0.590754
Zn8	Zn	1.922825	0.044243	-0.090754
O9	O	1.510200	-0.388385	-0.503425
O10	O	2.010200	0.111615	-0.003425
O11	O	1.743839	-0.338861	-0.567639
O12	O	2.243839	0.161139	-0.067639
O13	O	1.574288	-0.437976	-0.269822
O14	O	2.074288	0.062024	0.230178
O15	O	1.446112	-0.208165	-0.439297
O16	O	1.946112	0.291835	0.060703
O17	O	1.743745	-0.437937	-0.439247
O18	O	2.243745	0.062063	0.060753
O19	O	1.574507	-0.208136	-0.567668
O20	O	2.074507	0.291864	-0.067668
O21	O	1.445988	-0.338928	-0.269843
O22	O	1.945988	0.161072	0.230157
O23	O	1.276620	-0.338869	-0.439243
O24	O	1.776620	0.161131	0.060757
O25	O	1.446051	-0.437835	-0.736997
O26	O	1.946051	0.062165	-0.236997
O27	O	1.276594	-0.437873	-0.567572
O28	O	1.776594	0.062127	-0.067572
O29	O	1.574472	-0.338802	-0.737039
O30	O	2.074472	0.161198	-0.237039
O31	O	1.574254	-0.568642	-0.439192
O32	O	2.074254	-0.068642	0.060808
O33	O	1.445927	-0.568598	-0.567544
O34	O	1.945927	-0.068598	-0.067544
C35	C	1.238690	-0.388370	-0.503405
C36	C	1.738690	0.111630	-0.003405
C37	C	1.122537	-0.388382	-0.503422
C38	C	1.622537	0.111618	-0.003422
C39	C	1.070766	-0.437449	-0.566825
C40	C	1.570766	0.062551	-0.066825
C41	C	0.950716	-0.437464	-0.566844
C42	C	1.450716	0.062536	-0.066844
C43	C	1.510101	-0.597876	-0.503382
C44	C	2.010101	-0.097876	-0.003382
C45	C	1.510154	-0.687497	-0.503398
C46	C	2.010154	-0.187497	-0.003398
C47	C	1.510336	-1.015673	-0.503507
C48	C	2.010336	-0.515673	-0.003507
C49	C	1.510282	-0.924364	-0.503479
C50	C	2.010282	-0.424364	-0.003479
C51	C	1.510244	-0.851588	-0.503452
C52	C	2.010244	-0.351588	-0.003452
C53	C	1.510192	-0.760274	-0.503425
C54	C	2.010192	-0.260274	-0.003425
C55	C	1.782770	-0.388401	-0.503446
C56	C	2.282770	0.111599	-0.003446
C57	C	1.898923	-0.388408	-0.503455
C58	C	2.398923	0.111592	-0.003455
C59	C	1.510272	-0.388308	-0.775996
C60	C	2.010272	0.111692	-0.275996
C61	C	1.510302	-0.388275	-0.892149
C62	C	2.010302	0.111725	-0.392149
C63	C	1.510327	-0.178076	-0.503492
C64	C	2.010327	0.321924	-0.003492
C65	C	1.510382	-0.088455	-0.503521
C66	C	2.010382	0.411545	-0.003521
C67	C	1.446835	-0.339253	-0.943944
C68	C	1.946835	0.160747	-0.443944
C69	C	1.446866	-0.339218	-1.063995
C70	C	1.946866	0.160782	-0.563995
C71	C	1.510188	-0.388404	-0.231915
C72	C	2.010188	0.111596	0.268085
C73	C	1.510360	-0.388210	-0.115763
C74	C	2.010360	0.111790	0.384237
H75	H	0.943437	-0.346401	-0.449166
H76	H	1.443437	0.153599	0.050834
O77	O	1.382080	-0.289238	-0.890666
O78	O	1.882080	0.210762	-0.390666
C79	C	1.322933	-0.243730	-0.722437
C80	C	1.822933	0.256270	-0.222437
C81	C	1.396340	-0.300401	-0.782640
C82	C	1.896340	0.199599	-0.282640
H83	H	1.334420	-0.252747	-0.635088
H84	H	1.834420	0.247253	-0.135088
H85	H	1.341312	-0.178676	-0.743777
H86	H	1.841312	0.321324	-0.243777
H87	H	1.238658	-0.257853	-0.743888
H88	H	1.738658	0.242147	-0.243888
H89	H	1.480639	-0.286350	-0.761222
H90	H	1.980639	0.213650	-0.261222
H91	H	1.377870	-0.365438	-0.761295
H92	H	1.877870	0.134562	-0.261295
H93	H	1.392534	-0.297245	-1.108538
H94	H	1.892534	0.202755	-0.608538
O95	O	1.069514	-0.338317	-0.438525
O96	O	1.569514	0.161683	0.061475
C97	C	1.035807	-0.299081	-0.260885
C98	C	1.535807	0.200919	0.239115
C99	C	1.095930	-0.355819	-0.334268
C100	C	1.595930	0.144181	0.165732
H101	H	1.057126	-0.313223	-0.176577
H102	H	1.557126	0.186777	0.323423
H103	H	1.057259	-0.234051	-0.279276
H104	H	1.557259	0.265949	0.220724
H105	H	0.948459	-0.308002	-0.272483
H106	H	1.448459	0.191998	0.227517
H107	H	1.183292	-0.346970	-0.322711
H108	H	1.683292	0.153030	0.177289
H109	H	1.074392	-0.420828	-0.315860
H110	H	1.574392	0.079172	0.184140
H111	H	1.115321	-0.479444	-0.621098
H112	H	1.615321	0.020556	-0.121098
O113	O	1.575136	-0.438397	-1.062753
O114	O	2.075136	0.061603	-0.562753
C115	C	1.625692	-0.575544	-1.029066
C116	C	2.125692	-0.075544	-0.529066
C117	C	1.552286	-0.518798	-1.089192
C118	C	2.052286	-0.018798	-0.589192
H119	H	1.607229	-0.640561	-1.050403
H120	H	2.107229	-0.140561	-0.550403
H121	H	1.710007	-0.561468	-1.050496
H122	H	2.210007	-0.061468	-0.550496
H123	H	1.614134	-0.566609	-0.941718
H124	H	2.114134	-0.066609	-0.441718
H125	H	1.563751	-0.527702	-1.176554
H126	H	2.063751	-0.027702	-0.676554
H127	H	1.467998	-0.532888	-1.067676
H128	H	1.967998	-0.032888	-0.567676
H129	H	1.564660	-0.430219	-0.936682
H130	H	2.064660	0.069781	-0.436682
H131	H	0.906195	-0.479474	-0.621123
H132	H	1.406195	0.020526	-0.121123
