data_functionalizedCrystal
_audit_creation_method	'MofGen! by Chris Wilmer'
_symmetry_space_group_name_H-M	'P1'
_symmetry_Int_Tables_number	1
_symmetry_cell_setting	triclinic
loop_
_symmetry_equiv_pos_as_xyz
  x,y,z
_cell_length_a	6.817900
_cell_length_b	10.773890
_cell_length_c	14.125465
_cell_angle_alpha	96.481673
_cell_angle_beta	100.398878
_cell_angle_gamma	96.645716
loop_
_atom_site_label
_atom_site_type_symbol
_atom_site_fract_x
_atom_site_fract_y
_atom_site_fract_z
V1	V	-3.957265	-0.171528	-0.298419
O2	O	-3.981363	0.009345	-0.294351
O3	O	-3.875342	-0.341173	-0.294827
O4	O	-3.894026	-0.168406	-0.429277
O5	O	-3.962550	-0.164617	-0.158970
V6	V	-4.447159	-0.149951	-0.281928
O7	O	-4.204547	-0.218860	-0.334593
O8	O	-4.650074	-0.102619	-0.245754
O9	O	-4.305874	0.019693	-0.285520
O10	O	-4.540457	-0.330825	-0.285996
O11	O	-4.559270	-0.156862	-0.421377
O12	O	-4.287190	-0.153073	-0.151070
C13	C	-3.712668	-0.382543	-0.289719
C14	C	-3.726875	-0.521227	-0.287654
C15	C	-3.904544	-0.589077	-0.291242
C16	C	-3.919231	-0.732413	-0.289108
C17	C	-3.736501	-0.162161	-0.461223
C18	C	-3.765859	-0.160731	-0.568190
C19	C	-3.819670	-0.158108	-0.764037
C20	C	-4.004123	-0.163369	-0.816310
C21	C	-4.034066	-0.161910	-0.925286
C22	C	-3.789719	-0.159567	-0.655051
C23	C	-4.131889	0.061057	-0.290625
C24	C	-4.096920	0.199739	-0.292696
C25	C	-4.108057	-0.159323	-0.119119
C26	C	-4.057940	-0.160747	-0.012151
H27	H	-3.777985	-0.780436	-0.284462
H28	H	-4.045780	-0.541050	-0.295899
O29	O	-4.265546	-0.743075	-0.298419
C30	C	-4.594656	-0.730471	-0.390682
C31	C	-4.403792	-0.795318	-0.384334
H32	H	-4.706496	-0.772702	-0.460128
H33	H	-4.552925	-0.625079	-0.391481
H34	H	-4.665900	-0.745685	-0.325087
H35	H	-4.332456	-0.780203	-0.449913
H36	H	-4.445646	-0.900688	-0.383488
O37	O	-3.558192	-0.578343	-0.281973
C38	C	-3.229188	-0.591059	-0.189649
C39	C	-3.420092	-0.526256	-0.195973
H40	H	-3.117500	-0.548991	-0.120113
H41	H	-3.157689	-0.575781	-0.255159
H42	H	-3.271118	-0.696458	-0.188965
H43	H	-3.378330	-0.420840	-0.196627
H44	H	-3.491542	-0.541637	-0.130465
O45	O	-4.165487	-0.170119	-0.771924
C46	C	-4.282276	-0.177642	-0.621245
C47	C	-4.099373	-0.170013	-0.671396
H48	H	-4.228886	-0.177532	-0.539957
H49	H	-4.388860	-0.268142	-0.653021
H50	H	-4.364491	-0.092799	-0.633629
H51	H	-4.016998	-0.254790	-0.659030
H52	H	-3.992930	-0.079459	-0.639612
O53	O	-3.658338	-0.151496	-0.808437
C54	C	-3.541567	-0.143880	-0.959113
C55	C	-3.724441	-0.151393	-0.908941
H56	H	-3.594940	-0.143767	-1.040375
H57	H	-3.459404	-0.228776	-0.946860
H58	H	-3.434940	-0.053435	-0.927226
H59	H	-3.831211	-0.241784	-0.940796
H60	H	-3.806446	-0.066433	-0.921188
