data_functionalizedCrystal
_audit_creation_method	'MofGen! by Chris Wilmer'
_symmetry_space_group_name_H-M	'P1'
_symmetry_Int_Tables_number	1
_symmetry_cell_setting	triclinic
loop_
_symmetry_equiv_pos_as_xyz
  x,y,z
_cell_length_a	16.992698
_cell_length_b	16.956984
_cell_length_c	16.053820
_cell_angle_alpha	92.380718
_cell_angle_beta	92.753702
_cell_angle_gamma	96.639820
loop_
_atom_site_label
_atom_site_type_symbol
_atom_site_fract_x
_atom_site_fract_y
_atom_site_fract_z
O1	O	-1.025959	0.171507	0.069446
O2	O	-0.525959	0.671507	0.569446
O3	O	-0.797793	0.169662	0.069444
O4	O	-0.297793	0.669662	0.569444
O5	O	-0.925584	0.055379	0.069439
O6	O	-0.425584	0.555379	0.569439
O7	O	-0.898167	0.285791	0.069451
O8	O	-0.398167	0.785791	0.569451
O9	O	-0.932611	0.049110	-0.069420
O10	O	-0.432611	0.549110	0.430580
O11	O	-0.804820	0.163394	-0.069415
O12	O	-0.304820	0.663394	0.430585
O13	O	-1.032985	0.165238	-0.069413
O14	O	-0.532985	0.665238	0.430587
Zn15	Zn	-0.920018	0.163321	-0.091461
Zn16	Zn	-0.420018	0.663321	0.408539
Zn17	Zn	-0.910760	0.171580	0.091492
Zn18	Zn	-0.410760	0.671580	0.591492
O19	O	-0.905194	0.279522	-0.069408
O20	O	-0.405194	0.779522	0.430592
C21	C	-0.772248	0.164152	0.000014
C22	C	-0.272248	0.664152	0.500014
C23	C	-0.685663	0.157062	0.000014
C24	C	-0.185663	0.657062	0.500014
C25	C	-0.199791	0.109426	0.000010
C26	C	0.300209	0.609426	0.500010
C27	C	-0.281146	0.116093	0.000006
C28	C	0.218854	0.616093	0.500006
C29	C	-0.307822	0.191177	0.000013
C30	C	0.192178	0.691177	0.500013
C31	C	-0.253139	0.259597	0.000017
C32	C	0.246861	0.759597	0.500017
C33	C	-0.171786	0.252928	0.000015
C34	C	0.328214	0.752928	0.500015
C35	C	-0.549627	0.218814	0.000015
C36	C	-0.049627	0.718814	0.500015
C37	C	-0.630987	0.225477	0.000019
C38	C	-0.130987	0.725477	0.500019
C39	C	-0.658988	0.081973	0.000007
C40	C	-0.158988	0.581973	0.500007
C41	C	-0.577633	0.075311	0.000010
C42	C	-0.077633	0.575311	0.500010
C43	C	-0.522957	0.143731	0.000009
C44	C	-0.022957	0.643731	0.500009
N45	N	-0.390979	0.197994	0.000012
N46	N	0.109021	0.697994	0.500012
N47	N	-0.439802	0.136913	0.000004
N48	N	0.060198	0.636913	0.500004
C49	C	-0.058530	0.170750	0.000016
C50	C	0.441470	0.670750	0.500016
C51	C	-0.145115	0.177841	0.000015
C52	C	0.354885	0.677841	0.500015
C53	C	-0.930501	0.022626	0.000010
C54	C	-0.430501	0.522626	0.500010
C55	C	-0.934675	-0.065629	0.000011
C56	C	-0.434675	0.434371	0.500011
C57	C	-0.864889	-0.102159	0.000014
C58	C	-0.364889	0.397841	0.500014
C59	C	-0.868816	-0.185084	0.000012
C60	C	-0.368816	0.314916	0.500012
C61	C	-0.942528	-0.231477	0.000012
C62	C	-0.442528	0.268523	0.500012
C63	C	-1.012319	-0.194941	0.000007
C64	C	-0.512319	0.305059	0.500007
C65	C	-1.008392	-0.112018	0.000003
C66	C	-0.508392	0.387982	0.500003
C67	C	-0.961967	-0.480011	0.000018
C68	C	-0.461967	0.019989	0.500018
C69	C	-0.965889	-0.562940	0.000024
C70	C	-0.465889	-0.062940	0.500024
C71	C	-0.822384	-0.553077	0.000028
C72	C	-0.322384	-0.053077	0.500028
C73	C	-0.818464	-0.470152	0.000029
C74	C	-0.318464	0.029848	0.500029
C75	C	-0.888255	-0.433624	0.000019
C76	C	-0.388255	0.066376	0.500019
N77	N	-0.946543	-0.316240	0.000013
N78	N	-0.446543	0.183760	0.500013
N79	N	-0.884239	-0.348863	0.000013
N80	N	-0.384239	0.151137	0.500013
C81	C	-0.900277	0.312275	0.000023
C82	C	-0.400277	0.812275	0.500023
C83	C	-0.896103	0.400530	0.000028
C84	C	-0.396103	0.900530	0.500028
N85	N	-0.904442	0.177211	0.216352
N86	N	-0.404442	0.677211	0.716352
C87	C	-0.871868	0.206210	0.739986
C88	C	-0.371868	0.706210	1.239986
C89	C	-0.876294	0.202276	0.652579
C90	C	-0.376294	0.702276	1.152579
C91	C	-0.935183	0.149816	0.608867
C92	C	-0.435183	0.649816	1.108867
C93	C	-0.989655	0.101292	0.652566
C94	C	-0.489655	0.601292	1.152566
C95	C	-0.985232	0.105231	0.739971
C96	C	-0.485232	0.605231	1.239971
C97	C	-0.954491	0.132626	0.347457
C98	C	-0.454491	0.632626	0.847457
C99	C	-0.958909	0.128690	0.260045
C100	C	-0.458909	0.628690	0.760045
C101	C	-0.845548	0.229675	0.260064
C102	C	-0.345548	0.729675	0.760064
C103	C	-0.841128	0.233605	0.347471
C104	C	-0.341128	0.733605	0.847471
C105	C	-0.895602	0.185085	0.391163
C106	C	-0.395602	0.685085	0.891163
N107	N	-0.939707	0.145792	0.519523
N108	N	-0.439707	0.645792	1.019523
N109	N	-0.891081	0.189114	0.480505
N110	N	-0.391081	0.689114	0.980505
N111	N	-0.926334	0.157688	0.783679
N112	N	-0.426334	0.657688	1.283679
H113	H	-0.127268	0.308639	0.000017
H114	H	0.372732	0.808639	0.500017
Br115	Br	-0.791938	0.277404	0.799300
Br116	Br	-0.291938	0.777404	1.299300
H117	H	-0.804864	-0.064391	0.000018
H118	H	-0.304864	0.435609	0.500018
H119	H	-0.765565	-0.582827	0.000035
H120	H	-0.265565	-0.082827	0.500035
H121	H	-0.831944	0.241787	0.617004
H122	H	-0.331944	0.741787	1.117004
H123	H	-0.505119	0.274527	0.000018
H124	H	-0.005119	0.774527	0.500018
H125	H	-0.758439	-0.432384	0.000031
H126	H	-0.258439	0.067616	0.500031
Br127	Br	-1.059158	0.039383	0.799270
Br128	Br	-0.559158	0.539383	1.299270
H129	H	-0.274865	0.320731	0.000018
H130	H	0.225135	0.820731	0.500018
H131	H	-0.555920	0.014170	0.000003
H132	H	-0.055920	0.514170	0.500003
Br133	Br	-1.056682	-0.430446	0.000034
Br134	Br	-0.556682	0.069554	0.500034
Br135	Br	-0.355348	0.023239	-0.000011
Br136	Br	0.144652	0.523239	0.499989
Br137	Br	-1.112360	-0.257903	-0.000006
Br138	Br	-0.612360	0.242097	0.499994
Br139	Br	-1.028417	0.066777	0.406748
Br140	Br	-0.528417	0.566777	0.906748
Br141	Br	-0.667188	0.327383	0.000032
Br142	Br	-0.167188	0.827383	0.500032
Br143	Br	-1.065933	-0.625902	0.000034
Br144	Br	-0.565933	-0.125902	0.500034
Br145	Br	-0.774102	-0.234658	0.000015
Br146	Br	-0.274102	0.265342	0.500015
Br147	Br	-1.103106	-0.062441	-0.000014
Br148	Br	-0.603106	0.437559	0.499986
H149	H	-1.037607	0.058581	0.616971
H150	H	-0.537607	0.558581	1.116971
H151	H	-0.793176	0.276322	0.383060
H152	H	-0.293176	0.776322	0.883060
H153	H	-0.801199	0.269179	0.224483
H154	H	-0.301199	0.769179	0.724483
H155	H	-0.178079	0.048285	0.000008
H156	H	0.321921	0.548285	0.500008
Br157	Br	-0.733194	-0.010878	0.000003
Br158	Br	-0.233194	0.489122	0.500003
Br159	Br	-1.038834	0.057484	0.200727
Br160	Br	-0.538834	0.557484	0.700727
