data_functionalizedCrystal
_audit_creation_method	'MofGen! by Chris Wilmer'
_symmetry_space_group_name_H-M	'P1'
_symmetry_Int_Tables_number	1
_symmetry_cell_setting	triclinic
loop_
_symmetry_equiv_pos_as_xyz
  x,y,z
_cell_length_a	27.731993
_cell_length_b	27.732048
_cell_length_c	9.130307
_cell_angle_alpha	89.991788
_cell_angle_beta	90.010029
_cell_angle_gamma	82.631525
loop_
_atom_site_label
_atom_site_type_symbol
_atom_site_fract_x
_atom_site_fract_y
_atom_site_fract_z
O1	O	0.640942	0.057391	-0.121421
O2	O	0.500145	0.066164	-0.121513
O3	O	0.574917	-0.008620	-0.121436
O4	O	0.566171	0.132175	-0.121498
O5	O	0.574914	-0.008621	0.122163
O6	O	0.500143	0.066163	0.122086
O7	O	0.640940	0.057390	0.122178
Cu8	Cu	0.570541	0.061776	0.144375
Cu9	Cu	0.570544	0.061777	-0.143709
O10	O	0.566169	0.132174	0.122101
C11	C	0.574732	-0.026628	0.000367
C12	C	0.574179	-0.080282	0.000379
C13	C	0.482137	0.065983	0.000276
C14	C	0.428480	0.065441	0.000242
C15	C	0.045321	0.061511	-0.132471
C16	C	0.246979	0.063578	-0.132512
O17	O	0.273053	0.063826	-0.245444
N18	N	0.272198	0.063836	0.000271
C19	C	0.247000	0.063574	0.133073
O20	O	0.273078	0.063836	0.246012
C21	C	0.045344	0.061504	0.133112
C22	C	0.020127	0.061251	0.000321
C23	C	0.020104	0.061257	-0.265252
C24	C	-0.030307	0.060743	-0.265240
C25	C	-0.055502	0.060483	-0.132448
C26	C	-0.030285	0.060736	0.000332
C27	C	0.020147	0.061239	0.265913
C28	C	-0.030270	0.060720	0.265911
C29	C	-0.055487	0.060466	0.133120
C30	C	-0.105891	0.059962	0.133136
N31	N	-0.131110	0.059704	0.000353
C32	C	-0.105916	0.059964	-0.132439
C33	C	0.352872	0.064662	0.133043
C34	C	0.403286	0.065181	0.133034
C35	C	0.403261	0.065183	-0.132552
C36	C	0.352846	0.064668	-0.132541
C37	C	0.327653	0.064404	0.000261
C38	C	-0.211784	0.058885	-0.132405
C39	C	-0.262200	0.058373	-0.132381
C40	C	-0.262171	0.058368	0.133203
C41	C	-0.211760	0.058882	0.133181
C42	C	-0.186567	0.059139	0.000365
O43	O	-0.131996	0.059708	0.246009
O44	O	-0.132001	0.059691	-0.245361
C45	C	0.095733	0.062025	-0.132483
C46	C	0.120950	0.062279	0.000298
C47	C	0.095755	0.062018	0.133090
C48	C	0.171364	0.062797	0.000289
C49	C	0.196558	0.063057	-0.132504
C50	C	0.171340	0.062799	-0.265286
C51	C	0.120928	0.062285	-0.265275
C52	C	0.120974	0.062277	0.265873
C53	C	0.171386	0.062791	0.265850
C54	C	0.196581	0.063052	0.133058
C55	C	0.614884	-0.419105	0.000330
C56	C	0.612833	-0.620765	0.000309
O57	O	0.650055	-0.652028	0.000269
N58	N	0.568497	-0.639880	0.000281
C59	C	0.524670	-0.608576	0.000249
O60	O	0.486912	-0.629462	0.000211
C61	C	0.526721	-0.406918	0.000261
C62	C	0.571061	-0.387806	0.000303
C63	C	0.659220	-0.399993	0.000371
C64	C	0.659732	-0.349581	0.000384
C65	C	0.615909	-0.318282	0.000357
C66	C	0.571573	-0.337394	0.000316
C67	C	0.482895	-0.375616	0.000219
C68	C	0.483412	-0.325199	0.000218
C69	C	0.527751	-0.306087	0.000260
C70	C	0.528262	-0.255683	0.000303
N71	N	0.572598	-0.236568	0.000330
C72	C	0.616422	-0.267867	0.000357
C73	C	0.523596	-0.714450	0.000246
C74	C	0.523083	-0.764865	0.000246
C75	C	0.611246	-0.777049	0.000303
C76	C	0.611759	-0.726634	0.000313
C77	C	0.567932	-0.695335	0.000274
C78	C	0.617494	-0.161998	0.000387
C79	C	0.618003	-0.111582	0.000406
C80	C	0.529839	-0.099401	0.000342
C81	C	0.529331	-0.149814	0.000330
C82	C	0.573162	-0.181112	0.000348
O83	O	0.491060	-0.224392	0.000326
O84	O	0.654174	-0.246972	0.000364
C85	C	0.614372	-0.469517	0.000317
C86	C	0.570036	-0.488630	0.000276
C87	C	0.526213	-0.457331	0.000249
C88	C	0.569523	-0.539044	0.000276
C89	C	0.613346	-0.570343	0.000303
C90	C	0.657683	-0.551228	0.000331
C91	C	0.658195	-0.500817	0.000344
C92	C	0.481876	-0.476446	0.000221
C93	C	0.481368	-0.526858	0.000210
C94	C	0.525191	-0.558157	0.000237
C95	C	0.658949	0.057570	0.000387
C96	C	0.712605	0.058113	0.000411
C97	C	0.566353	0.150181	0.000295
C98	C	0.566906	0.203836	0.000274
N99	N	0.570543	0.061776	0.346998
N100	N	0.570546	0.061774	-0.346332
C101	C	0.636779	-0.004427	0.347055
C102	C	0.669901	-0.037527	0.423751
C103	C	0.669906	-0.037527	0.577084
C104	C	0.636785	-0.004425	0.653726
C105	C	0.603663	0.028675	0.577030
C106	C	0.603663	0.028672	0.423693
C107	C	0.537425	0.094874	0.576972
C108	C	0.537422	0.094878	0.423639
C109	C	0.504304	0.127976	0.653614
C110	C	0.471184	0.161080	0.576918
C111	C	0.471181	0.161079	0.423575
C112	C	0.504300	0.127978	0.346943
H113	H	-0.191278	0.059095	-0.240556
H114	H	0.696867	-0.064480	0.361336
H115	H	0.504302	0.127976	0.222091
C116	C	0.705889	-0.585664	0.000357
C117	C	0.742328	-0.583777	0.126873
C118	C	0.790532	-0.618215	0.126890
C119	C	0.802296	-0.654540	0.000391
C120	C	0.765856	-0.656429	-0.126135
C121	C	0.717653	-0.621991	-0.126151
H122	H	0.733620	-0.556885	0.220524
H123	H	0.817507	-0.616816	0.220553
H124	H	0.837979	-0.680033	0.000403
H125	H	0.774564	-0.683321	-0.219785
H126	H	0.690678	-0.623390	-0.219814
H127	H	0.636787	-0.004432	0.778578
H128	H	0.444217	0.188027	0.639329
C129	C	0.430981	0.065465	-0.278628
C130	C	0.471445	0.023826	-0.315105
C131	C	0.499168	0.024102	-0.461173
C132	C	0.486427	0.066017	-0.570764
C133	C	0.445961	0.107659	-0.534289
C134	C	0.418239	0.107383	-0.388221
H135	H	0.480878	-0.007205	-0.233977
H136	H	0.529123	-0.006724	-0.488173
H137	H	0.506949	0.066222	-0.678892
H138	H	0.436528	0.138690	-0.615417
H139	H	0.388283	0.138209	-0.361221
C140	C	0.434745	0.197490	0.339216
C141	C	0.398340	0.233921	0.423525
C142	C	0.361903	0.270333	0.339172
C143	C	0.361873	0.270314	0.170511
C144	C	0.398280	0.233883	0.086192
C145	C	0.434716	0.197471	0.170545
H146	H	0.398361	0.233935	0.548387
H147	H	0.334953	0.297302	0.401591
H148	H	0.334901	0.297269	0.108068
H149	H	0.398259	0.233868	-0.038670
H150	H	0.461667	0.170501	0.108126
C151	C	-0.289893	0.058079	0.279267
C152	C	-0.330360	0.099712	0.315775
C153	C	-0.358083	0.099419	0.461839
C154	C	-0.345338	0.057494	0.571395
C155	C	-0.304869	0.015859	0.534889
C156	C	-0.277147	0.016151	0.388826
H157	H	-0.339795	0.130750	0.234673
H158	H	-0.388040	0.130240	0.488862
H159	H	-0.365861	0.057277	0.679520
H160	H	-0.295434	-0.015179	0.615991
H161	H	-0.247189	-0.014670	0.361803
H162	H	0.696874	-0.064482	0.639530
H163	H	-0.282730	0.058168	-0.240521
C164	C	0.666779	-0.090560	0.000445
C165	C	0.703075	-0.102531	0.126957
C166	C	0.751849	-0.081512	0.126991
C167	C	0.764328	-0.048520	0.000513
C168	C	0.728031	-0.036547	-0.126008
C169	C	0.679256	-0.057567	-0.126043
H170	H	0.693838	-0.126955	0.220592
H171	H	0.778718	-0.090375	0.220651
H172	H	0.800433	-0.032960	0.000539
H173	H	0.737268	-0.012124	-0.219643
H174	H	0.652387	-0.048703	-0.219703
H175	H	-0.050834	0.060534	-0.373373
H176	H	0.040613	0.061467	-0.373393
C177	C	0.431018	0.065464	0.279110
C178	C	0.459869	0.107809	0.315638
C179	C	0.487599	0.108088	0.461722
C180	C	0.486479	0.066021	0.571277
C181	C	0.457627	0.023673	0.534752
C182	C	0.429897	0.023394	0.388668
H183	H	0.460699	0.138951	0.234536
H184	H	0.508957	0.139437	0.488759
H185	H	0.507007	0.066228	0.679417
H186	H	0.456797	-0.007469	0.615854
H187	H	0.408539	-0.007955	0.361631
C188	C	0.475383	-0.680024	0.000218
C189	C	0.463609	-0.643697	0.126708
C190	C	0.415397	-0.609273	0.126688
C191	C	0.378959	-0.611176	0.000179
C192	C	0.390732	-0.647504	-0.126321
C193	C	0.438944	-0.681929	-0.126301
H194	H	0.490584	-0.642287	0.220366
H195	H	0.406682	-0.582380	0.220332
H196	H	0.343269	-0.585693	0.000164
H197	H	0.363757	-0.648915	-0.219979
H198	H	0.447659	-0.708822	-0.219945
C199	C	0.665708	-0.196421	0.000418
C200	C	0.702138	-0.194518	0.126949
C201	C	0.750351	-0.228941	0.126993
C202	C	0.762135	-0.265267	0.000504
C203	C	0.725704	-0.267171	-0.126037
C204	C	0.677490	-0.232749	-0.126080
H205	H	0.693416	-0.167626	0.220592
H206	H	0.777320	-0.227531	0.220667
H207	H	0.797825	-0.290749	0.000536
H208	H	0.734425	-0.294063	-0.219680
H209	H	0.650522	-0.234159	-0.219755
C210	C	0.433667	-0.442020	0.000202
C211	C	0.421894	-0.405697	0.126703
C212	C	0.373682	-0.371272	0.126694
C213	C	0.337243	-0.373170	0.000184
C214	C	0.349015	-0.409495	-0.126326
C215	C	0.397228	-0.443920	-0.126317
H216	H	0.448870	-0.404290	0.220362
H217	H	0.364968	-0.344382	0.220346
H218	H	0.301554	-0.347687	0.000178
H219	H	0.322040	-0.410902	-0.219985
H220	H	0.405942	-0.470809	-0.219969
H221	H	0.695838	-0.334025	0.000413
H222	H	0.332364	0.064446	0.241192
C223	C	0.707431	-0.434417	0.000409
C224	C	0.743860	-0.432507	0.126939
C225	C	0.792076	-0.466927	0.126991
C226	C	0.803861	-0.503256	0.000512
C227	C	0.767431	-0.505167	-0.126028
C228	C	0.719216	-0.470747	-0.126079
H229	H	0.735137	-0.405613	0.220575
H230	H	0.819044	-0.465512	0.220665
H231	H	0.839553	-0.528736	0.000550
H232	H	0.776155	-0.532061	-0.219664
H233	H	0.692248	-0.472162	-0.219753
H234	H	0.040670	0.061443	0.374046
H235	H	0.504307	0.127973	0.778466
H236	H	0.191861	0.063014	-0.373410
H237	H	0.332318	0.064462	-0.240671
H238	H	-0.050780	0.060509	0.374057
H239	H	0.636783	-0.004426	0.222203
H240	H	-0.191228	0.059098	0.241310
H241	H	0.100401	0.062079	-0.373407
H242	H	0.191913	0.063002	0.373993
H243	H	0.100466	0.062062	0.374010
H244	H	0.647864	-0.711077	0.000347
C245	C	0.435201	-0.290770	0.000179
C246	C	0.398768	-0.292669	-0.126346
C247	C	0.350557	-0.258242	-0.126381
C248	C	0.338780	-0.221915	0.000108
C249	C	0.375215	-0.220015	0.126643
C250	C	0.423425	-0.254442	0.126678
H251	H	0.407485	-0.319562	-0.219990
H252	H	0.323586	-0.259649	-0.220051
H253	H	0.303092	-0.196430	0.000082
H254	H	0.366498	-0.193122	0.220287
H255	H	0.450396	-0.253035	0.220348
C256	C	0.659453	-0.811484	0.000321
C257	C	0.695896	-0.809595	0.126824
C258	C	0.744101	-0.844031	0.126829
C259	C	0.755862	-0.880357	0.000329
C260	C	0.719418	-0.882248	-0.126184
C261	C	0.671214	-0.847812	-0.126188
H262	H	0.687191	-0.782703	0.220475
H263	H	0.771079	-0.842631	0.220483
H264	H	0.791546	-0.905849	0.000333
H265	H	0.728124	-0.909140	-0.219835
H266	H	0.644236	-0.849212	-0.219842
H267	H	0.486977	-0.780421	0.000237
H268	H	0.493226	-0.165375	0.000337
H269	H	0.446789	-0.391168	0.000175
C270	C	0.481636	-0.064965	0.000301
C271	C	0.445205	-0.066859	-0.126234
C272	C	0.397002	-0.032421	-0.126291
C273	C	0.385229	0.003911	0.000187
C274	C	0.421661	0.005807	0.126731
C275	C	0.469864	-0.028631	0.126788
H276	H	0.453920	-0.093756	-0.219869
H277	H	0.370033	-0.033824	-0.219968
H278	H	0.349546	0.029404	0.000145
H279	H	0.412947	0.032703	0.220366
H280	H	0.496833	-0.027228	0.220465
H281	H	0.694301	-0.485261	0.000378
H282	H	0.445259	-0.542414	0.000188
