data_functionalizedCrystal
_audit_creation_method	'MofGen! by Chris Wilmer'
_symmetry_space_group_name_H-M	'P1'
_symmetry_Int_Tables_number	1
_symmetry_cell_setting	triclinic
loop_
_symmetry_equiv_pos_as_xyz
  x,y,z
_cell_length_a	10.654554
_cell_length_b	17.000371
_cell_length_c	9.130313
_cell_angle_alpha	89.998533
_cell_angle_beta	89.998999
_cell_angle_gamma	80.043045
loop_
_atom_site_label
_atom_site_type_symbol
_atom_site_fract_x
_atom_site_fract_y
_atom_site_fract_z
O1	O	1.653955	0.111739	-0.121826
O2	O	1.287156	0.122379	-0.121823
O3	O	1.493331	0.001319	-0.121815
O4	O	1.447780	0.232800	-0.121835
O5	O	1.493328	0.001322	0.121784
O6	O	1.287153	0.122383	0.121775
O7	O	1.653952	0.111742	0.121773
Cu8	Cu	1.470553	0.117063	0.144017
Cu9	Cu	1.470556	0.117059	-0.144067
O10	O	1.447778	0.232803	0.121764
C11	C	1.240454	0.121599	-0.000023
C12	C	1.101302	0.119259	-0.000022
C13	C	0.928137	0.043581	-0.000035
C14	C	1.058886	0.045779	-0.000020
C15	C	1.012960	0.190546	-0.000024
C16	C	0.882214	0.188348	-0.000029
C17	C	0.954653	-0.040000	-0.000038
C18	C	1.085402	-0.037802	-0.000024
C19	C	1.495776	-0.028320	-0.000016
C20	C	1.503051	-0.116638	-0.000017
C21	C	1.391095	-0.149283	-0.000023
C22	C	1.397938	-0.232268	-0.000019
C23	C	1.516739	-0.282607	-0.000020
C24	C	1.628704	-0.249957	-0.000010
C25	C	1.621860	-0.166973	-0.000003
C26	C	1.543178	-0.533607	-0.000030
C27	C	1.550014	-0.616595	-0.000041
C28	C	1.319247	-0.598901	-0.000047
C29	C	1.312413	-0.515916	-0.000049
C30	C	1.424377	-0.483273	-0.000032
C31	C	1.523737	-0.367431	-0.000020
C32	C	1.417378	-0.398451	-0.000021
C33	C	1.700655	0.112523	-0.000030
C34	C	1.839807	0.114862	-0.000041
C35	C	1.445332	0.262441	-0.000038
C36	C	1.438057	0.350760	-0.000046
N37	N	1.470560	0.117065	0.346639
N38	N	1.470560	0.117050	-0.346690
C39	C	1.561873	0.063478	0.423295
C40	C	1.561871	0.063468	0.576632
C41	C	1.379236	0.170640	0.576644
C42	C	1.379234	0.170645	0.423310
C43	C	1.667320	0.001605	0.423290
C44	C	1.667317	0.001596	0.576627
H45	H	1.047505	0.250376	-0.000013
N46	N	1.146624	-0.069491	0.131905
N47	N	1.263625	-0.071611	0.148397
H48	H	1.306867	-0.093989	0.241571
N49	N	0.792004	0.261167	-0.000005
N50	N	0.829889	0.326770	0.000009
H51	H	0.766178	0.378203	0.000029
H52	H	1.620465	-0.408426	-0.000023
H53	H	1.756097	0.020980	0.375729
H54	H	1.725435	-0.290950	-0.000001
N55	N	1.638057	-0.070884	0.636305
N56	N	1.716718	-0.113481	0.717198
H57	H	1.696047	-0.164666	0.759353
N58	N	1.142687	-0.077315	-0.127902
N59	N	1.075824	-0.106950	-0.218017
H60	H	1.116280	-0.134856	-0.308328
H61	H	1.306771	-0.258843	-0.000034
N62	N	0.922918	-0.081010	0.127844
N63	N	1.007778	-0.108095	0.217954
H64	H	0.985367	-0.137058	0.308270
N65	N	1.736233	-0.133638	0.000018
N66	N	1.842299	-0.178590	0.000023
H67	H	1.923081	-0.155049	0.000047
H68	H	1.294354	-0.108302	-0.000029
N69	N	1.191049	-0.464510	-0.000042
N70	N	1.091094	-0.493668	-0.000040
H71	H	1.005377	-0.457363	-0.000036
H72	H	1.762136	0.015226	0.618241
N73	N	0.914121	-0.073400	-0.131981
N74	N	0.960931	-0.143275	-0.167888
H75	H	0.932306	-0.166864	-0.261076
N76	N	1.296018	-0.347048	-0.000012
N77	N	1.219513	-0.350394	0.102660
H78	H	1.133799	-0.314086	0.102661
N79	N	1.204899	-0.632261	-0.000035
N80	N	1.182982	-0.676597	0.102649
H81	H	1.102220	-0.700159	0.102665
N82	N	1.285932	0.225376	0.345029
N83	N	1.204400	0.273206	0.413507
H84	H	1.138499	0.311861	0.358223
H85	H	1.304881	0.214263	0.639085
H86	H	1.646761	-0.657581	-0.000051
H87	H	1.634348	-0.507039	-0.000019
H88	H	1.653469	-0.059535	0.381675
