data_functionalizedCrystal
_audit_creation_method	'MofGen! by Chris Wilmer'
_symmetry_space_group_name_H-M	'P1'
_symmetry_Int_Tables_number	1
_symmetry_cell_setting	triclinic
loop_
_symmetry_equiv_pos_as_xyz
  x,y,z
_cell_length_a	12.759401
_cell_length_b	16.120484
_cell_length_c	12.759393
_cell_angle_alpha	92.864008
_cell_angle_beta	89.979062
_cell_angle_gamma	92.926992
loop_
_atom_site_label
_atom_site_type_symbol
_atom_site_fract_x
_atom_site_fract_y
_atom_site_fract_z
Zn1	Zn	1.584985	-0.331832	-0.615183
Zn2	Zn	1.575933	-0.471268	-0.448395
Zn3	Zn	1.409280	-0.331877	-0.439521
Zn4	Zn	1.400336	-0.471209	-0.624029
O5	O	1.492634	-0.401546	-0.531782
O6	O	1.730804	-0.350334	-0.593070
O7	O	1.553781	-0.452820	-0.300200
O8	O	1.440119	-0.215205	-0.455406
O9	O	1.724154	-0.452777	-0.470532
O10	O	1.569208	-0.215173	-0.584465
O11	O	1.431342	-0.350410	-0.293680
O12	O	1.261073	-0.350354	-0.463984
O13	O	1.424875	-0.452678	-0.769874
O14	O	1.254502	-0.452721	-0.599541
O15	O	1.560535	-0.350278	-0.763375
O16	O	1.545108	-0.587925	-0.479110
O17	O	1.416098	-0.587883	-0.608147
C18	C	1.219667	-0.401536	-0.531760
C19	C	1.102889	-0.401552	-0.531777
C20	C	1.044628	-0.454936	-0.602261
C21	C	0.934904	-0.454939	-0.602282
C22	C	0.941712	-0.348172	-0.461326
C23	C	1.051434	-0.348166	-0.461311
C24	C	1.478679	-0.618154	-0.545574
C25	C	1.472805	-0.710820	-0.551509
C26	C	1.462088	-0.880481	-0.562368
C27	C	1.523367	-0.921772	-0.501213
C28	C	1.517404	-1.016177	-0.507255
C29	C	1.468050	-0.786067	-0.556327
C30	C	1.766666	-0.401557	-0.531804
C31	C	1.883442	-0.401562	-0.531814
C32	C	1.492717	-0.401466	-0.805810
C33	C	1.492753	-0.401432	-0.922585
C34	C	1.506671	-0.184093	-0.517959
C35	C	1.512653	-0.091427	-0.512068
C36	C	1.563397	-0.348104	-0.974064
C37	C	1.563417	-0.348068	-1.083786
C38	C	1.422146	-0.454696	-1.090540
C39	C	1.422122	-0.454727	-0.980820
C40	C	1.492614	-0.401566	-0.258816
C41	C	1.492797	-0.401365	-0.142027
H42	H	1.086519	-0.498404	-0.659642
C43	C	1.641128	-0.289407	-1.140413
C44	C	1.718814	-0.230787	-1.076352
C45	C	1.796527	-0.172122	-1.132978
C46	C	1.796554	-0.172077	-1.253665
C47	C	1.718865	-0.230700	-1.317733
C48	C	1.641152	-0.289365	-1.261107
H49	H	1.718796	-0.230818	-0.987006
H50	H	1.854037	-0.128725	-1.085550
H51	H	1.854082	-0.128650	-1.295583
H52	H	1.718883	-0.230669	-1.407079
H53	H	1.583642	-0.332762	-1.308535
C54	C	1.344462	-0.513324	-1.154602
C55	C	1.344489	-0.513297	-1.275290
C56	C	1.266806	-0.571929	-1.339350
C57	C	1.189096	-0.630588	-1.282721
C58	C	1.189067	-0.630617	-1.162026
C59	C	1.266750	-0.571985	-1.097967
H60	H	1.402017	-0.469872	-1.317217
H61	H	1.266828	-0.571907	-1.428696
H62	H	1.131590	-0.673990	-1.330141
H63	H	1.131539	-0.674042	-1.120100
H64	H	1.266727	-0.572007	-1.008620
C65	C	1.344405	-0.513392	-0.924190
C66	C	1.225413	-0.506575	-0.938829
C67	C	1.147695	-0.565234	-0.882200
C68	C	1.188969	-0.630711	-0.810932
C69	C	1.307967	-0.637531	-0.796289
C70	C	1.385685	-0.578872	-0.852918
H71	H	1.194854	-0.458103	-0.991588
H72	H	1.059605	-0.560185	-0.893039
H73	H	1.131438	-0.674134	-0.769011
H74	H	1.338526	-0.686003	-0.743530
H75	H	1.473775	-0.583921	-0.842079
C76	C	1.600288	-0.873752	-0.424345
C77	C	1.671273	-0.921500	-0.353494
C78	C	1.748187	-0.873477	-0.276625
C79	C	1.754114	-0.777706	-0.270607
C80	C	1.683126	-0.729953	-0.341461
C81	C	1.606213	-0.777976	-0.418329
H82	H	1.666887	-0.992400	-0.357946
H83	H	1.800736	-0.908827	-0.224175
H84	H	1.811050	-0.742156	-0.213705
H85	H	1.687512	-0.659053	-0.337008
H86	H	1.553663	-0.742626	-0.470780
H87	H	1.405150	-0.916029	-0.619256
H88	H	0.887472	-0.498408	-0.659679
H89	H	1.098873	-0.304689	-0.403914
C90	C	1.641081	-0.289475	-0.910003
C91	C	1.638625	-0.194695	-0.919063
C92	C	1.716308	-0.136062	-0.855005
C93	C	1.796447	-0.172210	-0.781887
C94	C	1.798906	-0.266996	-0.772823
C95	C	1.721223	-0.325628	-0.836881
H96	H	1.579298	-0.167932	-0.973192
H97	H	1.714487	-0.065896	-0.861715
H98	H	1.853953	-0.128807	-0.734467
H99	H	1.858233	-0.293759	-0.718694
H100	H	1.723044	-0.395795	-0.830172
H101	H	0.899804	-0.304708	-0.403953
