data_functionalizedCrystal
_audit_creation_method	'MofGen! by Chris Wilmer'
_symmetry_space_group_name_H-M	'P1'
_symmetry_Int_Tables_number	1
_symmetry_cell_setting	triclinic
loop_
_symmetry_equiv_pos_as_xyz
  x,y,z
_cell_length_a	12.811445
_cell_length_b	12.837942
_cell_length_c	9.130313
_cell_angle_alpha	89.996012
_cell_angle_beta	84.565059
_cell_angle_gamma	89.412982
loop_
_atom_site_label
_atom_site_type_symbol
_atom_site_fract_x
_atom_site_fract_y
_atom_site_fract_z
O1	O	1.406645	0.139718	-0.308625
O2	O	1.102579	0.154899	-0.268243
O3	O	1.247870	-0.003624	-0.287529
O4	O	1.261354	0.298240	-0.289338
O5	O	1.247858	-0.003628	-0.043929
O6	O	1.102568	0.154895	-0.024642
O7	O	1.406633	0.139713	-0.065024
Cu8	Cu	1.254599	0.147303	-0.022591
Cu9	Cu	1.254613	0.147309	-0.310676
O10	O	1.261343	0.298236	-0.045738
C11	C	1.063384	0.154045	-0.141238
C12	C	0.946611	0.151493	-0.125729
C13	C	1.243309	-0.042266	-0.165125
C14	C	1.229722	-0.157402	-0.163323
C15	C	0.727193	0.146724	-0.362188
C16	C	0.617474	0.144327	-0.347622
C17	C	0.617454	0.144310	-0.082035
C18	C	0.727172	0.146707	-0.096600
C19	C	0.782038	0.147912	-0.236681
C20	C	0.891759	0.150302	-0.251245
C21	C	0.891736	0.150292	0.014341
C22	C	0.782018	0.147896	0.028906
C23	C	1.393052	-0.397652	-0.185045
C24	C	1.380292	-0.505834	-0.183353
C25	C	1.191442	-0.481948	-0.158257
C26	C	1.204202	-0.373767	-0.159949
C27	C	1.305011	-0.331623	-0.173341
C28	C	1.317770	-0.223440	-0.175023
C29	C	1.128921	-0.199556	-0.149938
C30	C	1.116161	-0.307738	-0.148246
C31	C	1.445828	0.140567	-0.192033
C32	C	1.562601	0.143119	-0.207551
C33	C	1.265904	0.336878	-0.168145
C34	C	1.279490	0.452014	-0.169957
N35	N	1.254597	0.147299	0.180032
N36	N	1.254622	0.147305	-0.513300
C37	C	1.318959	0.077135	0.248140
C38	C	1.318969	0.077135	0.401476
C39	C	1.190254	0.217473	0.418582
C40	C	1.190239	0.217467	0.265250
H41	H	0.936429	0.151282	-0.365306
C42	C	1.503941	-0.351292	-0.199768
N43	N	1.587464	-0.316375	-0.210860
C44	C	1.477145	-0.578463	-0.196217
N45	N	1.550099	-0.633167	-0.205906
C46	C	1.428661	-0.177084	-0.189759
N47	N	1.512186	-0.142172	-0.200866
H48	H	1.371376	0.019999	0.456925
H49	H	0.737331	0.146918	0.142956
C50	C	1.080561	-0.528326	-0.143512
N51	N	0.997045	-0.563259	-0.132397
H52	H	0.572763	0.143339	0.032012
H53	H	1.371362	0.019998	0.178759
H54	H	1.034085	-0.342066	-0.137348
C55	C	1.032069	-0.126915	-0.137062
N56	N	0.959123	-0.072200	-0.127360
H57	H	1.137856	0.274603	0.487981
H58	H	0.936403	0.151259	0.116538
C59	C	1.119485	0.294705	0.190320
N60	N	1.066213	0.352893	0.133880
H61	H	0.572823	0.143362	-0.449823
C62	C	0.787547	0.148045	-0.516276
N63	N	0.833005	0.149041	-0.632338
