data_functionalizedCrystal
_audit_creation_method	'MofGen! by Chris Wilmer'
_symmetry_space_group_name_H-M	'P1'
_symmetry_Int_Tables_number	1
_symmetry_cell_setting	triclinic
loop_
_symmetry_equiv_pos_as_xyz
  x,y,z
_cell_length_a	19.288864
_cell_length_b	12.837942
_cell_length_c	18.366186
_cell_angle_alpha	89.994829
_cell_angle_beta	89.977106
_cell_angle_gamma	88.982593
loop_
_atom_site_label
_atom_site_type_symbol
_atom_site_fract_x
_atom_site_fract_y
_atom_site_fract_z
O1	O	0.930180	0.129276	-0.060785
O2	O	0.729110	0.146715	-0.060736
O3	O	0.825187	-0.012886	-0.060755
O4	O	0.834104	0.288877	-0.060766
O5	O	0.825168	-0.012894	0.060345
O6	O	0.729092	0.146707	0.060364
O7	O	0.930162	0.129268	0.060314
Zn8	Zn	0.829624	0.137986	0.079566
Zn9	Zn	0.829648	0.137997	-0.079987
O10	O	0.834085	0.288870	0.060334
C11	C	0.703186	0.146150	-0.000179
C12	C	0.625968	0.144466	-0.000160
C13	C	0.587666	0.238113	-0.000175
C14	C	0.515111	0.236530	-0.000183
C15	C	0.480860	0.141295	-0.000191
C16	C	0.519171	0.047636	-0.000172
C17	C	0.591725	0.049221	-0.000157
C18	C	0.367493	0.066433	-0.042639
C19	C	0.294940	0.064852	-0.042659
C20	C	0.257081	0.136402	-0.000235
C21	C	0.291782	0.209552	0.042200
C22	C	0.364336	0.211137	0.042215
C23	C	0.402188	0.139566	-0.000207
C24	C	0.140106	0.228340	-0.000257
C25	C	0.067550	0.226753	-0.000261
C26	C	0.071611	0.037857	-0.000257
C27	C	0.144166	0.039446	-0.000246
C28	C	0.178409	0.134690	-0.000250
C29	C	0.822165	-0.051497	-0.000205
C30	C	0.813181	-0.166532	-0.000204
C31	C	0.921187	-0.407995	-0.000245
C32	C	0.912748	-0.516081	-0.000245
C33	C	0.787867	-0.490793	-0.000206
C34	C	0.796305	-0.382707	-0.000207
C35	C	0.862967	-0.341312	-0.000226
C36	C	0.871405	-0.233223	-0.000221
C37	C	0.746524	-0.207938	-0.000188
C38	C	0.738086	-0.316024	-0.000187
C39	C	0.956086	0.129833	-0.000243
C40	C	1.033304	0.131518	-0.000267
C41	C	0.837107	0.327480	-0.000218
C42	C	0.846091	0.442515	-0.000224
N43	N	0.829612	0.137979	0.188457
N44	N	0.829665	0.137996	-0.188879
C45	C	0.872172	0.067342	0.226549
C46	C	0.872177	0.067337	0.302777
C47	C	0.829628	0.137987	0.340910
C48	C	0.787059	0.208630	0.302809
C49	C	0.787051	0.208625	0.226583
C50	C	0.826777	0.232410	0.461668
C51	C	0.826790	0.232416	0.537893
C52	C	0.829649	0.138000	0.576018
C53	C	0.832508	0.043575	0.537908
C54	C	0.832500	0.043571	0.461681
C55	C	0.829632	0.137999	0.423565
C56	C	0.872216	0.067352	0.696764
C57	C	0.872215	0.067346	0.772994
C58	C	0.787101	0.208648	0.773024
C59	C	0.787098	0.208645	0.696796
C60	C	0.829659	0.137998	0.658671
H61	H	0.260958	0.267814	0.076746
N62	N	0.026237	0.327765	-0.000283
H63	H	-0.024922	0.312312	-0.000289
H64	H	0.038009	0.369291	0.044607
N65	N	0.975539	-0.588009	-0.000257
H66	H	0.974828	-0.633413	-0.045148
H67	H	1.019014	-0.545310	-0.000240
N68	N	0.177047	0.331060	-0.000258
H69	H	0.141770	0.390148	-0.000262
H70	H	0.207039	0.335828	0.044639
N71	N	0.683726	-0.136012	-0.000172
H72	H	0.640219	-0.178641	-0.000160
H73	H	0.684503	-0.090626	0.044723
H74	H	0.683812	-0.349743	-0.000175
H75	H	0.175352	-0.036812	-0.000238
H76	H	0.906826	0.009815	0.195510
H77	H	0.975465	-0.374291	-0.000253
N78	N	0.918081	-0.008855	0.343875
H79	H	0.945040	-0.053610	0.308155
H80	H	0.951402	0.030713	0.375479
H81	H	0.733594	-0.524517	-0.000199
N82	N	0.741142	0.284812	0.185492
H83	H	0.714185	0.329566	0.221213
H84	H	0.770752	0.330527	0.153846
H85	H	0.834827	-0.033313	0.430655
H86	H	0.834836	-0.033307	0.568947
H87	H	0.392587	0.270694	0.076769
H88	H	0.824438	0.309299	0.430634
H89	H	0.906869	0.009824	0.665722
N90	N	0.741203	0.284842	0.814145
H91	H	0.754058	0.358365	0.800867
H92	H	0.691149	0.272991	0.800884
N93	N	0.918134	-0.008827	0.814083
H94	H	0.945100	-0.053569	0.778361
H95	H	0.951450	0.030762	0.845681
N96	N	0.741171	0.284835	0.343935
H97	H	0.714206	0.329584	0.308234
H98	H	0.707854	0.245276	0.375585
H99	H	0.752445	0.266168	0.665780
H100	H	0.615542	0.315668	-0.000180
N101	N	0.823702	0.334253	0.578995
H102	H	0.821878	0.394063	0.543278
H103	H	0.780871	0.336571	0.610642
H104	H	0.483920	0.312791	-0.000193
N105	N	0.943301	-0.188574	-0.000237
H106	H	0.969135	-0.212901	-0.045137
H107	H	0.939755	-0.109990	-0.000204
N108	N	0.034681	-0.064864	-0.000257
H109	H	-0.017095	-0.051660	-0.000266
H110	H	0.048273	-0.105829	-0.045145
H111	H	0.266692	0.005293	-0.077214
H112	H	0.398312	0.008166	-0.077190
H113	H	0.622910	-0.027040	-0.000145
N114	N	0.482235	-0.055083	-0.000172
H115	H	0.430460	-0.041878	-0.000184
H116	H	0.495828	-0.096052	-0.045058
