data_functionalizedCrystal
_audit_creation_method	'MofGen! by Chris Wilmer'
_symmetry_space_group_name_H-M	'P1'
_symmetry_Int_Tables_number	1
_symmetry_cell_setting	triclinic
loop_
_symmetry_equiv_pos_as_xyz
  x,y,z
_cell_length_a	14.044220
_cell_length_b	10.540510
_cell_length_c	12.503572
_cell_angle_alpha	93.560801
_cell_angle_beta	86.164750
_cell_angle_gamma	88.851094
loop_
_atom_site_label
_atom_site_type_symbol
_atom_site_fract_x
_atom_site_fract_y
_atom_site_fract_z
O1	O	1.265169	0.299543	-0.089195
O2	O	1.598502	0.632876	0.244138
O3	O	1.931835	0.966209	0.577472
O4	O	0.989127	0.288489	-0.089223
O5	O	1.322461	0.621822	0.244111
O6	O	1.655794	0.955156	0.577444
O7	O	1.133460	0.109945	-0.089208
O8	O	1.466794	0.443279	0.244125
O9	O	1.800127	0.776612	0.577459
O10	O	1.120836	0.478086	-0.089210
O11	O	1.454169	0.811420	0.244123
O12	O	1.787502	1.144753	0.577457
O13	O	1.122606	0.123397	0.089433
O14	O	1.455939	0.456730	0.422766
O15	O	1.789273	0.790064	0.756100
O16	O	0.978273	0.301941	0.089418
O17	O	1.311606	0.635274	0.422751
O18	O	1.644939	0.968608	0.756085
O19	O	1.254314	0.312995	0.089446
O20	O	1.587648	0.646328	0.422779
O21	O	1.920981	0.979661	0.756112
Cu22	Cu	1.115302	0.308696	0.105743
Cu23	Cu	1.448636	0.642029	0.439077
Cu24	Cu	1.781969	0.975363	0.772410
Cu25	Cu	1.128139	0.292788	-0.105520
Cu26	Cu	1.461473	0.626121	0.227813
Cu27	Cu	1.794806	0.959454	0.561146
O28	O	1.109981	0.491538	0.089431
O29	O	1.443314	0.824872	0.422764
O30	O	1.776648	1.158205	0.756098
C31	C	0.948353	0.290377	0.000094
C32	C	1.281687	0.623710	0.333427
C33	C	1.615020	0.957044	0.666761
C34	C	0.843032	0.275946	0.000083
C35	C	1.176365	0.609280	0.333417
C36	C	1.509698	0.942613	0.666750
C37	C	0.650193	0.249567	0.000105
C38	C	0.983526	0.582900	0.333438
C39	C	1.316859	0.916234	0.666771
C40	C	0.593244	0.351910	0.000109
C41	C	0.926577	0.685244	0.333442
C42	C	1.259911	1.018577	0.666775
C43	C	0.485942	0.337232	0.000121
C44	C	0.819275	0.670566	0.333454
C45	C	1.152608	1.003899	0.666787
C46	C	0.757505	0.264243	0.000093
C47	C	1.090838	0.597576	0.333426
C48	C	1.424172	0.930910	0.666760
C49	C	1.127093	0.069272	0.000110
C50	C	1.460426	0.402606	0.333444
C51	C	1.793759	0.735939	0.666777
C52	C	1.124278	-0.071963	0.000103
C53	C	1.457612	0.261371	0.333437
C54	C	1.790945	0.594704	0.666770
C55	C	1.224521	-0.279250	0.000523
C56	C	1.557854	0.054084	0.333856
C57	C	1.891188	0.387417	0.667189
C58	C	1.227548	-0.132381	0.000115
C59	C	1.560882	0.200952	0.333448
C60	C	1.894215	0.534285	0.666781
C61	C	1.077612	-0.129748	-0.101912
C62	C	1.410946	0.203585	0.231421
C63	C	1.744279	0.536919	0.564754
C64	C	1.075346	-0.276744	-0.101992
C65	C	1.408679	0.056589	0.231341
C66	C	1.742013	0.389922	0.564674
C67	C	1.060852	-0.261473	0.101155
C68	C	1.394185	0.071860	0.434489
C69	C	1.727518	0.405193	0.767822
C70	C	1.065668	-0.114536	0.102499
C71	C	1.399002	0.218798	0.435832
C72	C	1.732335	0.552131	0.769165
C73	C	1.295088	0.311106	0.000127
C74	C	1.628422	0.644440	0.333460
C75	C	1.961755	0.977773	0.666793
C76	C	1.400410	0.325537	0.000130
C77	C	1.733744	0.658870	0.333464
C78	C	2.067077	0.992203	0.666797
C79	C	1.116349	0.532211	0.000110
C80	C	1.449683	0.865544	0.333444
C81	C	1.783016	1.198878	0.666777
C82	C	1.119164	0.673446	0.000110
C83	C	1.452497	1.006779	0.333443
C84	C	1.785831	1.340112	0.666777
N85	N	1.106281	0.319885	0.254335
N86	N	1.439614	0.653218	0.587668
N87	N	1.772947	0.986552	0.921001
N88	N	1.137168	0.281589	-0.254112
N89	N	1.470502	0.614923	0.079222
N90	N	1.803835	0.948256	0.412555
C91	C	1.093009	0.336355	0.473448
C92	C	1.426343	0.669689	0.806782
C93	C	1.759676	1.003022	1.140115
C94	C	1.150437	0.265123	0.526781
C95	C	1.483770	0.598456	0.860115
C96	C	1.817103	0.931790	1.193448
C97	C	1.143052	0.274287	0.648704
C98	C	1.476386	0.607620	0.982037
C99	C	1.809719	0.940954	1.315371
C100	C	1.100392	0.327192	0.351515
C101	C	1.433726	0.660526	0.684848
C102	C	1.767059	0.993859	1.018182
H103	H	0.625075	0.450552	0.000103
H104	H	0.958408	0.783886	0.333436
H105	H	1.291742	1.117219	0.666770
Br106	Br	1.001826	0.449468	0.549956
Br107	Br	1.335159	0.782801	0.883290
Br108	Br	1.668492	1.116135	1.216623
H109	H	0.983274	-0.291411	0.101835
H110	H	1.316607	0.041922	0.435168
H111	H	1.649941	0.375256	0.768502
Br112	Br	1.289054	-0.067314	0.122019
Br113	Br	1.622388	0.266020	0.455352
Br114	Br	1.955721	0.599353	0.788686
Br115	Br	0.939376	-0.044692	0.112758
Br116	Br	1.272710	0.288642	0.446091
Br117	Br	1.606043	0.621975	0.779424
Br118	Br	0.597142	0.085165	0.000111
Br119	Br	0.930475	0.418498	0.333444
Br120	Br	1.263808	0.751832	0.666778
H121	H	1.205148	0.197257	0.480874
H122	H	1.538482	0.530591	0.814208
H123	H	1.871815	0.863924	1.147541
H124	H	1.260309	-0.311628	0.073684
H125	H	1.593642	0.021705	0.407017
H126	H	1.926976	0.355039	0.740350
H127	H	1.268942	-0.324189	-0.072216
H128	H	1.602275	0.009145	0.261117
H129	H	1.935609	0.342478	0.594450
Br130	Br	1.304306	-0.087208	-0.121971
Br131	Br	1.637640	0.246126	0.211363
Br132	Br	1.970973	0.579459	0.544696
H133	H	1.116107	-0.319049	-0.178243
H134	H	1.449440	0.014284	0.155090
H135	H	1.782774	0.347618	0.488423
Br136	Br	0.947082	-0.328678	-0.109728
Br137	Br	1.280415	0.004656	0.223605
Br138	Br	1.613749	0.337989	0.556939
Br139	Br	0.951282	-0.064052	-0.108258
Br140	Br	1.284616	0.269282	0.225075
Br141	Br	1.617949	0.602615	0.558408
Br142	Br	1.107348	-0.317123	0.230033
Br143	Br	1.440681	0.016211	0.563367
Br144	Br	1.774015	0.349544	0.896700
Br145	Br	1.122129	-0.050885	0.228293
Br146	Br	1.455462	0.282448	0.561626
Br147	Br	1.788796	0.615782	0.894960
Br148	Br	1.146489	-0.081669	-0.228443
Br149	Br	1.479822	0.251664	0.104891
Br150	Br	1.813156	0.584998	0.438224
