data_functionalizedCrystal
_audit_creation_method	'MofGen! by Chris Wilmer'
_symmetry_space_group_name_H-M	'P1'
_symmetry_Int_Tables_number	1
_symmetry_cell_setting	triclinic
loop_
_symmetry_equiv_pos_as_xyz
  x,y,z
_cell_length_a	10.489711
_cell_length_b	14.044220
_cell_length_c	12.503572
_cell_angle_alpha	86.156832
_cell_angle_beta	86.444559
_cell_angle_gamma	91.142057
loop_
_atom_site_label
_atom_site_type_symbol
_atom_site_fract_x
_atom_site_fract_y
_atom_site_fract_z
O1	O	1.714376	-0.128260	-0.089363
O2	O	1.344452	-0.140852	-0.089357
O3	O	1.523861	0.003466	-0.089349
O4	O	1.534968	-0.272577	-0.089371
O5	O	1.510370	-0.007406	0.089292
O6	O	1.330962	-0.151724	0.089284
O7	O	1.700886	-0.139131	0.089278
Cu8	Cu	1.514692	-0.146420	0.105593
Cu9	Cu	1.530646	-0.133563	-0.105672
O10	O	1.521477	-0.283449	0.089270
C11	C	1.290079	-0.145343	-0.000036
C12	C	1.148161	-0.142515	-0.000033
C13	C	0.974578	-0.229303	-0.000052
C14	C	1.068978	-0.180591	-0.088126
C15	C	1.055648	-0.191286	0.088000
C16	C	0.989714	-0.088712	-0.088203
C17	C	0.976370	-0.099425	0.088003
C18	C	1.070737	-0.050645	-0.000093
C19	C	1.512255	0.033377	-0.000028
C20	C	1.497755	0.138701	-0.000027
C21	C	1.755259	-0.134640	-0.000046
C22	C	1.897178	-0.137467	-0.000055
C23	C	1.533084	-0.313360	-0.000053
C24	C	1.547584	-0.418683	-0.000062
N25	N	1.503480	-0.155462	0.254184
C26	C	1.471247	0.331542	-0.000042
C27	C	1.574086	0.388481	-0.000047
C28	C	1.559337	0.495785	-0.000055
C29	C	1.485994	0.224228	-0.000033
N30	N	1.541867	-0.124513	-0.254263
C31	C	1.486987	-0.168772	0.473299
C32	C	1.558356	-0.111207	0.526629
C33	C	1.549179	-0.118612	0.648552
C34	C	1.496163	-0.161368	0.351365
H35	H	1.109537	-0.214919	-0.162590
O36	O	1.353092	0.369671	0.000012
C37	C	1.364488	0.469874	-0.000020
H38	H	1.458959	0.490260	0.033788
H39	H	1.361693	0.502678	-0.085724
C40	C	1.137067	0.482441	0.028522
C41	C	1.253093	0.507479	0.070055
H42	H	1.068350	0.505640	0.071744
H43	H	1.129388	0.414933	0.028540
H44	H	1.134755	0.509780	-0.042897
H45	H	1.255409	0.480131	0.141467
H46	H	1.260770	0.574984	0.070051
H47	H	0.932551	-0.304779	-0.000145
H48	H	0.960598	-0.045354	-0.162750
O49	O	0.927458	-0.058582	0.176722
C50	C	0.860695	0.023726	0.145149
H51	H	0.897853	0.051607	0.061022
H52	H	0.754414	0.005146	0.145016
C53	C	0.835503	0.066828	0.327806
C54	C	0.881149	0.101077	0.224483
H55	H	0.848114	0.114541	0.376745
H56	H	0.880478	0.011374	0.349079
H57	H	0.746938	0.051345	0.327681
H58	H	0.969714	0.116548	0.224607
H59	H	0.836188	0.156535	0.203212
H60	H	1.084923	-0.234691	0.162461
O61	O	1.120575	0.039513	-0.000328
C62	C	1.087035	0.093225	-0.093299
H63	H	1.064793	0.042929	-0.157920
H64	H	0.999228	0.136736	-0.073125
C65	C	1.226375	0.222839	-0.055446
C66	C	1.199067	0.161064	-0.134818
H67	H	1.295478	0.264688	-0.081056
H68	H	1.248969	0.186653	0.007193
H69	H	1.153193	0.259088	-0.038642
H70	H	1.272243	0.124808	-0.151611
H71	H	1.176489	0.197245	-0.197461
O72	O	1.405807	-0.234080	0.528179
C73	C	1.316319	-0.186716	0.593228
H74	H	1.357303	-0.113793	0.609931
H75	H	1.224423	-0.177140	0.549986
C76	C	1.237002	-0.335984	0.679618
C77	C	1.287344	-0.246422	0.700140
H78	H	1.219123	-0.372814	0.745564
H79	H	1.297289	-0.367895	0.635790
H80	H	1.160428	-0.327991	0.643581
H81	H	1.363924	-0.254415	0.736164
H82	H	1.227069	-0.214513	0.743976
H83	H	1.626349	-0.056362	0.480719
H84	H	1.673211	0.356646	-0.000120
