data_functionalizedCrystal
_audit_creation_method	'MofGen! by Chris Wilmer'
_symmetry_space_group_name_H-M	'P1'
_symmetry_Int_Tables_number	1
_symmetry_cell_setting	triclinic
loop_
_symmetry_equiv_pos_as_xyz
  x,y,z
_cell_length_a	11.792241
_cell_length_b	11.792241
_cell_length_c	17.766277
_cell_angle_alpha	89.993523
_cell_angle_beta	89.994854
_cell_angle_gamma	84.193416
loop_
_atom_site_label
_atom_site_type_symbol
_atom_site_fract_x
_atom_site_fract_y
_atom_site_fract_z
O1	O	1.506917	0.155570	-0.062521
O2	O	1.176575	0.171603	-0.062539
O3	O	1.349762	-0.001584	-0.062525
O4	O	1.333730	0.328757	-0.062536
O5	O	1.349732	-0.001594	0.062664
O6	O	1.176545	0.171593	0.062650
O7	O	1.506886	0.155561	0.062667
Cu8	Cu	1.341713	0.163576	0.074089
Cu9	Cu	1.341749	0.163587	-0.073961
O10	O	1.333699	0.328748	0.062653
C11	C	1.134269	0.170591	0.000053
C12	C	1.008255	0.167576	0.000046
C13	C	0.777543	0.162034	0.000068
C14	C	0.905928	0.165113	0.000056
C15	C	1.348740	-0.043880	0.000069
C16	C	1.345726	-0.169894	0.000069
C17	C	1.340183	-0.400606	0.000056
C18	C	1.343262	-0.272221	0.000063
C19	C	1.549192	0.156572	0.000073
C20	C	1.675206	0.159587	0.000075
C21	C	1.334721	0.371043	0.000057
C22	C	1.337736	0.497057	0.000053
N23	N	1.341695	0.163568	0.178219
N24	N	1.341775	0.163586	-0.178091
C25	C	1.418408	0.086919	0.217613
C26	C	1.418414	0.086914	0.296414
C27	C	1.341719	0.163577	0.335820
C28	C	1.264992	0.240232	0.296417
C29	C	1.264980	0.240227	0.217617
C30	C	1.327484	0.266856	0.460654
C31	C	1.327504	0.266862	0.539453
C32	C	1.341750	0.163591	0.578866
C33	C	1.356000	0.060310	0.539471
C34	C	1.355988	0.060305	0.460671
C35	C	1.341723	0.163590	0.421266
C36	C	1.418473	0.086930	0.703706
C37	C	1.418472	0.086923	0.782509
C38	C	1.265056	0.240252	0.782510
C39	C	1.265052	0.240248	0.703708
C40	C	1.341766	0.163589	0.664311
H41	H	1.480871	0.024496	0.185538
H42	H	1.202510	0.302645	0.185542
C43	C	1.502847	0.002579	0.825841
N44	N	1.566395	-0.060956	0.858480
C45	C	1.502819	0.002602	0.339756
N46	N	1.566397	-0.060898	0.372398
H47	H	1.202544	0.302651	0.328505
C48	C	1.180743	0.324652	0.660374
N49	N	1.117264	0.388255	0.627735
H50	H	1.315863	0.350957	0.428570
H51	H	1.315908	0.350960	0.571522
H52	H	1.367600	-0.023783	0.571560
C53	C	1.502850	0.002593	0.660366
N54	N	1.566401	-0.060932	0.627724
C55	C	1.180691	0.324584	0.825851
N56	N	1.117144	0.388105	0.858500
C57	C	1.371647	-0.053302	0.417340
N58	N	1.383436	-0.138873	0.384702
