data_functionalizedCrystal
_audit_creation_method	'MofGen! by Chris Wilmer'
_symmetry_space_group_name_H-M	'P1'
_symmetry_Int_Tables_number	1
_symmetry_cell_setting	triclinic
loop_
_symmetry_equiv_pos_as_xyz
  x,y,z
_cell_length_a	16.109302
_cell_length_b	11.792241
_cell_length_c	14.586319
_cell_angle_alpha	89.996059
_cell_angle_beta	89.994552
_cell_angle_gamma	83.827598
loop_
_atom_site_label
_atom_site_type_symbol
_atom_site_fract_x
_atom_site_fract_y
_atom_site_fract_z
O1	O	1.103817	0.145889	-0.076282
O2	O	1.603817	0.645889	0.423718
O3	O	0.861841	0.164044	-0.076275
O4	O	1.361841	0.664044	0.423725
O5	O	0.988701	-0.010256	-0.076272
O6	O	1.488701	0.489744	0.423728
O7	O	0.976957	0.320188	-0.076285
O8	O	1.476957	0.820188	0.423715
O9	O	0.988692	-0.010258	0.076209
O10	O	1.488692	0.489742	0.576209
O11	O	0.861832	0.164041	0.076206
O12	O	1.361832	0.664041	0.576206
O13	O	1.103808	0.145887	0.076199
O14	O	1.603808	0.645887	0.576199
Cu15	Cu	0.982819	0.154964	0.090125
Cu16	Cu	1.482819	0.654964	0.590125
Cu17	Cu	0.982830	0.154967	-0.090201
Cu18	Cu	1.482830	0.654967	0.409799
O19	O	0.976948	0.320186	0.076196
O20	O	1.476948	0.820186	0.576196
C21	C	0.830858	0.163307	-0.000033
C22	C	1.330858	0.663307	0.499967
C23	C	0.738552	0.161102	-0.000030
C24	C	1.238552	0.661102	0.499970
C25	C	0.526182	0.156001	0.083078
C26	C	1.026182	0.656001	0.583078
C27	C	0.439453	0.153917	0.083075
C28	C	0.939453	0.653917	0.583075
C29	C	0.439473	0.153926	-0.083168
C30	C	0.939473	0.653926	0.416832
C31	C	0.526202	0.156002	-0.083164
C32	C	1.026202	0.656002	0.416836
C33	C	0.569554	0.157045	-0.000038
C34	C	1.069554	0.657045	0.499962
C35	C	0.396095	0.152885	-0.000046
C36	C	0.896095	0.652885	0.499954
C37	C	0.302059	0.150625	-0.000050
C38	C	0.802059	0.650625	0.499950
C39	C	0.663596	0.159303	-0.000034
C40	C	1.163596	0.659303	0.499966
C41	C	0.987959	-0.052541	-0.000032
C42	C	1.487959	0.447459	0.499968
C43	C	0.985751	-0.178536	-0.000033
C44	C	1.485751	0.321464	0.499967
C45	C	0.981690	-0.409212	-0.000048
C46	C	1.481690	0.090788	0.499952
C47	C	0.983946	-0.280847	-0.000040
C48	C	1.483946	0.219153	0.499960
C49	C	1.134791	0.146623	-0.000044
C50	C	1.634791	0.646623	0.499956
C51	C	1.227097	0.148829	-0.000053
C52	C	1.727097	0.648829	0.499947
C53	C	0.977690	0.362472	-0.000046
C54	C	1.477690	0.862472	0.499954
C55	C	0.979898	0.488466	-0.000051
C56	C	1.479898	0.988466	0.499949
N57	N	0.982818	0.154961	0.216957
N58	N	1.482818	0.654961	0.716957
N59	N	0.982837	0.154960	-0.217033
N60	N	1.482837	0.654960	0.282967
C61	C	1.039010	0.077807	0.451965
C62	C	1.539010	0.577807	0.951965
C63	C	1.039013	0.077804	0.547946
C64	C	1.539013	0.577804	1.047946
C65	C	0.926639	0.232118	0.547953
C66	C	1.426639	0.732118	1.047953
C67	C	0.926633	0.232114	0.451973
C68	C	1.426633	0.732114	0.951973
C69	C	0.982824	0.154960	0.403982
C70	C	1.482824	0.654960	0.903982
C71	C	0.982832	0.154961	0.595942
C72	C	1.482832	0.654961	1.095942
C73	C	0.982834	0.154959	0.700010
C74	C	1.482834	0.654959	1.200010
C75	C	0.982821	0.154961	0.299908
C76	C	1.482821	0.654961	0.799908
H77	H	0.404165	0.153077	-0.150846
H78	H	0.904165	0.653077	0.349154
C79	C	0.864858	0.317045	0.399189
C80	C	1.364858	0.817045	0.899189
N81	N	0.818343	0.381029	0.359432
N82	N	1.318343	0.881029	0.859432
H83	H	0.561516	0.156849	-0.150851
H84	H	1.061516	0.656849	0.349149
H85	H	0.561477	0.156851	0.150764
H86	H	1.061477	0.656851	0.650764
C87	C	1.100815	-0.007074	0.399177
C88	C	1.600815	0.492926	0.899177
N89	N	1.147365	-0.071012	0.359420
N90	N	1.647365	0.428988	0.859420
C91	C	1.100816	-0.007080	0.600723
C92	C	1.600816	0.492920	1.100723
N93	N	1.147366	-0.071022	0.640474
N94	N	1.647366	0.428978	1.140474
H95	H	0.880891	0.294937	0.587037
H96	H	1.380891	0.794937	1.087037
H97	H	0.404143	0.153067	0.150756
H98	H	0.904143	0.653067	0.650756
