data_functionalizedCrystal
_audit_creation_method	'MofGen! by Chris Wilmer'
_symmetry_space_group_name_H-M	'P1'
_symmetry_Int_Tables_number	1
_symmetry_cell_setting	triclinic
loop_
_symmetry_equiv_pos_as_xyz
  x,y,z
_cell_length_a	15.995350
_cell_length_b	14.044220
_cell_length_c	13.101039
_cell_angle_alpha	93.667477
_cell_angle_beta	86.645958
_cell_angle_gamma	88.340626
loop_
_atom_site_label
_atom_site_type_symbol
_atom_site_fract_x
_atom_site_fract_y
_atom_site_fract_z
O1	O	1.124322	0.116953	-0.085130
O2	O	0.881675	0.132040	-0.085151
O3	O	0.999356	-0.013487	-0.085130
O4	O	1.006641	0.262481	-0.085150
O5	O	0.990914	-0.003029	0.085298
O6	O	0.873233	0.142498	0.085277
O7	O	1.115880	0.127412	0.085299
Zn8	Zn	0.993216	0.136616	0.112347
Zn9	Zn	1.004339	0.122836	-0.112199
O10	O	0.998199	0.272939	0.085278
C11	C	0.991946	-0.043573	0.000084
C12	C	0.982435	-0.148798	0.000084
C13	C	0.846213	0.136645	0.000061
C14	C	0.753123	0.134775	0.000053
C15	C	0.965048	-0.341461	0.000068
C16	C	1.032504	-0.399094	0.000071
C17	C	1.022829	-0.506298	0.000062
C18	C	0.974721	-0.234247	0.000077
C19	C	0.414873	0.128060	0.000075
C20	C	0.454547	0.024441	0.000462
C21	C	0.551396	0.026288	0.000071
C22	C	0.582683	0.131391	0.000064
C23	C	0.550234	0.176539	-0.097258
C24	C	0.453408	0.173930	-0.097332
C25	C	0.443629	0.187965	0.096477
C26	C	0.540509	0.188019	0.097756
C27	C	0.677522	0.133278	0.000055
C28	C	0.320034	0.126176	0.000077
C29	C	1.151342	0.122807	0.000085
C30	C	1.244432	0.124677	0.000086
C31	C	1.005609	0.303024	0.000062
C32	C	1.015120	0.408250	0.000055
N33	N	0.985631	0.146020	0.265595
N34	N	1.011930	0.113425	-0.265447
C35	C	0.975312	0.158822	0.474635
C36	C	1.022247	0.100625	0.525519
C37	C	1.016505	0.107749	0.641837
C38	C	0.981052	0.151700	0.358307
H39	H	1.097524	-0.367926	0.000008
H40	H	1.066742	0.045452	0.481725
C41	C	0.407534	0.148311	0.196131
H42	H	0.374588	0.094842	0.179874
H43	H	0.373597	0.196381	0.234125
H44	H	0.452155	0.129222	0.235866
H45	H	0.900036	-0.372630	0.000060
H46	H	0.930821	0.213994	0.518425
H47	H	0.573368	-0.009614	0.069836
H48	H	0.417542	0.264420	0.097130
C49	C	0.420670	-0.025742	0.094744
H50	H	0.382022	0.016044	0.134715
H51	H	0.465845	-0.042340	0.134816
H52	H	0.393224	-0.081886	0.072864
C53	C	0.428564	-0.037031	-0.093288
H54	H	0.452798	-0.099519	-0.092463
H55	H	0.447602	-0.009125	-0.154235
H56	H	0.369256	-0.040383	-0.090993
C57	C	0.589630	-0.034144	-0.094337
H58	H	0.545964	-0.059912	-0.132605
H59	H	0.623654	-0.084685	-0.072637
H60	H	0.622852	0.004893	-0.136028
C61	C	0.429777	0.117533	-0.195598
H62	H	0.479326	0.096425	-0.235095
H63	H	0.396893	0.157493	-0.234510
H64	H	0.398545	0.063871	-0.177810
H65	H	0.427062	0.249752	-0.101754
H66	H	0.561472	0.155120	0.169754
H67	H	0.570306	0.253533	-0.100882
H68	H	0.579544	0.136588	-0.169683
C69	C	0.568601	0.292048	0.105695
H70	H	0.606582	0.302354	0.049278
H71	H	0.595475	0.303881	0.167809
H72	H	0.521072	0.334091	0.104871
