data_functionalizedCrystal
_audit_creation_method	'MofGen! by Chris Wilmer'
_symmetry_space_group_name_H-M	'P1'
_symmetry_Int_Tables_number	1
_symmetry_cell_setting	triclinic
loop_
_symmetry_equiv_pos_as_xyz
  x,y,z
_cell_length_a	29.839135
_cell_length_b	14.908520
_cell_length_c	14.908308
_cell_angle_alpha	96.360765
_cell_angle_beta	93.274633
_cell_angle_gamma	93.323431
loop_
_atom_site_label
_atom_site_type_symbol
_atom_site_fract_x
_atom_site_fract_y
_atom_site_fract_z
Zn1	Zn	0.660296	-0.389822	-0.532645
Zn2	Zn	1.160296	0.110178	-0.032645
Zn3	Zn	0.660245	-0.532467	-0.390016
Zn4	Zn	1.160245	-0.032467	0.109984
Zn5	Zn	0.589770	-0.381130	-0.381295
Zn6	Zn	1.089770	0.118870	0.118705
Zn7	Zn	0.580553	-0.541146	-0.541315
Zn8	Zn	1.080553	-0.041146	-0.041315
O9	O	0.622716	-0.461141	-0.461318
O10	O	1.122716	0.038859	0.038682
O11	O	0.723155	-0.408749	-0.513747
O12	O	1.223155	0.091251	-0.013747
O13	O	0.654732	-0.505122	-0.262199
O14	O	1.154732	-0.005122	0.237801
O15	O	0.603004	-0.255618	-0.394094
O16	O	1.103004	0.244382	0.105906
O17	O	0.723118	-0.513550	-0.408957
O18	O	1.223118	-0.013550	0.091043
O19	O	0.654819	-0.262004	-0.505290
O20	O	1.154819	0.237996	-0.005290
O21	O	0.602954	-0.393935	-0.255792
O22	O	1.102954	0.106065	0.244208
O23	O	0.525681	-0.402351	-0.402501
O24	O	1.025681	0.097649	0.097499
O25	O	0.587295	-0.528343	-0.666825
O26	O	1.087295	-0.028343	-0.166825
O27	O	0.518910	-0.519914	-0.520067
O28	O	1.018910	-0.019914	-0.020067
O29	O	0.645882	-0.417165	-0.660456
O30	O	1.145882	0.082835	-0.160456
O31	O	0.645795	-0.660283	-0.417364
O32	O	1.145795	-0.160283	0.082636
O33	O	0.587246	-0.666660	-0.528523
O34	O	1.087246	-0.166660	-0.028523
C35	C	0.615526	-0.696316	-0.474851
C36	C	1.115526	-0.196316	0.025149
C37	C	0.612491	-0.796926	-0.480670
C38	C	1.112491	-0.296926	0.019330
C39	C	0.505995	-0.461132	-0.461279
C40	C	1.005995	0.038868	0.038721
C41	C	0.456060	-0.461151	-0.461285
C42	C	0.956060	0.038849	0.038715
C43	C	0.667810	-0.979288	-0.375949
C44	C	1.167810	-0.479288	0.124051
C45	C	0.664959	-1.073820	-0.381414
C46	C	1.164959	-0.573820	0.118586
C47	C	0.603942	-1.080524	-0.497069
C48	C	1.103942	-0.580524	0.002931
C49	C	0.606792	-0.985992	-0.491604
C50	C	1.106792	-0.485992	0.008396
C51	C	0.638727	-0.935377	-0.431041
C52	C	1.138727	-0.435377	0.068959
C53	C	0.641575	-0.840843	-0.425572
C54	C	1.141575	-0.340843	0.074428
C55	C	0.580560	-0.847549	-0.541231
C56	C	1.080560	-0.347549	-0.041231
C57	C	0.577709	-0.942082	-0.546696
C58	C	1.077709	-0.442082	-0.046696
C59	C	0.146427	-0.406664	-0.515972
C60	C	0.646427	0.093336	-0.015972
C61	C	-0.041247	-0.406672	-0.515998
C62	C	0.458753	0.093328	-0.015998
O63	O	-0.065501	-0.360322	-0.562451
O64	O	0.434499	0.139678	-0.062451
N65	N	-0.064727	-0.461144	-0.461351
N66	N	0.435273	0.038856	0.038649
C67	C	-0.041286	-0.515614	-0.406689
C68	C	0.458714	-0.015614	0.093311
O69	O	-0.065563	-0.561939	-0.360202
O70	O	0.434437	-0.061939	0.139798
C71	C	0.146388	-0.515601	-0.406659
C72	C	0.646388	-0.015601	0.093341
C73	C	0.169865	-0.461132	-0.461316
C74	C	0.669865	0.038868	0.038684
C75	C	0.169904	-0.352199	-0.570624
C76	C	0.669904	0.147801	-0.070624
C77	C	0.216820	-0.352201	-0.570621
C78	C	0.716820	0.147799	-0.070621
C79	C	0.240258	-0.406669	-0.515965
C80	C	0.740258	0.093331	-0.015965
C81	C	0.216781	-0.461134	-0.461313
C82	C	0.716781	0.038866	0.038687
C83	C	0.169829	-0.570065	-0.351993
C84	C	0.669829	-0.070065	0.148007
C85	C	0.216750	-0.570055	-0.351988
C86	C	0.716750	-0.070055	0.148012
C87	C	0.240228	-0.515586	-0.406646
C88	C	0.740228	-0.015586	0.093354
C89	C	0.287134	-0.515604	-0.406654
C90	C	0.787134	-0.015604	0.093346
N91	N	0.310614	-0.461132	-0.461301
N92	N	0.810614	0.038868	0.038699
C93	C	0.287176	-0.406664	-0.515957
C94	C	0.787176	0.093336	-0.015957
C95	C	-0.139817	-0.515618	-0.406710
C96	C	0.360183	-0.015618	0.093290
C97	C	-0.186735	-0.515623	-0.406719
C98	C	0.313265	-0.015623	0.093281
C99	C	-0.186693	-0.406679	-0.516027
C100	C	0.313307	0.093321	-0.016027
C101	C	-0.139775	-0.406680	-0.516022
C102	C	0.360225	0.093320	-0.016022
C103	C	-0.116337	-0.461146	-0.461357
C104	C	0.383663	0.038854	0.038643
C105	C	0.385702	-0.406673	-0.515946
C106	C	0.885702	0.093327	-0.015946
C107	C	0.432621	-0.406683	-0.515941
C108	C	0.932621	0.093317	-0.015941
C109	C	0.432576	-0.515623	-0.406629
C110	C	0.932576	-0.015623	0.093371
C111	C	0.385660	-0.515617	-0.406638
C112	C	0.885660	-0.015617	0.093362
C113	C	0.362225	-0.461135	-0.461299
C114	C	0.862225	0.038865	0.038701
O115	O	0.311417	-0.561922	-0.360218
O116	O	0.811417	-0.061922	0.139782
O117	O	0.311462	-0.360331	-0.562422
O118	O	0.811462	0.139669	-0.062422
C119	C	0.099511	-0.406662	-0.515975
C120	C	0.599511	0.093338	-0.015975
C121	C	0.076034	-0.461127	-0.461323
C122	C	0.576034	0.038873	0.038677
C123	C	0.099472	-0.515595	-0.406668
C124	C	0.599472	-0.015595	0.093332
C125	C	0.029116	-0.461132	-0.461332
C126	C	0.529116	0.038868	0.038668
C127	C	0.005678	-0.406664	-0.515988
C128	C	0.505678	0.093336	-0.015988
C129	C	0.029158	-0.352192	-0.570635
C130	C	0.529158	0.147808	-0.070635
C131	C	0.076073	-0.352194	-0.570631
C132	C	0.576073	0.147806	-0.070631
C133	C	0.075992	-0.570067	-0.352021
C134	C	0.575992	-0.070067	0.147979
C135	C	0.029077	-0.570061	-0.352029
C136	C	0.529077	-0.070061	0.147971
C137	C	0.005639	-0.515593	-0.406685
C138	C	0.505639	-0.015593	0.093315
C139	C	0.739893	-0.461151	-0.461358
C140	C	1.239893	0.038849	0.038642
C141	C	0.789827	-0.461155	-0.461375
C142	C	1.289827	0.038845	0.038625
C143	C	0.615566	-0.474692	-0.697400
C144	C	1.115566	0.025308	-0.197400
C145	C	0.612519	-0.480466	-0.798005
C146	C	1.112519	0.019534	-0.298005
C147	C	0.629945	-0.225050	-0.447752
C148	C	1.129945	0.274950	0.052248
C149	C	0.633026	-0.124441	-0.441971
C150	C	1.133026	0.375559	0.058029
C151	C	0.667800	-0.375527	-0.980418
C152	C	1.167800	0.124473	-0.480418
C153	C	0.664938	-0.380949	-1.074945
C154	C	1.164938	0.119051	-0.574945
C155	C	0.603934	-0.496728	-1.081586
C156	C	1.103934	0.003272	-0.581586
C157	C	0.606795	-0.491306	-0.987059
C158	C	1.106795	0.008694	-0.487059
C159	C	0.638730	-0.430704	-0.936479
C160	C	1.138730	0.069296	-0.436479
C161	C	0.641593	-0.425287	-0.841951
C162	C	1.141593	0.074713	-0.341951
C163	C	0.580586	-0.541061	-0.848593
C164	C	1.080586	-0.041061	-0.348593
C165	C	0.577725	-0.546483	-0.943119
C166	C	1.077725	-0.046483	-0.443119
C167	C	0.629866	-0.447578	-0.226150
C168	C	1.129866	0.052422	0.273850
C169	C	0.633007	-0.441549	-0.125532
C170	C	1.133007	0.058451	0.374468
H171	H	0.693810	-0.938076	-0.326630
H172	H	1.193810	-0.438076	0.173370
H173	H	0.551710	-0.983305	-0.596007
H174	H	1.051710	-0.483305	-0.096007
H175	H	0.551725	-0.595821	-0.984314
H176	H	1.051725	-0.095821	-0.484314
H177	H	0.235831	-0.614407	-0.307471
H178	H	0.735831	-0.114407	0.192529
O179	O	0.672655	-0.366544	-0.792780
O180	O	1.172655	0.133456	-0.292780
C181	C	0.701745	-0.414930	-0.741053
C182	C	1.201745	0.085070	-0.241053
H183	H	0.701482	-0.487854	-0.773637
H184	H	1.201482	0.012146	-0.273637
H185	H	0.737351	-0.382121	-0.738105
H186	H	1.237351	0.117879	-0.238105
H187	H	0.689927	-0.413941	-0.669589
H188	H	1.189927	0.086059	-0.169589
O189	O	0.698833	-0.316588	-0.931415
O190	O	1.198833	0.183412	-0.431415
C191	C	0.723888	-0.269070	-0.990469
C192	C	1.223888	0.230930	-0.490469
H193	H	0.703544	-0.269797	-1.057667
H194	H	1.203544	0.230203	-0.557667
H195	H	0.731692	-0.196187	-0.959057
H196	H	1.231692	0.303813	-0.459057
H197	H	0.756688	-0.302798	-1.002437
H198	H	1.256688	0.197202	-0.502437
H199	H	0.667577	-0.799632	-0.376256
H200	H	1.167577	-0.299632	0.123744
O201	O	0.552368	-0.804861	-0.594847
O202	O	1.052368	-0.304861	-0.094847
C203	C	0.577796	-0.753447	-0.650181
C204	C	1.077796	-0.253447	-0.150181
H205	H	0.612149	-0.782186	-0.657492
H206	H	1.112149	-0.282186	-0.157492
H207	H	0.559440	-0.756378	-0.719740
H208	H	1.059440	-0.256378	-0.219740
H209	H	0.582361	-0.680204	-0.618057
H210	H	1.082361	-0.180204	-0.118057
H211	H	0.150826	-0.307840	-0.615132
H212	H	0.650826	0.192160	-0.115132
H213	H	-0.120662	-0.362325	-0.560527
H214	H	0.379338	0.137675	-0.060527
H215	H	0.095184	-0.307839	-0.615138
H216	H	0.595184	0.192161	-0.115138
H217	H	0.095071	-0.614421	-0.307511
H218	H	0.595071	-0.114421	0.192489
H219	H	0.688609	-0.336015	-1.110717
H220	H	1.188609	0.163985	-0.610717
H221	H	0.688643	-1.109568	-0.336554
H222	H	1.188643	-0.609568	0.163446
H223	H	0.577945	-1.121752	-0.546383
H224	H	1.077945	-0.621752	-0.046383
O225	O	0.455359	-0.353684	-0.569060
O226	O	0.955359	0.146316	-0.069060
C227	C	0.424606	-0.305627	-0.617314
C228	C	0.924606	0.194373	-0.117314
H229	H	0.392379	-0.300309	-0.580061
H230	H	0.892379	0.199691	-0.080061
H231	H	0.440048	-0.234885	-0.622983
H232	H	0.940048	0.265115	-0.122983
H233	H	0.416524	-0.342823	-0.687915
H234	H	0.916524	0.157177	-0.187915
H235	H	0.010066	-0.307845	-0.615140
H236	H	0.510066	0.192155	-0.115140
H237	H	0.009965	-0.614425	-0.307523
H238	H	0.509965	-0.114425	0.192477
O239	O	0.362886	-0.353884	-0.569099
O240	O	0.862886	0.146116	-0.069099
C241	C	0.332414	-0.408861	-0.630465
C242	C	0.832414	0.091139	-0.130465
H243	H	0.324248	-0.475564	-0.602371
H244	H	0.824248	0.024436	-0.102371
H245	H	0.300184	-0.372705	-0.640551
H246	H	0.800184	0.127295	-0.140551
H247	H	0.348169	-0.422769	-0.698095
H248	H	0.848169	0.077231	-0.198095
O249	O	0.239555	-0.299195	-0.623730
O250	O	0.739555	0.200805	-0.123730
C251	C	0.208798	-0.251141	-0.671977
C252	C	0.708798	0.248859	-0.171977
H253	H	0.176570	-0.245840	-0.634726
H254	H	0.676570	0.254160	-0.134726
H255	H	0.224235	-0.180393	-0.677636
H256	H	0.724235	0.319607	-0.177636
H257	H	0.200719	-0.288330	-0.742583
H258	H	0.700719	0.211670	-0.242583
H259	H	0.577935	-0.546067	-1.122784
H260	H	1.077935	-0.046067	-0.622784
H261	H	0.556916	-0.585993	-0.812808
H262	H	1.056916	-0.085993	-0.312808
O263	O	-0.209520	-0.353894	-0.569170
O264	O	0.290480	0.146106	-0.069170
C265	C	-0.239992	-0.408869	-0.630536
C266	C	0.260008	0.091131	-0.130536
H267	H	-0.248147	-0.475583	-0.602455
H268	H	0.251853	0.024417	-0.102455
H269	H	-0.272227	-0.372724	-0.640599
H270	H	0.227773	0.127276	-0.140599
H271	H	-0.224243	-0.422754	-0.698176
H272	H	0.275757	0.077246	-0.198176
O273	O	-0.209467	-0.568566	-0.353549
O274	O	0.290533	-0.068566	0.146451
C275	C	-0.178714	-0.616651	-0.305327
C276	C	0.321286	-0.116651	0.194673
H277	H	-0.144044	-0.579387	-0.300120
H278	H	0.355956	-0.079387	0.199880
H279	H	-0.190407	-0.622104	-0.234546
H280	H	0.309593	-0.122104	0.265454
H281	H	-0.176824	-0.687343	-0.342318
H282	H	0.323176	-0.187343	0.157682
O283	O	-0.117010	-0.568589	-0.353739
O284	O	0.382990	-0.068589	0.146261
C285	C	-0.093223	-0.630101	-0.408540
C286	C	0.406777	-0.130101	0.091460
H287	H	-0.087284	-0.602218	-0.475348
H288	H	0.412716	-0.102218	0.024652
H289	H	-0.059490	-0.640068	-0.372335
H290	H	0.440510	-0.140068	0.127665
H291	H	-0.113659	-0.697754	-0.422249
H292	H	0.386341	-0.197754	0.077751
O293	O	0.147102	-0.622995	-0.298808
O294	O	0.647102	-0.122995	0.201192
C295	C	0.177859	-0.671071	-0.250584
C296	C	0.677859	-0.171071	0.249416
H297	H	0.212529	-0.633807	-0.245393
H298	H	0.712529	-0.133807	0.254607
H299	H	0.166171	-0.676512	-0.179798
H300	H	0.666171	-0.176512	0.320202
H301	H	0.179747	-0.741768	-0.287565
H302	H	0.679747	-0.241768	0.212435
H303	H	0.451668	-0.559971	-0.362132
H304	H	0.951668	-0.059971	0.137868
O305	O	0.362922	-0.568560	-0.353471
O306	O	0.862922	-0.068560	0.146529
C307	C	0.393672	-0.616657	-0.305253
C308	C	0.893672	-0.116657	0.194747
H309	H	0.428345	-0.579404	-0.300047
H310	H	0.928345	-0.079404	0.199953
H311	H	0.381979	-0.622110	-0.234473
H312	H	0.881979	-0.122110	0.265527
H313	H	0.395556	-0.687349	-0.342248
H314	H	0.895556	-0.187349	0.157752
