data_functionalizedCrystal
_audit_creation_method	'MofGen! by Chris Wilmer'
_symmetry_space_group_name_H-M	'P1'
_symmetry_Int_Tables_number	1
_symmetry_cell_setting	triclinic
loop_
_symmetry_equiv_pos_as_xyz
  x,y,z
_cell_length_a	17.699083
_cell_length_b	14.853567
_cell_length_c	16.176319
_cell_angle_alpha	89.996997
_cell_angle_beta	89.998611
_cell_angle_gamma	83.458972
loop_
_atom_site_label
_atom_site_type_symbol
_atom_site_fract_x
_atom_site_fract_y
_atom_site_fract_z
O1	O	1.004375	0.114008	-0.068624
O2	O	1.504375	0.614008	0.431376
O3	O	0.784035	0.128841	-0.068650
O4	O	1.284035	0.628841	0.431350
O5	O	0.900090	-0.009827	-0.068639
O6	O	1.400090	0.490173	0.431361
O7	O	0.888319	0.252676	-0.068635
O8	O	1.388319	0.752676	0.431365
O9	O	0.900074	-0.009836	0.068855
O10	O	1.400074	0.490164	0.568855
O11	O	0.784019	0.128832	0.068843
O12	O	1.284019	0.628832	0.568843
O13	O	1.004359	0.113999	0.068869
O14	O	1.504359	0.613999	0.568869
Cu15	Cu	0.894187	0.121415	0.081411
Cu16	Cu	1.394187	0.621415	0.581411
Cu17	Cu	0.894206	0.121425	-0.081191
Cu18	Cu	1.394206	0.621425	0.418809
O19	O	0.888303	0.252667	0.068858
O20	O	1.388303	0.752667	0.568858
C21	C	0.755828	0.128305	0.000093
C22	C	1.255828	0.628305	0.500093
C23	C	0.671806	0.126711	0.000083
C24	C	1.171806	0.626711	0.500083
C25	C	0.623396	0.208106	0.000084
C26	C	1.123396	0.708106	0.500084
C27	C	0.544449	0.206602	0.000095
C28	C	1.044449	0.706602	0.500095
C29	C	0.513913	0.123703	0.000098
C30	C	1.013913	0.623703	0.500098
C31	C	0.562329	0.042301	0.000099
C32	C	1.062329	0.542301	0.500099
C33	C	0.641275	0.043806	0.000095
C34	C	1.141275	0.543806	0.500095
C35	C	0.243950	0.036232	0.000120
C36	C	0.743950	0.536232	0.500120
C37	C	0.164999	0.034734	0.000122
C38	C	0.664999	0.534734	0.500122
C39	C	0.147125	0.199028	0.000120
C40	C	0.647125	0.699028	0.500120
C41	C	0.226070	0.200533	0.000115
C42	C	0.726070	0.700533	0.500115
C43	C	0.274479	0.119132	0.000121
C44	C	0.774479	0.619132	0.500121
C45	C	0.360083	0.120763	0.000111
C46	C	0.860083	0.620763	0.500111
C47	C	0.428311	0.122070	0.000102
C48	C	0.928311	0.622070	0.500102
C49	C	0.899549	-0.043418	0.000106
C50	C	1.399549	0.456582	0.500106
C51	C	0.897951	-0.143496	0.000098
C52	C	1.397951	0.356504	0.500098
C53	C	0.822255	-0.555751	0.000105
C54	C	1.322255	-0.055751	0.500105
C55	C	0.960131	-0.577539	0.000121
C56	C	1.460131	-0.077539	0.500121
C57	C	0.961634	-0.483511	0.000117
C58	C	1.461634	0.016489	0.500117
C59	C	0.893446	-0.425598	0.000107
C60	C	1.393446	0.074402	0.500107
C61	C	0.823756	-0.461714	0.000103
C62	C	1.323756	0.038286	0.500103
C63	C	1.031324	-0.447389	0.000129
C64	C	1.531324	0.052611	0.500129
C65	C	1.032829	-0.353355	0.000126
C66	C	1.532829	0.146645	0.500126
C67	C	0.964641	-0.295441	0.000111
C68	C	1.464641	0.204559	0.500111
C69	C	0.894947	-0.331561	0.000105
C70	C	1.394947	0.168439	0.500105
C71	C	0.826759	-0.273648	0.000096
C72	C	1.326759	0.226352	0.500096
C73	C	0.757065	-0.309767	0.000084
C74	C	1.257065	0.190233	0.500084
C75	C	0.755567	-0.403799	0.000088
C76	C	1.255567	0.096201	0.500088
C77	C	0.966139	-0.201409	0.000107
C78	C	1.466139	0.298591	0.500107
C79	C	0.828260	-0.179611	0.000094
C80	C	1.328260	0.320389	0.500094
C81	C	1.032565	0.114535	0.000125
C82	C	1.532565	0.614535	0.500125
C83	C	1.116587	0.116130	0.000129
C84	C	1.616587	0.616130	0.500129
C85	C	0.888844	0.286258	0.000112
C86	C	1.388844	0.786258	0.500112
C87	C	0.890443	0.386336	0.000114
C88	C	1.390443	0.886336	0.500114
N89	N	0.894179	0.121407	0.195776
N90	N	1.394179	0.621407	0.695776
N91	N	0.894220	0.121426	-0.195556
N92	N	1.394220	0.621426	0.304444
C93	C	0.945584	0.060030	0.239045
C94	C	1.445584	0.560030	0.739045
C95	C	0.945588	0.060029	0.325592
C96	C	1.445588	0.560029	0.825592
C97	C	0.894190	0.121410	0.368868
C98	C	1.394190	0.621410	0.868868
C99	C	0.842780	0.182790	0.325593
C100	C	1.342780	0.682790	0.825593
C101	C	0.842773	0.182786	0.239048
C102	C	1.342773	0.682786	0.739048
C103	C	0.842806	0.182807	0.674621
C104	C	1.342806	0.682807	1.174621
C105	C	0.842818	0.182808	0.761173
C106	C	1.342818	0.682808	1.261173
C107	C	0.945621	0.060050	0.761166
C108	C	1.445621	0.560050	1.261166
C109	C	0.945614	0.060046	0.674620
C110	C	1.445614	0.560046	1.174620
C111	C	0.894201	0.121422	0.631353
C112	C	1.394201	0.621422	1.131353
C113	C	0.894197	0.121422	0.537508
C114	C	1.394197	0.621422	1.037508
C115	C	0.894198	0.121416	0.462711
C116	C	1.394198	0.621416	0.962711
H117	H	0.283356	-0.030050	0.000125
H118	H	0.783356	0.469950	0.500125
C119	C	1.002127	-0.007496	0.191449
C120	C	1.502127	0.492504	0.691449
N121	N	1.044714	-0.058361	0.155602
N122	N	1.544714	0.441639	0.655602
C123	C	0.682061	-0.246051	0.000074
C124	C	1.182061	0.253949	0.500074
N125	N	0.625569	-0.198057	0.000065
N126	N	1.125569	0.301943	0.500065
H127	H	0.800927	0.232765	0.360834
H128	H	1.300927	0.732765	0.860834
H129	H	1.089579	-0.323956	0.000134
H130	H	1.589579	0.176044	0.500134
C131	C	0.786229	0.250313	0.191452
C132	C	1.286229	0.750313	0.691452
N133	N	0.743639	0.301177	0.155604
N134	N	1.243639	0.801177	0.655604
H135	H	0.537461	-0.025197	0.000114
H136	H	1.037461	0.474803	0.500114
H137	H	0.680690	-0.022475	0.000093
H138	H	1.180690	0.477525	0.500093
H139	H	0.772732	-0.132463	0.000082
H140	H	1.272732	0.367537	0.500082
H141	H	1.022883	-0.172005	0.000122
H142	H	1.522883	0.327995	0.500122
H143	H	0.987482	0.010071	0.796404
H144	H	1.487482	0.510071	1.296404
H145	H	1.086839	-0.494548	0.000145
H146	H	1.586839	0.005452	0.500145
H147	H	0.987445	0.010051	0.360821
H148	H	1.487445	0.510051	0.860821
H149	H	0.800961	0.232794	0.796407
H150	H	1.300961	0.732794	1.296407
C151	C	0.656978	0.299303	0.000082
C152	C	1.156978	0.799303	0.500082
N153	N	0.682269	0.367996	0.000084
N154	N	1.182269	0.867996	0.500084
H155	H	0.800945	0.232783	0.639400
H156	H	1.300945	0.732783	1.139400
H157	H	0.765511	-0.585163	0.000092
H158	H	1.265511	-0.085163	0.500092
H159	H	1.015647	-0.624697	0.000135
H160	H	1.515647	-0.124697	0.500135
H161	H	0.505037	0.272882	0.000095
H162	H	1.005037	0.772882	0.500095
C163	C	0.259655	0.291728	0.000117
C164	C	0.759655	0.791728	0.500117
N165	N	0.284949	0.360419	0.000123
N166	N	0.784949	0.860419	0.500123
H167	H	0.107700	0.265309	0.000120
H168	H	0.607700	0.765309	0.500120
C169	C	0.678910	-0.443537	0.000092
C170	C	1.178910	0.056463	0.500092
N171	N	0.621172	-0.473472	0.000103
N172	N	1.121172	0.026528	0.500103
C173	C	1.002154	-0.007480	0.627021
C174	C	1.502154	0.492520	1.127021
N175	N	1.044739	-0.058345	0.591171
N176	N	1.544739	0.441655	1.091171
H177	H	0.140140	-0.032777	0.000126
H178	H	0.640140	0.467223	0.500126
