data_functionalizedCrystal
_audit_creation_method	'MofGen! by Chris Wilmer'
_symmetry_space_group_name_H-M	'P1'
_symmetry_Int_Tables_number	1
_symmetry_cell_setting	triclinic
loop_
_symmetry_equiv_pos_as_xyz
  x,y,z
_cell_length_a	12.837943
_cell_length_b	12.811424
_cell_length_c	11.295483
_cell_angle_alpha	91.298793
_cell_angle_beta	94.538773
_cell_angle_gamma	89.412067
loop_
_atom_site_label
_atom_site_type_symbol
_atom_site_fract_x
_atom_site_fract_y
_atom_site_fract_z
O1	O	-1.385594	-0.264766	-0.127593
O2	O	-1.083629	-0.251374	-0.126154
O3	O	-1.241060	-0.107087	-0.110563
O4	O	-1.228164	-0.409054	-0.143185
O5	O	-1.227232	-0.119738	0.086121
O6	O	-1.069802	-0.264026	0.070530
O7	O	-1.371767	-0.277418	0.069091
Cu8	Cu	-1.219522	-0.271877	0.087769
Cu9	Cu	-1.235874	-0.256915	-0.144832
O10	O	-1.214336	-0.421705	0.053499
C11	C	-1.038041	-0.253176	-0.027325
C12	C	-0.922803	-0.239684	-0.025870
C13	C	-1.232999	-0.074494	-0.008019
C14	C	-1.229571	0.041474	0.004502
C15	C	-1.417355	-0.275616	-0.029742
C16	C	-1.532594	-0.289108	-0.031204
C17	C	-0.683780	-0.401887	-0.043376
C18	C	-0.575503	-0.389215	-0.042009
C19	C	-0.597970	-0.201667	-0.021761
C20	C	-0.706247	-0.214340	-0.023128
C21	C	-0.749147	-0.314453	-0.033938
C22	C	-0.857427	-0.327124	-0.035313
C23	C	-0.879891	-0.139578	-0.015056
C24	C	-0.771614	-0.126906	-0.013689
C25	C	-1.238186	0.273174	-0.186420
C26	C	-1.234964	0.382136	-0.174662
C27	C	-1.219899	0.368362	0.039775
C28	C	-1.223121	0.259400	0.028017
C29	C	-1.232265	0.211810	-0.085084
C30	C	-1.235494	0.102846	-0.096842
C31	C	-1.220422	0.089074	0.117595
C32	C	-1.217201	0.198036	0.129353
N33	N	-1.208027	-0.282400	0.251368
C34	C	-1.222396	0.545701	-0.049045
C35	C	-1.225823	0.429734	-0.061568
N36	N	-1.247377	-0.246384	-0.308431
C37	C	-1.330117	-0.170573	0.512741
C38	C	-1.321439	-0.178533	0.636545
C39	C	-1.181987	-0.306277	0.622781
C40	C	-1.190665	-0.298316	0.498978
C41	C	-1.264734	-0.230463	0.443962
C42	C	-1.273417	-0.222508	0.320156
C43	C	-1.133961	-0.350245	0.306395
C44	C	-1.125282	-0.358206	0.430199
H45	H	-0.892355	-0.408641	-0.044113
H46	H	-1.390434	-0.115332	0.467947
H47	H	-0.736668	-0.045397	-0.004875
C48	C	-1.044989	-0.431721	0.596759
C49	C	-1.100558	-0.380837	0.683269
H50	H	-0.994711	-0.477743	0.634106
H51	H	-1.092014	-0.470456	0.543959
H52	H	-1.010543	-0.381471	0.553555
H53	H	-1.135011	-0.431087	0.726468
H54	H	-1.053526	-0.342101	0.736090
C55	C	-1.119567	0.040918	0.296467
C56	C	-1.213922	0.021627	0.228999
H57	H	-1.115565	-0.000715	0.365245
H58	H	-1.062809	0.023926	0.250289
H59	H	-1.116346	0.112628	0.319640
H60	H	-1.217140	-0.050081	0.205819
H61	H	-1.270695	0.038613	0.275186
C62	C	-1.077849	-0.522249	0.249464
C63	C	-1.062087	-0.416087	0.230793
H64	H	-1.033484	-0.562897	0.202784
H65	H	-1.062078	-0.536686	0.331063
H66	H	-1.148676	-0.539164	0.227186
H67	H	-0.991262	-0.399171	0.253079
H68	H	-1.077851	-0.401644	0.149176
C69	C	-1.021792	-0.038526	-0.105962
C70	C	-0.951747	-0.043461	-0.004683
H71	H	-1.066155	0.020809	-0.099556
H72	H	-0.983900	-0.033072	-0.174421
H73	H	-1.062838	-0.099964	-0.112582
H74	H	-0.910696	0.017974	0.001932
H75	H	-0.989642	-0.048906	0.063795
H76	H	-1.242943	0.064100	-0.188935
H77	H	-1.333730	-0.167262	0.275364
H78	H	-1.245641	0.234425	-0.278512
H79	H	-1.064974	-0.413448	0.475007
H80	H	-0.522283	-0.460414	-0.049692
H81	H	-1.374679	-0.129764	0.692542
H82	H	-0.563013	-0.120166	-0.012863
C83	C	-0.799622	-0.518433	-0.157779
C84	C	-0.730945	-0.511926	-0.055266
H85	H	-0.828733	-0.586371	-0.165121
H86	H	-0.854043	-0.468180	-0.152339
H87	H	-0.762658	-0.505179	-0.225404
H88	H	-0.767910	-0.525174	0.012360
H89	H	-0.676516	-0.562195	-0.060697
C90	C	-1.250163	0.384800	-0.387803
C91	C	-1.241462	0.449588	-0.286053
H92	H	-1.254174	0.426445	-0.456572
H93	H	-1.190724	0.340063	-0.388126
H94	H	-1.311503	0.343966	-0.387723
H95	H	-1.180117	0.490416	-0.286129
H96	H	-1.300906	0.494343	-0.285731
H97	H	-1.212446	0.407129	0.131857
H98	H	-1.209751	0.236799	0.221437
