data_functionalizedCrystal
_audit_creation_method	'MofGen! by Chris Wilmer'
_symmetry_space_group_name_H-M	'P1'
_symmetry_Int_Tables_number	1
_symmetry_cell_setting	triclinic
loop_
_symmetry_equiv_pos_as_xyz
  x,y,z
_cell_length_a	6.817900
_cell_length_b	17.982959
_cell_length_c	11.168136
_cell_angle_alpha	94.260762
_cell_angle_beta	108.508683
_cell_angle_gamma	102.451857
loop_
_atom_site_label
_atom_site_type_symbol
_atom_site_fract_x
_atom_site_fract_y
_atom_site_fract_z
V1	V	-4.079252	-0.105424	-0.394227
O2	O	-4.070935	0.005054	-0.386179
O3	O	-4.025439	-0.209027	-0.392052
O4	O	-4.056012	-0.103808	-0.565924
O5	O	-4.040150	-0.100893	-0.211104
V6	V	-4.560321	-0.092209	-0.372260
O7	O	-4.345893	-0.134412	-0.442412
O8	O	-4.743877	-0.063221	-0.324075
O9	O	-4.390928	0.011394	-0.374435
O10	O	-4.686035	-0.202687	-0.380307
O11	O	-4.716820	-0.096740	-0.555383
O12	O	-4.360354	-0.093825	-0.200562
C13	C	-3.868309	-0.234283	-0.385968
C14	C	-3.905765	-0.318979	-0.385334
C15	C	-4.106204	-0.362651	-0.391355
C16	C	-4.141390	-0.442233	-0.390767
C17	C	-3.976129	-0.478141	-0.384150
C18	C	-3.775675	-0.434464	-0.378133
C19	C	-3.740496	-0.354884	-0.378730
C20	C	-3.917543	-0.755400	-0.375728
C21	C	-3.952736	-0.834985	-0.375128
C22	C	-4.318436	-0.842748	-0.387765
C23	C	-4.283258	-0.763168	-0.388362
C24	C	-4.082811	-0.719499	-0.382352
C25	C	-4.044662	-0.633207	-0.382991
C26	C	-4.014271	-0.564430	-0.383501
C27	C	-3.907307	-0.100064	-0.607757
C28	C	-3.969553	-0.099428	-0.748124
C29	C	-4.171094	-0.102758	-0.816833
C30	C	-4.235433	-0.102101	-0.961910
C31	C	-4.211399	0.036646	-0.380516
C32	C	-4.153183	0.121342	-0.381157
C33	C	-4.172401	-0.097571	-0.158723
C34	C	-4.089393	-0.098203	-0.018354
H35	H	-4.304606	-0.477787	-0.395671
H36	H	-3.577283	-0.319328	-0.373833
Cl37	Cl	-4.313976	-0.317517	-0.399669
H38	H	-3.818153	-0.864219	-0.369748
Cl39	Cl	-3.822820	-0.093809	-0.927180
H40	H	-3.844636	-0.096085	-0.796704
Cl41	Cl	-4.491017	-0.718029	-0.396664
H42	H	-4.296005	-0.106091	-0.768251
H43	H	-4.481654	-0.878313	-0.392661
Cl44	Cl	-4.502009	-0.106507	-1.053095
Cl45	Cl	-3.665551	-0.700510	-0.368161
Cl46	Cl	-3.567920	-0.479607	-0.369822
