data_functionalizedCrystal
_audit_creation_method	'MofGen! by Chris Wilmer'
_symmetry_space_group_name_H-M	'P1'
_symmetry_Int_Tables_number	1
_symmetry_cell_setting	triclinic
loop_
_symmetry_equiv_pos_as_xyz
  x,y,z
_cell_length_a	18.215407
_cell_length_b	21.295417
_cell_length_c	18.215399
_cell_angle_alpha	89.967848
_cell_angle_beta	89.980167
_cell_angle_gamma	90.030955
loop_
_atom_site_label
_atom_site_type_symbol
_atom_site_fract_x
_atom_site_fract_y
_atom_site_fract_z
Zn1	Zn	1.125043	-0.250608	-0.416094
Zn2	Zn	1.625043	0.249392	0.083906
Zn3	Zn	1.124940	-0.355879	-0.293019
Zn4	Zn	1.624940	0.144121	0.206981
Zn5	Zn	1.001976	-0.250629	-0.293042
Zn6	Zn	1.501976	0.249371	0.206958
Zn7	Zn	1.001930	-0.355844	-0.416044
Zn8	Zn	1.501930	0.144156	0.083956
O9	O	1.063472	-0.303240	-0.354550
O10	O	1.563472	0.196760	0.145450
O11	O	1.228014	-0.264579	-0.399780
O12	O	1.728014	0.235421	0.100220
O13	O	1.108604	-0.341941	-0.190038
O14	O	1.608604	0.158059	0.309962
O15	O	1.018364	-0.162537	-0.309396
O16	O	1.518364	0.337463	0.190604
O17	O	1.227938	-0.341921	-0.309357
O18	O	1.727938	0.158079	0.190643
O19	O	1.108781	-0.162521	-0.399802
O20	O	1.608781	0.337479	0.100198
O21	O	1.018263	-0.264614	-0.190054
O22	O	1.518263	0.235386	0.309946
O23	O	0.898985	-0.264580	-0.309347
O24	O	1.398985	0.235420	0.190653
O25	O	1.018285	-0.341861	-0.519035
O26	O	1.518285	0.158139	-0.019035
O27	O	0.898951	-0.341881	-0.399716
O28	O	1.398951	0.158119	0.100284
O29	O	1.108736	-0.264545	-0.519072
O30	O	1.608736	0.235455	-0.019072
O31	O	1.108559	-0.443964	-0.309308
O32	O	1.608559	0.056036	0.190692
O33	O	1.018184	-0.443938	-0.399694
O34	O	1.518184	0.056062	0.100306
C35	C	0.872266	-0.303229	-0.354529
C36	C	1.372266	0.196771	0.145471
C37	C	0.790467	-0.303240	-0.354537
C38	C	1.290467	0.196760	0.145463
C39	C	1.063376	-0.466792	-0.354509
C40	C	1.563376	0.033208	0.145491
C41	C	1.063402	-0.536760	-0.354516
C42	C	1.563402	-0.036760	0.145484
C43	C	0.602275	-0.343554	-0.401533
C44	C	1.102275	0.156446	0.098467
C45	C	0.525416	-0.343556	-0.401542
C46	C	1.025416	0.156444	0.098458
C47	C	0.525422	-0.262938	-0.307582
C48	C	1.025422	0.237062	0.192418
C49	C	0.602279	-0.262933	-0.307577
C50	C	1.102279	0.237067	0.192423
C51	C	0.640703	-0.303245	-0.354552
C52	C	1.140703	0.196755	0.145448
C53	C	0.486987	-0.303251	-0.354566
C54	C	0.986987	0.196749	0.145434
C55	C	0.403654	-0.303253	-0.354575
C56	C	0.903654	0.196747	0.145425
C57	C	0.724042	-0.303242	-0.354543
C58	C	1.224042	0.196758	0.145457
C59	C	1.110502	-0.569619	-0.307500
C60	C	1.610502	-0.069619	0.192500
C61	C	1.110536	-0.635361	-0.307517
C62	C	1.610536	-0.135361	0.192483
C63	C	1.063457	-0.668242	-0.354542
C64	C	1.563457	-0.168242	0.145458
C65	C	1.016354	-0.635375	-0.401566
C66	C	1.516354	-0.135375	0.098434
C67	C	1.016326	-0.569634	-0.401554
C68	C	1.516326	-0.069634	0.098446
N69	N	0.999079	-0.771508	-0.360145
N70	N	1.499079	-0.271508	0.139855
N71	N	0.999107	-0.833960	-0.360153
N72	N	1.499107	-0.333960	0.139847
C73	C	1.063540	-0.866317	-0.354584
C74	C	1.563540	-0.366317	0.145416
N75	N	1.127944	-0.833863	-0.348993
N76	N	1.627944	-0.333863	0.151007
N77	N	1.127915	-0.771406	-0.348981
N78	N	1.627915	-0.271406	0.151019
C79	C	1.063483	-0.739528	-0.354561
C80	C	1.563483	-0.239528	0.145439
C81	C	1.110681	-0.970462	-0.307584
C82	C	1.610681	-0.470462	0.192416
C83	C	1.110717	-1.036205	-0.307605
C84	C	1.610717	-0.536205	0.192395
C85	C	1.016528	-1.036218	-0.401651
C86	C	1.516528	-0.536218	0.098349
C87	C	1.016499	-0.970475	-0.401633
C88	C	1.516499	-0.470475	0.098367
C89	C	1.063575	-0.937601	-0.354595
C90	C	1.563575	-0.437601	0.145405
C91	C	1.255425	-0.303251	-0.354571
C92	C	1.755425	0.196749	0.145429
C93	C	1.337224	-0.303256	-0.354581
C94	C	1.837224	0.196744	0.145419
C95	C	1.063517	-0.303197	-0.546503
C96	C	1.563517	0.196803	-0.046503
C97	C	1.063536	-0.303178	-0.628302
C98	C	1.563536	0.196822	-0.128302
C99	C	1.063589	-0.139050	-0.354607
C100	C	1.563589	0.360950	0.145393
C101	C	1.063639	-0.069082	-0.354631
C102	C	1.563639	0.430918	0.145369
C103	C	1.110651	-0.262882	-0.816516
C104	C	1.610651	0.237118	-0.316516
C105	C	1.110660	-0.262863	-0.893375
C106	C	1.610660	0.237137	-0.393375
C107	C	1.016473	-0.343377	-0.893325
C108	C	1.516473	0.156623	-0.393325
C109	C	1.016461	-0.343392	-0.816468
C110	C	1.516461	0.156608	-0.316468
C111	C	1.063554	-0.303145	-0.778065
C112	C	1.563554	0.196855	-0.278065
C113	C	1.063575	-0.303112	-0.931781
C114	C	1.563575	0.196888	-0.431781
C115	C	1.063584	-0.303093	-1.015115
C116	C	1.563584	0.196907	-0.515115
C117	C	1.063544	-0.303164	-0.694726
C118	C	1.563544	0.196836	-0.194726
C119	C	1.063470	-0.303238	-0.163344
C120	C	1.563470	0.196762	0.336656
C121	C	1.063593	-0.303079	-0.081545
C122	C	1.563593	0.196921	0.418455
H123	H	0.494130	-0.376379	-0.439801
H124	H	0.994130	0.123621	0.060199
C125	C	0.965140	-0.533874	-0.452480
C126	C	1.465140	-0.033874	0.047520
C127	C	0.917990	-0.496185	-0.410759
C128	C	1.417990	0.003815	0.089241
C129	C	0.870832	-0.463227	-0.457646
C130	C	1.370832	0.036773	0.042354
H131	H	0.937037	-0.562798	-0.480508
H132	H	1.437037	-0.062798	0.019492
H133	H	0.993242	-0.508149	-0.484553
H134	H	1.493242	-0.008149	0.015447
H135	H	0.889890	-0.521909	-0.378699
H136	H	1.389890	-0.021909	0.121301
H137	H	0.946072	-0.467250	-0.382732
H138	H	1.446072	0.032750	0.117268
H139	H	0.898935	-0.437502	-0.489719
H140	H	1.398935	0.062498	0.010281
H141	H	0.842734	-0.492155	-0.485672
H142	H	1.342734	0.007845	0.014328
H143	H	0.838840	-0.437647	-0.429346
H144	H	1.338840	0.062353	0.070654
H145	H	0.978143	-0.943720	-0.439914
H146	H	1.478143	-0.443720	0.060086
C147	C	1.161834	-0.219250	-0.935218
C148	C	1.661834	0.280750	-0.435218
C149	C	1.208972	-0.254882	-0.979357
C150	C	1.708972	0.245118	-0.479357
C151	C	1.256116	-0.214723	-1.017921
C152	C	1.756116	0.285277	-0.517921
H153	H	1.189947	-0.195268	-0.901424
H154	H	1.689947	0.304732	-0.401424
H155	H	1.133722	-0.191825	-0.965244
H156	H	1.633722	0.308175	-0.465244
H157	H	1.237081	-0.282295	-0.949333
H158	H	1.737081	0.217705	-0.449333
H159	H	1.180879	-0.278862	-1.013165
H160	H	1.680879	0.221138	-0.513165
H161	H	1.228004	-0.187298	-1.047947
H162	H	1.728004	0.312702	-0.547947
H163	H	1.284224	-0.190743	-0.984121
H164	H	1.784224	0.309257	-0.484121
H165	H	1.288100	-0.238892	-1.047878
H166	H	1.788100	0.261108	-0.547878
H167	H	0.978133	-0.376146	-0.924602
H168	H	1.478133	0.123854	-0.424602
H169	H	0.978199	-1.062989	-0.439942
H170	H	1.478199	-0.562989	0.060058
C171	C	0.643969	-0.219244	-0.256442
C172	C	1.143969	0.280756	0.243558
C173	C	0.625254	-0.232885	-0.183598
C174	C	1.125254	0.267115	0.316402
C175	C	0.663651	-0.192658	-0.136476
C176	C	1.163651	0.307342	0.363524
H177	H	0.631433	-0.176938	-0.267204
H178	H	1.131433	0.323062	0.232796
H179	H	0.695252	-0.225020	-0.263119
H180	H	1.195252	0.274980	0.236881
H181	H	0.573982	-0.227104	-0.176923
H182	H	1.073982	0.272896	0.323077
H183	H	0.637791	-0.275183	-0.172812
H184	H	1.137791	0.224817	0.327188
H185	H	0.714935	-0.198433	-0.143153
H186	H	1.214935	0.301567	0.356847
H187	H	0.651113	-0.150354	-0.147245
H188	H	1.151113	0.349646	0.352755
H189	H	0.650964	-0.201911	-0.087046
H190	H	1.150964	0.298089	0.412954
H191	H	0.978104	-0.376179	-0.785160
H192	H	1.478104	0.123821	-0.285160
C193	C	1.161700	-0.534041	-0.256413
C194	C	1.661700	-0.034041	0.243587
C195	C	1.202971	-0.576895	-0.215257
C196	C	1.702971	-0.076895	0.284743
C197	C	1.250152	-0.544142	-0.168198
C198	C	1.750152	-0.044142	0.331802
H199	H	1.133642	-0.508432	-0.224251
H200	H	1.633642	-0.008432	0.275749
H201	H	1.193779	-0.508370	-0.284577
H202	H	1.693779	-0.008370	0.215423
H203	H	1.170897	-0.602556	-0.187096
H204	H	1.670897	-0.102556	0.312904
H205	H	1.231044	-0.602505	-0.247400
H206	H	1.731044	-0.102505	0.252600
H207	H	1.282231	-0.518471	-0.196361
H208	H	1.782231	-0.018471	0.303639
H209	H	1.222088	-0.518535	-0.136041
H210	H	1.722088	-0.018535	0.363959
H211	H	1.278165	-0.573213	-0.140273
H212	H	1.778165	-0.073213	0.359727
C213	C	0.965358	-0.671152	-0.452664
C214	C	1.465358	-0.171152	0.047336
C215	C	1.007016	-0.708847	-0.499864
C216	C	1.507016	-0.208847	0.000136
C217	C	0.960065	-0.741818	-0.546943
C218	C	1.460065	-0.241818	-0.046943
H219	H	0.937284	-0.642237	-0.480735
H220	H	1.437284	-0.142237	0.019265
H221	H	0.933330	-0.696875	-0.424507
H222	H	1.433330	-0.196875	0.075493
H223	H	1.039031	-0.683126	-0.528018
H224	H	1.539031	-0.183126	-0.028018
H225	H	1.035088	-0.737774	-0.471814
H226	H	1.535088	-0.237774	0.028186
H227	H	0.928037	-0.767541	-0.518786
H228	H	1.428037	-0.267541	-0.018786
H229	H	0.931993	-0.712898	-0.575009
H230	H	1.431993	-0.212898	-0.075009
H231	H	0.988322	-0.767402	-0.578969
H232	H	1.488322	-0.267402	-0.078969
C233	C	1.161543	-0.671120	-0.256405
C234	C	1.661543	-0.171120	0.243595
C235	C	1.119895	-0.708923	-0.209224
C236	C	1.619895	-0.208923	0.290776
C237	C	1.166852	-0.741872	-0.162127
C238	C	1.666852	-0.241872	0.337873
H239	H	1.189584	-0.642191	-0.228321
H240	H	1.689584	-0.142191	0.271679
H241	H	1.193602	-0.696767	-0.284550
H242	H	1.693602	-0.196767	0.215450
H243	H	1.087849	-0.683278	-0.181081
H244	H	1.587849	-0.183278	0.318919
H245	H	1.091856	-0.737863	-0.237288
H246	H	1.591856	-0.237863	0.262712
H247	H	1.198910	-0.767520	-0.190272
H248	H	1.698910	-0.267520	0.309728
H249	H	1.194889	-0.712939	-0.134048
H250	H	1.694889	-0.212939	0.365952
H251	H	1.138600	-0.767530	-0.130114
H252	H	1.638600	-0.267530	0.369886
H253	H	1.149015	-0.943694	-0.269285
H254	H	1.649015	-0.443694	0.230715
H255	H	1.148995	-0.230109	-0.785251
H256	H	1.648995	0.269891	-0.285251
H257	H	0.494127	-0.230118	-0.269336
H258	H	0.994127	0.269882	0.230664
C259	C	1.161886	-1.071770	-0.256476
C260	C	1.661886	-0.571770	0.243524
C261	C	1.203089	-1.028906	-0.215269
C262	C	1.703089	-0.528906	0.284731
C263	C	1.250227	-1.061646	-0.168154
C264	C	1.750227	-0.561646	0.331846
H265	H	1.194016	-1.097374	-0.284578
H266	H	1.694016	-0.597374	0.215422
H267	H	1.133778	-1.097446	-0.224354
H268	H	1.633778	-0.597446	0.275646
H269	H	1.231196	-1.003241	-0.247387
H270	H	1.731196	-0.503241	0.252613
H271	H	1.170979	-1.003301	-0.187152
H272	H	1.670979	-0.503301	0.312848
H273	H	1.222119	-1.087322	-0.136032
H274	H	1.722119	-0.587322	0.363968
H275	H	1.282352	-1.087249	-0.196262
H276	H	1.782352	-0.587249	0.303738
H277	H	1.278184	-1.032568	-0.140184
H278	H	1.778184	-0.532568	0.359816
H279	H	0.633557	-0.376377	-0.439785
H280	H	1.133557	0.123623	0.060215
