data_functionalizedCrystal
_audit_creation_method	'MofGen! by Chris Wilmer'
_symmetry_space_group_name_H-M	'P1'
_symmetry_Int_Tables_number	1
_symmetry_cell_setting	triclinic
loop_
_symmetry_equiv_pos_as_xyz
  x,y,z
_cell_length_a	19.121102
_cell_length_b	21.295417
_cell_length_c	19.120904
_cell_angle_alpha	92.408338
_cell_angle_beta	90.088173
_cell_angle_gamma	87.584620
loop_
_atom_site_label
_atom_site_type_symbol
_atom_site_fract_x
_atom_site_fract_y
_atom_site_fract_z
Zn1	Zn	1.054814	-0.307921	-0.442032
Zn2	Zn	1.059724	-0.408895	-0.324785
Zn3	Zn	0.942584	-0.298967	-0.319816
Zn4	Zn	0.937535	-0.408472	-0.436987
O5	O	0.998664	-0.356064	-0.380905
O6	O	1.153571	-0.325239	-0.430669
O7	O	1.048352	-0.390743	-0.226021
O8	O	0.957530	-0.212069	-0.336060
O9	O	1.157177	-0.399425	-0.344528
O10	O	1.039985	-0.218647	-0.425851
O11	O	0.962291	-0.309980	-0.222371
O12	O	0.843809	-0.309569	-0.331169
O13	O	0.948925	-0.398703	-0.535761
O14	O	0.840100	-0.390022	-0.417254
O15	O	1.035089	-0.324829	-0.539467
O16	O	1.043456	-0.496925	-0.339637
O17	O	0.953685	-0.496614	-0.422072
C18	C	0.816517	-0.348778	-0.373125
C19	C	0.738593	-0.345677	-0.369814
C20	C	0.700074	-0.386166	-0.413007
C21	C	0.626856	-0.383244	-0.409899
C22	C	0.592158	-0.339836	-0.363593
C23	C	0.630682	-0.299344	-0.320398
C24	C	0.703899	-0.302263	-0.323510
C25	C	0.371187	-0.328921	-0.351961
C26	C	0.297965	-0.326006	-0.348850
C27	C	0.294144	-0.409906	-0.438353
C28	C	0.367362	-0.412824	-0.441458
C29	C	0.405880	-0.372329	-0.398265
C30	C	0.517318	-0.336850	-0.360413
C31	C	0.480719	-0.375313	-0.401449
C32	C	0.998574	-0.519610	-0.380862
C33	C	0.998599	-0.589580	-0.380870
C34	C	1.045380	-0.622590	-0.337994
C35	C	1.045413	-0.688335	-0.338011
C36	C	0.998651	-0.721065	-0.380897
C37	C	0.951865	-0.688046	-0.423781
C38	C	0.951839	-0.622304	-0.423768
N39	N	0.937094	-0.822078	-0.383622
N40	N	0.937121	-0.884530	-0.383630
C41	C	0.998728	-0.919144	-0.380940
N42	N	1.060308	-0.888946	-0.378228
N43	N	1.060281	-0.826487	-0.378215
C44	C	0.998674	-0.792352	-0.380916
C45	C	1.045548	-1.023443	-0.338080
C46	C	1.045581	-1.089189	-0.338103
C47	C	0.952028	-1.088899	-0.423869
C48	C	0.952001	-1.023154	-0.423850
C49	C	0.998760	-0.990430	-0.380953
C50	C	1.181523	-0.363378	-0.388716
C51	C	1.259446	-0.366495	-0.392044
C52	C	0.990896	-0.362718	-0.563763
C53	C	0.987586	-0.365553	-0.641686
C54	C	0.998773	-0.191880	-0.380964
C55	C	0.998820	-0.121914	-0.380989
C56	C	1.030890	-0.328425	-0.680225
C57	C	1.027771	-0.331086	-0.753441
C58	C	0.981351	-0.370880	-0.788118
C59	C	0.938043	-0.408010	-0.749573
C60	C	0.941159	-0.405345	-0.676358
C61	C	0.969696	-0.380849	-1.009084
C62	C	0.966585	-0.383513	-1.082305
C63	C	1.056312	-0.306588	-1.086168
C64	C	1.059427	-0.303929	-1.012951
C65	C	1.016116	-0.341056	-0.974413
C66	C	0.978164	-0.373603	-0.862957
C67	C	1.019300	-0.338330	-0.899575
C68	C	1.006442	-0.349392	-0.198761
C69	C	1.009889	-0.346384	-0.120844
H70	H	0.602426	-0.263997	-0.282698
C71	C	0.746271	-0.257725	-0.275995
C72	C	0.798924	-0.284922	-0.223037
C73	C	0.841294	-0.240379	-0.175523
C74	C	0.831013	-0.168640	-0.180967
C75	C	0.778358	-0.141439	-0.233927
C76	C	0.735987	-0.185982	-0.281441
H77	H	0.806537	-0.338031	-0.219005
H78	H	0.880273	-0.260515	-0.136319
H79	H	0.862378	-0.135667	-0.145794
H80	H	0.770745	-0.088331	-0.237959
H81	H	0.697009	-0.165846	-0.320645
H82	H	0.913793	-0.714700	-0.458700
C83	C	0.518883	-0.423062	-0.452384
C84	C	0.505456	-0.420543	-0.531666
C85	C	0.543628	-0.468294	-0.582599
C86	C	0.595226	-0.518564	-0.554248
C87	C	0.608656	-0.521084	-0.474962
C88	C	0.570484	-0.473333	-0.424029
H89	H	0.467257	-0.383328	-0.552657
H90	H	0.533686	-0.466428	-0.641292
H91	H	0.623483	-0.553912	-0.591951
H92	H	0.646854	-0.558299	-0.453971
H93	H	0.580426	-0.475200	-0.365336
C94	C	1.097045	-1.125506	-0.290937
C95	C	1.150791	-1.173945	-0.323718
C96	C	1.202255	-1.210264	-0.276552
C97	C	1.199973	-1.198143	-0.196606
C98	C	1.146225	-1.149701	-0.163821
C99	C	1.094761	-1.113382	-0.210987
H100	H	1.152482	-1.182920	-0.382903
H101	H	1.242043	-1.246124	-0.300823
H102	H	1.238070	-1.225028	-0.161691
H103	H	1.144533	-1.140726	-0.104636
H104	H	1.054973	-1.077522	-0.186717
H105	H	0.262775	-0.442874	-0.473519
H106	H	0.489059	-0.301509	-0.322710
C107	C	0.927115	-0.417382	-0.901113
C108	C	0.955340	-0.469837	-0.952731
C109	C	0.904294	-0.513614	-0.990894
C110	C	0.825024	-0.504937	-0.977439
C111	C	0.796795	-0.452479	-0.925818
C112	C	0.847841	-0.408702	-0.887655
H113	H	1.014024	-0.476263	-0.962694
H114	H	0.925191	-0.552447	-1.029107
H115	H	0.787236	-0.537343	-1.005690
H116	H	0.738111	-0.446053	-0.915856
H117	H	0.826944	-0.369869	-0.849442
C118	C	0.405523	-0.460575	-0.492397
C119	C	0.457116	-0.510853	-0.464053
C120	C	0.495276	-0.558607	-0.514989
C121	C	0.481843	-0.556085	-0.594271
C122	C	0.430248	-0.505805	-0.622619
C123	C	0.392088	-0.458050	-0.571682
H124	H	0.467062	-0.512722	-0.405360
H125	H	0.533470	-0.595828	-0.494004
H126	H	0.510091	-0.591436	-0.631977
H127	H	0.420302	-0.503936	-0.681312
H128	H	0.353894	-0.420830	-0.592668
C129	C	1.081953	-0.284650	-0.642084
C130	C	1.139121	-0.312294	-0.594098
C131	C	1.190184	-0.268517	-0.555960
C132	C	1.184080	-0.197096	-0.565809
C133	C	1.126910	-0.169448	-0.613798
C134	C	1.075847	-0.213226	-0.651936
H135	H	1.143641	-0.365168	-0.586805
H136	H	1.232505	-0.288984	-0.520435
H137	H	1.221880	-0.164689	-0.537577
H138	H	1.122390	-0.116575	-0.621091
H139	H	1.033526	-0.192759	-0.687460
H140	H	0.913957	-1.115547	-0.458790
H141	H	1.063035	-0.300854	-0.784817
C142	C	1.096821	-0.586598	-0.290812
C143	C	1.094554	-0.592553	-0.210871
C144	C	1.145997	-0.556560	-0.163690
C145	C	1.199707	-0.514613	-0.196451
C146	C	1.201976	-0.508657	-0.276396
C147	C	1.150533	-0.544649	-0.323577
H148	H	1.054793	-0.623606	-0.186616
H149	H	1.144317	-0.560970	-0.104509
H150	H	1.237788	-0.487969	-0.161524
H151	H	1.241737	-0.477603	-0.300651
H152	H	1.152214	-0.540240	-0.382758
H153	H	1.083625	-0.996798	-0.303153
H154	H	1.091573	-0.276360	-1.117553
C155	C	0.413543	-0.284388	-0.304430
C156	C	0.403260	-0.212647	-0.309850
C157	C	0.445615	-0.168116	-0.262308
C158	C	0.498255	-0.195326	-0.209346
C159	C	0.508540	-0.267071	-0.203923
C160	C	0.466184	-0.311602	-0.251465
H161	H	0.364291	-0.192501	-0.349058
H162	H	0.438001	-0.115005	-0.266323
H163	H	0.529609	-0.162361	-0.174153
H164	H	0.547509	-0.287217	-0.164716
H165	H	0.473798	-0.364713	-0.247451
H166	H	0.913743	-0.595426	-0.458684
C167	C	1.096869	-0.724657	-0.290838
C168	C	1.148298	-0.688662	-0.243650
C169	C	1.199752	-0.724981	-0.196474
C170	C	1.199775	-0.797295	-0.196486
C171	C	1.148343	-0.833294	-0.243675
C172	C	1.096890	-0.796975	-0.290851
H173	H	1.148283	-0.635127	-0.243640
H174	H	1.237825	-0.698332	-0.161542
H175	H	1.237863	-0.824181	-0.161563
H176	H	1.148359	-0.886829	-0.243685
H177	H	1.058817	-0.823624	-0.325783
H178	H	0.269716	-0.290651	-0.311147
C179	C	0.900536	-0.986838	-0.471011
C180	C	0.849099	-1.022836	-0.518188
C181	C	0.797634	-0.986519	-0.565355
C182	C	0.797605	-0.914205	-0.565345
C183	C	0.849044	-0.878203	-0.518166
C184	C	0.900509	-0.914519	-0.471000
H185	H	0.849119	-1.076371	-0.518197
H186	H	0.759556	-1.013171	-0.600279
H187	H	0.759508	-0.887321	-0.600260
H188	H	0.849024	-0.824668	-0.518157
H189	H	0.938587	-0.887868	-0.436075
H190	H	0.900244	-0.440409	-0.777813
H191	H	1.097229	-0.271526	-0.984722
C192	C	0.915542	-0.427309	-1.120452
C193	C	0.867917	-0.468164	-1.078064
C194	C	0.816890	-0.511970	-1.116212
C195	C	0.813488	-0.514921	-1.196747
C196	C	0.861114	-0.474064	-1.239139
C197	C	0.912141	-0.430258	-1.200991
H198	H	0.870435	-0.465981	-1.018443
H199	H	0.781635	-0.542215	-1.084830
H200	H	0.775715	-0.547348	-1.224986
H201	H	0.858597	-0.476247	-1.298760
H202	H	0.947397	-0.400014	-1.232373
C203	C	0.893528	-0.446188	-0.633959
C204	C	0.813405	-0.438231	-0.640616
C205	C	0.765771	-0.479073	-0.598217
C206	C	0.798260	-0.527872	-0.549161
C207	C	0.878387	-0.535831	-0.542502
C208	C	0.926021	-0.494989	-0.584902
H209	H	0.789351	-0.402105	-0.676932
H210	H	0.706455	-0.473181	-0.603147
H211	H	0.762998	-0.558106	-0.517775
H212	H	0.902441	-0.571957	-0.506187
H213	H	0.985336	-0.500881	-0.579972
C214	C	1.070362	-0.294559	-0.861433
C215	C	1.042160	-0.242094	-0.809815
C216	C	1.093225	-0.198325	-0.771665
C217	C	1.172491	-0.207022	-0.785134
C218	C	1.200697	-0.259489	-0.836755
C219	C	1.149633	-0.303257	-0.874904
H220	H	0.983479	-0.235654	-0.799842
H221	H	1.072344	-0.159485	-0.733452
H222	H	1.210292	-0.174621	-0.756894
H223	H	1.259379	-0.265928	-0.846727
H224	H	1.170513	-0.342097	-0.913117
H225	H	0.728320	-0.421515	-0.450712
H226	H	0.595497	-0.416215	-0.445071
H227	H	0.934439	-0.411090	-0.977716
