data_functionalizedCrystal
_audit_creation_method	'MofGen! by Chris Wilmer'
_symmetry_space_group_name_H-M	'P1'
_symmetry_Int_Tables_number	1
_symmetry_cell_setting	triclinic
loop_
_symmetry_equiv_pos_as_xyz
  x,y,z
_cell_length_a	6.817900
_cell_length_b	11.102289
_cell_length_c	16.305550
_cell_angle_alpha	93.871858
_cell_angle_beta	103.455250
_cell_angle_gamma	108.605707
loop_
_atom_site_label
_atom_site_type_symbol
_atom_site_fract_x
_atom_site_fract_y
_atom_site_fract_z
V1	V	-4.052585	-0.176912	-0.263031
O2	O	-4.012740	0.007398	-0.258024
O3	O	-4.029765	-0.349724	-0.261232
O4	O	-4.003658	-0.174675	-0.377748
O5	O	-4.039028	-0.168864	-0.140702
V6	V	-4.532967	-0.154809	-0.248400
O7	O	-4.320734	-0.225396	-0.295127
O8	O	-4.715015	-0.106325	-0.216304
O9	O	-4.332580	0.018004	-0.250199
O10	O	-4.690209	-0.339118	-0.253407
O11	O	-4.663921	-0.162856	-0.370729
O12	O	-4.358687	-0.157046	-0.133683
C13	C	-3.881006	-0.391837	-0.257083
C14	C	-3.943631	-0.533117	-0.256376
C15	C	-4.156117	-0.605981	-0.260253
C16	C	-4.214952	-0.738730	-0.259597
C17	C	-3.848793	-0.725738	-0.251183
C18	C	-3.789964	-0.592993	-0.251846
C19	C	-4.367515	-0.613483	-0.265106
C20	C	-4.426350	-0.746231	-0.264450
C21	C	-3.847703	-0.168542	-0.405710
C22	C	-3.889152	-0.167857	-0.499491
C23	C	-4.039843	-0.165201	-0.840237
C24	C	-3.802622	-0.157314	-0.799308
C25	C	-3.759612	-0.158554	-0.701813
C26	C	-3.965082	-0.166518	-0.671189
C27	C	-4.150803	-0.292033	-0.721815
C28	C	-4.192560	-0.291323	-0.819365
C29	C	-4.077235	-0.048574	-0.794394
C30	C	-4.029158	-0.047581	-0.696551
C31	C	-3.922844	-0.167267	-0.575651
C32	C	-4.082092	-0.164460	-0.935776
C33	C	-4.144682	0.060110	-0.254346
C34	C	-4.061295	0.201389	-0.255058
C35	C	-4.177985	-0.163182	-0.105717
C36	C	-4.115773	-0.163861	-0.011934
H37	H	-3.616948	-0.533674	-0.248699
O38	O	-3.764086	-0.257385	-0.836957
C39	C	-3.950559	-0.334467	-0.900172
H40	H	-4.097517	-0.319559	-0.885566
H41	H	-3.938377	-0.306226	-0.965227
C42	C	-3.791697	-0.495264	-0.919018
C43	C	-3.972195	-0.476961	-0.901074
H44	H	-3.805040	-0.583161	-0.919578
H45	H	-3.666062	-0.443331	-0.876431
H46	H	-3.781564	-0.471721	-0.973229
H47	H	-3.982309	-0.500488	-0.846859
H48	H	-4.097832	-0.528902	-0.943652
O49	O	-3.695690	-0.259731	-0.682281
C50	C	-3.841312	-0.342000	-0.644283
H51	H	-3.928962	-0.285676	-0.615402
H52	H	-3.962986	-0.424513	-0.694727
C53	C	-3.609964	-0.465669	-0.609117
C54	C	-3.717604	-0.396487	-0.573639
H55	H	-3.533660	-0.499285	-0.565544
H56	H	-3.511858	-0.410246	-0.634721
H57	H	-3.711378	-0.534420	-0.651154
H58	H	-3.616188	-0.327729	-0.531612
H59	H	-3.815691	-0.451900	-0.548027
H60	H	-4.249994	-0.053235	-0.821209
O61	O	-4.165500	-0.396743	-0.855675
C62	C	-4.358554	-0.473268	-0.915756
H63	H	-4.499253	-0.451947	-0.899609
H64	H	-4.351191	-0.450503	-0.982347
C65	C	-4.216511	-0.642598	-0.933074
C66	C	-4.389322	-0.616420	-0.913238
H67	H	-4.235488	-0.730901	-0.931525
H68	H	-4.086443	-0.591041	-0.892599
H69	H	-4.210393	-0.623618	-0.988565
H70	H	-4.395420	-0.635384	-0.857744
H71	H	-4.519392	-0.667984	-0.953703
H72	H	-4.465632	-0.594512	-0.326460
H73	H	-3.682983	-0.066643	-0.811672
O74	O	-4.383291	-0.549477	-0.194186
C75	C	-4.321949	-0.416847	-0.199074
H76	H	-4.213875	-0.392861	-0.243893
H77	H	-4.471362	-0.390859	-0.224454
C78	C	-4.331839	-0.368933	-0.054539
C79	C	-4.199086	-0.339472	-0.109581
H80	H	-4.256060	-0.321203	0.000664
H81	H	-4.373174	-0.458289	-0.051247
H82	H	-4.456341	-0.347276	-0.075699
H83	H	-4.074601	-0.361144	-0.088426
H84	H	-4.157727	-0.250117	-0.112868
H85	H	-3.723691	-0.774505	-0.247496
H86	H	-4.490572	-0.770966	-0.206823
O87	O	-3.868360	0.063139	-0.655408
C88	C	-3.832040	0.065404	-0.566493
H89	H	-3.982709	-0.000462	-0.552189
H90	H	-3.692179	0.030710	-0.541321
C91	C	-3.592713	0.284616	-0.540261
C92	C	-3.777774	0.203727	-0.522692
H93	H	-3.559229	0.369940	-0.513241
H94	H	-3.617175	0.283090	-0.600164
H95	H	-3.476184	0.255689	-0.519283
H96	H	-3.894304	0.232646	-0.543678
H97	H	-3.753330	0.205262	-0.462791
H98	H	-4.544153	-0.804353	-0.326949
O99	O	-3.592824	-0.050763	-0.660124
C100	C	-3.644688	0.058889	-0.680111
H101	H	-3.773515	0.033155	-0.743524
H102	H	-3.707553	0.094122	-0.627688
C103	C	-3.284168	0.197443	-0.609211
C104	C	-3.442383	0.165838	-0.687101
H105	H	-3.159377	0.263417	-0.613519
H106	H	-3.249227	0.123569	-0.595742
H107	H	-3.336583	0.226796	-0.565533
H108	H	-3.389977	0.136471	-0.730774
H109	H	-3.477311	0.239710	-0.700577
H110	H	-4.368036	-0.302331	-0.847357
O111	O	-4.100632	-0.397443	-0.701678
C112	C	-4.257072	-0.475785	-0.666337
H113	H	-4.340529	-0.415043	-0.638997
H114	H	-4.380686	-0.555598	-0.718121
C115	C	-4.045735	-0.610201	-0.628290
C116	C	-4.148226	-0.535595	-0.594705
H117	H	-3.978598	-0.647100	-0.584107
H118	H	-3.940341	-0.557424	-0.652103
H119	H	-4.148764	-0.676702	-0.671444
H120	H	-4.045193	-0.469086	-0.551560
H121	H	-4.253600	-0.588362	-0.570883
O122	O	-3.951623	0.064908	-0.810435
C123	C	-4.082783	0.130719	-0.851603
H124	H	-4.249953	0.058947	-0.884447
H125	H	-4.095088	0.204134	-0.802479
C126	C	-3.778294	0.288539	-0.878224
C127	C	-3.983610	0.200386	-0.918570
H128	H	-3.717117	0.331518	-0.919530
H129	H	-3.689926	0.244205	-0.850486
H130	H	-3.788576	0.349706	-0.837289
H131	H	-3.973323	0.139212	-0.959496
H132	H	-4.071975	0.244712	-0.946317
H133	H	-4.305502	-0.302400	-0.702903
H134	H	-4.176213	-0.046019	-0.675203
