data_functionalizedCrystal
_audit_creation_method	'MofGen! by Chris Wilmer'
_symmetry_space_group_name_H-M	'P1'
_symmetry_Int_Tables_number	1
_symmetry_cell_setting	triclinic
loop_
_symmetry_equiv_pos_as_xyz
  x,y,z
_cell_length_a	19.288864
_cell_length_b	15.944545
_cell_length_c	18.366186
_cell_angle_alpha	89.991659
_cell_angle_beta	89.977106
_cell_angle_gamma	83.316209
loop_
_atom_site_label
_atom_site_type_symbol
_atom_site_fract_x
_atom_site_fract_y
_atom_site_fract_z
O1	O	0.921627	0.104784	-0.060787
O2	O	1.421627	0.604784	0.439213
O3	O	0.719403	0.118919	-0.060737
O4	O	1.219403	0.618919	0.439263
O5	O	0.826040	-0.010445	-0.060755
O6	O	1.326040	0.489555	0.439245
O7	O	0.814990	0.234148	-0.060769
O8	O	1.314990	0.734148	0.439231
O9	O	0.826021	-0.010451	0.060345
O10	O	1.326021	0.489549	0.560345
O11	O	0.719385	0.118913	0.060362
O12	O	1.219385	0.618913	0.560362
O13	O	0.921609	0.104778	0.060313
O14	O	1.421609	0.604778	0.560313
Zn15	Zn	0.820494	0.111844	0.079565
Zn16	Zn	1.320494	0.611844	0.579565
Zn17	Zn	0.820518	0.111852	-0.079989
Zn18	Zn	1.320518	0.611852	0.420011
O19	O	0.814972	0.234142	0.060330
O20	O	1.314972	0.734142	0.560330
C21	C	0.693516	0.118461	-0.000181
C22	C	1.193516	0.618461	0.499819
C23	C	0.616409	0.117096	-0.000162
C24	C	1.116409	0.617096	0.499838
C25	C	0.825573	-0.041740	-0.000204
C26	C	1.325573	0.458260	0.499796
C27	C	0.824200	-0.134982	-0.000202
C28	C	1.324200	0.365018	0.499798
C29	C	0.571911	0.193001	-0.000178
C30	C	1.071911	0.693001	0.499822
C31	C	0.499461	0.191718	-0.000186
C32	C	0.999461	0.691718	0.499814
C33	C	0.471512	0.114526	-0.000193
C34	C	0.971512	0.614526	0.499807
C35	C	0.516019	0.038611	-0.000172
C36	C	1.016019	0.538611	0.499828
C37	C	0.588468	0.039896	-0.000157
C38	C	1.088468	0.539896	0.499843
C39	C	0.363097	0.053847	-0.042640
C40	C	0.863097	0.553847	0.457360
C41	C	0.290649	0.052565	-0.042660
C42	C	0.790649	0.552565	0.457340
C43	C	0.248056	0.110560	-0.000236
C44	C	0.748056	0.610560	0.499764
C45	C	0.277917	0.169851	0.042197
C46	C	0.777917	0.669851	0.542197
C47	C	0.350366	0.171136	0.042213
C48	C	0.850366	0.671136	0.542213
C49	C	0.392954	0.113124	-0.000209
C50	C	0.892954	0.613124	0.499791
C51	C	0.124998	0.185079	-0.000260
C52	C	0.624998	0.685079	0.499740
C53	C	0.052547	0.183793	-0.000263
C54	C	0.552547	0.683793	0.499737
C55	C	0.069107	0.030684	-0.000257
C56	C	0.569107	0.530684	0.499743
C57	C	0.141556	0.031972	-0.000246
C58	C	0.641556	0.531972	0.499754
C59	C	0.169498	0.109172	-0.000251
C60	C	0.669498	0.609172	0.499749
C61	C	0.753999	-0.405344	-0.000199
C62	C	1.253999	0.094656	0.499801
C63	C	0.787853	-0.354886	-0.059916
C64	C	1.287853	0.145114	0.440084
C65	C	0.819304	-0.470606	-0.000221
C66	C	1.319304	0.029394	0.499779
C67	C	0.787853	-0.354919	0.059478
C68	C	1.287853	0.145081	0.559478
C69	C	0.821706	-0.305702	-0.000210
C70	C	1.321706	0.194298	0.499790
C71	C	0.853140	-0.421376	-0.059987
C72	C	1.353140	0.078624	0.440013
C73	C	0.853130	-0.421413	0.059461
C74	C	1.353130	0.078587	0.559461
C75	C	0.887032	-0.370988	-0.000271
C76	C	1.387032	0.129012	0.499729
C77	C	0.817918	-0.565603	-0.000228
C78	C	1.317918	-0.065603	0.499772
C79	C	0.823096	-0.210708	-0.000209
C80	C	1.323096	0.289292	0.499791
C81	C	0.947495	0.105236	-0.000245
C82	C	1.447495	0.605236	0.499755
C83	C	1.024603	0.106601	-0.000269
C84	C	1.524603	0.606601	0.499731
C85	C	0.815439	0.265437	-0.000222
C86	C	1.315439	0.765437	0.499778
C87	C	0.816812	0.358678	-0.000229
C88	C	1.316812	0.858678	0.499771
N89	N	0.820483	0.111838	0.188456
N90	N	1.320483	0.611838	0.688456
N91	N	0.820535	0.111852	-0.188880
N92	N	1.320535	0.611852	0.311120
C93	C	0.867717	0.054584	0.226548
C94	C	1.367717	0.554584	0.726548
C95	C	0.867721	0.054580	0.302776
C96	C	1.367721	0.554580	0.802776
C97	C	0.820498	0.111845	0.340909
C98	C	1.320498	0.611845	0.840909
C99	C	0.773255	0.169104	0.302807
C100	C	1.273255	0.669104	0.802807
C101	C	0.773247	0.169100	0.226580
C102	C	1.273247	0.669100	0.726580
C103	C	0.811400	0.188379	0.461666
C104	C	1.311400	0.688379	0.961666
C105	C	0.811413	0.188383	0.537891
C106	C	1.311413	0.688383	1.037891
C107	C	0.820518	0.111855	0.576016
C108	C	1.320518	0.611855	1.076016
C109	C	0.829625	0.035320	0.537907
C110	C	1.329625	0.535320	1.037907
C111	C	0.829618	0.035316	0.461681
C112	C	1.329618	0.535316	0.961681
C113	C	0.820501	0.111855	0.423563
C114	C	1.320501	0.611855	0.923563
C115	C	0.867759	0.054592	0.696764
C116	C	1.367759	0.554592	1.196764
C117	C	0.867759	0.054587	0.772993
C118	C	1.367759	0.554587	1.272993
C119	C	0.773296	0.169118	0.773022
C120	C	1.273296	0.669118	1.273022
C121	C	0.773293	0.169116	0.696794
C122	C	1.273293	0.669116	1.196794
C123	C	0.820529	0.111854	0.658669
C124	C	1.320529	0.611854	1.158669
H125	H	0.594656	0.255863	-0.000183
H126	H	1.094656	0.755863	0.499817
H127	H	0.266342	0.004290	-0.077215
H128	H	0.766342	0.504290	0.422785
C129	C	0.750621	-0.315679	-0.128117
C130	C	1.250621	0.184321	0.371883
H131	H	0.782543	-0.288069	-0.156243
H132	H	1.282543	0.211931	0.343757
H133	H	0.712550	-0.275897	-0.113785
H134	H	1.212550	0.224103	0.386215
H135	H	0.733810	-0.358906	-0.156412
H136	H	1.233810	0.141094	0.343588
H137	H	0.374676	0.219410	0.076766
H138	H	0.874676	0.719410	0.576766
H139	H	0.177788	-0.029838	-0.000237
H140	H	0.677788	0.470162	0.499763
C141	C	0.231077	0.233649	0.088868
C142	C	0.731077	0.733649	0.588868
H143	H	0.259237	0.269145	0.114136
H144	H	0.759237	0.769145	0.614136
H145	H	0.205938	0.204107	0.122980
H146	H	0.705938	0.704107	0.622980
H147	H	0.199163	0.267068	0.058271
H148	H	0.699163	0.767068	0.558271
C149	C	0.750577	-0.315718	0.127680
C150	C	1.250577	0.184282	0.627680
H151	H	0.782478	-0.288097	0.155792
H152	H	1.282478	0.211903	0.655792
H153	H	0.733736	-0.358931	0.155985
H154	H	1.233736	0.141069	0.655985
H155	H	0.712521	-0.275927	0.113332
H156	H	1.212521	0.224073	0.613332
C157	C	0.409943	-0.009945	-0.089315
C158	C	0.909943	0.490055	0.410685
H159	H	0.381783	-0.045429	-0.114598
H160	H	0.881783	0.454571	0.385402
H161	H	0.441860	-0.043365	-0.058728
H162	H	0.941860	0.456635	0.441272
H163	H	0.435079	0.019611	-0.123427
H164	H	0.935079	0.519611	0.376573
C165	C	0.839636	-0.048866	0.579834
C166	C	1.339636	0.451134	1.079834
H167	H	0.838327	-0.037906	0.630690
H168	H	1.338327	0.462094	1.130690
H169	H	0.883439	-0.078958	0.567328
H170	H	1.383439	0.421042	1.067328
H171	H	0.803305	-0.081663	0.567362
H172	H	1.303305	0.418337	1.067362
C173	C	0.919708	-0.008401	0.654824
C174	C	1.419708	0.491599	1.154824
H175	H	0.947833	-0.042510	0.688431
H176	H	1.447833	0.457490	1.188431
H177	H	0.948618	0.021723	0.625068
H178	H	1.448618	0.521723	1.125068
H179	H	0.894715	-0.043292	0.625107
H180	H	1.394715	0.456708	1.125107
H181	H	0.804001	0.250703	0.568913
H182	H	1.304001	0.750703	1.068913
H183	H	0.906186	0.007955	0.333797
H184	H	1.406186	0.507955	0.833797
H185	H	0.016317	0.245607	-0.000272
H186	H	0.516317	0.745607	0.499728
C187	C	0.919689	-0.008380	0.184612
C188	C	1.419689	0.491620	0.684612
H189	H	0.912931	-0.000172	0.133758
H190	H	1.412931	0.499828	0.633758
H191	H	0.912174	-0.064427	0.197107
H192	H	1.412174	0.435573	0.697107
H193	H	0.966037	0.000637	0.197091
H194	H	1.466037	0.500637	0.697091
H195	H	0.697758	-0.420780	-0.000244
H196	H	1.197758	0.079220	0.499756
C197	C	0.155741	0.269991	-0.000256
C198	C	0.655741	0.769991	0.499744
H199	H	0.205262	0.259886	-0.000255
H200	H	0.705262	0.759886	0.499745
H201	H	0.140445	0.301232	0.041971
H202	H	0.640445	0.801232	0.541971
H203	H	0.140487	0.301236	-0.042495
H204	H	0.640487	0.801236	0.457505
C205	C	0.839624	-0.048864	0.419761
C206	C	1.339624	0.451136	0.919761
H207	H	0.845144	-0.094442	0.453377
H208	H	1.345144	0.405558	0.953377
H209	H	0.880005	-0.050639	0.389922
H210	H	1.380005	0.449361	0.889922
H211	H	0.799884	-0.053449	0.390130
H212	H	1.299884	0.446551	0.890130
H213	H	0.734783	0.215724	0.195564
H214	H	1.234783	0.715724	0.695564
C215	C	0.890375	-0.460423	-0.128268
C216	C	1.390375	0.039577	0.371732
H217	H	0.889257	-0.519832	-0.127869
H218	H	1.389257	-0.019832	0.372131
H219	H	0.937484	-0.448466	-0.128454
H220	H	1.437484	0.051534	0.371546
H221	H	0.867342	-0.437068	-0.170610
H222	H	1.367342	0.062932	0.329390
C223	C	0.038371	-0.054225	-0.000269
C224	C	0.538371	0.445775	0.499731
H225	H	-0.011150	-0.044121	-0.000285
H226	H	0.488850	0.455879	0.499715
H227	H	0.053622	-0.085476	0.041963
H228	H	0.553622	0.414524	0.541963
H229	H	0.053670	-0.085460	-0.042503
H230	H	0.553670	0.414540	0.457497
C231	C	0.801389	0.272565	0.419735
C232	C	1.301389	0.772565	0.919735
H233	H	0.795978	0.318145	0.453346
H234	H	1.295978	0.818145	0.953346
H235	H	0.760945	0.274394	0.390017
H236	H	1.260945	0.774394	0.890017
H237	H	0.841079	0.277096	0.389980
H238	H	1.341079	0.777096	0.889980
C239	C	0.485278	-0.046298	-0.000184
C240	C	0.985278	0.453702	0.499816
H241	H	0.435756	-0.036192	-0.000204
H242	H	0.935756	0.463808	0.499796
H243	H	0.500526	-0.077546	0.042050
H244	H	1.000526	0.422454	0.542050
H245	H	0.500579	-0.077535	-0.042416
H246	H	1.000579	0.422465	0.457584
H247	H	0.943317	-0.355714	-0.000318
H248	H	1.443317	0.144286	0.499682
C249	C	0.637418	-0.043603	-0.000148
C250	C	1.137418	0.456397	0.499852
H251	H	0.610399	-0.089762	-0.000157
H252	H	1.110399	0.410238	0.499843
H253	H	0.666005	-0.046288	0.042084
H254	H	1.166005	0.453712	0.542084
H255	H	0.666043	-0.046278	-0.042381
H256	H	1.166043	0.453722	0.457619
C257	C	0.890342	-0.460679	0.127645
C258	C	1.390342	0.039321	0.627645
H259	H	0.867056	-0.437809	0.170037
H260	H	1.367056	0.062191	0.670037
H261	H	0.937342	-0.448320	0.128064
H262	H	1.437342	0.051680	0.628064
H263	H	0.889568	-0.520138	0.126909
H264	H	1.389568	-0.020138	0.626909
C265	C	0.919720	-0.008394	0.814895
C266	C	1.419720	0.491606	1.314895
H267	H	0.947853	-0.042490	0.781269
H268	H	1.447853	0.457510	1.281269
H269	H	0.894744	-0.043288	0.844650
H270	H	1.394744	0.456712	1.344650
H271	H	0.948633	0.021745	0.844610
H272	H	1.448633	0.521745	1.344610
C273	C	0.721351	0.232109	0.814958
C274	C	1.221351	0.732109	1.314958
H275	H	0.728122	0.223915	0.865812
H276	H	1.228122	0.723915	1.365812
H277	H	0.674996	0.223130	0.802491
H278	H	1.174996	0.723130	1.302491
H279	H	0.728897	0.288148	0.802453
H280	H	1.228897	0.788148	1.302453
C281	C	0.721313	0.232096	0.344749
C282	C	1.221313	0.732096	0.844749
H283	H	0.728087	0.223904	0.395603
H284	H	1.228087	0.723904	0.895603
H285	H	0.674958	0.223116	0.332285
H286	H	1.174958	0.723116	0.832285
H287	H	0.728859	0.288134	0.332240
H288	H	1.228859	0.788134	0.832240
C289	C	0.721343	0.232106	0.654890
C290	C	1.221343	0.732106	1.154890
H291	H	0.693222	0.266216	0.688515
H292	H	1.193222	0.766216	1.188515
H293	H	0.692428	0.201980	0.625172
H294	H	1.192428	0.701980	1.125172
H295	H	0.746331	0.266996	0.625137
H296	H	1.246331	0.766996	1.125137
H297	H	0.463224	0.253531	-0.000197
H298	H	0.963224	0.753531	0.499803
