data_functionalizedCrystal
_audit_creation_method	'MofGen! by Chris Wilmer'
_symmetry_space_group_name_H-M	'P1'
_symmetry_Int_Tables_number	1
_symmetry_cell_setting	triclinic
loop_
_symmetry_equiv_pos_as_xyz
  x,y,z
_cell_length_a	6.817900
_cell_length_b	15.300992
_cell_length_c	10.992410
_cell_angle_alpha	93.551494
_cell_angle_beta	108.764651
_cell_angle_gamma	104.175078
loop_
_atom_site_label
_atom_site_type_symbol
_atom_site_fract_x
_atom_site_fract_y
_atom_site_fract_z
V1	V	-4.090828	-0.124758	-0.400980
O2	O	-4.073501	0.005995	-0.392949
O3	O	-4.045389	-0.247374	-0.398621
O4	O	-4.068780	-0.122839	-0.575687
O5	O	-4.049948	-0.119402	-0.214657
V6	V	-4.570658	-0.109119	-0.378648
O7	O	-4.360188	-0.159065	-0.449968
O8	O	-4.751495	-0.074812	-0.329660
O9	O	-4.392890	0.013498	-0.381007
O10	O	-4.705381	-0.239872	-0.386679
O11	O	-4.728935	-0.114474	-0.564971
O12	O	-4.369499	-0.111038	-0.203941
C13	C	-3.890257	-0.277266	-0.392394
C14	C	-3.934567	-0.377506	-0.391629
C15	C	-3.896990	-0.411722	-0.273571
C16	C	-3.938645	-0.505909	-0.272857
C17	C	-4.017863	-0.565879	-0.390202
C18	C	-4.055448	-0.531657	-0.508269
C19	C	-4.013807	-0.437472	-0.508982
C20	C	-4.142230	-0.727969	-0.506774
C21	C	-4.183870	-0.822161	-0.506061
C22	C	-4.067068	-0.796406	-0.270649
C23	C	-4.025428	-0.702220	-0.271363
C24	C	-4.063012	-0.668005	-0.389430
C25	C	-3.920094	-0.118407	-0.618257
C26	C	-3.983371	-0.117650	-0.761083
C27	C	-3.851790	-0.110746	-0.956185
C28	C	-3.786022	-0.111908	-0.807706
C29	C	-4.164697	-0.206558	-0.838463
C30	C	-4.229158	-0.205772	-0.987027
C31	C	-4.139242	-0.033613	-0.948461
C32	C	-4.068612	-0.033192	-0.799447
C33	C	-4.211364	0.043384	-0.387231
C34	C	-4.146293	0.143624	-0.388004
C35	C	-4.181526	-0.115472	-0.161364
C36	C	-4.097487	-0.116225	-0.018536
H37	H	-3.832469	-0.362899	-0.178015
Cl38	Cl	-3.575290	-0.013223	-0.725042
Cl39	Cl	-3.796074	-0.202391	-1.030555
Cl40	Cl	-4.507901	-0.217690	-1.052886
Cl41	Cl	-4.155050	-0.607049	-0.655789
Cl42	Cl	-4.414637	-0.038597	-1.011536
H43	H	-3.937705	0.032579	-0.746885
H44	H	-3.717544	-0.172090	-0.783078
H45	H	-4.044430	-0.409617	-0.605117
H46	H	-3.746670	-0.046377	-0.974815
Cl47	Cl	-3.891422	-0.548919	-0.124436
H48	H	-4.049002	0.033902	-0.968611
Cl49	Cl	-4.187002	-0.302347	-1.058770
Cl50	Cl	-4.288319	-0.031572	-0.749238
Cl51	Cl	-4.394727	-0.218006	-0.794037
H52	H	-3.960912	-0.653394	-0.175810
Cl53	Cl	-4.283659	-0.897555	-0.653589
Cl54	Cl	-4.019807	-0.839418	-0.122222
Cl55	Cl	-4.189492	-0.684958	-0.655204
H56	H	-4.107163	-0.269264	-0.813052
