data_functionalizedCrystal
_audit_creation_method	'MofGen! by Chris Wilmer'
_symmetry_space_group_name_H-M	'P1'
_symmetry_Int_Tables_number	1
_symmetry_cell_setting	triclinic
loop_
_symmetry_equiv_pos_as_xyz
  x,y,z
_cell_length_a	17.019294
_cell_length_b	14.853567
_cell_length_c	13.930277
_cell_angle_alpha	89.995755
_cell_angle_beta	86.116472
_cell_angle_gamma	83.514509
loop_
_atom_site_label
_atom_site_type_symbol
_atom_site_fract_x
_atom_site_fract_y
_atom_site_fract_z
O1	O	0.102989	1.196089	-0.088277
O2	O	0.602989	1.696089	0.411723
O3	O	0.115258	0.933596	-0.089307
O4	O	0.615258	1.433596	0.410693
O5	O	-0.005701	1.072165	-0.079295
O6	O	0.494299	1.572165	0.420705
O7	O	0.223948	1.057520	-0.098289
O8	O	0.723948	1.557520	0.401711
O9	O	-0.005704	1.072146	0.080367
O10	O	0.494296	1.572146	0.580367
O11	O	0.115255	0.933577	0.070355
O12	O	0.615255	1.433577	0.570355
O13	O	0.102987	1.196070	0.071385
O14	O	0.602987	1.696070	0.571385
Zn15	Zn	0.109121	1.064820	0.096220
Zn16	Zn	0.609121	1.564820	0.596220
Zn17	Zn	0.109124	1.064846	-0.114142
Zn18	Zn	0.609124	1.564846	0.385858
O19	O	0.223946	1.057501	0.061373
O20	O	0.723946	1.557501	0.561373
C21	C	0.114701	0.899999	-0.009432
C22	C	0.614701	1.399999	0.490568
C23	C	0.113035	0.799920	-0.009301
C24	C	0.613035	1.299920	0.490699
C25	C	-0.035092	1.071600	0.002965
C26	C	0.464908	1.571600	0.502965
C27	C	-0.122664	1.069933	0.010201
C28	C	0.377336	1.569933	0.510201
C29	C	0.034141	0.387600	-0.002754
C30	C	0.534141	0.887600	0.497246
C31	C	0.177843	0.365930	-0.014640
C32	C	0.677843	0.865930	0.485360
C33	C	0.179409	0.459959	-0.014773
C34	C	0.679409	0.959959	0.485227
C35	C	0.108340	0.517814	-0.008898
C36	C	0.608340	1.017814	0.491102
C37	C	0.035705	0.481639	-0.002889
C38	C	0.535705	0.981639	0.497111
C39	C	0.252043	0.496141	-0.020791
C40	C	0.752043	0.996141	0.479209
C41	C	0.253613	0.590176	-0.020925
C42	C	0.753613	1.090176	0.479075
C43	C	0.182543	0.648032	-0.015042
C44	C	0.682543	1.148032	0.484958
C45	C	0.109904	0.611852	-0.009033
C46	C	0.609904	1.111852	0.490967
C47	C	0.038836	0.669707	-0.003157
C48	C	0.538836	1.169707	0.496843
C49	C	-0.033804	0.633529	0.002859
C50	C	0.466196	1.133529	0.502859
C51	C	-0.035365	0.539495	0.002993
C52	C	0.464635	1.039495	0.502993
C53	C	0.184104	0.742066	-0.015176
C54	C	0.684104	1.242066	0.484824
C55	C	0.040400	0.763745	-0.003293
C56	C	0.540400	1.263745	0.496707
C57	C	-0.163800	1.069163	-0.073430
C58	C	0.336200	1.569163	0.426570
C59	C	-0.246083	1.067592	-0.066628
C60	C	0.253917	1.567592	0.433372
C61	C	-0.287229	1.066797	0.023807
C62	C	0.212771	1.566797	0.523807
C63	C	-0.246087	1.067565	0.107445
C64	C	0.253913	1.567565	0.607445
C65	C	-0.163805	1.069130	0.100641
C66	C	0.336195	1.569130	0.600641
C67	C	-0.535667	1.062065	0.048703
C68	C	-0.035667	1.562065	0.548703
C69	C	-0.617955	1.060503	0.055500
C70	C	-0.117955	1.560503	0.555500
C71	C	-0.617945	1.060528	-0.118573
C72	C	-0.117945	1.560528	0.381427
C73	C	-0.535662	1.062099	-0.125369
C74	C	-0.035662	1.562099	0.374631
C75	C	-0.494527	1.062862	-0.041731
C76	C	0.005473	1.562862	0.458269
C77	C	-0.371336	1.065194	0.030762
C78	C	0.128664	1.565194	0.530762
C79	C	-0.410421	1.064458	-0.048687
C80	C	0.089579	1.564458	0.451313
C81	C	0.253337	1.058066	-0.020889
C82	C	0.753337	1.558066	0.479111
C83	C	0.340909	1.059733	-0.028132
C84	C	0.840909	1.559733	0.471868
C85	C	0.103544	1.229667	-0.008492
C86	C	0.603544	1.729667	0.491508
C87	C	0.105210	1.329746	-0.008630
C88	C	0.605210	1.829746	0.491370
N89	N	0.109118	1.064810	0.239786
N90	N	0.609118	1.564810	0.739786
N91	N	0.109121	1.064863	-0.257708
N92	N	0.609121	1.564863	0.242292
C93	C	0.162664	1.003485	0.687623
C94	C	0.662664	1.503485	1.187623
C95	C	0.055578	1.126231	0.696457
C96	C	0.555578	1.626231	1.196457
C97	C	0.055576	1.126220	0.595961
C98	C	0.555576	1.626220	1.095961
C99	C	0.109119	1.064842	0.541292
C100	C	0.609119	1.564842	1.041292
C101	C	0.162664	1.003474	0.587118
C102	C	0.662664	1.503474	1.087118
C103	C	0.002037	1.187593	0.550127
C104	C	0.502037	1.687593	1.050127
C105	C	0.002033	1.187585	0.449625
C106	C	0.502033	1.687585	0.949625
C107	C	0.055573	1.126202	0.394954
C108	C	0.555573	1.626202	0.894954
C109	C	0.109120	1.064831	0.440787
C110	C	0.609120	1.564831	0.940787
C111	C	0.162663	1.003453	0.386118
C112	C	0.662663	1.503453	0.886118
C113	C	0.216207	0.942077	0.431948
C114	C	0.716207	1.442077	0.931948
C115	C	0.216204	0.942091	0.532447
C116	C	0.716204	1.442091	1.032447
C117	C	0.055575	1.126188	0.294455
C118	C	0.555575	1.626188	0.794455
C119	C	0.162663	1.003442	0.285612
C120	C	0.662663	1.503442	0.785612
H121	H	-0.017474	0.810846	0.001496
H122	H	0.482526	1.310846	0.501496
H123	H	-0.041566	1.237559	0.412316
H124	H	0.458434	1.737559	0.912316
F125	F	-0.001402	1.191509	0.245684
F126	F	0.498598	1.691509	0.745684
F127	F	-0.112665	0.500985	0.009392
F128	F	0.387335	1.000985	0.509392
F129	F	-0.491877	1.062946	-0.221622
F130	F	0.008123	1.562946	0.278378
F131	F	0.273187	0.876777	0.581227
F132	F	0.773187	1.376777	1.081227
F133	F	0.253475	0.304355	-0.020905
F134	F	0.753475	0.804355	0.479095
F135	F	0.327674	0.434565	-0.027057
F136	F	0.827674	0.934565	0.472943
F137	F	-0.043163	0.349097	0.003653
F138	F	0.456837	0.849097	0.503653
H139	H	0.312759	0.619624	-0.025824
H140	H	0.812759	1.119624	0.474176
H141	H	-0.130305	1.069815	-0.147072
H142	H	0.369695	1.569815	0.352928
H143	H	0.243245	0.771518	-0.020073
H144	H	0.743245	1.271518	0.479927
H145	H	-0.651454	1.059851	0.129146
H146	H	-0.151454	1.559851	0.629146
H147	H	-0.279572	1.066968	-0.134730
H148	H	0.220428	1.566968	0.365270
F149	F	0.219644	0.938164	0.736398
F150	F	0.719644	1.438164	1.236398
H151	H	-0.091668	0.680646	0.007636
H152	H	0.408332	1.180646	0.507636
H153	H	-0.279594	1.066912	0.181079
H154	H	0.220406	1.566912	0.681079
H155	H	-0.651446	1.059906	-0.186666
H156	H	-0.151446	1.559906	0.313334
F157	F	-0.120026	1.069948	0.189654
F158	F	0.379974	1.569948	0.689654
H159	H	-0.502187	1.062704	0.116807
H160	H	-0.002187	1.562704	0.616807
F161	F	-0.415133	1.064344	0.127007
F162	F	0.084867	1.564344	0.627007
F163	F	-0.366629	1.065307	-0.144932
F164	F	0.133371	1.565307	0.355068
F165	F	0.219649	0.938109	0.227437
F166	F	0.719649	1.438109	0.727437
H167	H	0.259805	0.892106	0.387425
H168	H	0.759805	1.392106	0.887425
H169	H	0.011989	1.176208	0.740971
H170	H	0.511989	1.676208	1.240971
H171	H	-0.041553	1.237570	0.594641
H172	H	0.458447	1.737570	1.094641
