data_functionalizedCrystal
_audit_creation_method	'MofGen! by Chris Wilmer'
_symmetry_space_group_name_H-M	'P1'
_symmetry_Int_Tables_number	1
_symmetry_cell_setting	triclinic
loop_
_symmetry_equiv_pos_as_xyz
  x,y,z
_cell_length_a	20.919309
_cell_length_b	20.919309
_cell_length_c	14.809374
_cell_angle_alpha	65.056180
_cell_angle_beta	90.489664
_cell_angle_gamma	60.099716
loop_
_atom_site_label
_atom_site_type_symbol
_atom_site_fract_x
_atom_site_fract_y
_atom_site_fract_z
Zr1	Zr	0.675964	0.631581	-0.105725
O2	O	0.585906	0.750043	-0.247493
O3	O	0.699500	0.503648	-0.057882
O4	O	0.718025	0.608321	-0.233787
O5	O	0.557400	0.667020	0.062182
O6	O	0.826874	0.600746	-0.227960
O7	O	0.567381	0.645370	-0.071589
O8	O	0.793736	0.413506	0.086701
O9	O	0.590538	0.854260	-0.252479
O10	O	0.795690	0.554123	-0.038425
O11	O	0.707008	0.575933	0.057059
O12	O	0.728819	0.699172	-0.150046
O13	O	0.640137	0.720982	-0.054563
Zr14	Zr	0.833647	0.654028	0.116917
Zr15	Zr	0.849566	0.619499	-0.096432
Zr16	Zr	0.660045	0.666110	0.107625
Zr17	Zr	0.683351	0.797796	-0.113676
Zr18	Zr	0.826260	0.487813	0.124868
O19	O	0.810112	0.781961	0.069075
O20	O	0.832746	0.732865	-0.234280
O21	O	0.563272	0.799139	0.055862
O22	O	0.923705	0.535566	0.258686
O23	O	0.946340	0.486470	-0.044669
O24	O	0.676865	0.552744	0.245473
O25	O	0.952211	0.618589	-0.050989
O26	O	0.791587	0.677288	0.244979
O27	O	0.682737	0.684863	0.239153
O28	O	0.942230	0.640239	0.082782
O29	O	0.728528	0.844657	-0.245092
O30	O	0.781083	0.440952	0.256285
O31	O	0.919074	0.431349	0.263671
O32	O	0.931727	0.403903	0.094087
O33	O	0.577884	0.881706	-0.082894
O34	O	0.715875	0.872103	-0.075508
O35	O	0.780792	0.586437	0.161239
O36	O	0.869474	0.564627	0.065755
O37	O	0.802603	0.709676	-0.045866
O38	O	0.713921	0.731486	0.049618
C39	C	0.745565	0.434895	0.015542
C40	C	0.742429	0.364332	0.018917
C41	C	0.787245	0.319797	-0.029338
C42	C	0.784299	0.253493	-0.026157
C43	C	0.736534	0.231729	0.025274
C44	C	0.691717	0.276268	0.073536
C45	C	0.694667	0.342567	0.070361
C46	C	0.725315	0.032115	0.037362
C47	C	0.722366	-0.034188	0.040531
C48	C	0.814951	-0.056960	-0.059161
C49	C	0.817893	0.009345	-0.062337
C50	C	0.773079	0.053875	-0.014071
C51	C	0.733520	0.163957	0.028525
C52	C	0.776097	0.121642	-0.017315
C53	C	0.537656	0.657917	-0.006028
C54	C	0.463957	0.663045	-0.009973
C55	C	0.464237	0.589742	0.046434
C56	C	0.394987	0.594567	0.042724
C57	C	0.325458	0.672694	-0.017398
C58	C	0.325179	0.746003	-0.073806
C59	C	0.394428	0.741179	-0.070090
C60	C	0.114625	0.691048	-0.031527
C61	C	0.045374	0.695867	-0.035241
C62	C	0.115186	0.544430	0.081292
C63	C	0.184434	0.539612	0.084997
C64	C	0.184149	0.612922	0.028593
C65	C	0.254673	0.677627	-0.021194
C66	C	0.254933	0.607989	0.032395
C67	C	0.971956	0.627692	0.017220
C68	C	1.045654	0.622564	0.021165
C69	C	0.774717	0.599614	-0.261271
C70	C	0.781475	0.584956	-0.351843
C71	C	0.764046	0.850714	-0.004349
C72	C	0.767182	0.921277	-0.007725
C73	C	0.751316	0.650374	-0.447595
C74	C	0.758300	0.635226	-0.541208
C75	C	0.734894	0.685995	0.272464
C76	C	0.728136	0.700654	0.363036
C77	C	0.962715	0.419783	0.027166
C78	C	1.033278	0.344092	0.034486
C79	C	0.725654	0.478086	0.282409
C80	C	0.715760	0.422181	0.376357
C81	C	0.942803	0.462974	0.294033
C82	C	1.006608	0.401941	0.391926
C83	C	0.566808	0.822635	-0.282841
C84	C	0.503003	0.883668	-0.380733
C85	C	0.546896	0.865826	-0.015973
C86	C	0.476333	0.941517	-0.023294
C87	C	0.783958	0.807523	-0.271217
C88	C	0.793852	0.863428	-0.365164
C89	C	1.027901	0.303062	-0.016466
C90	C	1.094197	0.231948	-0.009608
C91	C	1.165869	0.201862	0.048208
C92	C	1.171245	0.242899	0.099162
C93	C	1.104950	0.314015	0.092297
C94	C	0.749627	0.401413	0.474866
C95	C	0.740328	0.348896	0.563147
C96	C	0.697164	0.317143	0.552918
C97	C	0.663293	0.337918	0.454399
C98	C	0.672588	0.390439	0.366119
C99	C	1.082870	0.361894	0.388057
C100	C	1.142829	0.304554	0.480029
C101	C	1.126524	0.287258	0.575870
C102	C	1.050255	0.327312	0.579737
C103	C	0.990298	0.384655	0.487765
C104	C	0.426742	0.923723	-0.376864
C105	C	0.366784	0.981084	-0.468838
C106	C	0.383088	0.998383	-0.564679
C107	C	0.459357	0.958325	-0.568546
C108	C	0.519314	0.900971	-0.476573
C109	C	0.481711	0.982553	0.027649
C110	C	0.415417	1.053681	0.020767
C111	C	0.343746	1.083769	-0.037052
C112	C	0.338370	1.042730	-0.088001
C113	C	0.404663	0.971606	-0.081125
C114	C	0.837020	0.895163	-0.354902
C115	C	0.846331	0.947683	-0.443166
C116	C	0.812469	0.968470	-0.541693
C117	C	0.769299	0.936728	-0.551953
C118	C	0.759993	0.884205	-0.463689
H119	H	0.851437	-0.093223	-0.098456
Cl120	Cl	0.237770	0.844222	-0.149382
H121	H	0.419809	1.087085	0.062261
Cl122	Cl	0.879598	0.869041	-0.231050
H123	H	1.096160	0.375966	0.310027
Cl124	Cl	1.261353	0.205062	0.171847
Cl125	Cl	0.571805	0.944747	0.100338
H126	H	0.645010	0.407340	0.285912
Cl127	Cl	0.115537	0.452276	0.152200
Cl128	Cl	0.824173	1.034504	-0.652645
H129	H	1.036990	0.313221	0.657783
H130	H	0.241045	0.475989	0.133935
H131	H	0.928203	0.417255	0.490930
Cl132	Cl	0.406224	0.901989	-0.256390
H133	H	0.856787	0.027063	-0.104217
H134	H	0.658171	0.378830	0.109653
H135	H	0.820792	0.217232	-0.065450
H136	H	1.219845	0.143953	0.053790
H137	H	0.683466	-0.051903	0.082412
H138	H	0.697144	0.767881	-0.649645
H139	H	0.628149	0.312057	0.446085
H140	H	1.175353	0.240564	0.650752
H141	H	0.304687	1.013691	-0.465669
H142	H	0.395222	0.534876	0.088658
H143	H	0.881482	0.973523	-0.434792
Cl144	Cl	0.394074	0.833336	-0.141000
H145	H	0.789295	0.567998	-0.528528
H146	H	0.334260	1.045086	-0.639561
Cl147	Cl	0.937808	0.340871	-0.089161
Cl148	Cl	0.260411	1.173182	-0.045684
H149	H	1.204926	0.271946	0.476863
Cl150	Cl	1.111722	0.365582	0.156368
H151	H	0.472624	0.972418	-0.646591
Cl152	Cl	0.342340	0.509777	0.107984
Cl153	Cl	0.668979	0.088084	0.098045
Cl154	Cl	0.726726	0.962878	-0.675824
Cl155	Cl	0.248261	1.080562	-0.160680
Cl156	Cl	0.705712	0.844323	-0.476610
H157	H	0.826137	0.337516	-0.071225
H158	H	0.652829	0.258539	0.115419
H159	H	0.581409	0.868356	-0.479736
H160	H	0.400274	0.938198	-0.122607
H161	H	0.767915	0.331988	0.643358
Cl162	Cl	0.836145	0.149002	-0.081966
H163	H	0.520847	0.526123	0.095396
Cl164	Cl	-0.042037	0.794090	-0.110840
Cl165	Cl	0.673483	0.136582	0.093193
H166	H	0.114384	0.750739	-0.077473
H167	H	0.784774	0.427261	0.483214
H168	H	0.198054	0.741238	-0.070145
H169	H	0.720328	0.717596	-0.460267
H170	H	0.689601	0.274378	0.624810
Cl171	Cl	1.087421	0.180370	-0.073665
Cl172	Cl	0.829330	0.481165	-0.332267
