data_functionalizedCrystal
_audit_creation_method	'MofGen! by Chris Wilmer'
_symmetry_space_group_name_H-M	'P1'
_symmetry_Int_Tables_number	1
_symmetry_cell_setting	triclinic
loop_
_symmetry_equiv_pos_as_xyz
  x,y,z
_cell_length_a	12.811438
_cell_length_b	12.837942
_cell_length_c	9.198806
_cell_angle_alpha	90.002604
_cell_angle_beta	95.435405
_cell_angle_gamma	89.411773
loop_
_atom_site_label
_atom_site_type_symbol
_atom_site_fract_x
_atom_site_fract_y
_atom_site_fract_z
O1	O	1.406647	0.139683	0.306328
O2	O	1.102582	0.154871	0.266247
O3	O	1.247872	-0.003655	0.285390
O4	O	1.261357	0.298209	0.287185
O5	O	1.247859	-0.003655	0.043603
O6	O	1.102569	0.154871	0.024460
O7	O	1.406635	0.139682	0.064542
Cu8	Cu	1.254601	0.147277	0.022424
Cu9	Cu	1.254616	0.147277	0.308365
O10	O	1.261344	0.298208	0.045398
C11	C	1.063386	0.154020	0.140187
C12	C	0.946613	0.151471	0.124794
C13	C	1.243310	-0.042295	0.163897
C14	C	1.229724	-0.157431	0.162108
C15	C	0.782020	0.147879	-0.028691
C16	C	0.891739	0.150274	-0.014235
C17	C	0.891761	0.150276	0.249376
C18	C	0.782042	0.147880	0.234919
C19	C	0.727176	0.146681	0.095881
C20	C	0.617455	0.144278	0.081425
C21	C	0.617479	0.144286	0.345034
C22	C	0.727198	0.146682	0.359491
C23	C	1.393054	-0.397685	0.183669
C24	C	1.380294	-0.505866	0.181989
C25	C	1.191444	-0.481976	0.157080
C26	C	1.204204	-0.373795	0.158759
C27	C	1.305013	-0.331654	0.172052
C28	C	1.317772	-0.223471	0.173721
C29	C	1.128923	-0.199583	0.148823
C30	C	1.116163	-0.307764	0.147143
C31	C	1.445830	0.140534	0.190604
C32	C	1.562603	0.143082	0.206007
C33	C	1.265906	0.336849	0.166895
C34	C	1.279492	0.451985	0.168693
N35	N	1.254598	0.147276	-0.178691
C36	C	1.315574	0.080423	-0.242853
C37	C	1.315590	0.080419	-0.410264
N38	N	1.254626	0.147270	0.509480
H39	H	0.737347	0.146908	-0.141902
O40	O	0.558341	0.142961	0.479420
H41	H	0.577111	0.214005	0.545131
O42	O	1.426495	-0.178010	0.188076
H43	H	1.485571	-0.242105	0.195892
O44	O	1.501775	-0.352220	0.198007
H45	H	1.560855	-0.416312	0.205809
H46	H	1.057233	-0.145808	0.139352
O47	O	1.475251	-0.577090	0.194501
H48	H	1.547489	-0.529608	0.204012
H49	H	1.109370	-0.516307	0.146273
H50	H	0.572784	0.143308	-0.031786
O51	O	0.950886	0.151576	-0.148602
H52	H	1.003176	0.082075	-0.148033
H53	H	1.202401	0.204505	-0.247696
O54	O	1.384711	0.004594	-0.151480
H55	H	1.363023	-0.076269	-0.183491
H56	H	1.034087	-0.342090	0.136326
O57	O	1.384745	0.004596	-0.483375
H58	H	1.373900	0.016486	-0.603392
H59	H	0.936452	0.151262	0.362574
O60	O	0.786377	0.147954	0.509449
H61	H	0.871886	0.149809	0.498577
O62	O	1.185456	0.223076	-0.417404
H63	H	1.234869	0.273509	-0.341510
