data_functionalizedCrystal
_audit_creation_method	'MofGen! by Chris Wilmer'
_symmetry_space_group_name_H-M	'P1'
_symmetry_Int_Tables_number	1
_symmetry_cell_setting	triclinic
loop_
_symmetry_equiv_pos_as_xyz
  x,y,z
_cell_length_a	18.050590
_cell_length_b	16.959454
_cell_length_c	16.959447
_cell_angle_alpha	90.026736
_cell_angle_beta	90.000229
_cell_angle_gamma	89.990760
loop_
_atom_site_label
_atom_site_type_symbol
_atom_site_fract_x
_atom_site_fract_y
_atom_site_fract_z
Zn1	Zn	1.135338	0.314895	-0.446621
Zn2	Zn	1.135266	0.447087	-0.314451
Zn3	Zn	1.011156	0.314901	-0.314492
Zn4	Zn	1.011123	0.447010	-0.446623
O5	O	1.073221	0.380973	-0.380547
O6	O	1.239253	0.332460	-0.429071
O7	O	1.118786	0.429587	-0.203846
O8	O	1.027674	0.204290	-0.332036
O9	O	1.239200	0.429581	-0.331966
O10	O	1.118910	0.204285	-0.429111
O11	O	1.027603	0.332471	-0.203876
O12	O	0.907228	0.332397	-0.332038
O13	O	1.027617	0.429449	-0.557234
O14	O	0.907203	0.429456	-0.429114
O15	O	1.118878	0.332385	-0.557233
O16	O	1.118754	0.557688	-0.331968
O17	O	1.027547	0.557631	-0.429074
C18	C	0.880269	0.380919	-0.380581
C19	C	0.797723	0.380915	-0.380614
C20	C	0.598281	0.433847	-0.433279
C21	C	0.548878	0.361773	-0.452725
C22	C	0.646593	0.380959	-0.380576
C23	C	0.548914	0.453075	-0.361129
C24	C	0.500608	0.381008	-0.380540
C25	C	0.598277	0.308847	-0.400059
C26	C	0.598317	0.400197	-0.308430
C27	C	0.548937	0.328073	-0.327849
C28	C	0.730691	0.380932	-0.380598
C29	C	0.416511	0.381027	-0.380517
C30	C	1.073159	0.586340	-0.380534
C31	C	1.073200	0.674196	-0.380554
C32	C	1.073252	0.380908	-0.586715
C33	C	1.073265	0.380880	-0.674572
C34	C	1.266927	0.381028	-0.380513
C35	C	1.349472	0.381051	-0.380499
C36	C	1.073304	0.174805	-0.380578
C37	C	1.073339	0.086948	-0.380591
C38	C	1.025799	1.045672	-0.431105
C39	C	1.120850	1.045671	-0.330070
C40	C	1.120824	0.963125	-0.330062
C41	C	1.073284	0.921849	-0.380576
C42	C	1.025770	0.963119	-0.431098
C43	C	1.168333	0.921850	-0.279537
C44	C	1.168308	0.839299	-0.279527
C45	C	1.120771	0.798021	-0.330045
C46	C	1.073255	0.839296	-0.380569
C47	C	1.025715	0.798019	-0.431083
C48	C	0.978202	0.839292	-0.481611
C49	C	0.978232	0.921841	-0.481616
C50	C	1.120740	0.715472	-0.330040
C51	C	1.025686	0.715466	-0.431075
C52	C	1.025839	0.431334	-1.046051
C53	C	1.120869	0.330260	-1.046045
C54	C	1.120849	0.330276	-0.963499
C55	C	1.073324	0.380823	-0.922225
C56	C	1.025819	0.431354	-0.963497
C57	C	1.168359	0.279753	-0.922220
C58	C	1.168341	0.279768	-0.839669
C59	C	1.120812	0.330312	-0.798394
C60	C	1.073304	0.380843	-0.839672
C61	C	1.025780	0.431390	-0.798398
C62	C	0.978268	0.481919	-0.839674
C63	C	0.978290	0.481897	-0.922222
C64	C	1.120790	0.330333	-0.715846
C65	C	1.025760	0.431410	-0.715844
C66	C	1.073233	0.380981	-0.175181
C67	C	1.073364	0.380787	-0.087325
H68	H	0.527162	0.345517	-0.513721
N69	N	0.974581	0.485815	-1.090562
H70	H	0.981796	0.478129	-1.149120
H71	H	0.986102	0.542278	-1.076125
N72	N	0.974548	1.090178	-0.485597
H73	H	0.986042	1.075771	-0.542079
H74	H	0.981801	1.148723	-0.477875
H75	H	1.159551	1.079283	-0.288939
N76	N	1.219590	0.966366	-0.225041
H77	H	1.212397	1.024922	-0.232713
H78	H	1.272621	0.951905	-0.237364
N79	N	1.172130	0.275749	-1.090556
H80	H	1.164936	0.283405	-1.149114
H81	H	1.160589	0.219296	-1.076146
H82	H	1.206996	0.805699	-0.238385
H83	H	0.619949	0.478495	-0.477898
N84	N	0.627117	0.421760	-0.227662
H85	H	0.657903	0.376899	-0.206214
H86	H	0.583995	0.432100	-0.191146
N87	N	1.172035	0.275854	-0.671321
H88	H	1.160538	0.219366	-0.685695
H89	H	1.164782	0.283610	-0.612780
H90	H	1.159421	0.681872	-0.288897
H91	H	0.527407	0.283317	-0.283264
N92	N	0.520191	0.533829	-0.339353
H93	H	0.538142	0.573714	-0.379216
H94	H	0.538957	0.548679	-0.285246
H95	H	1.207056	0.238605	-0.955831
N96	N	0.974488	0.485917	-0.671330
H97	H	0.944392	0.517917	-0.710005
H98	H	1.004686	0.522519	-0.637060
H99	H	0.939610	0.523037	-0.955837
N100	N	0.927008	0.536440	-0.795161
H101	H	0.957167	0.573088	-0.760898
H102	H	0.892610	0.504260	-0.760970
N103	N	0.974412	0.670948	-0.485563
H104	H	0.944321	0.709622	-0.517570
H105	H	0.940049	0.636738	-0.453361
H106	H	1.207028	0.238624	-0.806069
H107	H	0.939549	0.955453	-0.522753
N108	N	0.626871	0.228063	-0.421917
H109	H	0.682822	0.228548	-0.421818
H110	H	0.608396	0.213477	-0.476209
H111	H	0.939491	0.805676	-0.522737
