data_functionalizedCrystal
_audit_creation_method	'MofGen! by Chris Wilmer'
_symmetry_space_group_name_H-M	'P1'
_symmetry_Int_Tables_number	1
_symmetry_cell_setting	triclinic
loop_
_symmetry_equiv_pos_as_xyz
  x,y,z
_cell_length_a	6.817900
_cell_length_b	12.200863
_cell_length_c	10.992410
_cell_angle_alpha	92.441369
_cell_angle_beta	108.764651
_cell_angle_gamma	107.143441
loop_
_atom_site_label
_atom_site_type_symbol
_atom_site_fract_x
_atom_site_fract_y
_atom_site_fract_z
V1	V	-4.105850	-0.158712	-0.400724
V2	V	-3.605850	0.341288	0.099276
O3	O	-4.072780	0.007627	-0.392961
O4	O	-3.572780	0.507627	0.107039
O5	O	-4.075174	-0.314700	-0.398112
O6	O	-3.575174	0.185300	0.101888
O7	O	-4.083571	-0.156271	-0.575434
O8	O	-3.583571	0.343729	-0.075434
O9	O	-4.064325	-0.151899	-0.214412
O10	O	-3.564325	0.348101	0.285588
V11	V	-4.583796	-0.138816	-0.378424
V12	V	-4.083796	0.361184	0.121576
O13	O	-4.379341	-0.202356	-0.449641
O14	O	-3.879341	0.297644	0.050359
O15	O	-4.760503	-0.095173	-0.329506
O16	O	-4.260503	0.404827	0.170494
O17	O	-4.391265	0.017171	-0.381035
O18	O	-3.891265	0.517171	0.118965
O19	O	-4.734263	-0.305156	-0.386186
O20	O	-4.234263	0.194844	0.113814
O21	O	-4.742718	-0.145630	-0.564736
O22	O	-4.242718	0.354370	-0.064736
O23	O	-4.382868	-0.141258	-0.203713
O24	O	-3.882868	0.358742	0.296287
C25	C	-3.923642	-0.352727	-0.391824
C26	C	-3.423642	0.147273	0.108176
C27	C	-3.980022	-0.480248	-0.390853
C28	C	-3.480022	0.019752	0.109147
C29	C	-4.083210	-0.713725	-0.389087
C30	C	-3.583210	-0.213725	0.110913
C31	C	-4.025781	-0.583802	-0.390070
C32	C	-3.525781	-0.083802	0.109930
C33	C	-3.934351	-0.150633	-0.618014
C34	C	-3.434351	0.349367	-0.118014
C35	C	-3.997537	-0.149669	-0.760842
C36	C	-3.497537	0.350331	-0.260842
C37	C	-3.865124	-0.140887	-0.955958
C38	C	-3.365124	0.359113	-0.455958
C39	C	-3.799496	-0.142364	-0.807476
C40	C	-3.299496	0.357636	-0.307476
C41	C	-4.189568	-0.262775	-0.838039
C42	C	-3.689568	0.237225	-0.338039
C43	C	-4.253934	-0.261775	-0.986604
C44	C	-3.753934	0.238225	-0.486604
C45	C	-4.143289	-0.042761	-0.948392
C46	C	-3.643289	0.457239	-0.448392
C47	C	-4.072609	-0.042225	-0.799379
C48	C	-3.572609	0.457775	-0.299379
C49	C	-4.206140	0.055192	-0.387320
C50	C	-3.706140	0.555192	0.112680
C51	C	-4.128999	0.182712	-0.388299
C52	C	-3.628999	0.682712	0.111701
C53	C	-4.195430	-0.146899	-0.161126
C54	C	-3.695430	0.353101	0.338874
C55	C	-4.111482	-0.147857	-0.018298
C56	C	-3.611482	0.352143	0.481702
H57	H	-3.655344	-0.061037	-0.754068
H58	H	-3.155344	0.438963	-0.254068
F59	F	-4.014721	0.069504	-0.974913
F60	F	-3.514721	0.569504	-0.474913
F61	F	-4.385475	-0.275103	-0.800407
F62	F	-3.885475	0.224897	-0.300407
H63	H	-3.738265	-0.218926	-0.782724
H64	H	-3.238265	0.281074	-0.282724
F65	F	-4.376946	-0.048130	-1.001781
F66	F	-3.876946	0.451870	-0.501781
H67	H	-4.139585	-0.342547	-0.812499
H68	H	-3.639585	0.157453	-0.312499
H69	H	-3.933782	0.041445	-0.746952
H70	H	-3.433782	0.541445	-0.246952
H71	H	-4.214792	-0.040897	-0.766866
H72	H	-3.714792	0.459103	-0.266866
H73	H	-4.234161	-0.341351	-1.032940
H74	H	-3.734161	0.158649	-0.532940
H75	H	-4.435415	-0.271610	-1.029244
H76	H	-3.935415	0.228390	-0.529244
H77	H	-3.836191	-0.216399	-1.004012
H78	H	-3.336191	0.283601	-0.504012
F79	F	-3.717564	-0.033765	-0.980308
F80	F	-3.217564	0.466235	-0.480308
