data_functionalizedCrystal
_audit_creation_method	'MofGen! by Chris Wilmer'
_symmetry_space_group_name_H-M	'P1'
_symmetry_Int_Tables_number	1
_symmetry_cell_setting	triclinic
loop_
_symmetry_equiv_pos_as_xyz
  x,y,z
_cell_length_a	10.654554
_cell_length_b	17.699092
_cell_length_c	9.130313
_cell_angle_alpha	90.000444
_cell_angle_beta	89.998999
_cell_angle_gamma	83.886605
loop_
_atom_site_label
_atom_site_type_symbol
_atom_site_fract_x
_atom_site_fract_y
_atom_site_fract_z
O1	O	1.665975	0.106316	-0.121819
O2	O	1.300320	0.116440	-0.121816
O3	O	1.493473	0.001255	-0.121814
O4	O	1.472822	0.221501	-0.121821
O5	O	1.493470	0.001258	0.121784
O6	O	1.300318	0.116443	0.121783
O7	O	1.665972	0.106319	0.121779
Cu8	Cu	1.483145	0.111381	0.144024
Cu9	Cu	1.483148	0.111378	-0.144060
O10	O	1.472820	0.221504	0.121778
C11	C	1.253534	0.115697	-0.000016
C12	C	1.114130	0.113471	-0.000015
C13	C	1.492730	-0.026945	-0.000017
C14	C	1.490505	-0.110977	-0.000024
C15	C	0.932825	0.041466	-0.000032
C16	C	1.063810	0.043557	-0.000017
C17	C	1.033457	0.181298	-0.000013
C18	C	0.902475	0.179206	-0.000017
C19	C	0.950350	-0.038058	-0.000041
C20	C	1.081335	-0.035967	-0.000026
C21	C	1.489464	-0.150453	-0.132811
C22	C	1.487365	-0.229409	-0.132813
C23	C	1.486316	-0.268889	-0.000026
C24	C	1.487354	-0.229407	0.132772
C25	C	1.489444	-0.150452	0.132772
C26	C	1.478924	-0.547826	0.132774
C27	C	1.476838	-0.626788	0.132764
C28	C	1.476846	-0.626783	-0.132811
C29	C	1.478935	-0.547828	-0.132811
C30	C	1.479966	-0.508353	-0.000014
C31	C	1.482239	-0.422739	-0.000014
C32	C	1.484052	-0.354502	-0.000025
C33	C	1.712759	0.107061	-0.000024
C34	C	1.852163	0.109288	-0.000034
C35	C	1.473563	0.249704	-0.000023
C36	C	1.475788	0.333736	-0.000025
N37	N	1.483152	0.111383	0.346646
N38	N	1.483151	0.111369	-0.346683
C39	C	1.568702	0.060397	0.423299
C40	C	1.568698	0.060388	0.576636
C41	C	1.397592	0.162358	0.576654
C42	C	1.397590	0.162363	0.423320
C43	C	1.667492	0.001527	0.423290
C44	C	1.667489	0.001518	0.576627
H45	H	0.836803	0.234434	-0.000002
H46	H	1.758354	0.019961	0.375730
N47	N	1.142343	-0.067792	0.139304
H48	H	1.125135	-0.122475	0.151295
H49	H	1.236435	-0.065039	0.134147
N50	N	1.486237	-0.271988	0.275993
H51	H	1.408785	-0.252529	0.334055
H52	H	1.484811	-0.327986	0.255719
N53	N	1.490560	-0.107870	0.275991
H54	H	1.489581	-0.144860	0.360113
H55	H	1.569244	-0.080834	0.281779
N56	N	1.137359	-0.075649	-0.135058
H57	H	1.199792	-0.119894	-0.105004
H58	H	1.067807	-0.094815	-0.195272
H59	H	1.074438	0.238224	0.000002
N60	N	1.795021	0.018695	0.631769
H61	H	1.851932	0.026372	0.545778
H62	H	1.784636	0.066381	0.693274
H63	H	1.479789	-0.515697	0.240905
N64	N	1.305322	0.217345	0.659357
H65	H	1.251126	0.249646	0.587526
H66	H	1.249899	0.188052	0.722968
H67	H	0.921529	-0.069160	0.101899
N68	N	1.640431	-0.075524	0.368144
H69	H	1.713641	-0.098409	0.306680
H70	H	1.628323	-0.109854	0.454210
N71	N	1.475695	-0.669369	0.275993
H72	H	1.474223	-0.725377	0.255837
H73	H	1.553875	-0.661291	0.333987
N74	N	1.628379	-0.071307	0.639616
H75	H	1.540244	-0.078439	0.605485
H76	H	1.688966	-0.115567	0.605442
N77	N	1.490606	-0.107875	-0.276033
H78	H	1.489626	-0.144866	-0.360153
H79	H	1.413655	-0.069389	-0.281820
N80	N	1.305296	0.217347	0.340657
H81	H	1.319575	0.271147	0.367347
H82	H	1.318311	0.209552	0.231910
N83	N	0.903724	-0.071606	-0.139351
H84	H	0.926023	-0.040017	-0.225783
H85	H	0.944843	-0.125360	-0.151207
H86	H	1.479795	-0.515688	-0.240940
N87	N	1.486385	-0.271961	-0.276074
H88	H	1.408985	-0.252505	-0.334226
H89	H	1.564671	-0.263881	-0.333869
N90	N	1.475731	-0.669360	-0.276048
H91	H	1.474243	-0.725368	-0.255908
H92	H	1.398282	-0.649831	-0.334041
