data_functionalizedCrystal
_audit_creation_method	'MofGen! by Chris Wilmer'
_symmetry_space_group_name_H-M	'P1'
_symmetry_Int_Tables_number	1
_symmetry_cell_setting	triclinic
loop_
_symmetry_equiv_pos_as_xyz
  x,y,z
_cell_length_a	12.759401
_cell_length_b	14.908520
_cell_length_c	12.759393
_cell_angle_alpha	93.262420
_cell_angle_beta	89.980163
_cell_angle_gamma	93.322137
loop_
_atom_site_label
_atom_site_type_symbol
_atom_site_fract_x
_atom_site_fract_y
_atom_site_fract_z
Zn1	Zn	1.582069	-0.359067	-0.618119
Zn2	Zn	2.082069	0.140933	-0.118119
Zn3	Zn	1.571800	-0.509954	-0.452565
Zn4	Zn	2.071800	-0.009954	0.047435
Zn5	Zn	1.406368	-0.359118	-0.442457
Zn6	Zn	1.906368	0.140882	0.057543
Zn7	Zn	1.396201	-0.509888	-0.628198
Zn8	Zn	1.896201	-0.009888	-0.128198
O9	O	1.489109	-0.434507	-0.535335
O10	O	1.989109	0.065493	-0.035335
O11	O	1.727727	-0.379089	-0.596170
O12	O	2.227727	0.120911	-0.096170
O13	O	1.549813	-0.489994	-0.304207
O14	O	2.049813	0.010006	0.195793
O15	O	1.438227	-0.232867	-0.457310
O16	O	1.938227	0.267133	0.042690
O17	O	1.720183	-0.489945	-0.474538
O18	O	2.220183	0.010055	0.025462
O19	O	1.567314	-0.232830	-0.586368
O20	O	2.067314	0.267170	-0.086368
O21	O	1.428270	-0.379176	-0.296780
O22	O	1.928270	0.120824	0.203220
O23	O	1.257999	-0.379112	-0.467084
O24	O	1.757999	0.120888	0.032916
O25	O	1.420899	-0.489832	-0.773879
O26	O	1.920899	0.010168	-0.273879
O27	O	1.250529	-0.489882	-0.603547
O28	O	1.750529	0.010118	-0.103547
O29	O	1.557456	-0.379025	-0.766474
O30	O	2.057456	0.120975	-0.266474
O31	O	1.539954	-0.636190	-0.484312
O32	O	2.039954	-0.136190	0.015688
O33	O	1.410942	-0.636141	-0.613349
O34	O	1.910942	-0.136141	-0.113349
C35	C	1.216143	-0.434496	-0.535313
C36	C	1.716143	0.065504	-0.035313
C37	C	1.099365	-0.434513	-0.535330
C38	C	1.599365	0.065487	-0.035330
C39	C	1.040635	-0.492279	-0.606287
C40	C	1.540635	0.007721	-0.106287
C41	C	0.930911	-0.492282	-0.606308
C42	C	1.430911	0.007718	-0.106308
C43	C	0.938656	-0.376752	-0.464407
C44	C	1.438656	0.123248	0.035593
C45	C	1.048379	-0.376744	-0.464392
C46	C	1.548379	0.123256	0.035608
C47	C	1.473259	-0.668899	-0.551044
C48	C	1.973259	-0.168899	-0.051044
C49	C	1.466574	-0.769173	-0.557799
C50	C	1.966574	-0.269173	-0.057799
C51	C	1.588491	-0.957588	-0.436236
C52	C	2.088491	-0.457588	0.063764
C53	C	1.582214	-1.051804	-0.442580
C54	C	2.082214	-0.551804	0.057420
C55	C	1.447748	-1.051824	-0.576836
C56	C	1.947748	-0.551824	-0.076836
C57	C	1.454025	-0.957607	-0.570492
C58	C	1.954025	-0.457607	-0.070492
C59	C	1.524398	-0.910493	-0.500189
C60	C	2.024398	-0.410493	-0.000189
C61	C	1.530670	-0.816275	-0.493840
C62	C	2.030670	-0.316275	0.006160
C63	C	1.396210	-0.816296	-0.628100
C64	C	1.896210	-0.316296	-0.128100
C65	C	1.389932	-0.910512	-0.634445
C66	C	1.889932	-0.410512	-0.134445
C67	C	1.763142	-0.434519	-0.535357
C68	C	2.263142	0.065481	-0.035357
C69	C	1.879918	-0.434524	-0.535367
C70	C	2.379918	0.065476	-0.035367
C71	C	1.489189	-0.434416	-0.809362
C72	C	1.989189	0.065584	-0.309362
C73	C	1.489223	-0.434377	-0.926136
C74	C	1.989223	0.065623	-0.426136
C75	C	1.505050	-0.199200	-0.519587
C76	C	2.005050	0.300800	-0.019587
C77	C	1.511844	-0.098926	-0.512877
C78	C	2.011844	0.401074	-0.012877
C79	C	1.425961	-0.376663	-0.977130
C80	C	1.925961	0.123337	-0.477130
C81	C	1.425987	-0.376635	-1.086852
C82	C	1.925987	0.123365	-0.586852
C83	C	1.552547	-0.492038	-1.094577
C84	C	2.052547	0.007962	-0.594577
C85	C	1.552514	-0.492069	-0.984857
C86	C	2.052514	0.007931	-0.484857
C87	C	1.489095	-0.434533	-0.262369
C88	C	1.989095	0.065467	0.237631
C89	C	1.489282	-0.434317	-0.145579
C90	C	1.989282	0.065683	0.354421
H91	H	1.096199	-0.329699	-0.406610
H92	H	1.596199	0.170301	0.093390
H93	H	0.897129	-0.329720	-0.406650
H94	H	1.397129	0.170280	0.093350
O95	O	1.620809	-0.554261	-1.157912
O96	O	2.120809	-0.054261	-0.657912
H97	H	1.704307	-0.538808	-1.135817
H98	H	2.204307	-0.038808	-0.635817
H99	H	1.587968	-0.777915	-0.436593
H100	H	2.087968	-0.277915	0.063407
O101	O	1.357767	-0.314378	-1.141856
O102	O	1.857767	0.185622	-0.641856
H103	H	1.274254	-0.329837	-1.121820
H104	H	1.774254	0.170163	-0.621820
H105	H	1.645784	-0.919227	-0.378985
H106	H	2.145784	-0.419227	0.121015
H107	H	1.634407	-1.090146	-0.390506
H108	H	2.134407	-0.590146	0.109494
H109	H	1.344018	-0.777941	-0.680172
H110	H	1.844018	-0.277941	-0.180172
H111	H	1.604032	-0.539070	-0.943338
H112	H	2.104032	-0.039070	-0.443338
O113	O	1.357697	-0.314445	-0.913790
O114	O	1.857697	0.185555	-0.413790
H115	H	1.313706	-0.274313	-0.967688
H116	H	1.813706	0.225687	-0.467688
O117	O	1.095640	-0.554564	-0.682811
O118	O	1.595640	-0.054564	-0.182811
H119	H	1.069789	-0.625356	-0.669422
H120	H	1.569789	-0.125356	-0.169422
H121	H	0.883098	-0.539319	-0.664089
H122	H	1.383098	-0.039319	-0.164089
O123	O	1.371838	-1.102646	-0.652647
O124	O	1.871838	-0.602646	-0.152647
H125	H	1.378238	-1.176072	-0.646303
H126	H	1.878238	-0.676072	-0.146303
H127	H	1.332640	-0.948886	-0.691686
H128	H	1.832640	-0.448886	-0.191686
