data_functionalizedCrystal
_audit_creation_method	'MofGen! by Chris Wilmer'
_symmetry_space_group_name_H-M	'P1'
_symmetry_Int_Tables_number	1
_symmetry_cell_setting	triclinic
loop_
_symmetry_equiv_pos_as_xyz
  x,y,z
_cell_length_a	15.995350
_cell_length_b	15.944551
_cell_length_c	15.072220
_cell_angle_alpha	89.997918
_cell_angle_beta	89.991149
_cell_angle_gamma	83.495557
loop_
_atom_site_label
_atom_site_type_symbol
_atom_site_fract_x
_atom_site_fract_y
_atom_site_fract_z
O1	O	1.111002	0.108264	-0.073709
O2	O	1.611002	0.608264	0.426291
O3	O	0.867227	0.121634	-0.073728
O4	O	1.367227	0.621634	0.426272
O5	O	0.995772	-0.007326	-0.073710
O6	O	1.495772	0.492674	0.426290
O7	O	0.982458	0.237224	-0.073727
O8	O	1.482458	0.737224	0.426273
O9	O	0.995740	-0.007319	0.073855
O10	O	1.495740	0.492681	0.573855
O11	O	0.867196	0.121641	0.073837
O12	O	1.367196	0.621641	0.573837
O13	O	1.110970	0.108271	0.073856
O14	O	1.610970	0.608271	0.573856
Zn15	Zn	0.989078	0.114957	0.097276
Zn16	Zn	1.489078	0.614957	0.597276
Zn17	Zn	0.989120	0.114948	-0.097148
Zn18	Zn	1.489120	0.614948	0.402852
O19	O	0.982426	0.237232	0.073838
O20	O	1.482426	0.737232	0.573838
C21	C	0.836017	0.121085	0.000053
C22	C	1.336017	0.621085	0.500053
C23	C	0.743066	0.119428	0.000046
C24	C	1.243066	0.619428	0.500046
C25	C	0.405318	0.113477	0.000065
C26	C	0.905318	0.613477	0.500065
C27	C	0.452747	0.021634	0.000400
C28	C	0.952747	0.521634	0.500400
C29	C	0.549438	0.023291	0.000061
C30	C	1.049438	0.523291	0.500061
C31	C	0.572879	0.116429	0.000056
C32	C	1.072879	0.616429	0.500056
C33	C	0.531813	0.161725	-0.084211
C34	C	1.031813	0.661725	0.415789
C35	C	0.435177	0.159417	-0.084275
C36	C	0.935177	0.659417	0.415725
C37	C	0.434802	0.161323	0.083534
C38	C	0.934802	0.661323	0.583534
C39	C	0.531747	0.161301	0.084642
C40	C	1.031747	0.661301	0.584642
C41	C	0.667577	0.118102	0.000048
C42	C	1.167577	0.618102	0.500048
C43	C	0.310620	0.111806	0.000067
C44	C	0.810620	0.611806	0.500067
C45	C	0.995203	-0.038616	0.000073
C46	C	1.495203	0.461384	0.500073
C47	C	0.993546	-0.131862	0.000073
C48	C	1.493546	0.368138	0.500073
C49	C	0.909908	-0.346714	0.000054
C50	C	1.409908	0.153286	0.500054
C51	C	0.948731	-0.407730	0.072816
C52	C	1.448731	0.092270	0.572816
C53	C	0.990548	-0.302588	0.000066
C54	C	1.490548	0.197412	0.500066
C55	C	0.948781	-0.407721	-0.072672
C56	C	1.448781	0.092279	0.427328
C57	C	0.987647	-0.467501	0.000055
C58	C	1.487647	0.032499	0.500055
C59	C	1.029394	-0.362376	0.072888
C60	C	1.529394	0.137624	0.572888
C61	C	1.029433	-0.362360	-0.072665
C62	C	1.529433	0.137640	0.427335
C63	C	1.068315	-0.423358	0.000114
C64	C	1.568315	0.076642	0.500114
C65	C	0.992217	-0.207586	0.000073
C66	C	1.492217	0.292414	0.500073
C67	C	0.985984	-0.562502	0.000055
C68	C	1.485984	-0.062502	0.500055
C69	C	1.142181	0.108821	0.000074
C70	C	1.642181	0.608821	0.500074
C71	C	1.235131	0.110478	0.000075
C72	C	1.735131	0.610478	0.500075
C73	C	0.982995	0.268522	0.000053
C74	C	1.482995	0.768522	0.500053
C75	C	0.984652	0.361768	0.000047
C76	C	1.484652	0.861768	0.500047
N77	N	0.989055	0.114963	0.229965
N78	N	1.489055	0.614963	0.729965
N79	N	0.989149	0.114935	-0.229836
N80	N	1.489149	0.614935	0.270164
C81	C	0.989118	0.114945	0.589166
C82	C	1.489118	0.614945	1.089166
C83	C	0.920105	0.183717	0.551550
C84	C	1.420105	0.683717	1.051550
C85	C	0.920264	0.183968	0.448724
C86	C	1.420264	0.683968	0.948724
C87	C	0.989086	0.114954	0.410962
C88	C	1.489086	0.614954	0.910962
C89	C	1.076452	0.134096	0.448258
C90	C	1.576452	0.634096	0.948258
C91	C	1.076065	0.134585	0.551116
C92	C	1.576065	0.634585	1.051116
C93	C	0.971544	0.026826	0.551271
C94	C	1.471544	0.526826	1.051271
C95	C	0.969539	0.027414	0.448407
C96	C	1.469539	0.527414	0.948407
C97	C	0.989074	0.114958	0.310249
C98	C	1.489074	0.614958	0.810249
C99	C	0.989136	0.114943	0.689879
C100	C	1.489136	0.614943	1.189879
H101	H	0.433164	-0.014912	-0.059693
H102	H	0.933164	0.485088	0.440307
Br103	Br	1.086257	-0.328814	-0.175190
Br104	Br	1.586257	0.171186	0.324810
H105	H	0.547115	0.229220	0.089727
H106	H	1.047115	0.729220	0.589727
Br107	Br	1.086178	-0.329063	0.175527
Br108	Br	1.586178	0.170937	0.675527
H109	H	0.403044	0.229038	0.084100
H110	H	0.903044	0.729038	0.584100
Br111	Br	0.400554	0.111282	0.189993
Br112	Br	0.900554	0.611282	0.689993
H113	H	0.842972	-0.313403	0.000122
H114	H	1.342972	0.186597	0.500122
Br115	Br	0.938560	0.292100	0.594588
Br116	Br	1.438560	0.792100	1.094588
Br117	Br	1.164144	0.054181	0.592594
Br118	Br	1.664144	0.554181	1.092594
H119	H	0.577307	-0.012561	-0.060445
H120	H	1.077307	0.487439	0.439555
H121	H	0.559048	0.128236	0.146982
H122	H	1.059048	0.628236	0.646982
Br123	Br	0.381430	0.271800	-0.090655
Br124	Br	0.881430	0.771800	0.409345
H125	H	1.016539	-0.026161	0.422706
H126	H	1.516539	0.473839	0.922706
H127	H	0.545942	0.230150	-0.087348
H128	H	1.045942	0.730150	0.412652
H129	H	0.914610	-0.427834	0.134325
H130	H	1.414610	0.072166	0.634325
Br131	Br	1.179974	-0.478634	0.000184
Br132	Br	1.679974	0.021366	0.500184
Br133	Br	0.891931	-0.441212	-0.175190
Br134	Br	1.391931	0.058788	0.324810
Br135	Br	0.579120	0.109282	-0.188734
Br136	Br	1.079120	0.609282	0.311266
H137	H	1.092308	0.197628	0.422486
H138	H	1.592308	0.697628	0.922486
Br139	Br	1.164095	0.052829	0.407496
Br140	Br	1.664095	0.552829	0.907496
Br141	Br	0.404676	0.104353	-0.189258
Br142	Br	0.904676	0.604353	0.310742
Br143	Br	0.812009	0.165018	0.406692
Br144	Br	1.312009	0.665018	0.906692
Br145	Br	0.811508	0.165008	0.592787
Br146	Br	1.311508	0.665008	1.092787
Br147	Br	0.938930	0.292970	0.407685
Br148	Br	1.438930	0.792970	0.907685
Br149	Br	1.101877	0.241696	0.591087
Br150	Br	1.601877	0.741696	1.091087
H151	H	0.909220	0.008419	0.577258
H152	H	1.409220	0.508419	1.077258
H153	H	1.021871	-0.024352	0.575596
H154	H	1.521871	0.475648	1.075596
Br155	Br	0.596801	-0.036054	0.100742
Br156	Br	1.096801	0.463946	0.600742
Br157	Br	0.421848	-0.039553	0.101125
Br158	Br	0.921848	0.460447	0.601125
H159	H	0.905272	0.012886	0.424031
H160	H	1.405272	0.512886	0.924031
