data_functionalizedCrystal
_audit_creation_method	'MofGen! by Chris Wilmer'
_symmetry_space_group_name_H-M	'P1'
_symmetry_Int_Tables_number	1
_symmetry_cell_setting	triclinic
loop_
_symmetry_equiv_pos_as_xyz
  x,y,z
_cell_length_a	15.944551
_cell_length_b	17.699083
_cell_length_c	16.776229
_cell_angle_alpha	90.007545
_cell_angle_beta	90.002650
_cell_angle_gamma	83.390876
loop_
_atom_site_label
_atom_site_type_symbol
_atom_site_fract_x
_atom_site_fract_y
_atom_site_fract_z
O1	O	-1.114322	-0.097616	-0.066207
O2	O	-0.869747	-0.109651	-0.066227
O3	O	-0.998944	0.006544	-0.066209
O4	O	-0.985125	-0.213811	-0.066224
O5	O	-0.998927	0.006551	0.066367
O6	O	-0.869730	-0.109643	0.066350
O7	O	-1.114305	-0.097609	0.066370
Zn8	Zn	-0.992015	-0.103625	0.087409
Zn9	Zn	-0.992037	-0.103634	-0.087266
O10	O	-0.985107	-0.213803	0.066352
C11	C	-0.998440	0.034746	0.000079
C12	C	-0.996955	0.118766	0.000079
C13	C	-0.838445	-0.109147	0.000059
C14	C	-0.745203	-0.107650	0.000052
C15	C	-1.145606	-0.098112	0.000082
C16	C	-1.238849	-0.099610	0.000084
C17	C	-0.530505	-0.032046	0.000072
C18	C	-0.469419	-0.067158	-0.065297
C19	C	-0.574482	-0.104940	0.000061
C20	C	-0.469425	-0.067168	0.065413
C21	C	-0.409575	-0.102317	0.000074
C22	C	-0.514625	-0.140071	-0.065362
C23	C	-0.514637	-0.140071	0.065406
C24	C	-0.453569	-0.175235	0.000021
C25	C	-0.669481	-0.106449	0.000053
C26	C	-0.314577	-0.100814	0.000076
C27	C	-0.985611	-0.242005	0.000062
C28	C	-0.987097	-0.326026	0.000057
N29	N	-0.992005	-0.103618	0.206620
C30	C	-1.072791	0.167258	0.000087
C31	C	-1.071390	0.246203	0.000080
C32	C	-0.994152	0.276656	0.000071
C33	C	-0.918310	0.228158	0.000061
C34	C	-0.919712	0.149214	0.000063
C35	C	-0.912656	0.546531	0.000054
C36	C	-0.911260	0.625481	0.000055
C37	C	-1.064334	0.643520	0.000071
C38	C	-1.065735	0.564576	0.000073
C39	C	-0.989894	0.516085	0.000059
C40	C	-0.991414	0.430484	0.000065
C41	C	-0.992632	0.362256	0.000070
N42	N	-0.992053	-0.103635	-0.206477
C43	C	-1.049231	-0.052188	0.248345
C44	C	-1.049236	-0.052187	0.331797
C45	C	-0.992018	-0.103621	0.373523
C46	C	-0.934786	-0.155053	0.331793
C47	C	-0.934778	-0.155050	0.248342
C48	C	-0.934816	-0.155068	0.668340
C49	C	-0.934830	-0.155069	0.751796
C50	C	-1.049274	-0.052206	0.751795
C51	C	-1.049266	-0.052202	0.668345
C52	C	-0.992032	-0.103632	0.626621
C53	C	-0.992026	-0.103631	0.536133
C54	C	-0.992027	-0.103626	0.464010
H55	H	-0.563965	0.028449	-0.000004
H56	H	-0.449396	-0.036320	0.120676
H57	H	-1.126087	0.683011	0.000078
H58	H	-0.848360	0.650272	0.000049
H59	H	-0.449381	-0.036330	-0.120559
H60	H	-0.420283	-0.235793	-0.000020
H61	H	-1.095861	-0.010323	0.634374
H62	H	-0.534555	-0.170882	-0.120688
N63	N	-0.541182	-0.180894	0.138606
H64	H	-0.524924	-0.153313	0.187961
H65	H	-0.604358	-0.182041	0.137727
H66	H	-1.095833	-0.010309	0.365770
N67	N	-0.830859	0.494237	0.000044
H68	H	-0.797162	0.504033	-0.049104
H69	H	-0.797216	0.504064	0.049220
N70	N	-1.156098	0.134415	0.000104
H71	H	-1.203927	0.177116	0.000106
H72	H	-1.160022	0.102046	-0.049042
N73	N	-1.153184	0.298506	0.000092
H74	H	-1.202326	0.267235	0.000105
H75	H	-1.155923	0.331658	0.049240
H76	H	-1.128630	0.539786	0.000084
H77	H	-0.855422	0.252959	0.000049
H78	H	-1.095828	-0.010308	0.214378
H79	H	-0.857958	0.109733	0.000056
H80	H	-1.095875	-0.010327	0.785775
N81	N	-0.873109	-0.210542	0.796804
H82	H	-0.836846	-0.243120	0.757710
H83	H	-0.836051	-0.181536	0.831439
N84	N	-0.873084	-0.210532	0.623344
H85	H	-0.836840	-0.243114	0.662442
H86	H	-0.905156	-0.244013	0.588704
N87	N	-0.873065	-0.210524	0.376792
H88	H	-0.881754	-0.202725	0.435990
H89	H	-0.882650	-0.264223	0.362193
N90	N	-0.873052	-0.210516	0.203334
H91	H	-0.836805	-0.243101	0.242429
H92	H	-0.905129	-0.243995	0.168696
