data_functionalizedCrystal
_audit_creation_method	'MofGen! by Chris Wilmer'
_symmetry_space_group_name_H-M	'P1'
_symmetry_Int_Tables_number	1
_symmetry_cell_setting	triclinic
loop_
_symmetry_equiv_pos_as_xyz
  x,y,z
_cell_length_a	15.625950
_cell_length_b	15.625429
_cell_length_c	9.798715
_cell_angle_alpha	71.919703
_cell_angle_beta	108.069721
_cell_angle_gamma	89.777900
loop_
_atom_site_label
_atom_site_type_symbol
_atom_site_fract_x
_atom_site_fract_y
_atom_site_fract_z
O1	O	1.196215	0.117786	0.420031
O2	O	0.933788	0.131788	0.283269
O3	O	1.072013	-0.006440	0.420060
O4	O	1.057990	0.256014	0.283239
O5	O	1.072003	-0.006440	0.647038
O6	O	0.933778	0.131788	0.510246
O7	O	1.196205	0.117785	0.647008
Zn8	Zn	1.064990	0.124787	0.614665
Zn9	Zn	1.065003	0.124787	0.315612
O10	O	1.057980	0.256013	0.510217
C11	C	0.900198	0.131150	0.380458
C12	C	0.800127	0.129239	0.331894
C13	C	0.470883	0.123003	0.790609
C14	C	0.376849	0.121225	0.744903
C15	C	0.376907	0.121226	0.497484
C16	C	0.470942	0.123008	0.543167
C17	C	0.517924	0.123896	0.689731
C18	C	0.517983	0.123901	0.442289
C19	C	0.612011	0.125679	0.487972
C20	C	0.658999	0.126563	0.634531
C21	C	0.611952	0.125673	0.735414
C22	C	0.471001	0.123008	0.295729
C23	C	0.518041	0.123900	0.194852
C24	C	0.612070	0.125684	0.240530
C25	C	0.659058	0.126569	0.387089
C26	C	0.659117	0.126575	0.139647
C27	C	0.753146	0.128352	0.185329
C28	C	0.753087	0.128346	0.432771
C29	C	1.071373	-0.040028	0.549854
C30	C	1.069471	-0.140110	0.598433
C31	C	1.063217	-0.469267	0.139614
C32	C	1.061426	-0.563308	0.185301
C33	C	1.061415	-0.563295	0.432736
C34	C	1.063211	-0.469252	0.387072
C35	C	1.064111	-0.422245	0.240509
C36	C	1.064104	-0.422230	0.487967
C37	C	1.065895	-0.328195	0.442303
C38	C	1.066793	-0.281181	0.295744
C39	C	1.065902	-0.328210	0.194845
C40	C	1.063198	-0.469238	0.634526
C41	C	1.064091	-0.422217	0.735420
C42	C	1.065889	-0.328180	0.689761
C43	C	1.066786	-0.281167	0.543202
C44	C	1.066780	-0.281152	0.790660
C45	C	1.068571	-0.187117	0.744996
C46	C	1.068577	-0.187131	0.497538
C47	C	1.229795	0.118423	0.549817
C48	C	1.329866	0.120334	0.598371
C49	C	1.058620	0.289601	0.380420
C50	C	1.060522	0.389683	0.331832
N51	N	1.064987	0.124786	0.818764
N52	N	1.065013	0.124781	0.111521
C53	C	1.123026	0.066494	0.944102
C54	C	1.123040	0.066491	1.101273
H55	H	0.479777	0.123174	0.075520
H56	H	0.509136	0.123739	0.909948
H57	H	0.338642	0.120499	0.378153
C58	C	0.325107	0.120247	0.855882
C59	C	0.270582	0.040803	0.902229
C60	C	0.218842	0.039823	1.013208
C61	C	0.221626	0.118287	1.077840
C62	C	0.276153	0.197737	1.031494
C63	C	0.327893	0.198717	0.920515
H64	H	0.268519	-0.017286	0.854384
H65	H	0.178478	-0.018991	1.047517
H66	H	0.183325	0.117561	1.159994
H67	H	0.278216	0.255825	1.079339
H68	H	0.368257	0.257531	0.886207
H69	H	1.015324	0.174693	1.003961
C70	C	0.997870	0.192207	0.830972
C71	C	0.895173	0.190800	0.761379
C72	C	0.828054	0.258224	0.773581
C73	C	0.863631	0.327053	0.855376
C74	C	0.966333	0.328462	0.924975
C75	C	1.033452	0.261039	0.912773
H76	H	0.868832	0.139846	0.700825
H77	H	0.752027	0.257180	0.722060
H78	H	0.813945	0.376964	0.864409
H79	H	0.992674	0.379417	0.985529
H80	H	1.109479	0.262083	0.964295
C81	C	1.190172	-0.000934	1.246582
C82	C	1.190119	-0.000812	1.403652
C83	C	1.257253	-0.068239	1.548965
C84	C	1.324440	-0.135787	1.537209
C85	C	1.324495	-0.135911	1.380132
C86	C	1.257361	-0.068484	1.234819
H87	H	1.140382	0.049193	1.412361
H88	H	1.257212	-0.068147	1.665244
H89	H	1.374137	-0.185701	1.644779
H90	H	1.374233	-0.185917	1.371423
H91	H	1.257402	-0.068577	1.118540
H92	H	0.394436	0.121565	0.258537
C93	C	0.804900	0.129339	0.074371
C94	C	0.802125	0.050879	0.009733
C95	C	0.853882	0.051861	-0.101224
C96	C	0.908414	0.131304	-0.147543
C97	C	0.911191	0.209770	-0.082904
C98	C	0.859434	0.208787	0.028052
H99	H	0.761756	-0.007935	0.044020
H100	H	0.851826	-0.006225	-0.149074
H101	H	0.946727	0.132032	-0.229680
H102	H	0.951560	0.268584	-0.117192
H103	H	0.861490	0.266874	0.075902
C104	C	1.069557	-0.135383	0.855974
C105	C	0.992572	-0.060599	0.814893
C106	C	0.993553	-0.008863	0.925868
C107	C	1.071519	-0.031911	1.077925
C108	C	1.148510	-0.106700	1.119013
C109	C	1.147529	-0.158436	1.008038
H110	H	0.934851	-0.043533	0.702325
H111	H	0.936559	0.046501	0.895451
H112	H	1.072245	0.006387	1.160075
H113	H	1.206230	-0.123765	1.231581
H114	H	1.204523	-0.213799	1.038455
H115	H	1.060678	-0.601580	0.552067
H116	H	0.791340	0.129083	0.552111
H117	H	0.650205	0.126409	0.854753
H118	H	0.735563	0.128010	0.671724
H119	H	0.620852	0.125843	0.020319
H120	H	1.068241	-0.204610	0.258562
H121	H	1.069318	-0.148857	0.378197
H122	H	1.066643	-0.289935	0.075503
H123	H	1.063958	-0.430992	0.020272
H124	H	1.060690	-0.601589	0.103125
H125	H	1.061729	-0.545807	0.671695
H126	H	1.063355	-0.460502	0.854751
H127	H	1.066038	-0.319438	0.909987
H128	H	1.172702	0.016586	0.935054
