data_functionalizedCrystal
_audit_creation_method	'MofGen! by Chris Wilmer'
_symmetry_space_group_name_H-M	'P1'
_symmetry_Int_Tables_number	1
_symmetry_cell_setting	triclinic
loop_
_symmetry_equiv_pos_as_xyz
  x,y,z
_cell_length_a	14.446369
_cell_length_b	20.875641
_cell_length_c	20.875641
_cell_angle_alpha	60.089808
_cell_angle_beta	90.002056
_cell_angle_gamma	62.438463
loop_
_atom_site_label
_atom_site_type_symbol
_atom_site_fract_x
_atom_site_fract_y
_atom_site_fract_z
Zr1	Zr	0.934142	0.694313	-0.105746
O2	O	0.798485	0.820558	-0.209014
O3	O	0.970653	0.563057	-0.070814
O4	O	0.984286	0.687080	-0.204286
O5	O	0.779872	0.703989	0.026017
O6	O	1.136622	0.687074	-0.204282
O7	O	0.784852	0.696536	-0.075542
O8	O	1.112236	0.465220	0.034475
O9	O	0.804259	0.925843	-0.212740
O10	O	1.106044	0.618896	-0.059870
O11	O	0.988640	0.624463	0.015919
O12	O	1.004691	0.770484	-0.141226
O13	O	0.887287	0.776051	-0.065437
Zr14	Zr	1.169159	0.706192	0.056235
Zr15	Zr	1.177102	0.694305	-0.105740
Zr16	Zr	0.926200	0.706201	0.056229
Zr17	Zr	0.943351	0.862231	-0.111689
Zr18	Zr	1.159951	0.538275	0.062177
O19	O	1.132649	0.837449	0.021302
O20	O	1.143942	0.820546	-0.209005
O21	O	0.787192	0.837461	0.021293
O22	O	1.304817	0.579947	0.159503
O23	O	1.316110	0.563044	-0.070805
O24	O	0.959360	0.579959	0.159494
O25	O	1.323429	0.696516	-0.075528
O26	O	1.119016	0.713426	0.154774
O27	O	0.966680	0.713431	0.154770
O28	O	1.318450	0.703970	0.026031
O29	O	0.997379	0.925836	-0.212735
O30	O	1.105923	0.474669	0.163223
O31	O	1.299043	0.474662	0.163228
O32	O	1.305356	0.465213	0.034480
O33	O	0.797946	0.935292	-0.083991
O34	O	0.991066	0.935285	-0.083986
O35	O	1.098611	0.630021	0.091715
O36	O	1.216015	0.624455	0.015925
O37	O	1.114662	0.776042	-0.065431
O38	O	0.997258	0.781609	0.010358
C39	C	1.040133	0.490214	-0.017323
C40	C	1.036223	0.418928	-0.014800
C41	C	1.095667	0.382533	-0.053176
C42	C	1.091996	0.315548	-0.050799
C43	C	1.028875	0.284965	-0.010049
C44	C	0.969429	0.321364	0.028332
C45	C	0.973107	0.388343	0.025958
C46	C	1.011310	0.084955	0.001296
C47	C	1.007635	0.017973	0.003665
C48	C	1.130204	0.012161	-0.075465
C49	C	1.133871	0.079145	-0.077839
C50	C	1.074430	0.115534	-0.039454
N51	N	1.025119	0.216498	-0.007620
N52	N	1.078193	0.183996	-0.041880
C53	C	0.747746	0.700264	-0.024764
C54	C	0.644603	0.700267	-0.024766
C55	C	0.434001	0.795881	-0.075837
C56	C	0.541250	0.795928	-0.076106
C57	C	0.640290	0.648478	-0.057892
C58	C	0.532572	0.649081	-0.058263
C59	C	0.528052	0.655679	0.059517
C60	C	0.634130	0.657537	0.059321
C61	C	1.355556	0.700242	-0.024748
C62	C	1.458699	0.700238	-0.024745
C63	C	1.061585	0.685383	-0.227362
C64	C	1.064957	0.680336	-0.296124
C65	C	1.063169	0.910292	-0.032189
C66	C	1.067079	0.981577	-0.034711
C67	C	1.013638	0.757091	-0.370896
C68	C	1.016820	0.752344	-0.435503
C69	C	1.071316	0.670842	-0.425337
C70	C	1.122642	0.594082	-0.350557
C71	C	1.119465	0.598830	-0.285952
C72	C	1.086495	0.648157	-0.614002
C73	C	1.089664	0.643415	-0.678615
C74	C	0.983844	0.801677	-0.763557
C75	C	0.980667	0.806418	-0.698947
C76	C	1.031998	0.729658	-0.624173
N77	N	1.074567	0.665987	-0.491374
N78	N	1.028752	0.734513	-0.558137
C79	C	1.041716	0.715122	0.177850
C80	C	1.038345	0.720169	0.246613
C81	C	1.344038	0.490203	-0.017315
C82	C	1.443271	0.418914	-0.014790
C83	C	1.030198	0.505083	0.185283
C84	C	1.022917	0.438845	0.256568
C85	C	1.334103	0.505072	0.185291
C86	C	1.429965	0.438830	0.256579
C87	C	0.769199	0.895433	-0.234802
C88	C	0.673337	0.961675	-0.306090
C89	C	0.759264	0.910303	-0.032197
C90	C	0.660031	0.981592	-0.034722
C91	C	1.073104	0.895422	-0.234795
C92	C	1.080385	0.961661	-0.306080
C93	C	1.432469	0.382534	-0.053175
C94	C	1.525701	0.315558	-0.050818
C95	C	1.629734	0.284960	-0.010070
C96	C	1.640534	0.321347	0.028316
C97	C	1.547303	0.388325	0.025954
C98	C	1.076901	0.410640	0.329616
C99	C	1.070056	0.348412	0.396602
C100	C	1.009232	0.314384	0.390539
C101	C	0.955242	0.342595	0.317483
C102	C	0.962081	0.404827	0.250499
C103	C	1.536276	0.404816	0.250495
C104	C	1.626358	0.342583	0.317471
C105	C	1.610127	0.314361	0.390530
C106	C	1.503805	0.348381	0.396612
C107	C	1.413725	0.410617	0.329637
C108	C	0.567026	0.995697	-0.300007
C109	C	0.476945	1.057951	-0.366984
C110	C	0.493177	1.086177	-0.440043
C111	C	0.599499	1.052152	-0.446125
C112	C	0.689578	0.989905	-0.379149
C113	C	0.670834	1.017978	0.003656
C114	C	0.577604	1.084971	0.001281
C115	C	0.473571	1.115571	-0.039469
C116	C	0.462770	1.079182	-0.077852
C117	C	0.556000	1.012195	-0.075481
C118	C	1.141217	0.995669	-0.299992
C119	C	1.148080	1.057899	-0.366965
C120	C	1.094103	1.086124	-0.440026
C121	C	1.033268	1.052109	-0.446113
C122	C	1.026412	0.989876	-0.379140
H123	H	1.185269	0.104044	-0.111020
H124	H	0.549740	0.585265	0.097723
H125	H	0.553789	0.972719	-0.240524
H126	H	1.185173	0.972698	-0.240508
H127	H	0.612702	1.075142	-0.505618
C128	C	0.360004	1.095359	-0.360280
H129	H	0.363247	1.069618	-0.307174
H130	H	0.324346	1.156866	-0.386064
H131	H	0.320282	1.082653	-0.383453
C132	C	0.902707	0.435840	0.170150
H133	H	0.915479	0.477780	0.131118
H134	H	0.929659	0.387329	0.166199
H135	H	0.826339	0.461559	0.163558
C136	C	1.149583	0.553759	-0.667429
H137	H	1.179698	0.508723	-0.613644
H138	H	1.099308	0.548638	-0.690869
H139	H	1.206716	0.548602	-0.690866
H140	H	0.419819	1.136864	-0.494573
C141	C	1.165099	0.416172	-0.098001
H142	H	1.158770	0.461281	-0.093926
H143	H	1.239577	0.369518	-0.076760
H144	H	1.139769	0.438485	-0.150980
H145	H	1.347769	0.407445	-0.086366
H146	H	0.776139	0.962204	-0.384111
C147	C	0.973888	1.083171	-0.526482
H148	H	0.986679	1.125113	-0.565491
H149	H	1.000819	1.034682	-0.530464
H150	H	0.897518	1.108902	-0.533080
C151	C	1.559193	0.428339	0.068180
H152	H	1.488776	0.472617	0.060937
H153	H	1.594282	0.384066	0.121930
H154	H	1.601852	0.453034	0.047709
C155	C	1.554152	0.435852	0.170139
H156	H	1.630375	0.406682	0.176119
H157	H	1.519536	0.422903	0.143675
H158	H	1.523594	0.497123	0.141054
H159	H	1.126430	0.438339	0.334567
C160	C	0.544857	0.842403	-0.160148
H161	H	0.480711	0.861320	-0.194256
H162	H	0.548536	0.891501	-0.172915
H163	H	0.607546	0.803048	-0.165123
C164	C	1.485964	0.317322	0.476980
H165	H	1.554843	0.275377	0.515991
H166	H	1.448056	0.365811	0.480962
H167	H	1.443999	0.291595	0.483574
C168	C	0.938202	-0.015672	0.048492
H169	H	0.944517	-0.060767	0.044398
H170	H	0.963525	-0.037988	0.101468
H171	H	0.863718	0.030986	0.027248
C172	C	0.371028	1.189254	-0.042070
H173	H	0.392370	1.206532	-0.013369
H174	H	0.332517	1.237821	-0.094323
H175	H	0.324942	1.168855	-0.020103
C176	C	0.733149	0.563603	0.114705
H177	H	0.782390	0.549148	0.087146
H178	H	0.769381	0.559544	0.155765
H179	H	0.708762	0.524157	0.135359
H180	H	1.683485	0.263683	0.445060
C181	C	1.296785	0.448023	0.336335
H182	H	1.245452	0.489135	0.285987
H183	H	1.284350	0.401899	0.364888
H184	H	1.288406	0.476125	0.362255
C185	C	0.888345	0.305158	0.310820
H186	H	0.857162	0.330868	0.257722
H187	H	0.934955	0.243649	0.336628
H188	H	0.831632	0.317874	0.333991
H189	H	1.516886	0.285940	-0.082076
H190	H	0.755534	0.993069	0.036845
C191	C	1.732281	0.211279	-0.007468
H192	H	1.795792	0.198264	0.022294
H193	H	1.728367	0.160581	0.015559
H194	H	1.735953	0.229543	-0.058657
H195	H	0.586419	1.114589	0.032540
H196	H	0.540481	0.836454	-0.054274
H197	H	1.725250	0.296423	0.061492
C198	C	0.348331	1.112843	-0.122667
H199	H	0.294362	1.157941	-0.118570
H200	H	0.343793	1.135157	-0.175645
H201	H	0.336228	1.066192	-0.101417
C202	C	0.544102	0.972166	-0.117689
H203	H	0.468789	0.999982	-0.142287
H204	H	0.581872	0.980384	-0.155519
H205	H	0.574285	0.911434	-0.081292
H206	H	1.114027	0.325450	0.456080
H207	H	1.140401	0.285915	-0.082047
H208	H	1.197616	1.085587	-0.361995
H209	H	1.099693	1.136799	-0.494554
H210	H	1.003672	0.263712	0.445088
C211	C	0.959478	0.952484	-0.385847
H212	H	0.928308	0.978219	-0.438953
H213	H	1.006057	0.890975	-0.360052
H214	H	0.902755	0.965210	-0.362686
C215	C	0.945916	0.124983	0.043509
H216	H	0.907788	0.097181	0.068108
H217	H	0.994697	0.116752	0.081338
H218	H	0.894897	0.185718	0.007114
C219	C	0.362437	0.850758	-0.046273
H220	H	0.346970	0.815837	-0.002510
H221	H	0.400347	0.870845	-0.031969
H222	H	0.295820	0.899443	-0.086104
C223	C	1.743300	0.305143	0.310772
H224	H	1.794631	0.264036	0.361120
H225	H	1.751650	0.277043	0.284857
H226	H	1.755765	0.351252	0.282215
H227	H	1.178600	-0.017475	-0.106715
C228	C	0.953692	0.846742	-0.382082
H229	H	0.959140	0.838579	-0.332897
H230	H	0.986163	0.878475	-0.410118
H231	H	0.878779	0.878476	-0.410123
H232	H	0.924698	0.417978	0.057206
C233	C	0.899995	0.287726	0.073154
H234	H	0.906308	0.242629	0.069065
H235	H	0.925314	0.265415	0.126130
H236	H	0.825513	0.334387	0.051905
H237	H	0.384105	0.830161	-0.137676
C238	C	0.561029	0.554044	-0.011004
H239	H	0.495451	0.553769	-0.010909
H240	H	0.602589	0.524950	-0.033669
H241	H	0.602593	0.524787	0.040724
C242	C	0.471169	0.690320	-0.141915
H243	H	0.404931	0.691045	-0.142878
H244	H	0.455023	0.748423	-0.174054
H245	H	0.515674	0.656917	-0.160416
C246	C	0.738437	0.553246	-0.009850
H247	H	0.783026	0.544205	0.030932
H248	H	0.712645	0.514769	0.011367
H249	H	0.780206	0.542018	-0.042212
C250	C	0.649677	0.688712	-0.140734
H251	H	0.656225	0.737055	-0.155256
H252	H	0.712481	0.646056	-0.142490
H253	H	0.586095	0.707867	-0.175570
H254	H	0.478340	0.689536	0.087523
H255	H	0.975033	0.814845	-0.496384
C256	C	0.634364	0.708604	0.092802
H257	H	0.628001	0.682442	0.143674
H258	H	0.700862	0.707444	0.094549
H259	H	0.574356	0.767434	0.060840
C260	C	0.920732	0.896068	-0.710131
H261	H	0.926183	0.887902	-0.660945
H262	H	0.953204	0.927801	-0.738167
H263	H	0.845817	0.927805	-0.738171
C264	C	1.142944	0.563725	-0.531761
H265	H	1.175841	0.514508	-0.534962
H266	H	1.197598	0.562279	-0.504786
H267	H	1.090206	0.562290	-0.504798
C268	C	1.182583	0.504431	-0.339373
H269	H	1.177116	0.512595	-0.388558
H270	H	1.257492	0.472692	-0.311331
H271	H	1.150102	0.472702	-0.311336
C272	C	1.175912	0.514400	-0.203702
H273	H	1.208814	0.465180	-0.206899
H274	H	1.230562	0.512960	-0.176731
H275	H	1.123174	0.512966	-0.176739
C276	C	0.927390	0.886108	-0.845804
H277	H	0.894474	0.935326	-0.842605
H278	H	0.980116	0.887546	-0.872772
H279	H	0.872731	0.887547	-0.872773
