data_functionalizedCrystal
_audit_creation_method	'MofGen! by Chris Wilmer'
_symmetry_space_group_name_H-M	'P1'
_symmetry_Int_Tables_number	1
_symmetry_cell_setting	triclinic
loop_
_symmetry_equiv_pos_as_xyz
  x,y,z
_cell_length_a	10.686220
_cell_length_b	14.908178
_cell_length_c	10.686551
_cell_angle_alpha	82.564310
_cell_angle_beta	90.307919
_cell_angle_gamma	97.932411
loop_
_atom_site_label
_atom_site_type_symbol
_atom_site_fract_x
_atom_site_fract_y
_atom_site_fract_z
Zn1	Zn	1.953097	-0.221913	-0.545924
Zn2	Zn	2.453097	0.278087	-0.045924
Zn3	Zn	1.922620	-0.386668	-0.323938
Zn4	Zn	2.422620	0.113332	0.176062
Zn5	Zn	1.725202	-0.245199	-0.350512
Zn6	Zn	2.225202	0.254801	0.149488
Zn7	Zn	1.729210	-0.384824	-0.549852
Zn8	Zn	2.229210	0.115176	-0.049852
O9	O	1.832532	-0.309651	-0.442557
O10	O	2.332532	0.190349	0.057443
O11	O	2.125372	-0.234795	-0.503711
O12	O	2.625372	0.265205	-0.003711
O13	O	1.882000	-0.378419	-0.151138
O14	O	2.382000	0.121581	0.348862
O15	O	1.766510	-0.114727	-0.385911
O16	O	2.266510	0.385273	0.114089
O17	O	2.102981	-0.355840	-0.340620
O18	O	2.602981	0.144160	0.159380
O19	O	1.933944	-0.097619	-0.529479
O20	O	2.433944	0.402381	-0.029479
O21	O	1.736958	-0.274482	-0.170661
O22	O	2.236958	0.225518	0.329339
O23	O	1.549416	-0.272694	-0.389721
O24	O	2.049416	0.227306	0.110279
O25	O	1.773341	-0.352696	-0.725657
O26	O	2.273341	0.147304	-0.225657
O27	O	1.552360	-0.375276	-0.536175
O28	O	2.052360	0.124724	-0.036175
O29	O	1.937830	-0.233007	-0.722771
O30	O	2.437830	0.266993	-0.222771
O31	O	1.885886	-0.513807	-0.344429
O32	O	2.385886	-0.013807	0.155571
O33	O	1.743789	-0.512452	-0.510407
O34	O	2.243789	-0.012452	-0.010407
C35	C	1.505171	-0.326312	-0.466259
C36	C	2.005171	0.173688	0.033741
C37	C	1.365124	-0.333460	-0.476426
C38	C	1.865124	0.166540	0.023574
C39	C	1.812002	-0.546156	-0.424986
C40	C	2.312002	-0.046156	0.075014
C41	C	1.803337	-0.647325	-0.417503
C42	C	2.303337	-0.147325	0.082497
C43	C	1.961297	-0.819464	-0.553120
C44	C	2.461297	-0.319464	-0.053120
C45	C	1.953160	-0.914521	-0.546093
C46	C	2.453160	-0.414521	-0.046093
C47	C	1.778924	-0.932497	-0.396429
C48	C	2.278924	-0.432497	0.103571
C49	C	1.787060	-0.837440	-0.403456
C50	C	2.287060	-0.337440	0.096544
C51	C	1.878251	-0.780927	-0.481803
C52	C	2.378251	-0.280927	0.018197
C53	C	1.886392	-0.685868	-0.488823
C54	C	2.386392	-0.185868	0.011177
C55	C	1.712150	-0.703846	-0.339166
C56	C	2.212150	-0.203846	0.160834
C57	C	1.704014	-0.798903	-0.332139
C58	C	2.204014	-0.298903	0.167861
C59	C	2.161172	-0.292926	-0.418763
C60	C	2.661172	0.207074	0.081237
C61	C	2.301219	-0.285798	-0.408624
C62	C	2.801219	0.214202	0.091376
C63	C	1.859432	-0.290048	-0.771212
C64	C	2.359432	0.209952	-0.271212
C65	C	1.870895	-0.281695	-0.911265
C66	C	2.370895	0.218305	-0.411265
C67	C	1.853180	-0.072220	-0.460221
C68	C	2.353180	0.427780	0.039779
C69	C	1.861978	0.028959	-0.467749
C70	C	2.361978	0.528959	0.032251
C71	C	1.805815	-0.329108	-0.115180
C72	C	2.305815	0.170892	0.384820
C73	C	1.794618	-0.337193	0.024871
C74	C	2.294618	0.162807	0.524871
H75	H	1.312697	-0.379735	-0.542252
H76	H	1.812697	0.120265	-0.042252
H77	H	1.644532	-0.672459	-0.281091
H78	H	2.144532	-0.172459	0.218909
C79	C	1.372050	-0.223278	-0.319687
C80	C	1.872050	0.276722	0.180313
N81	N	1.425401	-0.176187	-0.252705
N82	N	1.925401	0.323813	0.247295
H83	H	1.960647	-0.639855	-0.552613
H84	H	2.460647	-0.139855	-0.052613
H85	H	2.035556	-0.773450	-0.616904
H86	H	2.535556	-0.273450	-0.116904
H87	H	2.020779	-0.945894	-0.604174
H88	H	2.520779	-0.445894	-0.104174
C89	C	1.678759	-0.994679	-0.310095
C90	C	2.178759	-0.494679	0.189905
N91	N	1.603367	-1.041516	-0.245007
N92	N	2.103367	-0.541516	0.254993
C93	C	1.694543	-0.410017	-0.904248
C94	C	2.194543	0.089983	-0.404248
N95	N	1.619162	-0.464867	-0.850853
N96	N	2.119162	0.035133	-0.350853
C97	C	1.970972	-0.208865	-0.982151
C98	C	2.470972	0.291135	-0.482151
N99	N	2.046346	-0.154008	-1.035544
N100	N	2.546346	0.345992	-0.535544
H101	H	1.629766	-0.844929	-0.268355
H102	H	2.129766	-0.344929	0.231645
