data_functionalizedCrystal
_audit_creation_method	'MofGen! by Chris Wilmer'
_symmetry_space_group_name_H-M	'P1'
_symmetry_Int_Tables_number	1
_symmetry_cell_setting	triclinic
loop_
_symmetry_equiv_pos_as_xyz
  x,y,z
_cell_length_a	14.519709
_cell_length_b	27.732048
_cell_length_c	13.596369
_cell_angle_alpha	89.989067
_cell_angle_beta	90.000291
_cell_angle_gamma	83.161400
loop_
_atom_site_label
_atom_site_type_symbol
_atom_site_fract_x
_atom_site_fract_y
_atom_site_fract_z
O1	O	1.222766	0.063362	-0.081675
O2	O	1.722766	0.563362	0.418325
O3	O	0.954159	0.070824	-0.081706
O4	O	1.454159	0.570824	0.418294
O5	O	1.096805	-0.003264	-0.081671
O6	O	1.596805	0.496736	0.418329
O7	O	1.080120	0.137450	-0.081710
O8	O	1.580120	0.637450	0.418290
O9	O	1.096791	-0.003268	0.081912
O10	O	1.596791	0.496732	0.581912
O11	O	0.954145	0.070820	0.081877
O12	O	1.454145	0.570820	0.581877
O13	O	1.222752	0.063358	0.081908
O14	O	1.722752	0.563358	0.581908
Zn15	Zn	1.088446	0.067088	0.107865
Zn16	Zn	1.588446	0.567088	0.607865
Zn17	Zn	1.088465	0.067094	-0.107663
Zn18	Zn	1.588465	0.567094	0.392337
O19	O	1.080106	0.137446	0.081873
O20	O	1.580106	0.637446	0.581873
C21	C	0.919799	0.070474	0.000082
C22	C	1.419799	0.570474	0.500082
C23	C	0.817435	0.069432	0.000071
C24	C	1.317435	0.569432	0.500071
C25	C	0.442606	0.065596	0.000116
C26	C	0.942606	0.565596	0.500116
C27	C	0.546896	0.066661	0.000103
C28	C	1.046896	0.566661	0.500103
C29	C	0.630018	0.067514	0.000093
C30	C	1.130018	0.567514	0.500093
C31	C	0.734314	0.068579	0.000081
C32	C	1.234314	0.568579	0.500081
C33	C	1.096448	-0.021274	0.000124
C34	C	1.596448	0.478726	0.500124
C35	C	1.095393	-0.074934	0.000132
C36	C	1.595393	0.425066	0.500132
C37	C	1.173048	-0.413378	0.000090
C38	C	1.673048	0.086622	0.500090
C39	C	1.169135	-0.615057	0.000076
C40	C	1.669135	-0.115057	0.500076
O41	O	1.240145	-0.645973	0.000041
O42	O	1.740145	-0.145973	0.500041
N43	N	1.084552	-0.634585	0.000067
N44	N	1.584552	-0.134585	0.500067
C45	C	1.000941	-0.603690	0.000055
C46	C	1.500941	-0.103690	0.500055
O47	O	0.928909	-0.624927	0.000037
O48	O	1.428909	-0.124927	0.500037
C49	C	1.004855	-0.402012	0.000062
C50	C	1.504855	0.097988	0.500062
C51	C	1.089444	-0.382487	0.000081
C52	C	1.589444	0.117513	0.500081
C53	C	1.257630	-0.393853	0.000108
C54	C	1.757630	0.106147	0.500108
C55	C	1.258607	-0.343436	0.000117
C56	C	1.758607	0.156564	0.500117
C57	C	1.175003	-0.312545	0.000108
C58	C	1.675003	0.187455	0.500108
C59	C	1.090421	-0.332071	0.000090
C60	C	1.590421	0.167929	0.500090
C61	C	0.921246	-0.371118	0.000043
C62	C	1.421246	0.128882	0.500043
C63	C	0.922232	-0.320696	0.000043
C64	C	1.422232	0.179304	0.500043
C65	C	1.006820	-0.301171	0.000062
C66	C	1.506820	0.198829	0.500062
C67	C	1.007794	-0.250763	0.000090
C68	C	1.507794	0.249237	0.500090
N69	N	1.092377	-0.231235	0.000099
N70	N	1.592377	0.268765	0.500099
C71	C	1.175981	-0.262126	0.000108
C72	C	1.675981	0.237874	0.500108
C73	C	0.998893	-0.709574	0.000053
C74	C	1.498893	-0.209574	0.500053
C75	C	0.997914	-0.759993	0.000053
C76	C	1.497914	-0.259993	0.500053
C77	C	1.166108	-0.771356	0.000072
C78	C	1.666108	-0.271356	0.500072
C79	C	1.167086	-0.720936	0.000079
C80	C	1.667086	-0.220936	0.500079
C81	C	1.083476	-0.690045	0.000062
C82	C	1.583476	-0.190045	0.500062
C83	C	1.178028	-0.156247	0.000128
C84	C	1.678028	0.343753	0.500128
C85	C	1.178998	-0.105825	0.000141
C86	C	1.678998	0.394175	0.500141
C87	C	1.010804	-0.094466	0.000116
C88	C	1.510804	0.405534	0.500116
C89	C	1.009833	-0.144883	0.000109
C90	C	1.509833	0.355117	0.500109
C91	C	1.093453	-0.175773	0.000111
C92	C	1.593453	0.324227	0.500111
O93	O	0.936822	-0.219818	0.000114
O94	O	1.436822	0.280182	0.500114
O95	O	1.248004	-0.240879	0.000104
O96	O	1.748004	0.259121	0.500104
C97	C	1.172071	-0.463795	0.000081
C98	C	1.672071	0.036205	0.500081
C99	C	1.087489	-0.483320	0.000063
C100	C	1.587489	0.016680	0.500063
C101	C	1.003885	-0.452429	0.000054
C102	C	1.503885	0.047571	0.500054
C103	C	1.086510	-0.533740	0.000063
C104	C	1.586510	-0.033740	0.500063
C105	C	1.170115	-0.564631	0.000072
C106	C	1.670115	-0.064631	0.500072
C107	C	1.254698	-0.545103	0.000081
C108	C	1.754698	-0.045103	0.500081
C109	C	1.255675	-0.494686	0.000090
C110	C	1.755675	0.005314	0.500090
C111	C	0.919302	-0.471957	0.000046
C112	C	1.419302	0.028043	0.500046
C113	C	0.918331	-0.522375	0.000038
C114	C	1.418331	-0.022375	0.500038
C115	C	1.001936	-0.553266	0.000047
C116	C	1.501936	-0.053266	0.500047
C117	C	1.257113	0.063708	0.000119
C118	C	1.757113	0.563708	0.500119
C119	C	1.359476	0.064750	0.000123
C120	C	1.859476	0.564750	0.500123
C121	C	1.080464	0.155456	0.000077
C122	C	1.580464	0.655456	0.500077
C123	C	1.081518	0.209116	0.000062
C124	C	1.581518	0.709116	0.500062
N125	N	1.088441	0.067085	0.254957
N126	N	1.588441	0.567085	0.754957
N127	N	1.088478	0.067094	-0.254754
N128	N	1.588478	0.567094	0.245246
C129	C	1.088464	0.067094	0.656248
C130	C	1.588464	0.567094	1.156248
C131	C	1.088454	0.067093	0.544596
C132	C	1.588454	0.567093	1.044596
C133	C	1.088453	0.067090	0.455606
C134	C	1.588453	0.567090	0.955606
C135	C	1.088442	0.067088	0.343947
C136	C	1.588442	0.567088	0.843947
H137	H	1.246119	-0.181392	0.000126
H138	H	1.746119	0.318608	0.500126
H139	H	1.327488	-0.327544	0.000128
H140	H	1.827488	0.172456	0.500128
N141	N	1.343046	-0.425396	0.000110
N142	N	1.843046	0.074604	0.500110
N143	N	1.418551	-0.407946	0.000123
N144	N	1.918551	0.092054	0.500123
H145	H	1.478883	-0.430220	0.000130
H146	H	1.978883	0.069780	0.500130
H147	H	0.942736	-0.069306	0.000113
H148	H	1.442736	0.430694	0.500113
H149	H	0.854144	-0.295547	0.000027
H150	H	1.354144	0.204453	0.500027
N151	N	0.923442	-0.164842	0.000109
N152	N	1.423442	0.335158	0.500109
N153	N	0.904132	-0.191721	0.069052
N154	N	1.404132	0.308279	0.569052
H155	H	0.843118	-0.205815	0.069046
H156	H	1.343118	0.294185	0.569046
H157	H	1.247882	-0.089931	0.000158
H158	H	1.747882	0.410069	0.500158
H159	H	0.849444	-0.538266	0.000031
H160	H	1.349444	-0.038266	0.500031
H161	H	1.322771	-0.570263	0.000093
H162	H	1.822771	-0.070263	0.500093
N163	N	1.253491	-0.700995	0.000071
N164	N	1.753491	-0.200995	0.500071
N165	N	1.272813	-0.674127	-0.068887
N166	N	1.772813	-0.174127	0.431113
H167	H	1.333840	-0.660045	-0.068897
H168	H	1.833840	-0.160045	0.431103
H169	H	0.851220	-0.446810	0.000036
H170	H	1.351220	0.053190	0.500036
N171	N	1.251501	-0.802923	0.000089
N172	N	1.751501	-0.302923	0.500089
N173	N	1.250604	-0.847938	0.000090
N174	N	1.750604	-0.347938	0.500090
H175	H	1.310908	-0.870234	0.000098
H176	H	1.810908	-0.370234	0.500098
N177	N	0.911501	-0.779926	0.000057
N178	N	1.411501	-0.279926	0.500057
N179	N	0.836865	-0.752333	0.000050
N180	N	1.336865	-0.252333	0.500050
H181	H	0.775831	-0.766408	0.000049
H182	H	1.275831	-0.266408	0.500049
N183	N	1.342081	-0.474746	0.000124
N184	N	1.842081	0.025254	0.500124
N185	N	1.398270	-0.484194	0.069087
N186	N	1.898270	0.015806	0.569087
H187	H	1.459299	-0.470114	0.069111
H188	H	1.959299	0.029886	0.569111
N189	N	0.913472	-0.678030	0.000036
N190	N	1.413472	-0.178030	0.500036
N191	N	0.837965	-0.695478	0.000030
N192	N	1.337965	-0.195478	0.500030
H193	H	0.777635	-0.673203	0.000022
H194	H	1.277635	-0.173203	0.500022
N195	N	0.834840	-0.391055	-0.000005
N196	N	1.334840	0.108945	0.499995
N197	N	0.815539	-0.417909	-0.068974
N198	N	1.315539	0.082091	0.431026
H199	H	0.754510	-0.431989	-0.069012
H200	H	1.254510	0.068011	0.430988
