data_functionalizedCrystal
_audit_creation_method	'MofGen! by Chris Wilmer'
_symmetry_space_group_name_H-M	'P1'
_symmetry_Int_Tables_number	1
_symmetry_cell_setting	triclinic
loop_
_symmetry_equiv_pos_as_xyz
  x,y,z
_cell_length_a	12.759401
_cell_length_b	19.120786
_cell_length_c	19.121595
_cell_angle_alpha	94.799340
_cell_angle_beta	92.453437
_cell_angle_gamma	92.464298
loop_
_atom_site_label
_atom_site_type_symbol
_atom_site_fract_x
_atom_site_fract_y
_atom_site_fract_z
Zn1	Zn	1.613956	-0.263206	0.385827
Zn2	Zn	2.113956	0.236794	0.885827
Zn3	Zn	1.598173	-0.385898	0.263138
Zn4	Zn	2.098173	0.114102	0.763138
Zn5	Zn	1.430443	-0.268242	0.268181
Zn6	Zn	1.930443	0.231758	0.768181
Zn7	Zn	1.430384	-0.380841	0.380771
Zn8	Zn	1.930384	0.119159	0.880771
O9	O	1.518239	-0.324547	0.324479
O10	O	2.018239	0.175453	0.824479
O11	O	1.758883	-0.279490	0.369557
O12	O	2.258883	0.220510	0.869557
O13	O	1.569342	-0.374515	0.165341
O14	O	2.069342	0.125485	0.665341
O15	O	1.461416	-0.169103	0.288014
O16	O	1.961416	0.330897	0.788014
O17	O	1.747287	-0.369632	0.279418
O18	O	2.247287	0.130368	0.779418
O19	O	1.596242	-0.165404	0.374448
O20	O	2.096242	0.334596	0.874448
O21	O	1.446112	-0.288073	0.169047
O22	O	1.946112	0.211927	0.669047
O23	O	1.283414	-0.283169	0.283112
O24	O	1.783414	0.216831	0.783112
O25	O	1.461316	-0.361013	0.479907
O26	O	1.961316	0.138987	0.979907
O27	O	1.283371	-0.365896	0.365831
O28	O	1.783371	0.134104	0.865831
O29	O	1.596185	-0.274587	0.483622
O30	O	2.096185	0.225413	0.983622
O31	O	1.569286	-0.483698	0.274515
O32	O	2.069286	0.016302	0.774515
O33	O	1.446012	-0.479983	0.360940
O34	O	1.946012	0.020017	0.860940
C35	C	1.245272	-0.324531	0.324470
C36	C	1.745272	0.175469	0.824470
C37	C	1.128496	-0.324540	0.324482
C38	C	1.628496	0.175460	0.824482
C39	C	1.079663	-0.277685	0.371484
C40	C	1.579663	0.222315	0.871484
C41	C	0.969939	-0.277699	0.371488
C42	C	1.469939	0.222301	0.871488
C43	C	0.957888	-0.371428	0.277486
C44	C	1.457888	0.128572	0.777486
C45	C	1.067610	-0.371410	0.277479
C46	C	1.567610	0.128590	0.777479
C47	C	1.140549	-0.230815	0.418487
C48	C	1.640549	0.269185	0.918487
C49	C	1.091717	-0.183957	0.465493
C50	C	1.591717	0.316043	0.965493
C51	C	0.981992	-0.183971	0.465497
C52	C	1.481992	0.316029	0.965497
C53	C	0.921099	-0.230842	0.418495
C54	C	1.421099	0.269158	0.918495
C55	C	1.505959	-0.507372	0.316647
C56	C	2.005959	-0.007372	0.816647
C57	C	1.500804	-0.585584	0.313320
C58	C	2.000804	-0.085584	0.813320
C59	C	1.568531	-0.620340	0.356795
C60	C	2.068531	-0.120340	0.856795
C61	C	1.563683	-0.693829	0.353669
C62	C	2.063683	-0.193829	0.853669
C63	C	1.491112	-0.732561	0.307065
C64	C	1.991112	-0.232561	0.807065
C65	C	1.423377	-0.697799	0.263589
C66	C	1.923377	-0.197799	0.763589
C67	C	1.428221	-0.624312	0.266718
C68	C	1.928221	-0.124312	0.766718
C69	C	1.472972	-0.954545	0.295368
C70	C	1.972972	-0.454545	0.795368
C71	C	1.468135	-1.028038	0.292240
C72	C	1.968135	-0.528038	0.792240
C73	C	1.608439	-1.024062	0.382322
C74	C	2.108439	-0.524062	0.882322
C75	C	1.613281	-0.950573	0.385444
C76	C	2.113281	-0.450573	0.885444
C77	C	1.545543	-0.915819	0.341970
C78	C	2.045543	-0.415819	0.841970
C79	C	1.486156	-0.807678	0.303868
C80	C	1.986156	-0.307678	0.803868
C81	C	1.550494	-0.840702	0.345171
C82	C	2.050494	-0.340702	0.845171
C83	C	1.792272	-0.324564	0.324489
C84	C	2.292272	0.175436	0.824489
C85	C	1.909048	-0.324571	0.324493
C86	C	2.409048	0.175429	0.824493
C87	C	1.530505	-0.316674	0.508009
C88	C	2.030505	0.183326	1.008009
C89	C	1.535732	-0.313319	0.586219
C90	C	2.035732	0.186681	1.086219
C91	C	1.530596	-0.141007	0.332358
C92	C	2.030596	0.358993	0.832358
C93	C	1.535862	-0.062794	0.335715
C94	C	2.035862	0.437206	0.835715
C95	C	1.506085	-0.332338	0.141665
C96	C	2.006085	0.167662	0.641665
C97	C	1.501074	-0.335495	0.063465
C98	C	2.001074	0.164505	0.563465
C99	C	1.467970	-0.356737	0.621029
C100	C	1.967970	0.143263	1.121029
C101	C	1.472890	-0.353584	0.694516
C102	C	1.972890	0.146416	1.194516
C103	C	1.545568	-0.307010	0.733190
C104	C	2.045568	0.192990	1.233190
C105	C	1.613337	-0.263591	0.698375
C106	C	2.113337	0.236409	1.198375
C107	C	1.608421	-0.266747	0.624890
C108	C	2.108421	0.233253	1.124890
C109	C	1.563928	-0.295232	0.955164
C110	C	2.063928	0.204768	1.455164
C111	C	1.568836	-0.292077	1.028654
C112	C	2.068836	0.207923	1.528654
C113	C	1.428390	-0.382073	1.024790
C114	C	1.928390	0.117927	1.524790
C115	C	1.423477	-0.385222	0.951304
C116	C	1.923477	0.114778	1.451304
C117	C	1.491249	-0.341805	0.916495
C118	C	1.991249	0.158195	1.416495
C119	C	1.550596	-0.303785	0.808305
C120	C	2.050596	0.196215	1.308305
C121	C	1.486225	-0.345034	0.841381
C122	C	1.986225	0.154966	1.341381
H123	H	1.627630	-0.588810	0.394741
H124	H	2.127630	-0.088810	0.894741
F125	F	1.156524	-0.134072	0.515509
F126	F	1.656524	0.365928	1.015509
H127	H	1.409034	-1.059571	0.254289
H128	H	1.909034	-0.559571	0.754289
H129	H	0.908300	-0.409589	0.239220
H130	H	1.408300	0.090411	0.739220
H131	H	1.229893	-0.230799	0.418489
H132	H	1.729893	0.269201	0.918489
H133	H	1.672517	-0.225672	0.729870
H134	H	2.172517	0.274328	1.229870
H135	H	1.663586	-1.052367	0.417717
H136	H	2.163586	-0.552367	0.917717
H137	H	1.373070	-0.596014	0.231317
H138	H	1.873070	-0.096014	0.731317
H139	H	1.107370	-0.409564	0.239206
H140	H	1.607370	0.090436	0.739206
H141	H	0.942237	-0.145812	0.503767
H142	H	1.442237	0.354188	1.003767
F143	F	1.627942	-0.254218	0.849472
F144	F	2.127942	0.245782	1.349472
H145	H	1.427055	-0.382957	0.809889
H146	H	1.927055	0.117043	1.309889
H147	H	1.417712	-0.388941	0.722855
H148	H	1.917712	0.111059	1.222855
F149	F	1.400871	-0.917565	0.249103
F150	F	1.900871	-0.417565	0.749103
H151	H	0.831755	-0.230834	0.418488
H152	H	1.331755	0.269166	0.918488
F153	F	1.635757	-0.730816	0.399949
F154	F	2.135757	-0.230816	0.899949
H155	H	1.672374	-0.919040	0.423393
H156	H	2.172374	-0.419040	0.923393
F157	F	1.627722	-0.799480	0.394773
F158	F	2.127722	-0.299480	0.894773
H159	H	1.364311	-0.423159	0.919819
H160	H	1.864311	0.076841	1.419819
F161	F	1.346132	-0.739022	0.213995
F162	F	1.846132	-0.239022	0.713995
H163	H	1.427072	-0.839221	0.265921
H164	H	1.927072	-0.339221	0.765921
H165	H	1.628016	-0.254145	1.060142
H166	H	2.128016	0.245855	1.560142
F167	F	1.390611	-0.406305	0.579875
F168	F	1.890611	0.093695	1.079875
H169	H	1.373214	-0.417420	1.053139
H170	H	1.873214	0.082580	1.553139
H171	H	1.619113	-0.259879	0.926832
H172	H	2.119113	0.240121	1.426832
H173	H	1.663600	-0.231391	0.596549
H174	H	2.163600	0.268609	1.096549
