data_functionalizedCrystal
_audit_creation_method	'MofGen! by Chris Wilmer'
_symmetry_space_group_name_H-M	'P1'
_symmetry_Int_Tables_number	1
_symmetry_cell_setting	triclinic
loop_
_symmetry_equiv_pos_as_xyz
  x,y,z
_cell_length_a	13.032831
_cell_length_b	16.120444
_cell_length_c	13.032268
_cell_angle_alpha	80.356652
_cell_angle_beta	89.113023
_cell_angle_gamma	86.079645
loop_
_atom_site_label
_atom_site_type_symbol
_atom_site_fract_x
_atom_site_fract_y
_atom_site_fract_z
Zn1	Zn	1.458752	-0.562104	0.811467
Zn2	Zn	1.471730	-0.686114	0.646245
Zn3	Zn	1.311068	-0.527334	0.615813
Zn4	Zn	1.278296	-0.681614	0.796125
O5	O	1.379961	-0.614292	0.717412
O6	O	1.603233	-0.594989	0.808706
O7	O	1.469564	-0.652384	0.497601
O8	O	1.338942	-0.415481	0.635452
O9	O	1.612767	-0.686099	0.687318
O10	O	1.447445	-0.441027	0.779198
O11	O	1.351526	-0.535729	0.475243
O12	O	1.163962	-0.531365	0.620575
O13	O	1.283088	-0.678429	0.942767
O14	O	1.139884	-0.644714	0.753049
O15	O	1.415668	-0.590626	0.954039
O16	O	1.437787	-0.801983	0.672442
O17	O	1.295672	-0.798676	0.782558
C18	C	1.114907	-0.583779	0.681846
C19	C	1.001511	-0.570747	0.666656
C20	C	0.939076	-0.621093	0.725340
C21	C	0.821875	-0.607626	0.709642
C22	C	1.364606	-0.830533	0.729163
C23	C	1.358125	-0.923055	0.734238
C24	C	1.413799	-1.135302	0.691345
C25	C	1.346311	-1.092453	0.743516
C26	C	1.352887	-0.998191	0.738352
C27	C	1.407225	-1.229572	0.696508
C28	C	1.646051	-0.644925	0.753118
C29	C	1.759442	-0.657979	0.768334
C30	C	1.344274	-0.637904	0.986946
C31	C	1.329067	-0.647966	1.101806
C32	C	1.395402	-0.397212	0.705642
C33	C	1.401982	-0.304705	0.700626
C34	C	1.415573	-0.590718	0.448932
C35	C	1.430994	-0.580445	0.334087
C36	C	1.387885	-0.609009	1.158590
C37	C	1.372168	-0.619407	1.277304
H38	H	0.968195	-0.517671	0.604797
O39	O	0.782281	-0.544345	0.635702
C40	C	0.775541	-0.484621	0.453420
C41	C	0.820473	-0.556321	0.537053
H42	H	0.806384	-0.494289	0.373640
H43	H	0.798808	-0.421499	0.470748
H44	H	0.688097	-0.485027	0.453955
H45	H	0.907920	-0.555994	0.536563
H46	H	0.797124	-0.619411	0.519694
O47	O	0.799342	-0.721281	0.842069
C48	C	0.952529	-0.792363	0.925021
C49	C	0.907482	-0.720657	0.841463
H50	H	1.039964	-0.791871	0.924573
H51	H	0.929375	-0.855496	0.907619
H52	H	0.921580	-0.782769	1.004789
H53	H	0.938407	-0.730170	0.761662
H54	H	0.930627	-0.657550	0.858954
H55	H	1.449873	-0.567954	1.119319
O56	O	1.298074	-0.668277	1.324071
C57	C	1.117309	-0.691625	1.336167
C58	C	1.201110	-0.636200	1.283136
H59	H	1.038897	-0.665722	1.303077
H60	H	1.117723	-0.691272	1.423563
H61	H	1.133286	-0.758959	1.321070
H62	H	1.185191	-0.568841	1.298152
H63	H	1.200676	-0.636624	1.195756
H64	H	1.476511	-1.101197	0.642805
H65	H	1.492985	-0.539385	1.294820
O66	O	1.271522	-1.133260	0.801339
C67	C	1.196761	-1.265799	0.859347
C68	C	1.281493	-1.219682	0.793810
H69	H	1.204807	-1.335682	0.853301
H70	H	1.118062	-1.237833	0.829179
H71	H	1.204729	-1.258024	0.944150
H72	H	1.273621	-1.227440	0.708994
H73	H	1.360158	-1.247657	0.824065
O74	O	1.255166	-0.697054	1.148543
C75	C	1.191247	-0.835826	1.182855
C76	C	1.274992	-0.780324	1.129860
H77	H	1.207259	-0.903164	1.167787
H78	H	1.112788	-0.809967	1.149843
H79	H	1.191732	-0.835443	1.270242
H80	H	1.274602	-0.780684	1.042470
H81	H	1.353412	-0.806201	1.162955
H82	H	0.972391	-0.674164	0.787207
