data_functionalizedCrystal
_audit_creation_method	'MofGen! by Chris Wilmer'
_symmetry_space_group_name_H-M	'P1'
_symmetry_Int_Tables_number	1
_symmetry_cell_setting	triclinic
loop_
_symmetry_equiv_pos_as_xyz
  x,y,z
_cell_length_a	8.559649
_cell_length_b	15.995350
_cell_length_c	7.681481
_cell_angle_alpha	84.260013
_cell_angle_beta	94.913240
_cell_angle_gamma	76.635520
loop_
_atom_site_label
_atom_site_type_symbol
_atom_site_fract_x
_atom_site_fract_y
_atom_site_fract_z
O1	O	2.105023	-0.019508	-0.146402
O2	O	1.639818	0.023734	-0.146408
O3	O	1.885137	-0.120592	-0.146403
O4	O	1.859704	0.124818	-0.146407
O5	O	1.915332	-0.138392	0.146455
O6	O	1.670013	0.005934	0.146450
O7	O	2.135218	-0.037308	0.146457
Zn8	Zn	1.907409	-0.018513	0.192951
Zn9	Zn	1.867627	0.004939	-0.192902
O10	O	1.889898	0.107018	0.146452
C11	C	1.595386	0.018111	0.000020
C12	C	1.418005	0.027866	0.000017
C13	C	1.899183	-0.160619	0.000023
C14	C	1.896030	-0.253366	0.000013
C15	C	1.884710	-0.590386	0.000019
C16	C	1.709930	-0.531678	-0.000641
C17	C	1.713151	-0.435230	0.000019
C18	C	1.890325	-0.423187	0.000015
C19	C	1.993741	-0.479970	0.167249
C20	C	1.989366	-0.576332	0.167389
C21	C	1.958639	-0.556680	-0.165646
C22	C	1.958369	-0.459598	-0.167856
C23	C	1.893508	-0.328694	0.000018
C24	C	1.881533	-0.684880	0.000027
C25	C	2.179650	-0.031685	0.000025
C26	C	2.357029	-0.041439	0.000016
C27	C	1.875853	0.147046	0.000022
C28	C	1.879005	0.239793	0.000020
N29	N	1.934572	-0.034520	0.456286
N30	N	1.840477	0.020939	-0.456237
H31	H	1.334498	0.094668	0.000007
H32	H	1.633053	-0.395166	-0.119861
H33	H	2.086530	-0.451930	-0.177957
H34	H	1.627735	-0.538430	-0.120568
C35	C	1.710704	0.097410	0.442185
C36	C	1.715880	0.191031	0.467823
C37	C	1.586104	0.267504	0.366232
C38	C	1.451153	0.250357	0.239003
C39	C	1.445972	0.156733	0.213360
C40	C	1.575747	0.080259	0.314951
H41	H	1.815784	0.203728	0.562010
H42	H	1.589941	0.336811	0.385216
H43	H	1.355086	0.306967	0.163800
H44	H	1.346068	0.144036	0.119173
H45	H	1.571911	0.010952	0.295967
C46	C	2.064352	-0.110996	0.557871
C47	C	2.014734	-0.178614	0.684673
C48	C	2.144511	-0.255088	0.786258
C49	C	2.323906	-0.263944	0.761041
C50	C	2.373532	-0.196324	0.634234
C51	C	2.243755	-0.119850	0.532649
H52	H	1.881928	-0.172060	0.703345
H53	H	2.107774	-0.305145	0.880130
H54	H	2.419974	-0.320555	0.836241
H55	H	2.506338	-0.202878	0.615561
H56	H	2.280492	-0.069793	0.438777
C57	C	1.469818	-0.131682	0.000020
C58	C	1.605342	-0.168467	0.152098
C59	C	1.718142	-0.258711	0.152102
C60	C	1.695418	-0.312171	0.000029
C61	C	1.559888	-0.275387	-0.152060
C62	C	1.447087	-0.185142	-0.152064
H63	H	1.622169	-0.128892	0.264682
H64	H	1.818471	-0.285941	0.264689
H65	H	1.778920	-0.378976	0.000033
H66	H	1.543060	-0.314962	-0.264643
H67	H	1.346759	-0.157913	-0.264651
C68	C	1.856013	-0.407117	-0.334947
C69	C	1.767640	-0.452661	-0.464973
C70	C	1.665216	-0.400185	-0.632034
C71	C	1.651166	-0.302164	-0.669069
C72	C	1.739542	-0.256614	-0.539039
C73	C	1.841965	-0.309090	-0.371978
H74	H	1.778038	-0.525227	-0.437561
H75	H	1.599795	-0.433904	-0.728291
H76	H	1.575346	-0.263318	-0.792737
H77	H	1.729144	-0.184048	-0.566451
H78	H	1.907387	-0.275371	-0.275722
C79	C	1.863820	-0.569053	-0.336889
C80	C	1.718037	-0.609931	-0.328478
C81	C	1.623201	-0.622303	-0.499709
C82	C	1.674147	-0.593797	-0.679351
C83	C	1.819938	-0.552917	-0.687769
C84	C	1.914774	-0.540544	-0.516538
H85	H	1.680317	-0.631035	-0.195489
H86	H	1.515277	-0.652566	-0.493476
H87	H	1.603944	-0.602956	-0.806106
H88	H	1.857658	-0.531812	-0.820757
H89	H	2.022698	-0.510282	-0.522770
H90	H	1.652706	-0.554050	0.118616
H91	H	1.657339	-0.410279	0.120102
H92	H	2.124547	-0.474592	0.173465
H93	H	1.946720	-0.455304	0.291703
C94	C	2.132501	-0.610677	-0.167187
C95	C	2.261892	-0.613647	-0.013001
C96	C	2.435751	-0.667645	-0.014526
C97	C	2.480218	-0.718675	-0.170237
C98	C	2.350824	-0.715707	-0.324434
C99	C	2.176965	-0.661709	-0.322909
H100	H	2.228978	-0.575870	0.102276
H101	H	2.531537	-0.669841	0.099622
H102	H	2.608919	-0.758647	-0.171365
H103	H	2.383739	-0.753484	-0.439711
H104	H	2.081180	-0.659512	-0.437057
H105	H	1.939418	-0.598191	0.292403
H106	H	2.118419	-0.617289	0.174974
