data_functionalizedCrystal
_audit_creation_method	'MofGen! by Chris Wilmer'
_symmetry_space_group_name_H-M	'P1'
_symmetry_Int_Tables_number	1
_symmetry_cell_setting	triclinic
loop_
_symmetry_equiv_pos_as_xyz
  x,y,z
_cell_length_a	10.654544
_cell_length_b	9.483334
_cell_length_c	11.026607
_cell_angle_alpha	78.597888
_cell_angle_beta	83.464566
_cell_angle_gamma	80.628366
loop_
_atom_site_label
_atom_site_type_symbol
_atom_site_fract_x
_atom_site_fract_y
_atom_site_fract_z
O1	O	1.689597	0.120921	-0.189638
O2	O	1.327651	0.120916	-0.205907
O3	O	1.478627	0.120912	-0.020866
O4	O	1.538621	0.120924	-0.374678
O5	O	1.509227	-0.120864	0.016872
O6	O	1.358251	-0.120861	-0.168169
O7	O	1.720197	-0.120855	-0.151900
Cu8	Cu	1.542018	-0.142934	-0.156589
Cu9	Cu	1.505830	0.142994	-0.201218
O10	O	1.569221	-0.120852	-0.336941
C11	C	1.295894	0.000027	-0.185843
C12	C	1.155675	0.000025	-0.182269
N13	N	1.567480	-0.344040	-0.125198
C14	C	1.513325	-0.416269	-0.191958
C15	C	1.534539	-0.583675	-0.165829
C16	C	1.189014	-0.263567	-0.141140
C17	C	1.139810	-0.395358	-0.118901
C18	C	1.008061	-0.395352	-0.115542
C19	C	0.925512	-0.263540	-0.134421
C20	C	0.974716	-0.131749	-0.156660
C21	C	1.106470	-0.131770	-0.160020
C22	C	0.941376	0.131840	-0.197779
C23	C	1.073126	0.131836	-0.201147
C24	C	0.858827	0.263651	-0.216657
C25	C	0.908032	0.395446	-0.238906
C26	C	1.039789	0.395434	-0.242266
C27	C	1.122330	0.263628	-0.223387
C28	C	1.751954	0.000037	-0.171964
C29	C	1.892172	0.000048	-0.175540
C30	C	1.482859	0.000026	0.043307
C31	C	1.449864	0.000031	0.178298
N32	N	1.480376	0.344101	-0.232599
C33	C	1.564989	0.000038	-0.401114
C34	C	1.597983	0.000042	-0.536106
C35	C	1.540967	0.000034	0.251336
C36	C	1.506867	0.000039	0.390857
H37	H	1.451261	-0.354174	-0.268464
O38	O	1.331119	-0.263593	-0.144781
H39	H	1.366155	-0.206698	-0.237275
O40	O	1.616762	-0.665903	-0.064483
H41	H	1.620514	-0.784486	-0.059857
O42	O	1.398137	-0.573674	-0.333932
H43	H	1.394365	-0.455090	-0.338547
O44	O	1.649700	-0.426274	-0.023858
H45	H	1.653452	-0.544857	-0.019232
H46	H	0.818235	-0.263547	-0.131668
O47	O	0.716721	0.263679	-0.213012
H48	H	0.682279	0.320609	-0.303715
O49	O	1.228841	-0.537525	-0.098550
H50	H	1.328724	-0.515397	-0.104636
O51	O	1.092859	0.537581	-0.266235
H52	H	1.159600	0.543903	-0.351467
H53	H	1.644209	0.000027	0.210577
H54	H	0.968001	-0.502668	-0.097442
H55	H	1.403618	0.000047	0.431610
H56	H	1.701218	0.000153	0.423123
O57	O	1.264430	0.263627	-0.227017
H58	H	1.298862	0.206725	-0.136302
H59	H	0.840810	0.502756	-0.254268
O60	O	1.313103	0.000019	0.232272
H61	H	1.307783	0.000009	0.333389
