data_functionalizedCrystal
_audit_creation_method	'MofGen! by Chris Wilmer'
_symmetry_space_group_name_H-M	'P1'
_symmetry_Int_Tables_number	1
_symmetry_cell_setting	triclinic
loop_
_symmetry_equiv_pos_as_xyz
  x,y,z
_cell_length_a	12.784905
_cell_length_b	12.837942
_cell_length_c	9.730223
_cell_angle_alpha	89.996108
_cell_angle_beta	89.996104
_cell_angle_gamma	83.968130
loop_
_atom_site_label
_atom_site_type_symbol
_atom_site_fract_x
_atom_site_fract_y
_atom_site_fract_z
O1	O	1.410965	0.006436	-0.114298
O2	O	1.105966	0.050428	-0.114299
O3	O	1.251702	-0.121861	-0.114290
O4	O	1.265228	0.178725	-0.114307
O5	O	1.251691	-0.121865	0.114290
O6	O	1.105955	0.050425	0.114281
O7	O	1.410954	0.006432	0.114282
Zn8	Zn	1.258453	0.028428	0.150574
Zn9	Zn	1.258467	0.028432	-0.150590
O10	O	1.265218	0.178722	0.114273
C11	C	1.066651	0.053288	-0.000009
C12	C	0.949519	0.061801	-0.000009
C13	C	1.247128	-0.160072	-0.000001
C14	C	1.233500	-0.273920	-0.000003
C15	C	0.735568	-0.111642	-0.000024
C16	C	0.625513	-0.103648	-0.000024
C17	C	0.619351	0.085781	-0.000019
C18	C	0.729407	0.077787	-0.000019
C19	C	0.787511	-0.020928	-0.000019
C20	C	0.897569	-0.028921	-0.000009
C21	C	0.891405	0.160508	-0.000015
C22	C	0.781350	0.168502	-0.000015
C23	C	1.397331	-0.529646	-0.000031
C24	C	1.384532	-0.636618	-0.000034
C25	C	1.195102	-0.594839	-0.000020
C26	C	1.207901	-0.487867	-0.000017
C27	C	1.309019	-0.455275	-0.000021
C28	C	1.321818	-0.348301	-0.000009
C29	C	1.132389	-0.306523	-0.000005
C30	C	1.119589	-0.413495	-0.000007
C31	C	1.450269	0.003573	-0.000011
C32	C	1.567401	-0.004940	-0.000020
C33	C	1.269792	0.216932	-0.000019
C34	C	1.283420	0.330781	-0.000026
N35	N	1.258451	0.028424	0.356110
N36	N	1.258477	0.028428	-0.356127
C37	C	1.323010	-0.047839	0.428040
C38	C	1.323021	-0.047839	0.571923
C39	C	1.193910	0.104695	0.571933
C40	C	1.193895	0.104690	0.428053
H41	H	0.944876	-0.109300	-0.000007
F42	F	0.946694	0.257059	0.000008
H43	H	1.456445	-0.697169	-0.000046
H44	H	1.375589	-0.109940	0.630484
H45	H	0.782878	-0.192020	-0.000015
H46	H	1.037262	-0.440047	-0.000010
F47	F	1.391714	-0.129010	0.351478
F48	F	0.570235	-0.200199	-0.000033
F49	F	0.557495	0.190832	-0.000046
F50	F	0.719499	0.273555	-0.000023
F51	F	1.125211	0.185861	0.648510
H52	H	1.060479	-0.245957	0.000014
F53	F	1.429435	-0.313616	-0.000004
H54	H	1.141318	0.166793	0.369484
H55	H	1.479665	-0.503110	-0.000021
H56	H	1.112776	-0.621395	-0.000032
