data_functionalizedCrystal
_audit_creation_method	'MofGen! by Chris Wilmer'
_symmetry_space_group_name_H-M	'P1'
_symmetry_Int_Tables_number	1
_symmetry_cell_setting	triclinic
loop_
_symmetry_equiv_pos_as_xyz
  x,y,z
_cell_length_a	12.594517
_cell_length_b	12.594516
_cell_length_c	12.594509
_cell_angle_alpha	89.965848
_cell_angle_beta	90.021327
_cell_angle_gamma	89.982605
loop_
_atom_site_label
_atom_site_type_symbol
_atom_site_fract_x
_atom_site_fract_y
_atom_site_fract_z
Zn1	Zn	1.627256	0.423716	0.601816
Zn2	Zn	1.627142	0.601726	0.423819
Zn3	Zn	1.449259	0.423761	0.423845
Zn4	Zn	1.449237	0.601652	0.601749
O5	O	1.538223	0.512714	0.512808
O6	O	1.776186	0.447341	0.578222
O7	O	1.603507	0.578169	0.274877
O8	O	1.472928	0.274809	0.447492
O9	O	1.776102	0.578124	0.447448
O10	O	1.603701	0.274776	0.578247
O11	O	1.472818	0.447419	0.274896
O12	O	1.300311	0.447347	0.447427
O13	O	1.472890	0.577998	0.750704
O14	O	1.300294	0.578042	0.578133
O15	O	1.603679	0.447269	0.750753
O16	O	1.603485	0.750662	0.447383
O17	O	1.472779	0.750608	0.578108
C18	C	1.261682	0.512692	0.512776
C19	C	1.143377	0.512709	0.512788
C20	C	1.538146	0.789255	0.512759
C21	C	1.538210	0.907560	0.512773
C22	C	1.074102	0.441526	0.441833
C23	C	1.003288	0.538615	0.415643
C24	C	1.003392	0.415668	0.538996
C25	C	1.074122	0.609849	0.486547
C26	C	1.074231	0.486836	0.609946
C27	C	1.003449	0.583991	0.583793
C28	C	1.609377	0.976804	0.441741
C29	C	1.635380	1.047501	0.538882
C30	C	1.512319	1.047662	0.415670
C31	C	1.564264	0.976698	0.609966
C32	C	1.441157	0.976854	0.486689
C33	C	1.467124	1.047519	0.583898
C34	C	1.815844	0.512736	0.512840
C35	C	1.934150	0.512745	0.512853
C36	C	1.538295	0.512621	0.790429
C37	C	1.538325	0.512581	0.908734
C38	C	1.538304	1.235093	0.512852
C39	C	1.538274	1.116787	0.512801
C40	C	1.538214	0.512730	0.236267
C41	C	1.538389	0.512470	0.117962
C42	C	1.467211	0.583644	0.977961
C43	C	1.564331	0.609650	1.048748
C44	C	1.441281	0.486510	1.048745
C45	C	1.635496	0.538638	0.977964
C46	C	1.512380	0.415453	0.977955
C47	C	1.609567	0.441422	1.048710
H48	H	1.105124	0.381389	0.381755
C49	C	1.594023	0.934777	0.720946
H50	H	1.593855	0.859349	0.720249
H51	H	1.543811	0.959554	0.771455
H52	H	1.662780	0.959553	0.739591
C53	C	0.961424	0.304786	0.568914
H54	H	0.985628	0.254289	0.518406
H55	H	0.886007	0.305747	0.569361
H56	H	0.986769	0.285906	0.637427
H57	H	0.972622	0.644273	0.643825
H58	H	1.669579	0.945753	0.381735
H59	H	1.407119	0.643833	0.946897
C60	C	1.116279	0.457253	0.720915
H61	H	1.157754	0.514096	0.748049
H62	H	1.158857	0.395179	0.716024
H63	H	1.058134	0.444255	0.767154
C64	C	1.115904	0.720766	0.456505
H65	H	1.057658	0.767077	0.444025
H66	H	1.157849	0.715776	0.394036
H67	H	1.157970	0.747881	0.512933
C68	C	1.746289	1.089434	0.568713
H69	H	1.796752	1.065229	0.518165
H70	H	1.765195	1.064093	0.637215
H71	H	1.745346	1.164857	0.569136
H72	H	1.490373	0.333385	0.946835
C73	C	1.482690	1.089764	0.304723
H74	H	1.533303	1.065537	0.254336
H75	H	1.482288	1.165180	0.305681
H76	H	1.414207	1.064524	0.285697
C77	C	1.330381	0.456777	1.090746
H78	H	1.279923	0.507378	1.066508
H79	H	1.331354	0.456313	1.166163
H80	H	1.311438	0.388303	1.065455
C81	C	1.385862	1.089211	0.665151
H82	H	1.404452	1.064779	0.734076
H83	H	1.317103	1.063951	0.647200
H84	H	1.385919	1.164637	0.664316
C85	C	1.330279	0.934885	0.456820
H86	H	1.311963	0.959141	0.387759
H87	H	1.279569	0.960150	0.506583
H88	H	1.330911	0.859462	0.457664
C89	C	1.594021	0.720542	1.090768
H90	H	1.543403	0.770993	1.066550
H91	H	1.662494	0.739515	1.065493
H92	H	1.594458	0.719535	1.166190
C93	C	1.746432	0.568498	0.936152
H94	H	1.792761	0.580885	0.994385
H95	H	1.741489	0.630984	0.894160
H96	H	1.773495	0.512033	0.894126
C97	C	0.961184	0.568208	0.304690
H98	H	0.985367	0.517551	0.254332
H99	H	0.986441	0.636668	0.285605
H100	H	0.885762	0.568636	0.305680
C101	C	1.690934	0.360178	1.090424
H102	H	1.759831	0.378833	1.066056
H103	H	1.673070	0.291429	1.065112
H104	H	1.690113	0.360172	1.165849
