data_functionalizedCrystal
_audit_creation_method	'MofGen! by Chris Wilmer'
_symmetry_space_group_name_H-M	'P1'
_symmetry_Int_Tables_number	1
_symmetry_cell_setting	triclinic
loop_
_symmetry_equiv_pos_as_xyz
  x,y,z
_cell_length_a	9.130307
_cell_length_b	10.654550
_cell_length_c	10.654550
_cell_angle_alpha	84.484931
_cell_angle_beta	89.996840
_cell_angle_gamma	90.001720
loop_
_atom_site_label
_atom_site_type_symbol
_atom_site_fract_x
_atom_site_fract_y
_atom_site_fract_z
O1	O	0.121690	-1.667836	-0.176397
O2	O	0.121717	-1.302358	-0.193203
O3	O	0.121693	-1.493500	-0.002061
O4	O	0.121713	-1.476694	-0.367539
O5	O	-0.121906	-1.493494	-0.002059
O6	O	-0.121882	-1.302351	-0.193201
O7	O	-0.121909	-1.667830	-0.176395
Cu8	Cu	-0.144138	-1.485090	-0.184798
Cu9	Cu	0.143946	-1.485097	-0.184800
O10	O	-0.121886	-1.476687	-0.367537
C11	C	-0.000080	-1.255556	-0.191968
C12	C	-0.000070	-1.116113	-0.188276
C13	C	-0.000105	-1.492263	0.044738
C14	C	-0.000103	-1.488571	0.184181
N15	N	-0.346761	-1.485094	-0.184796
C16	C	-0.346772	-1.654420	-0.015589
C17	C	-0.423444	-1.739091	0.069011
C18	C	-0.576777	-1.739104	0.069012
C19	C	-0.653442	-1.654433	-0.015594
C20	C	-0.576770	-1.569762	-0.100194
C21	C	-0.423433	-1.569761	-0.100188
C22	C	-0.576760	-1.400432	-0.269392
C23	C	-0.423426	-1.400423	-0.269401
C24	C	-0.653425	-1.315761	-0.353998
C25	C	-0.576752	-1.231094	-0.438606
C26	C	-0.423410	-1.231086	-0.438604
C27	C	-0.346754	-1.315752	-0.354001
N28	N	0.346568	-1.485103	-0.184793
C29	C	-0.000110	-1.714631	-0.177630
C30	C	-0.000110	-1.854074	-0.181322
C31	C	-0.000068	-1.036628	-0.300818
C32	C	-0.000093	-0.905607	-0.297341
C33	C	-0.000117	-0.933570	-0.068772
C34	C	-0.000101	-1.064588	-0.072250
C35	C	-0.000084	-1.477925	-0.414336
C36	C	-0.000077	-1.481617	-0.553779
C37	C	-0.000111	-1.601112	0.263667
C38	C	-0.000092	-1.597636	0.394688
C39	C	-0.000065	-1.369066	0.366725
C40	C	-0.000073	-1.372544	0.235706
H41	H	-0.221920	-1.654429	-0.015591
H42	H	-0.221902	-1.315757	-0.353996
H43	H	-0.778277	-1.315770	-0.353988
H44	H	-0.000053	-1.078574	-0.395294
H45	H	-0.361010	-1.808027	0.137899
Br46	Br	-0.000154	-0.863635	0.088685
Br47	Br	-0.000098	-0.797737	-0.450083
Br48	Br	-0.000123	-1.172472	0.080497
H49	H	-0.000096	-1.689279	0.459401
Br50	Br	-0.000020	-1.211609	0.436660
Br51	Br	-0.680836	-1.854006	0.183836
Br52	Br	-0.000153	-1.758576	0.193744
H53	H	-0.000062	-1.280893	0.170985
H54	H	-0.639183	-1.162156	-0.507480
Br55	Br	-0.319368	-1.116157	-0.553414
Br56	Br	-0.861539	-1.654429	-0.015573
