data_functionalizedCrystal
_audit_creation_method	'MofGen! by Chris Wilmer'
_symmetry_space_group_name_H-M	'P1'
_symmetry_Int_Tables_number	1
_symmetry_cell_setting	triclinic
loop_
_symmetry_equiv_pos_as_xyz
  x,y,z
_cell_length_a	10.686220
_cell_length_b	12.759400
_cell_length_c	10.686551
_cell_angle_alpha	94.404840
_cell_angle_beta	89.691918
_cell_angle_gamma	94.394725
loop_
_atom_site_label
_atom_site_type_symbol
_atom_site_fract_x
_atom_site_fract_y
_atom_site_fract_z
Zn1	Zn	1.972298	-0.256137	0.562391
Zn2	Zn	2.472298	0.243863	1.062391
Zn3	Zn	1.956076	-0.446297	0.352635
Zn4	Zn	2.456076	0.053703	0.852635
Zn5	Zn	1.746417	-0.283013	0.368709
Zn6	Zn	2.246417	0.216987	0.868709
Zn7	Zn	1.762506	-0.444167	0.578413
Zn8	Zn	2.262506	0.055833	1.078413
O9	O	1.859324	-0.357404	0.465537
O10	O	2.359324	0.142596	0.965537
O11	O	2.145687	-0.271006	0.521134
O12	O	2.645687	0.228994	1.021134
O13	O	1.914742	-0.436775	0.179222
O14	O	2.414742	0.063225	0.679222
O15	O	1.776436	-0.132422	0.394422
O16	O	2.276436	0.367578	0.894422
O17	O	2.133769	-0.410715	0.367028
O18	O	2.633769	0.089285	0.867028
O19	O	1.942390	-0.112676	0.536719
O20	O	2.442390	0.387324	1.036719
O21	O	1.760707	-0.316812	0.191031
O22	O	2.260707	0.183188	0.691031
O23	O	1.573010	-0.314747	0.409958
O24	O	2.073010	0.185253	0.909958
O25	O	1.803857	-0.407086	0.751833
O26	O	2.303857	0.092914	1.251833
O27	O	1.584830	-0.433147	0.564027
O28	O	2.084830	0.066853	1.064027
O29	O	1.957990	-0.268941	0.740061
O30	O	2.457990	0.231059	1.240061
O31	O	1.930343	-0.593040	0.382564
O32	O	2.430343	-0.093040	0.882564
O33	O	1.788128	-0.591476	0.548442
O34	O	2.288128	-0.091476	1.048442
C35	C	1.533404	-0.376633	0.490476
C36	C	2.033404	0.123367	0.990476
C37	C	1.393976	-0.384883	0.501175
C38	C	1.893976	0.115117	1.001175
C39	C	1.859257	-0.630376	0.465522
C40	C	2.359257	-0.130376	0.965522
C41	C	1.859346	-0.747145	0.465549
C42	C	2.359346	-0.247145	0.965549
C43	C	1.945723	-0.791644	0.539712
C44	C	2.445723	-0.291644	1.039712
C45	C	1.945783	-0.901362	0.539738
C46	C	2.445783	-0.401362	1.039738
C47	C	1.773086	-0.922075	0.391428
C48	C	2.273086	-0.422075	0.891428
C49	C	1.773021	-0.812358	0.391409
C50	C	2.273021	-0.312358	0.891409
C51	C	2.032048	-0.726431	0.613852
C52	C	2.532048	-0.226431	1.113852
C53	C	2.118433	-0.770929	0.688020
C54	C	2.618433	-0.270929	1.188020
C55	C	2.118494	-0.880647	0.688046
C56	C	2.618494	-0.380647	1.188046
C57	C	2.032169	-0.945868	0.613904
C58	C	2.532169	-0.445868	1.113904
C59	C	2.186517	-0.338100	0.440501
C60	C	2.686517	0.161900	0.940501
C61	C	2.325947	-0.329874	0.429832
C62	C	2.825947	0.170126	0.929832
C63	C	1.884528	-0.334778	0.792737
C64	C	2.384528	0.165222	1.292737
C65	C	1.895268	-0.325137	0.932170
C66	C	2.395268	0.174863	1.432170
C67	C	1.859428	-0.083361	0.465576
C68	C	2.359428	0.416639	0.965576
C69	C	1.859472	0.033419	0.465593
C70	C	2.359472	0.533419	0.965593
C71	C	1.834290	-0.379861	0.139604
C72	C	2.334290	0.120139	0.639604
C73	C	1.823793	-0.389192	0.000153
C74	C	2.323793	0.110808	0.500153
H75	H	1.374370	-0.276468	0.360565
H76	H	1.874370	0.223532	0.860565
Br77	Br	1.313268	-0.473920	0.616617
Br78	Br	1.813268	0.026080	1.116617
Br79	Br	1.708109	-0.492902	0.919377
Br80	Br	2.208109	0.007098	1.419377
Br81	Br	2.010979	-0.221438	1.012949
Br82	Br	2.510979	0.278562	1.512949
H83	H	2.032011	-0.637092	0.613836
H84	H	2.532011	-0.137092	1.113836
H85	H	1.702684	-0.776128	0.331020
H86	H	2.202684	-0.276128	0.831020
H87	H	2.188709	-0.717821	0.748392
H88	H	2.688709	-0.217821	1.248392
Br89	Br	2.235710	-0.941036	0.788719
Br90	Br	2.735710	-0.441036	1.288719
Br91	Br	1.655939	-1.010587	0.290814
Br92	Br	2.155939	-0.510587	0.790814
Br93	Br	2.032446	-1.094775	0.613717
Br94	Br	2.532446	-0.594775	1.113717
