data_functionalizedCrystal
_audit_creation_method	'MofGen! by Chris Wilmer'
_symmetry_space_group_name_H-M	'P1'
_symmetry_Int_Tables_number	1
_symmetry_cell_setting	triclinic
loop_
_symmetry_equiv_pos_as_xyz
  x,y,z
_cell_length_a	14.908783
_cell_length_b	14.908506
_cell_length_c	14.908308
_cell_angle_alpha	96.362085
_cell_angle_beta	89.788727
_cell_angle_gamma	96.790846
loop_
_atom_site_label
_atom_site_type_symbol
_atom_site_fract_x
_atom_site_fract_y
_atom_site_fract_z
Zn1	Zn	1.325984	-0.317645	-0.605038
Zn2	Zn	1.659317	0.015688	-0.271704
Zn3	Zn	1.992651	0.349021	0.061629
Zn4	Zn	1.325883	-0.460296	-0.462406
Zn5	Zn	1.659217	-0.126963	-0.129072
Zn6	Zn	1.992550	0.206370	0.204261
Zn7	Zn	1.184357	-0.316663	-0.445956
Zn8	Zn	1.517690	0.016671	-0.112622
Zn9	Zn	1.851024	0.350004	0.220711
Zn10	Zn	1.165851	-0.477687	-0.604970
Zn11	Zn	1.499184	-0.144354	-0.271636
Zn12	Zn	1.832517	0.188980	0.061697
O13	O	1.250519	-0.393073	-0.529592
O14	O	1.583852	-0.059739	-0.196259
O15	O	1.917185	0.273594	0.137074
O16	O	1.452216	-0.329702	-0.593030
O17	O	1.785550	0.003632	-0.259697
O18	O	2.118883	0.336965	0.073636
O19	O	1.314812	-0.433554	-0.333984
O20	O	1.648146	-0.100221	-0.000651
O21	O	1.981479	0.233113	0.332683
O22	O	1.210931	-0.189704	-0.460203
O23	O	1.544265	0.143630	-0.126869
O24	O	1.877598	0.476963	0.206464
O25	O	1.452142	-0.434507	-0.488239
O26	O	1.785476	-0.101173	-0.154906
O27	O	2.118809	0.232160	0.178428
O28	O	1.314984	-0.190426	-0.577079
O29	O	1.648317	0.142908	-0.243746
O30	O	1.981651	0.476241	0.089587
O31	O	1.210834	-0.328027	-0.321898
O32	O	1.544167	0.005307	0.011435
O33	O	1.877500	0.338640	0.344769
O34	O	1.055656	-0.344889	-0.460136
O35	O	1.388990	-0.011556	-0.126803
O36	O	1.722323	0.321777	0.206530
O37	O	1.179390	-0.464146	-0.731218
O38	O	1.512723	-0.130813	-0.397885
O39	O	1.846056	0.202520	-0.064552
O40	O	1.042060	-0.463193	-0.576963
O41	O	1.375393	-0.129860	-0.243630
O42	O	1.708727	0.203473	0.089704
O43	O	1.297039	-0.346564	-0.731268
O44	O	1.630372	-0.013231	-0.397935
O45	O	1.963706	0.320102	-0.064602
O46	O	1.296868	-0.589693	-0.488173
O47	O	1.630201	-0.256359	-0.154840
O48	O	1.963534	0.076974	0.178494
O49	O	1.179292	-0.602469	-0.592914
O50	O	1.512625	-0.269136	-0.259581
O51	O	1.845959	0.064197	0.073753
C52	C	1.016124	-0.405822	-0.516758
C53	C	1.349457	-0.072489	-0.183425
C54	C	1.682791	0.260844	0.149909
C55	C	0.915846	-0.411300	-0.511290
C56	C	1.249180	-0.077967	-0.177957
C57	C	1.582513	0.255367	0.155377
C58	C	0.727468	-0.312629	-0.610319
C59	C	1.060802	0.020704	-0.276986
C60	C	1.394135	0.354038	0.056348
C61	C	0.633248	-0.317773	-0.605184
C62	C	0.966582	0.015561	-0.271851
C63	C	1.299915	0.348894	0.061483
C64	C	0.633186	-0.426725	-0.495881
C65	C	0.966519	-0.093392	-0.162548
C66	C	1.299852	0.239941	0.170786
C67	C	0.727405	-0.421582	-0.501016
C68	C	1.060739	-0.088249	-0.167683
C69	C	1.394072	0.245085	0.165651
C70	C	0.774543	-0.364533	-0.558238
C71	C	1.107877	-0.031199	-0.224904
C72	C	1.441210	0.302134	0.108429
C73	C	0.868764	-0.359394	-0.563377
C74	C	1.202098	-0.026061	-0.230044
C75	C	1.535431	0.307272	0.103290
C76	C	0.868700	-0.468342	-0.454070
C77	C	1.202034	-0.135009	-0.120736
C78	C	1.535367	0.198325	0.212597
C79	C	0.774480	-0.473486	-0.448935
C80	C	1.107814	-0.140152	-0.115601
C81	C	1.441147	0.193181	0.217732
C82	C	1.236084	-0.629034	-0.542342
C83	C	1.569417	-0.295700	-0.209009
C84	C	1.902751	0.037633	0.124325
C85	C	1.229989	-0.729976	-0.547831
C86	C	1.563323	-0.396643	-0.214498
C87	C	1.896656	-0.063309	0.118835
C88	C	1.160143	-0.878933	-0.610044
C89	C	1.493476	-0.545600	-0.276711
C90	C	1.826809	-0.212267	0.056622
C91	C	1.165867	-0.784090	-0.604893
C92	C	1.499200	-0.450756	-0.271559
C93	C	1.832534	-0.117423	0.061774
C94	C	1.288394	-0.770712	-0.495919
C95	C	1.621727	-0.437379	-0.162586
C96	C	1.955061	-0.104046	0.170747
C97	C	1.282670	-0.865556	-0.501071
C98	C	1.616003	-0.532223	-0.167737
C99	C	1.949337	-0.198889	0.165596
C100	C	1.218541	-0.919664	-0.558134
C101	C	1.551875	-0.586330	-0.224801
C102	C	1.885208	-0.252997	0.108533
C103	C	1.212814	-1.014509	-0.563280
C104	C	1.546147	-0.681176	-0.229947
C105	C	1.879480	-0.347842	0.103387
C106	C	1.335345	-1.001130	-0.454312
C107	C	1.668678	-0.667797	-0.120979
C108	C	2.002011	-0.334463	0.212355
C109	C	1.341069	-0.906286	-0.449161
C110	C	1.674402	-0.572953	-0.115827
C111	C	2.007735	-0.239620	0.217506
C112	C	1.485829	-0.380274	-0.542477
C113	C	1.819162	-0.046941	-0.209144
C114	C	2.152495	0.286393	0.124189
C115	C	1.586104	-0.374820	-0.547968
C116	C	1.919437	-0.041487	-0.214635
C117	C	2.252770	0.291847	0.118699
C118	C	1.236161	-0.407405	-0.764891
C119	C	1.569495	-0.074071	-0.431558
C120	C	1.902828	0.259262	-0.098225
C121	C	1.230043	-0.413512	-0.865162
C122	C	1.563376	-0.080179	-0.531828
C123	C	1.896710	0.253154	-0.198495
C124	C	1.265033	-0.156191	-0.516814
C125	C	1.598367	0.177143	-0.183480
C126	C	1.931700	0.510476	0.149853
C127	C	1.271218	-0.055245	-0.511368
C128	C	1.604552	0.278088	-0.178035
C129	C	1.937885	0.611421	0.155299
C130	C	1.341053	-0.302530	-1.053633
C131	C	1.674386	0.030803	-0.720300
C132	C	2.007720	0.364137	-0.386966
C133	C	1.335307	-0.308265	-1.147846
C134	C	1.668641	0.025068	-0.814513
C135	C	2.001974	0.358402	-0.481179
C136	C	1.212802	-0.430713	-1.147802
C137	C	1.546136	-0.097380	-0.814468
C138	C	1.879469	0.235954	-0.481135
C139	C	1.218548	-0.424978	-1.053589
C140	C	1.551881	-0.091644	-0.720255
C141	C	1.885215	0.241689	-0.386922
C142	C	1.282676	-0.360885	-1.006508
C143	C	1.616010	-0.027552	-0.673174
C144	C	1.949343	0.305782	-0.339841
C145	C	1.288426	-0.355155	-0.912294
C146	C	1.621759	-0.021821	-0.578960
C147	C	1.955092	0.311512	-0.245627
C148	C	1.165917	-0.477598	-0.912251
C149	C	1.499250	-0.144264	-0.578917
C150	C	1.832584	0.189069	-0.245584
C151	C	1.160171	-0.483333	-1.006464
C152	C	1.493505	-0.149999	-0.673130
C153	C	1.826838	0.183334	-0.339797
C154	C	1.264876	-0.378728	-0.295208
C155	C	1.598210	-0.045395	0.038125
C156	C	1.931543	0.287939	0.371459
C157	C	1.271185	-0.372355	-0.194934
C158	C	1.604518	-0.039022	0.138400
C159	C	1.937852	0.294311	0.471733
H160	H	0.765848	-0.266182	-0.656915
H161	H	1.099182	0.067152	-0.323582
H162	H	1.432515	0.400485	0.009751
Br163	Br	1.086699	-0.556811	-0.848292
Br164	Br	1.420032	-0.223478	-0.514959
Br165	Br	1.753366	0.109855	-0.181625
Br166	Br	0.569363	-0.247324	-0.675864
Br167	Br	0.902696	0.086009	-0.342530
Br168	Br	1.236030	0.419342	-0.009197
H169	H	1.107958	-0.535513	-1.044810
H170	H	1.441292	-0.202180	-0.711476
H171	H	1.774625	0.131153	-0.378143
Br172	Br	0.710500	-0.550900	-0.371276
Br173	Br	1.043834	-0.217567	-0.037942
Br174	Br	1.377167	0.115766	0.295391
Br175	Br	1.125778	-1.087940	-0.640716
Br176	Br	1.459111	-0.754607	-0.307382
Br177	Br	1.792445	-0.421274	0.025951
Br178	Br	1.086613	-0.728815	-0.675350
Br179	Br	1.419946	-0.395482	-0.342017
Br180	Br	1.753279	-0.062148	-0.008683
H181	H	0.907038	-0.510613	-0.411669
H182	H	1.240371	-0.177280	-0.078335
H183	H	1.573705	0.156053	0.254998
Br184	Br	1.375433	-0.697266	-0.418499
Br185	Br	1.708766	-0.363933	-0.085165
Br186	Br	2.042099	-0.030600	0.248168
H187	H	0.594791	-0.473161	-0.449283
H188	H	0.928124	-0.139828	-0.115950
H189	H	1.261457	0.193505	0.217383
H190	H	1.382897	-1.034302	-0.412043
H191	H	1.716230	-0.700969	-0.078709
H192	H	2.049564	-0.367636	0.254624
H193	H	1.382841	-0.260744	-1.186211
H194	H	1.716175	0.072589	-0.852878
H195	H	2.049508	0.405923	-0.519545
Br196	Br	1.073098	-0.952369	-0.687466
Br197	Br	1.406432	-0.619036	-0.354133
Br198	Br	1.739765	-0.285702	-0.020800
Br199	Br	0.932737	-0.281976	-0.641038
Br200	Br	1.266070	0.051357	-0.307704
Br201	Br	1.599403	0.384691	0.025629
H202	H	1.393283	-0.862221	-0.402703
H203	H	1.726617	-0.528888	-0.069370
H204	H	2.059950	-0.195555	0.263964
H205	H	1.160592	-0.482894	-1.186151
H206	H	1.493925	-0.149560	-0.852818
H207	H	1.827259	0.183773	-0.519485
Br208	Br	1.375459	-0.268177	-0.848399
Br209	Br	1.708793	0.065156	-0.515065
Br210	Br	2.042126	0.398489	-0.181732
H211	H	1.393273	-0.250347	-1.015299
H212	H	1.726606	0.082986	-0.681966
H213	H	2.059940	0.416319	-0.348633
