data_functionalizedCrystal
_audit_creation_method	'MofGen! by Chris Wilmer'
_symmetry_space_group_name_H-M	'P1'
_symmetry_Int_Tables_number	1
_symmetry_cell_setting	triclinic
loop_
_symmetry_equiv_pos_as_xyz
  x,y,z
_cell_length_a	18.215407
_cell_length_b	19.121063
_cell_length_c	18.215399
_cell_angle_alpha	92.409843
_cell_angle_beta	89.980167
_cell_angle_gamma	92.469446
loop_
_atom_site_label
_atom_site_type_symbol
_atom_site_fract_x
_atom_site_fract_y
_atom_site_fract_z
Zn1	Zn	1.112559	-0.279613	-0.428596
Zn2	Zn	1.612559	0.220387	0.071404
Zn3	Zn	1.107212	-0.397068	-0.310772
Zn4	Zn	1.607212	0.102932	0.189228
Zn5	Zn	0.989491	-0.279636	-0.305544
Zn6	Zn	1.489491	0.220364	0.194456
Zn7	Zn	0.984203	-0.397029	-0.433795
Zn8	Zn	1.484203	0.102971	0.066205
O9	O	1.048366	-0.338336	-0.369677
O10	O	1.548366	0.161664	0.130323
O11	O	1.214834	-0.295200	-0.412978
O12	O	1.714834	0.204800	0.087022
O13	O	1.091570	-0.381516	-0.207095
O14	O	1.591570	0.118484	0.292905
O15	O	1.010267	-0.181348	-0.317504
O16	O	1.510267	0.318652	0.182496
O17	O	1.210905	-0.381494	-0.326414
O18	O	1.710905	0.118506	0.173586
O19	O	1.100685	-0.181331	-0.407909
O20	O	1.600685	0.318669	0.092091
O21	O	1.005081	-0.295240	-0.203255
O22	O	1.505081	0.204760	0.296745
O23	O	0.885805	-0.295202	-0.322545
O24	O	1.385805	0.204798	0.177455
O25	O	1.001255	-0.381427	-0.536089
O26	O	1.501255	0.118573	-0.036089
O27	O	0.881921	-0.381450	-0.416771
O28	O	1.381921	0.118550	0.083229
O29	O	1.095558	-0.295162	-0.532269
O30	O	1.595558	0.204838	-0.032269
O31	O	1.086443	-0.495348	-0.331455
O32	O	1.586443	0.004652	0.168545
O33	O	0.996070	-0.495319	-0.421840
O34	O	1.496070	0.004681	0.078160
C35	C	0.857160	-0.338324	-0.369655
C36	C	1.357160	0.161676	0.130345
C37	C	0.775361	-0.338336	-0.369664
C38	C	1.275361	0.161664	0.130336
C39	C	0.585160	-0.383316	-0.418671
C40	C	1.085160	0.116684	0.081329
C41	C	0.508302	-0.383318	-0.418681
C42	C	1.008302	0.116682	0.081319
C43	C	0.512323	-0.293369	-0.320699
C44	C	1.012323	0.206631	0.179301
C45	C	0.589181	-0.293364	-0.320694
C46	C	1.089181	0.206636	0.179306
C47	C	0.625597	-0.338342	-0.369679
C48	C	1.125597	0.161658	0.130321
C49	C	0.471881	-0.338349	-0.369694
C50	C	0.971881	0.161651	0.130306
C51	C	0.388547	-0.338351	-0.369703
C52	C	0.888547	0.161649	0.130297
C53	C	0.708936	-0.338339	-0.369671
C54	C	1.208936	0.161661	0.130329
C55	C	1.040122	-0.520817	-0.377795
C56	C	1.540122	-0.020817	0.122205
C57	C	1.036663	-0.598883	-0.381293
C58	C	1.536663	-0.098883	0.118707
C59	C	1.082127	-0.635551	-0.335916
C60	C	1.582127	-0.135551	0.164084
C61	C	1.078878	-0.708902	-0.339210
C62	C	1.578878	-0.208902	0.160790
C63	C	1.030161	-0.745585	-0.387877
C64	C	1.530161	-0.245585	0.112123
C65	C	0.984695	-0.708912	-0.433258
C66	C	1.484695	-0.208912	0.066742
C67	C	0.987948	-0.635562	-0.429968
C68	C	1.487948	-0.135562	0.070032
C69	C	1.017985	-0.967055	-0.400168
C70	C	1.517985	-0.467055	0.099832
C71	C	1.014733	-1.040410	-0.403454
C72	C	1.514733	-0.540410	0.096546
C73	C	1.108918	-1.040394	-0.309406
C74	C	1.608918	-0.540394	0.190594
C75	C	1.112164	-0.967043	-0.306117
C76	C	1.612164	-0.467043	0.193883
C77	C	1.066701	-0.930377	-0.351501
C78	C	1.566701	-0.430377	0.148499
C79	C	1.026837	-0.820561	-0.391243
C80	C	1.526837	-0.320561	0.108757
C81	C	1.070029	-0.855401	-0.348138
C82	C	1.570029	-0.355401	0.151862
C83	C	1.240319	-0.338349	-0.369699
C84	C	1.740319	0.161651	0.130301
C85	C	1.322117	-0.338354	-0.369709
C86	C	1.822117	0.161646	0.130291
C87	C	1.048413	-0.338288	-0.561628
C88	C	1.548413	0.161712	-0.061628
C89	C	1.048433	-0.338267	-0.643426
C90	C	1.548433	0.161733	-0.143426
C91	C	1.056662	-0.155143	-0.361543
C92	C	1.556662	0.344857	0.138457
C93	C	1.060197	-0.077077	-0.358077
C94	C	1.560197	0.422923	0.141923
C95	C	1.097555	-0.293307	-0.829630
C96	C	1.597555	0.206693	-0.329630
C97	C	1.097565	-0.293287	-0.906488
C98	C	1.597565	0.206713	-0.406488
C99	C	0.999368	-0.383119	-0.910455
C100	C	1.499368	0.116881	-0.410455
C101	C	0.999355	-0.383135	-0.833598
C102	C	1.499355	0.116865	-0.333598
C103	C	1.048453	-0.338231	-0.793188
C104	C	1.548453	0.161769	-0.293188
C105	C	1.048476	-0.338194	-0.946902
C106	C	1.548476	0.161806	-0.446902
C107	C	1.048486	-0.338172	-1.030235
C108	C	1.548486	0.161828	-0.530235
C109	C	1.048442	-0.338251	-0.709850
C110	C	1.548442	0.161749	-0.209850
C111	C	1.048364	-0.338334	-0.178471
C112	C	1.548364	0.161666	0.321529
C113	C	1.048495	-0.338157	-0.096664
C114	C	1.548495	0.161843	0.403336
H115	H	0.475381	-0.419940	-0.458576
H116	H	0.975381	0.080060	0.041424
H117	H	0.482664	-0.256752	-0.280816
H118	H	0.982664	0.243248	0.219184
C119	C	0.934061	-0.813215	-0.483874
C120	C	1.434061	-0.313215	0.016126
C121	C	0.973285	-0.860885	-0.444737
C122	C	1.473285	-0.360885	0.055263
H123	H	0.901006	-0.838113	-0.516902
H124	H	1.401006	-0.338113	-0.016902
H125	H	0.907193	-0.784654	-0.450504
H126	H	1.407193	-0.284654	0.049496
H127	H	0.967384	-0.784558	-0.510768
H128	H	1.467384	-0.284558	-0.010768
H129	H	0.939962	-0.889540	-0.417838
H130	H	1.439962	-0.389540	0.082162
H131	H	1.000154	-0.889459	-0.478111
H132	H	1.500154	-0.389459	0.021889
C133	C	1.000801	-1.122855	-0.506126
C134	C	1.500801	-0.622855	-0.006126
C135	C	0.961183	-1.080738	-0.456952
C136	C	1.461183	-0.580738	0.043048
H137	H	0.967741	-1.147756	-0.539146
H138	H	1.467741	-0.647756	-0.039146
H139	H	1.034112	-1.094199	-0.533022
H140	H	1.534112	-0.594199	-0.033022
H141	H	1.027411	-1.155183	-0.479557
H142	H	1.527411	-0.655183	0.020443
H143	H	0.934577	-1.048407	-0.483520
H144	H	1.434577	-0.548407	0.016480
H145	H	0.927859	-1.109397	-0.430053
H146	H	1.427859	-0.609397	0.069947
H147	H	1.137532	-0.256741	-0.796730
H148	H	1.637532	0.243259	-0.296730
H149	H	1.137548	-0.256705	-0.936156
H150	H	1.637548	0.243295	-0.436156
C151	C	1.202341	-1.033010	-0.216116
C152	C	1.702341	-0.533010	0.283884
C153	C	1.158894	-1.080698	-0.259526
C154	C	1.658894	-0.580698	0.240474
H155	H	1.233192	-1.057893	-0.185319
H156	H	1.733192	-0.557893	0.314681
H157	H	1.231740	-1.004359	-0.246922
H158	H	1.731740	-0.504359	0.253078
H159	H	1.171552	-1.004444	-0.186656
H160	H	1.671552	-0.504444	0.313344
H161	H	1.189683	-1.109261	-0.288990
H162	H	1.689683	-0.609261	0.211010
H163	H	1.129492	-1.109361	-0.228716
H164	H	1.629492	-0.609361	0.271284
H165	H	0.614808	-0.419938	-0.458560
H166	H	1.114808	0.080062	0.041440
C167	C	1.085643	-0.791590	-0.244056
C168	C	1.585643	-0.291590	0.255944
C169	C	1.128914	-0.749272	-0.289454
C170	C	1.628914	-0.249272	0.210546
H171	H	1.116556	-0.816534	-0.213379
H172	H	1.616556	-0.316534	0.286621
H173	H	1.054926	-0.763064	-0.214482
H174	H	1.554926	-0.263064	0.285518
H175	H	1.056111	-0.823880	-0.273523
H176	H	1.556111	-0.323880	0.226477
H177	H	1.158443	-0.716979	-0.259987
H178	H	1.658443	-0.216979	0.240013
H179	H	1.159644	-0.777800	-0.319030
H180	H	1.659644	-0.277800	0.180970
C181	C	0.958141	-0.502042	-0.939383
C182	C	1.458141	-0.002042	-0.439383
C183	C	0.945406	-0.432482	-0.954875
C184	C	1.445406	0.067518	-0.454875
H185	H	0.924824	-0.532517	-0.966803
H186	H	1.424824	-0.032517	-0.466803
H187	H	1.007119	-0.512314	-0.952446
H188	H	1.507119	-0.012314	-0.452446
H189	H	0.951103	-0.508471	-0.888392
H190	H	1.451103	-0.008471	-0.388392
H191	H	0.952449	-0.426052	-1.005865
H192	H	1.452449	0.073948	-0.505865
H193	H	0.896417	-0.422207	-0.941817
H194	H	1.396417	0.077793	-0.441817
H195	H	0.622106	-0.256736	-0.280798
H196	H	1.122106	0.243264	0.219202
C197	C	1.174900	-0.642911	-0.243289
C198	C	1.674900	-0.142911	0.256711
C199	C	1.135679	-0.595232	-0.282419
C200	C	1.635679	-0.095232	0.217581
H201	H	1.207965	-0.618020	-0.210266
H202	H	1.707965	-0.118020	0.289734
H203	H	1.141581	-0.671562	-0.216397
H204	H	1.641581	-0.171562	0.283603
H205	H	1.201763	-0.671477	-0.276670
H206	H	1.701763	-0.171477	0.223330
H207	H	1.108812	-0.566669	-0.249039
H208	H	1.608812	-0.066669	0.250961
H209	H	1.169003	-0.566568	-0.309313
H210	H	1.669003	-0.066568	0.190687
C211	C	0.984842	-0.477626	-0.751346
C212	C	1.484842	0.022374	-0.251346
C213	C	0.945380	-0.432519	-0.793532
C214	C	1.445380	0.067481	-0.293532
H215	H	0.951519	-0.508107	-0.726608
H216	H	1.451519	-0.008107	-0.226608
H217	H	1.015686	-0.504487	-0.782526
H218	H	1.515686	-0.004487	-0.282526
H219	H	1.014076	-0.450874	-0.716285
H220	H	1.514076	0.049126	-0.216285
H221	H	0.916150	-0.459271	-0.828597
H222	H	1.416150	0.040729	-0.328597
H223	H	0.914523	-0.405655	-0.762349
H224	H	1.414523	0.094345	-0.262349
H225	H	0.980966	-0.937207	-0.437120
H226	H	1.480966	-0.437207	0.062880
C227	C	1.214817	-0.884474	-0.292284
C228	C	1.714817	-0.384474	0.207716
C229	C	1.165715	-0.926717	-0.252624
C230	C	1.665715	-0.426717	0.247376
H231	H	1.247872	-0.859575	-0.259256
H232	H	1.747872	-0.359575	0.240744
H233	H	1.241684	-0.913045	-0.325645
H234	H	1.741684	-0.413045	0.174355
H235	H	1.188194	-0.852145	-0.318837
H236	H	1.688194	-0.352145	0.181163
H237	H	1.192338	-0.959050	-0.226075
H238	H	1.692338	-0.459050	0.273925
H239	H	1.138846	-0.898144	-0.219250
H240	H	1.638846	-0.398144	0.280750
H241	H	0.945031	-0.738785	-0.472887
H242	H	1.445031	-0.238785	0.027113
H243	H	0.950927	-0.605708	-0.466919
H244	H	1.450927	-0.105708	0.033081
H245	H	1.109698	-0.825532	-0.308516
H246	H	1.609698	-0.325532	0.191484
