data_functionalizedCrystal
_audit_creation_method	'MofGen! by Chris Wilmer'
_symmetry_space_group_name_H-M	'P1'
_symmetry_Int_Tables_number	1
_symmetry_cell_setting	triclinic
loop_
_symmetry_equiv_pos_as_xyz
  x,y,z
_cell_length_a	18.050591
_cell_length_b	25.639239
_cell_length_c	25.639234
_cell_angle_alpha	90.024905
_cell_angle_beta	90.026596
_cell_angle_gamma	90.034692
loop_
_atom_site_label
_atom_site_type_symbol
_atom_site_fract_x
_atom_site_fract_y
_atom_site_fract_z
Zn1	Zn	1.135280	-0.208238	0.295704
Zn2	Zn	1.135156	-0.295666	0.208268
Zn3	Zn	1.011087	-0.208241	0.208272
Zn4	Zn	1.011025	-0.295638	0.295662
O5	O	1.073137	-0.251946	0.251977
O6	O	1.239188	-0.219847	0.284121
O7	O	1.118672	-0.284082	0.135103
O8	O	1.027640	-0.135075	0.219889
O9	O	1.239097	-0.284080	0.219882
O10	O	1.118884	-0.135073	0.284125
O11	O	1.027519	-0.219851	0.135106
O12	O	0.907154	-0.219824	0.219849
O13	O	1.027533	-0.284032	0.368833
O14	O	0.907108	-0.284034	0.284054
O15	O	1.118823	-0.219819	0.368864
O16	O	1.118611	-0.368828	0.219842
O17	O	1.027413	-0.368807	0.284050
C18	C	0.880185	-0.251927	0.251948
C19	C	0.797639	-0.251931	0.251948
C20	C	0.598192	-0.216973	0.217113
C21	C	0.548758	-0.264660	0.204245
C22	C	0.646509	-0.251947	0.251971
C23	C	0.548861	-0.204276	0.264838
C24	C	0.500523	-0.251958	0.251993
C25	C	0.598162	-0.299659	0.239078
C26	C	0.598269	-0.239243	0.299694
C27	C	0.548858	-0.286963	0.286843
C28	C	0.730607	-0.251940	0.251957
C29	C	0.416427	-0.251970	0.252007
C30	C	1.073012	-0.387789	0.251953
C31	C	1.073026	-0.445903	0.251960
C32	C	1.120748	-0.806264	0.218600
C33	C	1.120777	-0.860868	0.218607
O34	O	1.161222	-0.889103	0.190218
N35	N	1.073267	-0.888185	0.252011
C36	C	1.025732	-0.860895	0.285414
O37	O	0.985324	-0.889144	0.313828
C38	C	1.025707	-0.806292	0.285409
C39	C	1.073214	-0.778977	0.251999
C40	C	1.168252	-0.778950	0.185194
C41	C	1.168222	-0.724349	0.185186
C42	C	1.120688	-0.697063	0.218585
C43	C	1.073184	-0.724377	0.251992
C44	C	0.978175	-0.779002	0.318814
C45	C	0.978155	-0.724395	0.318807
C46	C	1.025663	-0.697081	0.285397
C47	C	1.025620	-0.642490	0.285383
N48	N	1.073130	-0.615173	0.251980
C49	C	1.120664	-0.642459	0.218581
C50	C	1.025787	-0.975565	0.285422
C51	C	1.025808	-1.030168	0.285425
C52	C	1.120854	-1.030137	0.218619
C53	C	1.120830	-0.975534	0.218614
C54	C	1.073297	-0.948249	0.252018
C55	C	1.120597	-0.527794	0.218567
C56	C	1.120560	-0.473189	0.218561
C57	C	1.025517	-0.473224	0.285369
C58	C	1.025550	-0.527825	0.285373
C59	C	1.073096	-0.555109	0.251970
O60	O	0.985198	-0.614220	0.313760
O61	O	1.161071	-0.614204	0.190177
C62	C	1.266842	-0.251966	0.252006
C63	C	1.349388	-0.251974	0.252018
C64	C	1.073185	-0.251922	0.388350
C65	C	1.073206	-0.251912	0.446464
C66	C	1.073282	-0.115573	0.252012
C67	C	1.073345	-0.057459	0.252027
C68	C	1.073132	-0.251932	0.116134
C69	C	1.073255	-0.251795	0.058020
C70	C	1.025763	-0.218405	0.806834
C71	C	1.025767	-0.218395	0.861438
O72	O	0.985393	-0.189963	0.889681
N73	N	1.073230	-0.251830	0.888746
C74	C	1.120687	-0.285280	0.861447
O75	O	1.161058	-0.313719	0.889689
C76	C	1.120679	-0.285292	0.806844
C77	C	1.073218	-0.251851	0.779539
C78	C	0.978306	-0.184967	0.779529
C79	C	0.978303	-0.184976	0.724928
C80	C	1.025758	-0.218422	0.697633
C81	C	1.073215	-0.251860	0.724938
C82	C	1.168131	-0.318745	0.779546
C83	C	1.168119	-0.318754	0.724939
C84	C	1.120658	-0.285313	0.697634
C85	C	1.120667	-0.285316	0.643042
N86	N	1.073204	-0.251881	0.615734
C87	C	1.025749	-0.218434	0.643029
C88	C	1.120700	-0.285254	0.976118
C89	C	1.120713	-0.285240	1.030720
C90	C	1.025792	-0.218355	1.030708
C91	C	1.025783	-0.218367	0.976104
C92	C	1.073237	-0.251819	0.948810
C93	C	1.025747	-0.218455	0.528364
C94	C	1.025751	-0.218465	0.473759
C95	C	1.120669	-0.285352	0.473777
C96	C	1.120669	-0.285340	0.528377
C97	C	1.073202	-0.251890	0.555670
O98	O	1.161019	-0.313734	0.614765
O99	O	0.985378	-0.190005	0.614781
H100	H	0.619728	-0.339991	0.228159
H101	H	0.527333	-0.316578	0.316331
Cl102	Cl	1.180327	-0.327394	0.439452
H103	H	0.986813	-0.450999	0.312560
H104	H	0.939652	-0.157747	0.702701
H105	H	0.620033	-0.228475	0.340030
Cl106	Cl	0.966132	-0.176309	1.065032
Cl107	Cl	0.918631	-0.142920	0.813833
Cl108	Cl	0.966114	-0.176327	0.941783
H109	H	0.619853	-0.187428	0.187603
Cl110	Cl	0.515181	-0.281263	0.141951
H111	H	0.527165	-0.163961	0.275694
Cl112	Cl	1.180288	-0.438855	0.176557
Cl113	Cl	1.180369	-0.327308	0.941811
H114	H	0.939449	-0.702182	0.346011
H115	H	1.159561	-1.052364	0.191425
H116	H	1.159514	-0.953298	0.191409
Cl117	Cl	1.180368	-0.562085	0.176574
Cl118	Cl	1.227960	-0.690020	0.143191
H119	H	1.206767	-0.345992	0.702719
H120	H	1.206963	-0.801160	0.157996
Cl121	Cl	0.966073	-1.064499	0.327421
H122	H	0.987074	-0.953352	0.312622
H123	H	1.206779	-0.345976	0.801769
H124	H	0.986868	-0.550065	0.312579
H125	H	0.939486	-0.801232	0.346018
Cl126	Cl	0.966083	-0.176421	0.439436
Cl127	Cl	0.966080	-0.176399	0.562666
H128	H	1.159368	-0.312465	1.052948
Cl129	Cl	1.180347	-0.327371	0.562705
