data_functionalizedCrystal
_audit_creation_method	'MofGen! by Chris Wilmer'
_symmetry_space_group_name_H-M	'P1'
_symmetry_Int_Tables_number	1
_symmetry_cell_setting	triclinic
loop_
_symmetry_equiv_pos_as_xyz
  x,y,z
_cell_length_a	18.050590
_cell_length_b	16.120530
_cell_length_c	16.120297
_cell_angle_alpha	89.871860
_cell_angle_beta	92.884174
_cell_angle_gamma	92.907328
loop_
_atom_site_label
_atom_site_type_symbol
_atom_site_fract_x
_atom_site_fract_y
_atom_site_fract_z
Zn1	Zn	0.376261	1.247635	0.534650
Zn2	Zn	0.626261	1.497635	0.784650
Zn3	Zn	0.876261	1.747635	1.034650
Zn4	Zn	1.126261	1.997635	1.284650
Zn5	Zn	0.494490	1.254646	0.395619
Zn6	Zn	0.744490	1.504646	0.645619
Zn7	Zn	0.994490	1.754646	0.895619
Zn8	Zn	1.244490	2.004646	1.145619
Zn9	Zn	0.363711	1.115618	0.388565
Zn10	Zn	0.613711	1.365618	0.638565
Zn11	Zn	0.863711	1.615618	0.888565
Zn12	Zn	1.113711	1.865618	1.138565
Zn13	Zn	0.493806	1.108602	0.527588
Zn14	Zn	0.743806	1.358602	0.777588
Zn15	Zn	0.993806	1.608602	1.027588
Zn16	Zn	1.243806	1.858602	1.277588
O17	O	0.432067	1.181625	0.461606
O18	O	0.682067	1.431625	0.711606
O19	O	0.932067	1.681625	0.961606
O20	O	1.182067	1.931625	1.211606
O21	O	0.397483	1.364934	0.522115
O22	O	0.647483	1.614934	0.772115
O23	O	0.897483	1.864934	1.022115
O24	O	1.147483	2.114934	1.272115
O25	O	0.472176	1.242075	0.278317
O26	O	0.722176	1.492075	0.528317
O27	O	0.972176	1.742075	0.778317
O28	O	1.222176	1.992075	1.028317
O29	O	0.261452	1.133132	0.407947
O30	O	0.511452	1.383132	0.657947
O31	O	0.761452	1.633132	0.907947
O32	O	1.011452	1.883132	1.157947
O33	O	0.484345	1.370085	0.419969
O34	O	0.734345	1.620085	0.669969
O35	O	0.984345	1.870085	0.919969
O36	O	1.234345	2.120085	1.169969
O37	O	0.270672	1.230124	0.515275
O38	O	0.520672	1.480124	0.765275
O39	O	0.770672	1.730124	1.015275
O40	O	1.020672	1.980124	1.265275
O41	O	0.376093	1.139931	0.273134
O42	O	0.626093	1.389931	0.523134
O43	O	0.876093	1.639931	0.773134
O44	O	1.126093	1.889931	1.023134
O45	O	0.375430	0.998319	0.401099
O46	O	0.625430	1.248319	0.651099
O47	O	0.875430	1.498319	0.901099
O48	O	1.125430	1.748319	1.151099
O49	O	0.483179	1.121175	0.644892
O50	O	0.733179	1.371175	0.894892
O51	O	0.983179	1.621175	1.144892
O52	O	1.233179	1.871175	1.394892
O53	O	0.471010	0.993164	0.503239
O54	O	0.721010	1.243164	0.753239
O55	O	0.971010	1.493164	1.003239
O56	O	1.221010	1.743164	1.253239
O57	O	0.396820	1.223321	0.650080
O58	O	0.646820	1.473321	0.900080
O59	O	0.896820	1.723321	1.150080
O60	O	1.146820	1.973321	1.400080
O61	O	0.598324	1.235271	0.413122
O62	O	0.848324	1.485271	0.663122
O63	O	1.098324	1.735271	0.913122
O64	O	1.348324	1.985271	1.163122
O65	O	0.597821	1.127974	0.510079
O66	O	0.847821	1.377974	0.760079
O67	O	1.097821	1.627974	1.010079
O68	O	1.347821	1.877974	1.260079
C69	C	0.421785	0.965568	0.450638
C70	C	0.671785	1.215568	0.700638
C71	C	0.921785	1.465568	0.950638
C72	C	1.171785	1.715568	1.200638
C73	C	0.417405	0.873137	0.445966
C74	C	0.667405	1.123137	0.695966
C75	C	0.917405	1.373137	0.945966
C76	C	1.167405	1.623137	1.195966
C77	C	0.409391	0.703903	0.437442
C78	C	0.659391	0.953903	0.687442
C79	C	0.909391	1.203903	0.937442
C80	C	1.159391	1.453903	1.187442
C81	C	0.454801	0.660185	0.485829
C82	C	0.704801	0.910185	0.735829
C83	C	0.954801	1.160185	0.985829
C84	C	1.204801	1.410185	1.235829
C85	C	0.450342	0.566018	0.481087
C86	C	0.700342	0.816018	0.731087
C87	C	0.950342	1.066018	0.981087
C88	C	1.200342	1.316018	1.231087
C89	C	0.413849	0.798079	0.442184
C90	C	0.663849	1.048079	0.692184
C91	C	0.913849	1.298079	0.942184
C92	C	1.163849	1.548079	1.192184
C93	C	0.238362	1.181629	0.461612
C94	C	0.488362	1.431629	0.711612
C95	C	0.738362	1.681629	0.961612
C96	C	0.988362	1.931629	1.211612
C97	C	0.155816	1.181630	0.461614
C98	C	0.405816	1.431630	0.711614
C99	C	0.655816	1.681630	0.961614
C100	C	0.905816	1.931630	1.211614
C101	C	-0.098021	1.128929	0.403265
C102	C	0.151979	1.378929	0.653265
C103	C	0.401979	1.628929	0.903265
C104	C	0.651979	1.878929	1.153265
C105	C	-0.045878	1.205812	0.386768
C106	C	0.204122	1.455812	0.636768
C107	C	0.454122	1.705812	0.886768
C108	C	0.704122	1.955812	1.136768
C109	C	-0.141300	1.181696	0.461642
C110	C	0.108700	1.431696	0.711642
C111	C	0.358700	1.681696	0.961642
C112	C	0.608700	1.931696	1.211642
C113	C	-0.046365	1.104787	0.478086
C114	C	0.203635	1.354787	0.728086
C115	C	0.453635	1.604787	0.978086
C116	C	0.703635	1.854787	1.228086
C117	C	0.004683	1.181660	0.461626
C118	C	0.254683	1.431660	0.711626
C119	C	0.504683	1.681660	0.961626
C120	C	0.754683	1.931660	1.211626
C121	C	-0.090244	1.258621	0.445108
C122	C	0.159756	1.508621	0.695108
C123	C	0.409756	1.758621	0.945108
C124	C	0.659756	2.008621	1.195108
C125	C	-0.090736	1.157542	0.536458
C126	C	0.159264	1.407542	0.786458
C127	C	0.409264	1.657542	1.036458
C128	C	0.659264	1.907542	1.286458
C129	C	-0.038612	1.234476	0.519993
C130	C	0.211388	1.484476	0.769993
C131	C	0.461388	1.734476	1.019993
C132	C	0.711388	1.984476	1.269993
C133	C	-0.225397	1.181715	0.461649
C134	C	0.024603	1.431715	0.711649
C135	C	0.274603	1.681715	0.961649
C136	C	0.524603	1.931715	1.211649
C137	C	0.088779	1.181648	0.461620
C138	C	0.338779	1.431648	0.711620
C139	C	0.588779	1.681648	0.961620
C140	C	0.838779	1.931648	1.211620
C141	C	0.625021	1.181644	0.461619
C142	C	0.875021	1.431644	0.711619
C143	C	1.125021	1.681644	0.961619
C144	C	1.375021	1.931644	1.211619
C145	C	0.707572	1.181726	0.461656
C146	C	0.957572	1.431726	0.711656
C147	C	1.207572	1.681726	0.961656
C148	C	1.457572	1.931726	1.211656
C149	C	0.441323	1.170683	0.678502
C150	C	0.691323	1.420683	0.928502
C151	C	0.941323	1.670683	1.178502
C152	C	1.191323	1.920683	1.428502
C153	C	0.445267	1.166020	0.770930
C154	C	0.695267	1.416020	1.020930
C155	C	0.945267	1.666020	1.270930
C156	C	1.195267	1.916020	1.520930
C157	C	0.442390	1.398526	0.472617
C158	C	0.692390	1.648526	0.722617
C159	C	0.942390	1.898526	0.972617
C160	C	1.192390	2.148526	1.222617
C161	C	0.446789	1.490957	0.477309
C162	C	0.696789	1.740957	0.727309
C163	C	0.946789	1.990957	0.977309
C164	C	1.196789	2.240957	1.227309
C165	C	0.422796	1.192573	0.245556
C166	C	0.672796	1.442573	0.495556
C167	C	0.922796	1.692573	0.745556
C168	C	1.172796	1.942573	0.995556
C169	C	0.418650	1.197397	0.153136
C170	C	0.668650	1.447397	0.403136
C171	C	0.918650	1.697397	0.653136
C172	C	1.168650	1.947397	0.903136
C173	C	0.452451	1.157476	0.940156
C174	C	0.702451	1.407476	1.190156
C175	C	0.952451	1.657476	1.440156
C176	C	1.202451	1.907476	1.690156
C177	C	0.411468	1.205939	0.983915
C178	C	0.661468	1.455939	1.233915
C179	C	0.911468	1.705939	1.483915
C180	C	1.161468	1.955939	1.733915
C181	C	0.415465	1.201185	1.078078
C182	C	0.665465	1.451185	1.328078
C183	C	0.915465	1.701185	1.578078
C184	C	1.165465	1.951185	1.828078
C185	C	0.448455	1.162229	0.845984
C186	C	0.698455	1.412229	1.095984
C187	C	0.948455	1.662229	1.345984
C188	C	1.198455	1.912229	1.595984
H189	H	-0.123941	1.084383	0.353871
H190	H	0.126059	1.334383	0.603871
H191	H	0.376059	1.584383	0.853871
H192	H	0.626059	1.834383	1.103871
H193	H	0.373380	1.250998	0.950659
H194	H	0.623380	1.500998	1.200659
H195	H	0.873380	1.750998	1.450659
H196	H	1.123380	2.000998	1.700659
O197	O	0.353462	0.659819	0.377844
O198	O	0.603462	0.909819	0.627844
O199	O	0.853462	1.159819	0.877844
O200	O	1.103462	1.409819	1.127844
H201	H	0.364101	0.679722	0.313382
H202	H	0.614101	0.929722	0.563382
H203	H	0.864101	1.179722	0.813382
H204	H	1.114101	1.429722	1.063382
O205	O	-0.115773	1.344784	0.426575
O206	O	0.134227	1.594784	0.676575
O207	O	0.384227	1.844784	0.926575
O208	O	0.634227	2.094784	1.176575
H209	H	-0.066742	1.387582	0.417392
H210	H	0.183258	1.637582	0.667392
H211	H	0.433258	1.887582	0.917392
H212	H	0.683258	2.137582	1.167392
O213	O	-0.004448	1.293631	0.585380
O214	O	0.245552	1.543631	0.835380
O215	O	0.495552	1.793631	1.085380
O216	O	0.745552	2.043631	1.335380
H217	H	-0.023222	1.274097	0.647295
H218	H	0.226778	1.524097	0.897295
H219	H	0.476778	1.774097	1.147295
H220	H	0.726778	2.024097	1.397295
H221	H	0.497026	0.693479	0.530818
H222	H	0.747026	0.943479	0.780818
H223	H	0.997026	1.193479	1.030818
H224	H	1.247026	1.443479	1.280818
O225	O	-0.020832	1.018656	0.496784
O226	O	0.229168	1.268656	0.746784
O227	O	0.479168	1.518656	0.996784
O228	O	0.729168	1.768656	1.246784
H229	H	0.040711	1.019407	0.497313
H230	H	0.290711	1.269407	0.747313
H231	H	0.540711	1.519407	0.997313
H232	H	0.790711	1.769407	1.247313
H233	H	-0.110534	1.137102	0.599716
H234	H	0.139466	1.387102	0.849716
H235	H	0.389466	1.637102	1.099716
H236	H	0.639466	1.887102	1.349716
H237	H	-0.026098	1.226231	0.323491
H238	H	0.223902	1.476231	0.573491
H239	H	0.473902	1.726231	0.823491
H240	H	0.723902	1.976231	1.073491
O241	O	0.502903	1.097791	0.984197
O242	O	0.752903	1.347791	1.234197
O243	O	1.002903	1.597791	1.484197
O244	O	1.252903	1.847791	1.734197
H245	H	0.498165	1.103384	1.052317
H246	H	0.748165	1.353384	1.302317
H247	H	0.998165	1.603384	1.552317
H248	H	1.248165	1.853384	1.802317
