data_functionalizedCrystal
_audit_creation_method	'MofGen! by Chris Wilmer'
_symmetry_space_group_name_H-M	'P1'
_symmetry_Int_Tables_number	1
_symmetry_cell_setting	triclinic
loop_
_symmetry_equiv_pos_as_xyz
  x,y,z
_cell_length_a	12.759395
_cell_length_b	12.759394
_cell_length_c	19.076919
_cell_angle_alpha	87.725879
_cell_angle_beta	87.717199
_cell_angle_gamma	90.015598
loop_
_atom_site_label
_atom_site_type_symbol
_atom_site_fract_x
_atom_site_fract_y
_atom_site_fract_z
Zn1	Zn	1.582345	-0.442133	0.397929
Zn2	Zn	1.589310	-0.610768	0.280240
Zn3	Zn	1.413718	-0.435107	0.280251
Zn4	Zn	1.406637	-0.617771	0.397899
O5	O	1.498003	-0.526445	0.339080
O6	O	1.730290	-0.464512	0.382325
O7	O	1.571896	-0.581596	0.181752
O8	O	1.436135	-0.289019	0.295879
O9	O	1.735407	-0.588408	0.295859
O10	O	1.560025	-0.294181	0.382336
O11	O	1.442889	-0.452538	0.181760
O12	O	1.265758	-0.459328	0.295850
O13	O	1.424067	-0.600343	0.496392
O14	O	1.260556	-0.593530	0.382285
O15	O	1.553159	-0.471302	0.496414
O16	O	1.565030	-0.758717	0.295830
O17	O	1.430821	-0.763862	0.382274
C18	C	1.225036	-0.526427	0.339066
C19	C	1.108259	-0.526446	0.339077
C20	C	0.883485	-0.397684	0.429282
C21	C	0.935683	-0.333279	0.474365
C22	C	1.045405	-0.333260	0.474353
C23	C	1.102932	-0.397655	0.429254
C24	C	1.050734	-0.462060	0.384172
C25	C	0.941009	-0.462070	0.384187
C26	C	1.056061	-0.590851	0.293994
C27	C	0.946339	-0.590866	0.294001
C28	C	1.113588	-0.655246	0.248895
C29	C	1.061390	-0.719647	0.203808
C30	C	0.951661	-0.719662	0.203822
C31	C	0.894141	-0.655271	0.248919
C32	C	1.497941	-0.799411	0.339063
C33	C	1.498009	-0.916189	0.339079
C34	C	1.637858	-0.910782	0.249132
C35	C	1.707809	-0.962941	0.204167
C36	C	1.707870	-1.072663	0.204186
C37	C	1.637973	-1.130231	0.249177
C38	C	1.568022	-1.078073	0.294142
C39	C	1.567967	-0.968347	0.294116
C40	C	1.428179	-1.083479	0.384091
C41	C	1.428112	-0.973756	0.384069
C42	C	1.358283	-1.141047	0.429081
C43	C	1.288325	-1.088888	0.474044
C44	C	1.288267	-0.979159	0.474022
C45	C	1.358161	-0.921598	0.429034
C46	C	1.772035	-0.526463	0.339094
C47	C	1.888811	-0.526471	0.339100
C48	C	1.487046	-0.537387	0.522654
C49	C	1.482377	-0.542050	0.600883
C50	C	1.498093	-0.252413	0.339112
C51	C	1.498131	-0.135637	0.339126
C52	C	1.508977	-0.515469	0.156219
C53	C	1.513850	-0.510510	0.077991
C54	C	1.547391	-0.477059	0.637648
C55	C	1.542991	-0.481437	0.711152
C56	C	1.473581	-0.550811	0.747890
C57	C	1.408560	-0.615804	0.711120
C58	C	1.412955	-0.611421	0.637617
C59	C	1.453224	-0.571120	0.967718
C60	C	1.448836	-0.575501	1.041226
C61	C	1.583266	-0.441131	1.041253
C62	C	1.587659	-0.436758	0.967748
C63	C	1.522634	-0.501748	0.930985
N64	N	1.469085	-0.555289	0.823023
N65	N	1.527126	-0.497263	0.855854
H66	H	1.202929	-0.655233	0.248893
H67	H	1.087904	-0.280818	0.511064
C68	C	1.381664	-0.642594	0.927300
C69	C	1.302197	-0.594021	0.876792
C70	C	1.230615	-0.665490	0.836378
C71	C	1.238501	-0.785531	0.846471
C72	C	1.317972	-0.834110	0.896981
C73	C	1.389554	-0.762641	0.937396
H74	H	1.296356	-0.505154	0.869319
H75	H	1.171785	-0.629528	0.798987
H76	H	1.185512	-0.838437	0.816554
H77	H	1.323813	-0.922978	0.904455
H78	H	1.448383	-0.798603	0.974787
C79	C	1.211450	-1.152211	0.523531
C80	C	1.211523	-1.272903	0.523559
C81	C	1.134646	-1.336231	0.573047
C82	C	1.057696	-1.278866	0.622506
C83	C	1.057620	-1.158168	0.622480
C84	C	1.134496	-1.094841	0.572992
H85	H	1.268489	-1.315373	0.486944
H86	H	1.134704	-1.425580	0.573066
H87	H	1.000787	-1.325745	0.659140
H88	H	1.000654	-1.115698	0.659094
H89	H	1.134439	-1.005491	0.572973
H90	H	1.595935	-0.428517	0.741082
C91	C	1.124670	-0.790476	0.154206
C92	C	1.203390	-0.741519	0.099000
C93	C	1.266674	-0.812347	0.049396
C94	C	1.251239	-0.932133	0.054998
C95	C	1.172515	-0.981096	0.110206
C96	C	1.109230	-0.910268	0.159810
H97	H	1.214819	-0.652840	0.094851
H98	H	1.324951	-0.776101	0.008527
H99	H	1.298086	-0.984564	0.018278
H100	H	1.161085	-1.069774	0.114355
H101	H	1.050954	-0.946514	0.200679
C102	C	0.872403	-0.262435	0.523964
C103	C	0.751712	-0.262437	0.523976
C104	C	0.688438	-0.191591	0.573574
C105	C	0.745853	-0.120742	0.623159
C106	C	0.866551	-0.120737	0.623149
C107	C	0.929826	-0.191584	0.573552
H108	H	0.709204	-0.314886	0.487269
H109	H	0.599089	-0.191595	0.573581
H110	H	0.699014	-0.068298	0.659874
H111	H	0.909060	-0.068289	0.659857
H112	H	1.019174	-0.191580	0.573545
C113	C	0.894247	-0.790510	0.154228
C114	C	0.957528	-0.861336	0.104627
C115	C	0.900119	-0.932185	0.055032
C116	C	0.779429	-0.932208	0.055040
C117	C	0.716140	-0.861380	0.104644
C118	C	0.773550	-0.790531	0.154238
H119	H	1.046877	-0.861321	0.104619
H120	H	0.946970	-0.984616	0.018312
H121	H	0.736931	-0.984655	0.018328
H122	H	0.626792	-0.861395	0.104651
H123	H	0.726699	-0.738099	0.190958
C124	C	1.784812	-1.130044	0.154724
C125	C	1.861695	-1.066733	0.105237
C126	C	1.938636	-1.124114	0.055775
C127	C	1.938695	-1.244805	0.055799
C128	C	1.861809	-1.308123	0.105288
C129	C	1.784868	-1.250742	0.154751
H130	H	1.861655	-0.977384	0.105218
H131	H	1.995552	-1.077241	0.019140
H132	H	1.995651	-1.287282	0.019184
H133	H	1.861849	-1.397472	0.105308
H134	H	1.727952	-1.297615	0.191385
H135	H	1.192273	-0.397645	0.429255
H136	H	1.636204	-0.388219	1.071193
C137	C	1.211317	-0.921788	0.523485
C138	C	1.092242	-0.936635	0.517683
C139	C	1.015291	-0.879269	0.567146
C140	C	1.057415	-0.807056	0.622413
C141	C	1.176495	-0.792205	0.628217
C142	C	1.253447	-0.849571	0.578754
H143	H	1.061054	-0.990095	0.476769
H144	H	0.927139	-0.890263	0.562849
H145	H	1.000451	-0.764590	0.659029
H146	H	1.207683	-0.738745	0.669131
H147	H	1.341598	-0.838577	0.583051
C148	C	1.664011	-0.360444	0.927339
C149	C	1.735527	-0.288953	0.967778
C150	C	1.811884	-0.212643	0.927368
C151	C	1.816725	-0.207825	0.846518
C152	C	1.745206	-0.279319	0.806074
C153	C	1.668849	-0.355629	0.846484
H154	H	1.731946	-0.292517	1.027633
H155	H	1.864827	-0.159719	0.957308
H156	H	1.873249	-0.151336	0.816604
H157	H	1.748787	-0.275754	0.746219
H158	H	1.615906	-0.408553	0.816544
H159	H	1.638037	-1.219573	0.249195
H160	H	1.358342	-1.230389	0.429097
H161	H	1.358114	-0.832256	0.429008
H162	H	0.804799	-0.655263	0.248925
H163	H	0.794144	-0.397669	0.429282
H164	H	1.637803	-0.821440	0.249103
H165	H	1.764720	-0.916060	0.167538
H166	H	1.603915	-0.420571	0.607741
H167	H	1.392311	-0.631996	1.071136
H168	H	1.352041	-0.672287	0.741038
H169	H	1.360003	-0.664333	0.607685
