data_functionalizedCrystal
_audit_creation_method	'MofGen! by Chris Wilmer'
_symmetry_space_group_name_H-M	'P1'
_symmetry_Int_Tables_number	1
_symmetry_cell_setting	triclinic
loop_
_symmetry_equiv_pos_as_xyz
  x,y,z
_cell_length_a	16.109302
_cell_length_b	10.654545
_cell_length_c	14.586319
_cell_angle_alpha	89.998553
_cell_angle_beta	89.994552
_cell_angle_gamma	83.973604
loop_
_atom_site_label
_atom_site_type_symbol
_atom_site_fract_x
_atom_site_fract_y
_atom_site_fract_z
O1	O	1.104091	0.161423	-0.076277
O2	O	1.604091	0.661423	0.423723
O3	O	0.862148	0.181511	-0.076269
O4	O	1.362148	0.681511	0.423731
O5	O	0.988682	-0.011348	-0.076272
O6	O	1.488682	0.488652	0.423728
O7	O	0.977557	0.354282	-0.076273
O8	O	1.477557	0.854282	0.423727
O9	O	0.988673	-0.011350	0.076208
O10	O	1.488673	0.488650	0.576208
O11	O	0.862139	0.181508	0.076212
O12	O	1.362139	0.681508	0.576212
O13	O	1.104082	0.161420	0.076204
O14	O	1.604082	0.661420	0.576204
Cu15	Cu	0.983110	0.171464	0.090131
Cu16	Cu	1.483110	0.671464	0.590131
Cu17	Cu	0.983120	0.171467	-0.090196
Cu18	Cu	1.483120	0.671467	0.409804
O19	O	0.977548	0.354279	0.076207
O20	O	1.477548	0.854279	0.576207
C21	C	0.831164	0.180695	-0.000028
C22	C	1.331164	0.680695	0.499972
C23	C	0.738854	0.178255	-0.000025
C24	C	1.238854	0.678255	0.499975
C25	C	0.526475	0.172612	0.083083
C26	C	1.026475	0.672612	0.583083
C27	C	0.439741	0.170306	0.083080
C28	C	0.939741	0.670306	0.583080
C29	C	0.439761	0.170316	-0.083163
C30	C	0.939761	0.670316	0.416837
C31	C	0.526494	0.172613	-0.083159
C32	C	1.026494	0.672613	0.416841
C33	C	0.569848	0.173767	-0.000033
C34	C	1.069848	0.673767	0.499967
C35	C	0.396382	0.169164	-0.000040
C36	C	0.896382	0.669164	0.499960
C37	C	0.302341	0.166664	-0.000044
C38	C	0.802341	0.666664	0.499956
C39	C	0.663895	0.176265	-0.000028
C40	C	1.163895	0.676265	0.499972
C41	C	0.987860	-0.058136	-0.000034
C42	C	1.487860	0.441864	0.499966
C43	C	0.985416	-0.197546	-0.000039
C44	C	1.485416	0.302454	0.499961
C45	C	0.985435	-0.197552	-0.166278
C46	C	1.485435	0.302448	0.333722
C47	C	0.984300	-0.263049	-0.249397
C48	C	1.484300	0.236951	0.250603
C49	C	0.982003	-0.394036	-0.249398
C50	C	1.482003	0.105964	0.250602
C51	C	0.980840	-0.459529	-0.166271
C52	C	1.480840	0.040471	0.333729
C53	C	0.981975	-0.394032	-0.083152
C54	C	1.481975	0.105968	0.416848
C55	C	0.984274	-0.263042	-0.083160
C56	C	1.484274	0.236958	0.416840
C57	C	0.981950	-0.394026	0.083085
C58	C	1.481950	0.105974	0.583085
C59	C	0.984252	-0.263039	0.083088
C60	C	1.484252	0.236961	0.583088
C61	C	0.980786	-0.459519	0.166212
C62	C	1.480786	0.040481	0.666212
C63	C	0.981927	-0.394023	0.249334
C64	C	1.481927	0.105977	0.749334
C65	C	0.984225	-0.263027	0.249331
C66	C	1.484225	0.236973	0.749331
C67	C	0.985388	-0.197542	0.166207
C68	C	1.485388	0.302458	0.666207
C69	C	1.135066	0.162236	-0.000039
C70	C	1.635066	0.662236	0.499961
C71	C	1.227376	0.164676	-0.000048
C72	C	1.727376	0.664676	0.499952
C73	C	0.978370	0.401067	-0.000033
C74	C	1.478370	0.901067	0.499967
C75	C	0.980814	0.540477	-0.000034
C76	C	1.480814	1.040477	0.499966
N77	N	0.983108	0.171461	0.216962
N78	N	1.483108	0.671461	0.716962
N79	N	0.983128	0.171460	-0.217027
N80	N	1.483128	0.671460	0.282973
C81	C	1.039156	0.086092	0.451967
C82	C	1.539156	0.586092	0.951967
C83	C	1.039159	0.086089	0.547949
C84	C	1.539159	0.586089	1.047949
C85	C	0.927074	0.256834	0.547961
C86	C	1.427074	0.756834	1.047961
C87	C	0.927069	0.256830	0.451982
C88	C	1.427069	0.756830	0.951982
C89	C	0.983114	0.171460	0.403987
C90	C	1.483114	0.671460	0.903987
C91	C	0.983122	0.171461	0.595948
C92	C	1.483122	0.671461	1.095948
C93	C	0.983125	0.171458	0.700015
C94	C	1.483125	0.671458	1.200015
C95	C	0.983111	0.171461	0.299913
C96	C	1.483111	0.671461	0.799913
H97	H	0.561771	0.173552	0.150770
H98	H	1.061771	0.673552	0.650770
H99	H	0.980974	-0.447356	0.317009
H100	H	1.480974	0.052644	0.817009
H101	H	1.084791	0.016577	0.412893
H102	H	1.584791	0.516577	0.912893
H103	H	0.978911	-0.566175	0.166206
H104	H	1.478911	-0.066175	0.666206
Br105	Br	0.380880	0.168736	0.195886
Br106	Br	0.880880	0.668736	0.695886
H107	H	0.881444	0.326341	0.587048
H108	H	1.381444	0.826341	1.087048
H109	H	0.985137	-0.209705	0.317017
H110	H	1.485137	0.290295	0.817017
Br111	Br	0.988573	-0.019785	-0.166283
Br112	Br	1.488573	0.480215	0.333717
H113	H	1.084792	0.016573	0.587011
H114	H	1.584792	0.516573	1.087011
Br115	Br	0.985901	-0.174166	-0.362208
Br116	Br	1.485901	0.325834	0.137792
Br117	Br	0.380922	0.168710	-0.195971
Br118	Br	0.880922	0.668710	0.304029
Br119	Br	0.851000	0.372685	0.386858
Br120	Br	1.351000	0.872685	0.886858
H121	H	0.981071	-0.447362	-0.317081
H122	H	1.481071	0.052638	0.182919
H123	H	0.561810	0.173550	-0.150846
H124	H	1.061810	0.673550	0.349154
H125	H	0.978960	-0.566184	-0.166280
H126	H	1.478960	-0.066184	0.333720
Br127	Br	0.988513	-0.019773	0.166197
Br128	Br	1.488513	0.480227	0.666197
