data_functionalizedCrystal
_audit_creation_method	'MofGen! by Chris Wilmer'
_symmetry_space_group_name_H-M	'P1'
_symmetry_Int_Tables_number	1
_symmetry_cell_setting	triclinic
loop_
_symmetry_equiv_pos_as_xyz
  x,y,z
_cell_length_a	14.853569
_cell_length_b	14.853567
_cell_length_c	15.455313
_cell_angle_alpha	92.672621
_cell_angle_beta	87.316928
_cell_angle_gamma	83.635248
loop_
_atom_site_label
_atom_site_type_symbol
_atom_site_fract_x
_atom_site_fract_y
_atom_site_fract_z
O1	O	1.200308	0.113775	-0.072084
O2	O	0.937849	0.127794	-0.072093
O3	O	1.076089	-0.010445	-0.072091
O4	O	1.062068	0.252015	-0.072086
O5	O	1.068184	-0.002573	0.072171
O6	O	0.929944	0.135667	0.072169
O7	O	1.192403	0.121648	0.072178
Cu8	Cu	1.060451	0.129376	0.085346
Cu9	Cu	1.069800	0.120066	-0.085261
O10	O	1.054162	0.259887	0.072176
C11	C	0.900308	0.131095	0.000036
C12	C	0.800225	0.129191	0.000032
C13	C	0.763848	0.046179	0.000028
C14	C	0.742558	0.210413	0.000041
C15	C	0.648524	0.208626	0.000041
C16	C	0.612148	0.125615	0.000037
C17	C	0.669805	0.044390	0.000031
C18	C	0.590859	0.289850	0.000056
C19	C	0.496818	0.288067	0.000058
C20	C	0.460441	0.205054	0.000047
C21	C	0.518105	0.123826	0.000040
C22	C	0.481728	0.040815	0.000036
C23	C	0.539391	-0.040414	0.000023
C24	C	0.633428	-0.038622	0.000021
C25	C	0.366404	0.203262	0.000050
C26	C	0.387686	0.039026	0.000039
C27	C	1.071502	-0.040098	0.000038
C28	C	1.069598	-0.140182	0.000030
C29	C	0.979432	-0.552715	0.000043
C30	C	1.143664	-0.573995	0.000049
C31	C	1.145455	-0.479962	0.000044
C32	C	1.064232	-0.422301	0.000040
C33	C	0.981220	-0.458673	0.000041
C34	C	1.228465	-0.443582	0.000052
C35	C	1.230259	-0.349543	0.000048
C36	C	1.149036	-0.291880	0.000038
C37	C	1.066020	-0.328258	0.000037
C38	C	0.984798	-0.270597	0.000033
C39	C	0.901781	-0.306973	0.000027
C40	C	0.899997	-0.401010	0.000030
C41	C	1.150820	-0.197843	0.000034
C42	C	0.986586	-0.176554	0.000031
C43	C	1.229944	0.118347	0.000047
C44	C	1.330028	0.120251	0.000045
C45	C	1.058750	0.289540	0.000045
C46	C	1.060654	0.389623	0.000047
N47	N	1.053883	0.135924	0.205341
N48	N	1.076376	0.113511	-0.205256
C49	C	1.112632	0.077216	0.250736
C50	C	1.107673	0.082177	0.341544
C51	C	1.043967	0.145849	0.386955
C52	C	0.985211	0.204559	0.341554
C53	C	0.990167	0.199594	0.250747
C54	C	1.022576	0.167256	0.658536
C55	C	1.017627	0.172218	0.749349
C56	C	1.140088	0.049834	0.749333
C57	C	1.145041	0.044878	0.658525
C58	C	1.086282	0.103585	0.613131
N59	N	1.038898	0.150922	0.479775
N60	N	1.091348	0.098507	0.520313
H61	H	0.449876	0.354209	0.000067
O62	O	0.777836	0.291078	0.000201
C63	C	0.744271	0.344678	0.074907
H64	H	0.721788	0.298986	0.127125
H65	H	0.799911	0.384472	0.099990
H66	H	0.683973	0.393919	0.058017
H67	H	0.319459	0.269398	0.000068
H68	H	1.209791	-0.620948	0.000059
H69	H	0.920443	-0.129612	0.000024
O70	O	0.933229	0.256657	0.206552
C71	C	0.984439	0.309509	0.154026
H72	H	1.055681	0.272989	0.140413
H73	H	0.950312	0.320208	0.090177
H74	H	0.988732	0.378066	0.189013
O75	O	1.164776	0.025283	0.385741
C76	C	1.217591	0.076547	0.438237
H77	H	1.181020	0.147769	0.451836
H78	H	1.228321	0.042438	0.502096
H79	H	1.286136	0.080887	0.403232
H80	H	0.933336	0.256400	0.378532
H81	H	0.835650	-0.260013	0.000030
H82	H	0.832409	-0.430637	0.000026
H83	H	1.187926	0.002037	0.786301
O84	O	1.206949	-0.017056	0.614550
C85	C	1.257756	-0.067796	0.674090
H86	H	1.217263	-0.065345	0.738827
H87	H	1.272855	-0.141203	0.647856
H88	H	1.324234	-0.037871	0.683732
H89	H	0.965747	0.224072	0.786318
O90	O	0.504163	-0.121111	-0.000097
C91	C	0.537674	-0.174694	-0.074831
H92	H	0.604291	-0.151413	-0.099745
H93	H	0.549700	-0.248840	-0.058036
H94	H	0.486131	-0.167159	-0.127141
O95	O	0.898869	-0.588193	0.000077
C96	C	0.914702	-0.683559	0.000053
H97	H	0.983532	-0.704061	0.027368
H98	H	0.859282	-0.710213	0.041933
H99	H	0.914094	-0.713516	-0.069158
O100	O	1.310929	-0.314264	-0.000107
C101	C	1.364547	-0.347823	-0.074808
H102	H	1.318867	-0.370301	-0.127027
H103	H	1.404347	-0.292181	-0.099892
H104	H	1.413784	-0.408121	-0.057910
O105	O	0.965427	0.224164	0.614405
C106	C	0.912629	0.172919	0.561873
H107	H	0.909515	0.103313	0.589244
H108	H	0.841080	0.209525	0.560849
H109	H	0.944596	0.164480	0.493050
H110	H	1.294591	-0.490535	0.000063
H111	H	1.164512	0.025371	0.213769
O112	O	0.352466	-0.041675	-0.000081
C113	C	0.385987	-0.095254	-0.074815
H114	H	0.452599	-0.071961	-0.099727
H115	H	0.398024	-0.169400	-0.058020
H116	H	0.334444	-0.087727	-0.127127
O117	O	1.231401	-0.162404	-0.000075
C118	C	1.241457	-0.112750	-0.074804
H119	H	1.171796	-0.090788	-0.099722
H120	H	1.276544	-0.050206	-0.058002
H121	H	1.284163	-0.157102	-0.127115
H122	H	0.810801	-0.019956	0.000014
O123	O	0.689340	-0.117576	0.000128
C124	C	0.668761	-0.163887	0.074849
H125	H	0.596094	-0.140480	0.099760
H126	H	0.676202	-0.239986	0.058039
H127	H	0.717347	-0.148645	0.127168
O128	O	0.626252	0.370447	-0.000079
C129	C	0.684119	0.372322	-0.074780
H130	H	0.664669	0.322356	-0.127016
H131	H	0.677160	0.443610	-0.099837
H132	H	0.757321	0.352517	-0.057893
