data_functionalizedCrystal
_audit_creation_method	'MofGen! by Chris Wilmer'
_symmetry_space_group_name_H-M	'P1'
_symmetry_Int_Tables_number	1
_symmetry_cell_setting	triclinic
loop_
_symmetry_equiv_pos_as_xyz
  x,y,z
_cell_length_a	19.121102
_cell_length_b	29.839131
_cell_length_c	19.121175
_cell_angle_alpha	92.411984
_cell_angle_beta	85.212968
_cell_angle_gamma	87.595578
loop_
_atom_site_label
_atom_site_type_symbol
_atom_site_fract_x
_atom_site_fract_y
_atom_site_fract_z
Zn1	Zn	1.092523	-0.220827	-0.443651
Zn2	Zn	1.087392	-0.292604	-0.325977
Zn3	Zn	0.969851	-0.214140	-0.320989
Zn4	Zn	0.974791	-0.292574	-0.438589
O5	O	1.031139	-0.255036	-0.382302
O6	O	1.190305	-0.233159	-0.432247
O7	O	1.067584	-0.279410	-0.226853
O8	O	0.986203	-0.152163	-0.337291
O9	O	1.186534	-0.285893	-0.345793
O10	O	1.076330	-0.157076	-0.427410
O11	O	0.981228	-0.221763	-0.223188
O12	O	0.872044	-0.221734	-0.332383
O13	O	0.994624	-0.285843	-0.537724
O14	O	0.875674	-0.279359	-0.418784
O15	O	1.081121	-0.233130	-0.541442
O16	O	1.072375	-0.355464	-0.340885
O17	O	0.989648	-0.355443	-0.423621
C18	C	0.848329	-0.249818	-0.374493
C19	C	0.770122	-0.247597	-0.371170
C20	C	0.735286	-0.276597	-0.414522
C21	C	0.661803	-0.274505	-0.411402
C22	C	0.623157	-0.243413	-0.364926
C23	C	0.657999	-0.214410	-0.321573
C24	C	0.731481	-0.216501	-0.324696
C25	C	0.401194	-0.235595	-0.353251
C26	C	0.327707	-0.233507	-0.350129
C27	C	0.331516	-0.293602	-0.439960
C28	C	0.404999	-0.295692	-0.443077
C29	C	0.439834	-0.266687	-0.399726
C30	C	0.548046	-0.241275	-0.361735
C31	C	0.514945	-0.268824	-0.402921
C32	C	1.031011	-0.371754	-0.382261
C33	C	1.031021	-0.421689	-0.382270
C34	C	1.074300	-0.731340	-0.339290
C35	C	1.074388	-0.919016	-0.339321
O36	O	1.111083	-0.943283	-0.302747
N37	N	1.031287	-0.942484	-0.382361
C38	C	0.988165	-0.919030	-0.425399
O39	O	0.951513	-0.943298	-0.462013
C40	C	0.988082	-0.731355	-0.425371
C41	C	1.031179	-0.707889	-0.382324
C42	C	1.117395	-0.707874	-0.296247
C43	C	1.117369	-0.660957	-0.296237
C44	C	1.074249	-0.637507	-0.339270
C45	C	1.031154	-0.660973	-0.382314
C46	C	0.944964	-0.707903	-0.468413
C47	C	0.944948	-0.660981	-0.468403
C48	C	0.988046	-0.637515	-0.425356
C49	C	0.988009	-0.590606	-0.425337
N50	N	1.031109	-0.567138	-0.382297
C51	C	1.074229	-0.590588	-0.339264
C52	C	0.988211	-1.017563	-0.425410
C53	C	0.988231	-1.064481	-0.425416
C54	C	1.074455	-1.064463	-0.339339
C55	C	1.074431	-1.017544	-0.339330
C56	C	1.031312	-0.994094	-0.382370
C57	C	1.074172	-0.492060	-0.339245
C58	C	1.074141	-0.445140	-0.339237
C59	C	0.987921	-0.445162	-0.425316
C60	C	0.987949	-0.492078	-0.425322
C61	C	1.031080	-0.515526	-0.382285
O62	O	0.951339	-0.566310	-0.461898
O63	O	1.110887	-0.566313	-0.302667
C64	C	1.074325	-0.778256	-0.339301
C65	C	1.031230	-0.801722	-0.382344
C66	C	0.988110	-0.778272	-0.425377
C67	C	1.031250	-0.848641	-0.382350
C68	C	1.074370	-0.872091	-0.339317
C69	C	1.117470	-0.848623	-0.296277
C70	C	1.117445	-0.801706	-0.296267
C71	C	0.945009	-0.801740	-0.468417
C72	C	0.945038	-0.848656	-0.468423
C73	C	0.988158	-0.872107	-0.425390
C74	C	1.214664	-0.260275	-0.390141
C75	C	1.292871	-0.262508	-0.393481
C76	C	1.038996	-0.260229	-0.565827
C77	C	1.042344	-0.262442	-0.644035
C78	C	1.031288	-0.137864	-0.382358
C79	C	1.031351	-0.087932	-0.382382
C80	C	0.998958	-0.233468	-0.678868
C81	C	1.002101	-0.235551	-0.752352
C82	C	1.048634	-0.266606	-0.791002
C83	C	1.092022	-0.295582	-0.756164
C84	C	1.088875	-0.293501	-0.682680
C85	C	1.060383	-0.274393	-1.012969
C86	C	1.063528	-0.276471	-1.086457
C87	C	0.973605	-0.216440	-1.082641
C88	C	0.970465	-0.214360	-1.009157
C89	C	1.013851	-0.243338	-0.974324
C90	C	1.051850	-0.268735	-0.866115
C91	C	1.010631	-0.241211	-0.899213
C92	C	1.023354	-0.249833	-0.199492
C93	C	1.020142	-0.247497	-0.121290
H94	H	1.109236	-0.426035	-0.304180
O95	O	0.946460	-1.087326	-0.467266
C96	C	0.988442	-1.116847	-0.514472
H97	H	1.040725	-1.124671	-0.491978
H98	H	0.960188	-1.149304	-0.522666
H99	H	0.998359	-1.100440	-0.566944
O100	O	0.620568	-0.184168	-0.276408
C101	C	0.667075	-0.159027	-0.238802
H102	H	0.720697	-0.159805	-0.269855
H103	H	0.645561	-0.122811	-0.230495
H104	H	0.672575	-0.174135	-0.185648
H105	H	0.952857	-0.511185	-0.460377
O106	O	0.435066	-0.207381	-0.311241
C107	C	0.479340	-0.180757	-0.353190
H108	H	0.459581	-0.178974	-0.407674
H109	H	0.479119	-0.145466	-0.327876
H110	H	0.535118	-0.196301	-0.357943
H111	H	1.089737	-0.294020	-0.897592
H112	H	0.303146	-0.317215	-0.475255
H113	H	0.938283	-0.192848	-1.111009
O114	O	0.772850	-0.306845	-0.459570
C115	C	0.813612	-0.335889	-0.421237
H116	H	0.789082	-0.336412	-0.364870
H117	H	0.815499	-0.371227	-0.446623
H118	H	0.869215	-0.323515	-0.421222
O119	O	0.552561	-0.298966	-0.448104
C120	C	0.597037	-0.275931	-0.495442
H121	H	0.607010	-0.241473	-0.471196
H122	H	0.649097	-0.295972	-0.507009
H123	H	0.570970	-0.271722	-0.546399
H124	H	1.095703	-0.297993	-0.984617
O125	O	0.628072	-0.302727	-0.453533
C126	C	0.677939	-0.330613	-0.495228
H127	H	0.729079	-0.332809	-0.468631
H128	H	0.656992	-0.365623	-0.501715
H129	H	0.688069	-0.315959	-0.549053
H130	H	0.296244	-0.208184	-0.312288
H131	H	1.152578	-0.867724	-0.261236
H132	H	1.109296	-0.511146	-0.304202
O133	O	0.946143	-0.422360	-0.467198
C134	C	0.988113	-0.397604	-0.514359
H135	H	1.043717	-0.413415	-0.521114
H136	H	0.964946	-0.397873	-0.567402
H137	H	0.989612	-0.361504	-0.492697
O138	O	0.903148	-0.871380	-0.510307
C139	C	0.865076	-0.840615	-0.548272
H140	H	0.893983	-0.808040	-0.551945
H141	H	0.859910	-0.855510	-0.603388
H142	H	0.810548	-0.833416	-0.520184
O143	O	0.765400	-0.188396	-0.282551
C144	C	0.805908	-0.213848	-0.238827
H145	H	0.817942	-0.248931	-0.264012
H146	H	0.857197	-0.196746	-0.231650
H147	H	0.775342	-0.216450	-0.185464
O148	O	0.965392	-0.211105	-0.861593
C149	C	0.918083	-0.234181	-0.817146
H150	H	0.942381	-0.268624	-0.807186
H151	H	0.906471	-0.214154	-0.765076
H152	H	0.867144	-0.238425	-0.843233
O153	O	0.510464	-0.211134	-0.316518
C154	C	0.465952	-0.234166	-0.269208
H155	H	0.487872	-0.270046	-0.265687
H156	H	0.462791	-0.216304	-0.215073
H157	H	0.411203	-0.234771	-0.288608
O158	O	1.108750	-0.306680	-1.123895
C159	C	1.146381	-0.331803	-1.077395
H160	H	1.115317	-0.331055	-1.023782
H161	H	1.154749	-0.368012	-1.098934
H162	H	1.199507	-0.316659	-1.071868
O163	O	1.137301	-0.325688	-0.793741
C164	C	1.184589	-0.302614	-0.838213
H165	H	1.188033	-0.266730	-0.816271
H166	H	1.238752	-0.320432	-0.841350
H167	H	1.165221	-0.302021	-0.892976
O168	O	0.925161	-0.184238	-0.971645
C169	C	0.855791	-0.192554	-0.986614
H170	H	0.853054	-0.228913	-1.006640
H171	H	0.818964	-0.186320	-0.936808
H172	H	0.839259	-0.169153	-1.028499
H173	H	0.909897	-0.782650	-0.503461
H174	H	1.124210	-0.317092	-0.654320
H175	H	0.909865	-0.727001	-0.503463
O176	O	1.159308	-0.638237	-0.254408
C177	C	1.197357	-0.669003	-0.216423
H178	H	1.201006	-0.703323	-0.245357
H179	H	1.252480	-0.656788	-0.211335
H180	H	1.169353	-0.671776	-0.161863
H181	H	0.436460	-0.321010	-0.480920
H182	H	0.953097	-0.998473	-0.460459
O183	O	0.953853	-0.203256	-0.641301
C184	C	0.992123	-0.174186	-0.600507
H185	H	1.048493	-0.173619	-0.625018
H186	H	0.966681	-0.138865	-0.598608
H187	H	0.992143	-0.186567	-0.544911
O188	O	0.902997	-0.638271	-0.510236
C189	C	0.864983	-0.669049	-0.548243
H190	H	0.861350	-0.701617	-0.519320
H191	H	0.809852	-0.654161	-0.553342
H192	H	0.893004	-0.676257	-0.602798
O193	O	1.159379	-0.778986	-0.254434
C194	C	1.197426	-0.809752	-0.216447
H195	H	1.201081	-0.844071	-0.245383
H196	H	1.252546	-0.797535	-0.211351
H197	H	1.169416	-0.812527	-0.161890
H198	H	1.152512	-0.726962	-0.261204
O199	O	1.116363	-0.994822	-0.297497
C200	C	1.154407	-1.025586	-0.259503
H201	H	1.158064	-1.059906	-0.288436
H202	H	1.209527	-1.013369	-0.254405
H203	H	1.126395	-1.028359	-0.204946
H204	H	1.109565	-1.083565	-0.304300
O205	O	0.959931	-0.207359	-0.786080
C206	C	0.918176	-0.179508	-0.736209
H207	H	0.944757	-0.177294	-0.685060
H208	H	0.911629	-0.144501	-0.757140
H209	H	0.864380	-0.194209	-0.726101
