data_functionalizedCrystal
_audit_creation_method	'MofGen! by Chris Wilmer'
_symmetry_space_group_name_H-M	'P1'
_symmetry_Int_Tables_number	1
_symmetry_cell_setting	triclinic
loop_
_symmetry_equiv_pos_as_xyz
  x,y,z
_cell_length_a	10.723024
_cell_length_b	10.268362
_cell_length_c	10.723024
_cell_angle_alpha	90.004108
_cell_angle_beta	84.467869
_cell_angle_gamma	90.004272
loop_
_atom_site_label
_atom_site_type_symbol
_atom_site_fract_x
_atom_site_fract_y
_atom_site_fract_z
O1	O	1.657189	0.108288	0.175028
O2	O	1.294036	0.108292	0.191782
O3	O	1.483989	0.108285	0.001829
O4	O	1.467236	0.108295	0.364981
O5	O	1.483972	-0.108315	0.001821
O6	O	1.294019	-0.108308	0.191774
O7	O	1.657172	-0.108312	0.175020
Cu8	Cu	1.475594	-0.128088	0.183396
Cu9	Cu	1.475614	0.128068	0.183406
O10	O	1.467219	-0.108305	0.364973
C11	C	1.247528	-0.000007	0.190558
C12	C	1.108974	-0.000006	0.186911
N13	N	1.475589	-0.308254	0.183389
C14	C	1.033991	-0.000002	0.293198
C15	C	0.890788	-0.000001	0.289431
C16	C	1.475608	-0.573924	0.183403
C17	C	1.475593	-0.426086	0.183399
C18	C	1.703680	-0.000010	0.176243
C19	C	1.842234	-0.000003	0.179891
C20	C	1.482762	-0.000013	-0.044675
C21	C	1.479114	-0.000009	-0.183229
N22	N	1.475628	0.308233	0.183403
C23	C	1.585401	-0.000008	-0.258212
C24	C	1.581634	-0.000003	-0.401415
C25	C	1.468447	-0.000004	0.411477
C26	C	1.472094	0.000000	0.550031
H27	H	1.075814	-0.000007	0.386984
Br28	Br	1.733301	-0.000018	-0.508799
H29	H	1.381099	-0.000009	-0.385544
Br30	Br	1.322788	0.000012	-0.252921
H31	H	0.906659	0.000002	0.088896
H32	H	0.826355	0.000008	0.380421
Br33	Br	1.039282	-0.000025	0.030585
H34	H	1.679187	-0.000017	-0.216390
