data_functionalizedCrystal
_audit_creation_method	'MofGen! by Chris Wilmer'
_symmetry_space_group_name_H-M	'P1'
_symmetry_Int_Tables_number	1
_symmetry_cell_setting	triclinic
loop_
_symmetry_equiv_pos_as_xyz
  x,y,z
_cell_length_a	17.640112
_cell_length_b	25.639240
_cell_length_c	25.639243
_cell_angle_alpha	90.016535
_cell_angle_beta	78.812563
_cell_angle_gamma	101.259448
loop_
_atom_site_label
_atom_site_type_symbol
_atom_site_fract_x
_atom_site_fract_y
_atom_site_fract_z
Zn1	Zn	1.208263	-0.046453	0.134300
Zn2	Zn	1.208183	-0.133868	0.046864
Zn3	Zn	1.076114	-0.064135	0.064519
Zn4	Zn	1.076023	-0.151569	0.151910
O5	O	1.142146	-0.099007	0.099398
O6	O	1.318867	-0.043241	0.107944
O7	O	1.190669	-0.124610	-0.023960
O8	O	1.093716	0.011385	0.073794
O9	O	1.318809	-0.107465	0.043705
O10	O	1.190805	0.024376	0.125062
O11	O	1.093638	-0.073378	-0.010989
O12	O	0.965487	-0.090542	0.090869
O13	O	1.093560	-0.137633	0.222740
O14	O	0.965420	-0.154779	0.155075
O15	O	1.190716	-0.060405	0.209802
O16	O	1.190580	-0.209391	0.060780
O17	O	1.093482	-0.222396	0.137957
C18	C	0.936773	-0.126500	0.126799
C19	C	0.848913	-0.138274	0.138534
C20	C	0.560020	-0.009549	0.010256
C21	C	0.477462	-0.020623	0.021289
C22	C	0.477447	-0.087605	0.088032
C23	C	0.560006	-0.076535	0.077005
C24	C	0.601286	-0.037506	0.038116
C25	C	0.601272	-0.104492	0.104866
C26	C	0.683823	-0.093424	0.093839
C27	C	0.725109	-0.054399	0.054951
C28	C	0.683838	-0.026438	0.027089
C29	C	0.559990	-0.143523	0.143752
C30	C	0.601256	-0.171481	0.171613
C31	C	0.683809	-0.160410	0.160589
C32	C	0.725095	-0.121385	0.121700
C33	C	0.725081	-0.188371	0.188450
C34	C	0.807633	-0.177303	0.177423
C35	C	0.807647	-0.110317	0.110673
C36	C	1.142034	-0.234864	0.099372
C37	C	1.142059	-0.292975	0.099369
C38	C	1.192725	-0.646520	0.126151
C39	C	1.192749	-0.701121	0.126158
O40	O	1.235694	-0.723579	0.148905
N41	N	1.142256	-0.735231	0.099434
C42	C	1.091730	-0.714738	0.072705
O43	O	1.048783	-0.748765	0.049976
C44	C	1.091703	-0.660138	0.072701
C45	C	1.142205	-0.626030	0.099423
C46	C	1.243223	-0.612413	0.152870
C47	C	1.243200	-0.557815	0.152862
C48	C	1.192680	-0.537325	0.126134
C49	C	1.142183	-0.571433	0.099414
C50	C	1.041175	-0.639647	0.045976
C51	C	1.041152	-0.585043	0.045975
C52	C	1.091654	-0.550934	0.072696
C53	C	1.091641	-0.496345	0.072678
N54	N	1.142134	-0.462235	0.099402
C55	C	1.192654	-0.482725	0.126130
C56	C	1.091789	-0.829401	0.072717
C57	C	1.091819	-0.883999	0.072717
C58	C	1.192837	-0.870379	0.126171
C59	C	1.192810	-0.815779	0.126167
C60	C	1.142282	-0.795291	0.099441
C61	C	1.192603	-0.368067	0.126110
C62	C	1.192578	-0.313465	0.126097
C63	C	1.091558	-0.327090	0.072646
C64	C	1.091585	-0.381687	0.072656
C65	C	1.142111	-0.402174	0.099392
O66	O	1.048715	-0.473850	0.049945
O67	O	1.235586	-0.448694	0.148861
C68	C	1.348321	-0.071406	0.071891
C69	C	1.436180	-0.059645	0.060168
C70	C	1.142137	-0.099021	0.235772
C71	C	1.142133	-0.099027	0.293887
C72	C	1.142279	0.037384	0.099433
C73	C	1.142336	0.095506	0.099448
C74	C	1.091548	-0.139225	0.551811
C75	C	1.091544	-0.139226	0.497207
O76	O	1.048506	-0.173410	0.474697
N77	N	1.142130	-0.099020	0.463161
C78	C	1.192717	-0.058807	0.483723
O79	O	1.235744	-0.024609	0.449750
C80	C	1.192716	-0.058805	0.538326
C81	C	1.142132	-0.099016	0.572369
C82	C	1.040968	-0.179433	0.585853
C83	C	1.040972	-0.179433	0.640453
C84	C	1.091557	-0.139224	0.661011
C85	C	1.142137	-0.099016	0.626969
C86	C	1.243298	-0.018590	0.558887
C87	C	1.243292	-0.018591	0.613495
C88	C	1.192709	-0.058803	0.647537
C89	C	1.192726	-0.058806	0.702126
N90	N	1.142140	-0.099012	0.736172
C91	C	1.091556	-0.139221	0.715614
C92	C	1.192715	-0.058815	0.369052
C93	C	1.192721	-0.058820	0.314449
C94	C	1.091546	-0.139238	0.327938
C95	C	1.091545	-0.139235	0.382541
C96	C	1.142129	-0.099022	0.403098
C97	C	1.091570	-0.139217	0.830277
C98	C	1.091581	-0.139214	0.884881
C99	C	1.192752	-0.058794	0.871389
C100	C	1.192744	-0.058799	0.816789
C101	C	1.142146	-0.099013	0.796236
O102	O	1.235740	-0.024638	0.724674
O103	O	1.048529	-0.173410	0.749593
C104	C	1.142152	-0.099006	0.963555
C105	C	1.142166	-0.099005	0.905439
H106	H	0.841260	-0.078528	0.079014
H107	H	1.050704	-0.911765	0.050951
H108	H	1.233919	-0.026080	0.286734
Br109	Br	0.972573	-0.557241	0.009702
Br110	Br	0.545226	-0.224454	0.224381
H111	H	1.233939	-0.026058	0.789069
H112	H	1.233740	-0.384741	0.147885
H113	H	0.593632	0.022240	-0.021404
Br114	Br	0.421460	0.017318	-0.016532
Br115	Br	0.972320	-0.234009	0.686646
H116	H	1.050428	-0.310399	0.050882
H117	H	1.233912	-0.026068	0.385785
Br118	Br	0.421417	-0.140579	0.140800
Br119	Br	0.837146	-0.039380	0.039979
H120	H	1.284321	-0.530047	0.174622
Br121	Br	1.311791	-0.640209	0.189152
Br122	Br	1.023059	-0.427977	0.036381
Br123	Br	1.022932	-0.193793	0.931079
Br124	Br	1.022901	-0.193793	0.802392
Br125	Br	0.972630	-0.685923	0.009710
H126	H	0.492771	-0.152533	0.152730
Br127	Br	0.739869	0.026534	-0.025685
Br128	Br	1.311951	0.035987	0.512700
H129	H	0.999771	-0.212176	0.569122
Br130	Br	1.261402	-0.004229	0.899299
H131	H	0.691458	-0.220151	0.220110
Br132	Br	0.863642	-0.215248	0.215231
H133	H	1.050646	-0.812722	0.050948
H134	H	1.233706	-0.285695	0.147856
Br135	Br	1.261351	-0.769495	0.162433
H136	H	1.050356	-0.171978	0.311190
Br137	Br	1.261401	-0.898197	0.162445
Br138	Br	1.022893	-0.193810	0.428736
Br139	Br	1.311935	0.035994	0.641391
