data_functionalizedCrystal
_audit_creation_method	'MofGen! by Chris Wilmer'
_symmetry_space_group_name_H-M	'P1'
_symmetry_Int_Tables_number	1
_symmetry_cell_setting	triclinic
loop_
_symmetry_equiv_pos_as_xyz
  x,y,z
_cell_length_a	13.032721
_cell_length_b	12.827893
_cell_length_c	12.827885
_cell_angle_alpha	90.021189
_cell_angle_beta	97.149035
_cell_angle_gamma	82.797428
loop_
_atom_site_label
_atom_site_type_symbol
_atom_site_fract_x
_atom_site_fract_y
_atom_site_fract_z
Zn1	Zn	-0.416040	-1.544791	-0.643702
Zn2	Zn	-0.082706	-1.211458	-0.310369
Zn3	Zn	0.250627	-0.878125	0.022965
Zn4	Zn	-0.590818	-1.522472	-0.491144
Zn5	Zn	-0.257485	-1.189138	-0.157810
Zn6	Zn	0.075849	-0.855805	0.175523
Zn7	Zn	-0.416085	-1.370027	-0.468976
Zn8	Zn	-0.082751	-1.036694	-0.135642
Zn9	Zn	0.250582	-0.703361	0.197691
Zn10	Zn	-0.590734	-1.347815	-0.665827
Zn11	Zn	-0.257401	-1.014481	-0.332494
Zn12	Zn	0.075932	-0.681148	0.000840
O13	O	-0.503419	-1.446276	-0.567412
O14	O	-0.170086	-1.112943	-0.234079
O15	O	0.163248	-0.779610	0.099255
O16	O	-0.439241	-1.688065	-0.623483
O17	O	-0.105907	-1.354731	-0.290149
O18	O	0.227426	-1.021398	0.043184
O19	O	-0.567693	-1.502204	-0.341974
O20	O	-0.234360	-1.168871	-0.008640
O21	O	0.098974	-0.835538	0.324693
O22	O	-0.269842	-1.411847	-0.473617
O23	O	0.063491	-1.078514	-0.140283
O24	O	0.396825	-0.745180	0.193050
O25	O	-0.567649	-1.671666	-0.511399
O26	O	-0.234316	-1.338333	-0.178065
O27	O	0.099017	-1.005000	0.155268
O28	O	-0.269809	-1.540246	-0.601987
O29	O	0.063524	-1.206912	-0.268654
O30	O	0.396858	-0.873579	0.064679
O31	O	-0.439317	-1.390204	-0.325687
O32	O	-0.105984	-1.056871	0.007646
O33	O	0.227349	-0.723538	0.340980
O34	O	-0.439236	-1.220847	-0.495070
O35	O	-0.105903	-0.887513	-0.161737
O36	O	0.227431	-0.554180	0.171596
O37	O	-0.567507	-1.373989	-0.809121
O38	O	-0.234173	-1.040656	-0.475788
O39	O	0.099160	-0.707322	-0.142455
O40	O	-0.567550	-1.204527	-0.639696
O41	O	-0.234217	-0.871194	-0.306363
O42	O	0.099116	-0.537861	0.026970
O43	O	-0.439159	-1.518707	-0.792866
O44	O	-0.105826	-1.185374	-0.459533
O45	O	0.227507	-0.852040	-0.126200
O46	O	-0.737044	-1.480666	-0.532853
O47	O	-0.403710	-1.147333	-0.199519
O48	O	-0.070377	-0.813999	0.133814
O49	O	-0.736982	-1.352346	-0.661192
O50	O	-0.403649	-1.019013	-0.327858
O51	O	-0.070315	-0.685680	0.005475
C52	C	-0.503390	-1.174770	-0.567379
C53	C	-0.170056	-0.841437	-0.234046
C54	C	0.163277	-0.508103	0.099287
C55	C	-0.503402	-1.058615	-0.567393
C56	C	-0.170069	-0.725282	-0.234060
C57	C	0.163264	-0.391949	0.099273
C58	C	-0.439837	-0.894843	-0.495944
C59	C	-0.106503	-0.561510	-0.162611
C60	C	0.226830	-0.228176	0.170723
C61	C	-0.439822	-1.014895	-0.495928
C62	C	-0.106489	-0.681562	-0.162594
C63	C	0.226844	-0.348229	0.170739
C64	C	-0.774930	-1.411702	-0.601851
C65	C	-0.441597	-1.078369	-0.268518
C66	C	-0.108264	-0.745035	0.064815
C67	C	-0.891084	-1.397007	-0.616620
C68	C	-0.557751	-1.063673	-0.283286
C69	C	-0.224417	-0.730340	0.050047
C70	C	-0.942865	-1.454001	-0.559751
C71	C	-0.609532	-1.120668	-0.226418
C72	C	-0.276198	-0.787335	0.106915
C73	C	-1.062916	-1.438814	-0.575014
C74	C	-0.729582	-1.105481	-0.241680
C75	C	-0.396249	-0.772148	0.091653
C76	C	-0.230848	-1.481014	-0.532861
C77	C	0.102486	-1.147680	-0.199528
C78	C	0.435819	-0.814347	0.133805
C79	C	-0.114694	-1.495817	-0.518138
C80	C	0.218639	-1.162484	-0.184804
C81	C	0.551973	-0.829150	0.148529
C82	C	-0.503319	-1.446360	-0.839970
C83	C	-0.169985	-1.113027	-0.506636
C84	C	0.163348	-0.779693	-0.173303
C85	C	-0.503276	-1.446396	-0.956117
C86	C	-0.169943	-1.113062	-0.622784
C87	C	0.163391	-0.779729	-0.289451
C88	C	-0.503441	-0.718844	-0.567436
C89	C	-0.170107	-0.385510	-0.234103
C90	C	0.163226	-0.052177	0.099231
C91	C	-0.503428	-0.834998	-0.567422
C92	C	-0.170095	-0.501665	-0.234089
C93	C	0.163238	-0.168332	0.099245
C94	C	-0.439753	-1.518015	-0.999857
C95	C	-0.106420	-1.184682	-0.666524
C96	C	0.226913	-0.851349	-0.333190
C97	C	-0.439708	-1.518054	-1.119902
C98	C	-0.106374	-1.184721	-0.786568
C99	C	0.226959	-0.851387	-0.453235
C100	C	-0.503444	-1.446262	-0.295905
C101	C	-0.170110	-1.112929	0.037428
C102	C	0.163223	-0.779596	0.370761
C103	C	-0.503192	-1.446467	-0.179721
C104	C	-0.169859	-1.113133	0.153613
C105	C	0.163475	-0.779800	0.486946
H106	H	-0.557851	-1.007187	-0.628589
H107	H	-0.224518	-0.673854	-0.295256
H108	H	0.108816	-0.340520	0.038078
Br109	Br	-0.594149	-0.897728	-0.669412
Br110	Br	-0.260816	-0.564394	-0.336079
Br111	Br	0.072517	-0.231061	-0.002746
H112	H	-0.898322	-1.514044	-0.499769
H113	H	-0.564988	-1.180711	-0.166435
H114	H	-0.231655	-0.847378	0.166898
Br115	Br	-0.593861	-1.344232	-1.041818
Br116	Br	-0.260527	-1.010898	-0.708485
Br117	Br	0.072806	-0.677565	-0.375152
H118	H	-1.070153	-1.555864	-0.458151
H119	H	-0.736820	-1.222530	-0.124818
H120	H	-0.403487	-0.889197	0.208515
Br121	Br	-0.349096	-0.832116	-0.393971
Br122	Br	-0.015763	-0.498783	-0.060637
Br123	Br	0.317570	-0.165449	0.272696
H124	H	-0.385327	-1.579373	-1.157548
H125	H	-0.051994	-1.246040	-0.824215
H126	H	0.281340	-0.912706	-0.490881
H127	H	-1.107457	-1.378776	-0.635008
H128	H	-0.774124	-1.045443	-0.301675
H129	H	-0.440791	-0.712109	0.031659
H130	H	-0.385383	-1.066329	-0.434729
H131	H	-0.052050	-0.732996	-0.101396
H132	H	0.281284	-0.399662	0.231937
H133	H	-0.935630	-1.336973	-0.676610
H134	H	-0.602296	-1.003639	-0.343276
H135	H	-0.268963	-0.670306	-0.009943
Br136	Br	-0.349128	-1.620144	-0.914151
Br137	Br	-0.015795	-1.286811	-0.580818
Br138	Br	0.317538	-0.953478	-0.247484
H139	H	-0.557583	-1.385151	-1.142082
H140	H	-0.224250	-1.051817	-0.808749
H141	H	0.109084	-0.718484	-0.475416
