data_functionalizedCrystal
_audit_creation_method	'MofGen! by Chris Wilmer'
_symmetry_space_group_name_H-M	'P1'
_symmetry_Int_Tables_number	1
_symmetry_cell_setting	triclinic
loop_
_symmetry_equiv_pos_as_xyz
  x,y,z
_cell_length_a	14.519731
_cell_length_b	10.654550
_cell_length_c	9.730223
_cell_angle_alpha	90.001616
_cell_angle_beta	89.998682
_cell_angle_gamma	95.913122
loop_
_atom_site_label
_atom_site_type_symbol
_atom_site_fract_x
_atom_site_fract_y
_atom_site_fract_z
O1	O	-1.224704	0.164745	0.114326
O2	O	-0.956330	0.184104	0.114321
O3	O	-1.096688	-0.008374	0.114314
O4	O	-1.084347	0.357222	0.114334
O5	O	-1.096686	-0.008369	-0.114266
O6	O	-0.956329	0.184109	-0.114259
O7	O	-1.224703	0.164750	-0.114254
Zn8	Zn	-1.090515	0.174430	-0.150548
Zn9	Zn	-1.090518	0.174424	0.150616
O10	O	-1.084345	0.357227	-0.114246
C11	C	-0.921965	0.183199	0.000031
C12	C	-0.819571	0.180481	0.000029
C13	C	-0.736415	0.178272	0.000032
C14	C	-0.632092	0.175513	0.000029
C15	C	-0.548942	0.173322	0.000027
C16	C	-0.444612	0.170563	0.000027
C17	C	-0.259068	0.165655	0.000033
C18	C	-0.361462	0.168373	0.000025
C19	C	-1.095781	-0.055160	0.000024
C20	C	-1.093070	-0.194578	0.000025
C21	C	-1.085252	0.404014	0.000046
C22	C	-1.087963	0.543432	0.000054
N23	N	-1.090521	0.174434	-0.356085
C24	C	-1.005323	0.623703	0.000040
C25	C	-1.007876	0.754700	0.000030
C26	C	-1.175716	0.725140	0.000044
C27	C	-1.173163	0.594146	0.000063
C28	C	-0.908422	0.640771	0.000026
C29	C	-0.910974	0.771767	0.000016
C30	C	-1.152687	0.089233	-0.428014
C31	C	-1.152685	0.089218	-0.571897
C32	C	-1.028347	0.259614	-0.571908
C33	C	-1.028345	0.259623	-0.428028
C34	C	-1.224476	-0.009140	-0.428008
C35	C	-1.224473	-0.009155	-0.571891
N36	N	-1.090520	0.174410	0.356152
H37	H	-1.240456	0.528792	0.000091
H38	H	-0.977717	0.328988	-0.369464
C39	C	-0.857215	0.601613	0.129249
N40	N	-0.818646	0.572120	0.226577
C41	C	-1.320190	0.019100	-0.624650
N42	N	-1.392272	0.040419	-0.664387
H43	H	-1.245083	0.766448	0.000075
C44	C	-0.866728	0.593009	-0.133295
N45	N	-0.835324	0.557034	-0.233713
H46	H	-0.881694	0.817705	0.098707
H47	H	-0.874468	0.813857	-0.095653
H48	H	-0.977724	0.328972	-0.630500
C49	C	-1.203197	-0.139343	-0.375249
N50	N	-1.187168	-0.237409	-0.335511
H51	H	-1.291433	0.020812	-0.383379
C52	C	-1.194193	-0.132095	-0.632180
N53	N	-1.171380	-0.224689	-0.677590
