data_functionalizedCrystal
_audit_creation_method	'MofGen! by Chris Wilmer'
_symmetry_space_group_name_H-M	'P1'
_symmetry_Int_Tables_number	1
_symmetry_cell_setting	triclinic
loop_
_symmetry_equiv_pos_as_xyz
  x,y,z
_cell_length_a	10.654550
_cell_length_b	23.532407
_cell_length_c	9.730223
_cell_angle_alpha	89.994043
_cell_angle_beta	89.996251
_cell_angle_gamma	83.666790
loop_
_atom_site_label
_atom_site_type_symbol
_atom_site_fract_x
_atom_site_fract_y
_atom_site_fract_z
O1	O	1.665300	0.079982	-0.114418
O2	O	1.299580	0.087603	-0.114398
O3	O	1.493468	0.000933	-0.114384
O4	O	1.471412	0.166652	-0.114433
O5	O	1.493466	0.000935	0.114196
O6	O	1.299578	0.087605	0.114182
O7	O	1.665298	0.079985	0.114161
Zn8	Zn	1.482437	0.083795	0.150464
Zn9	Zn	1.482440	0.083792	-0.150700
O10	O	1.471409	0.166655	0.114147
C11	C	1.252799	0.087044	-0.000105
C12	C	1.113408	0.085370	-0.000096
C13	C	1.032306	0.136400	-0.000131
C14	C	0.901335	0.134824	-0.000154
C15	C	0.932582	0.031183	-0.000113
C16	C	1.063550	0.032760	-0.000080
C17	C	1.014265	0.196236	-0.000161
C18	C	0.883294	0.194660	-0.000184
C19	C	1.492905	-0.020286	-0.000090
C20	C	1.491217	-0.083514	-0.000079
C21	C	1.595364	-0.481938	-0.000161
C22	C	1.593795	-0.541349	-0.000171
O23	O	1.690341	-0.577464	-0.000227
N24	N	1.478529	-0.564726	-0.000164
C25	C	1.364824	-0.528689	-0.000160
O26	O	1.266636	-0.554029	-0.000156
C27	C	1.366394	-0.469280	-0.000159
C28	C	1.481668	-0.445906	-0.000153
C29	C	1.710629	-0.458564	-0.000156
C30	C	1.712197	-0.399158	-0.000143
C31	C	1.598500	-0.363126	-0.000135
C32	C	1.483236	-0.386500	-0.000140
C33	C	1.252690	-0.433244	-0.000165
C34	C	1.254270	-0.373832	-0.000166
C35	C	1.369544	-0.350458	-0.000159
C36	C	1.371107	-0.291061	-0.000119
N37	N	1.486374	-0.267684	-0.000126
C38	C	1.600070	-0.303716	-0.000134
C39	C	1.361535	-0.653453	-0.000163
C40	C	1.359964	-0.712861	-0.000154
C41	C	1.588936	-0.725517	-0.000168
C42	C	1.590506	-0.666108	-0.000167
C43	C	1.476802	-0.630076	-0.000171
C44	C	1.603355	-0.178958	-0.000106
C45	C	1.604913	-0.119546	-0.000087
C46	C	1.375942	-0.106896	-0.000081
C47	C	1.374383	-0.166303	-0.000092
C48	C	1.488100	-0.202333	-0.000109
O49	O	1.274613	-0.254911	-0.000068
O50	O	1.698241	-0.278369	-0.000157
C51	C	1.712079	0.080543	-0.000135
C52	C	1.851469	0.082217	-0.000152
C53	C	1.471972	0.187873	-0.000149
C54	C	1.473661	0.251101	-0.000169
N55	N	1.482444	0.083797	0.356000
N56	N	1.482443	0.083786	-0.356237
C57	C	1.568320	0.045432	0.427932
C58	C	1.568317	0.045425	0.571815
C59	C	1.396559	0.122152	0.571821
C60	C	1.396557	0.122156	0.427941
C61	C	1.667486	0.001136	0.427930
C62	C	1.667483	0.001129	0.571813
H63	H	0.837048	0.212744	0.098495
C64	C	1.640382	-0.057990	0.375181
H65	H	1.629224	-0.082307	0.451124
H66	H	1.709390	-0.074171	0.320939
H67	H	1.565788	-0.053964	0.320950
H68	H	0.891971	-0.011650	-0.000121
C69	C	1.125887	-0.458942	-0.000184
H70	H	1.058410	-0.428967	-0.000197
H71	H	1.120490	-0.481860	0.079520
H72	H	1.120518	-0.481847	-0.079912
C73	C	1.302069	0.164336	0.650953
H74	H	1.250912	0.187179	0.587502
H75	H	1.346910	0.188236	0.707096
H76	H	1.250062	0.143611	0.707065
C77	C	1.233163	-0.738566	-0.000150
H78	H	1.165681	-0.708593	-0.000153
H79	H	1.227780	-0.761485	0.079554
H80	H	1.227790	-0.761470	-0.079878
H81	H	1.042853	0.219639	0.095498
C82	C	0.825967	0.225038	-0.129529
H83	H	0.891265	0.238603	-0.182705
H84	H	0.766928	0.256351	-0.103136
H85	H	0.784362	0.198871	-0.182587
C86	C	1.728440	-0.218583	-0.000113
H87	H	1.797304	-0.196146	-0.000096
H88	H	1.732606	-0.242019	-0.079825
H89	H	1.732588	-0.242025	0.079607
C90	C	1.250886	-0.067253	-0.000080
H91	H	1.268339	-0.028525	-0.000089
H92	H	1.203573	-0.074389	0.079625
H93	H	1.203600	-0.074383	-0.079807
C94	C	1.790073	0.019867	0.367620
H95	H	1.844668	0.028202	0.440326
H96	H	1.770512	0.053027	0.312664
H97	H	1.830683	-0.010083	0.312676
C98	C	1.129191	-0.334200	-0.000164
H99	H	1.060322	-0.356633	-0.000158
H100	H	1.125043	-0.310755	-0.079869
H101	H	1.125037	-0.310768	0.079563
C102	C	1.797435	0.014312	0.624566
H103	H	1.850877	0.019744	0.548624
H104	H	1.834158	-0.016739	0.678801
H105	H	1.787435	0.048074	0.678804
C106	C	1.628057	-0.054749	0.632116
H107	H	1.610507	-0.079630	0.559407
H108	H	1.554654	-0.046387	0.687075
H109	H	1.694710	-0.072710	0.687055
C110	C	1.731719	-0.093838	-0.000088
H111	H	1.799205	-0.123810	-0.000110
H112	H	1.737097	-0.070932	0.079625
H113	H	1.737091	-0.070921	-0.079807
H114	H	1.129581	-0.008793	-0.000032
H115	H	1.049317	0.215288	-0.098854
H116	H	1.326620	0.153390	0.369375
H117	H	1.806065	-0.380133	-0.000143
H118	H	1.684372	-0.647081	-0.000163
C119	C	1.835706	-0.498191	-0.000153
H120	H	1.904567	-0.475753	-0.000140
H121	H	1.839877	-0.521630	-0.079859
H122	H	1.839853	-0.521630	0.079573
C123	C	1.714005	-0.765157	-0.000187
H124	H	1.782886	-0.742732	-0.000179
H125	H	1.718144	-0.788591	-0.079900
H126	H	1.718146	-0.788600	0.079531
H127	H	1.268937	-0.624119	-0.000154
C128	C	1.247586	-0.192015	-0.000102
H129	H	1.180098	-0.162045	-0.000105
H130	H	1.242200	-0.214939	0.079593
H131	H	1.242225	-0.214915	-0.079839
