data_functionalizedCrystal
_audit_creation_method	'MofGen! by Chris Wilmer'
_symmetry_space_group_name_H-M	'P1'
_symmetry_Int_Tables_number	1
_symmetry_cell_setting	triclinic
loop_
_symmetry_equiv_pos_as_xyz
  x,y,z
_cell_length_a	17.699077
_cell_length_b	17.699092
_cell_length_c	16.776229
_cell_angle_alpha	89.995030
_cell_angle_beta	89.993415
_cell_angle_gamma	83.283472
loop_
_atom_site_label
_atom_site_type_symbol
_atom_site_fract_x
_atom_site_fract_y
_atom_site_fract_z
O1	O	1.004084	0.095691	-0.066275
O2	O	0.783706	0.108148	-0.066278
O3	O	0.900118	-0.008269	-0.066274
O4	O	0.887672	0.212109	-0.066278
O5	O	0.900102	-0.008276	0.066302
O6	O	0.783690	0.108141	0.066298
O7	O	1.004069	0.095684	0.066302
Zn8	Zn	0.893877	0.101911	0.087349
Zn9	Zn	0.893897	0.101921	-0.087326
O10	O	0.887656	0.212101	0.066298
C11	C	0.755501	0.107699	0.000010
C12	C	0.671482	0.106362	0.000008
C13	C	0.632007	0.105729	0.072276
C14	C	0.553064	0.104460	0.072277
C15	C	0.513598	0.103831	0.000009
C16	C	0.553080	0.104463	-0.072265
C17	C	0.632021	0.105726	-0.072265
C18	C	0.234716	0.099370	-0.072266
C19	C	0.155768	0.098109	-0.072261
C20	C	0.155759	0.098104	0.072276
C21	C	0.234701	0.099367	0.072276
C22	C	0.274176	0.099994	0.000003
C23	C	0.359774	0.101368	0.000002
C24	C	0.428000	0.102463	0.000008
C25	C	0.899663	-0.036470	0.000013
C26	C	0.898322	-0.120487	0.000009
C27	C	0.897702	-0.159951	-0.072260
C28	C	0.896437	-0.238894	-0.072260
C29	C	0.895798	-0.278373	0.000008
C30	C	0.896415	-0.238903	0.072282
C31	C	0.897675	-0.159961	0.072282
C32	C	0.891335	-0.557268	0.072283
C33	C	0.890078	-0.636216	0.072277
C34	C	0.890097	-0.636201	-0.072260
C35	C	0.891357	-0.557259	-0.072259
C36	C	0.891970	-0.517796	0.000014
C37	C	0.893341	-0.432197	0.000014
C38	C	0.894433	-0.363971	0.000008
C39	C	1.032274	0.096133	0.000012
C40	C	1.116292	0.097470	0.000009
C41	C	0.888111	0.240302	0.000009
C42	C	0.889452	0.324320	0.000008
N43	N	0.893869	0.101905	0.206561
N44	N	0.893912	0.101922	-0.206537
C45	C	0.945432	0.050376	0.248279
C46	C	0.945436	0.050375	0.331732
C47	C	0.893880	0.101907	0.373464
C48	C	0.842312	0.153438	0.331739
C49	C	0.842304	0.153435	0.248288
C50	C	0.842339	0.153453	0.668286
C51	C	0.842352	0.153454	0.751743
C52	C	0.945470	0.050394	0.751729
C53	C	0.945463	0.050390	0.668279
C54	C	0.893892	0.101918	0.626562
C55	C	0.893888	0.101917	0.536073
C56	C	0.893888	0.101913	0.463950
H57	H	0.664161	0.106243	-0.131113
O58	O	0.892001	-0.514707	0.150230
H59	H	0.944136	-0.485575	0.153684
H60	H	0.520928	0.103932	0.131125
H61	H	0.898227	-0.127814	-0.131109
O62	O	0.786726	0.209034	0.623295
H63	H	0.750886	0.244873	0.666336
H64	H	0.889555	-0.668357	0.131130
H65	H	0.800330	0.195394	0.365722
H66	H	0.266848	0.099878	-0.131116
O67	O	1.001052	-0.005204	0.376725
H68	H	0.992391	0.003446	0.441764
H69	H	0.123609	0.097590	0.131125
H70	H	0.889594	-0.668341	-0.131108
H71	H	0.895890	-0.271052	0.131124
H72	H	0.891881	-0.525120	-0.131108
O73	O	0.786682	0.209000	0.203281
H74	H	0.818460	0.245740	0.165235
O75	O	1.001034	-0.005221	0.203282
H76	H	0.969229	-0.041962	0.165278
O77	O	0.674572	0.106417	0.150223
H78	H	0.633856	0.105759	0.200476
O79	O	0.898352	-0.117392	0.150227
H80	H	0.897704	-0.158106	0.200481
H81	H	0.895936	-0.271022	-0.131109
H82	H	0.987447	0.008431	0.634303
H83	H	0.987460	0.008434	0.785705
O84	O	0.277263	0.100048	0.150225
H85	H	0.338788	0.101040	0.138083
H86	H	0.123637	0.097596	-0.131114
H87	H	0.800366	0.195420	0.785720
H88	H	0.520941	0.103946	-0.131107
