data_functionalizedCrystal
_audit_creation_method	'MofGen! by Chris Wilmer'
_symmetry_space_group_name_H-M	'P1'
_symmetry_Int_Tables_number	1
_symmetry_cell_setting	triclinic
loop_
_symmetry_equiv_pos_as_xyz
  x,y,z
_cell_length_a	18.215407
_cell_length_b	18.215405
_cell_length_c	18.215399
_cell_angle_alpha	89.969449
_cell_angle_beta	89.982223
_cell_angle_gamma	90.020505
loop_
_atom_site_label
_atom_site_type_symbol
_atom_site_fract_x
_atom_site_fract_y
_atom_site_fract_z
Zn1	Zn	-1.125072	0.293078	0.416062
Zn2	Zn	-0.625072	0.793078	0.916062
Zn3	Zn	-1.124980	0.416149	0.292990
Zn4	Zn	-0.624980	0.916149	0.792990
Zn5	Zn	-1.002004	0.293092	0.293014
Zn6	Zn	-0.502004	0.793092	0.793014
Zn7	Zn	-1.001970	0.416098	0.416020
Zn8	Zn	-0.501970	0.916098	0.916020
O9	O	-1.063507	0.354604	0.354521
O10	O	-0.563507	0.854604	0.854521
O11	O	-1.228044	0.309419	0.399744
O12	O	-0.728044	0.809419	0.899744
O13	O	-1.108643	0.399852	0.190009
O14	O	-0.608643	0.899852	0.690009
O15	O	-1.018382	0.190105	0.309364
O16	O	-0.518382	0.690105	0.809364
O17	O	-1.227977	0.399839	0.309324
O18	O	-0.727977	0.899839	0.809324
O19	O	-1.108799	0.190095	0.399767
O20	O	-0.608799	0.690095	0.899767
O21	O	-1.018293	0.309443	0.190026
O22	O	-0.518293	0.809443	0.690026
O23	O	-0.899016	0.309393	0.309323
O24	O	-0.399016	0.809393	0.809323
O25	O	-1.018324	0.399752	0.519010
O26	O	-0.518324	0.899752	1.019010
O27	O	-0.898991	0.399765	0.399695
O28	O	-0.398991	0.899765	0.899695
O29	O	-1.108766	0.309369	0.519041
O30	O	-0.608766	0.809369	1.019041
O31	O	-1.108610	0.519127	0.309283
O32	O	-0.608610	1.019127	0.809283
O33	O	-1.018235	0.519089	0.399672
O34	O	-0.518235	1.019089	0.899672
C35	C	-0.872300	0.354575	0.354507
C36	C	-0.372300	0.854575	0.854507
C37	C	-0.790502	0.354581	0.354519
C38	C	-0.290502	0.854581	0.854519
C39	C	-0.602342	0.307590	0.401673
C40	C	-0.102342	0.807590	0.901673
C41	C	-0.525483	0.307594	0.401675
C42	C	-0.025483	0.807594	0.901675
C43	C	-0.525424	0.401607	0.307375
C44	C	-0.025424	0.901607	0.807375
C45	C	-0.602281	0.401599	0.307370
C46	C	-0.102281	0.901599	0.807370
C47	C	-0.640738	0.354591	0.354523
C48	C	-0.140738	0.854591	0.854523
C49	C	-0.487022	0.354603	0.354530
C50	C	0.012978	0.854603	0.854530
C51	C	-0.403688	0.354608	0.354532
C52	C	0.096312	0.854608	0.854532
C53	C	-0.724077	0.354586	0.354521
C54	C	-0.224077	0.854586	0.854521
C55	C	-1.063429	0.545810	0.354486
C56	C	-0.563429	1.045810	0.854486
C57	C	-1.063463	0.627609	0.354496
C58	C	-0.563463	1.127609	0.854496
C59	C	-1.063552	0.354553	0.546474
C60	C	-0.563552	0.854553	1.046474
C61	C	-1.063571	0.354532	0.628273
C62	C	-0.563571	0.854532	1.128273
C63	C	-0.255460	0.354625	0.354534
C64	C	0.244540	0.854625	0.854534
C65	C	-0.337259	0.354614	0.354535
C66	C	0.162741	0.854614	0.854535
C67	C	-1.063605	0.162651	0.354573
C68	C	-0.563605	0.662651	0.854573
C69	C	-1.063647	0.080852	0.354595
C70	C	-0.563647	0.580852	0.854595
C71	C	-1.110632	0.815798	0.307517
C72	C	-0.610632	1.315798	0.807517
C73	C	-1.110665	0.892657	0.307534
C74	C	-0.610665	1.392657	0.807534
C75	C	-1.016476	0.892658	0.401579
C76	C	-0.516476	1.392658	0.901579
C77	C	-1.016447	0.815800	0.401565
C78	C	-0.516447	1.315800	0.901565
C79	C	-1.063524	0.777373	0.354529
C80	C	-0.563524	1.277373	0.854529
C81	C	-1.063586	0.931089	0.354562
C82	C	-0.563586	1.431089	0.854562
C83	C	-1.063621	1.014422	0.354581
C84	C	-0.563621	1.514422	0.854581
C85	C	-1.063490	0.694034	0.354510
C86	C	-0.563490	1.194034	0.854510
C87	C	-1.063504	0.354602	0.163315
C88	C	-0.563504	0.854602	0.663315
C89	C	-1.063628	0.354416	0.081517
C90	C	-0.563628	0.854416	0.581517
C91	C	-1.110681	0.307426	0.816485
C92	C	-0.610681	0.807426	1.316485
C93	C	-1.110690	0.307404	0.893344
C94	C	-0.610690	0.807404	1.393344
C95	C	-1.016513	0.401524	0.893300
C96	C	-0.516513	0.901524	1.393300
C97	C	-1.016501	0.401541	0.816443
C98	C	-0.516501	0.901541	1.316443
C99	C	-1.063589	0.354493	0.778037
C100	C	-0.563589	0.854493	1.278037
C101	C	-1.063610	0.354454	0.931753
C102	C	-0.563610	0.854454	1.431753
C103	C	-1.063619	0.354432	1.015087
C104	C	-0.563619	0.854432	1.515087
C105	C	-1.063579	0.354515	0.694698
C106	C	-0.563579	0.854515	1.194698
H107	H	-0.633651	0.269311	0.440066
H108	H	-0.133651	0.769311	0.940066
H109	H	-0.494224	0.269320	0.440069
H110	H	0.005776	0.769320	0.940069
Br111	Br	-0.473228	0.465401	0.243386
Br112	Br	0.026772	0.965401	0.743386
Br113	Br	-1.174608	0.243530	0.945521
Br114	Br	-0.674608	0.743530	1.445521
Br115	Br	-0.952517	0.763646	0.465379
Br116	Br	-0.452517	1.263646	0.965379
Br117	Br	-0.654396	0.465381	0.243366
Br118	Br	-0.154396	0.965381	0.743366
Br119	Br	-0.952579	0.465417	0.764258
Br120	Br	-0.452579	0.965417	1.264258
H121	H	-0.978146	0.923955	0.439873
H122	H	-0.478146	1.423955	0.939873
Br123	Br	-0.952613	0.465374	0.945426
Br124	Br	-0.452613	0.965374	1.445426
Br125	Br	-1.174584	0.243574	0.764365
Br126	Br	-0.674584	0.743574	1.264365
H127	H	-1.148966	0.784512	0.269218
H128	H	-0.648966	1.284512	0.769218
H129	H	-1.149026	0.923940	0.269253
H130	H	-0.649026	1.423940	0.769253
