data_functionalizedCrystal
_audit_creation_method	'MofGen! by Chris Wilmer'
_symmetry_space_group_name_H-M	'P1'
_symmetry_Int_Tables_number	1
_symmetry_cell_setting	triclinic
loop_
_symmetry_equiv_pos_as_xyz
  x,y,z
_cell_length_a	10.654550
_cell_length_b	16.109301
_cell_length_c	9.730223
_cell_angle_alpha	89.997247
_cell_angle_beta	89.996251
_cell_angle_gamma	83.973192
loop_
_atom_site_label
_atom_site_type_symbol
_atom_site_fract_x
_atom_site_fract_y
_atom_site_fract_z
O1	O	1.666250	0.116770	-0.114408
O2	O	1.300620	0.127896	-0.114386
O3	O	1.493479	0.001362	-0.114384
O4	O	1.473391	0.243304	-0.114410
O5	O	1.493477	0.001365	0.114196
O6	O	1.300618	0.127899	0.114194
O7	O	1.666248	0.116773	0.114172
Zn8	Zn	1.483433	0.122337	0.150475
Zn9	Zn	1.483436	0.122332	-0.150689
O10	O	1.473389	0.243307	0.114170
C11	C	1.253832	0.127080	-0.000093
C12	C	1.114422	0.124636	-0.000085
C13	C	1.033926	0.199138	-0.000113
C14	C	0.902936	0.196836	-0.000136
C15	C	0.932952	0.045526	-0.000109
C16	C	1.063939	0.047828	-0.000076
C17	C	1.016595	0.286496	-0.000135
C18	C	0.885606	0.284194	-0.000158
C19	C	1.492665	-0.029616	-0.000093
C20	C	1.490225	-0.121926	-0.000091
C21	C	1.598991	-0.343552	-0.000119
C22	C	1.596689	-0.430286	-0.000130
C23	C	1.367868	-0.411772	-0.000111
C24	C	1.370172	-0.325040	-0.000110
C25	C	1.485737	-0.290932	-0.000107
C26	C	1.481131	-0.464399	-0.000119
C27	C	1.478634	-0.558440	-0.000131
C28	C	1.488234	-0.196885	-0.000097
C29	C	1.713036	0.117589	-0.000124
C30	C	1.852446	0.120033	-0.000141
C31	C	1.474204	0.274286	-0.000124
C32	C	1.476643	0.366595	-0.000135
N33	N	1.483440	0.122339	0.356011
N34	N	1.483438	0.122324	-0.356225
C35	C	1.568859	0.066329	0.427939
C36	C	1.568856	0.066319	0.571822
C37	C	1.398010	0.178336	0.571837
C38	C	1.398008	0.178342	0.427957
C39	C	1.667500	0.001659	0.427931
C40	C	1.667497	0.001649	0.571814
H41	H	0.843427	0.317108	-0.095829
C42	C	1.726115	-0.306037	-0.000131
N43	N	1.821870	-0.277783	-0.000146
H44	H	1.328442	0.223942	0.369395
C45	C	1.790316	0.029009	0.367625
N46	N	1.882822	0.049609	0.322202
C47	C	1.721278	-0.488165	-0.000131
N48	N	1.815124	-0.531759	-0.000129
C49	C	1.055599	0.332651	0.129100
N50	N	1.084978	0.367412	0.226439
H51	H	1.051874	0.314310	-0.098825
C52	C	0.823411	0.319879	0.133139
N53	N	0.776563	0.346762	0.233533
H54	H	1.273779	-0.439553	-0.000111
C55	C	1.245577	-0.267154	-0.000103
N56	N	1.151736	-0.223555	-0.000103
C57	C	1.304038	0.239935	0.650991
N58	N	1.233256	0.286332	0.710608
H59	H	1.646924	-0.062244	0.388885
C60	C	1.797584	0.020956	0.624565
N61	N	1.895550	0.035523	0.664297
C62	C	1.152482	-0.034129	-0.000025
N63	N	1.219173	-0.095862	0.000013
C64	C	0.877408	-0.038959	-0.000107
N65	N	0.835574	-0.102595	-0.000108
C66	C	1.627367	-0.079927	0.632106
N67	N	1.597133	-0.141366	0.677520
