data_functionalizedCrystal
_audit_creation_method	'MofGen! by Chris Wilmer'
_symmetry_space_group_name_H-M	'P1'
_symmetry_Int_Tables_number	1
_symmetry_cell_setting	triclinic
loop_
_symmetry_equiv_pos_as_xyz
  x,y,z
_cell_length_a	16.959455
_cell_length_b	21.295417
_cell_length_c	16.959447
_cell_angle_alpha	90.035193
_cell_angle_beta	90.014322
_cell_angle_gamma	90.027454
loop_
_atom_site_label
_atom_site_type_symbol
_atom_site_fract_x
_atom_site_fract_y
_atom_site_fract_z
Zn1	Zn	1.208326	-0.250648	0.446882
Zn2	Zn	1.208225	-0.355925	0.314692
Zn3	Zn	1.076155	-0.250668	0.314719
Zn4	Zn	1.076096	-0.355878	0.446831
O5	O	1.142200	-0.303280	0.380781
O6	O	1.318924	-0.264625	0.429357
O7	O	1.190688	-0.341990	0.204085
O8	O	1.093755	-0.162576	0.332284
O9	O	1.318849	-0.341971	0.332237
O10	O	1.190861	-0.162561	0.429383
O11	O	1.093657	-0.264658	0.204105
O12	O	0.965536	-0.264613	0.332234
O13	O	1.093654	-0.341891	0.557448
O14	O	0.965493	-0.341910	0.429296
O15	O	1.190803	-0.264579	0.557486
O16	O	1.190630	-0.444008	0.332188
O17	O	1.093555	-0.443973	0.429269
C18	C	0.936834	-0.303259	0.380763
C19	C	0.848978	-0.303265	0.380774
C20	C	0.477500	-0.262998	0.330347
C21	C	0.477504	-0.343613	0.431261
C22	C	0.560050	-0.343604	0.431256
C23	C	0.601325	-0.303292	0.380795
C24	C	0.560054	-0.262989	0.330339
C25	C	0.601327	-0.383911	0.481705
C26	C	0.683877	-0.383904	0.481702
C27	C	0.725154	-0.343588	0.431244
C28	C	0.683878	-0.303283	0.380787
C29	C	0.725153	-0.262971	0.330326
C30	C	0.683879	-0.222662	0.279871
C31	C	0.601330	-0.222673	0.279881
C32	C	0.807702	-0.343577	0.431235
C33	C	0.807707	-0.262962	0.330318
C34	C	1.142097	-0.466831	0.380737
C35	C	1.142125	-0.536799	0.380745
C36	C	1.192717	-0.569663	0.330246
C37	C	1.192754	-0.635406	0.330264
C38	C	1.142185	-0.668282	0.380772
C39	C	1.091589	-0.635410	0.431281
C40	C	1.091559	-0.569669	0.431267
N41	N	1.073038	-0.771544	0.386792
N42	N	1.073069	-0.833996	0.386800
C43	C	1.142273	-0.866357	0.380818
N44	N	1.211448	-0.833907	0.374811
N45	N	1.211416	-0.771449	0.374798
C46	C	1.142212	-0.739567	0.380793
C47	C	1.192910	-0.970506	0.330335
C48	C	1.192948	-1.036249	0.330359
C49	C	1.091777	-1.036253	0.431371
C50	C	1.091745	-0.970510	0.431352
C51	C	1.142311	-0.937641	0.380830
C52	C	1.348369	-0.303301	0.380800
C53	C	1.436225	-0.303310	0.380808
C54	C	1.142233	-0.303228	0.586949
C55	C	1.142247	-0.303205	0.674806
C56	C	1.142326	-0.139089	0.380842
C57	C	1.142379	-0.069121	0.380868
C58	C	1.142213	-0.303286	0.175415
C59	C	1.142352	-0.303131	0.087559
C60	C	1.091760	-0.343392	1.046265
C61	C	1.192923	-0.262886	1.046299
C62	C	1.192902	-0.262900	0.963753
C63	C	1.142310	-0.303160	0.922459
C64	C	1.091740	-0.343407	0.963711
C65	C	1.243478	-0.222658	0.922495
C66	C	1.243459	-0.222670	0.839944
C67	C	1.192863	-0.262928	0.798648
C68	C	1.142289	-0.303176	0.839906
C69	C	1.091698	-0.343437	0.798612
C70	C	1.041120	-0.383682	0.839867
C71	C	1.041143	-0.383665	0.922416
C72	C	1.192839	-0.262945	0.716100
C73	C	1.091677	-0.343453	0.716058
H74	H	0.717476	-0.416725	0.522785
H75	H	1.050579	-0.376157	1.079859
O76	O	0.432998	-0.219522	0.275925
H77	H	0.448828	-0.230257	0.213865
H78	H	1.284642	-0.189899	0.806360
H79	H	0.717496	-0.189843	0.238783
H80	H	1.233954	-0.662168	0.289142
O81	O	1.037036	-0.670864	0.485751
H82	H	1.045548	-0.722100	0.477268
H83	H	0.443893	-0.376437	0.472339
O84	O	0.556816	-0.179222	0.225437
H85	H	0.492481	-0.186015	0.233906
O86	O	0.852223	-0.387045	0.485648
H87	H	0.809653	-0.415076	0.520739
O88	O	1.036986	-0.534222	0.485736
H89	H	1.045463	-0.482985	0.477242
H90	H	1.234117	-0.230111	1.079925
H91	H	1.284672	-0.189883	0.956122
H92	H	1.050606	-1.063020	0.472499
O93	O	0.556813	-0.427387	0.536131
H94	H	0.492478	-0.420614	0.527667
H95	H	1.234086	-0.943742	0.289200
O96	O	1.247263	-0.534209	0.275768
H97	H	1.282456	-0.568111	0.240663
H98	H	1.234151	-1.063006	0.289238
H99	H	1.050545	-0.943751	0.472469
H100	H	1.234021	-0.230179	0.682513
H101	H	1.050471	-0.376232	0.682442
O102	O	0.852214	-0.219481	0.275883
H103	H	0.889848	-0.187480	0.311327
O104	O	0.986541	-0.427097	0.795327
H105	H	1.000053	-0.476504	0.811140
O106	O	0.986594	-0.427071	0.966910
H107	H	0.995114	-0.420299	1.031248
