data_functionalizedCrystal
_audit_creation_method	'MofGen! by Chris Wilmer'
_symmetry_space_group_name_H-M	'P1'
_symmetry_Int_Tables_number	1
_symmetry_cell_setting	triclinic
loop_
_symmetry_equiv_pos_as_xyz
  x,y,z
_cell_length_a	16.120530
_cell_length_b	16.120484
_cell_length_c	19.805399
_cell_angle_alpha	87.128957
_cell_angle_beta	92.915522
_cell_angle_gamma	90.167327
loop_
_atom_site_label
_atom_site_type_symbol
_atom_site_fract_x
_atom_site_fract_y
_atom_site_fract_z
Zn1	Zn	1.254461	-0.395626	0.450560
Zn2	Zn	1.247307	-0.534681	0.342799
Zn3	Zn	1.115404	-0.388588	0.331379
Zn4	Zn	1.108313	-0.527579	0.449941
O5	O	1.181372	-0.461619	0.393670
O6	O	1.369878	-0.419990	0.441304
O7	O	1.229784	-0.515328	0.246568
O8	O	1.139812	-0.273158	0.342669
O9	O	1.364622	-0.522153	0.362132
O10	O	1.241976	-0.278329	0.430230
O11	O	1.132875	-0.407994	0.238178
O12	O	0.998098	-0.401108	0.342068
O13	O	1.127727	-0.510048	0.544739
O14	O	0.992889	-0.503224	0.429175
O15	O	1.235101	-0.413103	0.545194
O16	O	1.222908	-0.650102	0.361532
O17	O	1.120790	-0.644885	0.440248
C18	C	0.965321	-0.450632	0.384316
C19	C	0.872893	-0.445952	0.380331
C20	C	1.170326	-0.677666	0.402078
C21	C	1.165677	-0.770096	0.405701
C22	C	0.703666	-0.437388	0.373060
C23	C	0.659915	-0.485910	0.414331
C24	C	0.565751	-0.481145	0.410286
C25	C	0.797838	-0.442152	0.377105
C26	C	1.157193	-0.939328	0.412329
C27	C	1.205699	-0.983077	0.375028
C28	C	1.200979	-1.077243	0.378716
C29	C	1.161912	-0.845153	0.408642
C30	C	1.398266	-0.472649	0.403061
C31	C	1.490693	-0.477349	0.407063
C32	C	1.181421	-0.461569	0.570213
C33	C	1.181442	-0.461547	0.645445
C34	C	1.192483	-0.244728	0.385245
C35	C	1.197218	-0.152303	0.381655
C36	C	1.181373	-0.461611	0.217814
C37	C	1.181525	-0.461406	0.142580
C38	C	1.237353	-0.411065	0.681027
C39	C	1.237363	-0.411041	0.751715
C40	C	1.181465	-0.461505	0.786819
C41	C	1.125548	-0.511989	0.751232
C42	C	1.125535	-0.512008	0.680545
C43	C	1.125599	-0.511914	1.036305
C44	C	1.125618	-0.511893	1.106997
C45	C	1.237427	-0.410948	1.107474
C46	C	1.237414	-0.410966	1.036787
C47	C	1.181494	-0.461447	1.001206
C48	C	1.181483	-0.461471	0.924558
C49	C	1.181479	-0.461486	0.863466
H50	H	0.693177	-0.531029	0.452703
H51	H	1.282956	-0.369841	1.136453
H52	H	1.080095	-0.552988	1.135577
H53	H	1.079998	-0.553106	0.651575
H54	H	0.670405	-0.392273	0.334692
H55	H	1.250771	-0.949810	0.340323
H56	H	1.112124	-0.972592	0.447030
H57	H	1.282874	-0.369975	0.652450
H58	H	1.282893	-0.369936	0.780683
H59	H	1.282934	-0.369877	1.008208
H60	H	1.080077	-0.553031	1.007344
H61	H	1.080032	-0.553074	0.779820
