data_functionalizedCrystal
_audit_creation_method	'MofGen! by Chris Wilmer'
_symmetry_space_group_name_H-M	'P1'
_symmetry_Int_Tables_number	1
_symmetry_cell_setting	triclinic
loop_
_symmetry_equiv_pos_as_xyz
  x,y,z
_cell_length_a	19.121063
_cell_length_b	19.121274
_cell_length_c	19.120915
_cell_angle_alpha	94.963843
_cell_angle_beta	85.261346
_cell_angle_gamma	90.075254
loop_
_atom_site_label
_atom_site_type_symbol
_atom_site_fract_x
_atom_site_fract_y
_atom_site_fract_z
Zn1	Zn	-0.339806	-1.043481	0.367080
Zn2	Zn	-0.006473	-0.710148	0.700413
Zn3	Zn	0.326860	-0.376814	1.033747
Zn4	Zn	-0.452456	-1.043398	0.254435
Zn5	Zn	-0.119122	-0.710065	0.587768
Zn6	Zn	0.214211	-0.376731	0.921101
Zn7	Zn	-0.330220	-0.931277	0.254024
Zn8	Zn	0.003114	-0.597944	0.587357
Zn9	Zn	0.336447	-0.264610	0.920690
Zn10	Zn	-0.452410	-0.920766	0.377072
Zn11	Zn	-0.119076	-0.587433	0.710405
Zn12	Zn	0.214257	-0.254099	1.043738
O13	O	-0.393723	-0.984730	0.313152
O14	O	-0.060390	-0.651397	0.646486
O15	O	0.272944	-0.318064	0.979819
O16	O	-0.358781	-1.141750	0.348128
O17	O	-0.025447	-0.808416	0.681461
O18	O	0.307886	-0.475083	1.014795
O19	O	-0.432248	-1.032889	0.155742
O20	O	-0.098915	-0.699556	0.489075
O21	O	0.234419	-0.366222	0.822408
O22	O	-0.233210	-0.950594	0.264667
O23	O	0.100123	-0.617261	0.598001
O24	O	0.433456	-0.283928	0.931334
O25	O	-0.441544	-1.141689	0.265368
O26	O	-0.108210	-0.808355	0.598701
O27	O	0.225123	-0.475022	0.932034
O28	O	-0.240254	-1.033030	0.347729
O29	O	0.093080	-0.699697	0.681063
O30	O	0.426413	-0.366364	1.014396
O31	O	-0.342442	-0.950514	0.155440
O32	O	-0.009108	-0.617181	0.488773
O33	O	0.324225	-0.283847	0.822106
O34	O	-0.342397	-0.831603	0.274356
O35	O	-0.009064	-0.498270	0.607689
O36	O	0.324269	-0.164936	0.941022
O37	O	-0.441465	-0.932680	0.474385
O38	O	-0.108132	-0.599347	0.807718
O39	O	0.225201	-0.266014	1.141051
O40	O	-0.432170	-0.823881	0.364758
O41	O	-0.098836	-0.490547	0.698092
O42	O	0.234497	-0.157214	1.031425
O43	O	-0.358736	-1.022838	0.467044
O44	O	-0.025403	-0.689505	0.800377
O45	O	0.307930	-0.356172	1.133711
O46	O	-0.550731	-1.022697	0.275056
O47	O	-0.217397	-0.689364	0.608389
O48	O	0.115936	-0.356030	0.941723
O49	O	-0.550697	-0.932600	0.365157
O50	O	-0.217363	-0.599267	0.698490
O51	O	0.115970	-0.265933	1.031824
C52	C	-0.386239	-0.802259	0.320597
C53	C	-0.052906	-0.468925	0.653930
C54	C	0.280428	-0.135592	0.987264
C55	C	-0.383055	-0.724195	0.323799
C56	C	-0.049721	-0.390862	0.657133
C57	C	0.283612	-0.057528	0.990466
C58	C	-0.424573	-0.687492	0.282145
C59	C	-0.091240	-0.354159	0.615478
C60	C	0.242093	-0.020826	0.948811
C61	C	-0.421582	-0.614143	0.285163
C62	C	-0.088249	-0.280809	0.618496
C63	C	0.245085	0.052524	0.951830
C64	C	-0.377068	-0.577498	0.329833
C65	C	-0.043735	-0.244164	0.663166
C66	C	0.289599	0.089169	0.996499
C67	C	-0.335548	-0.614206	0.371492
C68	C	-0.002215	-0.280872	0.704825
C69	C	0.331119	0.052461	1.038159
C70	C	-0.338543	-0.687553	0.368477
C71	C	-0.005210	-0.354220	0.701810
C72	C	0.328123	-0.020887	1.035144
C73	C	-0.365875	-0.356036	0.341099
C74	C	-0.032542	-0.022702	0.674432
C75	C	0.300791	0.310631	1.007765
C76	C	-0.362882	-0.282683	0.344109
C77	C	-0.029548	0.050650	0.677442
C78	C	0.303785	0.383984	1.010776
C79	C	-0.448917	-0.282625	0.257781
C80	C	-0.115584	0.050708	0.591114
C81	C	0.217750	0.384042	0.924447
C82	C	-0.451905	-0.355975	0.254766
C83	C	-0.118572	-0.022641	0.588100
C84	C	0.214761	0.310692	0.921433
C85	C	-0.410388	-0.392676	0.296428
C86	C	-0.077055	-0.059342	0.629762
C87	C	0.256279	0.273991	0.963095
C88	C	-0.374008	-0.502523	0.332917
C89	C	-0.040675	-0.169190	0.666251
C90	C	0.292659	0.164144	0.999584
C91	C	-0.413452	-0.467649	0.293347
C92	C	-0.080119	-0.134316	0.626680
C93	C	0.253214	0.199018	0.960014
C94	C	-0.576198	-0.976517	0.321250
C95	C	-0.242865	-0.643184	0.654583
C96	C	0.090468	-0.309851	0.987917
C97	C	-0.654266	-0.973067	0.324735
C98	C	-0.320932	-0.639734	0.658068
C99	C	0.012401	-0.306400	0.991402
C100	C	-0.690939	-1.018388	0.279498
C101	C	-0.357606	-0.685055	0.612831
C102	C	-0.024272	-0.351721	0.946164
C103	C	-0.764292	-1.015147	0.282779
C104	C	-0.430959	-0.681813	0.616113
C105	C	-0.097625	-0.348480	0.949446
C106	C	-0.800970	-0.966581	0.331296
C107	C	-0.467636	-0.633247	0.664629
C108	C	-0.134303	-0.299914	0.997962
C109	C	-0.764291	-0.921258	0.376538
C110	C	-0.430958	-0.587924	0.709871
C111	C	-0.097625	-0.254591	1.043205
C112	C	-0.690940	-0.924503	0.373259
C113	C	-0.357607	-0.591169	0.706592
C114	C	-0.024273	-0.257836	1.039926
C115	C	-1.022444	-0.954438	0.343544
C116	C	-0.689110	-0.621104	0.676877
C117	C	-0.355777	-0.287771	1.010210
C118	C	-1.095800	-0.951195	0.346818
C119	C	-0.762466	-0.617861	0.680151
C120	C	-0.429133	-0.284528	1.013484
C121	C	-1.095795	-1.045085	0.253059
C122	C	-0.762462	-0.711752	0.586393
C123	C	-0.429129	-0.378418	0.919726
C124	C	-1.022442	-1.048323	0.249782
C125	C	-0.689109	-0.714989	0.583115
C126	C	-0.355776	-0.381656	0.916449
C127	C	-0.985771	-1.003002	0.295027
C128	C	-0.652437	-0.669669	0.628360
C129	C	-0.319104	-0.336336	0.961694
C130	C	-0.875948	-0.963265	0.334650
C131	C	-0.542615	-0.629932	0.667983
C132	C	-0.209281	-0.296598	1.001316
C133	C	-0.910794	-1.006322	0.291676
C134	C	-0.577461	-0.672988	0.625009
C135	C	-0.244127	-0.339655	0.958342
C136	C	-0.210536	-0.992994	0.305038
C137	C	0.122797	-0.659661	0.638371
C138	C	0.456130	-0.326327	0.971705
C139	C	-0.132473	-0.996516	0.301580
C140	C	0.200860	-0.663182	0.634913
C141	C	0.534193	-0.329849	0.968247
C142	C	-0.401165	-0.976596	0.497005
C143	C	-0.067832	-0.643263	0.830339
C144	C	0.265502	-0.309929	1.163672
C145	C	-0.404337	-0.973130	0.575353
C146	C	-0.071003	-0.639796	0.908686
C147	C	0.262330	-0.306463	1.242019
C148	C	-0.401227	-0.167915	0.305669
C149	C	-0.067894	0.165418	0.639002
C150	C	0.265440	0.498751	0.972336
C151	C	-0.404400	-0.245980	0.302454
C152	C	-0.071067	0.087353	0.635788
C153	C	0.262267	0.420687	0.969121
C154	C	-0.386261	-0.992876	0.130011
C155	C	-0.052927	-0.659543	0.463344
C156	C	0.280406	-0.326209	0.796678
C157	C	-0.382897	-0.996487	0.051650
C158	C	-0.049564	-0.663154	0.384983
C159	C	0.283770	-0.329820	0.718316
C160	C	-0.424473	-0.951175	1.018662
C161	C	-0.091140	-0.617841	1.351995
C162	C	0.242193	-0.284508	1.685328
C163	C	-0.421483	-0.954430	0.945046
C164	C	-0.088150	-0.621096	1.278379
C165	C	0.245184	-0.287763	1.611712
C166	C	-0.376919	-1.003001	0.904419
C167	C	-0.043586	-0.669667	1.237753
C168	C	0.289747	-0.336334	1.571086
C169	C	-0.335338	-1.048315	0.937413
C170	C	-0.002005	-0.714982	1.270746
C171	C	0.331328	-0.381649	1.604079
C172	C	-0.338325	-1.045056	1.011027
C173	C	-0.004992	-0.711723	1.344360
C174	C	0.328341	-0.378390	1.677694
C175	C	-0.365742	-1.015185	0.681960
C176	C	-0.032409	-0.681852	1.015293
C177	C	0.300924	-0.348519	1.348627
C178	C	-0.362760	-1.018442	0.608341
C179	C	-0.029427	-0.685109	0.941674
C180	C	0.303907	-0.351775	1.275007
C181	C	-0.448904	-0.924555	0.615979
C182	C	-0.115571	-0.591222	0.949312
C183	C	0.217762	-0.257888	1.282646
C184	C	-0.451891	-0.921304	0.689595
C185	C	-0.118557	-0.587970	1.022928
C186	C	0.214776	-0.254637	1.356261
C187	C	-0.410307	-0.966615	0.722581
C188	C	-0.076973	-0.633282	1.055915
C189	C	0.256360	-0.299949	1.389248
C190	C	-0.373863	-1.006330	0.829172
C191	C	-0.040530	-0.672997	1.162505
C192	C	0.292803	-0.339664	1.495839
C193	C	-0.413359	-0.963282	0.797827
C194	C	-0.080026	-0.629949	1.131161
C195	C	0.253307	-0.296615	1.464494
H196	H	-0.304734	-0.717436	0.402396
H197	H	0.028599	-0.384103	0.735730
H198	H	0.361933	-0.050769	1.069063
H199	H	-1.125662	-0.911654	0.386337
H200	H	-0.792328	-0.578321	0.719671
H201	H	-0.458995	-0.244987	1.053004
H202	H	-0.661081	-0.887598	0.410097
H203	H	-0.327748	-0.554265	0.743430
H204	H	0.005585	-0.220932	1.076764
H205	H	-0.460765	-0.911625	1.051735
H206	H	-0.127432	-0.578292	1.385068
H207	H	0.205902	-0.244959	1.718401
H208	H	-0.794148	-1.052052	0.245942
H209	H	-0.460815	-0.718718	0.579275
H210	H	-0.127481	-0.385385	0.912608
F211	F	-0.287895	-1.099995	0.894173
F212	F	0.045438	-0.766662	1.227506
F213	F	0.378771	-0.433329	1.560840
F214	F	-0.465732	-0.906199	0.909941
F215	F	-0.132399	-0.572866	1.243274
F216	F	0.200934	-0.239532	1.576607
H217	H	-0.449699	-0.497488	0.256981
H218	H	-0.116365	-0.164155	0.590314
H219	H	0.216968	0.169178	0.923648
F220	F	-0.493101	-0.243560	0.213446
F221	F	-0.159768	0.089774	0.546779
F222	F	0.173566	0.423107	0.880112
H223	H	-0.661080	-1.057933	0.239988
H224	H	-0.327747	-0.724599	0.573321
H225	H	0.005586	-0.391266	0.906654
H226	H	-0.488180	-0.881752	0.722668
H227	H	-0.154846	-0.548419	1.056001
H228	H	0.178487	-0.215086	1.389335
F229	F	-0.315498	-0.243684	0.391651
F230	F	0.017835	0.089649	0.724985
F231	F	0.351168	0.422982	1.058318
H232	H	-0.449639	-0.923732	0.830908
H233	H	-0.116306	-0.590399	1.164242
H234	H	0.217028	-0.257065	1.497575
F235	F	-0.983424	-0.906202	0.391697
F236	F	-0.650091	-0.572869	0.725030
F237	F	-0.316757	-0.239536	1.058364
H238	H	-0.880929	-1.045867	0.252176
H239	H	-0.547596	-0.712534	0.585510
H240	H	-0.214262	-0.379200	0.918843
H241	H	-0.488152	-0.385806	0.218391
H242	H	-0.154819	-0.052473	0.551724
H243	H	0.178514	0.280861	0.885058
H244	H	-0.332070	-0.385909	0.375024
H245	H	0.001264	-0.052576	0.708357
H246	H	0.334597	0.280758	1.041690
H247	H	-0.992581	-1.087869	0.210276
H248	H	-0.659247	-0.754536	0.543610
H249	H	-0.325914	-0.421202	0.876943
F250	F	-0.326635	-0.463516	0.380458
F251	F	0.006698	-0.130183	0.713791
F252	F	0.340031	0.203151	1.047124
F253	F	-0.288178	-0.575203	0.419038
F254	F	0.045156	-0.241870	0.752372
F255	F	0.378489	0.091464	1.085705
F256	F	-1.134829	-1.093318	0.204913
F257	F	-0.801496	-0.759984	0.538247
F258	F	-0.468163	-0.426651	0.871580
F259	F	-0.803329	-0.869574	0.428177
F260	F	-0.469996	-0.536240	0.761510
F261	F	-0.136662	-0.202907	1.094843
F262	F	-0.914990	-0.911578	0.386282
F263	F	-0.581656	-0.578245	0.719616
F264	F	-0.248323	-0.244912	1.052949
H265	H	-0.326467	-1.057995	0.575264
H266	H	0.006867	-0.724661	0.908597
H267	H	0.340200	-0.391328	1.241931
F268	F	-0.493155	-0.876332	0.580867
F269	F	-0.159822	-0.542999	0.914200
F270	F	0.173512	-0.209665	1.247534
F271	F	-0.321515	-1.063438	0.717058
F272	F	0.011819	-0.730105	1.050391
F273	F	0.345152	-0.396772	1.383724
F274	F	-0.294066	-1.093278	1.046135
F275	F	0.039267	-0.759944	1.379468
F276	F	0.372600	-0.426611	1.712802
H277	H	-0.460819	-0.717324	0.245767
H278	H	-0.127485	-0.383990	0.579100
H279	H	0.205848	-0.050657	0.912434
F280	F	-0.465759	-0.575085	0.240815
F281	F	-0.132426	-0.241752	0.574149
F282	F	0.200907	0.091581	0.907482
H283	H	-0.337581	-1.045879	0.796086
H284	H	-0.004248	-0.712546	1.129419
H285	H	0.329085	-0.379212	1.462753
