data_functionalizedCrystal
_audit_creation_method	'MofGen! by Chris Wilmer'
_symmetry_space_group_name_H-M	'P1'
_symmetry_Int_Tables_number	1
_symmetry_cell_setting	triclinic
loop_
_symmetry_equiv_pos_as_xyz
  x,y,z
_cell_length_a	17.019311
_cell_length_b	17.038272
_cell_length_c	15.021413
_cell_angle_alpha	90.004029
_cell_angle_beta	86.112972
_cell_angle_gamma	87.245400
loop_
_atom_site_label
_atom_site_type_symbol
_atom_site_fract_x
_atom_site_fract_y
_atom_site_fract_z
O1	O	1.053372	0.099610	-0.154786
O2	O	1.553372	0.599610	0.345214
O3	O	0.824559	0.112306	-0.137247
O4	O	1.324559	0.612306	0.362753
O5	O	0.937606	-0.007856	-0.145905
O6	O	1.437606	0.492144	0.354095
O7	O	0.940325	0.219772	-0.146128
O8	O	1.440325	0.719772	0.353872
O9	O	0.937587	-0.007839	0.002161
O10	O	1.437587	0.492161	0.502161
O11	O	0.824540	0.112324	0.010819
O12	O	1.324540	0.612324	0.510819
O13	O	1.053354	0.099627	-0.006720
O14	O	1.553354	0.599627	0.493280
Zn15	Zn	0.938944	0.105978	0.025558
Zn16	Zn	1.438944	0.605978	0.525558
Zn17	Zn	0.938968	0.105955	-0.169525
Zn18	Zn	1.438968	0.605955	0.330475
O19	O	0.940307	0.219789	0.001938
O20	O	1.440307	0.719789	0.501938
C21	C	0.795128	0.111833	-0.060959
C22	C	1.295128	0.611833	0.439041
C23	C	0.707460	0.110387	-0.054238
C24	C	1.207460	0.610387	0.445762
C25	C	0.211627	0.102235	-0.012183
C26	C	0.711627	0.602235	0.487817
C27	C	0.294001	0.103594	-0.018499
C28	C	0.794001	0.603594	0.481501
C29	C	0.335197	0.104258	-0.102369
C30	C	0.835197	0.604258	0.397631
C31	C	0.294017	0.103571	-0.179928
C32	C	0.794017	0.603571	0.320072
C33	C	0.211645	0.102218	-0.173611
C34	C	0.711645	0.602218	0.326389
C35	C	0.583908	0.108347	-0.125480
C36	C	1.083908	0.608347	0.374520
C37	C	0.666285	0.109698	-0.131792
C38	C	1.166285	0.609698	0.368208
C39	C	0.666264	0.109722	0.029638
C40	C	1.166264	0.609722	0.529638
C41	C	0.583890	0.108364	0.035948
C42	C	1.083890	0.608364	0.535948
C43	C	0.542716	0.107682	-0.041611
C44	C	1.042716	0.607682	0.458389
C45	C	0.419396	0.105644	-0.108827
C46	C	0.919396	0.605644	0.391173
C47	C	0.458519	0.106301	-0.035152
C48	C	0.958519	0.606301	0.464848
C49	C	0.935123	-0.036974	-0.071683
C50	C	1.435123	0.463026	0.428317
C51	C	0.927742	-0.123761	-0.071117
C52	C	1.427742	0.376239	0.428883
C53	C	0.995503	-0.173932	-0.076310
C54	C	1.495503	0.326068	0.423690
C55	C	0.988564	-0.255476	-0.075787
C56	C	1.488564	0.244524	0.424213
C57	C	0.913863	-0.286848	-0.070064
C58	C	1.413863	0.213152	0.429936
C59	C	0.846098	-0.236671	-0.064873
C60	C	1.346098	0.263329	0.435127
C61	C	0.853038	-0.155128	-0.065403
C62	C	1.353038	0.344872	0.434597
C63	C	0.889345	-0.532586	-0.068197
C64	C	1.389345	-0.032586	0.431803
C65	C	0.882410	-0.614135	-0.067664
C66	C	1.382410	-0.114135	0.432336
C67	C	1.024877	-0.632935	-0.078580
C68	C	1.524877	-0.132935	0.421420
C69	C	1.031810	-0.551390	-0.079104
C70	C	1.531810	-0.051390	0.420896
C71	C	0.964045	-0.501219	-0.073918
C72	C	1.464045	-0.001219	0.426082
C73	C	0.906768	-0.370200	-0.069526
C74	C	1.406768	0.129800	0.430474
C75	C	0.971140	-0.417869	-0.074462
C76	C	1.471140	0.082131	0.425538
C77	C	1.082785	0.100100	-0.083010
C78	C	1.582785	0.600100	0.416990
C79	C	1.170453	0.101546	-0.089736
C80	C	1.670453	0.601546	0.410264
C81	C	0.942790	0.248907	-0.072286
C82	C	1.442790	0.748907	0.427714
C83	C	0.950170	0.335694	-0.072858
C84	C	1.450170	0.835694	0.427142
N85	N	0.938934	0.105993	0.158696
N86	N	1.438934	0.605993	0.658696
N87	N	0.938985	0.105934	-0.302664
N88	N	1.438985	0.605934	0.197336
C89	C	0.886651	0.161530	0.402384
C90	C	1.386651	0.661530	0.902384
C91	C	0.958944	0.176625	0.456176
C92	C	1.458944	0.676625	0.956176
C93	C	0.938953	0.105973	0.340302
C94	C	1.438953	0.605973	0.840302
C95	C	0.866680	0.090895	0.463250
C96	C	1.366680	0.590895	0.963250
C97	C	0.938965	0.105956	0.515725
C98	C	1.438965	0.605956	1.015725
C99	C	1.011284	0.121104	0.392784
C100	C	1.511284	0.621104	0.892784
C101	C	0.918972	0.035343	0.399857
C102	C	1.418972	0.535343	0.899857
C103	C	0.991314	0.050408	0.453618
C104	C	1.491314	0.550408	0.953618
C105	C	0.938945	0.105985	0.239245
C106	C	1.438945	0.605985	0.739245
C107	C	0.938981	0.105944	0.616779
C108	C	1.438981	0.605944	1.116779
H109	H	0.699825	0.110245	-0.200092
H110	H	1.199825	0.610245	0.299908
C111	C	1.053309	-0.383357	-0.080753
C112	C	1.553309	0.116643	0.419247
N113	N	1.115198	-0.357356	-0.085485
N114	N	1.615198	0.142644	0.414515
C115	C	0.339289	0.104347	0.066816
C116	C	0.839289	0.604347	0.566816
N117	N	0.373401	0.104914	0.131079
N118	N	0.873401	0.604914	0.631079
C119	C	0.981784	0.257306	0.489673
C120	C	1.481784	0.757306	0.989673
N121	N	0.998981	0.318076	0.514903
N122	N	1.498981	0.818076	1.014903
C123	C	0.711559	0.110505	0.114947
C124	C	1.211559	0.610505	0.614947
N125	N	0.745676	0.111107	0.179206
N126	N	1.245676	0.611107	0.679206
H127	H	1.043742	-0.296323	-0.080014
H128	H	1.543742	0.203677	0.419986
C129	C	1.051144	-0.013070	0.483977
C130	C	1.551144	0.486930	0.983977
N131	N	1.096211	-0.060876	0.506849
N132	N	1.596211	0.439124	1.006849
C133	C	1.093885	0.138423	0.351366
C134	C	1.593885	0.638423	0.851366
N135	N	1.156097	0.151472	0.320168
N136	N	1.656097	0.651472	0.820168
C137	C	0.800230	-0.648642	-0.061375
C138	C	1.300230	-0.148642	0.438625
N139	N	0.738335	-0.674632	-0.056639
N140	N	1.238335	-0.174632	0.443361
H141	H	0.550354	0.107807	0.104244
H142	H	1.050354	0.607807	0.604244
C143	C	0.538628	0.107580	-0.210799
C144	C	1.038628	0.607580	0.289201
N145	N	0.504521	0.106997	-0.275064
N146	N	1.004521	0.606997	0.224936
H147	H	0.327565	0.104117	-0.248217
H148	H	0.827565	0.604117	0.251783
H149	H	0.902040	-0.024360	0.375051
H150	H	1.402040	0.475640	0.875051
H151	H	0.178121	0.101659	-0.236764
H152	H	0.678121	0.601659	0.263236
H153	H	0.424973	0.105765	0.033134
H154	H	0.924973	0.605765	0.533134
H155	H	0.452948	0.106182	-0.177115
H156	H	0.952948	0.606182	0.322885
H157	H	0.834165	-0.491746	-0.063973
H158	H	1.334165	0.008254	0.436027
H159	H	0.785275	-0.262220	-0.060219
H160	H	1.285275	0.237780	0.439781
H161	H	1.056332	-0.148395	-0.080965
H162	H	1.556332	0.351605	0.419035
C163	C	1.113986	-0.516887	-0.085399
C164	C	1.613986	-0.016887	0.414601
N165	N	1.175883	-0.490900	-0.090137
N166	N	1.675883	0.009100	0.409863
H167	H	0.797860	-0.114278	-0.061174
H168	H	1.297860	0.385722	0.438826
C169	C	1.099414	-0.688128	-0.084293
C170	C	1.599414	-0.188128	0.415707
N171	N	1.155558	-0.729701	-0.088600
N172	N	1.655558	-0.229701	0.411400
C173	C	0.824599	-0.404718	-0.063212
C174	C	1.324599	0.095282	0.436788
N175	N	0.762709	-0.430719	-0.058453
N176	N	1.262709	0.069281	0.441547
C177	C	0.784103	0.073672	0.504814
C178	C	1.284103	0.573672	1.004814
N179	N	0.721904	0.060705	0.536116
N180	N	1.221904	0.560705	1.036116
C181	C	0.166318	0.101507	0.080081
C182	C	0.666318	0.601507	0.580081
N183	N	0.132193	0.100963	0.149578
N184	N	0.632193	0.600963	0.649578
C185	C	0.826970	0.225051	0.371798
C186	C	1.326970	0.725051	0.871798
N187	N	0.782024	0.272897	0.348757
N188	N	1.282024	0.772897	0.848757
