data_functionalizedCrystal
_audit_creation_method	'MofGen! by Chris Wilmer'
_symmetry_space_group_name_H-M	'P1'
_symmetry_Int_Tables_number	1
_symmetry_cell_setting	triclinic
loop_
_symmetry_equiv_pos_as_xyz
  x,y,z
_cell_length_a	33.428889
_cell_length_b	33.428139
_cell_length_c	33.424847
_cell_angle_alpha	60.004234
_cell_angle_beta	60.008465
_cell_angle_gamma	59.994972
loop_
_atom_site_label
_atom_site_type_symbol
_atom_site_fract_x
_atom_site_fract_y
_atom_site_fract_z
O1	O	0.055565	-0.584504	0.488714
O2	O	0.020982	-0.455083	0.393778
O3	O	0.102943	-0.536959	0.393689
O4	O	-0.026396	-0.502628	0.488803
O5	O	0.130140	-0.509767	0.420792
O6	O	0.048179	-0.427891	0.420881
O7	O	0.082762	-0.557312	0.515817
Cu8	Cu	0.067954	-0.490119	0.470823
Cu9	Cu	0.035790	-0.522276	0.438771
O10	O	0.000801	-0.475436	0.515906
N11	N	0.090577	-0.467504	0.493370
N12	N	0.013171	-0.544895	0.416225
C13	C	0.143377	-0.280390	0.546067
C14	C	0.143515	-0.414755	0.680369
C15	C	0.143392	-0.414735	0.546069
C16	C	0.277766	-0.414702	0.545966
C17	C	0.158177	-0.324719	0.560828
C18	C	0.158255	-0.399967	0.636038
C19	C	0.233434	-0.399936	0.560773
C20	C	0.158186	-0.399955	0.560829
C21	C	0.124540	-0.223964	0.527278
C22	C	0.124565	-0.433545	0.527281
C23	C	0.177014	-0.381145	0.579617
C24	C	0.359814	-0.400540	0.502735
C25	C	0.411105	-0.417624	0.485606
C26	C	0.411136	-0.500620	0.517255
C27	C	0.359845	-0.483534	0.534385
C28	C	0.136887	-0.198305	0.476855
C29	C	0.119761	-0.147011	0.459777
C30	C	0.077945	-0.147038	0.543547
C31	C	0.095072	-0.198332	0.560625
C32	C	0.074134	-0.421169	0.539710
C33	C	0.057023	-0.438269	0.522625
C34	C	0.140770	-0.480120	0.480694
C35	C	0.157883	-0.463020	0.497773
C36	C	0.074339	-0.421208	0.762475
C37	C	0.057288	-0.438323	0.813768
C38	C	0.141075	-0.480183	0.813699
C39	C	0.158125	-0.463069	0.762404
C40	C	0.124756	-0.433580	0.736794
C41	C	0.334186	-0.433494	0.527123
C42	C	-0.173769	-0.597444	0.363037
C43	C	-0.039302	-0.597595	0.228856
C44	C	-0.039496	-0.597587	0.363300
C45	C	-0.039512	-0.731889	0.363237
C46	C	-0.129442	-0.612265	0.348329
C47	C	-0.054138	-0.612351	0.273187
C48	C	-0.054257	-0.687554	0.348440
C49	C	-0.054247	-0.612346	0.348477
C50	C	-0.230191	-0.578579	0.381758
C51	C	-0.020722	-0.578803	0.382168
C52	C	-0.073020	-0.631130	0.329609
C53	C	-0.053713	-0.813916	0.406386
C54	C	-0.036654	-0.865210	0.423504
C55	C	0.046338	-0.865293	0.391984
C56	C	0.029278	-0.813999	0.374865
C57	C	-0.255900	-0.590938	0.432169
C58	C	-0.307191	-0.573786	0.449185
C59	C	-0.307060	-0.531922	0.365377
C60	C	-0.255769	-0.549074	0.348360
C61	C	-0.033081	-0.528377	0.369764
C62	C	-0.016014	-0.511306	0.386922
C63	C	0.025770	-0.595083	0.428877
C64	C	0.008703	-0.612156	0.411725
C65	C	-0.032755	-0.528393	0.146761
C66	C	-0.015585	-0.511324	0.095468
C67	C	0.026262	-0.595106	0.095516
C68	C	0.009094	-0.612174	0.146811
C69	C	-0.020417	-0.578816	0.172432
C70	C	-0.020748	-0.788312	0.382068
N71	N	0.436037	-0.467415	0.493101
O72	O	0.592642	-0.471896	0.376066
O73	O	0.592838	-0.567146	0.505347
O74	O	0.592754	-0.566928	0.423360
O75	O	0.592727	-0.472113	0.458053
O76	O	0.511269	-0.539835	0.450606
O77	O	0.511353	-0.540052	0.532594
O78	O	0.511157	-0.444802	0.403312
Cu79	Cu	0.503815	-0.489954	0.470441
Cu80	Cu	0.600180	-0.521995	0.438219
O81	O	0.511242	-0.445020	0.485300
N82	N	0.667959	-0.544533	0.415554
N83	N	0.090544	-0.122107	0.493359
O84	O	-0.026406	0.034587	0.488773
O85	O	0.102877	0.034627	0.393499
O86	O	0.020848	0.034591	0.393771
O87	O	0.055623	0.034623	0.488500
O88	O	0.048051	-0.046899	0.420925
O89	O	0.130080	-0.046864	0.420653
O90	O	0.000796	-0.046903	0.515927
Cu91	Cu	0.067922	-0.054324	0.470769
Cu92	Cu	0.035752	0.042048	0.438656
O93	O	0.082825	-0.046867	0.515655
N94	N	0.013123	0.109830	0.416068
N95	N	0.090892	-0.467554	0.838649
O96	O	0.086330	-0.584488	0.995334
O97	O	-0.008902	-0.455160	0.995379
O98	O	-0.008679	-0.537172	0.995355
O99	O	0.086107	-0.502475	0.995358
O100	O	0.018452	-0.509990	0.913868
O101	O	0.018230	-0.427978	0.913891
O102	O	0.113461	-0.557306	0.913847
Cu103	Cu	0.068323	-0.490160	0.906429
Cu104	Cu	0.036237	-0.522306	1.002797
O105	O	0.113239	-0.475293	0.913870
N106	N	0.013667	-0.544916	1.070577
C107	C	0.031339	-0.425179	0.394250
C108	C	0.132837	-0.526572	0.394139
C109	C	0.072405	-0.587216	0.515344
C110	C	-0.029093	-0.485823	0.515455
C111	C	0.552119	-0.566716	0.535258
C112	C	0.552016	-0.566447	0.433726
C113	C	0.551873	-0.445232	0.373402
C114	C	0.551980	-0.445502	0.474933
C115	C	0.132731	-0.006013	0.393923
C116	C	0.031182	-0.006158	0.394293
C117	C	-0.029092	-0.006163	0.515469
C118	C	0.072491	-0.006119	0.515133
C119	C	-0.008451	-0.425276	0.954641
C120	C	-0.008170	-0.526833	0.954596
C121	C	0.113010	-0.587190	0.954585
C122	C	0.112735	-0.485627	0.954611
H123	H	0.016234	-0.428240	0.834672
C124	C	0.183018	-0.536451	0.353790
H125	H	0.203582	-0.568880	0.365669
H126	H	0.178732	-0.532767	0.325955
H127	H	0.197703	-0.513803	0.344860
C128	C	0.552030	-0.606685	0.423702
H129	H	0.551985	-0.594706	0.391268
H130	H	0.580470	-0.634535	0.427323
H131	H	0.523635	-0.615633	0.446326
C132	C	0.182774	-0.005667	0.353406
H133	H	0.182776	-0.005605	0.324951
H134	H	0.188571	0.022826	0.345787
H135	H	0.207847	-0.034011	0.364480
C136	C	0.551791	-0.404831	0.323247
H137	H	0.551780	-0.416669	0.302664
H138	H	0.523358	-0.377005	0.327569
H139	H	0.580192	-0.395901	0.308561
H140	H	0.023733	-0.006162	0.364531
H141	H	-0.037935	-0.534246	0.954563
C142	C	0.082382	-0.637438	0.555629
H143	H	0.054050	-0.637575	0.584131
H144	H	0.090141	-0.662343	0.544354
H145	H	0.109108	-0.643376	0.563259
C146	C	-0.079247	-0.006178	0.555875
H147	H	-0.099849	-0.006186	0.544058
H148	H	-0.074933	-0.034593	0.583716
H149	H	-0.093906	0.022245	0.564774
H150	H	0.079939	-0.006110	0.544893
H151	H	-0.066242	-0.478508	0.545321
C152	C	0.213586	-0.476678	0.734158
H153	H	0.231015	-0.496685	0.756759
H154	H	0.221985	-0.494076	0.714146
H155	H	0.221973	-0.447664	0.714150
C156	C	-0.048842	-0.375102	0.954660
H157	H	-0.037010	-0.354515	0.954668
H158	H	-0.057757	-0.360438	0.926248
H159	H	-0.076677	-0.379399	0.983084
H160	H	0.142910	-0.624330	0.954565
C161	C	0.552195	-0.607114	0.585415
H162	H	0.552212	-0.595278	0.605997
H163	H	0.523798	-0.616046	0.600098
H164	H	0.580633	-0.634941	0.581094
C165	C	0.551965	-0.405263	0.484958
H166	H	0.552003	-0.417240	0.517394
H167	H	0.580354	-0.396310	0.462334
H168	H	0.523519	-0.377414	0.481340
H169	H	0.142514	-0.478200	0.954606
H170	H	0.047163	-0.397193	0.741627
H171	H	0.168250	-0.504186	0.834549
C172	C	0.021361	-0.374958	0.353965
H173	H	0.049695	-0.374819	0.325465
H174	H	-0.005366	-0.369016	0.346336
H175	H	0.013606	-0.350053	0.365241
C176	C	0.037484	-0.388746	0.572164
H177	H	0.004999	-0.383821	0.577113
H178	H	0.042442	-0.404413	0.602896
H179	H	0.042397	-0.357996	0.556501
H180	H	0.167905	-0.504126	0.456671
C181	C	0.001550	-0.424662	0.536297
H182	H	-0.015843	-0.404666	0.556324
H183	H	-0.006893	-0.407254	0.507311
H184	H	-0.006836	-0.453677	0.553701
H185	H	0.198948	-0.473094	0.487648
H186	H	0.338981	-0.510371	0.554246
H187	H	0.431972	-0.390789	0.465748
C188	C	0.439360	-0.555662	0.525241
H189	H	0.416751	-0.572843	0.542222
H190	H	0.459348	-0.560414	0.494418
H191	H	0.459390	-0.567690	0.544018
H192	H	0.160882	-0.219171	0.449698
C193	C	0.331589	-0.345495	0.494749
H194	H	0.354201	-0.328318	0.477775
H195	H	0.311558	-0.333465	0.475974
H196	H	0.311602	-0.340744	0.525575
H197	H	0.129813	-0.126117	0.418717
H198	H	0.053957	-0.126168	0.570702
H199	H	-0.025639	-0.470264	0.074572
C200	C	0.081509	-0.226554	0.616090
H201	H	0.061513	-0.203941	0.633503
H202	H	0.064115	-0.246581	0.624528
H203	H	0.110538	-0.246549	0.624461
H204	H	0.050281	-0.622271	0.074658
C205	C	-0.065216	-0.491697	0.174940
H206	H	-0.070102	-0.459222	0.152304
H207	H	-0.095974	-0.496589	0.194904
H208	H	-0.049588	-0.496638	0.194992
C209	C	0.022664	-0.667642	0.175046
H210	H	0.042691	-0.685062	0.152439
H211	H	0.040028	-0.676072	0.195103
H212	H	-0.006360	-0.676013	0.195007
H213	H	-0.057039	-0.501216	0.345698
H214	H	-0.026079	-0.470245	0.376824
C215	C	0.058141	-0.631775	0.461386
H216	H	0.063054	-0.664252	0.466316
H217	H	0.088892	-0.626881	0.445776
H218	H	0.042438	-0.626831	0.492128
H219	H	0.018765	-0.653217	0.421828
H220	H	0.056124	-0.793157	0.355062
H221	H	-0.063498	-0.886058	0.443304
C222	C	0.101364	-0.893550	0.384065
H223	H	0.106802	-0.927766	0.397746
H224	H	0.119288	-0.885166	0.349967
H225	H	0.111949	-0.885157	0.399606
C226	C	-0.108741	-0.785661	0.414300
H227	H	-0.125928	-0.808258	0.431228
H228	H	-0.120796	-0.765642	0.433094
H229	H	-0.113447	-0.765656	0.383453
H230	H	-0.328125	-0.583847	0.490235
C231	C	-0.227764	-0.623385	0.468904
H232	H	-0.193535	-0.631832	0.451549
H233	H	-0.236194	-0.605974	0.488916
H234	H	-0.236199	-0.652373	0.488904
C235	C	-0.335200	-0.499475	0.328643
H236	H	-0.369429	-0.491032	0.345997
H237	H	-0.326763	-0.470491	0.308640
H238	H	-0.326772	-0.516890	0.308633
C239	C	-0.227492	-0.535480	0.292909
H240	H	-0.250074	-0.515453	0.275458
H241	H	-0.207476	-0.518106	0.284539
H242	H	-0.207487	-0.564497	0.284517
