data_functionalizedCrystal
_audit_creation_method	'MofGen! by Chris Wilmer'
_symmetry_space_group_name_H-M	'P1'
_symmetry_Int_Tables_number	1
_symmetry_cell_setting	triclinic
loop_
_symmetry_equiv_pos_as_xyz
  x,y,z
_cell_length_a	19.077068
_cell_length_b	17.077404
_cell_length_c	17.077396
_cell_angle_alpha	90.017442
_cell_angle_beta	92.266197
_cell_angle_gamma	87.675877
loop_
_atom_site_label
_atom_site_type_symbol
_atom_site_fract_x
_atom_site_fract_y
_atom_site_fract_z
Zn1	Zn	-0.280250	-1.187454	-0.456382
Zn2	Zn	-0.397955	-1.182082	-0.330381
Zn3	Zn	-0.280270	-1.056190	-0.325131
Zn4	Zn	-0.397905	-1.050871	-0.461602
O5	O	-0.339095	-1.119149	-0.393374
O6	O	-0.295876	-1.296588	-0.439681
O7	O	-0.382373	-1.165359	-0.219839
O8	O	-0.181776	-1.078077	-0.338160
O9	O	-0.382354	-1.292641	-0.347108
O10	O	-0.181762	-1.174516	-0.434590
O11	O	-0.295910	-1.072868	-0.215981
O12	O	-0.295862	-0.945638	-0.343221
O13	O	-0.382269	-1.069012	-0.570755
O14	O	-0.382288	-0.941731	-0.443486
O15	O	-0.295828	-1.169359	-0.566920
O16	O	-0.496439	-1.160202	-0.352170
O17	O	-0.496402	-1.063802	-0.448577
C18	C	-0.339072	-0.915203	-0.393351
C19	C	-0.339079	-0.827952	-0.393360
C20	C	-0.294130	-0.789015	-0.441642
C21	C	-0.294133	-0.707034	-0.441644
C22	C	-0.339090	-0.663993	-0.393367
C23	C	-0.384041	-0.702936	-0.345080
C24	C	-0.384034	-0.784915	-0.345075
C25	C	-0.384055	-0.532065	-0.345096
C26	C	-0.384064	-0.450080	-0.345102
C27	C	-0.294154	-0.454184	-0.441665
C28	C	-0.294147	-0.536164	-0.441660
C29	C	-0.339099	-0.575101	-0.393373
C30	C	-0.521958	-1.110863	-0.401527
C31	C	-0.600188	-1.107390	-0.405041
C32	C	-0.636936	-1.155988	-0.356539
C33	C	-0.710441	-1.152726	-0.359849
C34	C	-0.747197	-1.100862	-0.411657
C35	C	-0.710444	-1.052262	-0.460164
C36	C	-0.636940	-1.055529	-0.456857
C37	C	-0.967030	-1.085710	-0.426927
C38	C	-1.040539	-1.082446	-0.430228
C39	C	-1.040532	-1.182911	-0.329914
C40	C	-0.967027	-1.186169	-0.326609
C41	C	-0.930280	-1.137573	-0.375118
N42	N	-0.822331	-1.097525	-0.415039
N43	N	-0.855147	-1.140914	-0.371739
C44	C	-0.155517	-1.127489	-0.385207
C45	C	-0.077288	-1.131043	-0.381726
C46	C	-0.339040	-1.119191	-0.598116
C47	C	-0.339017	-1.119209	-0.685365
C48	C	-0.339115	-0.323893	-0.393392
C49	C	-0.339114	-0.411143	-0.393384
C50	C	-0.293991	-1.071064	-0.724345
C51	C	-0.293975	-1.071078	-0.806325
C52	C	-0.338982	-1.119241	-0.849323
C53	C	-0.384014	-1.167388	-0.810336
C54	C	-0.384033	-1.167370	-0.728358
C55	C	-0.383970	-1.167424	-0.981205
C56	C	-0.383950	-1.167443	-1.063188
C57	C	-0.293912	-1.071132	-1.059172
C58	C	-0.293931	-1.071114	-0.977193
C59	C	-0.338961	-1.119262	-0.938213
C60	C	-0.339098	-1.119155	-0.189426
C61	C	-0.338923	-1.119298	-0.102169
H62	H	-0.257523	-0.824054	-0.480956
H63	H	-0.257551	-0.422477	-0.480980
O64	O	-0.245649	-0.665037	-0.493717
H65	H	-0.257794	-0.680237	-0.555843
O66	O	-0.245439	-1.019121	-0.677975
H67	H	-0.276940	-0.977747	-0.642014
H68	H	-0.740376	-1.010037	-0.502350
O69	O	-0.432514	-0.826912	-0.292995
H70	H	-0.424951	-0.891148	-0.301093
H71	H	-0.257312	-1.031870	-0.838060
O72	O	-0.432541	-0.403655	-0.293021
H73	H	-0.468400	-0.364701	-0.329683
O74	O	-0.597293	-1.211930	-0.300663
H75	H	-0.635199	-1.245181	-0.267500
O76	O	-0.245654	-0.582592	-0.493721
H77	H	-0.214390	-0.541746	-0.527291
H78	H	-0.257245	-1.031929	-1.090913
H79	H	-0.607020	-1.015957	-0.496354
H80	H	-0.420693	-1.206580	-0.696621
H81	H	-0.740359	-1.192298	-0.320353
H82	H	-0.257278	-1.031899	-0.942187
H83	H	-0.420632	-1.206638	-0.949469
O84	O	-0.432540	-0.574067	-0.293020
H85	H	-0.463809	-0.530366	-0.259457
O86	O	-0.432528	-0.656517	-0.293003
H87	H	-0.468386	-0.617566	-0.329670
O88	O	-0.927383	-1.242115	-0.270737
H89	H	-0.965286	-1.275367	-0.237572
H90	H	-1.070459	-1.222476	-0.290421
O91	O	-1.080188	-1.026511	-0.486115
H92	H	-1.042287	-0.993273	-0.519298
O93	O	-0.432562	-1.219329	-0.856713
H94	H	-0.463882	-1.252798	-0.815832
H95	H	-0.420599	-1.206662	-1.098195
H96	H	-0.937117	-1.046140	-0.466424
