data_functionalizedCrystal
_audit_creation_method	'MofGen! by Chris Wilmer'
_symmetry_space_group_name_H-M	'P1'
_symmetry_Int_Tables_number	1
_symmetry_cell_setting	triclinic
loop_
_symmetry_equiv_pos_as_xyz
  x,y,z
_cell_length_a	12.645331
_cell_length_b	12.645330
_cell_length_c	12.645323
_cell_angle_alpha	89.972994
_cell_angle_beta	89.984262
_cell_angle_gamma	90.011881
loop_
_atom_site_label
_atom_site_type_symbol
_atom_site_fract_x
_atom_site_fract_y
_atom_site_fract_z
Zn1	Zn	1.620768	-0.422053	-0.599234
Zn2	Zn	1.620666	-0.599341	-0.421968
Zn3	Zn	1.443483	-0.422089	-0.422000
Zn4	Zn	1.443480	-0.599272	-0.599205
O5	O	1.532099	-0.510689	-0.510602
O6	O	1.769102	-0.445584	-0.575718
O7	O	1.597120	-0.575872	-0.273625
O8	O	1.467044	-0.273737	-0.445537
O9	O	1.769026	-0.575836	-0.445481
O10	O	1.597295	-0.273710	-0.575750
O11	O	1.466945	-0.445646	-0.273648
O12	O	1.295135	-0.445580	-0.445508
O13	O	1.467040	-0.575720	-0.747556
O14	O	1.295133	-0.575755	-0.575699
O15	O	1.597293	-0.445517	-0.747578
O16	O	1.597118	-0.747679	-0.445453
O17	O	1.466940	-0.747629	-0.575668
C18	C	1.256670	-0.510665	-0.510604
C19	C	1.138840	-0.510680	-0.510631
C20	C	0.971310	-0.593022	-0.592107
C21	C	1.093870	-0.592757	-0.592448
C22	C	1.094352	-0.399025	-0.541156
C23	C	0.971754	-0.399528	-0.541730
C24	C	0.971596	-0.539093	-0.398370
C25	C	1.094203	-0.541535	-0.398976
C26	C	1.532046	-0.786118	-0.510577
C27	C	1.532120	-0.903948	-0.510601
C28	C	1.613884	-1.071500	-0.428517
C29	C	1.614150	-0.948940	-0.428718
C30	C	1.562421	-0.948331	-0.622343
C31	C	1.563069	-1.070929	-0.621907
C32	C	1.420025	-1.071274	-0.482046
C33	C	1.420562	-0.948670	-0.479540
C34	C	1.808604	-0.510714	-0.510600
C35	C	1.926435	-0.510724	-0.510599
C36	C	1.532177	-0.510607	-0.787107
C37	C	1.532211	-0.510572	-0.904937
C38	C	1.532181	-0.234183	-0.510650
C39	C	1.532217	-0.116353	-0.510671
C40	C	1.450016	-0.592096	-1.072488
C41	C	1.450231	-0.592500	-0.949928
C42	C	1.643913	-0.540892	-0.949442
C43	C	1.643462	-0.541403	-1.072041
C44	C	1.503759	-0.398272	-1.072143
C45	C	1.501267	-0.398944	-0.949537
C46	C	1.532083	-0.510694	-0.235172
C47	C	1.532255	-0.510430	-0.117342
H48	H	0.943177	-0.375465	-0.623774
Cl49	Cl	1.479336	-0.720861	-0.904653
Cl50	Cl	1.473375	-0.903347	-0.719382
H51	H	1.123293	-0.623697	-0.375953
Cl52	Cl	1.680748	-0.667989	-1.116209
Cl53	Cl	1.139188	-0.563769	-0.720836
H54	H	1.123949	-0.675555	-0.573316
Cl55	Cl	1.681845	-0.666152	-0.902057
H56	H	1.697246	-0.919533	-0.447650
Cl57	Cl	1.377483	-1.119148	-0.358437
H58	H	1.367400	-0.573526	-0.919837
H59	H	1.125074	-0.374524	-0.622311
H60	H	1.124814	-0.485941	-0.334988
Cl61	Cl	1.689681	-1.114957	-0.659341
H62	H	1.397716	-0.919673	-0.397308
H63	H	0.942574	-0.479147	-0.337639
Cl64	Cl	1.596236	-0.304332	-1.116928
H65	H	1.706815	-0.484504	-1.101714
Cl66	Cl	1.321544	-0.901406	-0.565152
Cl67	Cl	1.475212	-1.116738	-0.719622
H68	H	1.359176	-1.100281	-0.541882
Cl69	Cl	1.687603	-0.900804	-0.660408
H70	H	1.366939	-0.573305	-1.101972
Cl71	Cl	1.741058	-0.451964	-0.904456
H72	H	1.468644	-0.674725	-1.103301
Cl73	Cl	1.584812	-0.902612	-0.300812
H74	H	0.940682	-0.619123	-0.370626
Cl75	Cl	1.380187	-0.355603	-1.119867
Cl76	Cl	1.584990	-1.117133	-0.300217
Cl77	Cl	1.741493	-1.118939	-0.457418
Cl78	Cl	1.374345	-0.363644	-0.904641
H79	H	0.941826	-0.676095	-0.573187
H80	H	1.556789	-0.334882	-0.918911
H81	H	0.940517	-0.574491	-0.674780
H82	H	1.123479	-0.336041	-0.483644
Cl83	Cl	0.925914	-0.301648	-0.454075
