data_functionalizedCrystal
_audit_creation_method	'MofGen! by Chris Wilmer'
_symmetry_space_group_name_H-M	'P1'
_symmetry_Int_Tables_number	1
_symmetry_cell_setting	triclinic
loop_
_symmetry_equiv_pos_as_xyz
  x,y,z
_cell_length_a	17.640112
_cell_length_b	17.637651
_cell_length_c	17.640968
_cell_angle_alpha	70.334811
_cell_angle_beta	92.139080
_cell_angle_gamma	114.329102
loop_
_atom_site_label
_atom_site_type_symbol
_atom_site_fract_x
_atom_site_fract_y
_atom_site_fract_z
Zn1	Zn	1.242024	-0.024656	-0.191252
Zn2	Zn	1.742024	0.475344	0.308748
Zn3	Zn	1.174933	-0.201700	-0.036779
Zn4	Zn	1.674933	0.298300	0.463221
Zn5	Zn	1.076328	-0.080477	-0.081230
Zn6	Zn	1.576328	0.419523	0.418770
Zn7	Zn	1.076310	-0.190404	-0.191115
Zn8	Zn	1.576310	0.309596	0.308885
O9	O	1.142399	-0.124309	-0.125094
O10	O	1.642399	0.375691	0.374906
O11	O	1.343742	-0.029508	-0.152215
O12	O	1.843742	0.470492	0.347785
O13	O	1.133782	-0.213708	0.067959
O14	O	1.633782	0.286292	0.567959
O15	O	1.126393	0.047027	-0.114485
O16	O	1.626393	0.547027	0.385515
O17	O	1.294451	-0.159581	-0.038724
O18	O	1.794451	0.340419	0.461276
O19	O	1.248129	0.088038	-0.195317
O20	O	1.748129	0.588038	0.304683
O21	O	1.061337	-0.124646	0.035301
O22	O	1.561337	0.375354	0.535301
O23	O	0.965707	-0.113693	-0.114352
O24	O	1.465707	0.386307	0.385648
O25	O	1.126363	-0.140329	-0.301768
O26	O	1.626363	0.359671	0.198232
O27	O	0.965694	-0.194456	-0.195084
O28	O	1.465694	0.305544	0.304916
O29	O	1.248112	-0.018555	-0.301868
O30	O	1.748112	0.481445	0.198132
O31	O	1.133765	-0.320300	-0.038592
O32	O	1.633765	0.179700	0.461408
O33	O	1.061308	-0.312001	-0.151982
O34	O	1.561308	0.187999	0.348018
C35	C	0.937018	-0.158906	-0.159527
C36	C	1.437018	0.341094	0.340473
C37	C	0.849156	-0.173723	-0.174274
C38	C	1.349156	0.326277	0.325726
C39	C	0.560301	-0.011732	-0.013076
C40	C	1.060301	0.488268	0.486924
C41	C	0.477739	-0.025669	-0.026941
C42	C	0.977739	0.474331	0.473059
C43	C	0.477701	-0.109964	-0.110809
C44	C	0.977701	0.390036	0.389191
C45	C	0.560265	-0.096030	-0.096955
C46	C	1.060265	0.403970	0.403045
C47	C	0.601559	-0.046914	-0.048087
C48	C	1.101559	0.453086	0.451913
C49	C	0.601523	-0.131212	-0.131966
C50	C	1.101523	0.368788	0.368034
C51	C	0.684079	-0.117283	-0.118109
C52	C	1.184079	0.382717	0.381891
C53	C	0.725377	-0.068172	-0.069241
C54	C	1.225377	0.431828	0.430759
C55	C	0.684115	-0.032985	-0.034230
C56	C	1.184115	0.467015	0.465770
C57	C	0.560226	-0.180333	-0.180828
C58	C	1.060226	0.319667	0.319172
C59	C	0.601484	-0.215515	-0.215839
C60	C	1.101484	0.284485	0.284161
C61	C	0.684044	-0.201581	-0.201987
C62	C	1.184044	0.298419	0.298013
C63	C	0.725342	-0.152470	-0.153120
C64	C	1.225342	0.347530	0.346880
C65	C	0.725307	-0.236767	-0.236998
C66	C	1.225307	0.263233	0.263002
C67	C	0.807862	-0.222838	-0.223142
C68	C	1.307862	0.277162	0.276858
C69	C	0.807898	-0.138541	-0.139263
C70	C	1.307898	0.361459	0.360737
C71	C	1.090280	-0.347283	-0.090462
C72	C	1.590280	0.152717	0.409538
C73	C	1.068063	-0.442653	-0.075661
C74	C	1.568063	0.057347	0.424339
C75	C	1.311759	-0.649227	-0.237701
C76	C	1.811759	-0.149227	0.262299
C77	C	1.290854	-0.738850	-0.223783
C78	C	1.790854	-0.238850	0.276217
C79	C	1.164132	-0.781675	-0.139504
C80	C	1.664132	-0.281675	0.360496
C81	C	1.185029	-0.692055	-0.153411
C82	C	1.685029	-0.192055	0.346589
C83	C	1.258843	-0.625837	-0.202511
C84	C	1.758843	-0.125837	0.297489
C85	C	1.132113	-0.668665	-0.118221
C86	C	1.632113	-0.168665	0.381779
C87	C	1.153006	-0.579052	-0.132131
C88	C	1.653006	-0.079052	0.367869
C89	C	1.226815	-0.512829	-0.181231
C90	C	1.726815	-0.012829	0.318769
C91	C	1.279736	-0.536224	-0.216421
C92	C	1.779736	-0.036224	0.283579
C93	C	1.058296	-0.734884	-0.069126
C94	C	1.558296	-0.234884	0.430874
C95	C	1.005380	-0.711494	-0.033936
C96	C	1.505380	-0.211494	0.466064
C97	C	1.026276	-0.621879	-0.047841
C98	C	1.526276	-0.121879	0.452159
C99	C	1.100085	-0.555657	-0.096941
C100	C	1.600085	-0.055657	0.403059
C101	C	0.973355	-0.598484	-0.012651
C102	C	1.473355	-0.098484	0.487349
C103	C	0.994249	-0.508871	-0.026561
C104	C	1.494249	-0.008871	0.473439
C105	C	1.120979	-0.466044	-0.110851
C106	C	1.620979	0.033956	0.389149
C107	C	1.348581	-0.089578	-0.090526
C108	C	1.848581	0.410422	0.409474
C109	C	1.436443	-0.074777	-0.075796
C110	C	1.936443	0.425223	0.424204
C111	C	1.194719	-0.071955	-0.331306
C112	C	1.694719	0.428045	0.168694
C113	C	1.217015	-0.049645	-0.419181
C114	C	1.717015	0.450355	0.080819
C115	C	1.194746	0.099543	-0.159875
C116	C	1.694746	0.599543	0.340125
C117	C	1.217054	0.194936	-0.174696
C118	C	1.717054	0.694936	0.325304
C119	C	0.973431	-0.293279	-0.707925
C120	C	1.473431	0.206721	-0.207925
C121	C	0.994401	-0.272302	-0.790496
C122	C	1.494401	0.227698	-0.290496
C123	C	1.121167	-0.145509	-0.790590
C124	C	1.621167	0.354491	-0.290590
C125	C	1.100206	-0.166473	-0.708018
C126	C	1.600206	0.333527	-0.208018
C127	C	1.026337	-0.240360	-0.666692
C128	C	1.526337	0.259640	-0.166692
C129	C	1.153113	-0.113554	-0.666785
C130	C	1.653113	0.386446	-0.166785
C131	C	1.132155	-0.134520	-0.584219
C132	C	1.632155	0.365480	-0.084219
C133	C	1.058291	-0.208405	-0.542887
C134	C	1.558291	0.291595	-0.042887
C135	C	1.005380	-0.261326	-0.584126
C136	C	1.505380	0.238674	-0.084126
C137	C	1.226984	-0.039671	-0.708111
C138	C	1.726984	0.460329	-0.208111
C139	C	1.279890	0.013248	-0.666878
C140	C	1.779890	0.513248	-0.166878
C141	C	1.258930	-0.007714	-0.584313
C142	C	1.758930	0.492286	-0.084313
C143	C	1.185066	-0.081599	-0.542980
C144	C	1.685066	0.418401	-0.042980
C145	C	1.311841	0.045208	-0.543073
C146	C	1.811841	0.545208	-0.043073
C147	C	1.290884	0.024242	-0.460508
C148	C	1.790884	0.524242	0.039492
C149	C	1.164109	-0.102564	-0.460414
C150	C	1.664109	0.397436	0.039586
C151	C	1.090341	-0.176390	0.080314
C152	C	1.590341	0.323610	0.580314
C153	C	1.068255	-0.198433	0.168177
C154	C	1.568255	0.301567	0.668177
H155	H	0.493004	-0.191672	-0.192109
H156	H	0.993004	0.308328	0.307891
Cl157	Cl	1.071337	-0.864927	-0.077787
Cl158	Cl	1.571337	-0.364927	0.422213
Cl159	Cl	1.357389	-0.768250	-0.268022
Cl160	Cl	1.857389	-0.268250	0.231978
H161	H	0.913266	-0.353428	-0.674281
H162	H	1.413266	0.146572	-0.174281
H163	H	0.567851	-0.255508	-0.255625
H164	H	1.067851	0.244492	0.244375
Cl165	Cl	1.372752	0.106129	-0.718838
Cl166	Cl	1.872752	0.606129	-0.218838
Cl167	Cl	0.425872	0.018558	0.017085
Cl168	Cl	0.925872	0.518558	0.517085
H169	H	0.951158	-0.489829	0.002094
H170	H	1.451158	0.010171	0.502094
H171	H	0.792599	-0.056834	-0.057958
H172	H	1.292599	0.443166	0.442042
Cl173	Cl	0.736035	0.028768	0.027198
Cl174	Cl	1.236035	0.528768	0.527198
H175	H	0.444067	-0.149956	-0.150595
H176	H	0.944067	0.350044	0.349405
H177	H	0.951312	-0.315401	-0.824065
H178	H	1.451312	0.184599	-0.324065
Cl179	Cl	1.071238	-0.195446	-0.408457
Cl180	Cl	1.571238	0.304554	0.091543
H181	H	1.371989	0.105361	-0.576732
H182	H	1.871989	0.605361	-0.076732
H183	H	1.041282	-0.807851	-0.057811
H184	H	1.541282	-0.307851	0.442189
Cl185	Cl	0.673378	-0.298530	-0.298412
Cl186	Cl	1.173378	0.201470	0.201588
Cl187	Cl	1.404563	-0.565976	-0.299416
Cl188	Cl	1.904563	-0.065976	0.200584
Cl189	Cl	1.214028	-0.052628	-0.842550
Cl190	Cl	1.714028	0.447372	-0.342550
H191	H	1.041231	-0.225476	-0.475655
H192	H	1.541231	0.274524	0.024345
H193	H	1.243825	-0.439861	-0.192555
H194	H	1.743825	0.060139	0.307445
H195	H	0.841456	-0.251486	-0.251652
H196	H	1.341456	0.248514	0.248348
Cl197	Cl	1.213782	-0.382792	-0.172566
Cl198	Cl	1.713782	0.117208	0.327434
Cl199	Cl	1.372540	-0.452972	-0.278136
Cl200	Cl	1.872540	0.047028	0.221864
H201	H	0.945280	-0.765419	0.006039
H202	H	1.445280	-0.265419	0.506039
Cl203	Cl	1.357397	0.090767	-0.408667
Cl204	Cl	1.857397	0.590767	0.091333
H205	H	0.913252	-0.652411	0.027320
H206	H	1.413252	-0.152411	0.527320
Cl207	Cl	1.253332	-0.013317	-0.811909
Cl208	Cl	1.753332	0.486683	-0.311909
H209	H	0.945215	-0.321475	-0.550482
H210	H	1.445215	0.178525	-0.050482
H211	H	0.841527	-0.098530	-0.099484
H212	H	1.341527	0.401470	0.400516
H213	H	0.593930	0.028278	0.026703
H214	H	1.093930	0.528278	0.526703
