data_functionalizedCrystal
_audit_creation_method	'MofGen! by Chris Wilmer'
_symmetry_space_group_name_H-M	'P1'
_symmetry_Int_Tables_number	1
_symmetry_cell_setting	triclinic
loop_
_symmetry_equiv_pos_as_xyz
  x,y,z
_cell_length_a	6.817900
_cell_length_b	11.102193
_cell_length_c	16.305550
_cell_angle_alpha	93.873718
_cell_angle_beta	103.455250
_cell_angle_gamma	108.604125
loop_
_atom_site_label
_atom_site_type_symbol
_atom_site_fract_x
_atom_site_fract_y
_atom_site_fract_z
V1	V	-4.052579	-0.176912	-0.263034
O2	O	-4.012740	0.007398	-0.258024
O3	O	-4.029753	-0.349726	-0.261239
O4	O	-4.003652	-0.174675	-0.377751
O5	O	-4.039022	-0.168865	-0.140705
V6	V	-4.532961	-0.154809	-0.248402
O7	O	-4.320726	-0.225397	-0.295131
O8	O	-4.715011	-0.106325	-0.216306
O9	O	-4.332581	0.018004	-0.250198
O10	O	-4.690197	-0.339119	-0.253413
O11	O	-4.663915	-0.162857	-0.370732
O12	O	-4.358682	-0.157046	-0.133685
C13	C	-3.880992	-0.391839	-0.257090
C14	C	-3.943613	-0.533119	-0.256386
C15	C	-3.975556	-0.761666	-0.100537
C16	C	-3.903273	-0.676822	-0.023611
C17	C	-3.844437	-0.544077	-0.024274
C18	C	-3.857882	-0.496176	-0.101871
C19	C	-3.930165	-0.581020	-0.178797
C20	C	-3.989003	-0.713765	-0.178126
C21	C	-4.015896	-0.617963	-0.333312
C22	C	-4.074747	-0.750709	-0.332651
C23	C	-4.029341	-0.570062	-0.410910
C24	C	-4.101640	-0.654907	-0.487838
C25	C	-4.160479	-0.787659	-0.487171
C26	C	-4.147030	-0.835553	-0.409577
C27	C	-3.847697	-0.168543	-0.405713
C28	C	-3.889146	-0.167857	-0.499494
C29	C	-4.039838	-0.165201	-0.840240
C30	C	-3.802616	-0.157315	-0.799311
C31	C	-3.759607	-0.158554	-0.701816
C32	C	-3.965076	-0.166518	-0.671192
C33	C	-4.150793	-0.292034	-0.721821
C34	C	-4.192550	-0.291324	-0.819370
C35	C	-4.077233	-0.048574	-0.794394
C36	C	-4.029156	-0.047581	-0.696552
C37	C	-3.922838	-0.167267	-0.575654
C38	C	-4.082087	-0.164461	-0.935779
C39	C	-4.144684	0.060111	-0.254345
C40	C	-4.061302	0.201390	-0.255054
C41	C	-4.177980	-0.163183	-0.105720
C42	C	-4.115768	-0.163862	-0.011937
H43	H	-4.023478	-0.869752	-0.099989
H44	H	-3.892329	-0.715838	0.039568
H45	H	-3.971676	0.046528	-0.807760
H46	H	-4.219321	-0.856733	-0.549814
H47	H	-3.894290	0.045258	-0.662172
H48	H	-4.194941	-0.943638	-0.409027
H49	H	-4.176211	-0.046019	-0.675204
H50	H	-3.981423	-0.461973	-0.411444
H51	H	-4.249992	-0.053235	-0.821210
H52	H	-3.619677	-0.068309	-0.666791
H53	H	-3.785563	-0.474995	0.038367
H54	H	-4.169547	-0.379614	-0.849753
H55	H	-3.809948	-0.388085	-0.102404
H56	H	-4.112565	-0.615893	-0.551011
H57	H	-3.769998	-0.241107	-0.830825
H58	H	-3.682981	-0.066643	-0.811673
H59	H	-3.705797	-0.243313	-0.685524
H60	H	-4.368025	-0.302332	-0.847362
H61	H	-4.305492	-0.302401	-0.702908
H62	H	-4.108504	-0.380348	-0.705010
