data_functionalizedCrystal
_audit_creation_method	'MofGen! by Chris Wilmer'
_symmetry_space_group_name_H-M	'P1'
_symmetry_Int_Tables_number	1
_symmetry_cell_setting	triclinic
loop_
_symmetry_equiv_pos_as_xyz
  x,y,z
_cell_length_a	21.295417
_cell_length_b	12.759401
_cell_length_c	12.759393
_cell_angle_alpha	89.979880
_cell_angle_beta	90.039170
_cell_angle_gamma	89.973523
loop_
_atom_site_label
_atom_site_type_symbol
_atom_site_fract_x
_atom_site_fract_y
_atom_site_fract_z
Zn1	Zn	-0.250640	-1.606140	0.593971
Zn2	Zn	0.249360	-1.106140	1.093971
Zn3	Zn	-0.355924	-1.605986	0.418268
Zn4	Zn	0.144076	-1.105986	0.918268
Zn5	Zn	-0.250665	-1.430442	0.418306
Zn6	Zn	0.249335	-0.930442	0.918306
Zn7	Zn	-0.355868	-1.430382	0.593905
Zn8	Zn	0.144132	-0.930382	1.093905
O9	O	-0.303274	-1.518237	0.506112
O10	O	0.196726	-1.018237	1.006112
O11	O	-0.264619	-1.753141	0.570676
O12	O	0.235381	-1.253141	1.070676
O13	O	-0.341995	-1.582660	0.271252
O14	O	0.158005	-1.082660	0.771252
O15	O	-0.162572	-1.453838	0.441652
O16	O	0.337428	-0.953838	0.941652
O17	O	-0.341971	-1.753027	0.441588
O18	O	0.158029	-1.253027	0.941588
O19	O	-0.162554	-1.582923	0.570712
O20	O	0.337446	-1.082923	1.070712
O21	O	-0.264662	-1.453689	0.271280
O22	O	0.235338	-0.953689	0.771280
O23	O	-0.264607	-1.283413	0.441587
O24	O	0.235393	-0.783413	0.941587
O25	O	-0.341875	-1.453736	0.740935
O26	O	0.158125	-0.953736	1.240935
O27	O	-0.341899	-1.283369	0.570599
O28	O	0.158101	-0.783369	1.070599
O29	O	-0.264564	-1.582865	0.740984
O30	O	0.235436	-1.082865	1.240984
O31	O	-0.444006	-1.582602	0.441523
O32	O	0.055994	-1.082602	0.941523
O33	O	-0.443965	-1.453587	0.570562
O34	O	0.056035	-0.953587	1.070562
C35	C	-0.303251	-1.245270	0.506090
C36	C	0.196749	-0.745270	1.006090
C37	C	-0.303256	-1.128493	0.506106
C38	C	0.196744	-0.628493	1.006106
C39	C	-0.263053	-1.073683	0.573425
C40	C	0.236947	-0.573683	1.073425
C41	C	-0.263061	-0.963959	0.573428
C42	C	0.236939	-0.463959	1.073428
C43	C	-0.343481	-0.963865	0.438791
C44	C	0.156519	-0.463865	0.938791
C45	C	-0.343469	-1.073587	0.438783
C46	C	0.156531	-0.573587	0.938783
C47	C	-0.216625	-1.073737	0.651160
C48	C	0.283375	-0.573737	1.151160
C49	C	-0.216634	-0.964013	0.651164
C50	C	0.283366	-0.464013	1.151164
C51	C	-0.466826	-1.518100	0.506054
C52	C	0.033174	-1.018100	1.006054
C53	C	-0.536794	-1.518137	0.506064
C54	C	-0.036794	-1.018137	1.006064
C55	C	-0.569661	-1.585375	0.438942
C56	C	-0.069661	-1.085375	0.938942
C57	C	-0.635404	-1.585424	0.438966
C58	C	-0.135404	-1.085424	0.938966
C59	C	-0.668276	-1.518217	0.506101
C60	C	-0.168276	-1.018217	1.006101
C61	C	-0.635401	-1.450974	0.573236
C62	C	-0.135401	-0.950974	1.073236
C63	C	-0.569660	-1.450934	0.573218
C64	C	-0.069660	-0.950934	1.073218
N65	N	-0.771538	-1.426309	0.514103
N66	N	-0.271538	-0.926309	1.014103
N67	N	-0.833989	-1.426350	0.514114
N68	N	-0.333989	-0.926350	1.014114
C69	C	-0.866351	-1.518334	0.506161
C70	C	-0.366351	-1.018334	1.006161
N71	N	-0.833902	-1.610278	0.498176
N72	N	-0.333902	-1.110278	0.998176
N73	N	-0.771445	-1.610236	0.498159
N74	N	-0.271445	-1.110236	0.998159
C75	C	-0.739562	-1.518253	0.506128
C76	C	-0.239562	-1.018253	1.006128
C77	C	-0.970504	-1.585631	0.439061
C78	C	-0.470504	-1.085631	0.939061
C79	C	-1.036247	-1.585682	0.439092
C80	C	-0.536247	-1.085682	0.939092
C81	C	-1.036244	-1.451223	0.573356
C82	C	-0.536244	-0.951223	1.073356
C83	C	-0.970501	-1.451181	0.573331
C84	C	-0.470501	-0.951181	1.073331
C85	C	-0.937635	-1.518384	0.506177
C86	C	-0.437635	-1.018384	1.006177
C87	C	-0.139084	-1.518404	0.506194
C88	C	0.360916	-1.018404	1.006194
C89	C	-0.069116	-1.518475	0.506228
C90	C	0.430884	-1.018475	1.006228
C91	C	-0.303211	-1.518311	0.780146
C92	C	0.196789	-1.018311	1.280146
C93	C	-0.303183	-1.518342	0.896923
C94	C	0.196817	-1.018342	1.396923
C95	C	-0.303290	-0.792271	0.506128
C96	C	0.196710	-0.292271	1.006128
C97	C	-0.303276	-0.909047	0.506118
C98	C	0.196724	-0.409047	1.006118
C99	C	-0.303292	-1.518225	0.233145
C100	C	0.196708	-1.018225	0.733145
C101	C	-0.303142	-1.518397	0.116369
C102	C	0.196858	-1.018397	0.616369
C103	C	-0.262924	-1.585589	0.951812
C104	C	0.237076	-1.085589	1.451812
C105	C	-0.262901	-1.585614	1.061536
C106	C	0.237099	-1.085614	1.561536
C107	C	-0.343403	-1.451143	1.061472
C108	C	0.156597	-0.951143	1.561472
C109	C	-0.343422	-1.451113	0.951750
C110	C	0.156578	-0.951113	1.451750
C111	C	-0.216449	-1.663228	0.951850
C112	C	0.283551	-1.163228	1.451850
C113	C	-0.216426	-1.663253	1.061574
C114	C	0.283574	-1.163253	1.561574
H115	H	-0.167852	-1.103526	0.629518
H116	H	0.332148	-0.603526	1.129518
C117	C	-0.671568	-1.659385	0.365130
C118	C	-0.171568	-1.159385	0.865130
H119	H	-0.715428	-1.649787	0.374765
H120	H	-0.215428	-1.149787	0.874765
H121	H	-0.660839	-1.644039	0.294523
H122	H	-0.160839	-1.144039	0.794523
H123	H	-0.660753	-1.729967	0.380568
H124	H	-0.160753	-1.229967	0.880568
C125	C	-0.240066	-1.767595	0.905854
C126	C	0.259934	-1.267595	1.405854
H127	H	-0.239282	-1.764011	0.831494
H128	H	0.260718	-1.264011	1.331494
H129	H	-0.213674	-1.823072	0.928860
H130	H	0.286326	-1.323072	1.428860
H131	H	-0.281825	-1.780074	0.928820
H132	H	0.218175	-1.280074	1.428820
H133	H	-0.170104	-1.634161	1.095631
H134	H	0.329896	-1.134161	1.595631
H135	H	-0.234141	-1.107794	0.728395
H136	H	0.265859	-0.607794	1.228395
C137	C	-1.072393	-1.377297	0.647208
C138	C	-0.572393	-0.877297	1.147208
H139	H	-1.043399	-1.337248	0.687185
H140	H	-0.543399	-0.837248	1.187185
H141	H	-1.098084	-1.331558	0.606989
H142	H	-0.598084	-0.831558	1.106989
H143	H	-1.097992	-1.417487	0.693033
H144	H	-0.597992	-0.917487	1.193033
H145	H	-0.943739	-1.396425	0.627983
H146	H	-0.443739	-0.896425	1.127983
C147	C	-0.671558	-1.377046	0.647079
C148	C	-0.171558	-0.877046	1.147079
H149	H	-0.715419	-1.386691	0.637470
H150	H	-0.215419	-0.886691	1.137470
H151	H	-0.660743	-1.392376	0.717681
H152	H	-0.160743	-0.892376	1.217681
H153	H	-0.660825	-1.306454	0.631631
H154	H	-0.160825	-0.806454	1.131631
H155	H	-0.376203	-1.396351	0.907063
H156	H	0.123797	-0.896351	1.407063
C157	C	-0.150596	-1.633846	0.911652
C158	C	0.349404	-1.133846	1.411652
H159	H	-0.150611	-1.633838	0.837194
H160	H	0.349389	-1.133838	1.337194
H161	H	-0.139693	-1.566065	0.936463
H162	H	0.360307	-1.066065	1.436463
H163	H	-0.120858	-1.683527	0.936488
H164	H	0.379142	-1.183527	1.436488
C165	C	-0.154046	-0.918046	0.612001
C166	C	0.345954	-0.418046	1.112001
H167	H	-0.126166	-0.973502	0.594564
H168	H	0.373834	-0.473502	1.094564
H169	H	-0.161484	-0.876113	0.551722
H170	H	0.338516	-0.376113	1.051722
H171	H	-0.135870	-0.876174	0.665570
H172	H	0.364130	-0.376174	1.165570
C173	C	-1.072405	-1.659634	0.365243
C174	C	-0.572405	-1.159634	0.865243
H175	H	-1.116265	-1.650039	0.374875
H176	H	-0.616265	-1.150039	0.874875
H177	H	-1.061672	-1.644271	0.294641
H178	H	-0.561672	-1.144271	0.794641
H179	H	-1.061590	-1.730218	0.380667
H180	H	-0.561590	-1.230218	0.880667
C181	C	-0.533504	-1.376963	0.647049
C182	C	-0.033504	-0.876963	1.147049
H183	H	-0.562495	-1.336939	0.687034
H184	H	-0.062495	-0.836939	1.187034
H185	H	-0.507812	-1.417110	0.692851
H186	H	-0.007812	-0.917110	1.192851
H187	H	-0.507906	-1.331187	0.606802
H188	H	-0.007906	-0.831187	1.106802
H189	H	-0.229751	-0.934262	0.732496
H190	H	0.270249	-0.434262	1.232496
C191	C	-0.533512	-1.659306	0.365089
C192	C	-0.033512	-1.159306	0.865089
H193	H	-0.562506	-1.699366	0.325124
H194	H	-0.062506	-1.199366	0.825124
H195	H	-0.507906	-1.619132	0.319269
H196	H	-0.007906	-1.119132	0.819269
H197	H	-0.507827	-1.705052	0.405322
H198	H	-0.007827	-1.205052	0.905322
C199	C	-0.387666	-1.377206	1.121785
C200	C	0.112334	-0.877206	1.621785
H201	H	-0.381892	-1.386857	1.194993
H202	H	0.118108	-0.886857	1.694993
H203	H	-0.378453	-1.306620	1.103802
H204	H	0.121547	-0.806620	1.603802
H205	H	-0.429968	-1.392543	1.103778
H206	H	0.070032	-0.892543	1.603778
H207	H	-0.229487	-1.744618	1.091352
H208	H	0.270513	-1.244618	1.591352
C209	C	-0.387686	-1.133875	0.364724
C210	C	0.112314	-0.633875	0.864724
H211	H	-0.411639	-1.085458	0.324639
H212	H	0.088361	-0.585458	0.824639
H213	H	-0.363566	-1.176669	0.319024
H214	H	0.136434	-0.676669	0.819024
H215	H	-0.415143	-1.176681	0.404824
H216	H	0.084857	-0.676681	0.904824
C217	C	-0.387716	-0.903465	0.364750
C218	C	0.112284	-0.403465	0.864750
H219	H	-0.381969	-0.830268	0.374399
H220	H	0.118031	-0.330268	0.874399
H221	H	-0.378454	-0.921423	0.294187
H222	H	0.121546	-0.421423	0.794187
H223	H	-0.430022	-0.921432	0.380003
H224	H	0.069978	-0.421432	0.880003
H225	H	-0.943743	-1.640355	0.384384
H226	H	-0.443743	-1.140355	0.884384
