data_functionalizedCrystal
_audit_creation_method	'MofGen! by Chris Wilmer'
_symmetry_space_group_name_H-M	'P1'
_symmetry_Int_Tables_number	1
_symmetry_cell_setting	triclinic
loop_
_symmetry_equiv_pos_as_xyz
  x,y,z
_cell_length_a	6.817900
_cell_length_b	16.417825
_cell_length_c	11.168136
_cell_angle_alpha	93.915456
_cell_angle_beta	108.508683
_cell_angle_gamma	103.385495
loop_
_atom_site_label
_atom_site_type_symbol
_atom_site_fract_x
_atom_site_fract_y
_atom_site_fract_z
V1	V	-4.083861	-0.115898	-0.394142
O2	O	-4.070714	0.005556	-0.386184
O3	O	-4.034576	-0.229794	-0.391884
O4	O	-4.060550	-0.114121	-0.565841
O5	O	-4.044560	-0.110917	-0.211023
V6	V	-4.564352	-0.101370	-0.372186
O7	O	-4.351769	-0.147766	-0.442303
O8	O	-4.746641	-0.069502	-0.324024
O9	O	-4.390430	0.012526	-0.374444
O10	O	-4.694895	-0.222824	-0.380144
O11	O	-4.721049	-0.106351	-0.555305
O12	O	-4.364456	-0.103147	-0.200487
C13	C	-3.878550	-0.257559	-0.385779
C14	C	-3.919709	-0.350670	-0.385078
C15	C	-3.957358	-0.552931	-0.267809
C16	C	-3.996055	-0.640420	-0.267160
C17	C	-4.110237	-0.664338	-0.498532
C18	C	-4.071555	-0.576850	-0.499181
C19	C	-3.995104	-0.521148	-0.383815
C20	C	-4.072483	-0.696125	-0.382517
C21	C	-4.114440	-0.790985	-0.381814
C22	C	-3.953148	-0.426282	-0.384518
C23	C	-3.911681	-0.110006	-0.607677
C24	C	-3.973900	-0.109306	-0.748044
C25	C	-4.175586	-0.112967	-0.816750
C26	C	-4.239896	-0.112244	-0.961828
C27	C	-4.209797	0.040287	-0.380545
C28	C	-4.147878	0.133397	-0.381255
C29	C	-4.176666	-0.107265	-0.158644
C30	C	-4.093686	-0.107960	-0.018275
H31	H	-3.965317	-0.666292	-0.172697
Br32	Br	-3.853611	-0.477338	-0.111243
H33	H	-4.172482	-0.709700	-0.592459
Br34	Br	-4.122806	-0.533713	-0.656630
Br35	Br	-3.765430	-0.103180	-0.829004
H36	H	-3.920907	-0.104831	-0.959222
H37	H	-4.300643	-0.116631	-0.768166
H38	H	-4.412677	-0.115383	-1.020891
