data_functionalizedCrystal
_audit_creation_method	'MofGen! by Chris Wilmer'
_symmetry_space_group_name_H-M	'P1'
_symmetry_Int_Tables_number	1
_symmetry_cell_setting	triclinic
loop_
_symmetry_equiv_pos_as_xyz
  x,y,z
_cell_length_a	15.995350
_cell_length_b	19.288865
_cell_length_c	17.766277
_cell_angle_alpha	90.011603
_cell_angle_beta	90.005713
_cell_angle_gamma	83.314311
loop_
_atom_site_label
_atom_site_type_symbol
_atom_site_fract_x
_atom_site_fract_y
_atom_site_fract_z
O1	O	-1.110654	-0.089532	-0.062539
O2	O	-0.610654	0.410468	0.437461
O3	O	-0.866837	-0.100588	-0.062556
O4	O	-0.366837	0.399412	0.437444
O5	O	-0.995790	0.006052	-0.062532
O6	O	-0.495790	0.506052	0.437468
O7	O	-0.981700	-0.196172	-0.062563
O8	O	-0.481700	0.303828	0.437437
O9	O	-0.995768	0.006058	0.062656
O10	O	-0.495768	0.506058	0.562656
O11	O	-0.866814	-0.100582	0.062633
O12	O	-0.366814	0.399418	0.562633
O13	O	-1.110631	-0.089526	0.062649
O14	O	-0.610631	0.410474	0.562649
Cu15	Cu	-0.988720	-0.095054	0.074072
Cu16	Cu	-0.488720	0.404946	0.574072
Cu17	Cu	-0.988747	-0.095060	-0.073978
Cu18	Cu	-0.488747	0.404940	0.426022
O19	O	-0.981677	-0.196166	0.062626
O20	O	-0.481677	0.303834	0.562626
C21	C	-0.835632	-0.100128	0.000036
C22	C	-0.335632	0.399872	0.500036
C23	C	-0.742687	-0.098757	0.000031
C24	C	-0.242687	0.401243	0.500031
C25	C	-0.995326	0.031933	0.000064
C26	C	-0.495326	0.531933	0.500064
C27	C	-0.993965	0.109040	0.000071
C28	C	-0.493965	0.609040	0.500071
C29	C	-1.141835	-0.089986	0.000055
C30	C	-0.641835	0.410014	0.500055
C31	C	-1.234781	-0.091356	0.000056
C32	C	-0.734781	0.408644	0.500056
C33	C	-0.404958	-0.093836	0.000047
C34	C	0.095042	0.406164	0.500047
C35	C	-0.452679	-0.017889	0.000338
C36	C	0.047321	0.482111	0.500338
C37	C	-0.549364	-0.019260	0.000050
C38	C	-0.049364	0.480740	0.500050
C39	C	-0.572509	-0.096277	0.000039
C40	C	-0.072509	0.403723	0.500039
C41	C	-0.531294	-0.133740	-0.071452
C42	C	-0.031294	0.366260	0.428548
C43	C	-0.434665	-0.131832	-0.071506
C44	C	0.065335	0.368168	0.428494
C45	C	-0.434295	-0.133395	0.070856
C46	C	0.065705	0.366605	0.570856
C47	C	-0.531240	-0.133377	0.071796
C48	C	-0.031240	0.366623	0.571796
C49	C	-0.667202	-0.097661	0.000033
C50	C	-0.167202	0.402339	0.500033
C51	C	-0.310266	-0.092455	0.000049
C52	C	0.189734	0.407545	0.500049
C53	C	-0.982142	-0.222047	0.000027
C54	C	-0.482142	0.277953	0.500027
C55	C	-0.983503	-0.299154	0.000016
C56	C	-0.483503	0.200846	0.500016
N57	N	-0.988708	-0.095049	0.178202
N58	N	-0.488708	0.404951	0.678202
C59	C	-1.069629	0.153540	0.000080
C60	C	-0.569629	0.653540	0.500080
C61	C	-1.068350	0.225990	0.000068
C62	C	-0.568350	0.725990	0.500068
C63	C	-0.991403	0.253937	0.000062
C64	C	-0.491403	0.753937	0.500062
C65	C	-0.915729	0.209428	0.000049
C66	C	-0.415729	0.709428	0.500049
C67	C	-0.917010	0.136979	0.000053
C68	C	-0.417010	0.636979	0.500053
C69	C	-0.930906	0.362384	0.043909
C70	C	-0.430906	0.862384	0.543909
C71	C	-0.929628	0.434832	0.043909
C72	C	-0.429628	0.934832	0.543909
C73	C	-0.987450	0.477393	0.000045
C74	C	-0.487450	0.977393	0.500045
C75	C	-1.046563	0.447500	-0.043810
C76	C	-0.546563	0.947500	0.456190
C77	C	-1.047844	0.375051	-0.043805
C78	C	-0.547844	0.875051	0.456195
C79	C	-0.990006	0.332495	0.000057
C80	C	-0.490006	0.832495	0.500057
C81	C	-1.061733	0.600453	0.000040
C82	C	-0.561733	1.100453	0.500040
C83	C	-1.060451	0.672904	0.000023
C84	C	-0.560451	1.172904	0.500023
C85	C	-0.907827	0.656340	0.000012
C86	C	-0.407827	1.156340	0.500012
C87	C	-0.909111	0.583890	0.000021
C88	C	-0.409111	1.083890	0.500021
C89	C	-0.986066	0.555951	0.000038
C90	C	-0.486066	1.055951	0.500038
N91	N	-0.988766	-0.095060	-0.178109
N92	N	-0.488766	0.404940	0.321891
C93	C	-1.045827	-0.047852	0.217599
C94	C	-0.545827	0.452148	0.717599
C95	C	-1.045832	-0.047848	0.296401
C96	C	-0.545832	0.452152	0.796401
C97	C	-0.988725	-0.095054	0.335803
C98	C	-0.488725	0.404946	0.835803
C99	C	-0.931596	-0.142255	0.296396
C100	C	-0.431596	0.357745	0.796396
C101	C	-0.931587	-0.142252	0.217595
C102	C	-0.431587	0.357748	0.717595
C103	C	-0.977516	-0.158313	0.460630
C104	C	-0.477516	0.341687	0.960630
C105	C	-0.977531	-0.158317	0.539429
C106	C	-0.477531	0.341683	1.039429
C107	C	-0.988748	-0.095063	0.578849
C108	C	-0.488748	0.404937	1.078849
C109	C	-0.999968	-0.031802	0.539460
C110	C	-0.499968	0.468198	1.039460
C111	C	-0.999959	-0.031800	0.460660
C112	C	-0.499959	0.468200	0.960660
C113	C	-0.988728	-0.095062	0.421248
C114	C	-0.488728	0.404938	0.921248
C115	C	-1.045875	-0.047858	0.703692
C116	C	-0.545875	0.452142	1.203692
C117	C	-1.045874	-0.047854	0.782495
C118	C	-0.545874	0.452146	1.282495
C119	C	-0.931642	-0.142267	0.782488
C120	C	-0.431642	0.357733	1.282488
C121	C	-0.931639	-0.142265	0.703687
C122	C	-0.431639	0.357735	1.203687
C123	C	-0.988760	-0.095061	0.664293
C124	C	-0.488760	0.404939	1.164293
H125	H	-0.577894	0.010188	0.051299
H126	H	-0.077894	0.510188	0.551299
O127	O	-0.868542	0.316483	0.091230
O128	O	-0.368542	0.816483	0.591230
H129	H	-0.829653	0.279185	0.054245
H130	H	-0.329653	0.779185	0.554245
O131	O	-0.865873	0.467068	0.091208
O132	O	-0.365873	0.967068	0.591208
H133	H	-0.899156	0.503754	0.132404
H134	H	-0.399156	1.003754	0.632404
H135	H	-0.885142	-0.180700	0.814568
H136	H	-0.385142	0.319300	1.314568
H137	H	-0.545206	-0.190323	-0.074118
H138	H	-0.045206	0.309677	0.425882
O139	O	-1.144730	0.570312	0.000050
O140	O	-0.644730	1.070312	0.500050
H141	H	-1.148966	0.537683	-0.050969
H142	H	-0.648966	1.037683	0.449031
O143	O	-0.428285	0.022332	0.068249
O144	O	0.071715	0.522332	0.568249
H145	H	-0.381883	-0.011373	0.102519
H146	H	0.118117	0.488627	0.602519
O147	O	-0.870042	-0.193178	0.661185
O148	O	-0.370042	0.306822	1.161185
H149	H	-0.830337	-0.226008	0.701820
H150	H	-0.330337	0.273992	1.201820
O151	O	-1.142063	0.720907	0.000039
O152	O	-0.642063	1.220907	0.500039
H153	H	-1.195786	0.689304	0.000061
H154	H	-0.695786	1.189304	0.500061
O155	O	-0.407211	-0.100502	0.142636
O156	O	0.092789	0.399498	0.642636
H157	H	-0.428643	-0.129330	0.191725
H158	H	0.071357	0.370670	0.691725
H159	H	-0.968367	-0.209825	0.428542
H160	H	-0.468367	0.290175	0.928542
O161	O	-0.426886	0.022147	-0.067179
O162	O	0.073114	0.522147	0.432821
H163	H	-0.380229	-0.011812	-0.100944
H164	H	0.119771	0.488188	0.399056
H165	H	-0.885073	-0.180686	0.185517
H166	H	-0.385073	0.319314	0.685517
O167	O	-0.965447	-0.226543	0.581912
O168	O	-0.465447	0.273457	1.081912
H169	H	-0.957634	-0.270526	0.541265
H170	H	-0.457634	0.229474	1.041265
H171	H	-0.559776	-0.107725	-0.124650
H172	H	-0.059776	0.392275	0.375350
O173	O	-0.586436	0.019996	-0.067942
O174	O	-0.086436	0.519996	0.432058
H175	H	-0.535296	0.040028	-0.100750
H176	H	-0.035296	0.540028	0.399250
H177	H	-0.885098	-0.180689	0.328480
H178	H	-0.385098	0.319311	0.828480
H179	H	-1.009093	0.019709	0.428592
H180	H	-0.509093	0.519709	0.928592
O181	O	-0.567543	-0.097159	0.141860
O182	O	-0.067543	0.402841	0.641860
H183	H	-0.614784	-0.052920	0.125653
H184	H	-0.114784	0.447080	0.625653
H185	H	-1.129967	0.262229	0.000072
H186	H	-0.629967	0.762229	0.500072
O187	O	-0.551311	-0.207772	0.077517
O188	O	-0.051311	0.292228	0.577517
H189	H	-0.591185	-0.219521	0.029086
H190	H	-0.091185	0.280479	0.529086
O191	O	-0.391934	-0.207563	0.071496
O192	O	0.108066	0.292437	0.571496
H193	H	-0.409127	-0.234738	0.019655
H194	H	0.090873	0.265262	0.519655
O195	O	-0.410554	-0.095638	-0.142274
O196	O	0.089446	0.404362	0.357726
H197	H	-0.467884	-0.079657	-0.176135
H198	H	0.032116	0.420343	0.323865
O199	O	-0.391672	-0.205691	-0.075822
O200	O	0.108328	0.294309	0.424178
H201	H	-0.351320	-0.216838	-0.025431
H202	H	0.148680	0.283162	0.474569
O203	O	-1.012087	0.036432	0.581957
O204	O	-0.512087	0.536432	1.081957
H205	H	-0.961034	0.068234	0.566842
H206	H	-0.461034	0.568234	1.066842
H207	H	-1.132291	0.130797	0.000091
H208	H	-0.632291	0.630797	0.500091
H209	H	-1.095974	0.350715	-0.079515
H210	H	-0.595974	0.850715	0.420485
H211	H	-1.093646	0.482153	-0.079528
H212	H	-0.593646	0.982153	0.420472
O213	O	-0.824830	0.686471	0.000009
O214	O	-0.324830	1.186471	0.500009
H215	H	-0.836650	0.744326	0.000012
H216	H	-0.336650	1.244326	0.500012
H217	H	-0.847497	0.547657	0.000018
H218	H	-0.347497	1.047657	0.500018
H219	H	-0.853078	0.232187	0.000042
H220	H	-0.353078	0.732187	0.500042
H221	H	-1.092336	-0.009414	0.185528
H222	H	-0.592336	0.490586	0.685528
O223	O	-0.835398	0.088975	0.000057
O224	O	-0.335398	0.588975	0.500057
H225	H	-0.781674	0.120577	0.000056
H226	H	-0.281674	0.620577	0.500056
O227	O	-1.107449	0.003051	0.338909
O228	O	-0.607449	0.503051	0.838909
H229	H	-1.147171	0.035870	0.298278
H230	H	-0.647171	0.535870	0.798278
O231	O	-1.107469	0.003059	0.661194
O232	O	-0.607469	0.503059	1.161194
H233	H	-1.147180	0.035888	0.701832
H234	H	-0.647180	0.535888	1.201832
H235	H	-1.092385	-0.009417	0.814573
H236	H	-0.592385	0.490583	1.314573
