data_functionalizedCrystal
_audit_creation_method	'MofGen! by Chris Wilmer'
_symmetry_space_group_name_H-M	'P1'
_symmetry_Int_Tables_number	1
_symmetry_cell_setting	triclinic
loop_
_symmetry_equiv_pos_as_xyz
  x,y,z
_cell_length_a	17.077404
_cell_length_b	16.120484
_cell_length_c	17.077396
_cell_angle_alpha	92.867798
_cell_angle_beta	89.982756
_cell_angle_gamma	92.925780
loop_
_atom_site_label
_atom_site_type_symbol
_atom_site_fract_x
_atom_site_fract_y
_atom_site_fract_z
Zn1	Zn	1.184177	-0.331895	-0.459673
Zn2	Zn	1.684177	0.168105	0.040327
Zn3	Zn	1.177426	-0.471321	-0.335057
Zn4	Zn	1.677426	0.028679	0.164943
Zn5	Zn	1.052912	-0.331927	-0.328422
Zn6	Zn	1.552912	0.168073	0.171578
Zn7	Zn	1.046216	-0.471270	-0.466278
Zn8	Zn	1.546216	0.028730	0.033722
O9	O	1.115183	-0.401603	-0.397357
O10	O	1.615183	0.098397	0.102643
O11	O	1.293128	-0.350399	-0.443154
O12	O	1.793128	0.149601	0.056846
O13	O	1.160886	-0.452865	-0.224331
O14	O	1.660886	0.047135	0.275669
O15	O	1.075952	-0.215257	-0.340292
O16	O	1.575952	0.284743	0.159708
O17	O	1.288168	-0.452835	-0.351600
O18	O	1.788168	0.047165	0.148400
O19	O	1.172392	-0.215234	-0.436721
O20	O	1.672392	0.284766	0.063279
O21	O	1.069406	-0.350452	-0.219457
O22	O	1.569406	0.149548	0.280543
O23	O	0.942177	-0.350402	-0.346697
O24	O	1.442177	0.149598	0.153303
O25	O	1.064539	-0.452747	-0.575247
O26	O	1.564539	0.047253	-0.075247
O27	O	0.937258	-0.452777	-0.447979
O28	O	1.437258	0.047223	0.052021
O29	O	1.165899	-0.350349	-0.570394
O30	O	1.665899	0.149651	-0.070394
O31	O	1.154393	-0.587980	-0.358004
O32	O	1.654393	-0.087980	0.141996
O33	O	1.057994	-0.587942	-0.454412
O34	O	1.557994	-0.087942	0.045588
C35	C	0.911235	-0.401588	-0.397335
C36	C	1.411235	0.098412	0.102665
C37	C	0.823985	-0.401602	-0.397345
C38	C	1.323985	0.098398	0.102655
C39	C	0.780450	-0.454989	-0.450006
C40	C	1.280450	0.045011	0.049994
C41	C	0.698469	-0.454991	-0.450018
C42	C	1.198469	0.045009	0.049982
C43	C	0.660025	-0.401609	-0.397366
C44	C	1.160025	0.098391	0.102634
C45	C	0.703566	-0.348216	-0.344702
C46	C	1.203566	0.151784	0.155298
C47	C	0.785546	-0.348211	-0.344694
C48	C	1.285546	0.151789	0.155306
C49	C	0.532696	-0.348233	-0.344722
C50	C	1.032696	0.151767	0.155278
C51	C	0.450711	-0.348239	-0.344729
C52	C	0.950711	0.151761	0.155271
C53	C	0.445619	-0.455012	-0.450046
C54	C	0.945619	0.044988	0.049954
C55	C	0.527599	-0.455007	-0.450038
C56	C	1.027599	0.044993	0.049962
C57	C	0.571134	-0.401615	-0.397373
C58	C	1.071134	0.098385	0.102627
C59	C	1.104756	-0.618211	-0.407662
C60	C	1.604756	-0.118211	0.092338
C61	C	1.100367	-0.710877	-0.412096
C62	C	1.600367	-0.210877	0.087904
C63	C	1.092358	-0.880539	-0.420209
C64	C	1.592358	-0.380539	0.079791
C65	C	1.138148	-0.921827	-0.374519
C66	C	1.638148	-0.421827	0.125481
C67	C	1.133692	-1.016233	-0.379032
C68	C	1.633692	-0.516233	0.120968
C69	C	1.096813	-0.786125	-0.415696
C70	C	1.596813	-0.286125	0.084304
C71	C	1.319926	-0.401619	-0.397380
C72	C	1.819926	0.098381	0.102620
C73	C	1.407176	-0.401626	-0.397390
C74	C	1.907176	0.098374	0.102610
C75	C	1.115225	-0.401539	-0.602099
C76	C	1.615225	0.098461	-0.102099
C77	C	1.115243	-0.401511	-0.689347
C78	C	1.615243	0.098489	-0.189347
C79	C	1.125672	-0.184149	-0.387030
C80	C	1.625672	0.315851	0.112970
C81	C	1.130142	-0.091483	-0.382629
C82	C	1.630142	0.408517	0.117371
C83	C	1.067625	-0.348179	-0.727798
C84	C	1.567625	0.151821	-0.227798
C85	C	1.067639	-0.348160	-0.809778
C86	C	1.567639	0.151840	-0.309778
C87	C	1.115275	-0.401470	-0.853305
C88	C	1.615275	0.098530	-0.353305
C89	C	1.162895	-0.454808	-0.814848
C90	C	1.662895	0.045192	-0.314848
C91	C	1.162877	-0.454831	-0.732870
C92	C	1.662877	0.045169	-0.232870
C93	C	1.162932	-0.454756	-0.985716
C94	C	1.662932	0.045244	-0.485716
C95	C	1.162951	-0.454733	-1.067699
C96	C	1.662951	0.045267	-0.567699
C97	C	1.067694	-0.348085	-1.062623
C98	C	1.567694	0.151915	-0.562623
C99	C	1.067675	-0.348108	-0.980646
C100	C	1.567675	0.151892	-0.480646
C101	C	1.115297	-0.401445	-0.942195
C102	C	1.615297	0.098555	-0.442195
C103	C	1.115188	-0.401607	-0.193410
C104	C	1.615188	0.098393	0.306590
C105	C	1.115333	-0.401400	-0.106150
C106	C	1.615333	0.098600	0.393850
H107	H	0.811745	-0.498461	-0.492879
H108	H	1.311745	0.001539	0.007121
H109	H	1.201717	-0.498182	-0.954411
H110	H	1.701717	0.001818	-0.454411
C111	C	1.214642	-0.512779	-0.861966
C112	C	1.714642	-0.012779	-0.361966
C113	C	1.256325	-0.559507	-0.810743
C114	C	1.756325	-0.059507	-0.310743
C115	C	1.303997	-0.612925	-0.854118
C116	C	1.803997	-0.112925	-0.354118
H117	H	1.250456	-0.480974	-0.892441
H118	H	1.750456	0.019026	-0.392441
H119	H	1.182886	-0.549138	-0.895653
H120	H	1.682886	-0.049138	-0.395653
H121	H	1.288079	-0.523153	-0.777069
H122	H	1.788079	-0.023153	-0.277069
H123	H	1.220531	-0.591330	-0.780267
H124	H	1.720531	-0.091330	-0.280267
H125	H	1.272241	-0.649284	-0.887805
H126	H	1.772241	-0.149284	-0.387805
H127	H	1.339806	-0.581113	-0.884591
H128	H	1.839806	-0.081113	-0.384591
H129	H	1.332279	-0.644641	-0.819370
H130	H	1.832279	-0.144641	-0.319370
H131	H	1.049813	-0.916089	-0.462712
H132	H	1.549813	-0.416089	0.037288
C133	C	1.214441	-0.512837	-0.691082
C134	C	1.714441	-0.012837	-0.191082
C135	C	1.167401	-0.566295	-0.646568
C136	C	1.667401	-0.066295	-0.146568
C137	C	1.214871	-0.619753	-0.608071
C138	C	1.714871	-0.119753	-0.108071
H139	H	1.250185	-0.481056	-0.657530
H140	H	1.750185	0.018944	-0.157530
H141	H	1.242800	-0.544633	-0.728720
H142	H	1.742800	-0.044633	-0.228720
H143	H	1.139055	-0.534502	-0.608934
H144	H	1.639055	-0.034502	-0.108934
H145	H	1.131658	-0.598094	-0.680101
H146	H	1.631658	-0.098094	-0.180101
H147	H	1.243230	-0.651549	-0.645710
H148	H	1.743230	-0.151549	-0.145710
H149	H	1.250612	-0.587965	-0.574524
H150	H	1.750612	-0.087965	-0.074524
H151	H	1.182960	-0.656035	-0.577870
H152	H	1.682960	-0.156035	-0.077870
C153	C	0.661779	-0.290394	-0.287449
C154	C	1.161779	0.209606	0.212551
C155	C	0.612442	-0.337534	-0.239295
C156	C	1.112442	0.162466	0.260705
C157	C	0.573944	-0.284297	-0.186536
C158	C	1.073944	0.215703	0.313464
H159	H	0.631493	-0.254097	-0.315721
H160	H	1.131493	0.245903	0.184279
H161	H	0.699423	-0.258609	-0.256040
H162	H	1.199423	0.241391	0.243960
H163	H	0.574803	-0.369305	-0.270701
H164	H	1.074803	0.130695	0.229299
H165	H	0.642709	-0.373828	-0.211006
H166	H	1.142709	0.126172	0.288994
H167	H	0.611589	-0.252512	-0.155127
H168	H	1.111589	0.247488	0.344873
H169	H	0.543663	-0.248003	-0.214815
H170	H	1.043663	0.251997	0.285185
H171	H	0.540470	-0.316274	-0.153853
H172	H	1.040470	0.183726	0.346147
C173	C	0.832955	-0.290281	-0.287604
C174	C	1.332955	0.209719	0.212396
C175	C	0.912978	-0.301683	-0.298881
C176	C	1.412978	0.198317	0.201119
C177	C	0.956675	-0.248321	-0.246312
C178	C	1.456675	0.251679	0.253688
H179	H	0.819015	-0.302357	-0.235387
H180	H	1.319015	0.197643	0.264613
H181	H	0.822264	-0.234263	-0.296524
H182	H	1.322264	0.265737	0.203476
H183	H	0.923665	-0.357688	-0.289954
H184	H	1.423665	0.142312	0.210046
H185	H	0.926942	-0.289600	-0.351087
H186	H	1.426942	0.210400	0.148913
H187	H	0.945983	-0.192303	-0.255232
H188	H	1.445983	0.307697	0.244768
H189	H	0.942727	-0.260402	-0.194098
H190	H	1.442727	0.239598	0.305902
H191	H	1.010975	-0.256045	-0.253961
H192	H	1.510975	0.243955	0.246039
H193	H	1.180695	-0.886274	-0.332011
H194	H	1.680695	-0.386274	0.167989
H195	H	0.419412	-0.304761	-0.301864
H196	H	0.919412	0.195239	0.198136
H197	H	1.028839	-0.304762	-0.692364
H198	H	1.528839	0.195238	-0.192364
H199	H	1.201741	-0.498142	-1.103137
H200	H	1.701741	0.001858	-0.603137
H201	H	1.028861	-0.304734	-0.841081
H202	H	1.528861	0.195266	-0.341081
C203	C	1.015874	-0.290195	-0.933526
C204	C	1.515874	0.209805	-0.433526
C205	C	0.974158	-0.243495	-0.984744
C206	C	1.474158	0.256505	-0.484744
C207	C	0.926422	-0.190146	-0.941366
C208	C	1.426422	0.309854	-0.441366
H209	H	1.047566	-0.253810	-0.899819
H210	H	1.547566	0.246190	-0.399819
H211	H	0.980087	-0.322075	-0.903072
H212	H	1.480087	0.177925	-0.403072
H213	H	1.009941	-0.211616	-1.015184
H214	H	1.509941	0.288384	-0.515184
H215	H	0.942451	-0.279858	-1.018452
H216	H	1.442451	0.220142	-0.518452
H217	H	0.890634	-0.222026	-0.910912
H218	H	1.390634	0.277974	-0.410912
H219	H	0.958120	-0.153766	-0.907661
H220	H	1.458120	0.346234	-0.407661
H221	H	0.898107	-0.158459	-0.976111
H222	H	1.398107	0.341541	-0.476111
H223	H	0.558897	-0.498480	-0.492908
H224	H	1.058897	0.001520	0.007092
H225	H	0.663026	-0.498464	-0.492899
H226	H	1.163026	0.001536	0.007101
H227	H	0.410169	-0.498484	-0.492930
H228	H	0.910169	0.001516	0.007070
H229	H	0.568140	-0.304748	-0.301844
H230	H	1.068140	0.195252	0.198156
H231	H	1.028920	-0.304655	-1.093934
H232	H	1.528920	0.195345	-0.593934
