data_functionalizedCrystal
_audit_creation_method	'MofGen! by Chris Wilmer'
_symmetry_space_group_name_H-M	'P1'
_symmetry_Int_Tables_number	1
_symmetry_cell_setting	triclinic
loop_
_symmetry_equiv_pos_as_xyz
  x,y,z
_cell_length_a	12.645331
_cell_length_b	21.295418
_cell_length_c	12.645323
_cell_angle_alpha	90.031095
_cell_angle_beta	90.014068
_cell_angle_gamma	90.031874
loop_
_atom_site_label
_atom_site_type_symbol
_atom_site_fract_x
_atom_site_fract_y
_atom_site_fract_z
Zn1	Zn	-1.620613	0.250635	-0.599157
Zn2	Zn	-1.120613	0.750635	-0.099157
Zn3	Zn	-1.620445	0.355910	-0.421878
Zn4	Zn	-1.120445	0.855910	0.078122
Zn5	Zn	-1.443328	0.250655	-0.421928
Zn6	Zn	-0.943328	0.750655	0.078072
Zn7	Zn	-1.443260	0.355867	-0.599120
Zn8	Zn	-0.943260	0.855867	-0.099120
O9	O	-1.531911	0.303267	-0.510521
O10	O	-1.031911	0.803267	-0.010521
O11	O	-1.768938	0.264610	-0.575635
O12	O	-1.268938	0.764610	-0.075635
O13	O	-1.596908	0.341974	-0.273537
O14	O	-1.096908	0.841974	0.226463
O15	O	-1.466944	0.162563	-0.445474
O16	O	-0.966944	0.662563	0.054526
O17	O	-1.768815	0.341955	-0.445389
O18	O	-1.268815	0.841955	0.054611
O19	O	-1.597194	0.162549	-0.575684
O20	O	-1.097194	0.662549	-0.075684
O21	O	-1.466781	0.264643	-0.273574
O22	O	-0.966781	0.764643	0.226426
O23	O	-1.294971	0.264602	-0.445438
O24	O	-0.794971	0.764602	0.054562
O25	O	-1.466828	0.341882	-0.747472
O26	O	-0.966828	0.841882	-0.247472
O27	O	-1.294922	0.341901	-0.575620
O28	O	-0.794922	0.841901	-0.075620
O29	O	-1.597129	0.264568	-0.747499
O30	O	-1.097129	0.764568	-0.247499
O31	O	-1.596842	0.443994	-0.445353
O32	O	-1.096842	0.943994	0.054647
O33	O	-1.466665	0.443962	-0.575572
O34	O	-0.966665	0.943962	-0.075572
C35	C	-1.256482	0.303250	-0.510531
C36	C	-0.756482	0.803250	-0.010531
C37	C	-1.138652	0.303257	-0.510561
C38	C	-0.638652	0.803257	-0.010561
C39	C	-0.971092	0.352151	-0.592036
C40	C	-0.471092	0.852151	-0.092036
C41	C	-1.093652	0.351994	-0.592374
C42	C	-0.593652	0.851994	-0.092374
C43	C	-1.094205	0.236956	-0.541096
C44	C	-0.594205	0.736956	-0.041096
C45	C	-0.971607	0.237252	-0.541673
C46	C	-0.471607	0.737252	-0.041673
C47	C	-0.971398	0.320127	-0.398304
C48	C	-0.471398	0.820127	0.101696
C49	C	-1.094003	0.321579	-0.398905
C50	C	-0.594003	0.821579	0.101095
C51	C	-1.531757	0.466818	-0.510476
C52	C	-1.031757	0.966818	-0.010476
C53	C	-1.531788	0.536787	-0.510492
C54	C	-1.031788	1.036787	-0.010492
C55	C	-1.531990	0.303218	-0.787026
C56	C	-1.031990	0.803218	-0.287026
C57	C	-1.532023	0.303197	-0.904856
C58	C	-1.032023	0.803197	-0.404856
C59	C	-0.808417	0.303282	-0.510518
C60	C	-0.308417	0.803282	-0.010518
C61	C	-0.926247	0.303281	-0.510535
C62	C	-0.426247	0.803281	-0.010535
C63	C	-1.599750	1.036184	-0.578429
C64	C	-1.099750	1.536184	-0.078429
C65	C	-1.599729	0.970441	-0.578415
C66	C	-1.099729	1.470441	-0.078415
C67	C	-1.531956	0.937626	-0.510563
C68	C	-1.031956	1.437626	-0.010563
C69	C	-1.464218	0.970559	-0.442701
C70	C	-0.964218	1.470559	0.057299
C71	C	-1.464249	1.036300	-0.442710
C72	C	-0.964249	1.536300	0.057290
N73	N	-1.439119	0.834455	-0.502344
N74	N	-0.939119	1.334455	-0.002344
N75	N	-1.439093	0.772003	-0.502342
N76	N	-0.939093	1.272003	-0.002342
C77	C	-1.531863	0.739551	-0.510531
C78	C	-1.031863	1.239551	-0.010531
N79	N	-1.624662	0.771910	-0.518743
N80	N	-1.124662	1.271910	-0.018743
N81	N	-1.624686	0.834367	-0.518750
N82	N	-1.124686	1.334367	-0.018750
C83	C	-1.531917	0.866341	-0.510546
C84	C	-1.031917	1.366341	-0.010546
C85	C	-1.599579	0.635341	-0.578368
C86	C	-1.099579	1.135341	-0.078368
C87	C	-1.599560	0.569597	-0.578346
C88	C	-1.099560	1.069597	-0.078346
C89	C	-1.464040	0.569716	-0.442638
C90	C	-0.964040	1.069716	0.057362
C91	C	-1.464068	0.635458	-0.442654
C92	C	-0.964068	1.135458	0.057346
C93	C	-1.531837	0.668267	-0.510525
C94	C	-1.031837	1.168267	-0.010525
C95	C	-1.532056	1.139077	-0.510579
C96	C	-1.032056	1.639077	-0.010579
C97	C	-1.532017	1.069108	-0.510581
C98	C	-1.032017	1.569108	-0.010581
C99	C	-1.449798	0.351606	-1.072403
C100	C	-0.949798	0.851606	-0.572403
C101	C	-1.450013	0.351846	-0.949843
C102	C	-0.950013	0.851846	-0.449843
C103	C	-1.643714	0.321203	-0.949356
C104	C	-1.143714	0.821203	-0.449356
C105	C	-1.643263	0.321506	-1.071954
C106	C	-1.143263	0.821506	-0.571954
C107	C	-1.503613	0.236513	-1.072070
C108	C	-1.003613	0.736513	-0.572070
C109	C	-1.501121	0.236912	-0.949464
C110	C	-1.001121	0.736912	-0.449464
C111	C	-1.531895	0.303270	-0.235091
C112	C	-1.031895	0.803270	0.264909
C113	C	-1.532067	0.303113	-0.117261
C114	C	-1.032067	0.803113	0.382739
H115	H	-1.123701	0.401161	-0.573235
H116	H	-0.623701	0.901161	-0.073235
F117	F	-1.671713	0.670260	-0.650591
F118	F	-1.171713	1.170260	-0.150591
H119	H	-1.563534	0.200384	-1.101082
H120	H	-1.063534	0.700384	-0.601082
H121	H	-1.123355	0.199555	-0.483588
H122	H	-0.623355	0.699555	0.016412
F123	F	-1.474611	0.416374	-0.911507
F124	F	-0.974611	0.916374	-0.411507
H125	H	-1.706636	0.287720	-1.101629
H126	H	-1.206636	0.787720	-0.601629
H127	H	-1.654941	1.062892	-0.633687
H128	H	-1.154941	1.562892	-0.133687
H129	H	-0.940454	0.367649	-0.370554
H130	H	-0.440454	0.867649	0.129446
F131	F	-1.134035	0.278428	-0.315270
F132	F	-0.634035	0.778428	0.184730
H133	H	-0.941577	0.401479	-0.573111
H134	H	-0.441577	0.901479	-0.073111
H135	H	-1.418926	0.223334	-0.920380
H136	H	-0.918926	0.723334	-0.420380
F137	F	-1.341215	0.337018	-1.110936
F138	F	-0.841215	0.837018	-0.610936
F139	F	-1.134370	0.217938	-0.647173
F140	F	-0.634370	0.717938	-0.147173
F141	F	-1.671824	0.935393	-0.650631
F142	F	-1.171824	1.435393	-0.150631
H143	H	-1.468396	0.400671	-1.103210
H144	H	-0.968396	0.900671	-0.603210
H145	H	-1.408908	0.662266	-0.387408
H146	H	-0.908908	1.162266	0.112592
F147	F	-1.392093	0.935634	-0.370485
F148	F	-0.892093	1.435634	0.129515
F149	F	-0.930835	0.337778	-0.700097
F150	F	-0.430835	0.837778	-0.200097
F151	F	-1.131970	0.385353	-0.368809
F152	F	-0.631970	0.885353	0.131191
F153	F	-1.671661	0.534556	-0.650559
F154	F	-1.171661	1.034556	-0.150559
F155	F	-1.132025	0.337423	-0.701066
F156	F	-0.632025	0.837423	-0.201066
H157	H	-1.367189	0.340578	-0.919756
H158	H	-0.867189	0.840578	-0.419756
H159	H	-1.667385	0.370193	-1.100552
H160	H	-1.167385	0.870193	-0.600552
H161	H	-1.706653	0.287000	-0.920217
H162	H	-1.206653	0.787000	-0.420217
H163	H	-0.942398	0.284531	-0.337578
H164	H	-0.442398	0.784531	0.162422
F165	F	-1.391918	0.534796	-0.370416
F166	F	-0.891918	1.034796	0.129584
H167	H	-1.556666	0.198872	-0.918842
H168	H	-1.056666	0.698872	-0.418842
F169	F	-1.675787	0.384173	-0.909229
F170	F	-1.175787	0.884173	-0.409229
F171	F	-1.392154	1.071342	-0.370494
F172	F	-0.892154	1.571342	0.129506
F173	F	-0.934263	0.218578	-0.648914
F174	F	-0.434263	0.718578	-0.148914
H175	H	-1.423587	0.220100	-1.102990
H176	H	-0.923587	0.720100	-0.602990
H177	H	-0.941943	0.199536	-0.485034
H178	H	-0.441943	0.699536	0.014966
