data_functionalizedCrystal
_audit_creation_method	'MofGen! by Chris Wilmer'
_symmetry_space_group_name_H-M	'P1'
_symmetry_Int_Tables_number	1
_symmetry_cell_setting	triclinic
loop_
_symmetry_equiv_pos_as_xyz
  x,y,z
_cell_length_a	17.699083
_cell_length_b	17.699083
_cell_length_c	16.176319
_cell_angle_alpha	89.999648
_cell_angle_beta	90.001389
_cell_angle_gamma	96.716986
loop_
_atom_site_label
_atom_site_type_symbol
_atom_site_fract_x
_atom_site_fract_y
_atom_site_fract_z
O1	O	-1.004079	0.095713	-0.068619
O2	O	-0.783700	0.108166	-0.068644
O3	O	-0.900116	-0.008250	-0.068639
O4	O	-0.887663	0.212129	-0.068624
O5	O	-0.900100	-0.008257	0.068854
O6	O	-0.783684	0.108158	0.068849
O7	O	-1.004063	0.095706	0.068874
Cu8	Cu	-0.893872	0.101931	0.081416
Cu9	Cu	-0.893891	0.101940	-0.081186
O10	O	-0.887647	0.212121	0.068869
C11	C	-0.755495	0.107716	0.000099
C12	C	-0.671477	0.106377	0.000088
C13	C	-0.899662	-0.036451	0.000104
C14	C	-0.898323	-0.120469	0.000092
C15	C	-1.032268	0.096156	0.000129
C16	C	-1.116286	0.097494	0.000134
C17	C	-0.888102	0.240322	0.000124
C18	C	-0.889440	0.324340	0.000131
C19	C	-0.622856	0.174710	0.000093
C20	C	-0.543913	0.173448	0.000104
C21	C	-0.513592	0.103852	0.000104
C22	C	-0.562219	0.035513	0.000101
C23	C	-0.641161	0.036776	0.000097
C24	C	-0.243856	0.030418	0.000121
C25	C	-0.164908	0.029160	0.000124
C26	C	-0.146608	0.167090	0.000129
C27	C	-0.225550	0.168353	0.000124
C28	C	-0.274170	0.100015	0.000126
C29	C	-0.359769	0.101384	0.000116
C30	C	-0.427995	0.102481	0.000108
N31	N	-0.893864	0.101925	0.195781
C32	C	-0.821107	0.372961	0.000123
C33	C	-0.822369	0.451904	0.000113
C34	C	-0.891965	0.482225	0.000117
C35	C	-0.960304	0.433598	0.000123
C36	C	-0.959041	0.354656	0.000126
C37	C	-0.965399	0.751961	0.000107
C38	C	-0.966657	0.830909	0.000106
C39	C	-0.828727	0.849209	0.000094
C40	C	-0.827464	0.770267	0.000097
C41	C	-0.895803	0.721647	0.000098
C42	C	-0.894433	0.636048	0.000107
C43	C	-0.893336	0.567823	0.000115
N44	N	-0.893905	0.101941	-0.195551
C45	C	-0.945429	0.050397	0.239048
C46	C	-0.945432	0.050396	0.325595
C47	C	-0.893875	0.101927	0.368874
C48	C	-0.842305	0.153457	0.325601
C49	C	-0.842299	0.153454	0.239055
C50	C	-0.842331	0.153472	0.674629
C51	C	-0.842344	0.153473	0.761181
C52	C	-0.945465	0.050414	0.761168
C53	C	-0.945458	0.050410	0.674623
C54	C	-0.893886	0.101937	0.631358
C55	C	-0.893882	0.101937	0.537514
C56	C	-0.893883	0.101932	0.462716
H57	H	-0.647537	0.231384	0.000093
H58	H	-0.764433	0.348280	0.000129
H59	H	-0.766725	0.491489	0.000104
H60	H	-0.773083	0.888806	0.000090
Cl61	Cl	-0.777523	0.218259	0.815588
Cl62	Cl	-1.010256	-0.014383	0.379988
H63	H	-0.140225	-0.027517	0.000125
Cl64	Cl	-0.304969	-0.055494	0.000123
H65	H	-0.770792	0.745585	0.000098
Cl66	Cl	-0.777469	0.218232	0.184664
Cl67	Cl	-0.482792	0.259357	0.000105
Cl68	Cl	-1.054157	0.869025	0.000108
Cl69	Cl	-0.777503	0.218250	0.620245
Cl70	Cl	-0.524102	-0.051980	0.000106
H71	H	-1.014685	0.315069	0.000129
H72	H	-0.800323	0.195413	0.360844
Cl73	Cl	-1.047798	0.471715	0.000122
H74	H	-0.107012	0.222734	0.000131
H75	H	-0.250232	0.225025	0.000120
H76	H	-1.021045	0.712383	0.000113
Cl77	Cl	-0.702285	-0.049132	0.000094
H78	H	-0.987416	0.008438	0.203816
Cl79	Cl	-1.010277	-0.014371	0.620218
H80	H	-0.987456	0.008455	0.796404
