data_functionalizedCrystal
_audit_creation_method	'MofGen! by Chris Wilmer'
_symmetry_space_group_name_H-M	'P1'
_symmetry_Int_Tables_number	1
_symmetry_cell_setting	triclinic
loop_
_symmetry_equiv_pos_as_xyz
  x,y,z
_cell_length_a	12.759401
_cell_length_b	29.839131
_cell_length_c	12.759401
_cell_angle_alpha	90.015876
_cell_angle_beta	90.003120
_cell_angle_gamma	90.041581
loop_
_atom_site_label
_atom_site_type_symbol
_atom_site_fract_x
_atom_site_fract_y
_atom_site_fract_z
Zn1	Zn	1.605901	-0.178923	0.593935
Zn2	Zn	1.605760	-0.254032	0.418235
Zn3	Zn	1.430250	-0.178917	0.418274
Zn4	Zn	1.430109	-0.254026	0.593877
O5	O	1.518005	-0.216475	0.506080
O6	O	1.752903	-0.188891	0.570636
O7	O	1.582479	-0.244068	0.271220
O8	O	1.453668	-0.116051	0.441616
O9	O	1.752800	-0.244073	0.441550
O10	O	1.582718	-0.116055	0.570673
O11	O	1.453532	-0.188882	0.271248
O12	O	1.283210	-0.188876	0.441560
O13	O	1.453429	-0.244064	0.740905
O14	O	1.283107	-0.244058	0.570575
O15	O	1.582582	-0.188885	0.740948
O16	O	1.582342	-0.316899	0.441494
O17	O	1.453292	-0.316894	0.570537
C18	C	1.245038	-0.216466	0.506066
C19	C	1.128261	-0.216474	0.506085
C20	C	1.517815	-0.333197	0.506028
C21	C	1.517830	-0.383132	0.506041
C22	C	1.073373	-0.245253	0.573152
C23	C	0.963649	-0.245259	0.573163
C24	C	0.963711	-0.187704	0.439032
C25	C	1.073433	-0.187697	0.439027
C26	C	1.128201	-0.274030	0.640210
C27	C	1.073313	-0.302812	0.707281
C28	C	0.963589	-0.302818	0.707292
C29	C	0.908753	-0.274041	0.640233
C30	C	1.585324	-0.692765	0.438986
C31	C	1.585453	-0.880438	0.439027
O32	O	1.642688	-0.904693	0.381974
N33	N	1.518223	-0.903917	0.506159
C34	C	1.450960	-0.880475	0.573292
O35	O	1.393787	-0.904751	0.630401
C36	C	1.450837	-0.692802	0.573256
C37	C	1.518064	-0.669326	0.506111
C38	C	1.652546	-0.669288	0.371847
C39	C	1.652509	-0.622372	0.371834
C40	C	1.585249	-0.598934	0.438959
C41	C	1.518027	-0.622410	0.506097
C42	C	1.383580	-0.669361	0.640393
C43	C	1.383557	-0.622440	0.640379
C44	C	1.450784	-0.598964	0.573235
C45	C	1.450730	-0.552056	0.573209
N46	N	1.517960	-0.528577	0.506076
C47	C	1.585220	-0.552016	0.438951
C48	C	1.451029	-0.979005	0.573305
C49	C	1.451058	-1.025923	0.573313
C50	C	1.585552	-1.025883	0.439048
C51	C	1.585517	-0.978964	0.439036
C52	C	1.518259	-0.955526	0.506172
C53	C	1.585136	-0.453490	0.438927
C54	C	1.585090	-0.406570	0.438916
C55	C	1.450600	-0.406615	0.573184
C56	C	1.450642	-0.453530	0.573191
C57	C	1.517918	-0.476967	0.506059
O58	O	1.393534	-0.527771	0.630240
O59	O	1.642401	-0.527731	0.381866
C60	C	1.585361	-0.739680	0.438999
C61	C	1.518138	-0.763157	0.506138
C62	C	1.450879	-0.739718	0.573263
C63	C	1.518168	-0.810074	0.506146
C64	C	1.585427	-0.833513	0.439021
C65	C	1.652657	-0.810034	0.371888
C66	C	1.652620	-0.763119	0.371874
C67	C	1.383648	-0.763197	0.640396
C68	C	1.383690	-0.810112	0.640403
C69	C	1.450950	-0.833551	0.573278
C70	C	1.792038	-0.216483	0.506095
C71	C	1.908815	-0.216487	0.506102
C72	C	1.518005	-0.216474	0.780113
C73	C	1.518005	-0.216474	0.896890
C74	C	1.518224	-0.099296	0.506156
C75	C	1.518318	-0.049362	0.506188
C76	C	1.585250	-0.187749	0.951776
C77	C	1.585245	-0.187751	1.061500
C78	C	1.450749	-0.245207	1.061443
C79	C	1.450749	-0.245202	0.951721
C80	C	1.652506	-0.159021	0.896945
C81	C	1.719757	-0.130294	0.951831
C82	C	1.719753	-0.130295	1.061555
C83	C	1.652497	-0.159024	1.116393
C84	C	1.517998	-0.216484	1.233113
C85	C	1.518001	-0.216480	1.116336
H86	H	1.217544	-0.274029	0.640206
H87	H	1.639922	-0.472566	0.384264
C88	C	1.376787	-0.276810	1.121762
H89	H	1.386426	-0.272702	1.194969
H90	H	1.306206	-0.270235	1.103787
H91	H	1.392117	-0.306996	1.103753
H92	H	1.117967	-0.326238	0.761885
H93	H	1.118124	-0.164259	0.384423
C94	C	1.726532	-0.695063	0.297997
H95	H	1.766551	-0.674356	0.258012
H96	H	1.772297	-0.713343	0.338213
H97	H	1.686383	-0.713387	0.252180
C98	C	1.309740	-0.835934	0.714268
H99	H	1.319384	-0.867234	0.704667
H100	H	1.325061	-0.828221	0.784865
H101	H	1.239150	-0.828279	0.698829
H102	H	1.640260	-0.959852	0.384362
H103	H	0.918901	-0.326250	0.761913
H104	H	0.819408	-0.274045	0.640256
C105	C	1.793722	-0.098697	1.121927
H106	H	1.833780	-0.081591	1.073554
H107	H	1.753575	-0.079121	1.164744
H108	H	1.839467	-0.115890	1.164717
C109	C	0.903394	-0.156056	0.365267
H110	H	0.830187	-0.160186	0.374869
H111	H	0.921415	-0.125880	0.380769
H112	H	0.921360	-0.162586	0.294644
C113	C	1.376822	-0.276817	0.891342
H114	H	1.336789	-0.293936	0.939710
H115	H	1.331068	-0.259643	0.848531
H116	H	1.417018	-0.296387	0.848546
H117	H	1.707254	-0.603260	0.317162
H118	H	1.639834	-0.387457	0.384235
C119	C	1.659533	-1.051671	0.365210
H120	H	1.649920	-1.082975	0.374840
H121	H	1.644217	-1.044001	0.294602
H122	H	1.730112	-1.043953	0.380654
C123	C	1.309637	-0.695175	0.714261
H124	H	1.269592	-0.674490	0.754240
H125	H	1.263894	-0.713506	0.674053
H126	H	1.349812	-0.713450	0.760083
C127	C	1.652495	-0.159027	1.237088
H128	H	1.702179	-0.137806	1.261925
H129	H	1.584712	-0.151257	1.261915
H130	H	1.670616	-0.188021	1.261882
H131	H	1.707420	-0.829126	0.317229
C132	C	1.377102	-1.051742	0.647165
H133	H	1.337052	-1.031059	0.687145
H134	H	1.331365	-1.070072	0.606948
H135	H	1.417273	-1.070019	0.692987
C136	C	1.793729	-0.098694	0.891515
H137	H	1.784109	-0.102809	0.818307
H138	H	1.778414	-0.068508	0.909517
H139	H	1.864310	-0.105276	0.909499
H140	H	1.396256	-0.959925	0.627976
C141	C	1.652510	-0.159016	0.776253
H142	H	1.702189	-0.137791	0.751457
H143	H	1.670616	-0.188007	0.751409
H144	H	1.584724	-0.151238	0.751435
H145	H	1.395903	-0.472646	0.627869
C146	C	1.309572	-0.596661	0.714231
H147	H	1.269539	-0.617365	0.754212
H148	H	1.349712	-0.578333	0.760037
H149	H	1.263804	-0.578386	0.673998
C150	C	1.376625	-0.380826	0.647020
H151	H	1.386247	-0.349522	0.637399
H152	H	1.306048	-0.388545	0.631598
H153	H	1.391964	-0.388496	0.717629
H154	H	1.707363	-0.744007	0.317199
H155	H	1.328879	-0.744117	0.695058
