data_functionalizedCrystal
_audit_creation_method	'MofGen! by Chris Wilmer'
_symmetry_space_group_name_H-M	'P1'
_symmetry_Int_Tables_number	1
_symmetry_cell_setting	triclinic
loop_
_symmetry_equiv_pos_as_xyz
  x,y,z
_cell_length_a	16.120490
_cell_length_b	13.032721
_cell_length_c	13.032268
_cell_angle_alpha	103.289627
_cell_angle_beta	94.644414
_cell_angle_gamma	94.673435
loop_
_atom_site_label
_atom_site_type_symbol
_atom_site_fract_x
_atom_site_fract_y
_atom_site_fract_z
Zn1	Zn	1.140844	-0.582304	-0.737171
Zn2	Zn	1.140754	-0.737382	-0.582112
Zn3	Zn	1.023440	-0.551234	-0.551052
Zn4	Zn	0.983450	-0.748380	-0.748214
O5	O	1.072122	-0.654825	-0.654637
O6	O	1.255798	-0.611275	-0.724979
O7	O	1.141891	-0.695083	-0.430586
O8	O	1.055788	-0.407949	-0.558121
O9	O	1.255732	-0.725210	-0.611058
O10	O	1.142044	-0.430776	-0.694862
O11	O	1.055701	-0.558322	-0.407767
O12	O	0.903169	-0.568987	-0.568829
O13	O	0.987630	-0.743956	-0.894155
O14	O	0.873789	-0.713829	-0.713683
O15	O	1.103267	-0.621940	-0.886041
O16	O	1.103114	-0.886248	-0.621766
O17	O	0.987543	-0.894328	-0.743800
C18	C	1.040999	-0.928513	-0.687377
C19	C	1.027756	-1.045608	-0.701423
C20	C	0.858669	-0.639231	-0.639085
C21	C	0.767347	-0.632588	-0.632459
C22	C	1.079072	-1.093789	-0.647357
C23	C	1.065386	-1.214812	-0.661873
C24	C	0.544932	-0.689275	-0.689005
C25	C	0.600144	-0.620469	-0.620362
C26	C	0.693184	-0.627214	-0.627095
C27	C	0.451883	-0.682532	-0.682274
C28	C	1.286408	-0.670481	-0.670251
C29	C	1.377724	-0.677153	-0.676905
C30	C	1.040998	-0.687641	-0.929387
C31	C	1.027734	-0.701624	-1.046469
C32	C	1.103386	-0.380073	-0.621795
C33	C	1.116709	-0.262989	-0.607799
C34	C	1.079036	-0.647488	-1.094654
C35	C	1.065329	-0.661940	-1.215664
C36	C	1.103181	-0.622065	-0.380951
C37	C	1.116637	-0.607796	-0.263845
H38	H	1.133142	-1.045444	-0.590325
H39	H	0.567538	-0.753244	-0.752823
O40	O	1.143448	-0.579358	-1.036869
C41	C	1.111575	-0.500343	-0.961707
H42	H	1.046926	-0.530999	-0.945241
H43	H	1.155350	-0.479498	-0.885051
H44	H	1.106675	-0.426638	-0.994049
H45	H	1.170783	-1.214647	-0.550764
H46	H	0.973692	-1.093957	-0.758463
H47	H	1.011252	-0.718984	-1.263994
O48	O	1.181237	-0.539803	-1.206318
C49	C	1.257493	-0.571990	-1.241808
H50	H	1.245613	-0.622080	-1.326679
H51	H	1.302570	-0.499086	-1.239044
H52	H	1.285959	-0.620829	-1.188401
O53	O	1.000899	-1.272630	-0.729846
C54	C	1.001599	-1.380596	-0.729224
H55	H	1.036087	-1.387779	-0.651701
H56	H	0.934543	-1.418908	-0.736820
H57	H	1.034730	-1.422404	-0.798645
O58	O	0.963329	-0.769814	-1.104190
C59	C	0.995206	-0.848796	-1.179385
H60	H	1.062908	-0.856085	-1.151657
H61	H	0.956118	-0.927854	-1.188265
H62	H	0.992366	-0.826317	-1.259034
H63	H	0.577537	-0.556496	-0.556539
