data_functionalizedCrystal
_audit_creation_method	'MofGen! by Chris Wilmer'
_symmetry_space_group_name_H-M	'P1'
_symmetry_Int_Tables_number	1
_symmetry_cell_setting	triclinic
loop_
_symmetry_equiv_pos_as_xyz
  x,y,z
_cell_length_a	9.065215
_cell_length_b	16.098524
_cell_length_c	17.019427
_cell_angle_alpha	90.801766
_cell_angle_beta	95.792173
_cell_angle_gamma	93.027495
loop_
_atom_site_label
_atom_site_type_symbol
_atom_site_fract_x
_atom_site_fract_y
_atom_site_fract_z
O1	O	1.962450	0.060766	-0.118448
O2	O	1.532851	0.060093	-0.127906
O3	O	1.760310	0.068613	-0.008811
O4	O	1.734991	0.052246	-0.237544
O5	O	1.748564	-0.069445	-0.002447
O6	O	1.521105	-0.077965	-0.121543
O7	O	1.950703	-0.077292	-0.112085
Zn8	Zn	1.734039	-0.099548	-0.115803
Zn9	Zn	1.749516	0.082349	-0.124188
O10	O	1.723244	-0.085812	-0.231180
C11	C	1.472022	-0.008871	-0.123816
C12	C	1.308269	-0.008675	-0.121100
N13	N	1.723488	-0.223688	-0.110081
C14	C	1.808880	-0.270587	-0.156429
C15	C	1.801518	-0.357490	-0.152421
C16	C	1.708756	-0.397492	-0.102068
C17	C	1.623361	-0.350587	-0.055715
C18	C	1.630731	-0.263686	-0.059719
C19	C	1.682054	-0.659704	-0.087555
C20	C	1.674687	-0.746612	-0.083555
C21	C	1.852847	-0.753509	-0.180261
C22	C	1.860202	-0.666606	-0.184265
C23	C	1.774813	-0.619708	-0.137908
C24	C	1.701226	-0.486320	-0.097972
C25	C	1.782352	-0.530881	-0.142001
C26	C	2.011533	-0.008327	-0.116175
C27	C	2.175287	-0.008517	-0.118891
C28	C	1.753702	0.001682	0.023669
C29	C	1.751493	0.007934	0.110968
N30	N	1.760079	0.206489	-0.129904
C31	C	1.739463	0.047159	0.604543
C32	C	1.741523	0.041268	0.522516
C33	C	1.736138	-0.036934	0.484987
C34	C	1.728708	-0.109248	0.529491
C35	C	1.726659	-0.103356	0.611517
C36	C	1.742014	-0.058489	0.237497
C37	C	1.744059	-0.064375	0.155465
C38	C	1.756877	0.086141	0.148496
C39	C	1.754818	0.092026	0.230524
C40	C	1.747396	0.019712	0.275020
C41	C	1.738239	-0.042957	0.401143
C42	C	1.745306	0.025736	0.358864
C43	C	1.729845	-0.018886	0.736340
C44	C	1.732029	-0.025150	0.649040
H45	H	1.884408	-0.238024	-0.197437
N46	N	1.944972	-0.804083	-0.230247
H47	H	1.916699	-0.793039	-0.287932
H48	H	1.926205	-0.865186	-0.220007
H49	H	1.871057	-0.395671	-0.190162
N50	N	1.760827	0.176398	0.270964
H51	H	1.672615	0.207931	0.249462
H52	H	1.855542	0.208517	0.260808
H53	H	1.743834	0.110839	0.635092
H54	H	1.724333	-0.172921	0.498929
H55	H	1.762920	0.145015	0.112259
H56	H	1.720605	-0.162238	0.647745
H57	H	1.735972	-0.117372	0.273717
N58	N	1.960268	-0.623461	-0.238566
H59	H	2.013255	-0.666359	-0.267317
H60	H	2.035711	-0.584990	-0.206474
N61	N	1.589960	-0.609128	-0.037558
H62	H	1.530077	-0.647659	-0.005055
H63	H	1.520625	-0.575489	-0.072960
H64	H	1.857884	-0.498307	-0.182995
H65	H	1.599141	-0.779179	-0.042552
N66	N	1.523320	-0.393727	-0.001398
H67	H	1.531604	-0.455895	-0.005895
H68	H	1.417196	-0.379598	-0.016833
N69	N	1.538639	-0.213097	-0.009726
H70	H	1.478754	-0.251624	0.022780
H71	H	1.469304	-0.179458	-0.045128
N72	N	1.601164	-0.529478	-0.043677
H73	H	1.494991	-0.515420	-0.059090
H74	H	1.632118	-0.510267	0.012599
N75	N	1.749546	0.119258	0.474522
H76	H	1.752637	0.169691	0.510743
H77	H	1.659233	0.119684	0.434620
N78	N	1.738240	-0.148725	0.114984
H79	H	1.733227	-0.193642	0.155618
H80	H	1.830249	-0.154040	0.086812
H81	H	1.749698	0.089407	0.389424
N82	N	1.732432	-0.127297	0.360656
H83	H	1.641558	-0.133495	0.321061
H84	H	1.727465	-0.172169	0.401335
