data_functionalizedCrystal
_audit_creation_method	'MofGen! by Chris Wilmer'
_symmetry_space_group_name_H-M	'P1'
_symmetry_Int_Tables_number	1
_symmetry_cell_setting	triclinic
loop_
_symmetry_equiv_pos_as_xyz
  x,y,z
_cell_length_a	10.685661
_cell_length_b	16.959454
_cell_length_c	10.686551
_cell_angle_alpha	94.403406
_cell_angle_beta	80.927378
_cell_angle_gamma	94.355536
loop_
_atom_site_label
_atom_site_type_symbol
_atom_site_fract_x
_atom_site_fract_y
_atom_site_fract_z
Zn1	Zn	1.995638	0.368938	-0.866188
Zn2	Zn	1.979184	0.510552	-0.653934
Zn3	Zn	1.767073	0.368974	-0.637713
Zn4	Zn	1.783319	0.491654	-0.849895
O5	O	1.881303	0.435029	-0.751932
O6	O	2.171081	0.395617	-0.851639
O7	O	1.937362	0.499696	-0.474154
O8	O	1.797479	0.258361	-0.668051
O9	O	2.158993	0.499661	-0.695697
O10	O	1.965405	0.258334	-0.835910
O11	O	1.781525	0.395679	-0.462236
O12	O	1.591602	0.377354	-0.652252
O13	O	1.825169	0.467451	-1.029685
O14	O	1.603538	0.467486	-0.808142
O15	O	1.981158	0.377292	-1.041655
O16	O	1.953116	0.618654	-0.679898
O17	O	1.809215	0.604769	-0.823870
C18	C	1.551514	0.420374	-0.726670
C19	C	1.410431	0.414121	-0.715892
C20	C	1.881179	0.640391	-0.751907
C21	C	1.881246	0.728249	-0.751947
C22	C	1.806439	1.092531	-0.826913
C23	C	1.956427	1.106929	-0.677136
C24	C	1.956389	1.024382	-0.677119
C25	C	1.881373	0.975905	-0.751999
C26	C	1.806395	1.009976	-0.826895
C27	C	2.031355	0.990305	-0.602214
C28	C	2.031318	0.907753	-0.602193
C29	C	1.956308	0.859275	-0.677081
C30	C	1.881329	0.893351	-0.751981
C31	C	1.806312	0.844874	-0.826861
C32	C	1.731339	0.878948	-0.901770
C33	C	1.731385	0.961498	-0.901783
C34	C	1.956262	0.776725	-0.677068
C35	C	1.806268	0.762319	-0.826844
C36	C	2.212381	0.449743	-0.777295
C37	C	2.353466	0.456013	-0.788102
C38	C	1.906811	0.420260	-1.083014
C39	C	1.917681	0.413966	-1.224102
C40	C	1.881445	1.228865	-0.751994
C41	C	1.881455	1.141007	-0.752033
C42	C	1.855968	0.449688	-0.422144
C43	C	1.845345	0.455770	-0.281076
H44	H	1.745186	0.722854	-0.887826
H45	H	1.412630	0.496656	-0.858178
H46	H	1.351261	0.373468	-0.645824
C47	C	1.664682	0.746007	-0.968232
C48	C	1.648884	0.825656	-0.984078
H49	H	1.613783	0.713107	-1.019051
H50	H	1.639590	0.735494	-0.881517
H51	H	1.751386	0.735400	-0.993403
H52	H	1.562180	0.836265	-0.958897
H53	H	1.673968	0.836173	-1.070811
C54	C	2.077255	0.321740	-1.223386
C55	C	2.012523	0.359146	-1.303959
H56	H	2.135810	0.287901	-1.272690
H57	H	2.018036	0.291328	-1.167457
H58	H	2.121838	0.360624	-1.175383
H59	H	1.967933	0.320262	-1.351956
H60	H	2.071752	0.389559	-1.359911
C61	C	1.627254	0.486545	-1.223560
C62	C	1.750514	0.510595	-1.201232
H63	H	1.568714	0.520398	-1.174269
H64	H	1.607070	0.433578	-1.200473
H65	H	1.622382	0.489363	-1.311083
H66	H	1.755389	0.507772	-1.113711
H67	H	1.770704	0.563576	-1.224312
H68	H	1.670344	0.989248	-0.962768
C69	C	1.739901	1.212674	-0.893455
C70	C	1.724026	1.129980	-0.909245
H71	H	1.689014	1.235792	-0.944279
H72	H	1.826604	1.229109	-0.918642
H73	H	1.714827	1.229203	-0.806736
H74	H	1.749108	1.113451	-0.995963
H75	H	1.637304	1.113538	-0.884066
H76	H	2.092419	1.029780	-0.541241
C77	C	2.022999	1.239864	-0.610575
C78	C	2.038822	1.160212	-0.594771
H79	H	2.073859	1.272760	-0.559712
H80	H	1.936294	1.250452	-0.585445
H81	H	2.048135	1.250402	-0.697286
H82	H	2.013678	1.149673	-0.508061
H83	H	2.125546	1.149620	-0.619894
C84	C	2.179594	0.930287	-0.454155
C85	C	2.113740	0.870303	-0.519871
H86	H	2.230486	0.907164	-0.403343
H87	H	2.120602	0.962224	-0.401324
H88	H	2.232373	0.962144	-0.513235
H89	H	2.060954	0.838449	-0.460790
H90	H	2.172739	0.838352	-0.572706
H91	H	2.017298	0.748986	-0.616072
