data_functionalizedCrystal
_audit_creation_method	'MofGen! by Chris Wilmer'
_symmetry_space_group_name_H-M	'P1'
_symmetry_Int_Tables_number	1
_symmetry_cell_setting	triclinic
loop_
_symmetry_equiv_pos_as_xyz
  x,y,z
_cell_length_a	13.596369
_cell_length_b	14.853567
_cell_length_c	14.853567
_cell_angle_alpha	96.365070
_cell_angle_beta	89.997779
_cell_angle_gamma	89.997993
loop_
_atom_site_label
_atom_site_type_symbol
_atom_site_fract_x
_atom_site_fract_y
_atom_site_fract_z
O1	O	-0.081715	-1.196360	0.117706
O2	O	-0.081731	-0.933900	0.131728
O3	O	-0.081726	-1.072141	-0.006513
O4	O	-0.081720	-1.058119	0.255947
O5	O	0.081857	-1.072139	-0.006521
O6	O	0.081852	-0.933898	0.131719
O7	O	0.081868	-1.196358	0.117698
Zn8	Zn	0.107832	-1.065128	0.124707
Zn9	Zn	-0.107695	-1.065131	0.124718
O10	O	0.081862	-1.058117	0.255938
C11	C	0.000058	-0.900311	0.131088
C12	C	0.000052	-0.800227	0.129184
N13	N	-0.254787	-1.065133	0.124720
C14	C	0.000063	-1.071504	-0.040106
C15	C	0.000054	-1.069601	-0.140189
C16	C	-0.656078	-1.065128	0.124710
C17	C	-0.544427	-1.065127	0.124715
C18	C	-0.455436	-1.065130	0.124714
C19	C	-0.343778	-1.065130	0.124721
N20	N	0.254924	-1.065132	0.124699
C21	C	0.000076	-1.229947	0.118337
C22	C	0.000076	-1.330031	0.120241
C23	C	0.000072	-0.387693	0.039019
C24	C	0.000074	-0.366412	0.203251
C25	C	0.000071	-0.460446	0.205041
C26	C	0.000067	-0.518108	0.123819
C27	C	0.000066	-0.481736	0.040806
C28	C	0.000062	-0.496825	0.288053
C29	C	0.000058	-0.590864	0.289846
C30	C	0.000061	-0.648528	0.208623
C31	C	0.000061	-0.612150	0.125607
C32	C	0.000057	-0.669812	0.044384
C33	C	0.000064	-0.633437	-0.038633
C34	C	0.000069	-0.539399	-0.040417
C35	C	0.000056	-0.742565	0.210407
C36	C	0.000051	-0.763855	0.046172
C37	C	0.000068	-0.979435	-0.552723
C38	C	0.000077	-1.143668	-0.574004
C39	C	0.000072	-1.145458	-0.479971
C40	C	0.000066	-1.064235	-0.422309
C41	C	0.000065	-0.981223	-0.458680
C42	C	0.000082	-1.228469	-0.443591
C43	C	0.000078	-1.230262	-0.349552
C44	C	0.000064	-1.149039	-0.291889
C45	C	0.000063	-1.066023	-0.328266
C46	C	0.000056	-0.984800	-0.270604
C47	C	0.000048	-0.901783	-0.306979
C48	C	0.000052	-0.899999	-0.401017
C49	C	0.000061	-1.150823	-0.197851
C50	C	0.000054	-0.986588	-0.176561
C51	C	0.000072	-1.058754	0.289531
C52	C	0.000074	-1.060657	0.389615
H53	H	0.000051	-0.810798	-0.019971
Br54	Br	0.000075	-0.490027	-0.153073
H55	H	0.000052	-0.772178	0.277998
Br56	Br	0.000049	-0.640223	0.402509
Br57	Br	0.000033	-0.787343	-0.450389
H58	H	0.000082	-0.358072	-0.028572
Br59	Br	0.000047	-0.711703	-0.148859
H60	H	0.000044	-0.920445	-0.129618
H61	H	0.000056	-0.449870	0.354180
Br62	Br	0.000052	-0.791557	-0.228714
Br63	Br	0.000062	-0.288157	0.313477
Br64	Br	0.000096	-1.263479	-0.148487
Br65	Br	0.000042	-0.866774	-0.602086
Br66	Br	0.000118	-1.338693	-0.521849
Br67	Br	0.000075	-1.342925	-0.300193
H68	H	0.000090	-1.209795	-0.620958
