data_functionalizedCrystal
_audit_creation_method	'MofGen! by Chris Wilmer'
_symmetry_space_group_name_H-M	'P1'
_symmetry_Int_Tables_number	1
_symmetry_cell_setting	triclinic
loop_
_symmetry_equiv_pos_as_xyz
  x,y,z
_cell_length_a	13.033808
_cell_length_b	13.032721
_cell_length_c	17.077396
_cell_angle_alpha	97.153695
_cell_angle_beta	97.155001
_cell_angle_gamma	103.361820
loop_
_atom_site_label
_atom_site_type_symbol
_atom_site_fract_x
_atom_site_fract_y
_atom_site_fract_z
Zn1	Zn	1.570077	-0.216338	-0.314895
Zn2	Zn	2.070077	0.283662	0.185105
Zn3	Zn	1.547397	-0.393989	-0.202734
Zn4	Zn	2.047397	0.106011	0.297266
Zn5	Zn	1.392456	-0.238966	-0.202723
Zn6	Zn	1.892456	0.261034	0.297277
Zn7	Zn	1.369871	-0.416506	-0.353018
Zn8	Zn	1.869871	0.083494	0.146982
O9	O	1.469950	-0.316450	-0.268342
O10	O	1.969950	0.183550	0.231658
O11	O	1.715698	-0.221010	-0.284066
O12	O	2.215698	0.278990	0.215934
O13	O	1.526804	-0.373471	-0.092893
O14	O	2.026804	0.126529	0.407107
O15	O	1.434961	-0.087316	-0.201644
O16	O	1.934961	0.412684	0.298356
O17	O	1.699036	-0.351529	-0.201662
O18	O	2.199036	0.148471	0.298338
O19	O	1.565458	-0.070691	-0.284056
O20	O	2.065458	0.429309	0.215944
O21	O	1.412969	-0.259577	-0.092886
O22	O	1.912969	0.240423	0.407114
O23	O	1.240830	-0.281411	-0.238610
O24	O	1.740830	0.218589	0.261390
O25	O	1.396469	-0.389907	-0.457799
O26	O	1.896469	0.110093	0.042201
O27	O	1.224237	-0.411849	-0.349031
O28	O	1.724237	0.088151	0.150969
O29	O	1.543559	-0.242845	-0.429791
O30	O	2.043559	0.257155	0.070209
O31	O	1.504905	-0.545624	-0.238628
O32	O	2.004905	-0.045624	0.261372
O33	O	1.374478	-0.562168	-0.349041
O34	O	1.874478	-0.062168	0.150959
C35	C	1.193995	-0.351529	-0.297957
C36	C	1.693995	0.148471	0.202043
C37	C	1.075938	-0.366562	-0.310647
C38	C	1.575938	0.133438	0.189353
C39	C	0.909480	-0.324159	-0.274852
C40	C	1.409480	0.175841	0.225148
C41	C	1.031499	-0.308623	-0.261733
C42	C	1.531499	0.191377	0.238267
C43	C	1.434808	-0.592435	-0.297987
C44	C	1.934808	-0.092435	0.202013
C45	C	1.419872	-0.710490	-0.310684
C46	C	1.919872	-0.210490	0.189316
C47	C	1.477802	-0.754896	-0.261745
C48	C	1.977802	-0.254896	0.238255
C49	C	1.462366	-0.876912	-0.274867
C50	C	1.962366	-0.376912	0.225133
C51	C	1.746982	-0.281234	-0.238613
C52	C	2.246982	0.218766	0.261387
C53	C	1.865037	-0.266227	-0.225944
C54	C	2.365037	0.233773	0.274056
C55	C	1.470024	-0.316363	-0.473071
C56	C	1.970024	0.183637	0.026929
C57	C	1.470056	-0.316327	-0.560315
C58	C	1.970056	0.183673	-0.060315
C59	C	1.505258	-0.039383	-0.238596
C60	C	2.005258	0.460617	0.261404
C61	C	1.520305	0.078686	-0.225921
C62	C	2.020305	0.578686	0.274079
C63	C	1.546649	-0.239745	-0.586721
C64	C	2.046649	0.260255	-0.086721
C65	C	1.546666	-0.239708	-0.668697
C66	C	2.046666	0.260292	-0.168697
C67	C	1.470094	-0.316258	-0.724264
C68	C	1.970094	0.183742	-0.224264
C69	C	1.393494	-0.392844	-0.697853
C70	C	1.893494	0.107156	-0.197853
C71	C	1.393473	-0.392875	-0.615879
C72	C	1.893473	0.107125	-0.115879
C73	C	1.393545	-0.392774	-0.868712
C74	C	1.893545	0.107226	-0.368712
C75	C	1.393566	-0.392744	-0.950691
C76	C	1.893566	0.107256	-0.450691
C77	C	1.546738	-0.239607	-0.921529
C78	C	2.046738	0.260393	-0.421529
C79	C	1.546717	-0.239639	-0.839555
C80	C	2.046717	0.260361	-0.339555
C81	C	1.470117	-0.316226	-0.813150
C82	C	1.970117	0.183774	-0.313150
C83	C	1.469947	-0.316452	-0.064395
C84	C	1.969947	0.183548	0.435605
C85	C	1.470159	-0.316163	0.022902
C86	C	1.970159	0.183837	0.522902
H87	H	1.023657	-0.427668	-0.362234
H88	H	1.523657	0.072332	0.137766
H89	H	1.538832	-0.702583	-0.210133
H90	H	2.038832	-0.202583	0.289867
H91	H	1.609038	-0.177350	-0.690192
H92	H	2.109038	0.322650	-0.190192
H93	H	0.917322	-0.205132	-0.174357
H94	H	1.417322	0.294868	0.325643
H95	H	1.609074	-0.177310	-0.794313
H96	H	2.109074	0.322690	-0.294313
H97	H	1.331154	-0.455125	-0.847216
H98	H	1.831154	0.044875	-0.347216
H99	H	0.857194	-0.385263	-0.326433
H100	H	1.357194	0.114737	0.173567
H101	H	1.609006	-0.177412	-0.541482
H102	H	2.109006	0.322588	-0.041482
H103	H	1.331144	-0.455169	-0.743103
H104	H	1.831144	0.044831	-0.243103
H105	H	1.083780	-0.247523	-0.210143
H106	H	1.583780	0.252477	0.289857
H107	H	1.401341	-0.929223	-0.326487
H108	H	1.901341	-0.429223	0.173513
H109	H	1.358851	-0.762805	-0.362301
H110	H	1.858851	-0.262805	0.137699
H111	H	1.331093	-0.455226	-0.594381
H112	H	1.831093	0.044774	-0.094381
H113	H	1.581338	-0.869003	-0.174305
H114	H	2.081338	-0.369003	0.325695
H115	H	1.609107	-0.177246	-0.943032
H116	H	2.109107	0.322754	-0.443032
H117	H	1.331213	-0.455076	-0.995934
H118	H	1.831213	0.044924	-0.495934
