data_functionalizedCrystal
_audit_creation_method	'MofGen! by Chris Wilmer'
_symmetry_space_group_name_H-M	'P1'
_symmetry_Int_Tables_number	1
_symmetry_cell_setting	triclinic
loop_
_symmetry_equiv_pos_as_xyz
  x,y,z
_cell_length_a	14.044220
_cell_length_b	15.944551
_cell_length_c	12.503572
_cell_angle_alpha	93.522593
_cell_angle_beta	86.164750
_cell_angle_gamma	88.343808
loop_
_atom_site_label
_atom_site_type_symbol
_atom_site_fract_x
_atom_site_fract_y
_atom_site_fract_z
O1	O	1.263178	0.198062	-0.089210
O2	O	1.763178	0.698062	0.410790
O3	O	0.987210	0.190753	-0.089237
O4	O	1.487210	0.690753	0.410763
O5	O	1.132730	0.072697	-0.089213
O6	O	1.632730	0.572697	0.410787
O7	O	1.117659	0.316117	-0.089234
O8	O	1.617659	0.816117	0.410766
O9	O	1.121786	0.081592	0.089427
O10	O	1.621786	0.581592	0.589427
O11	O	0.976267	0.199647	0.089403
O12	O	1.476267	0.699647	0.589403
O13	O	1.252235	0.206956	0.089430
O14	O	1.752235	0.706956	0.589430
Cu15	Cu	1.113251	0.204114	0.105728
Cu16	Cu	1.613251	0.704114	0.605728
Cu17	Cu	1.126194	0.193595	-0.105535
Cu18	Cu	1.626194	0.693595	0.394465
O19	O	1.106715	0.325012	0.089406
O20	O	1.606715	0.825012	0.589406
C21	C	0.946424	0.192001	0.000079
C22	C	1.446424	0.692001	0.500079
C23	C	0.841198	0.182459	0.000069
C24	C	1.341198	0.682459	0.500069
C25	C	0.648534	0.165017	0.000092
C26	C	1.148534	0.665017	0.500092
C27	C	0.590906	0.232688	0.000091
C28	C	1.090906	0.732688	0.500091
C29	C	0.483701	0.222983	0.000104
C30	C	0.983701	0.722983	0.500104
C31	C	0.755749	0.174721	0.000079
C32	C	1.255749	0.674721	0.500079
C33	C	1.126632	0.045804	0.000107
C34	C	1.626632	0.545804	0.500107
C35	C	1.124756	-0.047583	0.000107
C36	C	1.624756	0.452417	0.500107
C37	C	1.030073	-0.269530	0.000083
C38	C	1.530073	0.230470	0.500083
C39	C	1.068645	-0.322870	0.088168
C40	C	1.568645	0.177130	0.588168
C41	C	1.121363	-0.218563	0.000099
C42	C	1.621363	0.281437	0.500099
C43	C	1.079457	-0.331621	-0.087957
C44	C	1.579457	0.168379	0.412043
C45	C	1.118079	-0.383722	0.000086
C46	C	1.618079	0.116278	0.500086
C47	C	1.159956	-0.270669	0.088256
C48	C	1.659956	0.229331	0.588256
C49	C	1.170759	-0.279418	-0.087948
C50	C	1.670759	0.220582	0.412052
C51	C	1.209396	-0.332734	0.000158
C52	C	1.709396	0.167266	0.500158
C53	C	1.123252	-0.123419	0.000107
C54	C	1.623252	0.376581	0.500107
C55	C	1.116197	-0.478865	0.000085
C56	C	1.616197	0.021135	0.500085
C57	C	1.293021	0.205708	0.000111
C58	C	1.793021	0.705708	0.500111
C59	C	1.398247	0.215249	0.000114
C60	C	1.898247	0.715249	0.500114
C61	C	1.112813	0.351905	0.000083
C62	C	1.612813	0.851905	0.500083
C63	C	1.114689	0.445291	0.000076
C64	C	1.614689	0.945291	0.500076
N65	N	1.104155	0.211512	0.254318
N66	N	1.604155	0.711512	0.754318
N67	N	1.135297	0.186191	-0.254126
N68	N	1.635297	0.686191	0.245874
C69	C	1.090774	0.222403	0.473431
C70	C	1.590774	0.722403	0.973431
C71	C	1.148675	0.175303	0.526768
C72	C	1.648675	0.675303	1.026768
C73	C	1.141230	0.181362	0.648690
C74	C	1.641230	0.681362	1.148690
C75	C	1.098218	0.216344	0.351498
C76	C	1.598218	0.716344	0.851498
H77	H	0.617360	0.099799	0.000104
H78	H	1.117360	0.599799	0.500104
H79	H	0.954293	-0.241893	0.000164
H80	H	1.454293	0.258107	0.500164
H81	H	1.035617	0.267275	0.519330
H82	H	1.535617	0.767275	1.019330
Cl83	Cl	1.026861	-0.372829	-0.202923
Cl84	Cl	1.526861	0.127171	0.297077
Cl85	Cl	1.001991	-0.352656	0.203131
Cl86	Cl	1.501991	0.147344	0.703131
H87	H	0.622081	0.297911	0.000080
H88	H	1.122081	0.797911	0.500080
H89	H	1.285235	-0.360211	0.000215
H90	H	1.785235	0.139789	0.500215
Cl91	Cl	1.212472	-0.229620	0.203356
Cl92	Cl	1.712472	0.270380	0.703356
Cl93	Cl	1.237367	-0.249599	-0.202917
Cl94	Cl	1.737367	0.250401	0.297083
Cl95	Cl	1.234204	0.106368	0.455902
Cl96	Cl	1.734204	0.606368	0.955902
