data_functionalizedCrystal
_audit_creation_method	'MofGen! by Chris Wilmer'
_symmetry_space_group_name_H-M	'P1'
_symmetry_Int_Tables_number	1
_symmetry_cell_setting	triclinic
loop_
_symmetry_equiv_pos_as_xyz
  x,y,z
_cell_length_a	21.295417
_cell_length_b	18.215407
_cell_length_c	21.295411
_cell_angle_alpha	90.024685
_cell_angle_beta	89.978356
_cell_angle_gamma	89.969045
loop_
_atom_site_label
_atom_site_type_symbol
_atom_site_fract_x
_atom_site_fract_y
_atom_site_fract_z
Zn1	Zn	-0.250673	-1.125078	-0.355914
Zn2	Zn	0.249327	-0.625078	0.144086
Zn3	Zn	-0.355925	-1.124964	-0.250639
Zn4	Zn	0.144075	-0.624964	0.249361
Zn5	Zn	-0.250675	-1.002001	-0.250658
Zn6	Zn	0.249325	-0.502001	0.249342
Zn7	Zn	-0.355910	-1.001965	-0.355870
Zn8	Zn	0.144090	-0.501965	0.144130
O9	O	-0.303296	-1.063502	-0.303270
O10	O	0.196704	-0.563502	0.196730
O11	O	-0.264641	-1.228048	-0.341959
O12	O	0.235359	-0.728048	0.158041
O13	O	-0.341971	-1.108620	-0.162552
O14	O	0.158029	-0.608620	0.337448
O15	O	-0.162585	-1.018390	-0.264647
O16	O	0.337415	-0.518390	0.235353
O17	O	-0.341969	-1.227964	-0.264614
O18	O	0.158031	-0.727964	0.235386
O19	O	-0.162584	-1.108815	-0.341977
O20	O	0.337416	-0.608815	0.158023
O21	O	-0.264644	-1.018279	-0.162566
O22	O	0.235356	-0.518279	0.337434
O23	O	-0.264628	-0.899012	-0.264605
O24	O	0.235372	-0.399012	0.235395
O25	O	-0.341943	-1.018329	-0.443966
O26	O	0.158057	-0.518329	0.056034
O27	O	-0.341944	-0.898985	-0.341904
O28	O	0.158056	-0.398985	0.158096
O29	O	-0.264626	-1.108780	-0.443997
O30	O	0.235374	-0.608780	0.056003
O31	O	-0.444013	-1.108585	-0.264572
O32	O	0.055987	-0.608585	0.235428
O33	O	-0.444001	-1.018218	-0.341885
O34	O	0.055999	-0.518218	0.158115
C35	C	-0.466847	-1.063406	-0.303235
C36	C	0.033153	-0.563406	0.196765
C37	C	-0.536815	-1.063432	-0.303242
C38	C	-0.036815	-0.563432	0.196758
C39	C	-0.303282	-1.063563	-0.467461
C40	C	0.196718	-0.563563	0.032539
C41	C	-0.303277	-1.063589	-0.537429
C42	C	0.196723	-0.563589	-0.037429
C43	C	-0.303285	-0.872296	-0.303252
C44	C	0.196715	-0.372296	0.196748
C45	C	-0.303295	-0.790497	-0.303259
C46	C	0.196705	-0.290497	0.196741
C47	C	-0.569667	-1.110528	-0.263026
C48	C	-0.069667	-0.610528	0.236974
C49	C	-0.635410	-1.110562	-0.263040
C50	C	-0.135410	-0.610562	0.236960
C51	C	-0.668298	-1.063487	-0.303263
C52	C	-0.168298	-0.563487	0.196737
C53	C	-0.635438	-1.016388	-0.343487
C54	C	-0.135438	-0.516388	0.156513
C55	C	-0.569697	-1.016360	-0.343476
C56	C	-0.069697	-0.516360	0.156524
N57	N	-0.771565	-0.999109	-0.308056
N58	N	-0.271565	-0.499109	0.191944
N59	N	-0.834016	-0.999138	-0.308063
N60	N	-0.334016	-0.499138	0.191937
C61	C	-0.866373	-1.063570	-0.303299
C62	C	-0.366373	-0.563570	0.196701
N63	N	-0.833918	-1.127974	-0.298517
N64	N	-0.333918	-0.627974	0.201483
N65	N	-0.771461	-1.127944	-0.298507
N66	N	-0.271461	-0.627944	0.201493
C67	C	-0.739583	-1.063513	-0.303280
C68	C	-0.239583	-0.563513	0.196720
C69	C	-0.970510	-1.110707	-0.263097
C70	C	-0.470510	-0.610707	0.236903
C71	C	-1.036254	-1.110743	-0.263115
C72	C	-0.536254	-0.610743	0.236885
C73	C	-1.036281	-1.016562	-0.343559
C74	C	-0.536281	-0.516562	0.156441
C75	C	-0.970538	-1.016533	-0.343544
C76	C	-0.470538	-0.516533	0.156456
C77	C	-0.937657	-1.063605	-0.303309
C78	C	-0.437657	-0.563605	0.196691
C79	C	-0.139105	-1.063619	-0.303319
C80	C	0.360895	-0.563619	0.196681
C81	C	-0.069137	-1.063669	-0.303340
C82	C	0.430863	-0.563669	0.196660
C83	C	-0.303307	-1.255455	-0.303289
C84	C	0.196693	-0.755455	0.196711
C85	C	-0.303312	-1.337254	-0.303297
C86	C	0.196688	-0.837254	0.196703
C87	C	-0.343617	-0.602308	-0.343458
C88	C	0.156383	-0.102308	0.156542
C89	C	-0.343619	-0.525450	-0.343466
C90	C	0.156381	-0.025450	0.156534
C91	C	-0.262986	-0.525448	-0.263096
C92	C	0.237014	-0.025448	0.236904
C93	C	-0.262981	-0.602305	-0.263092
C94	C	0.237019	-0.102305	0.236908
C95	C	-0.303300	-0.640733	-0.303272
C96	C	0.196700	-0.140733	0.196728
C97	C	-0.303307	-0.487017	-0.303284
C98	C	0.196693	0.012983	0.196716
C99	C	-0.303309	-0.403684	-0.303292
C100	C	0.196691	0.096316	0.196708
C101	C	-0.303298	-0.724072	-0.303265
C102	C	0.196702	-0.224072	0.196735
C103	C	-0.263016	-1.110685	-0.570313
C104	C	0.236984	-0.610685	-0.070313
C105	C	-0.262989	-1.110684	-0.636055
C106	C	0.237011	-0.610684	-0.136055
C107	C	-0.303233	-1.063595	-0.668911
C108	C	0.196767	-0.563595	-0.168911
C109	C	-0.343497	-1.016490	-0.636019
C110	C	0.156503	-0.516490	-0.136019
C111	C	-0.343518	-1.016487	-0.570278
C112	C	0.156482	-0.516487	-0.070278
N113	N	-0.358301	-1.057917	-0.772127
N114	N	0.141699	-0.557917	-0.272127
N115	N	-0.358279	-1.057924	-0.834578
N116	N	0.141721	-0.557924	-0.334578
C117	C	-0.303170	-1.063599	-0.866986
C118	C	0.196830	-0.563599	-0.366986
N119	N	-0.248082	-1.069282	-0.834583
N120	N	0.251918	-0.569282	-0.334583
N121	N	-0.248105	-1.069279	-0.772126
N122	N	0.251895	-0.569279	-0.272126
C123	C	-0.303214	-1.063592	-0.740197
C124	C	0.196786	-0.563592	-0.240197
C125	C	-0.262876	-1.110697	-0.971156
C126	C	0.237124	-0.610697	-0.471156
C127	C	-0.262848	-1.110691	-1.036900
C128	C	0.237152	-0.610691	-0.536900
C129	C	-0.343361	-1.016500	-1.036862
C130	C	0.156639	-0.516500	-0.536862
C131	C	-0.343384	-1.016503	-0.971120
C132	C	0.156616	-0.516503	-0.471120
C133	C	-0.303142	-1.063605	-0.938270
C134	C	0.196858	-0.563605	-0.438270
C135	C	-0.303264	-1.063484	-0.139719
C136	C	0.196736	-0.563484	0.360281
C137	C	-0.303092	-1.063600	-0.069751
C138	C	0.196908	-0.563600	0.430249
H139	H	-0.542897	-1.148858	-0.230266
H140	H	-0.042897	-0.648858	0.269734
Br141	Br	-0.398110	-0.952577	-0.680607
Br142	Br	0.101890	-0.452577	-0.180607
Br143	Br	-0.680070	-0.952506	-0.398081
Br144	Br	-0.180070	-0.452506	0.101919
Br145	Br	-0.398334	-0.473304	-0.398010
Br146	Br	0.101666	0.026696	0.101990
Br147	Br	-0.208270	-0.473290	-0.208568
Br148	Br	0.291730	0.026710	0.291432
Br149	Br	-0.680004	-1.174483	-0.208458
Br150	Br	-0.180004	-0.674483	0.291542
Br151	Br	-0.208255	-0.654458	-0.208555
Br152	Br	0.291745	-0.154458	0.291445
Br153	Br	-0.208400	-1.174606	-0.525735
Br154	Br	0.291600	-0.674606	-0.025735
Br155	Br	-0.398161	-0.952565	-0.525646
Br156	Br	0.101839	-0.452565	-0.025646
H157	H	-0.230105	-1.149046	-0.944409
H158	H	0.269895	-0.649046	-0.444409
H159	H	-0.230201	-1.149033	-0.662835
H160	H	0.269799	-0.649033	-0.162835
H161	H	-0.230059	-1.149041	-1.063673
H162	H	0.269941	-0.649041	-0.563673
Br163	Br	-0.397972	-0.952583	-1.081445
Br164	Br	0.102028	-0.452583	-0.581445
H165	H	-0.943737	-1.149038	-0.230337
H166	H	-0.443737	-0.649038	0.269663
Br167	Br	-0.525109	-0.952440	-0.398060
Br168	Br	-0.025109	-0.452440	0.101940
Br169	Br	-1.080840	-1.174673	-0.208538
Br170	Br	-0.580840	-0.674673	0.291462
Br171	Br	-0.925951	-0.952612	-0.398124
Br172	Br	-0.425951	-0.452612	0.101876
Br173	Br	-1.080908	-0.952681	-0.398155
Br174	Br	-0.580908	-0.452681	0.101845
Br175	Br	-0.398334	-0.654459	-0.397990
Br176	Br	0.101666	-0.154459	0.102010
Br177	Br	-0.398027	-0.952584	-0.926488
Br178	Br	0.101973	-0.452584	-0.426488
