data_functionalizedCrystal
_audit_creation_method	'MofGen! by Chris Wilmer'
_symmetry_space_group_name_H-M	'P1'
_symmetry_Int_Tables_number	1
_symmetry_cell_setting	triclinic
loop_
_symmetry_equiv_pos_as_xyz
  x,y,z
_cell_length_a	18.050591
_cell_length_b	21.295417
_cell_length_c	18.050582
_cell_angle_alpha	90.025708
_cell_angle_beta	90.020922
_cell_angle_gamma	90.025707
loop_
_atom_site_label
_atom_site_type_symbol
_atom_site_fract_x
_atom_site_fract_y
_atom_site_fract_z
Zn1	Zn	1.135285	-0.250716	0.420015
Zn2	Zn	1.135192	-0.355977	0.295818
Zn3	Zn	1.011104	-0.250719	0.295826
Zn4	Zn	1.011049	-0.355944	0.419954
O5	O	1.073158	-0.303339	0.357903
O6	O	1.239197	-0.264692	0.403563
O7	O	1.118716	-0.342030	0.191895
O8	O	1.027639	-0.162629	0.312329
O9	O	1.239129	-0.342027	0.312316
O10	O	1.118874	-0.162627	0.403570
O11	O	1.027549	-0.264697	0.191901
O12	O	0.907172	-0.264664	0.312270
O13	O	1.027545	-0.341970	0.523887
O14	O	0.907132	-0.341973	0.403466
O15	O	1.118820	-0.264660	0.523932
O16	O	1.118663	-0.444062	0.312256
O17	O	1.027455	-0.444038	0.403458
C18	C	0.880205	-0.303316	0.357862
C19	C	0.797660	-0.303321	0.357862
C20	C	0.598210	-0.261232	0.308384
C21	C	0.548788	-0.318646	0.290105
C22	C	0.646529	-0.303340	0.357896
C23	C	0.548869	-0.245945	0.376174
C24	C	0.500544	-0.303353	0.357927
C25	C	0.598195	-0.360785	0.339581
C26	C	0.598280	-0.288045	0.425682
C27	C	0.548881	-0.345499	0.407428
C28	C	0.730628	-0.303331	0.357876
C29	C	0.416448	-0.303368	0.357947
C30	C	1.073063	-0.466891	0.357866
C31	C	1.073090	-0.536859	0.357875
C32	C	1.120569	-0.569667	0.405418
C33	C	1.120595	-0.635410	0.405436
C34	C	1.073151	-0.668341	0.357898
C35	C	1.025662	-0.635525	0.310352
C36	C	1.025632	-0.569784	0.310340
N37	N	1.067546	-0.771598	0.292903
N38	N	1.067579	-0.834050	0.292916
C39	C	1.073237	-0.866416	0.357932
N40	N	1.078876	-0.833972	0.422935
N41	N	1.078846	-0.771515	0.422920
C42	C	1.073178	-0.739627	0.357906
C43	C	1.120747	-0.970510	0.405499
C44	C	1.120768	-1.036254	0.405518
C45	C	1.025839	-1.036368	0.310427
C46	C	1.025814	-0.970625	0.310414
C47	C	1.073272	-0.937700	0.357949
C48	C	1.266863	-0.303363	0.357945
C49	C	1.349409	-0.303373	0.357963
C50	C	1.073187	-0.303311	0.551609
C51	C	1.073199	-0.303299	0.634155
C52	C	1.073273	-0.139149	0.357957
C53	C	1.073322	-0.069181	0.357980
C54	C	1.073171	-0.303322	0.164951
C55	C	1.073303	-0.303156	0.082406
C56	C	1.023601	-0.345283	0.833581
C57	C	1.091356	-0.360675	0.882979
C58	C	1.073236	-0.303251	0.785285
C59	C	1.005518	-0.287842	0.882970
C60	C	1.073265	-0.303206	0.931271
C61	C	1.141026	-0.318673	0.833596
C62	C	1.055142	-0.245814	0.833582
C63	C	1.122944	-0.261183	0.882958
C64	C	1.073218	-0.303279	0.701187
C65	C	1.073291	-0.303178	1.015367
H66	H	0.527050	-0.331593	0.232793
N67	N	0.977121	-0.536270	0.261781
N68	N	0.908594	-0.543658	0.266644
H69	H	0.874331	-0.519988	0.232349
H70	H	1.164979	-0.225619	0.904500
N71	N	0.970997	-0.389922	0.806358
N72	N	0.918244	-0.372096	0.766736
H73	H	0.881096	-0.403622	0.747505
N74	N	0.521689	-0.185053	0.395574
N75	N	0.482123	-0.178247	0.451823
H76	H	0.462929	-0.135241	0.465521
N77	N	1.035892	-0.184919	0.806348
N78	N	0.974421	-0.161466	0.822137
H79	H	0.960817	-0.118459	0.802903
H80	H	1.159210	-0.542862	0.444125
H81	H	0.948238	-0.274828	0.904659
H82	H	1.106677	-0.409229	0.904676
N83	N	0.977382	-1.069997	0.261859
N84	N	0.982349	-1.062688	0.193334
H85	H	0.948122	-1.086441	0.159033
N86	N	0.977311	-0.937118	0.261843
N87	N	0.934950	-0.966526	0.219404
H88	H	0.900690	-0.942862	0.185100
N89	N	0.977219	-0.669165	0.261776
N90	N	0.982198	-0.661853	0.193253
H91	H	0.947985	-0.685612	0.158943
H92	H	0.619868	-0.225660	0.266468
N93	N	1.212906	-0.335082	0.806522
N94	N	1.264136	-0.346730	0.851047
H95	H	1.314901	-0.358321	0.831926
N96	N	0.625268	-0.421695	0.320108
N97	N	0.665233	-0.428426	0.264129
H98	H	0.684356	-0.471441	0.250373
N99	N	0.521887	-0.390233	0.459969
N100	N	0.537846	-0.447043	0.453044
H101	H	0.518781	-0.478638	0.490149
H102	H	0.620036	-0.275080	0.482976
N103	N	1.169100	-0.668923	0.454008
N104	N	1.211467	-0.639518	0.496445
H105	H	1.245725	-0.663184	0.530749
N106	N	1.169226	-0.936883	0.454056
N107	N	1.211612	-0.966188	0.496509
H108	H	1.245851	-0.942441	0.530803
H109	H	1.159431	-1.062965	0.444237
