data_functionalizedCrystal
_audit_creation_method	'MofGen! by Chris Wilmer'
_symmetry_space_group_name_H-M	'P1'
_symmetry_Int_Tables_number	1
_symmetry_cell_setting	triclinic
loop_
_symmetry_equiv_pos_as_xyz
  x,y,z
_cell_length_a	17.077404
_cell_length_b	17.077402
_cell_length_c	17.077396
_cell_angle_alpha	90.027528
_cell_angle_beta	90.018362
_cell_angle_gamma	90.021463
loop_
_atom_site_label
_atom_site_type_symbol
_atom_site_fract_x
_atom_site_fract_y
_atom_site_fract_z
Zn1	Zn	1.200051	-0.312551	0.443824
Zn2	Zn	1.533385	0.020783	0.777157
Zn3	Zn	1.866718	0.354116	1.110491
Zn4	Zn	1.199957	-0.443826	0.312560
Zn5	Zn	1.533290	-0.110492	0.645894
Zn6	Zn	1.866624	0.222841	0.979227
Zn7	Zn	1.068783	-0.312573	0.312575
Zn8	Zn	1.402116	0.020760	0.645908
Zn9	Zn	1.735450	0.354094	0.979241
Zn10	Zn	1.068750	-0.443774	0.443786
Zn11	Zn	1.402083	-0.110440	0.777120
Zn12	Zn	1.735416	0.222893	1.110453
O13	O	1.134385	-0.378181	0.378186
O14	O	1.467719	-0.044847	0.711520
O15	O	1.801052	0.288486	1.044853
O16	O	1.309886	-0.329977	0.426421
O17	O	1.643219	0.003356	0.759755
O18	O	1.976552	0.336690	1.093088
O19	O	1.182531	-0.426446	0.202715
O20	O	1.515864	-0.093112	0.536048
O21	O	1.849198	0.240221	0.869382
O22	O	1.086250	-0.202723	0.330007
O23	O	1.419583	0.130610	0.663340
O24	O	1.752916	0.463944	0.996674
O25	O	1.309816	-0.426424	0.329982
O26	O	1.643150	-0.093091	0.663316
O27	O	1.976483	0.240243	0.996649
O28	O	1.182692	-0.202707	0.426435
O29	O	1.516025	0.130627	0.759769
O30	O	1.849358	0.463960	1.093102
O31	O	1.086158	-0.330015	0.202726
O32	O	1.419491	0.003318	0.536059
O33	O	1.752825	0.336652	0.869392
O34	O	0.958932	-0.329965	0.329970
O35	O	1.292265	0.003369	0.663304
O36	O	1.625598	0.336702	0.996637
O37	O	1.086193	-0.426336	0.553638
O38	O	1.419526	-0.093002	0.886972
O39	O	1.752859	0.240331	1.220305
O40	O	0.958907	-0.426357	0.426371
O41	O	1.292241	-0.093024	0.759704
O42	O	1.625574	0.240309	1.093038
O43	O	1.182659	-0.329927	0.553666
O44	O	1.515993	0.003407	0.886999
O45	O	1.849326	0.336740	1.220333
O46	O	1.182499	-0.553666	0.329946
O47	O	1.515832	-0.220332	0.663279
O48	O	1.849165	0.113001	0.996613
O49	O	1.086101	-0.553628	0.426357
O50	O	1.419435	-0.220294	0.759691
O51	O	1.752768	0.113039	1.093024
C52	C	0.930437	-0.378158	0.378169
C53	C	1.263771	-0.044825	0.711502
C54	C	1.597104	0.288508	1.044835
C55	C	0.843188	-0.378168	0.378180
C56	C	1.176521	-0.044835	0.711513
C57	C	1.509854	0.288499	1.044846
C58	C	0.802234	-0.328037	0.428472
C59	C	1.135568	0.005296	0.761806
C60	C	1.468901	0.338629	1.095139
C61	C	0.720254	-0.328042	0.428476
C62	C	1.053587	0.005291	0.761809
C63	C	1.386921	0.338624	1.095143
C64	C	0.679228	-0.378183	0.378190
C65	C	1.012562	-0.044849	0.711524
C66	C	1.345895	0.288484	1.044857
C67	C	0.720187	-0.428315	0.327892
C68	C	1.053521	-0.094982	0.661226
C69	C	1.386854	0.238351	0.994559
C70	C	0.802166	-0.428306	0.327885
C71	C	1.135500	-0.094973	0.661219
C72	C	1.468833	0.238361	0.994552
C73	C	0.549317	-0.428333	0.327912
C74	C	0.882651	-0.095000	0.661245
C75	C	1.215984	0.238333	0.994579
C76	C	0.467333	-0.428344	0.327920
C77	C	0.800666	-0.095011	0.661253
C78	C	1.133999	0.238323	0.994586
C79	C	0.467405	-0.328070	0.428502
C80	C	0.800738	0.005264	0.761836
C81	C	1.134072	0.338597	1.095169
C82	C	0.549384	-0.328060	0.428495
C83	C	0.882717	0.005273	0.761829
C84	C	1.216050	0.338607	1.095162
C85	C	0.590337	-0.378194	0.378198
C86	C	0.923671	-0.044861	0.711532
C87	C	1.257004	0.288472	1.044865
C88	C	1.134307	-0.582129	0.378163
C89	C	1.467641	-0.248795	0.711496
C90	C	1.800974	0.084538	1.044830
C91	C	1.134346	-0.669378	0.378179
C92	C	1.467679	-0.336045	0.711513
C93	C	1.801012	-0.002712	1.044846
C94	C	1.184536	-0.710292	0.428430
C95	C	1.517869	-0.376959	0.761763
C96	C	1.851203	-0.043626	1.095097
C97	C	1.184569	-0.792273	0.428447
C98	C	1.517902	-0.458940	0.761780
C99	C	1.851235	-0.125606	1.095113
C100	C	1.134415	-0.833338	0.378208
C101	C	1.467748	-0.500004	0.711541
C102	C	1.801082	-0.166671	1.044875
C103	C	1.084220	-0.792418	0.327955
C104	C	1.417553	-0.459085	0.661289
C105	C	1.750886	-0.125751	0.994622
C106	C	1.084183	-0.710439	0.327943
C107	C	1.417517	-0.377106	0.661276
C108	C	1.750850	-0.043772	0.994610
C109	C	1.084300	-0.963288	0.327983
C110	C	1.417633	-0.629955	0.661316
C111	C	1.750967	-0.296621	0.994649
C112	C	1.084337	-1.045273	0.327994
C113	C	1.417671	-0.711939	0.661327
C114	C	1.751004	-0.378606	0.994660
C115	C	1.184686	-1.045122	0.428486
C116	C	1.518019	-0.711788	0.761820
C117	C	1.851352	-0.378455	1.095153
C118	C	1.184649	-0.963143	0.428474
C119	C	1.517983	-0.629810	0.761807
C120	C	1.851316	-0.296476	1.095141
C121	C	1.134455	-0.922229	0.378220
C122	C	1.467788	-0.588895	0.711553
C123	C	1.801121	-0.255562	1.044887
C124	C	1.339130	-0.378204	0.378204
C125	C	1.672463	-0.044870	0.711538
C126	C	2.005796	0.288463	1.044871
C127	C	1.426379	-0.378213	0.378212
C128	C	1.759713	-0.044880	0.711546
C129	C	2.093046	0.288453	1.044879
C130	C	1.134433	-0.378123	0.582931
C131	C	1.467766	-0.044790	0.916264
C132	C	1.801099	0.288544	1.249597
C133	C	1.134453	-0.378098	0.670181
C134	C	1.467786	-0.044765	1.003514
C135	C	1.801120	0.288568	1.336847
C136	C	1.134485	-0.173436	0.378227
C137	C	1.467818	0.159897	0.711560
C138	C	1.801152	0.493230	1.044894
C139	C	1.134527	-0.086187	0.378244
C140	C	1.467861	0.247147	0.711578
C141	C	1.801194	0.580480	1.044911
C142	C	1.134383	-0.378182	0.174238
C143	C	1.467716	-0.044848	0.507572
C144	C	1.801050	0.288485	0.840905
C145	C	1.134515	-0.377985	0.086989
C146	C	1.467848	-0.044652	0.420322
C147	C	1.801182	0.288681	0.753656
C148	C	1.184685	-0.327894	0.711186
C149	C	1.518018	0.005439	1.044520
C150	C	1.851352	0.338773	1.377853
C151	C	1.184694	-0.327868	0.793167
C152	C	1.518028	0.005466	1.126500
C153	C	1.851361	0.338799	1.459834
C154	C	1.134475	-0.378051	0.834140
C155	C	1.467809	-0.044717	1.167473
C156	C	1.801142	0.288616	1.500807
C157	C	1.084238	-0.428257	0.793128
C158	C	1.417571	-0.094924	1.126462
C159	C	1.750904	0.238410	1.459795
C160	C	1.084225	-0.428279	0.711149
C161	C	1.417558	-0.094945	1.044483
C162	C	1.750892	0.238388	1.377816
C163	C	1.084269	-0.428210	0.963999
C164	C	1.417603	-0.094877	1.297332
C165	C	1.750936	0.238457	1.630665
C166	C	1.084283	-0.428190	1.045983
C167	C	1.417616	-0.094856	1.379317
C168	C	1.750950	0.238477	1.712650
C169	C	1.184739	-0.327799	1.046016
C170	C	1.518072	0.005534	1.379349
C171	C	1.851406	0.338868	1.712683
C172	C	1.184726	-0.327821	0.964037
C173	C	1.518059	0.005513	1.297370
C174	C	1.851393	0.338846	1.630704
C175	C	1.134489	-0.378028	0.923031
C176	C	1.467823	-0.044695	1.256364
C177	C	1.801156	0.288638	1.589698
H178	H	0.835509	-0.469127	0.286932
H179	H	1.168843	-0.135794	0.620265
H180	H	1.502176	0.197540	0.953598
H181	H	0.434057	-0.287247	0.469455
H182	H	0.767390	0.046086	0.802788
H183	H	1.100723	0.379420	1.136121
Br184	Br	0.664511	-0.496358	0.259640
Br185	Br	0.997844	-0.163024	0.592974
Br186	Br	1.331177	0.170309	0.926307
Br187	Br	1.252921	-0.259663	1.101665
Br188	Br	1.586254	0.073671	1.434999
Br189	Br	1.919587	0.407004	1.768332
H190	H	0.433932	-0.469173	0.286973
H191	H	0.767265	-0.135840	0.620307
H192	H	1.100598	0.197493	0.953640
H193	H	1.225556	-1.078438	0.469406
H194	H	1.558889	-0.745105	0.802739
H195	H	1.892222	-0.411771	1.136072
Br196	Br	1.016120	-0.496288	1.101590
Br197	Br	1.349453	-0.162954	1.434923
Br198	Br	1.682787	0.170379	1.768257
H199	H	1.225600	-0.286988	0.826550
H200	H	1.558934	0.046345	1.159884
H201	H	1.892267	0.379678	1.493217
Br202	Br	1.252722	-0.907412	0.496649
Br203	Br	1.586055	-0.574079	0.829983
Br204	Br	1.919389	-0.240745	1.163316
Br205	Br	1.016273	-1.101004	0.259810
Br206	Br	1.349606	-0.767670	0.593143
Br207	Br	1.682939	-0.434337	0.926477
H208	H	1.043380	-0.825860	0.287053
H209	H	1.376714	-0.492526	0.620387
H210	H	1.710047	-0.159193	0.953720
H211	H	1.043423	-0.929978	0.287063
H212	H	1.376757	-0.596645	0.620396
H213	H	1.710090	-0.263312	0.953730
Br214	Br	1.252612	-0.654569	0.496609
Br215	Br	1.585945	-0.321236	0.829942
Br216	Br	1.919278	0.012097	1.163275
Br217	Br	0.604897	-0.496377	0.259655
Br218	Br	0.938230	-0.163044	0.592989
Br219	Br	1.271563	0.170289	0.926322
Br220	Br	1.016062	-0.654912	0.259746
Br221	Br	1.349395	-0.321578	0.593080
Br222	Br	1.682729	0.011755	0.926413
H223	H	1.225623	-0.286962	0.930679
H224	H	1.558957	0.046372	1.264012
H225	H	1.892290	0.379705	1.597345
Br226	Br	1.252850	-0.259791	0.655588
Br227	Br	1.586183	0.073543	0.988921
Br228	Br	1.919516	0.406876	1.322254
Br229	Br	0.857904	-0.259991	0.496726
Br230	Br	1.191237	0.073342	0.830060
Br231	Br	1.524571	0.406675	1.163393
H232	H	1.225445	-0.825581	0.469360
H233	H	1.558778	-0.492248	0.802693
H234	H	1.892111	-0.158915	1.136026
H235	H	0.582785	-0.287236	0.469447
H236	H	0.916118	0.046097	0.802780
H237	H	1.249451	0.379431	1.136113
Br238	Br	1.016087	-0.496347	0.908348
Br239	Br	1.349421	-0.163014	1.241681
Br240	Br	1.682754	0.170320	1.575015
Br241	Br	1.016077	-0.496359	0.848734
Br242	Br	1.349410	-0.163025	1.182067
Br243	Br	1.682744	0.170308	1.515401
H244	H	1.043313	-0.469152	0.677764
H245	H	1.376646	-0.135819	1.011097
H246	H	1.709980	0.197514	1.344430
H247	H	0.686913	-0.287222	0.469431
H248	H	1.020247	0.046111	0.802764
H249	H	1.353580	0.379444	1.136097
