data_functionalizedCrystal
_audit_creation_method	'MofGen! by Chris Wilmer'
_symmetry_space_group_name_H-M	'P1'
_symmetry_Int_Tables_number	1
_symmetry_cell_setting	triclinic
loop_
_symmetry_equiv_pos_as_xyz
  x,y,z
_cell_length_a	19.805407
_cell_length_b	16.625545
_cell_length_c	19.805399
_cell_angle_alpha	90.025578
_cell_angle_beta	90.019573
_cell_angle_gamma	90.025558
loop_
_atom_site_label
_atom_site_type_symbol
_atom_site_fract_x
_atom_site_fract_y
_atom_site_fract_z
Zn1	Zn	1.034740	-0.321020	0.382729
Zn2	Zn	1.034656	-0.455857	0.269545
Zn3	Zn	0.921554	-0.321043	0.269554
Zn4	Zn	0.921520	-0.455815	0.382692
O5	O	0.978117	-0.388434	0.326130
O6	O	1.129445	-0.338915	0.367727
O7	O	1.019633	-0.438001	0.174829
O8	O	0.936618	-0.208207	0.284586
O9	O	1.129384	-0.437980	0.284571
O10	O	1.019775	-0.208191	0.367736
O11	O	0.936537	-0.338953	0.174836
O12	O	0.826833	-0.338912	0.284550
O13	O	0.936559	-0.437907	0.477413
O14	O	0.826808	-0.437928	0.367672
O15	O	1.019741	-0.338874	0.477441
O16	O	1.019599	-0.568684	0.284535
O17	O	0.936478	-0.568653	0.367663
C18	C	0.802261	-0.388418	0.326108
C19	C	0.727029	-0.388431	0.326115
C20	C	0.691690	-0.440067	0.369326
C21	C	0.621001	-0.440068	0.369336
C22	C	0.585654	-0.388437	0.326130
C23	C	0.620999	-0.336796	0.282916
C24	C	0.691686	-0.336791	0.282911
C25	C	0.335925	-0.336814	0.282939
C26	C	0.265233	-0.336825	0.282946
C27	C	0.265241	-0.440091	0.369364
C28	C	0.335928	-0.440086	0.369358
C29	C	0.371266	-0.388442	0.326147
C30	C	0.447915	-0.388440	0.326138
C31	C	0.509007	-0.388443	0.326135
C32	C	0.978044	-0.597925	0.326108
C33	C	0.978074	-0.687546	0.326122
C34	C	0.978101	-0.760328	0.326135
C35	C	0.978140	-0.851637	0.326150
C36	C	0.978175	-0.924413	0.326159
C37	C	0.978214	-1.015727	0.326173
C38	C	1.154660	-0.388450	0.326152
C39	C	1.229892	-0.388457	0.326162
C40	C	0.978155	-0.388383	0.502673
C41	C	0.978172	-0.388361	0.577905
C42	C	0.978210	-0.178125	0.326166
C43	C	0.978249	-0.088504	0.326181
C44	C	0.978119	-0.388426	0.150274
C45	C	0.978234	-0.388221	0.075042
C46	C	1.021486	-0.336792	0.613264
C47	C	1.021493	-0.336769	0.683953
C48	C	0.978188	-0.388319	0.719280
C49	C	0.934870	-0.439890	0.683916
C50	C	0.934860	-0.439909	0.613228
C51	C	0.934908	-0.439815	0.968989
C52	C	0.934922	-0.439794	1.039681
C53	C	1.021541	-0.336675	1.039713
C54	C	1.021531	-0.336694	0.969026
C55	C	0.978210	-0.388262	0.933668
C56	C	0.978202	-0.388285	0.857019
C57	C	0.978199	-0.388300	0.795927
H58	H	0.592213	-0.294754	0.247740
C59	C	1.107102	-0.234852	0.620403
C60	C	1.069086	-0.280124	0.574436
H61	H	1.136485	-0.199862	0.596432
H62	H	1.132981	-0.269977	0.647970
H63	H	1.077621	-0.204004	0.647976
H64	H	1.098568	-0.310977	0.546866
H65	H	1.043206	-0.244995	0.546857
H66	H	0.720458	-0.294740	0.247727
C67	C	1.136176	-0.297404	1.061510
C68	C	1.069156	-0.279983	1.078583
H69	H	1.165570	-0.262410	1.085509
H70	H	1.142363	-0.290038	1.014362
H71	H	1.146048	-0.351579	1.073093
H72	H	1.059281	-0.225810	1.066995
H73	H	1.062965	-0.287343	1.125742
H74	H	0.899582	-0.481894	0.584440
C75	C	0.896425	-0.485655	0.792258
C76	C	0.887268	-0.496556	0.722746
H77	H	0.867041	-0.520644	0.816228
H78	H	0.886544	-0.431482	0.803848
H79	H	0.941901	-0.497459	0.803842
H80	H	0.841793	-0.484746	0.711162
H81	H	0.897144	-0.550741	0.711152
C82	C	1.030950	-0.228273	0.763448
C83	C	1.069102	-0.280072	0.722813
H84	H	1.060342	-0.193263	0.787433
H85	H	1.005171	-0.258968	0.794606
H86	H	1.001469	-0.197449	0.735860
H87	H	1.098579	-0.310901	0.750403
H88	H	1.094891	-0.249374	0.691652
C89	C	1.054547	-0.200168	0.947302
C90	C	1.069129	-0.280020	0.930199
H91	H	1.083929	-0.165177	0.923330
H92	H	1.060753	-0.192787	0.994456
H93	H	1.009071	-0.188381	0.935707
H94	H	1.114604	-0.291809	0.941799
H95	H	1.062929	-0.287405	0.883034
H96	H	0.899656	-0.481774	1.068443
C97	C	0.901852	-0.576346	0.947207
C98	C	0.887283	-0.496496	0.930136
H99	H	0.872447	-0.611336	0.923218
H100	H	0.895670	-0.583702	0.994358
H101	H	0.947318	-0.588156	0.935613
H102	H	0.841818	-0.484684	0.941735
H103	H	0.893458	-0.489136	0.882975
C104	C	0.684590	-0.542137	0.454755
C105	C	0.730540	-0.496819	0.416823
H106	H	0.708574	-0.577168	0.484082
H107	H	0.656999	-0.572936	0.425223
H108	H	0.657039	-0.507038	0.480696
H109	H	0.758087	-0.531918	0.390878
H110	H	0.758142	-0.466018	0.446359
H111	H	0.364704	-0.482132	0.404538
H112	H	0.592231	-0.482116	0.404522
H113	H	0.236460	-0.482139	0.404550
C114	C	0.272322	-0.234726	0.197530
C115	C	0.226378	-0.280061	0.235456
H116	H	0.248332	-0.199683	0.168217
H117	H	0.299870	-0.269807	0.171582
H118	H	0.299916	-0.203932	0.227073
H119	H	0.198787	-0.310860	0.205913
H120	H	0.198818	-0.244976	0.261406
H121	H	0.364689	-0.294769	0.247749
