data_functionalizedCrystal
_audit_creation_method	'MofGen! by Chris Wilmer'
_symmetry_space_group_name_H-M	'P1'
_symmetry_Int_Tables_number	1
_symmetry_cell_setting	triclinic
loop_
_symmetry_equiv_pos_as_xyz
  x,y,z
_cell_length_a	19.077105
_cell_length_b	21.295417
_cell_length_c	19.076919
_cell_angle_alpha	87.733380
_cell_angle_beta	89.923776
_cell_angle_gamma	87.726672
loop_
_atom_site_label
_atom_site_type_symbol
_atom_site_fract_x
_atom_site_fract_y
_atom_site_fract_z
Zn1	Zn	1.058236	-0.304534	0.440387
Zn2	Zn	1.558236	0.195466	0.940387
Zn3	Zn	1.062864	-0.405747	0.322870
Zn4	Zn	1.562864	0.094253	0.822870
Zn5	Zn	0.945454	-0.296102	0.318181
Zn6	Zn	1.445454	0.203898	0.818181
Zn7	Zn	0.940686	-0.405368	0.435623
Zn8	Zn	1.440686	0.094632	0.935623
O9	O	1.001810	-0.352938	0.379265
O10	O	1.501810	0.147062	0.879265
O11	O	1.157181	-0.321649	0.428754
O12	O	1.657181	0.178351	0.928754
O13	O	1.051222	-0.387832	0.223917
O14	O	1.551222	0.112168	0.723917
O15	O	0.960474	-0.209134	0.334424
O16	O	1.460474	0.290866	0.834424
O17	O	1.160581	-0.396009	0.342415
O18	O	1.660581	0.103991	0.842415
O19	O	1.043334	-0.215330	0.424208
O20	O	1.543334	0.284670	0.924208
O21	O	0.964962	-0.307276	0.220472
O22	O	1.464962	0.192724	0.720472
O23	O	0.846490	-0.306908	0.329804
O24	O	1.346490	0.193092	0.829804
O25	O	0.952346	-0.395362	0.534586
O26	O	1.452346	0.104638	1.034586
O27	O	0.842987	-0.387185	0.416088
O28	O	1.342987	0.112815	0.916088
O29	O	1.038710	-0.321280	0.538086
O30	O	1.538710	0.178720	1.038086
O31	O	1.046598	-0.493783	0.337795
O32	O	1.546598	0.006217	0.837795
O33	O	0.956834	-0.493504	0.420634
O34	O	1.456834	0.006496	0.920634
C35	C	0.819242	-0.346091	0.371921
C36	C	1.319242	0.153909	0.871921
C37	C	0.741139	-0.343178	0.368795
C38	C	1.241139	0.156822	0.868795
C39	C	0.702642	-0.383663	0.412179
C40	C	1.202642	0.116337	0.912179
C41	C	0.629255	-0.380918	0.409246
C42	C	1.129255	0.119082	0.909246
C43	C	0.594366	-0.337689	0.362924
C44	C	1.094366	0.162311	0.862924
C45	C	0.632868	-0.297199	0.319538
C46	C	1.132868	0.202801	0.819538
C47	C	0.706253	-0.299942	0.322476
C48	C	1.206253	0.200058	0.822476
C49	C	0.375080	-0.324994	0.349333
C50	C	0.875080	0.175006	0.849333
C51	C	0.301690	-0.322256	0.346397
C52	C	0.801690	0.177744	0.846397
C53	C	0.298082	-0.405974	0.436106
C54	C	0.798082	0.094026	0.936106
C55	C	0.371470	-0.408715	0.439037
C56	C	0.871470	0.091285	0.939037
C57	C	0.409965	-0.368223	0.395653
C58	C	0.909965	0.131777	0.895653
N59	N	0.519353	-0.334883	0.359923
N60	N	1.019353	0.165117	0.859923
N61	N	0.484976	-0.371027	0.398658
N62	N	0.984976	0.128973	0.898658
C63	C	1.001719	-0.516485	0.379223
C64	C	1.501719	-0.016485	0.879223
C65	C	1.001744	-0.586454	0.379231
C66	C	1.501744	-0.086454	0.879231
C67	C	1.048522	-0.619448	0.336144
C68	C	1.548522	-0.119448	0.836144
C69	C	1.048554	-0.685192	0.336161
C70	C	1.548554	-0.185192	0.836161
C71	C	1.001796	-0.717939	0.379257
C72	C	1.501796	-0.217939	0.879257
C73	C	0.955015	-0.684937	0.422352
C74	C	1.455015	-0.184937	0.922352
C75	C	0.954989	-0.619195	0.422339
C76	C	1.454989	-0.119195	0.922339
N77	N	0.940111	-0.819089	0.382141
N78	N	1.440111	-0.319089	0.882141
N79	N	0.940138	-0.881541	0.382149
N80	N	1.440138	-0.381541	0.882149
C81	C	1.001873	-0.916018	0.379300
C82	C	1.501873	-0.416018	0.879300
N83	N	1.063583	-0.885683	0.376429
N84	N	1.563583	-0.385683	0.876429
N85	N	1.063555	-0.823224	0.376417
N86	N	1.563555	-0.323224	0.876417
C87	C	1.001820	-0.789226	0.379276
C88	C	1.501820	-0.289226	0.879276
C89	C	1.048690	-1.020300	0.336230
C90	C	1.548690	-0.520300	0.836230
C91	C	1.048724	-1.086046	0.336252
C92	C	1.548724	-0.586046	0.836252
C93	C	0.955178	-1.085789	0.422439
C94	C	1.455178	-0.585789	0.922439
C95	C	0.955151	-1.020045	0.422421
C96	C	1.455151	-0.520045	0.922421
C97	C	1.001906	-0.987304	0.379313
C98	C	1.501906	-0.487304	0.879313
C99	C	1.185090	-0.359812	0.386639
C100	C	1.685090	0.140188	0.886639
C101	C	1.263193	-0.362741	0.389782
C102	C	1.763193	0.137259	0.889782
C103	C	0.994480	-0.359220	0.562545
C104	C	1.494480	0.140780	1.062545
C105	C	0.991356	-0.361897	0.640648
C106	C	1.491356	0.138103	1.140648
C107	C	1.001919	-0.188754	0.379324
C108	C	1.501919	0.311246	0.879324
C109	C	1.001966	-0.118788	0.379349
C110	C	1.501966	0.381212	0.879349
C111	C	1.009152	-0.346637	0.196700
C112	C	1.509152	0.153363	0.696700
C113	C	1.012412	-0.343787	0.118604
C114	C	1.512412	0.156213	0.618604
C115	C	1.034851	-0.324586	0.679164
C116	C	1.534851	0.175414	1.179164
C117	C	1.031907	-0.327098	0.752550
C118	C	1.531907	0.172902	1.252550
C119	C	0.985472	-0.366925	0.787418
C120	C	1.485472	0.133075	1.287418
C121	C	0.941972	-0.404238	0.748896
C122	C	1.441972	0.095762	1.248896
C123	C	0.944913	-0.401722	0.675512
C124	C	1.444913	0.098278	1.175512
C125	C	0.971853	-0.378584	1.006698
C126	C	1.471853	0.121416	1.506698
C127	C	0.968917	-0.381099	1.080087
C128	C	1.468917	0.118901	1.580087
C129	C	1.058852	-0.303958	1.083736
C130	C	1.558852	0.196042	1.583736
C131	C	1.061791	-0.301448	1.010350
C132	C	1.561791	0.198552	1.510350
C133	C	1.018289	-0.338758	0.971835
C134	C	1.518289	0.161242	1.471835
N135	N	0.982464	-0.369496	0.862429
N136	N	1.482464	0.130504	1.362429
N137	N	1.021294	-0.336183	0.896824
N138	N	1.521294	0.163817	1.396824
H139	H	0.737596	-0.266971	0.287151
H140	H	1.237596	0.233029	0.787151
N141	N	0.904746	-1.121106	0.468917
N142	N	1.404746	-0.621106	0.968917
H143	H	0.854982	-1.107456	0.455940
H144	H	1.354982	-0.607456	0.955940
H145	H	0.913663	-1.111753	0.519552
H146	H	1.413663	-0.611753	1.019552
H147	H	0.916895	-0.592330	0.457426
H148	H	1.416895	-0.092330	0.957426
H149	H	0.931101	-0.413532	1.108474
H150	H	1.431101	0.086468	1.608474
N151	N	1.098998	-0.720786	0.289673
N152	N	1.598998	-0.220786	0.789673
H153	H	1.091915	-0.767402	0.296220
H154	H	1.591915	-0.267402	0.796220
H155	H	1.148736	-0.711511	0.302653
H156	H	1.648736	-0.211511	0.802653
N157	N	0.904692	-0.984453	0.468888
N158	N	1.404692	-0.484453	0.968888
H159	H	0.875074	-1.015172	0.496192
H160	H	1.375074	-0.515172	0.996192
H161	H	0.873332	-0.955018	0.438943
H162	H	1.373332	-0.455018	0.938943
N163	N	1.084940	-0.281633	0.641559
N164	N	1.584940	0.218367	1.141559
H165	H	1.112046	-0.258377	0.677098
H166	H	1.612046	0.241623	1.177098
H167	H	1.057578	-0.250385	0.609969
H168	H	1.557578	0.249615	1.109969
H169	H	1.086764	-0.993641	0.301131
H170	H	1.586764	-0.493641	0.801131
H171	H	1.086820	-1.112908	0.301168
H172	H	1.586820	-0.612908	0.801168
H173	H	0.399871	-0.443918	0.476755
H174	H	0.899871	0.056082	0.976755
N175	N	0.740271	-0.430293	0.462136
N176	N	1.240271	0.069707	0.962136
H177	H	0.704745	-0.455523	0.489175
H178	H	1.204745	0.044477	0.989175
H179	H	0.769438	-0.406971	0.495927
H180	H	1.269438	0.093029	0.995927
N181	N	0.256564	-0.449645	0.482896
N182	N	0.756564	0.050355	0.982896
H183	H	0.204780	-0.441350	0.474009
H184	H	0.704780	0.058650	0.974009
H185	H	0.267400	-0.442118	0.533615
H186	H	0.767400	0.057882	1.033615
N187	N	0.898006	-0.441965	0.633961
N188	N	1.398006	0.058035	1.133961
H189	H	0.866682	-0.414116	0.602213
H190	H	1.366682	0.085884	1.102213
H191	H	0.868188	-0.467575	0.667226
H192	H	1.368188	0.032425	1.167226
H193	H	0.597915	-0.413886	0.444573
H194	H	1.097915	0.086114	0.944573
H195	H	0.273285	-0.287047	0.308681
H196	H	0.773285	0.212953	0.808681
N197	N	1.078806	-0.286843	0.794093
N198	N	1.578806	0.213157	1.294093
H199	H	1.108667	-0.261230	0.760868
H200	H	1.608667	0.238770	1.260868
H201	H	1.110089	-0.314719	0.825851
H202	H	1.610089	0.185281	1.325851
H203	H	1.099606	-0.269018	0.981966
H204	H	1.599606	0.230982	1.481966
H205	H	1.086595	-0.592792	0.301045
H206	H	1.586595	-0.092792	0.801045
H207	H	0.904161	-0.436664	0.777291
H208	H	1.404161	0.063336	1.277291
H209	H	1.094268	-0.273581	1.115103
H210	H	1.594268	0.226419	1.615103
N211	N	0.416594	-0.281313	0.302554
N212	N	0.916594	0.218687	0.802554
H213	H	0.383354	-0.253512	0.272767
H214	H	0.883354	0.246488	0.772767
H215	H	0.448333	-0.306900	0.271196
H216	H	0.948333	0.193100	0.771196
N217	N	0.924912	-0.418802	0.965160
N218	N	1.424912	0.081198	1.465160
H219	H	0.895045	-0.444407	0.998386
H220	H	1.395045	0.055593	1.498386
H221	H	0.954689	-0.447968	0.935838
H222	H	1.454689	0.052032	1.435838
H223	H	0.604455	-0.261999	0.281825
H224	H	1.104455	0.238001	0.781825
N225	N	0.904584	-0.720253	0.468837
N226	N	1.404584	-0.220253	0.968837
H227	H	0.911697	-0.766908	0.462306
H228	H	1.411697	-0.266908	0.962306
H229	H	0.854843	-0.706550	0.455839
H230	H	1.354843	-0.206550	0.955839
