data_functionalizedCrystal
_audit_creation_method	'MofGen! by Chris Wilmer'
_symmetry_space_group_name_H-M	'P1'
_symmetry_Int_Tables_number	1
_symmetry_cell_setting	triclinic
loop_
_symmetry_equiv_pos_as_xyz
  x,y,z
_cell_length_a	18.215407
_cell_length_b	16.959453
_cell_length_c	18.215399
_cell_angle_alpha	89.971557
_cell_angle_beta	89.983115
_cell_angle_gamma	90.017431
loop_
_atom_site_label
_atom_site_type_symbol
_atom_site_fract_x
_atom_site_fract_y
_atom_site_fract_z
Zn1	Zn	1.125093	-0.314740	-0.416067
Zn2	Zn	1.458427	0.018593	-0.082734
Zn3	Zn	1.791760	0.351926	0.250600
Zn4	Zn	1.125013	-0.446927	-0.293001
Zn5	Zn	1.458347	-0.113593	0.040333
Zn6	Zn	1.791680	0.219740	0.373666
Zn7	Zn	1.002027	-0.314760	-0.293020
Zn8	Zn	1.335360	0.018573	0.040314
Zn9	Zn	1.668694	0.351906	0.373647
Zn10	Zn	1.002002	-0.446875	-0.416031
Zn11	Zn	1.335336	-0.113541	-0.082697
Zn12	Zn	1.668669	0.219792	0.250636
O13	O	1.063534	-0.380826	-0.354530
O14	O	1.396867	-0.047492	-0.021196
O15	O	1.730201	0.285841	0.312137
O16	O	1.228067	-0.332289	-0.399749
O17	O	1.561400	0.001045	-0.066416
O18	O	1.894734	0.334378	0.266917
O19	O	1.108676	-0.429425	-0.190019
O20	O	1.442009	-0.096091	0.143314
O21	O	1.775342	0.237242	0.476648
O22	O	1.018396	-0.204147	-0.309365
O23	O	1.351729	0.129187	0.023968
O24	O	1.685063	0.462520	0.357301
O25	O	1.228008	-0.429405	-0.309333
O26	O	1.561342	-0.096072	0.024001
O27	O	1.894675	0.237261	0.357334
O28	O	1.108812	-0.204132	-0.399768
O29	O	1.442146	0.129201	-0.066434
O30	O	1.775479	0.462535	0.266899
O31	O	1.018318	-0.332322	-0.190033
O32	O	1.351652	0.001011	0.143300
O33	O	1.684985	0.334344	0.476634
O34	O	0.899040	-0.332272	-0.309330
O35	O	1.232373	0.001061	0.024003
O36	O	1.565706	0.334395	0.357336
O37	O	1.018354	-0.429317	-0.519020
O38	O	1.351687	-0.095984	-0.185687
O39	O	1.685021	0.237350	0.147647
O40	O	0.899021	-0.429336	-0.399706
O41	O	1.232355	-0.096003	-0.066373
O42	O	1.565688	0.237331	0.266961
O43	O	1.108788	-0.332238	-0.519047
O44	O	1.442122	0.001095	-0.185713
O45	O	1.775455	0.334428	0.147620
O46	O	1.108652	-0.557531	-0.309298
O47	O	1.441985	-0.224197	0.024036
O48	O	1.775319	0.109136	0.357369
O49	O	1.018276	-0.557493	-0.399687
O50	O	1.351610	-0.224159	-0.066354
O51	O	1.684943	0.109174	0.266979
C52	C	0.872328	-0.380801	-0.354517
C53	C	1.205661	-0.047468	-0.021183
C54	C	1.538994	0.285865	0.312150
C55	C	0.790529	-0.380810	-0.354529
C56	C	1.123862	-0.047477	-0.021195
C57	C	1.457196	0.285857	0.312138
C58	C	0.602365	-0.330345	-0.401683
C59	C	0.935698	0.002988	-0.068349
C60	C	1.269031	0.336321	0.264984
C61	C	0.525506	-0.330352	-0.401685
C62	C	0.858839	0.002981	-0.068352
C63	C	1.192173	0.336315	0.264981
C64	C	0.525456	-0.431328	-0.307389
C65	C	0.858789	-0.097995	0.025944
C66	C	1.192122	0.235339	0.359277
C67	C	0.602313	-0.431317	-0.307384
C68	C	0.935646	-0.097983	0.025950
C69	C	1.268980	0.235350	0.359283
C70	C	0.640765	-0.380826	-0.354535
C71	C	0.974099	-0.047493	-0.021201
C72	C	1.307432	0.285840	0.312132
C73	C	0.487049	-0.380845	-0.354543
C74	C	0.820383	-0.047511	-0.021209
C75	C	1.153716	0.285822	0.312124
C76	C	0.403716	-0.380852	-0.354545
C77	C	0.737049	-0.047519	-0.021212
C78	C	1.070382	0.285814	0.312122
C79	C	0.724104	-0.380817	-0.354531
C80	C	1.057438	-0.047484	-0.021198
C81	C	1.390771	0.285849	0.312135
C82	C	1.063473	-0.586192	-0.354503
C83	C	1.396806	-0.252858	-0.021169
C84	C	1.730139	0.080475	0.312164
C85	C	1.063514	-0.674048	-0.354516
C86	C	1.396847	-0.340715	-0.021182
C87	C	1.730180	-0.007382	0.312151
C88	C	1.110674	-1.045458	-0.401691
C89	C	1.444007	-0.712124	-0.068358
C90	C	1.777341	-0.378791	0.264976
C91	C	1.016600	-1.045590	-0.307478
C92	C	1.349933	-0.712257	0.025856
C93	C	1.683266	-0.378923	0.359189
C94	C	1.016572	-0.963044	-0.307461
C95	C	1.349906	-0.629711	0.025873
C96	C	1.683239	-0.296378	0.359206
C97	C	1.063596	-0.921701	-0.354560
C98	C	1.396929	-0.588368	-0.021227
C99	C	1.730263	-0.255035	0.312106
C100	C	1.110647	-0.962904	-0.401677
C101	C	1.443980	-0.629571	-0.068344
C102	C	1.777313	-0.296238	0.264990
C103	C	0.969517	-0.921835	-0.260350
C104	C	1.302850	-0.588502	0.072983
C105	C	1.636184	-0.255168	0.406317
C106	C	0.969487	-0.839284	-0.260332
C107	C	1.302821	-0.505951	0.073001
C108	C	1.636154	-0.172617	0.406335
C109	C	1.016515	-0.797940	-0.307429
C110	C	1.349848	-0.464606	0.025905
C111	C	1.683182	-0.131273	0.359238
C112	C	1.063568	-0.839148	-0.354546
C113	C	1.396902	-0.505814	-0.021213
C114	C	1.730235	-0.172481	0.312120
C115	C	1.110592	-0.797805	-0.401646
C116	C	1.443925	-0.464472	-0.068313
C117	C	1.777259	-0.131138	0.265020
C118	C	1.157650	-0.839011	-0.448761
C119	C	1.490983	-0.505678	-0.115428
C120	C	1.824316	-0.172345	0.217906
C121	C	1.157675	-0.921560	-0.448774
C122	C	1.491008	-0.588227	-0.115440
C123	C	1.824341	-0.254893	0.217893
C124	C	1.016490	-0.715391	-0.307416
C125	C	1.349824	-0.382058	0.025917
C126	C	1.683157	-0.048725	0.359251
C127	C	1.110565	-0.715251	-0.401632
C128	C	1.443898	-0.381918	-0.068299
C129	C	1.777231	-0.048585	0.265034
C130	C	1.255487	-0.380850	-0.354543
C131	C	1.588820	-0.047517	-0.021210
C132	C	1.922154	0.285816	0.312124
C133	C	1.337286	-0.380861	-0.354549
C134	C	1.670619	-0.047528	-0.021215
C135	C	2.003953	0.285806	0.312118
C136	C	1.063577	-0.380770	-0.546483
C137	C	1.396911	-0.047436	-0.213149
C138	C	1.730244	0.285897	0.120184
C139	C	1.063596	-0.380746	-0.628281
C140	C	1.396929	-0.047412	-0.294948
C141	C	1.730262	0.285921	0.038385
C142	C	1.063616	-0.174657	-0.354573
C143	C	1.396949	0.158676	-0.021239
C144	C	1.730282	0.492009	0.312094
C145	C	1.063651	-0.086801	-0.354591
C146	C	1.396984	0.246533	-0.021258
C147	C	1.730317	0.579866	0.312076
C148	C	1.110712	-0.330129	-0.893354
C149	C	1.444045	0.003205	-0.560021
C150	C	1.777379	0.336538	-0.226688
C151	C	1.110703	-0.330150	-0.816495
C152	C	1.444037	0.003183	-0.483162
C153	C	1.777370	0.336517	-0.149829
C154	C	1.016539	-0.431248	-0.816457
C155	C	1.349872	-0.097915	-0.483124
C156	C	1.683206	0.235419	-0.149791
C157	C	1.016552	-0.431230	-0.893315
C158	C	1.349885	-0.097897	-0.559981
C159	C	1.683219	0.235437	-0.226648
C160	C	1.063637	-0.380666	-0.931761
C161	C	1.396971	-0.047333	-0.598428
C162	C	1.730304	0.286001	-0.265095
C163	C	1.063616	-0.380705	-0.778045
C164	C	1.396949	-0.047372	-0.444712
C165	C	1.730282	0.285961	-0.111378
C166	C	1.063606	-0.380729	-0.694711
C167	C	1.396939	-0.047395	-0.361378
C168	C	1.730273	0.285938	-0.028045
C169	C	1.063648	-0.380643	-1.015100
C170	C	1.396982	-0.047310	-0.681767
C171	C	1.730315	0.286023	-0.348434
C172	C	1.063533	-0.380824	-0.163323
C173	C	1.396867	-0.047491	0.170010
C174	C	1.730200	0.285842	0.503343
C175	C	1.063658	-0.380625	-0.081525
C176	C	1.396991	-0.047292	0.251808
C177	C	1.730324	0.286041	0.585142
H178	H	0.633580	-0.472425	-0.268986
H179	H	0.966913	-0.139092	0.064347
H180	H	1.300246	0.194241	0.397681
H181	H	0.633670	-0.289230	-0.440074
H182	H	0.967004	0.044103	-0.106740
H183	H	1.300337	0.377436	0.226593
H184	H	0.978173	-0.681845	-0.269059
H185	H	1.311506	-0.348511	0.064274
H186	H	1.644840	-0.015178	0.397607
Br187	Br	0.473393	-0.261836	-0.465672
Br188	Br	0.806726	0.071498	-0.132339
Br189	Br	1.140060	0.404831	0.200995
Br190	Br	1.221456	-0.782894	-0.512689
Br191	Br	1.554789	-0.449560	-0.179356
Br192	Br	1.888122	-0.116227	0.153978
Br193	Br	1.174392	-0.659149	-0.465551
Br194	Br	1.507725	-0.325816	-0.132218
Br195	Br	1.841059	0.007517	0.201116
Br196	Br	0.473265	-0.499848	-0.243403
Br197	Br	0.806599	-0.166515	0.089930
Br198	Br	1.139932	0.166818	0.423264
Br199	Br	1.221530	-0.977487	-0.512711
Br200	Br	1.554864	-0.644154	-0.179378
Br201	Br	1.888197	-0.310820	0.153955
H202	H	1.148989	-1.079012	-0.440049
H203	H	1.482323	-0.745679	-0.106715
H204	H	1.815656	-0.412345	0.226618
H205	H	0.978312	-1.079256	-0.269134
H206	H	1.311645	-0.745923	0.064199
H207	H	1.644979	-0.412590	0.397533
Br208	Br	0.905686	-0.977946	-0.196451
Br209	Br	1.239019	-0.644612	0.136883
Br210	Br	1.572352	-0.311279	0.470216
Br211	Br	0.905622	-0.783368	-0.196395
Br212	Br	1.238955	-0.450035	0.136938
Br213	Br	1.572289	-0.116701	0.470271
H214	H	1.149052	-0.288956	-0.924655
H215	H	1.482385	0.044378	-0.591322
H216	H	1.815718	0.377711	-0.257988
H217	H	1.149037	-0.288998	-0.785228
H218	H	1.482370	0.044335	-0.451895
H219	H	1.815704	0.377668	-0.118561
H220	H	0.978203	-0.472415	-0.785145
H221	H	1.311536	-0.139081	-0.451812
H222	H	1.644869	0.194252	-0.118478
H223	H	0.978218	-0.472388	-0.924587
H224	H	1.311551	-0.139055	-0.591253
H225	H	1.644884	0.194279	-0.257920
