data_functionalizedCrystal
_audit_creation_method	'MofGen! by Chris Wilmer'
_symmetry_space_group_name_H-M	'P1'
_symmetry_Int_Tables_number	1
_symmetry_cell_setting	triclinic
loop_
_symmetry_equiv_pos_as_xyz
  x,y,z
_cell_length_a	19.077105
_cell_length_b	25.639239
_cell_length_c	25.639243
_cell_angle_alpha	90.006746
_cell_angle_beta	92.302578
_cell_angle_gamma	87.734929
loop_
_atom_site_label
_atom_site_type_symbol
_atom_site_fract_x
_atom_site_fract_y
_atom_site_fract_z
Zn1	Zn	1.075803	-0.240449	0.327687
Zn2	Zn	1.075714	-0.327846	0.240249
Zn3	Zn	0.958135	-0.236911	0.236757
Zn4	Zn	0.958046	-0.324333	0.324144
O5	O	1.016925	-0.282385	0.282209
O6	O	1.174280	-0.254993	0.319032
O7	O	1.060117	-0.315773	0.166620
O8	O	0.973818	-0.164217	0.248840
O9	O	1.174215	-0.319204	0.254791
O10	O	1.060268	-0.166816	0.315646
O11	O	0.973732	-0.248963	0.164055
O12	O	0.859634	-0.245556	0.245405
O13	O	0.973667	-0.313216	0.397779
O14	O	0.859569	-0.309785	0.309608
O15	O	1.060182	-0.251586	0.400382
O16	O	1.060031	-0.400543	0.251356
O17	O	0.973581	-0.397962	0.312994
C18	C	0.834064	-0.276906	0.276744
C19	C	0.755836	-0.274575	0.274418
C20	C	0.719069	-0.306971	0.306700
C21	C	0.645565	-0.304774	0.304518
C22	C	0.608830	-0.270183	0.270050
C23	C	0.645602	-0.237783	0.237767
C24	C	0.719105	-0.239978	0.239952
C25	C	0.389002	-0.260024	0.259937
C26	C	0.315494	-0.257833	0.257752
C27	C	0.315462	-0.324823	0.324504
C28	C	0.388966	-0.327017	0.326685
C29	C	0.425732	-0.294616	0.294403
N30	N	0.533697	-0.267937	0.267817
N31	N	0.500864	-0.296859	0.296639
C32	C	1.016806	-0.418224	0.282182
C33	C	1.016820	-0.476338	0.282189
C34	C	1.062057	-0.838039	0.250175
C35	C	1.062084	-0.892644	0.250183
O36	O	1.100423	-0.922015	0.222933
N37	N	1.017048	-0.918627	0.282247
C38	C	0.971988	-0.890003	0.314311
O39	O	0.933684	-0.917117	0.341585
C40	C	0.971964	-0.835399	0.314305
C41	C	1.016998	-0.809418	0.282234
C42	C	1.107087	-0.812059	0.218107
C43	C	1.107059	-0.757457	0.218099
C44	C	1.062000	-0.728836	0.250158
C45	C	1.016969	-0.754817	0.282226
C46	C	0.926908	-0.806775	0.346371
C47	C	0.926889	-0.752167	0.346363
C48	C	0.971922	-0.726187	0.314292
C49	C	0.971882	-0.671595	0.314277
N50	N	1.016918	-0.645611	0.282212
C51	C	1.061977	-0.674232	0.250153
C52	C	0.972041	-1.004675	0.314320
C53	C	0.972060	-1.059278	0.314323
C54	C	1.062157	-1.061916	0.250196
C55	C	1.062134	-1.007312	0.250190
C56	C	1.017076	-0.978692	0.282255
C57	C	1.061913	-0.559565	0.250137
C58	C	1.061879	-0.504959	0.250130
C59	C	0.971784	-0.502326	0.314259
C60	C	0.971816	-0.556927	0.314264
C61	C	1.016886	-0.585546	0.282202
O62	O	0.933565	-0.642190	0.341514
O63	O	1.100280	-0.647111	0.222887
C64	C	1.200499	-0.287885	0.287696
C65	C	1.278727	-0.290229	0.290034
C66	C	1.016925	-0.282404	0.418582
C67	C	1.016925	-0.282412	0.476696
C68	C	1.017063	-0.146016	0.282249
C69	C	1.017121	-0.087903	0.282266
C70	C	1.061971	-0.250298	0.838420
C71	C	1.061971	-0.250295	0.893024
O72	O	1.100260	-0.222993	0.922418
N73	N	1.016930	-0.282383	0.918979
C74	C	0.971881	-0.314472	0.890326
O75	O	0.933569	-0.341764	0.917416
C76	C	0.971878	-0.314471	0.835723
C77	C	1.016927	-0.282385	0.809771
C78	C	1.107016	-0.218214	0.812468
C79	C	1.107017	-0.218218	0.757868
C80	C	1.061973	-0.250306	0.729219
C81	C	1.016928	-0.282389	0.755171
C82	C	0.926826	-0.346557	0.807071
C83	C	0.926827	-0.346554	0.752464
C84	C	0.971876	-0.314468	0.726512
C85	C	0.971885	-0.314481	0.671921
N86	N	1.016927	-0.282393	0.645967
C87	C	1.061971	-0.250305	0.674616
C88	C	0.971889	-0.314469	1.004997
C89	C	0.971895	-0.314472	1.059599
C90	C	1.061984	-0.250294	1.062294
C91	C	1.061981	-0.250294	1.007690
C92	C	1.016930	-0.282381	0.979042
C93	C	1.061970	-0.250316	0.559950
C94	C	1.061969	-0.250325	0.505345
C95	C	0.971877	-0.314500	0.502655
C96	C	0.971880	-0.314494	0.557256
C97	C	1.016929	-0.282398	0.585902
O98	O	0.933614	-0.341767	0.642494
O99	O	1.100269	-0.223013	0.647518
C100	C	1.016924	-0.282380	1.146367
C101	C	1.016936	-0.282382	1.088253
H102	H	1.098550	-0.483808	0.224012
H103	H	1.098660	-0.224165	1.085630
H104	H	0.890233	-0.827918	0.372484
H105	H	0.935148	-0.578082	0.340381
H106	H	0.935204	-0.340626	0.578387
H107	H	0.285587	-0.229659	0.229688
H108	H	0.935096	-0.479014	0.340360
H109	H	1.143700	-0.192089	0.736743
H110	H	0.748973	-0.335140	0.334766
H111	H	1.098849	-1.085229	0.224093
H112	H	1.098656	-0.224196	0.484218
H113	H	0.749040	-0.213595	0.213667
H114	H	0.285520	-0.351201	0.350787
H115	H	0.935343	-0.981375	0.340430
H116	H	0.418928	-0.233645	0.233647
H117	H	1.143783	-0.835356	0.192000
H118	H	0.890198	-0.728867	0.372476
H119	H	0.615632	-0.331154	0.330805
H120	H	1.143731	-0.736308	0.191985
H121	H	0.615686	-0.209617	0.209704
H122	H	1.098804	-0.986162	0.224076
H123	H	1.098650	-0.224179	0.583268
H124	H	0.935202	-0.340600	0.981675
H125	H	0.418871	-0.355186	0.354751
H126	H	0.935219	-0.340605	1.080725
H127	H	1.143696	-0.192082	0.835789
H128	H	1.098615	-0.582860	0.224030
H129	H	1.098663	-0.224166	0.986564
H130	H	0.890142	-0.372685	0.828191
H131	H	0.890132	-0.372678	0.729141
H132	H	0.935206	-0.340627	0.479320
H133	H	0.935382	-1.080426	0.340434
