data_functionalizedCrystal
_audit_creation_method	'MofGen! by Chris Wilmer'
_symmetry_space_group_name_H-M	'P1'
_symmetry_Int_Tables_number	1
_symmetry_cell_setting	triclinic
loop_
_symmetry_equiv_pos_as_xyz
  x,y,z
_cell_length_a	10.654534
_cell_length_b	10.540539
_cell_length_c	9.730223
_cell_angle_alpha	89.997733
_cell_angle_beta	90.004077
_cell_angle_gamma	95.498052
loop_
_atom_site_label
_atom_site_type_symbol
_atom_site_fract_x
_atom_site_fract_y
_atom_site_fract_z
O1	O	-1.667913	0.178204	-0.114309
O2	O	-1.302438	0.195212	-0.114305
O3	O	-1.493514	0.001998	-0.114305
O4	O	-1.476838	0.371418	-0.114309
O5	O	-1.493502	0.001993	0.114275
O6	O	-1.302426	0.195207	0.114275
O7	O	-1.667901	0.178199	0.114271
Zn8	Zn	-1.485162	0.186702	0.150565
Zn9	Zn	-1.485178	0.186709	-0.150599
O10	O	-1.476825	0.371413	0.114271
C11	C	-1.255633	0.193965	-0.000015
C12	C	-1.116188	0.190242	-0.000014
C13	C	-1.050676	0.188486	0.124588
C14	C	-0.919654	0.184966	0.124591
C15	C	-0.919668	0.184963	-0.124620
C16	C	-1.050688	0.188474	-0.124621
C17	C	-1.492257	-0.045307	-0.000018
C18	C	-1.488516	-0.186253	-0.000025
C19	C	-1.345143	-0.369620	-0.000537
C20	C	-1.348936	-0.223004	-0.000022
C21	C	-1.555680	-0.247942	0.130504
C22	C	-1.550917	-0.394485	0.130614
C23	C	-1.553770	-0.394998	-0.129324
C24	C	-1.555055	-0.248017	-0.131049
C25	C	-0.714705	0.179456	-0.000016
C26	C	-0.854146	0.183211	-0.000009
C27	C	-1.478082	0.418718	-0.000019
C28	C	-1.481824	0.559665	-0.000021
N29	N	-1.485160	0.186697	0.356101
N30	N	-1.485190	0.186705	-0.356135
C31	C	-1.569797	0.101178	0.428027
C32	C	-1.569810	0.101178	0.571910
C33	C	-1.400543	0.272228	0.571929
C34	C	-1.400526	0.272220	0.428048
H35	H	-0.866323	0.183525	-0.226071
H36	H	-1.104030	0.189900	-0.226093
N37	N	-1.497160	-0.194500	0.252381
N38	N	-1.560180	-0.137656	0.336840
H39	H	-1.518845	-0.099914	0.422915
H40	H	-1.331598	0.341860	0.369482
N41	N	-1.282631	-0.169538	-0.117404
N42	N	-1.233222	-0.240501	-0.200279
H43	H	-1.186384	-0.202746	-0.283181
N44	N	-1.117608	0.190295	0.251849
N45	N	-1.179936	0.281582	0.279640
H46	H	-1.227209	0.282859	0.369520
N47	N	-1.314116	0.359606	0.645420
N48	N	-1.316876	0.476960	0.629333
H49	H	-1.255835	0.538676	0.681233
N50	N	-1.682720	-0.217700	-0.140986
N51	N	-1.717664	-0.158682	-0.243375
H52	H	-1.807833	-0.137274	-0.250390
N53	N	-0.852757	0.183193	0.251883
N54	N	-0.856610	0.272916	0.335302
H55	H	-0.809366	0.271665	0.425211
N56	N	-1.275989	-0.405491	-0.117961
N57	N	-1.256971	-0.519525	-0.135739
H58	H	-1.208133	-0.544868	-0.218676
N59	N	-1.276256	-0.407498	0.116233
N60	N	-1.327388	-0.486347	0.199832
H61	H	-1.278740	-0.513102	0.282304
H62	H	-1.295706	-0.181228	0.093703
N63	N	-1.656246	0.013820	0.645401
N64	N	-1.656237	0.013818	0.773864
H65	H	-1.717277	-0.047891	0.825770
H66	H	-1.651300	-0.442495	0.136535
N67	N	-1.488632	-0.429827	0.253024
N68	N	-1.448975	-0.346301	0.337776
H69	H	-1.404983	-0.371254	0.424231
H70	H	-1.658183	-0.225631	0.135357
N71	N	-1.497130	-0.434570	-0.253441
N72	N	-1.490871	-0.550458	-0.276475
H73	H	-1.450861	-0.578409	-0.364129
H74	H	-1.505911	-0.207135	-0.227612
N75	N	-1.680255	-0.454262	-0.130426
N76	N	-1.752796	-0.436751	-0.032735
H77	H	-1.842126	-0.478604	-0.033503
N78	N	-1.656177	0.013736	0.354555
N79	N	-1.731687	-0.062666	0.418799
H80	H	-1.792666	-0.124456	0.366915
