data_functionalizedCrystal
_audit_creation_method	'MofGen! by Chris Wilmer'
_symmetry_space_group_name_H-M	'P1'
_symmetry_Int_Tables_number	1
_symmetry_cell_setting	triclinic
loop_
_symmetry_equiv_pos_as_xyz
  x,y,z
_cell_length_a	14.519731
_cell_length_b	13.596369
_cell_length_c	9.065218
_cell_angle_alpha	89.995874
_cell_angle_beta	95.647631
_cell_angle_gamma	90.005416
loop_
_atom_site_label
_atom_site_type_symbol
_atom_site_fract_x
_atom_site_fract_y
_atom_site_fract_z
O1	O	1.225273	0.081789	-0.193547
O2	O	0.956966	0.081791	-0.216289
O3	O	1.096665	0.081788	0.009828
O4	O	1.085574	0.081792	-0.419663
O5	O	1.096651	-0.081795	0.009840
O6	O	0.956952	-0.081792	-0.216277
O7	O	1.225259	-0.081793	-0.193535
Zn8	Zn	1.091103	-0.107765	-0.204904
Zn9	Zn	1.091122	0.107762	-0.204919
O10	O	1.085560	-0.081791	-0.419651
C11	C	0.922591	-0.000001	-0.215217
C12	C	0.820188	-0.000000	-0.212024
C13	C	0.737025	0.000004	-0.209429
C14	C	0.632692	0.000004	-0.206187
C15	C	0.549534	0.000004	-0.203614
C16	C	0.445195	0.000006	-0.200372
N17	N	1.091097	-0.254857	-0.204892
C18	C	1.091121	-0.656148	-0.204921
C19	C	1.091111	-0.544497	-0.204918
C20	C	1.091109	-0.455506	-0.204908
C21	C	1.091099	-0.343848	-0.204902
C22	C	1.259634	0.000000	-0.194606
C23	C	1.362037	0.000006	-0.197799
C24	C	1.095592	-0.000002	0.064801
C25	C	1.092405	0.000003	0.228584
N26	N	1.091135	0.254854	-0.204919
C27	C	1.086633	0.000001	-0.474624
C28	C	1.089820	0.000003	-0.638408
