data_functionalizedCrystal
_audit_creation_method	'MofGen! by Chris Wilmer'
_symmetry_space_group_name_H-M	'P1'
_symmetry_Int_Tables_number	1
_symmetry_cell_setting	triclinic
loop_
_symmetry_equiv_pos_as_xyz
  x,y,z
_cell_length_a	23.532361
_cell_length_b	13.339070
_cell_length_c	11.804365
_cell_angle_alpha	74.887832
_cell_angle_beta	78.233867
_cell_angle_gamma	80.770519
loop_
_atom_site_label
_atom_site_type_symbol
_atom_site_fract_x
_atom_site_fract_y
_atom_site_fract_z
O1	O	0.783259	-0.101893	-0.098900
O2	O	1.283259	0.398107	0.401100
O3	O	0.620262	-0.119675	-0.098928
O4	O	1.120262	0.380325	0.401072
O5	O	0.683053	0.036286	-0.098913
O6	O	1.183053	0.536286	0.401087
O7	O	0.720467	-0.257854	-0.098914
O8	O	1.220467	0.242146	0.401086
O9	O	0.666516	-0.004732	0.099139
O10	O	1.166516	0.495268	0.599139
O11	O	0.603725	-0.160693	0.099125
O12	O	1.103725	0.339307	0.599125
O13	O	0.766722	-0.142910	0.099152
O14	O	1.266722	0.357090	0.599152
Cu15	Cu	0.683713	-0.155547	0.117222
Cu16	Cu	1.183713	0.344453	0.617222
Cu17	Cu	0.703270	-0.107039	-0.116998
Cu18	Cu	1.203270	0.392961	0.383002
O19	O	0.703930	-0.298871	0.099138
O20	O	1.203930	0.201129	0.599138
C21	C	0.590705	-0.139738	0.000095
C22	C	1.090705	0.360262	0.500095
C23	C	0.527272	-0.138396	0.000084
C24	C	1.027272	0.361604	0.500084
C25	C	0.262097	-0.110181	-0.107867
C26	C	0.762097	0.389819	0.392133
C27	C	0.321702	-0.111448	-0.107870
C28	C	0.821702	0.388552	0.392130
O29	O	0.360194	-0.093054	-0.199682
O30	O	0.860194	0.406946	0.300318
N31	N	0.342496	-0.134447	0.000089
N32	N	0.842496	0.365553	0.500089
C33	C	0.303682	-0.156171	0.108057
C34	C	0.803682	0.343829	0.608057
O35	O	0.326842	-0.175849	0.199884
O36	O	0.826842	0.324151	0.699884
C37	C	0.244078	-0.154896	0.108059
C38	C	0.744078	0.345104	0.608059
C39	C	0.223288	-0.131905	0.000093
C40	C	0.723288	0.368095	0.500093
C41	C	0.241306	-0.087191	-0.215824
C42	C	0.741306	0.412809	0.284176
C43	C	0.181706	-0.085926	-0.215821
C44	C	0.681706	0.414074	0.284179
C45	C	0.142897	-0.107651	-0.107860
C46	C	0.642897	0.392349	0.392140
C47	C	0.163688	-0.130640	0.000097
C48	C	0.663688	0.369360	0.500097
C49	C	0.205264	-0.176611	0.216027
C50	C	0.705264	0.323389	0.716027
C51	C	0.145657	-0.175334	0.216019
C52	C	0.645657	0.324666	0.716019
C53	C	0.124867	-0.152343	0.108053
C54	C	0.624867	0.347657	0.608053
C55	C	0.065278	-0.151100	0.108060
C56	C	0.565278	0.348900	0.608060
N57	N	0.044484	-0.128100	0.000102
N58	N	0.544484	0.371900	0.500102
C59	C	0.083293	-0.106376	-0.107859
C60	C	0.583293	0.393624	0.392141
C61	C	0.428854	-0.158844	0.108046
C62	C	0.928854	0.341156	0.608046
C63	C	0.488457	-0.160126	0.108045
C64	C	0.988457	0.339874	0.608045
C65	C	0.506473	-0.115402	-0.107883
C66	C	1.006473	0.384598	0.392117
C67	C	0.446869	-0.114127	-0.107881
C68	C	0.946869	0.385873	0.392119
C69	C	0.408060	-0.135845	0.000087
C70	C	0.908060	0.364155	0.500087
C71	C	-0.041872	-0.103722	-0.107843
C72	C	0.458128	0.396278	0.392157
C73	C	-0.101478	-0.102463	-0.107830
C74	C	0.398522	0.397537	0.392170
C75	C	-0.119489	-0.147181	0.108097
C76	C	0.380511	0.352819	0.608097
C77	C	-0.059888	-0.148446	0.108085
C78	C	0.440112	0.351554	0.608085
C79	C	-0.021080	-0.126711	0.000105
C80	C	0.478920	0.373289	0.500105
O81	O	0.026752	-0.169479	0.199826
O82	O	0.526752	0.330521	0.699826
O83	O	0.060123	-0.086688	-0.199670
O84	O	0.560123	0.413312	0.300330
C85	C	0.668465	0.053402	0.000110
C86	C	1.168465	0.553402	0.500110
C87	C	0.649627	0.165510	0.000102
C88	C	1.149627	0.665510	0.500102
C89	C	0.796279	-0.122847	0.000127
C90	C	1.296279	0.377153	0.500127
C91	C	0.859713	-0.124187	0.000130
C92	C	1.359713	0.375813	0.500130
C93	C	0.718519	-0.315987	0.000112
C94	C	1.218519	0.184013	0.500112
C95	C	0.737357	-0.428094	0.000112
C96	C	1.237357	0.071906	0.500112
N97	N	0.669962	-0.189664	0.281960
N98	N	1.169962	0.310336	0.781960
C99	C	0.796102	0.531813	0.000127
C100	C	1.296102	1.031813	0.500127
C101	C	0.813802	0.426481	0.000142
C102	C	1.313802	0.926481	0.500142
C103	C	0.772760	0.361233	0.000131
C104	C	1.272760	0.861233	0.500131
C105	C	0.714015	0.401328	0.000108
C106	C	1.214015	0.901328	0.500108
C107	C	0.696312	0.506669	0.000103
C108	C	1.196312	1.006669	0.500103
C109	C	0.672970	0.336089	0.000107
C110	C	1.172970	0.836089	0.500107
C111	C	0.614224	0.376184	0.000083
C112	C	1.114224	0.876184	0.500083
C113	C	0.596525	0.481515	0.000077
C114	C	1.096525	0.981515	0.500077
C115	C	0.637567	0.546762	0.000088
C116	C	1.137567	1.046762	0.500088
C117	C	0.690672	0.230748	0.000111
C118	C	1.190672	0.730748	0.500111
C119	C	0.590882	0.205603	0.000087
C120	C	1.090882	0.705603	0.500087
C121	C	0.573182	0.310936	0.000073
C122	C	1.073182	0.810936	0.500073
N123	N	0.717025	-0.072914	-0.281735
N124	N	1.217025	0.427086	0.218265
C125	C	0.750044	0.009034	0.655926
C126	C	1.250044	0.509034	1.155926
C127	C	0.760445	0.034848	0.531267
C128	C	1.260445	0.534848	1.031267
C129	C	0.737825	-0.021278	0.468934
C130	C	1.237825	0.478722	0.968934
C131	C	0.704802	-0.103222	0.531273
C132	C	1.204802	0.396778	1.031273
C133	C	0.694403	-0.129044	0.655944
C134	C	1.194403	0.370956	1.155944
C135	C	0.682185	-0.159355	0.468952
C136	C	1.182185	0.340645	0.968952
C137	C	0.649162	-0.241300	0.531291
C138	C	1.149162	0.258700	1.031291
C139	C	0.638764	-0.267117	0.655950
C140	C	1.138764	0.232883	1.155950
C141	C	0.661384	-0.210991	0.718283
C142	C	1.161384	0.289009	1.218283
C143	C	0.692583	-0.133534	0.344280
C144	C	1.192583	0.366466	0.844280
C145	C	0.636943	-0.271611	0.344298
C146	C	1.136943	0.228389	0.844298
C147	C	0.626541	-0.297425	0.468958
C148	C	1.126541	0.202575	0.968958
H149	H	-0.010281	-0.086024	-0.195771
H150	H	0.489719	0.413976	0.304229
N151	N	0.650168	-0.238842	0.852741
N152	N	1.150168	0.261158	1.352741
H153	H	0.606706	-0.230728	0.882778
H154	H	1.106706	0.269272	1.382778
H155	H	0.669542	-0.190833	0.882666
H156	H	1.169542	0.309167	1.382666
N157	N	0.796059	0.123223	0.464032
N158	N	1.296059	0.623223	0.964032
H159	H	0.836446	0.107470	0.485725
H160	H	1.336446	0.607470	0.985725
H161	H	0.776331	0.190314	0.485756
H162	H	1.276331	0.690314	0.985756
H163	H	0.719471	-0.066815	0.293535
H164	H	1.219471	0.433185	0.793535
H165	H	0.164785	-0.067201	-0.303738
H166	H	0.664785	0.432799	0.196262
H167	H	0.746295	-0.000256	0.367431
H168	H	1.246295	0.499744	0.867431
H169	H	0.599654	-0.364147	0.519729
H170	H	1.099654	0.135853	1.019729
H171	H	0.429947	-0.095406	-0.195796
H172	H	0.929947	0.404594	0.304204
N173	N	0.546612	0.135242	0.000063
N174	N	1.046612	0.635242	0.500063
H175	H	0.506711	0.176622	0.000056
H176	H	1.006711	0.676622	0.500056
H177	H	0.545652	0.075784	0.073483
H178	H	1.045652	0.575784	0.573483
N179	N	0.840363	0.602178	0.000159
N180	N	1.340363	1.102178	0.500159
H181	H	0.820232	0.674989	0.000159
H182	H	1.320232	1.174989	0.500159
H183	H	0.871380	0.604470	-0.073251
H184	H	1.371380	1.104470	0.426749
H185	H	0.768462	0.054719	0.706686
H186	H	1.268462	0.554719	1.206686
H187	H	0.397259	-0.176543	0.195972
H188	H	0.897259	0.323457	0.695972
H189	H	0.623158	0.632535	0.000072
H190	H	1.123158	1.132535	0.500072
H191	H	0.611881	-0.333848	0.706706
H192	H	1.111881	0.166152	1.206706
H193	H	0.538083	-0.097712	-0.195790
H194	H	1.038083	0.402288	0.304210
H195	H	-0.042958	-0.167187	0.195999
H196	H	0.457042	0.332813	0.695999
N197	N	0.103799	-0.198754	0.332475
N198	N	0.603799	0.301246	0.832475
H199	H	0.125960	-0.212820	0.400857
H200	H	0.625960	0.287180	0.900857
H201	H	0.084240	-0.262242	0.337540
H202	H	0.584240	0.237758	0.837540
H203	H	0.618525	-0.317316	0.293548
H204	H	1.118525	0.182684	0.793548
N205	N	0.533162	0.524756	0.000085
N206	N	1.033162	1.024756	0.500085
H207	H	0.509847	0.467442	0.000084
H208	H	1.009847	0.967442	0.500084
H209	H	0.529770	0.583120	-0.073332
H210	H	1.029770	1.083120	0.426668
H211	H	0.525350	0.343596	0.000054
H212	H	1.025350	0.843596	0.500054
H213	H	0.272900	-0.069496	-0.303743
H214	H	0.772900	0.430504	0.196257
N215	N	-0.123901	-0.077665	-0.224283
N216	N	0.376099	0.422335	0.275717
H217	H	-0.090268	-0.064091	-0.292673
H218	H	0.409732	0.435909	0.207327
H219	H	-0.153514	-0.013547	-0.228984
H220	H	0.346486	0.486453	0.271016
H221	H	0.505380	-0.178864	0.195962
H222	H	1.005380	0.321136	0.695962
H223	H	-0.151098	-0.164873	0.195995
H224	H	0.348902	0.335127	0.695995
N225	N	0.227671	-0.201410	0.332484
N226	N	0.727671	0.298590	0.832484
H227	H	0.208079	-0.148341	0.379670
H228	H	0.708079	0.351659	0.879670
H229	H	0.271320	-0.198943	0.316031
H230	H	0.771320	0.301057	0.816031
N231	N	0.754029	0.187512	0.000139
N232	N	1.254029	0.687512	0.500139
H233	H	0.778894	0.226543	-0.073273
H234	H	1.278894	0.726543	0.426727
H235	H	0.758966	0.110880	0.000189
H236	H	1.258966	0.610880	0.500189
N237	N	0.791847	0.247626	0.000133
N238	N	1.291847	0.747626	0.500133
H239	H	0.809567	0.211980	0.073556
H240	H	1.309567	0.711980	0.573556
H241	H	0.821812	0.242489	-0.073329
H242	H	1.321812	0.742489	0.426671
N243	N	0.877158	0.383235	0.000173
N244	N	1.377158	0.883235	0.500173
H245	H	0.900472	0.440550	0.000177
H246	H	1.400472	0.940550	0.500177
H247	H	0.892809	0.355279	-0.073242
H248	H	1.392809	0.855279	0.426758
