data_functionalizedCrystal
_audit_creation_method	'MofGen! by Chris Wilmer'
_symmetry_space_group_name_H-M	'P1'
_symmetry_Int_Tables_number	1
_symmetry_cell_setting	triclinic
loop_
_symmetry_equiv_pos_as_xyz
  x,y,z
_cell_length_a	14.971482
_cell_length_b	8.559649
_cell_length_c	13.448316
_cell_angle_alpha	89.994831
_cell_angle_beta	89.993798
_cell_angle_gamma	76.695636
loop_
_atom_site_label
_atom_site_type_symbol
_atom_site_fract_x
_atom_site_fract_y
_atom_site_fract_z
O1	O	1.172525	0.208175	-0.082674
O2	O	0.910396	0.233114	-0.082679
O3	O	1.064554	-0.011914	-0.082675
O4	O	1.018367	0.453203	-0.082678
O5	O	1.064538	-0.011929	0.082709
O6	O	0.910380	0.233099	0.082705
O7	O	1.172508	0.208160	0.082710
Cu8	Cu	1.041443	0.220628	0.097808
Cu9	Cu	1.041462	0.220646	-0.097777
O10	O	1.018350	0.453188	0.082706
C11	C	0.877140	0.231992	0.000013
C12	C	0.778074	0.228653	0.000011
C13	C	0.731530	0.227072	0.090163
C14	C	0.638451	0.223909	0.090164
C15	C	0.591916	0.222339	0.000012
C16	C	0.638468	0.223915	-0.090147
C17	C	0.731547	0.227066	-0.090147
C18	C	0.444461	0.217350	-0.090140
C19	C	0.351374	0.214202	-0.090141
C20	C	0.351364	0.214193	0.090170
C21	C	0.444444	0.217345	0.090170
C22	C	0.490988	0.218924	0.000011
C23	C	1.068046	-0.071445	0.000015
C24	C	1.078465	-0.248805	0.000010
C25	C	1.205764	0.209282	0.000016
C26	C	1.304830	0.212621	0.000011
C27	C	1.014858	0.512719	0.000014
C28	C	1.004439	0.690079	0.000013
N29	N	1.041436	0.220614	0.235373
N30	N	1.041477	0.220647	-0.235342
C31	C	1.109713	0.112161	0.287414
C32	C	1.109718	0.112159	0.391518
C33	C	1.041450	0.220621	0.443577
C34	C	0.973166	0.329080	0.391528
C35	C	0.973158	0.329072	0.287427
C36	C	0.973190	0.329090	0.608508
C37	C	0.973200	0.329100	0.712617
C38	C	1.109751	0.112178	0.712599
C39	C	1.109743	0.112170	0.608498
C40	C	1.041459	0.220632	0.556456
H41	H	0.769410	0.228364	0.163575
H42	H	1.165349	0.023865	0.754978
H43	H	0.917608	0.417419	0.754998
O44	O	0.899540	0.446074	0.447678
H45	H	0.852058	0.521483	0.393998
H46	H	0.313463	0.212908	0.163581
H47	H	0.917559	0.417384	0.245055
H48	H	1.165335	0.023861	0.566111
H49	H	0.917584	0.417406	0.566139
H50	H	1.149817	-0.332176	0.000019
O51	O	1.183373	-0.004785	0.447653
H52	H	1.230854	-0.080182	0.393963
H53	H	0.600562	0.222595	0.163575
O54	O	1.183342	-0.004829	0.231265
H55	H	1.230814	-0.080256	0.284947
H56	H	0.482328	0.218633	0.163580
H57	H	0.313488	0.212924	-0.163550
H58	H	0.482354	0.218637	-0.163557
O59	O	0.588287	0.222200	-0.187386
H60	H	0.590713	0.331603	-0.230627
O61	O	0.781754	0.228782	-0.187381
H62	H	0.733758	0.227177	-0.250070
O63	O	0.909925	-0.199517	0.000013
H64	H	0.901559	-0.122700	-0.067401
