data_functionalizedCrystal
_audit_creation_method	'MofGen! by Chris Wilmer'
_symmetry_space_group_name_H-M	'P1'
_symmetry_Int_Tables_number	1
_symmetry_cell_setting	triclinic
loop_
_symmetry_equiv_pos_as_xyz
  x,y,z
_cell_length_a	15.944551
_cell_length_b	15.944493
_cell_length_c	14.421503
_cell_angle_alpha	90.010165
_cell_angle_beta	89.996859
_cell_angle_gamma	83.486891
loop_
_atom_site_label
_atom_site_type_symbol
_atom_site_fract_x
_atom_site_fract_y
_atom_site_fract_z
O1	O	1.114507	0.108323	-0.077003
O2	O	1.364507	0.358323	0.172997
O3	O	1.614507	0.608323	0.422997
O4	O	1.864507	0.858323	0.672997
O5	O	0.869954	0.121680	-0.077024
O6	O	1.119954	0.371680	0.172976
O7	O	1.369954	0.621680	0.422976
O8	O	1.619954	0.871680	0.672976
O9	O	0.998934	-0.007276	-0.077021
O10	O	1.248934	0.242724	0.172979
O11	O	1.498934	0.492724	0.422979
O12	O	1.748934	0.742724	0.672979
O13	O	0.985527	0.237280	-0.077006
O14	O	1.235527	0.487280	0.172994
O15	O	1.485527	0.737280	0.422994
O16	O	1.735527	0.987280	0.672994
O17	O	0.998913	-0.007257	0.077203
O18	O	1.248913	0.242743	0.327203
O19	O	1.498913	0.492743	0.577203
O20	O	1.748913	0.742743	0.827203
O21	O	0.869933	0.121699	0.077199
O22	O	1.119933	0.371699	0.327199
O23	O	1.369933	0.621699	0.577199
O24	O	1.619933	0.871699	0.827199
O25	O	1.114485	0.108343	0.077221
O26	O	1.364485	0.358343	0.327221
O27	O	1.614485	0.608343	0.577221
O28	O	1.864485	0.858343	0.827221
Cu29	Cu	0.992207	0.115023	0.091292
Cu30	Cu	1.242207	0.365023	0.341292
Cu31	Cu	1.492207	0.615023	0.591292
Cu32	Cu	1.742207	0.865023	0.841292
Cu33	Cu	0.992232	0.115000	-0.091095
Cu34	Cu	1.242232	0.365000	0.158905
Cu35	Cu	1.492232	0.615000	0.408905
Cu36	Cu	1.742232	0.865000	0.658905
O37	O	0.985506	0.237299	0.077217
O38	O	1.235506	0.487299	0.327217
O39	O	1.485506	0.737299	0.577217
O40	O	1.735506	0.987299	0.827217
C41	C	0.838650	0.121135	0.000084
C42	C	1.088650	0.371135	0.250084
C43	C	1.338650	0.621135	0.500084
C44	C	1.588650	0.871135	0.750084
C45	C	0.745404	0.119473	0.000076
C46	C	0.995404	0.369473	0.250076
C47	C	1.245404	0.619473	0.500076
C48	C	1.495404	0.869473	0.750076
C49	C	0.530565	0.035566	0.000089
C50	C	0.780565	0.285566	0.250089
C51	C	1.030565	0.535566	0.500089
C52	C	1.280565	0.785566	0.750089
C53	C	0.469547	0.074520	-0.075949
C54	C	0.719547	0.324520	0.174051
C55	C	0.969547	0.574520	0.424051
C56	C	1.219547	0.824520	0.674051
C57	C	0.574679	0.116465	0.000086
C58	C	0.824679	0.366465	0.250086
C59	C	1.074679	0.616465	0.500086
C60	C	1.324679	0.866465	0.750086
C61	C	0.469548	0.074558	0.076103
C62	C	0.719548	0.324558	0.326103
C63	C	0.969548	0.574558	0.576103
C64	C	1.219548	0.824558	0.826103
C65	C	0.409767	0.113555	0.000101
C66	C	0.659767	0.363555	0.250101
C67	C	0.909767	0.613555	0.500101
C68	C	1.159767	0.863555	0.750101
C69	C	0.514889	0.155442	-0.076014
C70	C	0.764889	0.405442	0.173986
C71	C	1.014889	0.655442	0.423986
C72	C	1.264889	0.905442	0.673986
C73	C	0.514897	0.155468	0.076106
C74	C	0.764897	0.405468	0.326106
C75	C	1.014897	0.655468	0.576106
C76	C	1.264897	0.905468	0.826106
C77	C	0.453897	0.194481	0.000050
C78	C	0.703897	0.444481	0.250050
C79	C	0.953897	0.694481	0.500050
C80	C	1.203897	0.944481	0.750050
C81	C	0.669681	0.118140	0.000077
C82	C	0.919681	0.368140	0.250077
C83	C	1.169681	0.618140	0.500077
C84	C	1.419681	0.868140	0.750077
C85	C	0.314766	0.111886	0.000103
C86	C	0.564766	0.361886	0.250103
C87	C	0.814766	0.611886	0.500103
C88	C	1.064766	0.861886	0.750103
C89	C	0.998375	-0.038562	0.000087
C90	C	1.248375	0.211438	0.250087
C91	C	1.498375	0.461438	0.500087
C92	C	1.748375	0.711438	0.750087
C93	C	0.996733	-0.131810	0.000075
C94	C	1.246733	0.118190	0.250075
C95	C	1.496733	0.368190	0.500075
C96	C	1.746733	0.618190	0.750075
C97	C	1.072653	-0.367570	0.000099
C98	C	1.322653	-0.117570	0.250099
C99	C	1.572653	0.132430	0.500099
C100	C	1.822653	0.382430	0.750099
C101	C	1.031722	-0.418148	-0.075944
C102	C	1.281722	-0.168148	0.174056
C103	C	1.531722	0.081852	0.424056
C104	C	1.781722	0.331852	0.674056
C105	C	0.993688	-0.302531	0.000086
C106	C	1.243688	-0.052531	0.250086
C107	C	1.493688	0.197469	0.500086
C108	C	1.743688	0.447469	0.750086
C109	C	1.031683	-0.418105	0.076108
C110	C	1.281683	-0.168105	0.326108
C111	C	1.531683	0.081895	0.576108
C112	C	1.781683	0.331895	0.826108
C113	C	0.990754	-0.467441	0.000101
C114	C	1.240754	-0.217441	0.250101
C115	C	1.490754	0.032559	0.500101
C116	C	1.740754	0.282559	0.750101
C117	C	0.952779	-0.351881	-0.076020
C118	C	1.202779	-0.101881	0.173980
C119	C	1.452779	0.148119	0.423980
C120	C	1.702779	0.398119	0.673980
C121	C	0.952751	-0.351834	0.076101
C122	C	1.202751	-0.101834	0.326101
C123	C	1.452751	0.148166	0.576101
C124	C	1.702751	0.398166	0.826101
C125	C	0.911763	-0.402379	0.000039
C126	C	1.161763	-0.152379	0.250039
C127	C	1.411763	0.097621	0.500039
C128	C	1.661763	0.347621	0.750039
C129	C	0.995381	-0.207531	0.000077
C130	C	1.245381	0.042469	0.250077
C131	C	1.495381	0.292469	0.500077
C132	C	1.745381	0.542469	0.750077
C133	C	0.989055	-0.562438	0.000104
C134	C	1.239055	-0.312438	0.250104
C135	C	1.489055	-0.062438	0.500104
C136	C	1.739055	0.187562	0.750104
C137	C	1.145790	0.108888	0.000110
C138	C	1.395790	0.358888	0.250110
C139	C	1.645790	0.608888	0.500110
C140	C	1.895790	0.858888	0.750110
C141	C	1.239036	0.110550	0.000113
C142	C	1.489036	0.360550	0.250113
C143	C	1.739036	0.610550	0.500113
C144	C	1.989036	0.860550	0.750113
C145	C	0.986064	0.268584	0.000107
C146	C	1.236064	0.518584	0.250107
C147	C	1.486064	0.768584	0.500107
C148	C	1.736064	1.018584	0.750107
C149	C	0.987707	0.361833	0.000113
C150	C	1.237707	0.611833	0.250113
C151	C	1.487707	0.861833	0.500113
C152	C	1.737707	1.111833	0.750113
N153	N	0.992196	0.115038	0.219573
N154	N	1.242196	0.365038	0.469573
N155	N	1.492196	0.615038	0.719573
N156	N	1.742196	0.865038	0.969573
N157	N	0.992251	0.114978	-0.219377
N158	N	1.242251	0.364978	0.030623
N159	N	1.492251	0.614978	0.280623
N160	N	1.742251	0.864978	0.530623
C161	C	0.932545	0.174641	0.469225
C162	C	1.182545	0.424641	0.719225
C163	C	1.432545	0.674641	0.969225
C164	C	1.682545	0.924641	1.219225
C165	C	1.008441	0.190949	0.531036
C166	C	1.258441	0.440949	0.781036
C167	C	1.508441	0.690949	1.031036
C168	C	1.758441	0.940949	1.281036
C169	C	0.992216	0.115018	0.408734
C170	C	1.242216	0.365018	0.658734
C171	C	1.492216	0.615018	0.908734
C172	C	1.742216	0.865018	1.158734
C173	C	0.916339	0.098730	0.531018
C174	C	1.166339	0.348730	0.781018
C175	C	1.416339	0.598730	1.031018
C176	C	1.666339	0.848730	1.281018
C177	C	0.992229	0.115001	0.591456
C178	C	1.242229	0.365001	0.841456
C179	C	1.492229	0.615001	1.091456
C180	C	1.742229	0.865001	1.341456
C181	C	1.068151	0.131364	0.469184
C182	C	1.318151	0.381364	0.719184
C183	C	1.568151	0.631364	0.969184
C184	C	1.818151	0.881364	1.219184
C185	C	0.975998	0.039112	0.469161
C186	C	1.225998	0.289112	0.719161
C187	C	1.475998	0.539112	0.969161
C188	C	1.725998	0.789112	1.219161
C189	C	1.051950	0.055388	0.530944
C190	C	1.301950	0.305388	0.780944
C191	C	1.551950	0.555388	1.030944
C192	C	1.801950	0.805388	1.280944
C193	C	0.992207	0.115030	0.303473
C194	C	1.242207	0.365030	0.553473
C195	C	1.492207	0.615030	0.803473
C196	C	1.742207	0.865030	1.053473
C197	C	0.992246	0.114988	0.696715
C198	C	1.242246	0.364988	0.946715
C199	C	1.492246	0.614988	1.196715
C200	C	1.742246	0.864988	1.446715
H201	H	0.420724	0.261690	0.000011
H202	H	0.670724	0.511690	0.250011
H203	H	0.920724	0.761690	0.500011
H204	H	1.170724	1.011690	0.750011
H205	H	0.843692	-0.417845	-0.000009
H206	H	1.093692	-0.167845	0.249991
H207	H	1.343692	0.082155	0.499991
H208	H	1.593692	0.332155	0.749991
H209	H	0.919423	-0.322866	0.140387
H210	H	1.169423	-0.072866	0.390387
H211	H	1.419423	0.177134	0.640387
H212	H	1.669423	0.427134	0.890387
F213	F	0.541192	0.200167	0.160140
F214	F	0.791192	0.450167	0.410140
F215	F	1.041192	0.700167	0.660140
F216	F	1.291192	0.950167	0.910140
F217	F	0.443293	0.029827	0.160125
F218	F	0.693293	0.279827	0.410125
F219	F	0.943293	0.529827	0.660125
F220	F	1.193293	0.779827	0.910125
F221	F	0.958023	-0.044756	0.433607
F222	F	1.208023	0.205244	0.683607
F223	F	1.458023	0.455244	0.933607
F224	F	1.708023	0.705244	1.183607
H225	H	0.563912	-0.031574	-0.000009
H226	H	0.813912	0.218426	0.249991
H227	H	1.063912	0.468426	0.499991
H228	H	1.313912	0.718426	0.749991
F229	F	1.161556	-0.347140	0.000010
F230	F	1.411556	-0.097140	0.250010
F231	F	1.661556	0.152860	0.500010
F232	F	1.911556	0.402860	0.750010
H233	H	0.449453	0.040295	-0.140238
H234	H	0.699453	0.290295	0.109762
H235	H	0.949453	0.540295	0.359762
H236	H	1.199453	0.790295	0.609762
H237	H	1.065079	-0.447101	-0.140228
H238	H	1.315079	-0.197101	0.109772
H239	H	1.565079	0.052899	0.359772
H240	H	1.815079	0.302899	0.609772
F241	F	0.866655	0.240595	0.433800
F242	F	1.116655	0.490595	0.683800
F243	F	1.366655	0.740595	0.933800
F244	F	1.616655	0.990595	1.183800
F245	F	0.909230	-0.314225	-0.160142
F246	F	1.159230	-0.064225	0.089858
F247	F	1.409230	0.185775	0.339858
F248	F	1.659230	0.435775	0.589858
H249	H	0.534879	0.189625	-0.140369
H250	H	0.784879	0.439625	0.109631
H251	H	1.034879	0.689625	0.359631
H252	H	1.284879	0.939625	0.609631
H253	H	1.022171	0.255133	0.558213
H254	H	1.272171	0.505133	0.808213
H255	H	1.522171	0.755133	1.058213
H256	H	1.772171	1.005133	1.308213
F257	F	1.075279	-0.455908	0.160134
F258	F	1.325279	-0.205908	0.410134
F259	F	1.575279	0.044092	0.660134
F260	F	1.825279	0.294092	0.910134
H261	H	1.132338	0.145209	0.442138
H262	H	1.382338	0.395209	0.692138
H263	H	1.632338	0.645209	0.942138
H264	H	1.882338	0.895209	1.192138
H265	H	0.852166	0.084961	0.558181
H266	H	1.102166	0.334961	0.808181
H267	H	1.352166	0.584961	1.058181
H268	H	1.602166	0.834961	1.308181
H269	H	1.102473	0.004956	0.557873
H270	H	1.352473	0.254956	0.807873
H271	H	1.602473	0.504956	1.057873
H272	H	1.852473	0.754956	1.307873
