data_functionalizedCrystal
_audit_creation_method	'MofGen! by Chris Wilmer'
_symmetry_space_group_name_H-M	'P1'
_symmetry_Int_Tables_number	1
_symmetry_cell_setting	triclinic
loop_
_symmetry_equiv_pos_as_xyz
  x,y,z
_cell_length_a	16.959454
_cell_length_b	16.959455
_cell_length_c	12.759393
_cell_angle_alpha	89.978381
_cell_angle_beta	89.970360
_cell_angle_gamma	90.017022
loop_
_atom_site_label
_atom_site_type_symbol
_atom_site_fract_x
_atom_site_fract_y
_atom_site_fract_z
Zn1	Zn	-0.314708	1.208441	-0.594045
Zn2	Zn	-0.446907	1.208346	-0.418368
Zn3	Zn	-0.314739	1.076252	-0.418378
Zn4	Zn	-0.446841	1.076234	-0.594003
O5	O	-0.380799	1.142318	-0.506199
O6	O	-0.332259	1.319039	-0.570755
O7	O	-0.429415	1.190792	-0.271348
O8	O	-0.204124	1.093835	-0.441703
O9	O	-0.429385	1.318970	-0.441685
O10	O	-0.204101	1.190953	-0.570765
O11	O	-0.332312	1.093743	-0.271356
O12	O	-0.332248	0.965639	-0.441662
O13	O	-0.429273	1.093803	-0.741030
O14	O	-0.429303	0.965625	-0.570693
O15	O	-0.332195	1.190935	-0.741061
O16	O	-0.557509	1.190774	-0.441645
O17	O	-0.557461	1.093712	-0.570683
C18	C	-0.380773	0.936952	-0.506175
C19	C	-0.380780	0.849095	-0.506189
C20	C	-0.586165	1.142252	-0.506181
C21	C	-0.674022	1.142296	-0.506208
C22	C	-0.330221	0.477603	-0.439153
C23	C	-0.431441	0.477637	-0.573305
C24	C	-0.431430	0.560183	-0.573299
C25	C	-0.380814	0.601442	-0.506217
C26	C	-0.330210	0.560156	-0.439142
C27	C	-0.482039	0.601476	-0.640365
C28	C	-0.482031	0.684027	-0.640360
C29	C	-0.431410	0.725288	-0.573283
C30	C	-0.380803	0.683996	-0.506206
C31	C	-0.330187	0.725255	-0.439125
C32	C	-0.279575	0.683965	-0.372053
C33	C	-0.279589	0.601417	-0.372065
C34	C	-0.431396	0.807836	-0.573271
C35	C	-0.330176	0.807809	-0.439114
C36	C	-1.045502	1.091851	-0.573382
C37	C	-1.045492	1.193006	-0.439123
C38	C	-0.962946	1.192978	-0.439113
C39	C	-0.921674	1.142385	-0.506238
C40	C	-0.962948	1.091820	-0.573372
C41	C	-0.921666	1.243536	-0.371972
C42	C	-0.839115	1.243510	-0.371959
C43	C	-0.797842	1.192921	-0.439090
C44	C	-0.839121	1.142355	-0.506228
C45	C	-0.797849	1.091762	-0.573353
C46	C	-0.839126	1.041199	-0.640497
C47	C	-0.921675	1.041231	-0.640503
C48	C	-0.715293	1.192889	-0.439084
C49	C	-0.715295	1.091731	-0.573343
C50	C	-0.174630	1.142406	-0.506240
C51	C	-0.086774	1.142444	-0.506257
C52	C	-0.380723	1.142377	-0.780232
C53	C	-0.380690	1.142403	-0.897009
C54	C	-0.380825	1.348486	-0.506224
C55	C	-0.380837	1.436343	-0.506234
C56	C	-0.330134	1.192983	-0.951889
C57	C	-0.330100	1.192996	-1.061613
C58	C	-0.431186	1.091847	-1.061568
C59	C	-0.431215	1.091830	-0.951846
C60	C	-0.380817	1.142305	-0.233231
C61	C	-0.380627	1.142433	-0.116455
H62	H	-0.288953	0.841397	-0.384494
H63	H	-0.523241	0.717638	-0.694975
Cl64	Cl	-1.097378	1.256605	-0.354743
H65	H	-0.472384	1.050636	-0.907161
H66	H	-0.238367	0.717570	-0.317430
Cl67	Cl	-0.787231	1.307081	-0.287561
H68	H	-0.238385	0.567791	-0.317457
H69	H	-0.472606	0.841451	-0.627877
Cl70	Cl	-0.266547	1.256593	-1.130600
Cl71	Cl	-0.494703	1.028278	-1.130513
H72	H	-0.289012	0.443981	-0.384547
Cl73	Cl	-0.663417	1.028129	-0.657739
Cl74	Cl	-0.266614	1.256556	-0.882955
H75	H	-0.805513	1.000002	-0.695145
H76	H	-0.955290	1.000065	-0.695167
H77	H	-0.523254	0.567876	-0.694971
Cl78	Cl	-0.495086	0.425767	-0.657609
H79	H	-1.079114	1.050686	-0.628052
Cl80	Cl	-0.973554	1.307139	-0.287600
H81	H	-0.681689	1.234053	-0.384411
