data_functionalizedCrystal
_audit_creation_method	'MofGen! by Chris Wilmer'
_symmetry_space_group_name_H-M	'P1'
_symmetry_Int_Tables_number	1
_symmetry_cell_setting	triclinic
loop_
_symmetry_equiv_pos_as_xyz
  x,y,z
_cell_length_a	23.096457
_cell_length_b	17.917559
_cell_length_c	17.917603
_cell_angle_alpha	90.239563
_cell_angle_beta	116.963056
_cell_angle_gamma	122.989102
loop_
_atom_site_label
_atom_site_type_symbol
_atom_site_fract_x
_atom_site_fract_y
_atom_site_fract_z
Zr1	Zr	-0.575916	0.757840	-0.060785
O2	O	-0.696706	0.638418	-0.180200
O3	O	-0.455128	0.794447	-0.024181
O4	O	-0.564898	0.801559	-0.173088
O5	O	-0.595625	0.625699	0.086170
O6	O	-0.556205	0.930251	-0.167474
O7	O	-0.586935	0.631306	-0.031293
O8	O	-0.359846	0.917528	0.098893
O9	O	-0.791984	0.638421	-0.180197
O10	O	-0.498321	0.906103	-0.004377
O11	O	-0.511294	0.805878	0.079096
O12	O	-0.640535	0.814251	-0.096223
O13	O	-0.653508	0.714026	-0.012751
Zr14	Zr	-0.575911	0.954145	0.135509
Zr15	Zr	-0.562051	0.963088	-0.051832
Zr16	Zr	-0.589775	0.748897	0.126556
Zr17	Zr	-0.727874	0.757845	-0.060780
Zr18	Zr	-0.423952	0.954140	0.135504
O19	O	-0.696699	0.917538	0.098905
O20	O	-0.676992	0.930254	-0.167470
O21	O	-0.716412	0.625702	0.086175
O22	O	-0.455121	1.073567	0.254924
O23	O	-0.435414	1.086283	-0.011451
O24	O	-0.474835	0.781731	0.242194
O25	O	-0.556201	1.086287	-0.011446
O26	O	-0.586928	0.910426	0.247812
O27	O	-0.595621	0.781735	0.242198
O28	O	-0.564891	1.080679	0.106017
O29	O	-0.780964	0.801566	-0.173080
O30	O	-0.370863	0.910419	0.247804
O31	O	-0.359842	1.073564	0.254921
O32	O	-0.348826	1.080673	0.106010
O33	O	-0.803001	0.631313	-0.031286
O34	O	-0.791980	0.794457	-0.024169
O35	O	-0.511292	0.897734	0.170947
O36	O	-0.498319	0.997959	0.087475
O37	O	-0.640532	0.906108	-0.004372
O38	O	-0.653505	0.805882	0.079101
C39	C	-0.385836	0.855987	0.037355
C40	C	-0.321326	0.855985	0.037353
C41	C	0.086703	0.788203	-0.030452
C42	C	0.026084	0.788195	-0.030451
C43	C	0.048263	0.856002	0.037352
C44	C	0.131069	0.923807	0.105171
C45	C	0.191685	0.923808	0.105173
N46	N	-0.003609	0.939141	0.060613
N47	N	-0.061194	0.939137	0.060606
C48	C	-0.134366	0.856002	0.037352
N49	N	-0.147783	0.772868	0.014088
N50	N	-0.090193	0.772872	0.014091
C51	C	-0.017458	0.856008	0.037358
C52	C	-0.282891	0.788188	-0.030459
C53	C	-0.343510	0.788178	-0.030452
C54	C	-0.238521	0.923798	0.105168
C55	C	-0.177906	0.923800	0.105164
C56	C	-0.200096	0.855995	0.037346
C57	C	-0.593256	0.599259	0.026163
C58	C	-0.599142	0.512126	0.022362
C59	C	0.234009	0.855999	0.037365
C60	C	0.169495	0.856003	0.037355
C61	C	-0.541944	0.359368	0.059301
C62	C	-0.609880	0.352624	0.015426
C63	C	-0.603903	0.441380	0.019286
C64	C	-0.547919	0.270606	0.055441
C65	C	-0.558577	0.867179	-0.196973
C66	C	-0.552693	0.870976	-0.276505
C67	C	-0.558571	1.112726	0.048561
C68	C	-0.552685	1.199859	0.052362
C69	C	-0.541945	0.877931	-0.422134
C70	C	-0.609879	0.834057	-0.503145
C71	C	-0.603898	0.837926	-0.584178
C72	C	-0.547924	0.874062	-0.341092
C73	C	-0.593250	0.844806	0.271697
C74	C	-0.599133	0.841009	0.351229
C75	C	-0.368494	1.112721	0.048554
C76	C	-0.298098	1.199852	0.052353
C77	C	-0.403172	0.844800	0.271690
C78	C	-0.344546	0.841002	0.351219
C79	C	-0.385830	1.101534	0.282890
C80	C	-0.321318	1.184868	0.366220
C81	C	-0.765997	0.610451	-0.208166
C82	C	-0.830509	0.527117	-0.291496
C83	C	-0.783333	0.599265	0.026170
C84	C	-0.853729	0.512134	0.022371
C85	C	-0.748654	0.867185	-0.196966
C86	C	-0.807281	0.870983	-0.276495
C87	C	-0.265039	1.192822	0.006183
C88	C	-0.198902	1.274684	0.009735
C89	C	-0.165821	1.363574	0.059461
C90	C	-0.198885	1.370602	0.105632
C91	C	-0.265025	1.288741	0.102075
C92	C	-0.317014	0.887165	0.436520
C93	C	-0.261937	0.883592	0.511253
C94	C	-0.234389	0.833861	0.500684
C95	C	-0.261927	0.787691	0.415374
C96	C	-0.317007	0.791259	0.340642
C97	C	-0.284250	1.276328	0.361781
C98	C	-0.223641	1.354638	0.440071
C99	C	-0.200097	1.341486	0.522799
C100	C	-0.237171	1.250016	0.527236
C101	C	-0.297783	1.171709	0.448947
C102	C	-0.867584	0.435657	-0.287057
C103	C	-0.928212	0.357347	-0.365347
C104	C	-0.951759	0.370499	-0.448075
C105	C	-0.914681	0.461969	-0.452512
C106	C	-0.854058	0.540277	-0.374223
C107	C	-0.886793	0.519164	0.068533
C108	C	-0.952945	0.437303	0.064961
C109	C	-0.986029	0.348412	0.015232
C110	C	-0.952962	0.341384	-0.030935
C111	C	-0.886814	0.423245	-0.027368
C112	C	-0.834811	0.920724	-0.265897
C113	C	-0.889888	0.924311	-0.340615
C114	C	-0.917439	0.878152	-0.425931
C115	C	-0.889903	0.828411	-0.436527
C116	C	-0.834822	0.824829	-0.361810
H117	H	0.259101	0.979020	0.160392
Cl118	Cl	-0.082671	1.466477	0.063926
Cl119	Cl	-0.306617	1.081084	-0.056341
Cl120	Cl	-0.157346	1.265827	-0.048310
Cl121	Cl	-0.445221	0.940399	-0.409014
Cl122	Cl	-0.994498	0.446160	0.123010
H123	H	-0.479298	0.431795	0.099759
Cl124	Cl	-0.944289	0.478488	-0.556521
H125	H	0.149124	0.979014	0.160378
H126	H	-0.217993	1.239321	0.594604
Cl127	Cl	-0.210633	1.009038	0.190411
H128	H	-0.327957	1.097240	0.452573
Cl129	Cl	-0.310783	0.702947	-0.115711
H130	H	-0.110491	0.979013	0.160377
Cl131	Cl	-0.837996	0.419097	-0.183065
H132	H	-0.150741	1.405257	0.586541
Cl133	Cl	-0.157284	1.482358	0.168146
H134	H	-0.410926	0.732964	-0.085670
Cl135	Cl	-0.800228	0.762282	-0.375150
H136	H	-0.672530	0.280192	-0.025042
Cl137	Cl	-0.800186	0.978762	-0.158652
H138	H	-0.912302	0.964815	-0.331970
Cl139	Cl	-0.706610	0.771574	-0.516270
Cl140	Cl	-0.165143	0.829386	0.594642
H141	H	-0.962289	0.881076	-0.486763
Cl142	Cl	-0.306571	1.297595	0.160131
H143	H	-0.339437	0.927662	0.445144
H144	H	-1.039890	0.281764	0.012335
Cl145	Cl	-0.924554	0.770377	-0.543788
Cl146	Cl	-0.227326	0.941643	0.618490
Cl147	Cl	-0.227285	0.725177	0.402101
H148	H	-0.303409	1.287055	0.294427
Cl149	Cl	0.058803	0.702956	-0.115702
Cl150	Cl	-0.351607	0.733224	0.233410
Cl151	Cl	-0.974810	0.242368	-0.359749
Cl152	Cl	-0.177041	1.469617	0.434473
H153	H	-0.041339	0.732971	-0.085660
Cl154	Cl	-1.027971	0.272044	-0.546490
Cl155	Cl	-0.807450	0.655253	-0.379818
Cl156	Cl	-0.845220	0.630902	0.131051
H157	H	-0.979908	0.268999	-0.071424
H158	H	-0.859896	0.417507	-0.064957
