data_functionalizedCrystal
_audit_creation_method	'MofGen! by Chris Wilmer'
_symmetry_space_group_name_H-M	'P1'
_symmetry_Int_Tables_number	1
_symmetry_cell_setting	triclinic
loop_
_symmetry_equiv_pos_as_xyz
  x,y,z
_cell_length_a	16.120566
_cell_length_b	16.120531
_cell_length_c	16.120297
_cell_angle_alpha	84.389419
_cell_angle_beta	89.874982
_cell_angle_gamma	90.174626
loop_
_atom_site_label
_atom_site_type_symbol
_atom_site_fract_x
_atom_site_fract_y
_atom_site_fract_z
Zn1	Zn	-1.224936	0.422251	-0.554851
Zn2	Zn	-0.974936	0.672251	-0.304851
Zn3	Zn	-0.724936	0.922251	-0.054851
Zn4	Zn	-0.474936	1.172251	0.195149
Zn5	Zn	-1.224816	0.554934	-0.422147
Zn6	Zn	-0.974816	0.804934	-0.172147
Zn7	Zn	-0.724816	1.054934	0.077853
Zn8	Zn	-0.474816	1.304934	0.327853
Zn9	Zn	-1.093677	0.408168	-0.408087
Zn10	Zn	-0.843677	0.658168	-0.158087
Zn11	Zn	-0.593677	0.908168	0.091913
Zn12	Zn	-0.343677	1.158168	0.341913
Zn13	Zn	-1.078814	0.554167	-0.554071
Zn14	Zn	-0.828814	0.804167	-0.304071
Zn15	Zn	-0.578814	1.054167	-0.054071
Zn16	Zn	-0.328814	1.304167	0.195929
O17	O	-1.155561	0.484880	-0.484789
O18	O	-0.905561	0.734880	-0.234789
O19	O	-0.655561	0.984880	0.015211
O20	O	-0.405561	1.234880	0.265211
O21	O	-1.340955	0.446066	-0.543457
O22	O	-1.090955	0.696066	-0.293457
O23	O	-0.840955	0.946066	-0.043457
O24	O	-0.590955	1.196066	0.206543
O25	O	-1.213591	0.529892	-0.303650
O26	O	-0.963591	0.779892	-0.053650
O27	O	-0.713591	1.029892	0.196350
O28	O	-0.463591	1.279892	0.446350
O29	O	-1.117359	0.293406	-0.421998
O30	O	-0.867359	0.543406	-0.171998
O31	O	-0.617359	0.793406	0.078002
O32	O	-0.367359	1.043406	0.328002
O33	O	-1.340867	0.543548	-0.445960
O34	O	-1.090867	0.793548	-0.195960
O35	O	-0.840867	1.043548	0.054040
O36	O	-0.590867	1.293548	0.304040
O37	O	-1.213795	0.303753	-0.529824
O38	O	-0.963795	0.553753	-0.279824
O39	O	-0.713795	0.803753	-0.029824
O40	O	-0.463795	1.053753	0.220176
O41	O	-1.117243	0.422064	-0.293320
O42	O	-0.867243	0.672064	-0.043320
O43	O	-0.617243	0.922064	0.206680
O44	O	-0.367243	1.172064	0.456680
O45	O	-0.975671	0.421320	-0.421242
O46	O	-0.725671	0.671320	-0.171242
O47	O	-0.475671	0.921320	0.078758
O48	O	-0.225671	1.171320	0.328758
O49	O	-1.092027	0.542242	-0.670807
O50	O	-0.842027	0.792242	-0.420807
O51	O	-0.592027	1.042242	-0.170807
O52	O	-0.342027	1.292242	0.079193
O53	O	-0.964751	0.528586	-0.528496
O54	O	-0.714751	0.778586	-0.278496
O55	O	-0.464751	1.028586	-0.028496
O56	O	-0.214751	1.278586	0.221504
O57	O	-1.199382	0.445323	-0.671379
O58	O	-0.949382	0.695323	-0.421379
O59	O	-0.699382	0.945323	-0.171379
O60	O	-0.449382	1.195323	0.078621
O61	O	-1.199179	0.671462	-0.445205
O62	O	-0.949179	0.921462	-0.195205
O63	O	-0.699179	1.171462	0.054795
O64	O	-0.449179	1.421462	0.304795
O65	O	-1.091911	0.670899	-0.542129
O66	O	-0.841911	0.920899	-0.292129
O67	O	-0.591911	1.170899	-0.042129
O68	O	-0.341911	1.420899	0.207871
C69	C	-0.940124	0.473342	-0.473260
C70	C	-0.690124	0.723342	-0.223260
C71	C	-0.440124	0.973342	0.026740
C72	C	-0.190124	1.223342	0.276740
C73	C	-0.847957	0.468427	-0.468348
C74	C	-0.597957	0.718427	-0.218348
C75	C	-0.347957	0.968427	0.031652
C76	C	-0.097957	1.218427	0.281652
C77	C	-0.679207	0.459435	-0.459387
C78	C	-0.429207	0.709435	-0.209387
C79	C	-0.179207	0.959435	0.040613
C80	C	0.070793	1.209435	0.290613
C81	C	-0.632751	0.510397	-0.510201
C82	C	-0.382751	0.760397	-0.260201
C83	C	-0.132751	1.010397	-0.010201
C84	C	0.117249	1.260397	0.239799
C85	C	-0.538852	0.505394	-0.505215
C86	C	-0.288852	0.755394	-0.255215
C87	C	-0.038852	1.005394	-0.005215
C88	C	0.211148	1.255394	0.244785
C89	C	-0.773114	0.464437	-0.464372
C90	C	-0.523114	0.714437	-0.214372
C91	C	-0.273114	0.964437	0.035628
C92	C	-0.023114	1.214437	0.285628
C93	C	-0.371839	0.496465	-0.496351
C94	C	-0.121839	0.746465	-0.246351
C95	C	0.128161	0.996465	0.003649
C96	C	0.378161	1.246465	0.253649
C97	C	-0.464006	0.501407	-0.501243
C98	C	-0.214006	0.751407	-0.251243
C99	C	0.035994	1.001407	-0.001243
C100	C	0.285994	1.251407	0.248757
C101	C	-1.143941	0.701423	-0.495127
C102	C	-0.893941	0.951423	-0.245127
C103	C	-0.643941	1.201423	0.004873
C104	C	-0.393941	1.451423	0.254873
C105	C	-1.139044	0.794066	-0.499582
C106	C	-0.889044	1.044066	-0.249582
C107	C	-0.639044	1.294066	0.000418
C108	C	-0.389044	1.544066	0.250418
C109	C	-1.130107	0.963688	-0.507732
C110	C	-0.880107	1.213688	-0.257732
C111	C	-0.630107	1.463688	-0.007732
C112	C	-0.380107	1.713688	0.242268
C113	C	-1.181048	1.005231	-0.461800
C114	C	-0.931048	1.255231	-0.211800
C115	C	-0.681048	1.505231	0.038200
C116	C	-0.431048	1.755231	0.288200
C117	C	-1.176076	1.099614	-0.466335
C118	C	-0.926076	1.349614	-0.216335
C119	C	-0.676076	1.599614	0.033665
C120	C	-0.426076	1.849614	0.283665
C121	C	-1.135078	0.869296	-0.503199
C122	C	-0.885078	1.119296	-0.253199
C123	C	-0.635078	1.369296	-0.003199
C124	C	-0.385078	1.619296	0.246801
C125	C	-1.144060	0.495268	-0.702180
C126	C	-0.894060	0.745268	-0.452180
C127	C	-0.644060	0.995268	-0.202180
C128	C	-0.394060	1.245268	0.047820
C129	C	-1.139159	0.499694	-0.794819
C130	C	-0.889159	0.749694	-0.544819
C131	C	-0.639159	0.999694	-0.294819
C132	C	-0.389159	1.249694	-0.044819
C133	C	-1.167220	1.267491	-0.474413
C134	C	-0.917220	1.517491	-0.224413
C135	C	-0.667220	1.767491	0.025587
C136	C	-0.417220	2.017491	0.275587
C137	C	-1.172115	1.174847	-0.469948
C138	C	-0.922115	1.424847	-0.219948
C139	C	-0.672115	1.674847	0.030052
C140	C	-0.422115	1.924847	0.280052
C141	C	-1.130182	0.507756	-0.964429
C142	C	-0.880182	0.757756	-0.714429
C143	C	-0.630182	1.007756	-0.464429
C144	C	-0.380182	1.257756	-0.214429
C145	C	-1.181116	0.461763	-1.005997
C146	C	-0.931116	0.711763	-0.755997
C147	C	-0.681116	0.961763	-0.505997
C148	C	-0.431116	1.211763	-0.255997
C149	C	-1.176121	0.466249	-1.100374
C150	C	-0.926121	0.716249	-0.850374
C151	C	-0.676121	0.966249	-0.600374
C152	C	-0.426121	1.216249	-0.350374
C153	C	-1.135176	0.503272	-0.870044
C154	C	-0.885176	0.753272	-0.620044
C155	C	-0.635176	1.003272	-0.370044
C156	C	-0.385176	1.253272	-0.120044
C157	C	-1.167068	0.474475	-0.268243
C158	C	-0.917068	0.724475	-0.018243
C159	C	-0.667068	0.974475	0.231757
C160	C	-0.417068	1.224475	0.481757
C161	C	-1.172142	0.469822	-0.175602
C162	C	-0.922142	0.719822	0.074398
C163	C	-0.672142	0.969822	0.324398
C164	C	-0.422142	1.219822	0.574398
H165	H	-0.648462	0.412052	-0.412142
H166	H	-0.398462	0.662052	-0.162142
H167	H	-0.148462	0.912052	0.087858
H168	H	0.101538	1.162052	0.337858
H169	H	-1.228394	0.969912	-0.419070
H170	H	-0.978394	1.219912	-0.169070
H171	H	-0.728394	1.469912	0.080930
H172	H	-0.478394	1.719912	0.330930
Cl173	Cl	-1.057010	1.018214	-0.573698
Cl174	Cl	-0.807010	1.268214	-0.323698
Cl175	Cl	-0.557010	1.518214	-0.073698
Cl176	Cl	-0.307010	1.768214	0.176302
H177	H	-0.663498	0.557784	-0.557451
H178	H	-0.413498	0.807784	-0.307451
H179	H	-0.163498	1.057784	-0.057451
H180	H	0.086502	1.307784	0.192549
H181	H	-1.228473	0.419017	-0.970706
H182	H	-0.978473	0.669017	-0.720706
H183	H	-0.728473	0.919017	-0.470706
H184	H	-0.478473	1.169017	-0.220706
Cl185	Cl	-1.057073	0.573751	-1.018915
Cl186	Cl	-0.807073	0.823751	-0.768915
Cl187	Cl	-0.557073	1.073751	-0.518915
Cl188	Cl	-0.307073	1.323751	-0.268915
