data_functionalizedCrystal
_audit_creation_method	'MofGen! by Chris Wilmer'
_symmetry_space_group_name_H-M	'P1'
_symmetry_Int_Tables_number	1
_symmetry_cell_setting	triclinic
loop_
_symmetry_equiv_pos_as_xyz
  x,y,z
_cell_length_a	10.723023
_cell_length_b	10.723024
_cell_length_c	16.176319
_cell_angle_alpha	89.994397
_cell_angle_beta	89.993069
_cell_angle_gamma	84.467709
loop_
_atom_site_label
_atom_site_type_symbol
_atom_site_fract_x
_atom_site_fract_y
_atom_site_fract_z
O1	O	1.657194	0.175026	-0.068736
O2	O	1.294042	0.191780	-0.068739
O3	O	1.483994	0.001827	-0.068734
O4	O	1.467241	0.364979	-0.068741
O5	O	1.483968	0.001814	0.068759
O6	O	1.294015	0.191768	0.068754
O7	O	1.657168	0.175013	0.068757
Cu8	Cu	1.475589	0.183389	0.081310
Cu9	Cu	1.475620	0.183404	-0.081292
O10	O	1.467215	0.364967	0.068753
C11	C	1.247529	0.190555	0.000007
C12	C	1.108974	0.186908	0.000006
C13	C	1.482762	-0.044679	0.000011
C14	C	1.479114	-0.183233	0.000008
C15	C	0.904020	0.181518	-0.071220
C16	C	1.047224	0.185288	-0.071220
C17	C	1.585402	-0.258216	0.000008
C18	C	1.581634	-0.401420	0.000005
C19	C	1.703680	0.176239	0.000009
C20	C	1.842235	0.179886	0.000005
C21	C	1.468447	0.411473	0.000005
C22	C	1.472095	0.550027	0.000003
N23	N	1.475576	0.183378	0.195675
N24	N	1.475643	0.183405	-0.195657
C25	C	1.559713	0.099302	0.238941
C26	C	1.559719	0.099301	0.325489
C27	C	1.475594	0.183383	0.368768
C28	C	1.391448	0.267463	0.325495
C29	C	1.391436	0.267457	0.238950
C30	C	1.391491	0.267487	0.674524
C31	C	1.391511	0.267489	0.761075
C32	C	1.559774	0.099330	0.761062
C33	C	1.559762	0.099324	0.674517
C34	C	1.475612	0.183400	0.631252
C35	C	1.475605	0.183399	0.537408
C36	C	1.475606	0.183391	0.462610
H37	H	0.850901	0.180117	-0.132198
O38	O	1.038777	0.185177	0.080856
H39	H	1.053460	0.270791	0.116711
O40	O	1.117591	0.187131	-0.152000
H41	H	1.219027	0.189786	-0.139324
O42	O	1.351549	-0.364649	0.000008
H43	H	1.347754	-0.304668	-0.056033
O44	O	1.709637	-0.202827	0.000005
H45	H	1.786923	-0.279537	-0.000003
O46	O	1.702174	-0.486753	0.000007
H47	H	1.680299	-0.585839	-0.000000
O48	O	0.912576	0.181747	0.080786
H49	H	0.982298	0.098410	0.084329
O50	O	1.354880	-0.238624	0.000011
H51	H	1.301060	-0.207038	-0.056031
O52	O	1.650444	0.008608	0.192262
H53	H	1.708940	-0.049865	0.236892
H54	H	1.628229	0.030839	0.360716
O55	O	1.650489	0.008630	0.627835
H56	H	1.708988	-0.049845	0.672461
H57	H	1.628289	0.030867	0.796298
H58	H	1.323001	0.335961	0.796312
O59	O	1.300741	0.358172	0.627865
H60	H	1.317484	0.455600	0.644461
H61	H	1.322945	0.335920	0.360738
H62	H	1.322922	0.335919	0.203723
