data_functionalizedCrystal
_audit_creation_method	'MofGen! by Chris Wilmer'
_symmetry_space_group_name_H-M	'P1'
_symmetry_Int_Tables_number	1
_symmetry_cell_setting	triclinic
loop_
_symmetry_equiv_pos_as_xyz
  x,y,z
_cell_length_a	14.853567
_cell_length_b	23.532407
_cell_length_c	13.930277
_cell_angle_alpha	89.990782
_cell_angle_beta	89.995755
_cell_angle_gamma	83.241804
loop_
_atom_site_label
_atom_site_type_symbol
_atom_site_fract_x
_atom_site_fract_y
_atom_site_fract_z
O1	O	1.195555	0.074353	-0.079775
O2	O	1.695555	0.574353	0.420225
O3	O	0.932999	0.083210	-0.079793
O4	O	1.432999	0.583210	0.420207
O5	O	1.072194	-0.004116	-0.079766
O6	O	1.572194	0.495884	0.420234
O7	O	1.056360	0.161678	-0.079802
O8	O	1.556360	0.661678	0.420198
O9	O	1.072175	-0.004118	0.079896
O10	O	1.572175	0.495882	0.579896
O11	O	0.932980	0.083208	0.079869
O12	O	1.432980	0.583208	0.579869
O13	O	1.195536	0.074351	0.079887
O14	O	1.695536	0.574351	0.579887
Zn15	Zn	1.064255	0.078779	0.105228
Zn16	Zn	1.564255	0.578779	0.605228
Zn17	Zn	1.064280	0.078782	-0.105133
Zn18	Zn	1.564280	0.578782	0.394867
O19	O	1.056340	0.161677	0.079860
O20	O	1.556340	0.661677	0.579860
C21	C	0.899405	0.082808	0.000036
C22	C	1.399405	0.582808	0.500036
C23	C	0.799334	0.081605	0.000030
C24	C	1.299334	0.581605	0.500030
C25	C	0.387423	0.024648	0.000064
C26	C	0.887423	0.524648	0.500064
C27	C	0.365008	0.128393	0.000041
C28	C	0.865008	0.628393	0.500041
C29	C	0.459029	0.129524	0.000037
C30	C	0.959029	0.629524	0.500037
C31	C	0.517252	0.078216	0.000046
C32	C	1.017252	0.578216	0.500046
C33	C	0.481454	0.025777	0.000058
C34	C	0.981454	0.525777	0.500058
C35	C	0.494835	0.181961	0.000016
C36	C	0.994835	0.681961	0.500016
C37	C	0.588861	0.183094	0.000011
C38	C	1.088861	0.683094	0.500011
C39	C	0.647086	0.131786	0.000027
C40	C	1.147086	0.631786	0.500027
C41	C	0.611283	0.079345	0.000040
C42	C	1.111283	0.579345	0.500040
C43	C	0.669506	0.028037	0.000049
C44	C	1.169506	0.528037	0.500049
C45	C	0.633704	-0.024404	0.000069
C46	C	1.133704	0.475596	0.500069
C47	C	0.539679	-0.025531	0.000074
C48	C	1.039679	0.474469	0.500074
C49	C	0.741111	0.132913	0.000022
C50	C	1.241111	0.632913	0.500022
C51	C	0.763536	0.029166	0.000042
C52	C	1.263536	0.529166	0.500042
C53	C	1.071782	-0.025335	0.000068
C54	C	1.571782	0.474665	0.500068
C55	C	1.070569	-0.088557	0.000075
C56	C	1.570569	0.411443	0.500075
C57	C	1.145338	-0.487334	0.000027
C58	C	1.645338	0.012666	0.500027
C59	C	1.144212	-0.546739	0.000020
C60	C	1.644212	-0.046739	0.500020
O61	O	1.213524	-0.583181	-0.000011
O62	O	1.713524	-0.083181	0.499989
N63	N	1.061460	-0.569726	0.000015
N64	N	1.561460	-0.069726	0.500015
C65	C	0.979829	-0.533305	0.000008
C66	C	1.479829	-0.033305	0.500008
O67	O	0.909339	-0.558312	0.000002
O68	O	1.409339	-0.058312	0.500002
C69	C	0.980957	-0.473901	0.000008
C70	C	1.480957	0.026099	0.500008
C71	C	1.063714	-0.450917	0.000023
C72	C	1.563714	0.049083	0.500023
C73	C	1.228089	-0.464349	0.000041
C74	C	1.728089	0.035651	0.500041
C75	C	1.229214	-0.404948	0.000050
C76	C	1.729214	0.095052	0.500050
C77	C	1.147590	-0.368531	0.000046
C78	C	1.647590	0.131469	0.500046
C79	C	1.064839	-0.391516	0.000032
C80	C	1.564839	0.108484	0.500032
C81	C	0.899327	-0.437481	-0.000006
C82	C	1.399327	0.062519	0.499994
C83	C	0.900461	-0.378073	-0.000006
C84	C	1.400461	0.121927	0.499994
C85	C	0.983218	-0.355089	0.000009
C86	C	1.483218	0.144911	0.500009
C87	C	0.984341	-0.295698	0.000037
C88	C	1.484341	0.204302	0.500037
N89	N	1.067092	-0.272711	0.000042
N90	N	1.567092	0.227289	0.500042
C91	C	1.148717	-0.309128	0.000046
C92	C	1.648717	0.190872	0.500046
C93	C	0.977469	-0.658058	0.000005
C94	C	1.477469	-0.158058	0.500005
C95	C	0.976340	-0.717461	0.000012
C96	C	1.476340	-0.217461	0.500012
C97	C	1.140723	-0.730890	0.000022
C98	C	1.640723	-0.230890	0.500022
C99	C	1.141851	-0.671486	0.000022
C100	C	1.641851	-0.171486	0.500022
C101	C	1.060220	-0.635070	0.000010
C102	C	1.560220	-0.135070	0.500010
C103	C	1.151075	-0.184380	0.000066
C104	C	1.651075	0.315620	0.500066
C105	C	1.152194	-0.124974	0.000079
C106	C	1.652194	0.375026	0.500079
C107	C	0.987811	-0.111549	0.000064
C108	C	1.487811	0.388451	0.500064
C109	C	0.986692	-0.170951	0.000056
C110	C	1.486692	0.329049	0.500056
C111	C	1.068331	-0.207365	0.000054
C112	C	1.568331	0.292635	0.500054
O113	O	0.915065	-0.259221	0.000064
O114	O	1.415065	0.240779	0.500064
O115	O	1.219196	-0.284112	0.000039
O116	O	1.719196	0.215888	0.500039
C117	C	1.229130	0.074753	0.000056
C118	C	1.729130	0.574753	0.500056
C119	C	1.329200	0.075956	0.000056
C120	C	1.829200	0.575956	0.500056
C121	C	1.056753	0.182895	0.000025
C122	C	1.556753	0.682895	0.500025
C123	C	1.057966	0.246118	0.000011
C124	C	1.557966	0.746118	0.500011
N125	N	1.064244	0.078777	0.248794
N126	N	1.564244	0.578777	0.748794
N127	N	1.064298	0.078779	-0.248700
N128	N	1.564298	0.578779	0.251300
C129	C	1.002642	0.117434	0.701051
C130	C	1.502642	0.617434	1.201051
C131	C	1.125943	0.040125	0.701045
C132	C	1.625943	0.540125	1.201045
C133	C	1.125932	0.040123	0.600549
C134	C	1.625932	0.540123	1.100549
C135	C	1.064276	0.078778	0.550300
C136	C	1.564276	0.578778	1.050300
C137	C	1.002631	0.117435	0.600546
C138	C	1.502631	0.617435	1.100546
C139	C	1.187582	0.001470	0.550295
C140	C	1.687582	0.501470	1.050295
C141	C	1.187575	0.001467	0.449793
C142	C	1.687575	0.501467	0.949793
C143	C	1.125914	0.040120	0.399542
C144	C	1.625914	0.540120	0.899542
C145	C	1.064266	0.078778	0.449795
C146	C	1.564266	0.578778	0.949795
C147	C	1.002610	0.117433	0.399546
C148	C	1.502610	0.617433	0.899546
C149	C	0.940956	0.156089	0.449797
C150	C	1.440956	0.656089	0.949797
C151	C	0.940970	0.156088	0.550295
C152	C	1.440970	0.656088	1.050295
C153	C	1.125900	0.040122	0.299043
C154	C	1.625900	0.540122	0.799043
C155	C	1.002599	0.117434	0.299041
C156	C	1.502599	0.617434	0.799041
H157	H	0.447423	0.223733	-0.000001
H158	H	0.947423	0.723733	0.499999
H159	H	0.833986	-0.348425	-0.000017
H160	H	1.333986	0.151575	0.499983
C161	C	1.238496	-0.612471	-0.082047
C162	C	1.738496	-0.112471	0.417953
C163	C	1.232817	-0.646223	0.000029
C164	C	1.732817	-0.146223	0.500029
H165	H	1.294656	-0.596875	-0.082040
H166	H	1.794656	-0.096875	0.417960
H167	H	1.234647	-0.635363	-0.137713
H168	H	1.734647	-0.135363	0.362287
H169	H	1.190044	-0.582280	-0.082042
H170	H	1.690044	-0.082280	0.417958
H171	H	1.281265	-0.676418	0.000020
H172	H	1.781265	-0.176418	0.500020
H173	H	1.236675	-0.623330	0.055709
H174	H	1.736675	-0.123330	0.555709
H175	H	0.831937	-0.456183	-0.000023
H176	H	1.331937	0.043817	0.499977
H177	H	1.176101	0.008652	0.258133
H178	H	1.676101	0.508652	0.758133
H179	H	1.237775	-0.030008	0.408885
H180	H	1.737775	0.469992	0.908885
H181	H	1.176146	0.008655	0.741961
H182	H	1.676146	0.508655	1.241961
H183	H	0.890775	0.187560	0.591216
H184	H	1.390775	0.687560	1.091216
H185	H	0.681121	-0.066179	0.000069
H186	H	1.181121	0.433821	0.500069
H187	H	0.510520	-0.068226	0.000113
H188	H	1.010520	0.431774	0.500113
H189	H	1.237785	-0.029999	0.591211
H190	H	1.737785	0.470001	1.091211
C191	C	0.879853	0.129648	0.814088
C192	C	1.379853	0.629648	1.314088
C193	C	0.934877	0.159923	0.756286
C194	C	1.434877	0.659923	1.256286
H195	H	0.838022	0.155880	0.848191
H196	H	1.338022	0.655880	1.348191
H197	H	0.847640	0.105911	0.774891
H198	H	1.347640	0.605911	1.274891
H199	H	0.916582	0.106628	0.858393
H200	H	1.416582	0.606628	1.358393
H201	H	0.898148	0.182940	0.711975
H202	H	1.398148	0.682940	1.211975
H203	H	0.967092	0.183670	0.795486
H204	H	1.467092	0.683670	1.295486
H205	H	0.908951	-0.736168	0.000016
H206	H	1.408951	-0.236168	0.500016
C207	C	0.316952	0.216472	0.082093
C208	C	0.816952	0.716472	0.582093
C209	C	0.301016	0.184790	0.000026
C210	C	0.801016	0.684790	0.500026
H211	H	0.277447	0.251293	0.082079
H212	H	0.777447	0.751293	0.582079
H213	H	0.306138	0.194974	0.137765
H214	H	0.806138	0.694974	0.637765
H215	H	0.378077	0.224644	0.082081
H216	H	0.878077	0.724644	0.582081
H217	H	0.239893	0.176615	0.000041
H218	H	0.739893	0.676615	0.500041
H219	H	0.311823	0.206293	-0.055660
H220	H	0.811823	0.706293	0.444340
H221	H	0.952388	0.148910	0.258134
H222	H	1.452388	0.648910	0.758134
C223	C	0.253251	-0.023155	0.000087
C224	C	0.753251	0.476845	0.500087
C225	C	0.348075	-0.032994	0.000082
C226	C	0.848075	0.467006	0.500082
H227	H	0.228961	-0.058742	0.000092
H228	H	0.728961	0.441258	0.500092
H229	H	0.233242	-0.002032	0.055759
H230	H	0.733242	0.497968	0.555759
H231	H	0.233242	-0.002026	-0.055597
H232	H	0.733242	0.497974	0.444403
H233	H	0.368085	-0.054120	0.055770
H234	H	0.868085	0.445880	0.555770
H235	H	0.368092	-0.054126	-0.055595
H236	H	0.868092	0.445874	0.444405
H237	H	1.207187	-0.760552	0.000022
H238	H	1.707187	-0.260552	0.500022
H239	H	0.618003	0.225795	-0.000005
H240	H	1.118003	0.725795	0.499995
C241	C	0.776248	-0.073497	0.000063
C242	C	1.276248	0.426503	0.500063
C243	C	0.827532	-0.027234	0.000047
C244	C	1.327532	0.472766	0.500047
H245	H	0.815759	-0.108316	0.000059
H246	H	1.315759	0.391684	0.500059
H247	H	0.739115	-0.071781	0.055743
H248	H	1.239115	0.428219	0.555743
H249	H	0.739102	-0.071775	-0.055613
H250	H	1.239102	0.428225	0.444387
H251	H	0.864674	-0.028955	0.055728
H252	H	1.364674	0.471045	0.555728
H253	H	0.864681	-0.028952	-0.055638
H254	H	1.364681	0.471048	0.444362
C255	C	0.709505	0.235346	-0.000011
C256	C	1.209505	0.735346	0.499989
C257	C	0.780466	0.190550	0.000001
C258	C	1.280466	0.690550	0.500001
H259	H	0.733802	0.270930	-0.000017
H260	H	1.233802	0.770930	0.499983
H261	H	0.673304	0.232746	-0.055684
H262	H	1.173304	0.732746	0.444316
H263	H	0.673294	0.232745	0.055672
H264	H	1.173294	0.732745	0.555672
H265	H	0.816674	0.193149	-0.055686
H266	H	1.316674	0.693149	0.444314
H267	H	0.816682	0.193151	0.055679
H268	H	1.316682	0.693151	0.555679
C269	C	0.814869	-0.650759	0.000011
C270	C	1.314869	-0.150759	0.500011
C271	C	0.887732	-0.618031	0.000010
C272	C	1.387732	-0.118031	0.500010
H273	H	0.759471	-0.626049	0.000019
H274	H	1.259471	-0.126049	0.500019
H275	H	0.817856	-0.674200	-0.055665
H276	H	1.317856	-0.174200	0.444335
H277	H	0.817858	-0.674217	0.055690
H278	H	1.317858	-0.174217	0.555690
H279	H	0.884746	-0.594576	-0.055673
H280	H	1.384746	-0.094576	0.444327
H281	H	0.884743	-0.594580	0.055692
H282	H	1.384743	-0.094580	0.555692
H283	H	1.219587	-0.106264	0.000094
H284	H	1.719587	0.393736	0.500094
C285	C	1.313675	-0.191672	0.000091
C286	C	1.813675	0.308328	0.500091
C287	C	1.240814	-0.224402	0.000072
C288	C	1.740814	0.275598	0.500072
H289	H	1.369074	-0.216381	0.000105
H290	H	1.869074	0.283619	0.500105
H291	H	1.310700	-0.168219	-0.055582
H292	H	1.810700	0.331781	0.444418
H293	H	1.310670	-0.168227	0.055774
H294	H	1.810670	0.331773	0.555774
H295	H	1.243814	-0.247844	-0.055614
H296	H	1.743814	0.252156	0.444386
H297	H	1.243790	-0.247865	0.055751
H298	H	1.743790	0.252135	0.555751
H299	H	1.296604	-0.386241	0.000058
H300	H	1.796604	0.113759	0.500058
C301	C	1.390680	-0.471641	0.000069
C302	C	1.890680	0.028359	0.500069
C303	C	1.317821	-0.504373	0.000054
C304	C	1.817821	-0.004373	0.500054
H305	H	1.446080	-0.496348	0.000089
H306	H	1.946080	0.003652	0.500089
H307	H	1.387706	-0.448191	-0.055609
H308	H	1.887706	0.051809	0.444391
H309	H	1.387672	-0.448192	0.055747
H310	H	1.887672	0.051808	0.555747
H311	H	1.320826	-0.527818	-0.055628
H312	H	1.820826	-0.027818	0.444372
H313	H	1.320797	-0.527832	0.055737
H314	H	1.820797	-0.027832	0.555737
H315	H	0.919305	-0.189665	0.000071
H316	H	1.419305	0.310335	0.500071
C317	C	0.886204	0.190413	0.295734
C318	C	1.386204	0.690413	0.795734
C319	C	0.873185	0.198578	0.394555
C320	C	1.373185	0.698578	0.894555
H321	H	0.844362	0.216642	0.261630
H322	H	1.344362	0.716642	0.761630
H323	H	0.946306	0.196671	0.279265
H324	H	1.446306	0.696671	0.779265
H325	H	0.876759	0.152391	0.279287
H326	H	1.376759	0.652391	0.779287
H327	H	0.882637	0.236600	0.411004
H328	H	1.382637	0.736600	0.911004
H329	H	0.813069	0.192325	0.411031
H330	H	1.313069	0.692325	0.911031
C331	C	0.916567	-0.014519	0.000055
C332	C	1.416567	0.485481	0.500055
C333	C	0.898092	-0.071512	0.000053
C334	C	1.398092	0.428488	0.500053
H335	H	0.861177	0.010197	0.000037
H336	H	1.361177	0.510197	0.500037
H337	H	0.950504	-0.007554	0.055737
H338	H	1.450504	0.492446	0.555737
H339	H	0.950539	-0.007548	-0.055619
H340	H	1.450539	0.492452	0.444381
H341	H	0.864126	-0.078484	0.055731
H342	H	1.364126	0.421516	0.555731
H343	H	0.864141	-0.078480	-0.055634
H344	H	1.364141	0.421520	0.444366
