data_functionalizedCrystal
_audit_creation_method	'MofGen! by Chris Wilmer'
_symmetry_space_group_name_H-M	'P1'
_symmetry_Int_Tables_number	1
_symmetry_cell_setting	triclinic
loop_
_symmetry_equiv_pos_as_xyz
  x,y,z
_cell_length_a	13.635800
_cell_length_b	11.168121
_cell_length_c	17.078481
_cell_angle_alpha	84.865581
_cell_angle_beta	99.306161
_cell_angle_gamma	71.491504
loop_
_atom_site_label
_atom_site_type_symbol
_atom_site_fract_x
_atom_site_fract_y
_atom_site_fract_z
V1	V	2.002596	-0.174410	0.247368
O2	O	1.983386	0.008684	0.242653
O3	O	1.991097	-0.346117	0.245683
O4	O	1.967913	-0.171594	0.355251
O5	O	2.006731	-0.167047	0.132326
V6	V	2.244123	-0.152525	0.233607
O7	O	2.133740	-0.222415	0.277554
O8	O	2.338077	-0.104520	0.203422
O9	O	2.144019	0.019182	0.235293
O10	O	2.322031	-0.335620	0.238323
O11	O	2.298687	-0.159888	0.348650
O12	O	2.167203	-0.155341	0.125725
V13	V	2.502596	-0.174410	0.247368
O14	O	2.483386	0.008684	0.242653
O15	O	2.491097	-0.346117	0.245683
O16	O	2.467913	-0.171594	0.355251
O17	O	2.506731	-0.167047	0.132326
V18	V	2.744123	-0.152525	0.233607
O19	O	2.633740	-0.222415	0.277554
O20	O	2.838077	-0.104520	0.203422
O21	O	2.644019	0.019182	0.235293
O22	O	2.822031	-0.335620	0.238323
O23	O	2.798687	-0.159888	0.348650
O24	O	2.667203	-0.155341	0.125725
C25	C	1.917026	-0.387980	0.241782
C26	C	1.948197	-0.528352	0.241123
C27	C	2.048718	-0.597040	0.244593
C28	C	2.080937	-0.742122	0.243912
C29	C	1.887452	-0.165357	0.381546
C30	C	1.899820	-0.164190	0.469741
C31	C	2.049762	0.061038	0.239191
C32	C	2.008209	0.201409	0.239855
C33	C	2.079336	-0.161583	0.099425
C34	C	2.056586	-0.162742	0.011230
C35	C	2.417026	-0.387980	0.241782
C36	C	2.448197	-0.528352	0.241123
C37	C	2.387452	-0.165357	0.381546
C38	C	2.399820	-0.164190	0.469741
C39	C	1.996763	-0.169946	0.515217
C40	C	2.008378	-0.168849	0.598085
C41	C	1.923052	-0.162006	0.635477
C42	C	1.826100	-0.156247	0.589994
C43	C	1.814484	-0.157334	0.507127
C44	C	1.948018	-0.158070	0.882880
C45	C	1.959643	-0.156987	0.965754
C46	C	2.141921	-0.169587	0.973839
C47	C	2.130298	-0.170682	0.890970
C48	C	2.033346	-0.164915	0.845494
N49	N	1.934923	-0.160889	0.720181
N50	N	2.021474	-0.166023	0.760790
C51	C	2.549762	0.061038	0.239191
C52	C	2.508209	0.201409	0.239855
C53	C	2.579336	-0.161583	0.099425
C54	C	2.556586	-0.162742	0.011230
C55	C	2.496768	-0.169934	0.515202
C56	C	2.508400	-0.168821	0.598070
C57	C	2.423084	-0.161975	0.635475
C58	C	2.326127	-0.156228	0.590007
C59	C	2.314495	-0.157331	0.507141
C60	C	2.459668	-0.169574	-0.026155
C61	C	2.438274	-0.170649	-0.109025
C62	C	2.513802	-0.164901	-0.154508
C63	C	2.610727	-0.158065	-0.117118
C64	C	2.632117	-0.156981	-0.034250
C65	C	2.548718	-0.597040	0.244593
C66	C	2.580937	-0.742122	0.243912
H67	H	2.110925	-0.548440	0.248071
H68	H	2.496377	-0.165800	-0.221982
Cl69	Cl	2.604038	-0.178539	0.468197
H70	H	1.735536	-0.152616	0.470098
H71	H	2.235548	-0.152657	0.470132
Cl72	Cl	2.213891	-0.833278	0.248489
H73	H	2.587355	-0.173507	0.635079
H74	H	1.890153	-0.151411	0.996194
H75	H	2.220855	-0.174280	1.010874
Cl76	Cl	2.713891	-0.833278	0.248489
Cl77	Cl	2.364700	-0.176799	0.031006
H78	H	2.672214	-0.153381	-0.154163
Cl79	Cl	2.104041	-0.178558	0.468220
Cl80	Cl	2.218887	-0.147639	0.637045
H81	H	2.432570	-0.161078	0.702951
H82	H	1.756625	-0.150668	0.620444
Cl83	Cl	2.753972	-0.148412	0.012739
H84	H	2.359348	-0.176215	-0.139456
Cl85	Cl	2.130259	-0.176102	0.655253
Cl86	Cl	2.644769	-0.522016	0.249962
H87	H	2.422094	-0.739551	0.236883
H88	H	2.385992	-0.576955	0.237654
H89	H	1.869087	-0.153420	0.845867
Cl90	Cl	1.875250	-0.707441	0.235265
H91	H	2.199782	-0.176253	0.860532
Cl92	Cl	1.852148	-0.603380	0.235766
