data_functionalizedCrystal
_audit_creation_method	'MofGen! by Chris Wilmer'
_symmetry_space_group_name_H-M	'P1'
_symmetry_Int_Tables_number	1
_symmetry_cell_setting	triclinic
loop_
_symmetry_equiv_pos_as_xyz
  x,y,z
_cell_length_a	17.000371
_cell_length_b	17.038272
_cell_length_c	9.130307
_cell_angle_alpha	89.996293
_cell_angle_beta	89.998084
_cell_angle_gamma	83.355402
loop_
_atom_site_label
_atom_site_type_symbol
_atom_site_fract_x
_atom_site_fract_y
_atom_site_fract_z
O1	O	1.057998	0.028041	-0.121806
O2	O	1.557998	0.528041	0.378194
O3	O	0.828178	0.056286	-0.121808
O4	O	1.328178	0.556286	0.378192
O5	O	0.941722	-0.071558	-0.121795
O6	O	1.441722	0.428442	0.378205
O7	O	0.944454	0.155886	-0.121819
O8	O	1.444454	0.655886	0.378181
O9	O	0.941718	-0.071559	0.121804
O10	O	1.441718	0.428441	0.621804
O11	O	0.828174	0.056285	0.121791
O12	O	1.328174	0.556285	0.621791
O13	O	1.057994	0.028041	0.121793
O14	O	1.557994	0.528041	0.621793
Cu15	Cu	0.943084	0.042163	0.144034
Cu16	Cu	1.443084	0.542163	0.644034
Cu17	Cu	0.943088	0.042164	-0.144050
Cu18	Cu	1.443088	0.542164	0.355950
O19	O	0.944450	0.155885	0.121780
O20	O	1.444450	0.655885	0.621780
C21	C	0.798625	0.057803	-0.000009
C22	C	1.298625	0.557803	0.499991
C23	C	0.710572	0.062314	-0.000009
C24	C	1.210572	0.562314	0.499991
C25	C	0.673845	-0.007108	0.000000
C26	C	1.173845	0.492892	0.500000
C27	C	0.591110	-0.002864	-0.000011
C28	C	1.091110	0.497136	0.499989
C29	C	0.545102	0.070802	-0.000021
C30	C	1.045102	0.570802	0.499979
C31	C	0.581834	0.140229	-0.000035
C32	C	1.081834	0.640229	0.499965
C33	C	0.664568	0.135985	-0.000034
C34	C	1.164568	0.635985	0.499966
C35	C	0.295066	0.087196	-0.000032
C36	C	0.795066	0.587196	0.499968
C37	C	0.212327	0.091434	-0.000028
C38	C	0.712327	0.591434	0.499972
C39	C	0.221608	-0.051659	-0.000007
C40	C	0.721608	0.448341	0.499993
C41	C	0.304344	-0.055897	0.000002
C42	C	0.804344	0.444103	0.500002
C43	C	0.341068	0.013530	-0.000019
C44	C	0.841068	0.513530	0.499981
C45	C	0.460533	0.075141	-0.000027
C46	C	0.960533	0.575141	0.499973
C47	C	0.425636	0.009190	-0.000023
C48	C	0.925636	0.509190	0.499977
C49	C	0.939235	-0.100516	0.000004
C50	C	1.439235	0.399484	0.500004
C51	C	0.931823	-0.186802	0.000003
C52	C	1.431823	0.313198	0.500003
C53	C	0.999881	-0.241577	0.000006
C54	C	1.499881	0.258423	0.500006
C55	C	0.992911	-0.322650	-0.000008
C56	C	1.492911	0.177350	0.499992
C57	C	0.917882	-0.348946	-0.000014
C58	C	1.417882	0.151054	0.499986
C59	C	0.849819	-0.294164	-0.000021
C60	C	1.349819	0.205836	0.499979
C61	C	0.856789	-0.213093	-0.000017
C62	C	1.356789	0.286907	0.499983
C63	C	0.893256	-0.593018	-0.000034
C64	C	1.393256	-0.093018	0.499966
C65	C	0.886291	-0.674096	-0.000033
C66	C	1.386291	-0.174096	0.499967
C67	C	1.029384	-0.702577	-0.000024
C68	C	1.529384	-0.202577	0.499976
C69	C	1.036348	-0.621502	-0.000012
C70	C	1.536348	-0.121502	0.499988
C71	C	0.968285	-0.566727	-0.000026
C72	C	1.468285	-0.066727	0.499974
C73	C	0.910756	-0.431816	-0.000024
C74	C	1.410756	0.068184	0.499976
C75	C	0.975411	-0.483859	-0.000027
C76	C	1.475411	0.016141	0.499973
C77	C	1.087547	0.026524	-0.000010
C78	C	1.587547	0.526524	0.499990
C79	C	1.175600	0.022013	-0.000019
C80	C	1.675600	0.522013	0.499981
C81	C	0.946936	0.184843	-0.000022
C82	C	1.446936	0.684843	0.499978
C83	C	0.954349	0.271129	-0.000031
C84	C	1.454349	0.771129	0.499969
N85	N	0.943086	0.042161	0.346657
N86	N	1.443086	0.542161	0.846657
N87	N	0.943092	0.042159	-0.346672
N88	N	1.443092	0.542159	0.153328
C89	C	1.043675	-0.071017	0.346658
C90	C	1.543675	0.428983	0.846658
C91	C	1.093975	-0.127605	0.423326
C92	C	1.593975	0.372395	0.923326
C93	C	1.093983	-0.127606	0.576659
C94	C	1.593983	0.372394	1.076659
C95	C	1.043684	-0.071015	0.653329
C96	C	1.543684	0.428985	1.153329
C97	C	0.993384	-0.014427	0.576662
C98	C	1.493384	0.485573	1.076662
C99	C	0.993383	-0.014431	0.423325
C100	C	1.493383	0.485569	0.923325
C101	C	0.892792	0.098746	0.576660
C102	C	1.392792	0.598746	1.076660
C103	C	0.892787	0.098752	0.423327
C104	C	1.392787	0.598752	0.923327
C105	C	0.842493	0.155337	0.653330
C106	C	1.342493	0.655337	1.153330
C107	C	0.792196	0.211930	0.576663
C108	C	1.292196	0.711930	1.076663
C109	C	0.792190	0.211929	0.423320
C110	C	1.292190	0.711929	0.923320
C111	C	0.842487	0.155340	0.346660
C112	C	1.342487	0.655340	0.846660
H113	H	0.694469	0.192515	-0.000035
H114	H	1.194469	0.692515	0.499965
Br115	Br	0.519395	0.240205	-0.000069
Br116	Br	1.019395	0.740205	0.499931
Br117	Br	0.784459	-0.709782	-0.000026
Br118	Br	1.284459	-0.209782	0.499974
Br119	Br	1.162231	-0.204409	0.319274
Br120	Br	1.662231	0.295591	0.819274
Br121	Br	1.162241	-0.204409	0.680712
Br122	Br	1.662241	0.295591	1.180712
H123	H	1.036500	-0.462446	-0.000055
H124	H	1.536500	0.037554	0.499945
Br125	Br	1.043680	-0.071027	0.861426
Br126	Br	1.543680	0.428973	1.361426
Br127	Br	0.842494	0.155334	0.861427
Br128	Br	1.342494	0.655334	1.361427
H129	H	0.751242	0.257999	0.639097
H130	H	1.251242	0.757999	1.139097
Br131	Br	0.541270	-0.097084	-0.000049
Br132	Br	1.041270	0.402916	0.499951
H133	H	0.751227	0.258007	0.360905
H134	H	1.251227	0.758007	0.860905
H135	H	0.191698	-0.108182	-0.000006
H136	H	0.691698	0.391818	0.499994
H137	H	0.837834	-0.548429	-0.000046
H138	H	1.337834	-0.048429	0.499954
H139	H	0.842490	0.155337	0.221807
H140	H	1.342490	0.655337	0.721807
H141	H	0.174868	0.151425	-0.000030
H142	H	0.674868	0.651425	0.499970
H143	H	0.341798	-0.115883	0.000017
H144	H	0.841798	0.384117	0.500017
Br145	Br	0.344896	0.181418	-0.000065
Br146	Br	0.844896	0.681418	0.499935
H147	H	0.423064	0.135120	-0.000034
H148	H	0.923064	0.635120	0.499966
H149	H	0.788728	-0.315581	-0.000034
H150	H	1.288728	0.184419	0.499966
H151	H	0.711300	-0.067095	0.000015
H152	H	1.211300	0.432905	0.500015
H153	H	0.463099	-0.050788	-0.000023
H154	H	0.963099	0.449212	0.499977
Br155	Br	0.808933	-0.467510	-0.000046
Br156	Br	1.308933	0.032490	0.499954
Br157	Br	1.121751	-0.776917	-0.000005
Br158	Br	1.621751	-0.276917	0.499995
Br159	Br	1.101711	-0.205899	0.000034
Br160	Br	1.601711	0.294101	0.500034
H161	H	1.048332	-0.367246	-0.000004
H162	H	1.548332	0.132754	0.499996
H163	H	1.097445	-0.600099	-0.000007
H164	H	1.597445	-0.100099	0.499993
H165	H	0.801369	-0.168494	-0.000019
H166	H	1.301369	0.331506	0.499981
H167	H	1.043681	-0.071016	0.221806
H168	H	1.543681	0.428984	0.721806
