data_functionalizedCrystal
_audit_creation_method	'MofGen! by Chris Wilmer'
_symmetry_space_group_name_H-M	'P1'
_symmetry_Int_Tables_number	1
_symmetry_cell_setting	triclinic
loop_
_symmetry_equiv_pos_as_xyz
  x,y,z
_cell_length_a	29.839134
_cell_length_b	18.215405
_cell_length_c	18.215399
_cell_angle_alpha	90.032960
_cell_angle_beta	89.973592
_cell_angle_gamma	89.980254
loop_
_atom_site_label
_atom_site_type_symbol
_atom_site_fract_x
_atom_site_fract_y
_atom_site_fract_z
Zn1	Zn	0.686791	0.293075	-0.416291
Zn2	Zn	1.186791	0.793075	0.083709
Zn3	Zn	0.686739	0.416152	-0.293219
Zn4	Zn	1.186739	0.916152	0.206781
Zn5	Zn	0.611668	0.293092	-0.293217
Zn6	Zn	1.111668	0.793092	0.206783
Zn7	Zn	0.611643	0.416093	-0.416223
Zn8	Zn	1.111643	0.916093	0.083777
O9	O	0.649210	0.354603	-0.354738
O10	O	1.149210	0.854603	0.145262
O11	O	0.749651	0.309419	-0.399994
O12	O	1.249651	0.809419	0.100006
O13	O	0.676769	0.399859	-0.190234
O14	O	1.176769	0.899859	0.309766
O15	O	0.621665	0.190106	-0.309571
O16	O	1.121665	0.690106	0.190429
O17	O	0.749613	0.399842	-0.309573
O18	O	1.249613	0.899842	0.190427
O19	O	0.676858	0.190093	-0.399992
O20	O	1.176858	0.690093	0.100008
O21	O	0.621615	0.309448	-0.190233
O22	O	1.121615	0.809448	0.309767
O23	O	0.548797	0.309392	-0.309506
O24	O	1.048797	0.809392	0.190494
O25	O	0.621623	0.399743	-0.519216
O26	O	1.121623	0.899743	-0.019216
O27	O	0.548779	0.399760	-0.399877
O28	O	1.048779	0.899760	0.100123
O29	O	0.676834	0.309362	-0.519266
O30	O	1.176834	0.809362	-0.019266
O31	O	0.676745	0.519128	-0.309508
O32	O	1.176745	1.019128	0.190492
O33	O	0.621573	0.519085	-0.399879
O34	O	1.121573	1.019085	0.100121
C35	C	0.532488	0.354572	-0.354684
C36	C	1.032488	0.854572	0.145316
C37	C	0.482553	0.354576	-0.354679
C38	C	0.982553	0.854576	0.145321
C39	C	0.649163	0.545809	-0.354702
C40	C	1.149163	1.045809	0.145298
C41	C	0.649184	0.627608	-0.354712
C42	C	1.149184	1.127608	0.145288
C43	C	0.649231	0.354544	-0.546691
C44	C	1.149231	0.854544	-0.046691
C45	C	0.649240	0.354519	-0.628489
C46	C	1.149240	0.854519	-0.128489
C47	C	0.172910	0.401728	-0.401736
C48	C	0.672910	0.901728	0.098264
C49	C	-0.014763	0.401748	-0.401769
C50	C	0.485237	0.901748	0.098231
O51	O	-0.039028	0.441803	-0.441747
O52	O	0.460972	0.941803	0.058253
N53	N	-0.038232	0.354630	-0.354793
N54	N	0.461768	0.854630	0.145207
C55	C	-0.014779	0.307500	-0.307809
C56	C	0.485221	0.807500	0.192191
O57	O	-0.039047	0.267418	-0.267859
O58	O	0.460953	0.767418	0.232141
C59	C	0.172893	0.307476	-0.307780
C60	C	0.672893	0.807476	0.192220
C61	C	0.196359	0.354603	-0.354754
C62	C	0.696359	0.854603	0.145246
C63	C	0.196376	0.448850	-0.448707
C64	C	0.696376	0.948850	0.051293
C65	C	0.243292	0.448847	-0.448696
C66	C	0.743292	0.948847	0.051304
C67	C	0.266741	0.401722	-0.401713
C68	C	0.766741	0.901722	0.098287
C69	C	0.243274	0.354600	-0.354743
C70	C	0.743274	0.854600	0.145257
C71	C	0.196344	0.260343	-0.260800
C72	C	0.696344	0.760343	0.239200
C73	C	0.243266	0.260340	-0.260799
C74	C	0.743266	0.760340	0.239201
C75	C	0.266732	0.307466	-0.307772
C76	C	0.766732	0.807466	0.192228
C77	C	0.313639	0.307472	-0.307749
C78	C	0.813639	0.807472	0.192251
N79	N	0.337108	0.354590	-0.354725
N80	N	0.837108	0.854590	0.145275
C81	C	0.313659	0.401715	-0.401707
C82	C	0.813659	0.901715	0.098293
C83	C	-0.113310	0.307517	-0.307826
C84	C	0.386690	0.807517	0.192174
C85	C	-0.160228	0.307524	-0.307832
C86	C	0.339772	0.807524	0.192168
C87	C	-0.160208	0.401771	-0.401794
C88	C	0.339792	0.901771	0.098206
C89	C	-0.113290	0.401768	-0.401783
C90	C	0.386710	0.901768	0.098217
C91	C	-0.089841	0.354635	-0.354802
C92	C	0.410159	0.854635	0.145198
C93	C	0.412184	0.401706	-0.401679
C94	C	0.912184	0.901706	0.098321
C95	C	0.459104	0.401701	-0.401661
C96	C	0.959104	0.901701	0.098339
C97	C	0.459081	0.307451	-0.307703
C98	C	0.959081	0.807451	0.192297
C99	C	0.412165	0.307459	-0.307718
C100	C	0.912165	0.807459	0.192282
C101	C	0.388718	0.354588	-0.354712
C102	C	0.888718	0.854588	0.145288
O103	O	0.337933	0.267432	-0.267797
O104	O	0.837933	0.767432	0.232203
O105	O	0.337934	0.441779	-0.441663
O106	O	0.837934	0.941779	0.058337
C107	C	0.125994	0.401730	-0.401748
C108	C	0.625994	0.901730	0.098252
C109	C	0.102528	0.354608	-0.354777
C110	C	0.602528	0.854608	0.145223
C111	C	0.125977	0.307483	-0.307795
C112	C	0.625977	0.807483	0.192205
C113	C	0.055610	0.354615	-0.354783
C114	C	0.555610	0.854615	0.145217
C115	C	0.032161	0.401740	-0.401765
C116	C	0.532161	0.901740	0.098235
C117	C	0.055630	0.448858	-0.448742
C118	C	0.555630	0.948858	0.051258
C119	C	0.102545	0.448855	-0.448730
C120	C	0.602545	0.948855	0.051270
C121	C	0.102509	0.260365	-0.260819
C122	C	0.602509	0.760365	0.239181
C123	C	0.055593	0.260373	-0.260833
C124	C	0.555593	0.760373	0.239167
C125	C	0.032144	0.307497	-0.307816
C126	C	0.532144	0.807497	0.192184
C127	C	0.766389	0.354635	-0.354791
C128	C	1.266389	0.854635	0.145209
C129	C	0.816323	0.354649	-0.354814
C130	C	1.316323	0.854649	0.145186
C131	C	0.649270	0.162650	-0.354789
C132	C	1.149270	0.662650	0.145211
C133	C	0.649296	0.080851	-0.354811
C134	C	1.149296	0.580851	0.145189
C135	C	0.677979	0.815800	-0.307742
C136	C	1.177979	1.315800	0.192258
C137	C	0.677999	0.892659	-0.307760
C138	C	1.177999	1.392659	0.192240
C139	C	0.620499	0.892654	-0.401786
C140	C	1.120499	1.392654	0.098214
C141	C	0.620481	0.815797	-0.401771
C142	C	1.120481	1.315797	0.098229
C143	C	0.649221	0.777372	-0.354745
C144	C	1.149221	1.277372	0.145255
C145	C	0.649258	0.931088	-0.354778
C146	C	1.149258	1.431088	0.145222
C147	C	0.649280	1.014421	-0.354797
C148	C	1.149280	1.514421	0.145203
C149	C	0.649200	0.694033	-0.354726
C150	C	1.149200	1.194033	0.145274
C151	C	0.620546	0.307411	-0.816684
C152	C	1.120546	0.807411	-0.316684
C153	C	0.620554	0.307396	-0.893543
C154	C	1.120554	0.807396	-0.393543
C155	C	0.677989	0.401540	-0.893533
C156	C	1.177989	0.901540	-0.393533
C157	C	0.677978	0.401558	-0.816676
C158	C	1.177978	0.901558	-0.316676
C159	C	0.649258	0.354489	-0.778253
C160	C	1.149258	0.854489	-0.278253
C161	C	0.649276	0.354456	-0.931969
C162	C	1.149276	0.854456	-0.431969
C163	C	0.649284	0.354441	-1.015303
C164	C	1.149284	0.854441	-0.515303
C165	C	0.649248	0.354506	-0.694914
C166	C	1.149248	0.854506	-0.194914
C167	C	0.649215	0.354609	-0.163531
C168	C	1.149215	0.854609	0.336469
C169	C	0.649293	0.354426	-0.081733
C170	C	1.149293	0.854426	0.418267
H171	H	0.478208	0.440080	-0.439914
H172	H	0.978208	0.940080	0.060086
H173	H	0.597159	0.269084	-0.785403
H174	H	1.097159	0.769084	-0.285403
H175	H	0.597062	0.784507	-0.440050
H176	H	1.097062	1.284507	0.059950
C177	C	-0.060542	0.500773	-0.411831
C178	C	0.439458	1.000773	0.088169
C179	C	-0.087498	0.453566	-0.453423
C180	C	0.412502	0.953566	0.046577
H181	H	-0.044624	0.532753	-0.443715
H182	H	0.455376	1.032753	0.056285
H183	H	-0.039860	0.472707	-0.383861
H184	H	0.460140	0.972707	0.116139
H185	H	-0.078864	0.528882	-0.379717
H186	H	0.421136	1.028882	0.120283
H187	H	-0.069176	0.425453	-0.485533
H188	H	0.430824	0.925453	0.014467
H189	H	-0.108183	0.481634	-0.481405
H190	H	0.391817	0.981634	0.018595
H191	H	0.701360	0.439898	-0.785384
H192	H	1.201360	0.939898	-0.285384
H193	H	0.597099	0.923949	-0.440072
H194	H	1.097099	1.423949	0.059928
H195	H	0.597173	0.269060	-0.924830
H196	H	1.097173	0.769060	-0.424830
C197	C	0.703510	0.443312	-1.011346
C198	C	1.203510	0.943312	-0.511346
C199	C	0.709561	0.453271	-0.935770
C200	C	1.209561	0.953271	-0.435770
H201	H	0.723004	0.475246	-1.037419
H202	H	1.223004	0.975246	-0.537419
H203	H	0.673327	0.454075	-1.023923
H204	H	1.173327	0.954075	-0.523923
H205	H	0.710101	0.393861	-1.023953
H206	H	1.210101	0.893861	-0.523953
H207	H	0.702966	0.502721	-0.923163
H208	H	1.202966	1.002721	-0.423163
H209	H	0.739750	0.442513	-0.923188
H210	H	1.239750	0.942513	-0.423188
C211	C	-0.155523	0.214361	-0.214960
C212	C	0.344477	0.714361	0.285040
C213	C	-0.186019	0.255725	-0.256192
C214	C	0.313981	0.755725	0.243808
H215	H	-0.171445	0.182377	-0.183085
H216	H	0.328555	0.682377	0.316915
H217	H	-0.137240	0.246390	-0.186750
H218	H	0.362760	0.746390	0.313250
H219	H	-0.137206	0.186255	-0.247084
H220	H	0.362794	0.686255	0.252916
H221	H	-0.204333	0.283836	-0.224068
H222	H	0.295667	0.783836	0.275932
H223	H	-0.204309	0.223693	-0.284404
H224	H	0.295691	0.723693	0.215596
C225	C	0.703483	0.697985	-0.265964
C226	C	1.203483	1.197985	0.234036
C227	C	0.709572	0.773561	-0.256057
C228	C	1.209572	1.273561	0.243943
H229	H	0.722987	0.671912	-0.234052
H230	H	1.222987	1.171912	0.265948
H231	H	0.710035	0.685347	-0.315415
H232	H	1.210035	1.185347	0.184585
H233	H	0.673299	0.685441	-0.255133
H234	H	1.173299	1.185441	0.244867
H235	H	0.739756	0.786106	-0.266894
H236	H	1.239756	1.286106	0.233106
H237	H	0.703023	0.786205	-0.206595
H238	H	1.203023	1.286205	0.293405
C239	C	0.416929	0.494868	-0.494553
C240	C	0.916929	0.994868	0.005447
C241	C	0.386416	0.453513	-0.453334
C242	C	0.886416	0.953513	0.046666
H243	H	0.401020	0.526855	-0.526437
H244	H	0.901020	1.026855	-0.026437
H245	H	0.435244	0.462835	-0.522753
H246	H	0.935244	0.962835	-0.022753
H247	H	0.435212	0.522972	-0.462421
H248	H	0.935212	1.022972	0.037579
H249	H	0.368135	0.425405	-0.485466
H250	H	0.868135	0.925405	0.014534
H251	H	0.368094	0.485550	-0.425133
H252	H	0.868094	0.985550	0.074867
C253	C	0.511820	0.297102	-0.208732
C254	C	1.011820	0.797102	0.291268
C255	C	0.484865	0.255654	-0.256065
C256	C	0.984865	0.755654	0.243935
H257	H	0.527742	0.265121	-0.176859
H258	H	1.027742	0.765121	0.323141
H259	H	0.493502	0.329119	-0.180520
H260	H	0.993502	0.829119	0.319480
H261	H	0.532504	0.325169	-0.236718
H262	H	1.032504	0.825169	0.263282
H263	H	0.464179	0.227591	-0.228079
H264	H	0.964179	0.727591	0.271921
H265	H	0.503185	0.223625	-0.284279
H266	H	1.003185	0.723625	0.215721
H267	H	0.177289	0.487225	-0.486970
H268	H	0.677289	0.987225	0.013030
C269	C	0.238583	0.541997	-0.541577
C270	C	0.738583	1.041997	-0.041577
C271	C	0.269082	0.500642	-0.500340
C272	C	0.769082	1.000642	-0.000340
H273	H	0.254504	0.573969	-0.573466
H274	H	0.754504	1.073969	-0.073466
H275	H	0.220271	0.570108	-0.509463
H276	H	0.720271	1.070108	-0.009463
H277	H	0.220297	0.509956	-0.569780
H278	H	0.720297	1.009956	-0.069780
H279	H	0.287366	0.532683	-0.472133
H280	H	0.787366	1.032683	0.027867
H281	H	0.287402	0.472529	-0.532458
H282	H	0.787402	0.972529	-0.032458
C283	C	0.684339	0.979222	-0.208847
C284	C	1.184339	1.479222	0.291153
C285	C	0.709627	0.934928	-0.256141
C286	C	1.209627	1.434928	0.243859
H287	H	0.703872	1.005328	-0.176997
H288	H	1.203872	1.505328	0.323003
H289	H	0.664789	0.949304	-0.180609
H290	H	1.164789	1.449304	0.319391
H291	H	0.667213	1.013083	-0.236863
H292	H	1.167213	1.513083	0.263137
H293	H	0.726751	0.901064	-0.228125
H294	H	1.226751	1.401064	0.271875
H295	H	0.729185	0.964849	-0.284382
H296	H	1.229185	1.464849	0.215618
H297	H	-0.179309	0.440142	-0.440048
H298	H	0.320691	0.940142	0.059952
H299	H	-0.094223	0.269135	-0.269565
H300	H	0.405777	0.769135	0.230435
C301	C	0.201058	0.167168	-0.167945
C302	C	0.701058	0.667168	0.332055
C303	C	0.170559	0.208532	-0.209170
C304	C	0.670559	0.708532	0.290830
H305	H	0.185139	0.135177	-0.136073
H306	H	0.685139	0.635177	0.363927
H307	H	0.219339	0.199196	-0.139731
H308	H	0.719339	0.699196	0.360269
H309	H	0.219376	0.139070	-0.200073
H310	H	0.719376	0.639070	0.299927
H311	H	0.152243	0.236635	-0.177042
H312	H	0.652243	0.736635	0.322958
H313	H	0.152270	0.176500	-0.237386
H314	H	0.652270	0.676500	0.262614
H315	H	0.393058	0.269086	-0.269466
H316	H	0.893058	0.769086	0.230534
C317	C	0.295994	0.249980	-0.161813
C318	C	0.795994	0.749980	0.338187
C319	C	0.269042	0.208533	-0.209153
C320	C	0.769042	0.708533	0.290847
H321	H	0.311909	0.217997	-0.129932
H322	H	0.811909	0.717997	0.370068
H323	H	0.277674	0.282002	-0.133610
H324	H	0.777674	0.782002	0.366390
H325	H	0.316684	0.278040	-0.189793
H326	H	0.816684	0.778040	0.310207
H327	H	0.248349	0.180477	-0.181172
H328	H	0.748349	0.680477	0.318828
H329	H	0.287363	0.176498	-0.237358
H330	H	0.787363	0.676498	0.262642
H331	H	0.036529	0.487231	-0.486994
H332	H	0.536529	0.987231	0.013006
C333	C	0.097837	0.542008	-0.541609
C334	C	0.597837	1.042008	-0.041609
C335	C	0.128335	0.500653	-0.500372
C336	C	0.628335	1.000653	-0.000372
H337	H	0.113757	0.573983	-0.573496
H338	H	0.613757	1.073983	-0.073496
H339	H	0.079524	0.570118	-0.509494
H340	H	0.579524	1.070118	-0.009494
H341	H	0.079551	0.509968	-0.569813
H342	H	0.579551	1.009968	-0.069813
H343	H	0.146619	0.532693	-0.472163
H344	H	0.646619	1.032693	0.027837
H345	H	0.146656	0.472541	-0.532491
H346	H	0.646656	0.972541	-0.032491
C347	C	0.060299	0.167201	-0.167963
C348	C	0.560299	0.667201	0.332037
C349	C	0.029802	0.208564	-0.209196
C350	C	0.529802	0.708564	0.290804
H351	H	0.044377	0.135212	-0.136093
H352	H	0.544377	0.635212	0.363907
H353	H	0.078578	0.199229	-0.139748
H354	H	0.578578	0.699229	0.360252
H355	H	0.078618	0.139100	-0.200087
H356	H	0.578618	0.639100	0.299913
H357	H	0.011485	0.236670	-0.177072
H358	H	0.511485	0.736670	0.322928
H359	H	0.011515	0.176532	-0.237413
H360	H	0.511515	0.676532	0.262587
H361	H	0.121596	0.221990	-0.222559
H362	H	0.621596	0.721990	0.277441
