data_functionalizedCrystal
_audit_creation_method	'MofGen! by Chris Wilmer'
_symmetry_space_group_name_H-M	'P1'
_symmetry_Int_Tables_number	1
_symmetry_cell_setting	triclinic
loop_
_symmetry_equiv_pos_as_xyz
  x,y,z
_cell_length_a	14.971506
_cell_length_b	15.712078
_cell_length_c	14.048226
_cell_angle_alpha	89.996372
_cell_angle_beta	89.993237
_cell_angle_gamma	101.601768
loop_
_atom_site_label
_atom_site_type_symbol
_atom_site_fract_x
_atom_site_fract_y
_atom_site_fract_z
O1	O	1.223702	0.112768	-0.079166
O2	O	1.723702	0.612768	0.420834
O3	O	0.967698	0.126243	-0.079166
O4	O	1.467698	0.626243	0.420834
O5	O	1.061643	-0.006360	-0.079161
O6	O	1.561643	0.493640	0.420839
O7	O	1.129757	0.245371	-0.079171
O8	O	1.629757	0.745371	0.420829
O9	O	1.061624	-0.006368	0.079160
O10	O	1.561624	0.493632	0.579160
O11	O	0.967679	0.126236	0.079155
O12	O	1.467679	0.626236	0.579155
O13	O	1.223683	0.112760	0.079155
O14	O	1.723683	0.612760	0.579155
Zn15	Zn	1.095678	0.119496	0.104292
Zn16	Zn	1.595678	0.619496	0.604292
Zn17	Zn	1.095703	0.119507	-0.104303
Zn18	Zn	1.595703	0.619507	0.395697
O19	O	1.129738	0.245363	0.079150
O20	O	1.629738	0.745363	0.579150
C21	C	0.934167	0.125634	-0.000006
C22	C	1.434167	0.625634	0.499994
C23	C	0.834279	0.123818	-0.000006
C24	C	1.334279	0.623818	0.499994
C25	C	0.419136	0.194792	-0.000018
C26	C	0.919136	0.694792	0.499982
C27	C	0.512990	0.196491	-0.000022
C28	C	1.012990	0.696491	0.499978
C29	C	0.544809	0.118582	-0.000015
C30	C	1.044809	0.618582	0.499985
C31	C	0.482767	0.038968	-0.000013
C32	C	0.982767	0.538968	0.499987
C33	C	0.388915	0.037270	-0.000016
C34	C	0.888915	0.537270	0.499984
C35	C	0.678386	0.042513	-0.000006
C36	C	1.178386	0.542513	0.499994
C37	C	0.772245	0.044211	-0.000001
C38	C	1.272245	0.544211	0.499999
C39	C	0.802461	0.201734	-0.000012
C40	C	1.302461	0.701734	0.499988
C41	C	0.708609	0.200036	-0.000014
C42	C	1.208609	0.700036	0.499986
C43	C	0.646574	0.120422	-0.000011
C44	C	1.146574	0.620422	0.499989
C45	C	1.050506	-0.038579	-0.000001
C46	C	1.550506	0.461421	0.499999
C47	C	1.017338	-0.134571	-0.000004
C48	C	1.517338	0.365429	0.499996
C49	C	1.298938	-0.501357	-0.000013
C50	C	1.798938	-0.001357	0.499987
C51	C	1.267751	-0.591553	-0.000013
C52	C	1.767751	-0.091553	0.499987
C53	C	1.111484	-0.571109	-0.000013
C54	C	1.611484	-0.071109	0.499987
C55	C	1.142657	-0.480909	-0.000009
C56	C	1.642657	0.019091	0.499991
C57	C	1.236385	-0.446041	-0.000010
C58	C	1.736385	0.053959	0.499990
C59	C	1.080105	-0.425593	-0.000006
C60	C	1.580105	0.074407	0.499994
C61	C	1.111276	-0.335402	-0.000007
C62	C	1.611276	0.164598	0.499993
C63	C	1.205000	-0.300526	-0.000010
C64	C	1.705000	0.199474	0.499990
C65	C	1.267557	-0.355849	-0.000011
C66	C	1.767557	0.144151	0.499989
C67	C	0.986377	-0.460464	-0.000012
C68	C	1.486377	0.039536	0.499988
C69	C	0.923824	-0.405148	-0.000009
C70	C	1.423824	0.094852	0.499991
C71	C	0.954995	-0.314955	-0.000003
C72	C	1.454995	0.185045	0.499997
C73	C	1.048719	-0.280079	-0.000006
C74	C	1.548719	0.219921	0.499994
C75	C	0.892439	-0.259631	-0.000002
C76	C	1.392439	0.240369	0.499998
C77	C	0.923610	-0.169440	-0.000003
C78	C	1.423610	0.330560	0.499997
C79	C	1.079891	-0.189887	-0.000007
C80	C	1.579891	0.310113	0.499993
C81	C	1.257214	0.113369	-0.000007
C82	C	1.757214	0.613369	0.499993
C83	C	1.357102	0.115185	-0.000014
C84	C	1.857102	0.615185	0.499986
C85	C	1.140875	0.277582	-0.000012
C86	C	1.640875	0.777582	0.499988
C87	C	1.174043	0.373574	-0.000015
C88	C	1.674043	0.873574	0.499985
N89	N	1.095667	0.119489	0.246653
N90	N	1.595667	0.619489	0.746653
N91	N	1.095719	0.119507	-0.246664
N92	N	1.595719	0.619507	0.253336
C93	C	1.137293	0.060796	0.296473
C94	C	1.637293	0.560796	0.796473
C95	C	1.137299	0.060796	0.396131
C96	C	1.637299	0.560796	0.896131
C97	C	1.095684	0.119493	0.445966
C98	C	1.595684	0.619493	0.945966
C99	C	1.054053	0.178188	0.396139
C100	C	1.554053	0.678188	0.896139
C101	C	1.054042	0.178184	0.296483
C102	C	1.554042	0.678184	0.796483
C103	C	1.054081	0.178194	0.603853
C104	C	1.554081	0.678194	1.103853
C105	C	1.054093	0.178200	0.703516
C106	C	1.554093	0.678200	1.203516
C107	C	1.137338	0.060806	0.703501
C108	C	1.637338	0.560806	1.203501
C109	C	1.137327	0.060802	0.603845
C110	C	1.637327	0.560802	1.103845
C111	C	1.095697	0.119499	0.554025
C112	C	1.595697	0.619499	1.054025
H113	H	0.798148	-0.019230	-0.000003
H114	H	1.298148	0.480770	0.499997
Cl115	Cl	0.774614	-0.303478	-0.000020
Cl116	Cl	1.274614	0.196522	0.499980
Cl117	Cl	0.379146	0.292742	-0.000020
Cl118	Cl	0.879146	0.792742	0.499980
Cl119	Cl	0.844972	-0.099895	0.000001
Cl120	Cl	1.344972	0.400105	0.500001
H121	H	1.020205	0.225996	0.744087
H122	H	1.520205	0.725996	1.244087
H123	H	1.171185	0.013002	0.255903
H124	H	1.671185	0.513002	0.755903
H125	H	1.375260	-0.472965	-0.000004
H126	H	1.875260	0.027035	0.499996
H127	H	0.847510	-0.433551	-0.000012
H128	H	1.347510	0.066449	0.499988
Cl129	Cl	1.189628	-0.012991	0.458764
Cl130	Cl	1.689628	0.487009	0.958764
Cl131	Cl	1.189649	-0.012983	0.541192
Cl132	Cl	1.689649	0.487017	1.041192
Cl133	Cl	0.993658	-0.614953	-0.000020
Cl134	Cl	1.493658	-0.114953	0.499980
H135	H	1.020164	0.225977	0.436721
H136	H	1.520164	0.725977	0.936721
Cl137	Cl	1.001705	0.251969	0.233853
Cl138	Cl	1.501705	0.751969	0.733853
H139	H	1.020177	0.225989	0.563293
H140	H	1.520177	0.725989	1.063293
Cl141	Cl	0.590972	0.296574	-0.000033
Cl142	Cl	1.090972	0.796574	0.499967
Cl143	Cl	1.197723	-0.146045	0.000024
Cl144	Cl	1.697723	0.353955	0.500024
Cl145	Cl	1.189673	-0.012981	0.766135
Cl146	Cl	1.689673	0.487019	1.266135
H147	H	0.961000	-0.533905	-0.000017
H148	H	1.461000	-0.033905	0.499983
Cl149	Cl	0.600401	-0.057575	0.000006
Cl150	Cl	1.100401	0.442425	0.500006
Cl151	Cl	0.310929	-0.062812	-0.000010
Cl152	Cl	0.810929	0.437188	0.499990
H153	H	1.318697	-0.636589	-0.000021
H154	H	1.818697	-0.136589	0.499979
H155	H	1.230378	-0.227085	-0.000011
H156	H	1.730378	0.272915	0.499989
Cl157	Cl	0.522768	-0.058976	-0.000007
Cl158	Cl	1.022768	0.441024	0.499993
H159	H	0.852975	0.266559	-0.000014
H160	H	1.352975	0.766559	0.499986
Cl161	Cl	0.668610	0.297981	-0.000019
Cl162	Cl	1.168610	0.797981	0.499981
H163	H	1.343879	-0.327457	-0.000001
H164	H	1.843879	0.172543	0.499999
