data_functionalizedCrystal
_audit_creation_method	'MofGen! by Chris Wilmer'
_symmetry_space_group_name_H-M	'P1'
_symmetry_Int_Tables_number	1
_symmetry_cell_setting	triclinic
loop_
_symmetry_equiv_pos_as_xyz
  x,y,z
_cell_length_a	19.288864
_cell_length_b	10.868271
_cell_length_c	19.288857
_cell_angle_alpha	90.007284
_cell_angle_beta	83.134677
_cell_angle_gamma	90.018163
loop_
_atom_site_label
_atom_site_type_symbol
_atom_site_fract_x
_atom_site_fract_y
_atom_site_fract_z
O1	O	0.921346	0.102723	0.086648
O2	O	1.421346	0.602723	0.586648
O3	O	0.719085	0.102639	0.098337
O4	O	1.219085	0.602639	0.598337
O5	O	0.826062	0.102669	-0.008638
O6	O	1.326062	0.602669	0.491362
O7	O	0.814368	0.102693	0.193623
O8	O	1.314368	0.602693	0.693623
O9	O	0.826054	-0.101976	-0.008642
O10	O	1.326054	0.398024	0.491358
O11	O	0.719076	-0.102005	0.098333
O12	O	1.219076	0.397995	0.598333
O13	O	0.921337	-0.101922	0.086644
O14	O	1.421337	0.398078	0.586644
Zn15	Zn	0.820205	-0.134456	0.092488
Zn16	Zn	1.320205	0.365544	0.592488
Zn17	Zn	0.820217	0.135173	0.092493
Zn18	Zn	1.320217	0.635173	0.592493
O19	O	0.814359	-0.101951	0.193619
O20	O	1.314359	0.398049	0.693619
C21	C	0.693204	0.000306	0.097959
C22	C	1.193204	0.500306	0.597959
C23	C	0.616100	0.000274	0.096830
C24	C	1.116100	0.500274	0.596830
N25	N	0.820202	-0.318470	0.092484
N26	N	1.320202	0.181530	0.592484
C27	C	0.571402	0.000301	0.159598
C28	C	1.071402	0.500301	0.659598
C29	C	0.498955	0.000314	0.158537
C30	C	0.998955	0.500314	0.658537
C31	C	0.471209	0.000325	0.094705
C32	C	0.971209	0.500325	0.594705
C33	C	0.515917	0.000291	0.031929
C34	C	1.015917	0.500291	0.531929
C35	C	0.588363	0.000266	0.032991
C36	C	1.088363	0.500266	0.532991
C37	C	0.362952	0.072057	0.044527
C38	C	0.862952	0.572057	0.544527
C39	C	0.290507	0.072090	0.043467
C40	C	0.790507	0.572090	0.543467
C41	C	0.247764	0.000399	0.091425
C42	C	0.747764	0.500399	0.591425
C43	C	0.277472	-0.071309	0.140455
C44	C	0.777472	0.428691	0.640455
C45	C	0.349918	-0.071335	0.141518
C46	C	0.849918	0.428665	0.641518
C47	C	0.392656	0.000353	0.093546
C48	C	0.892656	0.500353	0.593546
C49	C	0.124510	0.000439	0.153048
C50	C	0.624510	0.500439	0.653048
C51	C	0.052062	0.000445	0.151984
C52	C	0.552062	0.500445	0.651984
C53	C	0.069026	0.000435	0.025374
C54	C	0.569026	0.500435	0.525374
C55	C	0.141472	0.000416	0.026439
C56	C	0.641472	0.500416	0.526439
C57	C	0.169210	0.000425	0.090278
C58	C	0.669210	0.500425	0.590278
C59	C	0.820213	-0.569476	0.092492
C60	C	1.320213	-0.069476	0.592492
C61	C	0.820205	-0.429798	0.092490
C62	C	1.320205	0.070202	0.592490
C63	C	0.947218	0.000414	0.087022
C64	C	1.447218	0.500414	0.587022
C65	C	1.024321	0.000454	0.088151
C66	C	1.524321	0.500454	0.588151
C67	C	0.825683	0.000345	-0.034516
C68	C	1.325683	0.500345	0.465484
C69	C	0.824556	0.000341	-0.111620
C70	C	1.324556	0.500341	0.388380
N71	N	0.820225	0.319187	0.092492
N72	N	1.320225	0.819187	0.592492
C73	C	0.824035	0.111893	-0.147829
C74	C	1.324035	0.611893	0.352171
C75	C	0.822966	0.111901	-0.220275
C76	C	1.322966	0.611901	0.279725
C77	C	0.822432	0.000352	-0.256511
C78	C	1.322432	0.500352	0.243489
C79	C	0.822950	-0.111215	-0.220294
C80	C	1.322950	0.388785	0.279706
C81	C	0.824011	-0.111220	-0.147848
C82	C	1.324011	0.388780	0.352152
C83	C	0.861430	-0.085085	-0.376745
C84	C	1.361430	0.414915	0.123255
C85	C	0.860373	-0.085075	-0.449189
C86	C	1.360373	0.414925	0.050811
C87	C	0.819155	0.000365	-0.479957
C88	C	1.319155	0.500365	0.020043
C89	C	0.779003	0.085815	-0.438273
C90	C	1.279003	0.585815	0.061727
C91	C	0.780064	0.085809	-0.365827
C92	C	1.280064	0.585809	0.134173
C93	C	0.821281	0.000346	-0.335066
C94	C	1.321281	0.500346	0.164934
C95	C	0.817474	0.111933	-0.594720
C96	C	1.317474	0.611933	-0.094720
C97	C	0.816401	0.111938	-0.667167
C98	C	1.316401	0.611938	-0.167167
C99	C	0.816391	-0.111182	-0.667185
C100	C	1.316391	0.388818	-0.167185
C101	C	0.817457	-0.111182	-0.594739
C102	C	1.317457	0.388818	-0.094739
C103	C	0.818002	0.000378	-0.558511
C104	C	1.318002	0.500378	-0.058511
C105	C	0.814739	0.000375	0.219498
C106	C	1.314739	0.500375	0.719498
C107	C	0.815866	0.000387	0.296602
C108	C	1.315866	0.500387	0.796602
H109	H	0.593981	0.000310	0.211581
H110	H	1.093981	0.500310	0.711581
Br111	Br	0.031379	0.000429	-0.061258
Br112	Br	0.531379	0.500429	0.438742
H113	H	0.817888	-0.202020	-0.565258
H114	H	1.317888	0.297980	-0.065258
H115	H	0.147095	0.000428	0.205029
H116	H	0.647095	0.500428	0.705029
H117	H	0.894994	-0.154670	-0.351700
H118	H	1.394994	0.345330	0.148300
H119	H	0.015669	0.000460	0.203100
H120	H	0.515669	0.500460	0.703100
Br121	Br	0.824770	0.263296	-0.098665
Br122	Br	1.324770	0.763296	0.401335
Br123	Br	0.822217	-0.262604	-0.269469
Br124	Br	1.322217	0.237396	0.230531
H125	H	0.397749	0.130443	0.005472
H126	H	0.897749	0.630443	0.505472
H127	H	0.374103	-0.129726	0.181437
H128	H	0.874103	0.370274	0.681437
Br129	Br	0.815685	0.263343	-0.716307
Br130	Br	1.315685	0.763343	-0.216307
Br131	Br	0.438282	0.000343	0.243729
Br132	Br	0.938282	0.500343	0.743729
H133	H	0.893070	-0.154649	-0.483124
H134	H	1.393070	0.345351	0.016876
H135	H	0.493322	0.000317	-0.020044
H136	H	0.993322	0.500317	0.479956
H137	H	0.822537	0.202743	-0.249761
H138	H	1.322537	0.702743	0.250239
H139	H	0.815952	-0.202007	-0.696688
H140	H	1.315952	0.297993	-0.196688
H141	H	0.824433	-0.202062	-0.118367
H142	H	1.324433	0.297938	0.381633
H143	H	0.242672	-0.129687	0.179507
H144	H	0.742672	0.370313	0.679507
H145	H	0.177867	0.000401	-0.024674
H146	H	0.677867	0.500401	0.475326
H147	H	0.266325	0.130484	0.003547
H148	H	0.766325	0.630484	0.503547
Br149	Br	0.818209	0.263333	-0.545549
Br150	Br	1.318209	0.763333	-0.045549
Br151	Br	0.649029	0.000226	-0.052201
Br152	Br	1.149029	0.500226	0.447799
H153	H	0.747370	0.155383	-0.331890
H154	H	1.247370	0.655383	0.168110
H155	H	0.745439	0.155388	-0.463322
H156	H	1.245439	0.655388	0.036678
