data_functionalizedCrystal
_audit_creation_method	'MofGen! by Chris Wilmer'
_symmetry_space_group_name_H-M	'P1'
_symmetry_Int_Tables_number	1
_symmetry_cell_setting	triclinic
loop_
_symmetry_equiv_pos_as_xyz
  x,y,z
_cell_length_a	12.837932
_cell_length_b	17.019294
_cell_length_c	11.295483
_cell_angle_alpha	90.223525
_cell_angle_beta	85.460332
_cell_angle_gamma	89.098799
loop_
_atom_site_label
_atom_site_type_symbol
_atom_site_fract_x
_atom_site_fract_y
_atom_site_fract_z
O1	O	1.383584	0.199280	-0.119459
O2	O	1.081720	0.189199	-0.118427
O3	O	1.240248	0.080603	-0.107285
O4	O	1.225056	0.307876	-0.130601
O5	O	1.226324	0.090125	0.089789
O6	O	1.067796	0.198721	0.078647
O7	O	1.369660	0.208802	0.077615
Cu8	Cu	1.217456	0.204631	0.096126
Cu9	Cu	1.233923	0.193370	-0.136937
O10	O	1.211132	0.317398	0.066473
C11	C	1.036118	0.190555	-0.019541
C12	C	0.920982	0.180400	-0.018500
C13	C	0.770651	0.095519	-0.009790
C14	C	0.878832	0.105056	-0.010769
C15	C	0.854943	0.246211	-0.025250
C16	C	0.746762	0.236675	-0.024271
C17	C	0.704620	0.161326	-0.016543
C18	C	0.596438	0.151789	-0.015572
C19	C	0.572550	0.292944	-0.030044
C20	C	0.680731	0.302481	-0.031023
C21	C	1.232435	0.056072	-0.005745
C22	C	1.229888	-0.031210	0.003202
C23	C	1.236284	-0.077401	-0.100019
C24	C	1.233884	-0.159411	-0.091609
C25	C	1.225096	-0.195229	0.020023
C26	C	1.218697	-0.149032	0.123252
C27	C	1.221089	-0.067023	0.114840
C28	C	1.217485	-0.442583	0.050794
C29	C	1.215096	-0.524599	0.059197
C30	C	1.230282	-0.534972	-0.155665
C31	C	1.232680	-0.452961	-0.164066
C32	C	1.226275	-0.406771	-0.060837
C33	C	1.222646	-0.279057	0.028622
C34	C	1.228718	-0.322945	-0.069438
C35	C	1.415262	0.207446	-0.021273
C36	C	1.530398	0.217601	-0.022322
C37	C	1.218945	0.341929	-0.035069
C38	C	1.221492	0.429210	-0.044024
N39	N	1.205882	0.212551	0.260049
N40	N	1.245505	0.185444	-0.300860
C41	C	1.328823	0.128386	0.517974
C42	C	1.320084	0.134377	0.642023
C43	C	1.179660	0.230521	0.632199
C44	C	1.188399	0.224530	0.508150
C45	C	1.262984	0.173461	0.451042
C46	C	1.271728	0.167474	0.326990
C47	C	1.131300	0.263614	0.317169
C48	C	1.122561	0.269605	0.441217
H49	H	0.562128	0.090436	-0.009284
Br50	Br	1.430056	0.059092	0.440467
H51	H	0.889273	0.307558	-0.031531
H52	H	0.715058	0.363829	-0.037311
Br53	Br	0.713453	-0.006737	0.000687
Br54	Br	0.482931	0.382259	-0.039220
Br55	Br	1.242563	-0.222096	-0.231702
H56	H	0.932591	0.051469	-0.005270
Br57	Br	1.244615	-0.404357	-0.315572
Br58	Br	1.041953	0.324798	0.226320
Br59	Br	1.078429	0.299814	0.709715
Br60	Br	1.248223	-0.028799	-0.251528
Br61	Br	1.372953	0.098172	0.249488
Br62	Br	1.238975	-0.597662	-0.295753
H63	H	1.212291	-0.404985	0.134850
H64	H	1.207934	-0.553758	0.150106
Br65	Br	1.206752	-0.197640	0.274755
Br66	Br	1.212403	-0.004334	0.254932
Br67	Br	1.210709	-0.327673	0.180119
H68	H	1.373695	0.097671	0.696517
H69	H	1.235866	-0.293778	-0.160328
Br70	Br	1.021338	0.338906	0.518729
