data_functionalizedCrystal
_audit_creation_method	'MofGen! by Chris Wilmer'
_symmetry_space_group_name_H-M	'P1'
_symmetry_Int_Tables_number	1
_symmetry_cell_setting	triclinic
loop_
_symmetry_equiv_pos_as_xyz
  x,y,z
_cell_length_a	25.639242
_cell_length_b	25.639239
_cell_length_c	10.686551
_cell_angle_alpha	94.409472
_cell_angle_beta	94.405628
_cell_angle_gamma	90.033587
loop_
_atom_site_label
_atom_site_type_symbol
_atom_site_fract_x
_atom_site_fract_y
_atom_site_fract_z
Zn1	Zn	0.821980	-0.185496	0.713757
Zn2	Zn	0.815176	-0.279653	0.502730
Zn3	Zn	0.727829	-0.192225	0.502732
Zn4	Zn	0.734498	-0.272898	0.713649
O5	O	0.774870	-0.232568	0.608217
O6	O	0.894244	-0.197997	0.685809
O7	O	0.797950	-0.273698	0.326146
O8	O	0.740374	-0.118166	0.530771
O9	O	0.889245	-0.267173	0.530768
O10	O	0.809547	-0.113222	0.685810
O11	O	0.733777	-0.209466	0.326147
O12	O	0.655547	-0.202916	0.530666
O13	O	0.751741	-0.255661	0.890248
O14	O	0.660447	-0.262186	0.685626
O15	O	0.816014	-0.191447	0.890328
O16	O	0.804417	-0.351923	0.530663
O17	O	0.745143	-0.346961	0.685624
C18	C	0.639025	-0.232549	0.608135
C19	C	0.580911	-0.232552	0.608130
C20	C	0.774781	-0.368413	0.608159
C21	C	0.774791	-0.426526	0.608177
C22	C	0.327165	-0.201646	0.527669
C23	C	0.381769	-0.201642	0.527653
O24	O	0.407832	-0.175336	0.459171
N25	N	0.411639	-0.232556	0.608193
C26	C	0.386904	-0.263473	0.688764
O27	O	0.417325	-0.289768	0.757269
C28	C	0.332301	-0.263475	0.688785
C29	C	0.302433	-0.232562	0.608231
C30	C	0.297297	-0.170735	0.447122
C31	C	0.242697	-0.170741	0.447137
C32	C	0.217965	-0.201656	0.527698
C33	C	0.247833	-0.232567	0.608245
C34	C	0.307567	-0.294388	0.769361
C35	C	0.252960	-0.294387	0.769376
C36	C	0.223092	-0.263474	0.688822
C37	C	0.168501	-0.263488	0.688822
N38	N	0.138630	-0.232573	0.608282
C39	C	0.163362	-0.201658	0.527720
C40	C	0.501573	-0.263468	0.688714
C41	C	0.556174	-0.263470	0.688687
C42	C	0.551035	-0.201637	0.527578
C43	C	0.496433	-0.201639	0.527599
C44	C	0.471702	-0.232553	0.608174
C45	C	0.048698	-0.201671	0.527756
C46	C	-0.005907	-0.201681	0.527774
C47	C	-0.000763	-0.263511	0.688888
C48	C	0.053837	-0.263504	0.688865
C49	C	0.078566	-0.232580	0.608295
O50	O	0.142401	-0.289779	0.757272
O51	O	0.132935	-0.175362	0.459238
C52	C	0.805826	-0.789455	0.527667
C53	C	0.805847	-0.844059	0.527683
O54	O	0.832140	-0.874479	0.459167
N55	N	0.774965	-0.868804	0.608301
C56	C	0.744065	-0.838943	0.688916
O57	O	0.717800	-0.865005	0.757489
C58	C	0.744047	-0.784340	0.688904
C59	C	0.774927	-0.759598	0.608272
C60	C	0.836704	-0.764712	0.447042
C61	C	0.836682	-0.710112	0.447024
C62	C	0.805783	-0.680255	0.527630
C63	C	0.774905	-0.704998	0.608254
C64	C	0.713150	-0.754480	0.769524
C65	C	0.713135	-0.699874	0.769507
C66	C	0.744015	-0.675131	0.688875
C67	C	0.743984	-0.620541	0.688842
N68	N	0.774866	-0.595795	0.608225
C69	C	0.805765	-0.625652	0.527619
C70	C	0.744105	-0.953613	0.688935
C71	C	0.744119	-1.008215	0.688941
C72	C	0.805902	-1.013327	0.527710
C73	C	0.805884	-0.958724	0.527699
C74	C	0.774986	-0.928867	0.608318
C75	C	0.805717	-0.510988	0.527586
C76	C	0.805691	-0.456383	0.527571
C77	C	0.743910	-0.451276	0.688806
C78	C	0.743934	-0.505876	0.688817
C79	C	0.774841	-0.535731	0.608202
O80	O	0.717706	-0.590087	0.757327
O81	O	0.832031	-0.599582	0.459068
C82	C	0.911246	-0.232588	0.608300
C83	C	0.969361	-0.232596	0.608336
C84	C	0.785380	-0.222050	0.937355
C85	C	0.789859	-0.217568	1.077614
C86	C	0.774976	-0.096192	0.608303
C87	C	0.775021	-0.038077	0.608339
C88	C	0.764432	-0.243008	0.280360
C89	C	0.760054	-0.247342	0.140102
H90	H	-0.030224	-0.176507	0.462173
H91	H	0.731112	-0.276264	1.086298
Cl92	Cl	0.345102	-0.333252	0.870639
H93	H	0.830886	-0.535289	0.461945
Cl94	Cl	0.674333	-0.785571	0.870912
H95	H	0.818807	-0.188648	1.131424
H96	H	0.830836	-0.436240	0.461906
H97	H	0.687975	-0.675566	0.835160
Cl98	Cl	0.079777	-0.162796	0.426464
Cl99	Cl	0.875513	-0.679015	0.345672
H100	H	0.218382	-0.145568	0.381541
Cl101	Cl	0.705070	-0.413731	0.790140
H102	H	0.317427	-0.145557	0.381519
H103	H	0.472117	-0.176465	0.462009
H104	H	0.232828	-0.319560	0.834996
H105	H	0.571182	-0.176463	0.461982
H106	H	0.580488	-0.288648	0.754269
H107	H	0.078157	-0.288680	0.754450
H108	H	0.481441	-0.288647	0.754325
H109	H	-0.020910	-0.288684	0.754475
H110	H	0.718791	-0.526023	0.754477
Cl111	Cl	0.875554	-0.802237	0.345695
Cl112	Cl	0.844707	-0.927625	0.426331
H113	H	0.831064	-1.037646	0.462081
Cl114	Cl	0.705291	-1.039314	0.790296
Cl115	Cl	0.705252	-0.916085	0.790285
