data_functionalizedCrystal
_audit_creation_method	'MofGen! by Chris Wilmer'
_symmetry_space_group_name_H-M	'P1'
_symmetry_Int_Tables_number	1
_symmetry_cell_setting	triclinic
loop_
_symmetry_equiv_pos_as_xyz
  x,y,z
_cell_length_a	8.559649
_cell_length_b	12.996460
_cell_length_c	8.559649
_cell_angle_alpha	89.995421
_cell_angle_beta	110.221336
_cell_angle_gamma	90.005498
loop_
_atom_site_label
_atom_site_type_symbol
_atom_site_fract_x
_atom_site_fract_y
_atom_site_fract_z
O1	O	2.126883	0.085551	0.055032
O2	O	1.651398	0.085555	-0.028749
O3	O	1.931031	0.085551	0.250884
O4	O	1.847250	0.085554	-0.224601
O5	O	1.931007	-0.085583	0.250895
O6	O	1.651374	-0.085579	-0.028738
O7	O	2.126859	-0.085583	0.055043
Cu8	Cu	1.889114	-0.101207	0.013153
Cu9	Cu	1.889143	0.101179	0.013141
O10	O	1.847226	-0.085580	-0.224590
C11	C	1.591077	-0.000012	-0.035093
C12	C	1.411378	-0.000010	-0.053992
N13	N	1.889106	-0.243554	0.013164
C14	C	1.889141	-0.663368	0.013139
C15	C	1.889126	-0.546563	0.013140
C16	C	1.889124	-0.453465	0.013150
C17	C	1.889108	-0.336652	0.013154
C18	C	2.187180	-0.000014	0.061387
C19	C	2.366879	-0.000009	0.080286
C20	C	1.937369	-0.000014	0.311198
C21	C	1.956268	-0.000008	0.490898
N22	N	1.889166	0.243526	0.013144
C23	C	1.840889	-0.000012	-0.284904
C24	C	1.821990	-0.000011	-0.464604
H25	H	1.692570	-0.000013	0.436018
H26	H	2.085696	-0.000018	0.590286
O27	O	1.485639	-0.000056	0.234567
C28	C	1.644639	-0.000030	0.219727
H29	H	1.635325	-0.032429	0.093057
H30	H	1.732832	-0.049715	0.322309
H31	H	1.694332	0.082072	0.231816
H32	H	1.311990	-0.000004	-0.183420
