data_functionalizedCrystal
_audit_creation_method	'MofGen! by Chris Wilmer'
_symmetry_space_group_name_H-M	'P1'
_symmetry_Int_Tables_number	1
_symmetry_cell_setting	triclinic
loop_
_symmetry_equiv_pos_as_xyz
  x,y,z
_cell_length_a	8.497365
_cell_length_b	19.077105
_cell_length_c	19.077356
_cell_angle_alpha	90.096008
_cell_angle_beta	87.659210
_cell_angle_gamma	92.332556
loop_
_atom_site_label
_atom_site_type_symbol
_atom_site_fract_x
_atom_site_fract_y
_atom_site_fract_z
Zn1	Zn	-0.958704	-1.063258	-0.322797
Zn2	Zn	-0.683925	-1.058464	-0.440362
Zn3	Zn	-0.684767	-0.945713	-0.318145
Zn4	Zn	-0.937519	-0.941042	-0.435545
O5	O	-0.816229	-1.002119	-0.379212
O6	O	-0.930768	-1.160956	-0.342355
O7	O	-0.463263	-1.043456	-0.424219
O8	O	-0.730324	-0.965267	-0.220429
O9	O	-0.728889	-1.157434	-0.428730
O10	O	-0.931584	-1.051627	-0.223846
O11	O	-0.463882	-0.960619	-0.334427
O12	O	-0.709782	-0.846759	-0.329756
O13	O	-1.161103	-0.957305	-0.420519
O14	O	-0.895478	-0.843327	-0.416009
O15	O	-1.176667	-1.047097	-0.337684
O16	O	-0.708347	-1.038926	-0.538057
O17	O	-0.894661	-0.952656	-0.534517
C18	C	-0.800423	-0.819546	-0.371855
C19	C	-0.793697	-0.741440	-0.368725
C20	C	-0.833411	-1.009503	-0.195928
C21	C	-0.840733	-1.012649	-0.117823
C22	C	-0.799150	-0.994783	-0.561784
C23	C	-0.791901	-0.991709	-0.639892
C24	C	-0.406337	-1.002065	-0.379287
C25	C	-0.227716	-1.002171	-0.379147
C26	C	-0.832097	-1.185405	-0.386599
C27	C	-0.838860	-1.263510	-0.389746
C28	C	-0.887054	-0.702974	-0.412229
C29	C	-0.880743	-0.629585	-0.409278
C30	C	-0.781065	-0.594664	-0.362826
C31	C	-0.687705	-0.633135	-0.319317
C32	C	-0.694025	-0.706522	-0.322265
C33	C	-0.751820	-0.375369	-0.349185
C34	C	-0.745503	-0.301976	-0.346242
C35	C	-0.938544	-0.298432	-0.436202
C36	C	-0.944849	-0.371821	-0.439149
C37	C	-0.851494	-0.410286	-0.395637
N38	N	-0.774608	-0.519649	-0.359811
N39	N	-0.857961	-0.485299	-0.398650
C40	C	-0.739392	-0.969168	-0.079349
C41	C	-0.746287	-0.972123	-0.005961
C42	C	-0.854518	-1.018564	0.028951
C43	C	-0.955871	-1.062048	-0.009528
C44	C	-0.948982	-1.059088	-0.082914
C45	C	-0.886365	-1.032233	0.248242
C46	C	-0.893243	-1.035191	0.321634
C47	C	-0.683661	-0.945265	0.325196
C48	C	-0.676775	-0.942313	0.251808
C49	C	-0.778133	-0.985793	0.213335
N50	N	-0.861566	-1.021588	0.103965
N51	N	-0.771092	-0.982766	0.138322
H52	H	-0.968217	-0.731402	-0.450058
H53	H	-1.044002	-1.099858	0.018902
H54	H	-0.675791	-0.406678	-0.313760
H55	H	-0.956763	-0.598270	-0.444705
O56	O	-1.041815	-0.405632	-0.484290
C57	C	-1.122832	-0.355942	-0.522070
H58	H	-1.126597	-0.304787	-0.491189
H59	H	-1.248222	-0.376885	-0.530468
H60	H	-1.059195	-0.345976	-0.575102
H61	H	-0.651253	-0.931353	-0.107769
H62	H	-1.014550	-0.267106	-0.471626
H63	H	-0.601141	-0.909864	0.356527
H64	H	-0.663768	-0.936717	0.025364
H65	H	-0.664343	-0.273546	-0.308407
H66	H	-0.981382	-1.073011	0.350056
H67	H	-0.588639	-0.904497	0.223387
O68	O	-0.984854	-1.074554	0.210981
C69	C	-1.081862	-1.116172	0.257535
H70	H	-1.022365	-1.120683	0.309733
H71	H	-1.101455	-1.170693	0.234111
H72	H	-1.200206	-1.090797	0.266406
H73	H	-0.618013	-0.737841	-0.286835
H74	H	-0.606552	-0.604696	-0.281492
H75	H	-1.031517	-1.094490	-0.114239
