data_functionalizedCrystal
_audit_creation_method	'MofGen! by Chris Wilmer'
_symmetry_space_group_name_H-M	'P1'
_symmetry_Int_Tables_number	1
_symmetry_cell_setting	triclinic
loop_
_symmetry_equiv_pos_as_xyz
  x,y,z
_cell_length_a	10.489741
_cell_length_b	14.044220
_cell_length_c	12.503572
_cell_angle_alpha	93.843168
_cell_angle_beta	86.448361
_cell_angle_gamma	88.864026
loop_
_atom_site_label
_atom_site_type_symbol
_atom_site_fract_x
_atom_site_fract_y
_atom_site_fract_z
O1	O	-1.714360	-0.128402	0.089257
O2	O	-1.381026	0.204931	0.422590
O3	O	-1.047693	0.538265	0.755923
O4	O	-1.344439	-0.140964	0.089274
O5	O	-1.011106	0.192370	0.422607
O6	O	-0.677773	0.525703	0.755940
O7	O	-1.523846	0.003339	0.089255
O8	O	-1.190513	0.336672	0.422588
O9	O	-0.857180	0.670006	0.755921
O10	O	-1.534953	-0.272705	0.089275
O11	O	-1.201620	0.060629	0.422609
O12	O	-0.868286	0.393962	0.755942
O13	O	-1.510356	-0.007531	-0.089386
O14	O	-1.177022	0.325802	0.243948
O15	O	-0.843689	0.659135	0.577281
O16	O	-1.330949	-0.151834	-0.089367
O17	O	-0.997616	0.181499	0.243966
O18	O	-0.664282	0.514833	0.577300
O19	O	-1.700869	-0.139273	-0.089384
O20	O	-1.367536	0.194061	0.243949
O21	O	-1.034203	0.527394	0.577283
Cu22	Cu	-1.514677	-0.146546	-0.105687
Cu23	Cu	-1.181344	0.186787	0.227647
Cu24	Cu	-0.848011	0.520121	0.560980
Cu25	Cu	-1.530631	-0.133690	0.105576
Cu26	Cu	-1.197298	0.199643	0.438910
Cu27	Cu	-0.863965	0.532976	0.772243
O28	O	-1.521462	-0.283575	-0.089365
O29	O	-1.188129	0.049758	0.243968
O30	O	-0.854796	0.383091	0.577302
C31	C	-1.290066	-0.145450	-0.000045
C32	C	-0.956733	0.187883	0.333289
C33	C	-0.623400	0.521217	0.666622
C34	C	-1.148150	-0.142611	-0.000038
C35	C	-0.814816	0.190722	0.333295
C36	C	-0.481483	0.524056	0.666628
C37	C	-1.512240	0.033251	-0.000066
C38	C	-1.178907	0.366585	0.333268
C39	C	-0.845573	0.699918	0.666601
C40	C	-1.497740	0.138576	-0.000066
C41	C	-1.164407	0.471909	0.333267
C42	C	-0.831074	0.805243	0.666600
C43	C	-1.755242	-0.134786	-0.000063
C44	C	-1.421909	0.198547	0.333270
C45	C	-1.088576	0.531881	0.666603
C46	C	-1.897160	-0.137625	-0.000062
C47	C	-1.563827	0.195709	0.333271
C48	C	-1.230493	0.529042	0.666604
C49	C	-1.070696	-0.050796	-0.000055
C50	C	-0.737362	0.282538	0.333278
C51	C	-0.404029	0.615871	0.666611
C52	C	-0.989620	-0.088809	0.088025
C53	C	-0.656286	0.244524	0.421358
C54	C	-0.322953	0.577858	0.754691
C55	C	-0.976355	-0.099548	-0.088101
C56	C	-0.643022	0.233785	0.245232
C57	C	-0.309689	0.567118	0.578566
C58	C	-1.068948	-0.180657	0.088114
C59	C	-0.735615	0.152676	0.421448
C60	C	-0.402281	0.486009	0.754781
C61	C	-1.055686	-0.191389	-0.088090
C62	C	-0.722353	0.141944	0.245243
C63	C	-0.389019	0.475278	0.578576
C64	C	-0.974646	-0.229468	0.000011
C65	C	-0.641312	0.103866	0.333345
C66	C	-0.307979	0.437199	0.666678
C67	C	-1.533069	-0.313487	-0.000042
C68	C	-1.199736	0.019846	0.333291
C69	C	-0.866402	0.353179	0.666624
C70	C	-1.547569	-0.418812	-0.000034
C71	C	-1.214236	-0.085478	0.333299
C72	C	-0.880902	0.247855	0.666632
N73	N	-1.503465	-0.155587	-0.254278
N74	N	-1.170132	0.177746	0.079056
N75	N	-0.836799	0.511079	0.412389
C76	C	-1.471233	0.331419	-0.000050
C77	C	-1.137900	0.664753	0.333284
C78	C	-0.804566	0.998086	0.666617
C79	C	-1.574071	0.388351	-0.000051
C80	C	-1.240737	0.721684	0.333282
C81	C	-0.907404	1.055017	0.666616
C82	C	-1.559322	0.495655	-0.000042
C83	C	-1.225988	0.828989	0.333291
C84	C	-0.892655	1.162322	0.666625
C85	C	-1.485980	0.224105	-0.000059
C86	C	-1.152647	0.557438	0.333274
C87	C	-0.819313	0.890771	0.666608
C88	C	-1.486973	-0.168896	-0.473391
C89	C	-1.153640	0.164438	-0.140058
C90	C	-0.820306	0.497771	0.193275
C91	C	-1.558341	-0.111336	-0.526726
C92	C	-1.225008	0.221997	-0.193393
C93	C	-0.891674	0.555331	0.139941
C94	C	-1.549164	-0.118741	-0.648648
C95	C	-1.215831	0.214592	-0.315315
C96	C	-0.882498	0.547926	0.018019
C97	C	-1.496148	-0.161492	-0.351458
C98	C	-1.162815	0.171841	-0.018125
C99	C	-0.829482	0.505175	0.315209
N100	N	-1.541853	-0.124641	0.254168
N101	N	-1.208519	0.208692	0.587501
N102	N	-0.875186	0.542025	0.920834
H103	H	-1.112738	0.024690	0.000049
H104	H	-0.779404	0.358023	0.333382
H105	H	-0.446071	0.691356	0.666716
Cl106	Cl	-1.382008	-0.253563	-0.544260
Cl107	Cl	-1.048675	0.079770	-0.210926
Cl108	Cl	-0.715342	0.413104	0.122407
Cl109	Cl	-0.913762	-0.046542	-0.203072
Cl110	Cl	-0.580429	0.286791	0.130262
Cl111	Cl	-0.247096	0.620125	0.463595
Cl112	Cl	-1.318209	0.380588	-0.000037
Cl113	Cl	-0.984876	0.713921	0.333296
Cl114	Cl	-0.651543	1.047255	0.666629
Cl115	Cl	-1.131307	-0.233587	0.203215
Cl116	Cl	-0.797973	0.099747	0.536548
Cl117	Cl	-0.464640	0.433080	0.869881
Cl118	Cl	-0.944336	-0.021837	0.202989
Cl119	Cl	-0.611002	0.311497	0.536322
Cl120	Cl	-0.277669	0.644830	0.869656
Cl121	Cl	-1.101022	-0.258317	-0.203058
Cl122	Cl	-0.767689	0.075016	0.130275
Cl123	Cl	-0.434356	0.408350	0.463608
Cl124	Cl	-0.910169	-0.346117	0.000091
Cl125	Cl	-0.576835	-0.012783	0.333424
Cl126	Cl	-0.243502	0.320550	0.666757
Cl127	Cl	-1.727104	0.339184	-0.000070
Cl128	Cl	-1.393771	0.672517	0.333264
Cl129	Cl	-1.060437	1.005850	0.666597
H130	H	-1.626334	-0.056497	-0.480820
H131	H	-1.293000	0.276836	-0.147487
H132	H	-0.959667	0.610170	0.185847
