data_functionalizedCrystal
_audit_creation_method	'MofGen! by Chris Wilmer'
_symmetry_space_group_name_H-M	'P1'
_symmetry_Int_Tables_number	1
_symmetry_cell_setting	triclinic
loop_
_symmetry_equiv_pos_as_xyz
  x,y,z
_cell_length_a	25.639242
_cell_length_b	25.639240
_cell_length_c	21.295411
_cell_angle_alpha	89.973291
_cell_angle_beta	89.966692
_cell_angle_gamma	90.028283
loop_
_atom_site_label
_atom_site_type_symbol
_atom_site_fract_x
_atom_site_fract_y
_atom_site_fract_z
Zn1	Zn	0.799304	-0.208273	-0.356036
Zn2	Zn	0.799220	-0.295693	-0.250752
Zn3	Zn	0.711863	-0.208266	-0.250765
Zn4	Zn	0.711835	-0.295672	-0.355968
O5	O	0.755555	-0.251976	-0.303380
O6	O	0.872458	-0.219880	-0.342093
O7	O	0.787608	-0.284101	-0.162664
O8	O	0.723510	-0.135102	-0.264763
O9	O	0.872396	-0.284108	-0.264742
O10	O	0.787752	-0.135107	-0.342106
O11	O	0.723428	-0.219870	-0.162674
O12	O	0.638694	-0.219850	-0.264697
O13	O	0.723461	-0.284072	-0.444066
O14	O	0.638673	-0.284066	-0.341989
O15	O	0.787724	-0.219861	-0.444116
O16	O	0.787580	-0.368855	-0.264675
O17	O	0.723379	-0.368840	-0.341977
C18	C	0.619713	-0.251955	-0.303338
C19	C	0.561599	-0.251959	-0.303334
C20	C	0.201234	-0.285469	-0.343588
C21	C	0.146629	-0.285473	-0.343598
O22	O	0.118391	-0.313939	-0.377787
N23	N	0.119316	-0.251990	-0.303421
C24	C	0.146611	-0.218499	-0.263237
O25	O	0.118365	-0.190020	-0.229065
C26	C	0.201214	-0.218493	-0.263230
C27	C	0.228524	-0.251982	-0.303405
C28	C	0.228544	-0.318955	-0.383760
C29	C	0.283144	-0.318952	-0.383749
C30	C	0.310435	-0.285464	-0.343566
C31	C	0.283125	-0.251979	-0.303394
C32	C	0.228507	-0.185000	-0.223049
C33	C	0.283114	-0.184997	-0.223047
C34	C	0.310424	-0.218485	-0.263222
C35	C	0.365015	-0.218489	-0.263200
N36	N	0.392328	-0.251971	-0.303377
C37	C	0.365038	-0.285459	-0.343560
C38	C	0.031940	-0.218512	-0.263254
C39	C	-0.022662	-0.218520	-0.263256
C40	C	-0.022640	-0.285493	-0.343619
C41	C	0.031963	-0.285488	-0.343612
C42	C	0.059253	-0.251995	-0.303430
C43	C	0.479703	-0.285451	-0.343534
C44	C	0.534308	-0.285447	-0.343517
C45	C	0.534281	-0.218472	-0.263158
C46	C	0.479681	-0.218478	-0.263171
C47	C	0.452393	-0.251969	-0.303364
O48	O	0.393289	-0.190036	-0.229031
O49	O	0.393290	-0.313928	-0.377732
C50	C	0.755482	-0.387819	-0.303331
C51	C	0.755498	-0.445933	-0.303331
C52	C	0.789023	-0.806260	-0.343725
C53	C	0.789038	-0.860864	-0.343738
O54	O	0.817455	-0.889070	-0.378032
N55	N	0.755628	-0.888215	-0.303441
C56	C	0.722196	-0.860959	-0.263134
O57	O	0.693779	-0.889237	-0.228860
C58	C	0.722179	-0.806356	-0.263124
C59	C	0.755595	-0.779007	-0.303419
C60	C	0.822436	-0.778911	-0.384017
C61	C	0.822421	-0.724311	-0.384003
C62	C	0.788993	-0.697059	-0.343697
C63	C	0.755580	-0.724407	-0.303405
C64	C	0.688744	-0.779101	-0.222821
C65	C	0.688729	-0.724494	-0.222815
C66	C	0.722146	-0.697145	-0.263110
C67	C	0.722137	-0.642554	-0.263086
N68	N	0.755547	-0.615203	-0.303383
C69	C	0.788976	-0.642455	-0.343688
C70	C	0.722235	-0.975630	-0.263157
C71	C	0.722255	-1.030232	-0.263162
C72	C	0.789097	-1.030133	-0.343767
C73	C	0.789079	-0.975530	-0.343758
C74	C	0.755646	-0.948278	-0.303453
C75	C	0.788942	-0.527790	-0.343656
C76	C	0.788926	-0.473185	-0.343637
C77	C	0.722082	-0.473288	-0.263034
C78	C	0.722100	-0.527889	-0.263051
C79	C	0.755532	-0.555139	-0.303367
O80	O	0.693734	-0.614313	-0.228811
O81	O	0.817383	-0.614170	-0.377962
C82	C	0.891928	-0.251997	-0.303424
C83	C	0.950042	-0.252006	-0.303442
C84	C	0.755599	-0.251965	-0.467571
C85	C	0.755617	-0.251960	-0.537539
C86	C	0.755644	-0.115603	-0.303444
C87	C	0.755682	-0.057489	-0.303471
C88	C	0.789078	-0.218524	-0.570433
C89	C	0.789077	-0.218501	-0.636175
C90	C	0.755621	-0.251924	-0.669021
C91	C	0.722154	-0.285363	-0.636120
C92	C	0.722152	-0.285381	-0.570378
N93	N	0.751586	-0.297662	-0.772231
N94	N	0.751591	-0.297643	-0.834683
C95	C	0.755625	-0.251871	-0.867096
N96	N	0.759664	-0.206117	-0.834699
N97	N	0.759661	-0.206136	-0.772242
C98	C	0.755620	-0.251908	-0.740307
C99	C	0.789086	-0.218407	-0.971276
C100	C	0.789082	-0.218384	-1.037019
C101	C	0.722162	-0.285251	-1.036963
C102	C	0.722163	-0.285269	-0.971220
C103	C	0.755628	-0.251848	-0.938381
C104	C	0.755542	-0.251949	-0.139829
C105	C	0.755625	-0.251807	-0.069861
H106	H	0.816139	-0.450919	-0.376449
H107	H	0.457444	-0.191210	-0.230456
H108	H	0.695050	-1.052494	-0.230343
H109	H	0.661502	-0.702308	-0.189995
C110	C	0.211688	-0.159397	-0.116516
C111	C	0.198511	-0.148184	-0.178878
H112	H	0.193177	-0.136664	-0.089243
H113	H	0.202706	-0.194508	-0.107223
H114	H	0.248119	-0.154615	-0.110789
H115	H	0.162081	-0.152970	-0.184606
H116	H	0.207490	-0.113065	-0.188174
C117	C	0.485225	-0.351653	-0.422966
C118	C	0.449714	-0.322266	-0.387713
H119	H	0.466710	-0.374383	-0.450235
H120	H	0.506546	-0.328899	-0.447089
H121	H	0.506497	-0.371614	-0.395478
H122	H	0.428444	-0.302302	-0.415201
H123	H	0.428384	-0.345022	-0.363588
H124	H	0.816333	-0.191191	-0.944536
H125	H	0.816315	-1.052332	-0.376588
H126	H	0.816162	-0.549970	-0.376489
H127	H	0.305330	-0.157719	-0.190329
H128	H	0.694913	-0.312575	-0.662867
C129	C	0.888488	-0.729715	-0.463680
C130	C	0.859150	-0.694254	-0.428302
H131	H	0.911160	-0.711161	-0.491033
H132	H	0.908503	-0.751008	-0.436282
H133	H	0.865695	-0.751019	-0.487727
H134	H	0.881942	-0.672952	-0.404252
H135	H	0.839133	-0.672952	-0.455704
H136	H	0.694919	-0.312500	-0.944438
H137	H	0.054196	-0.312756	-0.376327
H138	H	-0.044894	-0.191256	-0.230536
H139	H	0.816324	-0.191270	-0.662962
H140	H	0.849657	-0.801094	-0.416843
H141	H	0.816289	-0.953266	-0.376570
H142	H	0.694867	-0.451091	-0.230216
C143	C	0.656172	-0.981221	-0.183476
C144	C	0.685488	-0.945677	-0.218841
H145	H	0.633489	-0.962730	-0.156116
H146	H	0.636169	-1.002518	-0.210882
H147	H	0.678978	-1.002513	-0.159437
H148	H	0.662683	-0.924387	-0.242884
H149	H	0.705492	-0.924371	-0.191432
H150	H	0.661533	-0.801358	-0.190008
C151	C	0.656009	-0.351477	-0.576927
C152	C	0.685375	-0.322143	-0.534218
H153	H	0.633308	-0.374176	-0.554601
H154	H	0.636022	-0.328687	-0.602554
H155	H	0.678782	-0.371469	-0.602586
H156	H	0.662603	-0.302148	-0.508562
H157	H	0.705363	-0.344936	-0.508580
H158	H	0.816327	-0.191309	-0.543699
C159	C	0.656027	-0.522499	-0.183377
C160	C	0.685370	-0.557953	-0.218757
H161	H	0.633347	-0.541058	-0.156038
H162	H	0.678813	-0.501203	-0.159320
H163	H	0.636016	-0.501197	-0.210779
H164	H	0.705385	-0.579253	-0.191355
H165	H	0.662582	-0.579259	-0.242816
C166	C	0.814618	-0.129849	-1.057277
C167	C	0.825865	-0.181624	-1.073175
H168	H	0.837329	-0.107156	-1.079595
H169	H	0.779499	-0.122189	-1.068032
H170	H	0.819406	-0.125088	-1.013422
H171	H	0.821073	-0.186386	-1.117030
H172	H	0.860992	-0.189287	-1.062424
C173	C	0.595762	-0.292815	-0.428167
C174	C	0.564328	-0.322257	-0.387683
H175	H	0.614295	-0.315539	-0.455430
H176	H	0.574485	-0.270069	-0.452299
H177	H	0.619831	-0.272875	-0.404227
H178	H	0.540257	-0.342194	-0.411623
H179	H	0.585607	-0.345012	-0.363549
C180	C	0.277665	-0.385145	-0.463188
C181	C	0.313159	-0.355758	-0.427918
H182	H	0.296193	-0.407865	-0.490461
H183	H	0.256347	-0.405112	-0.435716
H184	H	0.256389	-0.362387	-0.487315
H185	H	0.334432	-0.378516	-0.403787
H186	H	0.334486	-0.335790	-0.455393
C187	C	0.617979	-0.188730	-0.227477
C188	C	0.564286	-0.181660	-0.218993
H189	H	0.636503	-0.165999	-0.200217
H190	H	0.626903	-0.223843	-0.218175
H191	H	0.626946	-0.181134	-0.269794
H192	H	0.555318	-0.189260	-0.176678
H193	H	0.555359	-0.146540	-0.228291
H194	H	0.694916	-0.312459	-1.063705
H195	H	0.206330	-0.346224	-0.416485
C196	C	-0.017146	-0.351696	-0.423058
C197	C	-0.052644	-0.322303	-0.387793
H198	H	-0.035672	-0.374421	-0.450324
H199	H	0.004174	-0.328945	-0.447187
H200	H	0.004127	-0.371662	-0.395578
H201	H	-0.073915	-0.302333	-0.415273
H202	H	-0.073973	-0.345056	-0.363663
C203	C	0.026424	-0.152320	-0.183810
C204	C	0.061934	-0.181701	-0.219071
H205	H	0.044940	-0.129598	-0.156531
H206	H	0.005154	-0.132356	-0.211286
H207	H	0.005102	-0.175082	-0.159689
H208	H	0.083254	-0.158939	-0.243196
H209	H	0.083213	-0.201667	-0.191591
