data_functionalizedCrystal
_audit_creation_method	'MofGen! by Chris Wilmer'
_symmetry_space_group_name_H-M	'P1'
_symmetry_Int_Tables_number	1
_symmetry_cell_setting	triclinic
loop_
_symmetry_equiv_pos_as_xyz
  x,y,z
_cell_length_a	6.817900
_cell_length_b	11.168129
_cell_length_c	14.858572
_cell_angle_alpha	93.498200
_cell_angle_beta	104.524003
_cell_angle_gamma	108.508637
loop_
_atom_site_label
_atom_site_type_symbol
_atom_site_fract_x
_atom_site_fract_y
_atom_site_fract_z
V1	V	-4.064039	-0.175499	-0.289968
V2	V	-3.730706	0.157834	0.043365
V3	V	-3.397372	0.491167	0.376698
O4	O	-4.024496	0.007616	-0.284440
O5	O	-3.691163	0.340949	0.048893
O6	O	-3.357830	0.674282	0.382227
O7	O	-4.040640	-0.347199	-0.287993
O8	O	-3.707306	-0.013866	0.045340
O9	O	-3.373973	0.319467	0.378673
O10	O	-4.020336	-0.173159	-0.416430
O11	O	-3.687003	0.160175	-0.083097
O12	O	-3.353669	0.493508	0.250237
O13	O	-4.044941	-0.167630	-0.155114
O14	O	-3.711608	0.165704	0.178219
O15	O	-3.378274	0.499037	0.511552
V16	V	-4.543819	-0.153554	-0.273838
V17	V	-4.210485	0.179779	0.059496
V18	V	-3.877152	0.513112	0.392829
O19	O	-4.333508	-0.223638	-0.325352
O20	O	-4.000175	0.109696	0.007981
O21	O	-3.666842	0.443029	0.341315
O22	O	-4.724546	-0.105416	-0.238454
O23	O	-4.391213	0.227917	0.094879
O24	O	-4.057880	0.561251	0.428213
O25	O	-4.344011	0.018146	-0.275813
O26	O	-4.010678	0.351479	0.057520
O27	O	-3.677345	0.684812	0.390854
O28	O	-4.700758	-0.336669	-0.279366
O29	O	-4.367425	-0.003336	0.053967
O30	O	-4.034091	0.329997	0.387301
O31	O	-4.680314	-0.161424	-0.408692
O32	O	-4.346980	0.171909	-0.075358
O33	O	-4.013647	0.505243	0.257975
O34	O	-4.364315	-0.155895	-0.147376
O35	O	-4.030982	0.177438	0.185957
O36	O	-3.697648	0.510772	0.519290
C37	C	-3.891571	-0.389045	-0.283421
C38	C	-3.558237	-0.055712	0.049912
C39	C	-3.224904	0.277622	0.383246
C40	C	-3.953757	-0.529414	-0.282649
C41	C	-3.620424	-0.196081	0.050684
C42	C	-3.287091	0.137252	0.384018
C43	C	-3.937465	-0.574637	-0.201368
C44	C	-3.604131	-0.241304	0.131965
C45	C	-3.270798	0.092029	0.465299
C46	C	-4.001737	-0.719716	-0.200568
C47	C	-3.668403	-0.386383	0.132765
C48	C	-3.335070	-0.053049	0.466098
C49	C	-3.865670	-0.167037	-0.447253
C50	C	-3.532336	0.166296	-0.113920
C51	C	-3.199003	0.499630	0.219413
C52	C	-3.911387	-0.166259	-0.550636
C53	C	-3.578053	0.167074	-0.217303
C54	C	-3.244720	0.500407	0.116030
C55	C	-4.078712	-0.163417	-0.929204
C56	C	-3.745379	0.169916	-0.595871
C57	C	-3.412045	0.503249	-0.262538
C58	C	-4.032149	-0.164208	-0.823875
C59	C	-3.698815	0.169125	-0.490542
C60	C	-3.365482	0.502459	-0.157208
C61	C	-3.995051	-0.164839	-0.739924
C62	C	-3.661718	0.168494	-0.406591
C63	C	-3.328384	0.501827	-0.073257
C64	C	-3.948484	-0.165628	-0.634588
C65	C	-3.615151	0.167705	-0.301254
C66	C	-3.281818	0.501039	0.032079
C67	C	-4.156423	0.059985	-0.280383
C68	C	-3.823090	0.393318	0.052951
C69	C	-3.489757	0.726651	0.386284
C70	C	-4.073475	0.200353	-0.281161
C71	C	-3.740142	0.533686	0.052173
C72	C	-3.406809	0.867019	0.385506
C73	C	-4.182324	-0.162021	-0.116548
C74	C	-3.848991	0.171313	0.216786
C75	C	-3.515657	0.504646	0.550119
C76	C	-4.115845	-0.162792	-0.013164
C77	C	-3.782511	0.170541	0.320170
C78	C	-3.449178	0.503875	0.653503
H79	H	-3.875945	-0.505949	-0.132373
H80	H	-3.542612	-0.172616	0.200960
H81	H	-3.209278	0.160718	0.534294
Br82	Br	-4.056335	-0.643889	-0.397654
Br83	Br	-3.723002	-0.310556	-0.064321
Br84	Br	-3.389669	0.022778	0.269013
H85	H	-4.087313	-0.760699	-0.350753
H86	H	-3.753979	-0.427365	-0.017419
H87	H	-3.420646	-0.094032	0.315914
Br88	Br	-3.978633	-0.784636	-0.084574
Br89	Br	-3.645300	-0.451303	0.248759
Br90	Br	-3.311966	-0.117969	0.582092
