data_functionalizedCrystal
_audit_creation_method	'MofGen! by Chris Wilmer'
_symmetry_space_group_name_H-M	'P1'
_symmetry_Int_Tables_number	1
_symmetry_cell_setting	triclinic
loop_
_symmetry_equiv_pos_as_xyz
  x,y,z
_cell_length_a	11.026607
_cell_length_b	23.532407
_cell_length_c	9.482900
_cell_angle_alpha	99.270833
_cell_angle_beta	78.636152
_cell_angle_gamma	95.717347
loop_
_atom_site_label
_atom_site_type_symbol
_atom_site_fract_x
_atom_site_fract_y
_atom_site_fract_z
O1	O	1.626299	0.231212	-0.120952
O2	O	1.273319	0.204090	-0.120948
O3	O	1.460449	0.135841	-0.120924
O4	O	1.439169	0.299462	-0.120976
O5	O	1.422438	0.149775	0.120864
O6	O	1.235308	0.218025	0.120840
O7	O	1.588288	0.245146	0.120835
Cu8	Cu	1.408327	0.232858	0.142915
Cu9	Cu	1.453280	0.216379	-0.143027
O10	O	1.401158	0.313396	0.120811
C11	C	1.209163	0.206054	-0.000053
C12	C	1.074628	0.191139	-0.000050
C13	C	1.000328	0.232323	-0.000064
C14	C	0.861279	0.216908	-0.000061
C15	C	1.440901	0.121535	-0.000026
C16	C	1.439269	0.058147	-0.000015
C17	C	1.539801	-0.330388	-0.000096
C18	C	1.538288	-0.389948	-0.000107
O19	O	1.631479	-0.416896	-0.000162
N20	N	1.427037	-0.424275	-0.000104
C21	C	1.317293	-0.399040	-0.000106
O22	O	1.222527	-0.433707	-0.000106
C23	C	1.318809	-0.339482	-0.000105
C24	C	1.430065	-0.305157	-0.000093
C25	C	1.651048	-0.296064	-0.000085
C26	C	1.652560	-0.236507	-0.000072
C27	C	1.542824	-0.211276	-0.000068
C28	C	1.431576	-0.245601	-0.000079
C29	C	1.209068	-0.314249	-0.000117
C30	C	1.210593	-0.254686	-0.000117
C31	C	1.321849	-0.220361	-0.000105
C32	C	1.323351	-0.160813	-0.000062
N33	N	1.434603	-0.126486	-0.000065
C34	C	1.544339	-0.151718	-0.000068
C35	C	1.314120	-0.524117	-0.000109
C36	C	1.312602	-0.583674	-0.000100
C37	C	1.533598	-0.574578	-0.000104
C38	C	1.535113	-0.515019	-0.000103
C39	C	1.425371	-0.489790	-0.000112
C40	C	1.547504	-0.026646	-0.000038
C41	C	1.549005	0.032916	-0.000018
C42	C	1.328011	0.023814	-0.000022
C43	C	1.326508	-0.035742	-0.000034
C44	C	1.436266	-0.060970	-0.000047
O45	O	1.230210	-0.133827	-0.000013
O46	O	1.639093	-0.117045	-0.000087
C47	C	1.652445	0.243183	-0.000063
C48	C	1.786981	0.258098	-0.000075
C49	C	1.420707	0.327702	-0.000090
C50	C	1.422340	0.391089	-0.000110
N51	N	1.376719	0.244449	0.344031
N52	N	1.484898	0.204785	-0.344143
C53	C	1.443948	0.219794	0.416239
C54	C	1.417658	0.229443	0.583653
H55	H	1.039658	0.278994	-0.000071
C56	C	1.274101	0.282205	0.426660
C57	C	1.299169	0.337989	0.389694
C58	C	1.204655	0.372784	0.465763
H59	H	1.269988	0.283756	0.528196
H60	H	1.197092	0.266420	0.401775
H61	H	1.376158	0.353771	0.414588
H62	H	1.303271	0.336457	0.288170
H63	H	1.127645	0.356999	0.440878
H64	H	1.200549	0.374330	0.567296
H65	H	1.221645	0.410636	0.440682
H66	H	0.821959	0.170231	-0.000083
C67	C	1.088388	-0.351600	-0.000078
C68	C	1.110515	-0.409162	-0.000054
C69	C	0.999365	-0.443585	-0.000007
H70	H	1.056416	-0.348625	-0.084380
H71	H	1.029954	-0.338885	0.084264
H72	H	1.168928	-0.421874	-0.084387
H73	H	1.142469	-0.412156	0.084242
H74	H	0.940931	-0.430869	0.084335
H75	H	0.967402	-0.440604	-0.084310
H76	H	1.014361	-0.482643	0.000023
H77	H	1.561919	0.176529	0.593742
C78	C	0.839653	0.320295	-0.000198
C79	C	0.967108	0.323217	-0.000246
C80	C	1.015676	0.380500	-0.000393
H81	H	0.799689	0.343622	0.084078
H82	H	0.826124	0.333839	-0.084566
H83	H	0.980627	0.309680	0.084113
H84	H	1.007105	0.299902	-0.084516
H85	H	1.002147	0.394045	-0.084760
H86	H	0.975702	0.403822	0.083885
H87	H	1.102160	0.382490	-0.000438
C88	C	1.091297	-0.227399	-0.000052
C89	C	0.993546	-0.270210	-0.000028
C90	C	0.883633	-0.245095	0.000054
H91	H	1.100374	-0.209210	-0.084342
H92	H	1.073958	-0.199515	0.084303
H93	H	1.010883	-0.298084	-0.084374
H94	H	0.984431	-0.288401	0.084256
H95	H	0.866293	-0.217210	0.084408
H96	H	0.892722	-0.226907	-0.084238
H97	H	0.817294	-0.274137	0.000083
H98	H	1.035303	0.144465	-0.000072
C99	C	1.315036	0.267201	0.666276
C100	C	1.340104	0.322986	0.629310
C101	C	1.245590	0.357781	0.705379
H102	H	1.310923	0.268752	0.767813
H103	H	1.238027	0.251416	0.641391
H104	H	1.417093	0.338767	0.654205
H105	H	1.344206	0.321453	0.527787
H106	H	1.168580	0.341995	0.680495
H107	H	1.241484	0.359326	0.806912
H108	H	1.262579	0.395632	0.680299
H109	H	1.224747	-0.503579	-0.000104
H110	H	1.639606	0.060862	-0.000004
H111	H	1.636880	-0.047179	-0.000054
C112	C	1.770084	-0.323563	-0.000160
C113	C	1.744983	-0.383072	-0.000196
C114	C	1.854618	-0.408418	-0.000274
H115	H	1.802562	-0.307140	0.084136
H116	H	1.829002	-0.316819	-0.084508
H117	H	1.686086	-0.389811	0.084144
H118	H	1.712522	-0.399510	-0.084486
H119	H	1.913536	-0.401675	-0.084623
H120	H	1.887087	-0.391991	0.084023
H121	H	1.837604	-0.448798	-0.000312
H122	H	1.625708	-0.487075	-0.000094
C123	C	1.652865	-0.601868	-0.000048
C124	C	1.750624	-0.559062	-0.000011
C125	C	1.860500	-0.584180	0.000061
H126	H	1.670282	-0.629760	-0.084346
H127	H	1.643672	-0.620043	0.084298
H128	H	1.759818	-0.540896	-0.084348
H129	H	1.733249	-0.531168	0.084281
H130	H	1.851307	-0.602356	0.084407
H131	H	1.877905	-0.612072	-0.084238
H132	H	1.926840	-0.555141	0.000100
H133	H	1.520965	0.191540	0.354121
H134	H	1.743157	-0.208565	-0.000068
C135	C	1.205604	-0.072919	-0.000118
C136	C	1.109832	-0.038073	-0.000144
C137	C	0.998444	-0.072298	-0.000261
H138	H	1.186988	-0.091506	0.084162
H139	H	1.213623	-0.101182	-0.084482
H140	H	1.101813	-0.009820	0.084212
H141	H	1.128407	-0.019486	-0.084418
H142	H	1.006462	-0.100561	-0.084625
H143	H	0.979840	-0.090883	0.084020
H144	H	0.933451	-0.048661	-0.000292
H145	H	1.222002	-0.611615	-0.000084
H146	H	1.238666	0.044369	-0.000014
