data_functionalizedCrystal
_audit_creation_method	'MofGen! by Chris Wilmer'
_symmetry_space_group_name_H-M	'P1'
_symmetry_Int_Tables_number	1
_symmetry_cell_setting	triclinic
loop_
_symmetry_equiv_pos_as_xyz
  x,y,z
_cell_length_a	15.995288
_cell_length_b	15.072220
_cell_length_c	15.995292
_cell_angle_alpha	89.997939
_cell_angle_beta	96.532301
_cell_angle_gamma	89.985244
loop_
_atom_site_label
_atom_site_type_symbol
_atom_site_fract_x
_atom_site_fract_y
_atom_site_fract_z
O1	O	-1.111006	0.073822	0.107674
O2	O	-0.867221	0.073813	0.121057
O3	O	-0.995803	0.073819	-0.007527
O4	O	-0.982424	0.073816	0.236258
O5	O	-0.995771	-0.073746	-0.007520
O6	O	-0.867189	-0.073752	0.121064
O7	O	-1.110974	-0.073743	0.107681
Zn8	Zn	-0.989077	-0.097176	0.114374
Zn9	Zn	-0.989119	0.097247	0.114364
O10	O	-0.982392	-0.073749	0.236265
C11	C	-0.836009	0.000030	0.120516
C12	C	-0.743057	0.000026	0.118886
C13	C	-0.572873	0.000031	0.115873
C14	C	-0.525388	0.000027	0.207426
C15	C	-0.428700	0.000363	0.205760
C16	C	-0.405316	0.000035	0.112909
C17	C	-0.446477	0.084137	0.067482
C18	C	-0.543110	0.084206	0.069794
C19	C	-0.543353	-0.083609	0.068447
C20	C	-0.446408	-0.084713	0.068459
C21	C	-0.310621	0.000040	0.111229
C22	C	-0.667569	0.000032	0.117551
N23	N	-0.989054	-0.229865	0.114380
C24	C	-0.989117	-0.589067	0.114361
C25	C	-0.920084	-0.551463	0.182933
C26	C	-0.920242	-0.448637	0.183183
C27	C	-0.989085	-0.410863	0.114370
C28	C	-1.076449	-0.448151	0.133433
C29	C	-1.076062	-0.551009	0.133920
C30	C	-0.971565	-0.551167	0.026523
C31	C	-0.969560	-0.448303	0.027110
C32	C	-0.989073	-0.310149	0.114374
C33	C	-0.989135	-0.689780	0.114359
C34	C	-0.142184	0.000040	0.108233
C35	C	-0.235133	0.000040	0.109897
C36	C	-0.995243	0.000039	-0.038719
C37	C	-0.993610	0.000046	-0.131671
N38	N	-0.989148	0.229936	0.114352
C39	C	-0.987609	0.000037	-0.469409
C40	C	-1.080416	-0.000289	-0.446117
C41	C	-1.082180	0.000047	-0.349442
C42	C	-0.990587	0.000041	-0.301853
C43	C	-0.944206	0.084303	-0.330948
C44	C	-0.943088	0.084371	-0.427738
C45	C	-0.941157	-0.083438	-0.427587
C46	C	-0.944596	-0.084549	-0.331095
C47	C	-0.992265	0.000046	-0.207157
C48	C	-0.985928	0.000038	-0.564104
C49	C	-0.982953	0.000033	0.267457
C50	C	-0.984585	0.000033	0.360410
H51	H	-0.575398	0.087801	0.002566
C52	C	-0.390214	-0.081044	0.254012
N53	N	-0.361228	-0.142354	0.290372
H54	H	-0.432392	0.087029	-0.000743
H55	H	-0.877741	-0.089642	-0.298110
H56	H	-0.418098	0.146959	0.098620
C57	C	-0.986531	0.169463	-0.463983
N58	N	-1.019258	0.233554	-0.491280
H59	H	-0.563834	-0.147373	0.098590
C60	C	-1.131254	-0.081552	-0.323745
N61	N	-1.168223	-0.143014	-0.304395
C62	C	-0.980419	-0.169722	-0.465761
N63	N	-1.010001	-0.234706	-0.494515
C64	C	-0.832070	-0.584938	0.167863
N65	N	-0.765777	-0.610163	0.156514
C66	C	-0.887353	-0.586248	0.001771
N67	N	-0.823921	-0.612672	-0.016863
C68	C	-0.550337	-0.081438	0.257134
N69	N	-0.569133	-0.142801	0.294575
H70	H	-0.575149	-0.084416	0.000947
H71	H	-0.545002	0.060246	0.243666
H72	H	-0.931448	-0.424024	0.248367
C73	C	-0.935012	-0.586368	0.270499
N74	N	-0.946259	-0.612660	0.336453
C75	C	-0.567871	0.169461	0.114005
N76	N	-0.586516	0.233679	0.147305
C77	C	-0.391084	0.082288	0.253758
N78	N	-0.362752	0.144000	0.289909
C79	C	-1.128730	-0.081922	-0.483952
N80	N	-1.165121	-0.143410	-0.512456
H81	H	-0.976440	0.147015	-0.310898
H82	H	-1.092288	-0.422382	0.196762
C83	C	-0.409440	-0.168771	0.113268
N84	N	-0.381587	-0.232083	0.147018
C85	C	-0.832507	-0.414579	0.167859
N86	N	-0.766420	-0.388931	0.156322
C87	C	-1.096944	-0.583409	0.220467
N88	N	-1.112666	-0.607808	0.285658
C89	C	-1.147559	-0.584613	0.069034
N90	N	-1.201420	-0.609919	0.020173
C91	C	-1.147506	-0.415090	0.067757
N92	N	-1.201025	-0.390186	0.018289
H93	H	-1.116002	0.059803	-0.475146
H94	H	-1.118746	0.060558	-0.331048
H95	H	-0.905295	-0.423933	0.012642
H96	H	-0.978368	-0.146885	-0.312534
C97	C	-1.033089	-0.413589	-0.045055
N98	N	-1.080951	-0.387449	-0.099407
C99	C	-1.039571	-0.584023	-0.042416
N100	N	-1.090794	-0.608776	-0.094334
H101	H	-0.875042	0.088184	-0.442273
H102	H	-0.872844	-0.084011	-0.441562
H103	H	-0.876806	0.087432	-0.299065
H104	H	-0.431083	-0.090039	0.000765
