data_functionalizedCrystal
_audit_creation_method	'MofGen! by Chris Wilmer'
_symmetry_space_group_name_H-M	'P1'
_symmetry_Int_Tables_number	1
_symmetry_cell_setting	triclinic
loop_
_symmetry_equiv_pos_as_xyz
  x,y,z
_cell_length_a	18.101398
_cell_length_b	12.645330
_cell_length_c	12.645323
_cell_angle_alpha	89.975130
_cell_angle_beta	90.027810
_cell_angle_gamma	89.987041
loop_
_atom_site_label
_atom_site_type_symbol
_atom_site_fract_x
_atom_site_fract_y
_atom_site_fract_z
Zn1	Zn	1.132216	0.422165	0.599591
Zn2	Zn	1.132133	0.599453	0.422332
Zn3	Zn	1.008367	0.422189	0.422320
Zn4	Zn	1.008354	0.599372	0.599531
O5	O	1.070267	0.510795	0.510943
O6	O	1.235837	0.445706	0.576108
O7	O	1.115686	0.575982	0.273983
O8	O	1.024836	0.273839	0.445856
O9	O	1.235777	0.575959	0.445876
O10	O	1.115827	0.273821	0.576096
O11	O	1.024755	0.445748	0.273974
O12	O	0.904732	0.445669	0.445797
O13	O	1.024814	0.575821	0.747886
O14	O	0.904723	0.575845	0.575993
O15	O	1.115814	0.445628	0.747931
O16	O	1.115673	0.747789	0.445817
O17	O	1.024734	0.747730	0.576005
C18	C	0.877857	0.510752	0.510888
C19	C	0.795543	0.510759	0.510890
C20	C	1.070213	0.786224	0.510929
C21	C	1.070258	0.904054	0.510958
C22	C	1.070322	0.510713	0.787449
C23	C	1.070345	0.510678	0.905279
C24	C	0.496452	0.510825	0.510979
C25	C	0.527758	0.428513	0.429462
C26	C	0.613376	0.428733	0.429115
C27	C	0.644834	0.510791	0.510934
C28	C	0.613733	0.622463	0.480419
C29	C	0.528088	0.622006	0.479852
C30	C	0.528067	0.482436	0.623203
C31	C	0.613717	0.479949	0.622590
C32	C	0.728694	0.510779	0.510911
C33	C	0.412592	0.510845	0.510999
C34	C	1.263429	0.510839	0.511000
C35	C	1.345743	0.510857	0.511024
C36	C	1.070342	0.234289	0.510982
C37	C	1.070374	0.116459	0.510998
C38	C	1.013284	1.071625	0.593111
C39	C	1.012992	0.949066	0.592847
C40	C	1.049129	0.948646	0.399233
C41	C	1.048781	1.071244	0.399732
C42	C	1.148710	1.071153	0.539623
C43	C	1.148229	0.948546	0.542066
C44	C	1.070256	0.510800	0.235514
C45	C	1.070376	0.510536	0.117684
C46	C	1.012920	0.592196	1.072815
C47	C	1.013071	0.592600	0.950255
C48	C	1.148377	0.541005	0.949809
C49	C	1.148062	0.541517	1.072407
C50	C	1.050477	0.398376	1.072474
C51	C	1.048736	0.399048	0.949868
H52	H	0.634404	0.345924	0.448241
H53	H	0.507175	0.345450	0.448378
H54	H	1.026212	0.918913	0.675690
C55	C	0.642633	0.555047	0.709035
H56	H	0.674200	0.606427	0.678024
H57	H	0.669406	0.515617	0.760261
H58	H	0.602125	0.589455	0.742138
H59	H	0.954886	0.573400	1.102281
H60	H	0.991311	0.376177	0.920761
C61	C	1.208721	0.907155	0.467162
H62	H	1.255199	0.935287	0.487816
H63	H	1.197900	0.928490	0.396802
H64	H	1.210391	0.832146	0.470669
C65	C	1.206153	1.110214	0.458761
H66	H	1.182554	1.153934	0.407809
H67	H	1.227971	1.051195	0.424373
H68	H	1.243360	1.149604	0.494194
C69	C	1.030486	0.703825	1.114442
H70	H	0.995512	0.752674	1.086959
H71	H	1.078714	0.723752	1.092571
H72	H	1.028058	0.703919	1.189487
H73	H	0.508077	0.646081	0.397811
C74	C	1.030810	0.704927	0.910649
H75	H	1.037964	0.750486	0.969487
H76	H	0.990906	0.730311	0.868937
H77	H	1.074506	0.703289	0.869099
C78	C	1.174747	1.112814	0.647812
H79	H	1.138081	1.158232	0.676539
H80	H	1.219556	1.150946	0.639239
H81	H	1.182649	1.054958	0.694417
H82	H	0.507379	0.685412	0.536636
H83	H	1.092324	0.337535	1.101493
C84	C	1.101140	0.312508	0.908521
H85	H	1.137048	0.343462	0.863328
H86	H	1.073558	0.261365	0.870212
H87	H	1.125162	0.279319	0.966523
C88	C	0.641261	0.707543	0.558103
H89	H	0.621799	0.774435	0.538194
H90	H	0.693693	0.710154	0.556450
H91	H	0.625258	0.690534	0.627596
C92	C	0.934907	0.566948	0.909574
H93	H	0.902774	0.556192	0.967975
H94	H	0.936485	0.504647	0.867690
H95	H	0.917233	0.624195	0.867975
H96	H	0.506208	0.447068	0.346789
H97	H	1.026382	1.101039	0.676226
H98	H	0.992462	0.918028	0.374547
C99	C	1.170840	0.652279	1.111067
H100	H	1.180195	0.696542	1.051846
H101	H	1.214270	0.646896	1.152925
H102	H	1.132095	0.681745	1.152264
C103	C	0.641204	0.368954	0.653705
H104	H	0.622200	0.350753	0.721322
H105	H	0.693657	0.368743	0.656070
H106	H	0.624710	0.318891	0.602926
H107	H	0.633829	0.447501	0.345958
C108	C	0.935318	1.113346	0.567818
H109	H	0.937407	1.157966	0.507431
H110	H	0.917133	1.152341	0.626485
H111	H	0.903316	1.055460	0.553909
C112	C	0.974946	0.361028	1.114200
H113	H	0.963992	0.293205	1.085972
H114	H	0.937812	0.409804	1.093187
H115	H	0.976443	0.357024	1.189192
H116	H	0.635148	0.646956	0.399264
C117	C	0.498914	0.374344	0.660687
H118	H	0.467185	0.345515	0.608238
H119	H	0.472265	0.383075	0.724789
H120	H	0.539310	0.327746	0.672133
H121	H	0.507822	0.542389	0.683940
C122	C	1.207862	0.464679	1.112514
H123	H	1.232245	0.433296	1.053878
H124	H	1.185501	0.411039	1.154241
H125	H	1.242747	0.502315	1.154152
H126	H	0.954918	0.919824	0.573882
C127	C	1.102501	1.111321	0.314250
H128	H	1.124437	1.052673	0.279368
H129	H	1.139962	1.152997	0.346349
H130	H	1.076235	1.153004	0.264278
H131	H	1.164163	0.919397	0.624289
C132	C	0.971423	1.110001	0.366986
H133	H	0.940504	1.050818	0.353510
H134	H	0.975217	1.151877	0.304842
H135	H	0.950815	1.151202	0.422424
C136	C	1.103513	0.909259	0.314318
H137	H	1.139672	0.865160	0.346324
H138	H	1.127066	0.968111	0.282027
H139	H	1.077350	0.870185	0.262221
C140	C	1.207763	0.463210	0.910454
H141	H	1.185442	0.411423	0.866406
H142	H	1.230369	0.429525	0.969321
H143	H	1.244109	0.500693	0.871332
H144	H	1.165533	0.622138	0.919122
