data_functionalizedCrystal
_audit_creation_method	'MofGen! by Chris Wilmer'
_symmetry_space_group_name_H-M	'P1'
_symmetry_Int_Tables_number	1
_symmetry_cell_setting	triclinic
loop_
_symmetry_equiv_pos_as_xyz
  x,y,z
_cell_length_a	11.792254
_cell_length_b	16.109317
_cell_length_c	14.586319
_cell_angle_alpha	89.998916
_cell_angle_beta	89.996031
_cell_angle_gamma	96.166594
loop_
_atom_site_label
_atom_site_type_symbol
_atom_site_fract_x
_atom_site_fract_y
_atom_site_fract_z
O1	O	0.145973	-1.103814	-0.076143
O2	O	0.645973	-0.603814	0.423857
O3	O	0.164109	-0.861840	-0.076166
O4	O	0.664109	-0.361840	0.423834
O5	O	-0.010179	-0.988694	-0.076148
O6	O	0.489821	-0.488694	0.423852
O7	O	0.320262	-0.976960	-0.076162
O8	O	0.820262	-0.476960	0.423838
O9	O	-0.010182	-0.988685	0.076333
O10	O	0.489818	-0.488685	0.576333
O11	O	0.164106	-0.861831	0.076315
O12	O	0.664106	-0.361831	0.576315
O13	O	0.145971	-1.103805	0.076338
O14	O	0.645971	-0.603805	0.576338
Cu15	Cu	0.155038	-0.982817	0.090249
Cu16	Cu	0.655038	-0.482817	0.590249
Cu17	Cu	0.155041	-0.982828	-0.090077
Cu18	Cu	0.655041	-0.482828	0.409923
O19	O	0.320259	-0.976952	0.076319
O20	O	0.820259	-0.476952	0.576319
C21	C	0.163370	-0.830857	0.000071
C22	C	0.663370	-0.330857	0.500071
C23	C	0.161158	-0.738552	0.000062
C24	C	0.661158	-0.238552	0.500062
C25	C	0.154014	-0.439449	-0.083044
C26	C	0.654014	0.060551	0.416956
C27	C	0.156085	-0.526181	-0.083048
C28	C	0.656085	-0.026181	0.416952
C29	C	0.156067	-0.526190	0.083195
C30	C	0.656067	-0.026190	0.583195
C31	C	0.153987	-0.439461	0.083198
C32	C	0.653987	0.060539	0.583198
C33	C	0.152967	-0.396092	0.000076
C34	C	0.652967	0.103908	0.500076
C35	C	0.157117	-0.569552	0.000069
C36	C	0.657117	-0.069552	0.500069
C37	C	0.159363	-0.663590	0.000065
C38	C	0.659363	-0.163590	0.500065
C39	C	0.150719	-0.302049	0.000079
C40	C	0.650719	0.197951	0.500079
C41	C	-0.052465	-0.987950	0.000092
C42	C	0.447535	-0.487950	0.500092
C43	C	-0.178459	-0.985738	0.000091
C44	C	0.321541	-0.485738	0.500091
C45	C	-0.280780	-0.983940	0.000088
C46	C	0.219220	-0.483940	0.500088
C47	C	-0.409147	-0.981693	0.000079
C48	C	0.090853	-0.481693	0.500079
C49	C	0.362545	-0.977695	0.000077
C50	C	0.862545	-0.477695	0.500077
C51	C	0.488539	-0.979907	0.000072
C52	C	0.988539	-0.479907	0.500072
N53	N	0.155036	-0.982816	0.217081
N54	N	0.655036	-0.482816	0.717081
C55	C	0.146711	-0.134788	0.000093
C56	C	0.646711	0.365212	0.500093
C57	C	0.148927	-0.227092	0.000082
C58	C	0.648927	0.272908	0.500082
N59	N	0.155035	-0.982836	-0.216909
N60	N	0.655035	-0.482836	0.283091
C61	C	0.077887	-1.039006	0.452095
C62	C	0.577887	-0.539006	0.952095
C63	C	0.077884	-1.039008	0.548077
C64	C	0.577884	-0.539008	1.048077
C65	C	0.232188	-0.926640	0.548069
C66	C	0.732188	-0.426640	1.048069
C67	C	0.232184	-0.926634	0.452090
C68	C	0.732184	-0.426634	0.952090
C69	C	0.155035	-0.982822	0.404105
C70	C	0.655035	-0.482822	0.904105
C71	C	0.155036	-0.982830	0.596066
C72	C	0.655036	-0.482830	1.096066
C73	C	0.155033	-0.982832	0.700133
C74	C	0.655033	-0.482832	1.200133
C75	C	0.155036	-0.982819	0.300032
C76	C	0.655036	-0.482819	0.800032
H77	H	0.156900	-0.561510	0.150870
H78	H	0.656900	-0.061510	0.650870
H79	H	0.153181	-0.404142	-0.150728
H80	H	0.653181	0.095858	0.349272
C81	C	0.157281	-0.573098	-0.173390
C82	C	0.657281	-0.073098	0.326610
C83	C	0.155970	-0.516549	-0.246178
C84	C	0.655970	-0.016549	0.253822
C85	C	0.157084	-0.559737	-0.329418
C86	C	0.657084	-0.059737	0.170582
H87	H	0.091964	-0.612970	-0.176981
H88	H	0.591964	-0.112970	0.323019
H89	H	0.224262	-0.600873	-0.176894
H90	H	0.724262	-0.100873	0.323106
H91	H	0.088996	-0.488788	-0.242676
H92	H	0.588996	0.011212	0.257324
H93	H	0.221282	-0.476675	-0.242617
H94	H	0.721282	0.023325	0.257383
H95	H	0.224066	-0.587512	-0.332922
H96	H	0.724066	-0.087512	0.167078
H97	H	0.091766	-0.599608	-0.332999
H98	H	0.591766	-0.099608	0.167001
H99	H	0.156206	-0.521374	-0.378814
H100	H	0.656206	-0.021374	0.121186
H101	H	0.153134	-0.404159	0.150888
H102	H	0.653134	0.095841	0.650888
C103	C	-0.006008	-1.100037	0.400163
C104	C	0.493992	-0.600037	0.900163
C105	C	-0.073593	-1.149225	0.462739
C106	C	0.426407	-0.649225	0.962739
C107	C	-0.150904	-1.205448	0.414935
C108	C	0.349096	-0.705448	0.914935
H109	H	0.034698	-1.134908	0.362712
H110	H	0.534698	-0.634908	0.862712
H111	H	-0.053332	-1.069934	0.362747
H112	H	0.446668	-0.569934	0.862747
H113	H	-0.026276	-1.179326	0.500139
H114	H	0.473724	-0.679326	1.000139
H115	H	-0.114324	-1.114377	0.500191
H116	H	0.385676	-0.614377	1.000191
H117	H	-0.198227	-1.175345	0.377519
H118	H	0.301773	-0.675345	0.877519
H119	H	-0.110188	-1.240313	0.377486
H120	H	0.389812	-0.740313	0.877486
H121	H	-0.196776	-1.238823	0.457385
H122	H	0.303224	-0.738823	0.957385
C123	C	-0.006007	-1.099876	0.600228
C124	C	0.493993	-0.599876	1.100228
C125	C	-0.075529	-1.055281	0.655317
C126	C	0.424471	-0.555281	1.155317
C127	C	-0.152837	-1.111326	0.703362
C128	C	0.347163	-0.611326	1.203362
H129	H	0.034704	-1.134691	0.637742
H130	H	0.534704	-0.634691	1.137742
H131	H	-0.052017	-1.133324	0.557930
H132	H	0.447983	-0.633324	1.057930
H133	H	-0.029524	-1.021848	0.697610
H134	H	0.470476	-0.521848	1.197610
H135	H	-0.116265	-1.020470	0.617826
H136	H	0.383735	-0.520470	1.117826
H137	H	-0.198848	-1.144774	0.661063
H138	H	0.301152	-0.644774	1.161063
H139	H	-0.112117	-1.146138	0.740870
H140	H	0.387883	-0.646138	1.240870
H141	H	-0.200024	-1.081077	0.740738
H142	H	0.299976	-0.581077	1.240738
C143	C	0.315905	-0.865738	0.600335
C144	C	0.815905	-0.365738	1.100335
C145	C	0.299421	-0.877784	0.694662
C146	C	0.799421	-0.377784	1.194662
C147	C	0.376534	-0.821705	0.742835
C148	C	0.876534	-0.321705	1.242835
H149	H	0.303630	-0.810159	0.584723
H150	H	0.803630	-0.310159	1.084723
H151	H	0.391680	-0.875118	0.584649
H152	H	0.891680	-0.375118	1.084649
H153	H	0.223664	-0.868397	0.710342
H154	H	0.723664	-0.368397	1.210342
H155	H	0.311705	-0.933351	0.710302
H156	H	0.811705	-0.433351	1.210302
H157	H	0.452309	-0.831085	0.727149
H158	H	0.952309	-0.331085	1.227149
H159	H	0.364253	-0.766129	0.727215
H160	H	0.864253	-0.266129	1.227215
H161	H	0.365367	-0.829875	0.806841
H162	H	0.865367	-0.329875	1.306841
C163	C	0.316079	-0.865595	0.400145
C164	C	0.816079	-0.365595	0.900145
C165	C	0.383671	-0.816409	0.462708
C166	C	0.883671	-0.316409	0.962708
C167	C	0.460970	-0.760179	0.414890
C168	C	0.960970	-0.260179	0.914890
H169	H	0.275363	-0.830724	0.362706
H170	H	0.775363	-0.330724	0.862706
H171	H	0.363399	-0.895693	0.362716
H172	H	0.863399	-0.395693	0.862716
H173	H	0.336358	-0.786313	0.500121
H174	H	0.836358	-0.286313	1.000121
H175	H	0.424412	-0.851258	0.500149
H176	H	0.924412	-0.351258	1.000149
H177	H	0.508289	-0.790277	0.377461
H178	H	1.008289	-0.290277	0.877461
H179	H	0.420244	-0.725314	0.377453
H180	H	0.920244	-0.225314	0.877453
H181	H	0.506846	-0.726805	0.457332
H182	H	1.006846	-0.226805	0.957332
