data_functionalizedCrystal
_audit_creation_method	'MofGen! by Chris Wilmer'
_symmetry_space_group_name_H-M	'P1'
_symmetry_Int_Tables_number	1
_symmetry_cell_setting	triclinic
loop_
_symmetry_equiv_pos_as_xyz
  x,y,z
_cell_length_a	19.805407
_cell_length_b	19.805404
_cell_length_c	19.805399
_cell_angle_alpha	90.025147
_cell_angle_beta	89.982197
_cell_angle_gamma	89.971921
loop_
_atom_site_label
_atom_site_type_symbol
_atom_site_fract_x
_atom_site_fract_y
_atom_site_fract_z
Zn1	Zn	1.034715	0.269527	-0.382699
Zn2	Zn	1.284715	0.519527	-0.132699
Zn3	Zn	1.534715	0.769527	0.117301
Zn4	Zn	1.784715	1.019527	0.367301
Zn5	Zn	1.034621	0.382716	-0.269516
Zn6	Zn	1.284621	0.632716	-0.019516
Zn7	Zn	1.534621	0.882716	0.230484
Zn8	Zn	1.784621	1.132716	0.480484
Zn9	Zn	0.921530	0.269541	-0.269527
Zn10	Zn	1.171530	0.519541	-0.019527
Zn11	Zn	1.421530	0.769541	0.230473
Zn12	Zn	1.671530	1.019541	0.480473
Zn13	Zn	0.921485	0.382674	-0.382666
Zn14	Zn	1.171485	0.632674	-0.132666
Zn15	Zn	1.421485	0.882674	0.117334
Zn16	Zn	1.671485	1.132674	0.367334
O17	O	0.978088	0.326115	-0.326102
O18	O	1.228088	0.576115	-0.076102
O19	O	1.478088	0.826115	0.173898
O20	O	1.728088	1.076115	0.423898
O21	O	1.129419	0.284554	-0.367694
O22	O	1.379419	0.534554	-0.117694
O23	O	1.629419	0.784554	0.132306
O24	O	1.879419	1.034554	0.382306
O25	O	1.019599	0.367726	-0.174801
O26	O	1.269599	0.617726	0.075199
O27	O	1.519599	0.867726	0.325199
O28	O	1.769599	1.117726	0.575199
O29	O	0.936602	0.174822	-0.284558
O30	O	1.186602	0.424822	-0.034558
O31	O	1.436602	0.674822	0.215442
O32	O	1.686602	0.924822	0.465442
O33	O	1.129350	0.367713	-0.284539
O34	O	1.379350	0.617713	-0.034539
O35	O	1.629350	0.867713	0.215461
O36	O	1.879350	1.117713	0.465461
O37	O	1.019759	0.174813	-0.367705
O38	O	1.269759	0.424813	-0.117705
O39	O	1.519759	0.674813	0.132295
O40	O	1.769759	0.924813	0.382295
O41	O	0.936511	0.284576	-0.174809
O42	O	1.186511	0.534576	0.075191
O43	O	1.436511	0.784576	0.325191
O44	O	1.686511	1.034576	0.575191
O45	O	0.826807	0.284536	-0.284526
O46	O	1.076807	0.534536	-0.034526
O47	O	1.326807	0.784536	0.215474
O48	O	1.576807	1.034536	0.465474
O49	O	0.936525	0.367642	-0.477387
O50	O	1.186525	0.617642	-0.227387
O51	O	1.436525	0.867642	0.022613
O52	O	1.686525	1.117642	0.272613
O53	O	0.826774	0.367655	-0.367649
O54	O	1.076774	0.617655	-0.117649
O55	O	1.326774	0.867655	0.132351
O56	O	1.576774	1.117655	0.382351
O57	O	1.019715	0.284514	-0.477411
O58	O	1.269715	0.534514	-0.227411
O59	O	1.519715	0.784514	0.022589
O60	O	1.769715	1.034514	0.272589
O61	O	1.019555	0.477427	-0.284507
O62	O	1.269555	0.727427	-0.034507
O63	O	1.519555	0.977427	0.215493
O64	O	1.769555	1.227427	0.465493
O65	O	0.936434	0.477397	-0.367638
O66	O	1.186434	0.727397	-0.117638
O67	O	1.436434	0.977397	0.132362
O68	O	1.686434	1.227397	0.382362
C69	C	0.802232	0.326093	-0.326086
C70	C	1.052232	0.576093	-0.076086
C71	C	1.302232	0.826093	0.173914
C72	C	1.552232	1.076093	0.423914
C73	C	0.727000	0.326101	-0.326095
C74	C	0.977000	0.576101	-0.076095
C75	C	1.227000	0.826101	0.173905
C76	C	1.477000	1.076101	0.423905
C77	C	0.691692	0.282876	-0.369459
C78	C	0.941692	0.532876	-0.119459
C79	C	1.191692	0.782876	0.130541
C80	C	1.441692	1.032876	0.380541
C81	C	0.621004	0.282880	-0.369462
C82	C	0.871004	0.532880	-0.119462
C83	C	1.121004	0.782880	0.130538
C84	C	1.371004	1.032880	0.380538
C85	C	0.585624	0.326112	-0.326103
C86	C	0.835624	0.576112	-0.076103
C87	C	1.085624	0.826112	0.173897
C88	C	1.335624	1.076112	0.423897
C89	C	0.620937	0.369338	-0.282733
C90	C	0.870937	0.619338	-0.032733
C91	C	1.120937	0.869338	0.217267
C92	C	1.370937	1.119338	0.467267
C93	C	0.691624	0.369330	-0.282728
C94	C	0.941624	0.619330	-0.032728
C95	C	1.191624	0.869330	0.217272
C96	C	1.441624	1.119330	0.467272
C97	C	0.335864	0.369368	-0.282754
C98	C	0.585864	0.619368	-0.032754
C99	C	0.835864	0.869368	0.217246
C100	C	1.085864	1.119368	0.467246
C101	C	0.265171	0.369374	-0.282764
C102	C	0.515171	0.619374	-0.032764
C103	C	0.765171	0.869374	0.217236
C104	C	1.015171	1.119374	0.467236
C105	C	0.265243	0.282918	-0.369488
C106	C	0.515243	0.532918	-0.119488
C107	C	0.765243	0.782918	0.130512
C108	C	1.015243	1.032918	0.380512
C109	C	0.335930	0.282910	-0.369483
C110	C	0.585930	0.532910	-0.119483
C111	C	0.835930	0.782910	0.130517
C112	C	1.085930	1.032910	0.380517
C113	C	0.371237	0.326134	-0.326111
C114	C	0.621237	0.576134	-0.076111
C115	C	0.871237	0.826134	0.173889
C116	C	1.121237	1.076134	0.423889
C117	C	0.447885	0.326128	-0.326108
C118	C	0.697885	0.576128	-0.076108
C119	C	0.947885	0.826128	0.173892
C120	C	1.197885	1.076128	0.423892
C121	C	0.508977	0.326121	-0.326109
C122	C	0.758977	0.576121	-0.076109
C123	C	1.008977	0.826121	0.173891
C124	C	1.258977	1.076121	0.423891
C125	C	0.977998	0.501971	-0.326082
C126	C	1.227998	0.751971	-0.076082
C127	C	1.477998	1.001971	0.173918
C128	C	1.727998	1.251971	0.423918
C129	C	0.978022	0.577203	-0.326096
C130	C	1.228022	0.827203	-0.076096
C131	C	1.478022	1.077203	0.173904
C132	C	1.728022	1.327203	0.423904
C133	C	1.021521	1.038987	-0.282935
C134	C	1.271521	1.288987	-0.032935
C135	C	1.521521	1.538987	0.217065
C136	C	1.771521	1.788987	0.467065
C137	C	1.021490	0.968298	-0.282919
C138	C	1.271490	1.218298	-0.032919
C139	C	1.521490	1.468298	0.217081
C140	C	1.771490	1.718298	0.467081
C141	C	0.978164	0.932964	-0.326159
C142	C	1.228164	1.182964	-0.076159
C143	C	1.478164	1.432964	0.173841
C144	C	1.728164	1.682964	0.423841
C145	C	0.934861	0.968322	-0.369412
C146	C	1.184861	1.218322	-0.119412
C147	C	1.434861	1.468322	0.130588
C148	C	1.684861	1.718322	0.380588
C149	C	0.934888	1.039009	-0.369423
C150	C	1.184888	1.289009	-0.119423
C151	C	1.434888	1.539009	0.130577
C152	C	1.684888	1.789009	0.380577
C153	C	0.934749	0.683249	-0.369365
C154	C	1.184749	0.933249	-0.119365
C155	C	1.434749	1.183249	0.130635
C156	C	1.684749	1.433249	0.380635
C157	C	0.934726	0.612557	-0.369351
C158	C	1.184726	0.862557	-0.119351
C159	C	1.434726	1.112557	0.130649
C160	C	1.684726	1.362557	0.380649
C161	C	1.021351	0.612538	-0.282861
C162	C	1.271351	0.862538	-0.032861
C163	C	1.521351	1.112538	0.217139
C164	C	1.771351	1.362538	0.467139
C165	C	1.021378	0.683225	-0.282872
C166	C	1.271378	0.933225	-0.032872
C167	C	1.521378	1.183225	0.217128
C168	C	1.771378	1.433225	0.467128
C169	C	0.978073	0.718577	-0.326122
C170	C	1.228073	0.968577	-0.076122
C171	C	1.478073	1.218577	0.173878
C172	C	1.728073	1.468577	0.423878
C173	C	0.978105	0.795225	-0.326138
C174	C	1.228105	1.045225	-0.076138
C175	C	1.478105	1.295225	0.173862
C176	C	1.728105	1.545225	0.423862
C177	C	0.978135	0.856317	-0.326147
C178	C	1.228135	1.106317	-0.076147
C179	C	1.478135	1.356317	0.173853
C180	C	1.728135	1.606317	0.423853
C181	C	1.154630	0.326136	-0.326119
C182	C	1.404630	0.576136	-0.076119
C183	C	1.654630	0.826136	0.173881
C184	C	1.904630	1.076136	0.423881
C185	C	1.229862	0.326146	-0.326126
C186	C	1.479862	0.576146	-0.076126
C187	C	1.729862	0.826146	0.173874
C188	C	1.979862	1.076146	0.423874
C189	C	0.978126	0.326072	-0.502645
C190	C	1.228126	0.576072	-0.252645
C191	C	1.478126	0.826072	-0.002645
C192	C	1.728126	1.076072	0.247355
C193	C	0.978142	0.326054	-0.577877
C194	C	1.228142	0.576054	-0.327877
C195	C	1.478142	0.826054	-0.077877
C196	C	1.728142	1.076054	0.172123
C197	C	0.978191	1.149572	-0.326145
C198	C	1.228191	1.399572	-0.076145
C199	C	1.478191	1.649572	0.173855
C200	C	1.728191	1.899572	0.423855
C201	C	0.978222	1.074340	-0.326186
C202	C	1.228222	1.324340	-0.076186
C203	C	1.478222	1.574340	0.173814
C204	C	1.728222	1.824340	0.423814
C205	C	1.021460	0.282767	-0.613235
C206	C	1.271460	0.532767	-0.363235
C207	C	1.521460	0.782767	-0.113235
C208	C	1.771460	1.032767	0.136765
C209	C	1.021467	0.282747	-0.683923
C210	C	1.271467	0.532747	-0.433923
C211	C	1.521467	0.782747	-0.183923
C212	C	1.771467	1.032747	0.066077
C213	C	0.978159	0.326018	-0.719252
C214	C	1.228159	0.576018	-0.469252
C215	C	1.478159	0.826018	-0.219252
C216	C	1.728159	1.076018	0.030748
C217	C	0.934836	0.369308	-0.683890
C218	C	1.184836	0.619308	-0.433890
C219	C	1.434836	0.869308	-0.183890
C220	C	1.684836	1.119308	0.066110
C221	C	0.934826	0.369323	-0.613202
C222	C	1.184826	0.619323	-0.363202
C223	C	1.434826	0.869323	-0.113202
C224	C	1.684826	1.119323	0.136798
C225	C	0.934874	0.369244	-0.968963
C226	C	1.184874	0.619244	-0.718963
C227	C	1.434874	0.869244	-0.468963
C228	C	1.684874	1.119244	-0.218963
C229	C	0.934889	0.369227	-1.039655
C230	C	1.184889	0.619227	-0.789655
C231	C	1.434889	0.869227	-0.539655
C232	C	1.684889	1.119227	-0.289655
C233	C	1.021515	0.282668	-1.039684
C234	C	1.271515	0.532668	-0.789684
C235	C	1.521515	0.782668	-0.539684
C236	C	1.771515	1.032668	-0.289684
C237	C	1.021505	0.282684	-0.968997
C238	C	1.271505	0.532684	-0.718997
C239	C	1.521505	0.782684	-0.468997
C240	C	1.771505	1.032684	-0.218997
C241	C	0.978180	0.325970	-0.933640
C242	C	1.228180	0.575970	-0.683640
C243	C	1.478180	0.825970	-0.433640
C244	C	1.728180	1.075970	-0.183640
C245	C	0.978172	0.325990	-0.856991
C246	C	1.228172	0.575990	-0.606991
C247	C	1.478172	0.825990	-0.356991
C248	C	1.728172	1.075990	-0.106991
C249	C	0.978170	0.326002	-0.795900
C250	C	1.228170	0.576002	-0.545900
C251	C	1.478170	0.826002	-0.295900
C252	C	1.728170	1.076002	-0.045900
C253	C	0.978089	0.326108	-0.150246
C254	C	1.228089	0.576108	0.099754
C255	C	1.478089	0.826108	0.349754
C256	C	1.728089	1.076108	0.599754
C257	C	0.978204	0.325936	-0.075014
C258	C	1.228204	0.575936	0.174986
C259	C	1.478204	0.825936	0.424986
C260	C	1.728204	1.075936	0.674986
H261	H	0.720493	0.247674	-0.404769
H262	H	0.970493	0.497674	-0.154769
H263	H	1.220493	0.747674	0.095231
H264	H	1.470493	0.997674	0.345231
H265	H	0.899580	0.939549	-0.404616
H266	H	1.149580	1.189549	-0.154616
H267	H	1.399580	1.439549	0.095384
H268	H	1.649580	1.689549	0.345384
H269	H	1.056661	0.711991	-0.247665
H270	H	1.306661	0.961991	0.002335
H271	H	1.556661	1.211991	0.252335
H272	H	1.806661	1.461991	0.502335
H273	H	1.056729	0.247532	-0.584475
H274	H	1.306729	0.497532	-0.334475
H275	H	1.556729	0.747532	-0.084475
H276	H	1.806729	0.997532	0.165525
H277	H	0.899633	1.067793	-0.404646
H278	H	1.149633	1.317793	-0.154646
H279	H	1.399633	1.567793	0.095354
H280	H	1.649633	1.817793	0.345354
H281	H	1.056806	1.067751	-0.247728
H282	H	1.306806	1.317751	0.002272
H283	H	1.556806	1.567751	0.252272
H284	H	1.806806	1.817751	0.502272
H285	H	1.056773	0.247450	-0.940235
H286	H	1.306773	0.497450	-0.690235
H287	H	1.556773	0.747450	-0.440235
H288	H	1.806773	0.997450	-0.190235
H289	H	1.056790	0.247420	-1.068480
H290	H	1.306790	0.497420	-0.818480
H291	H	1.556790	0.747420	-0.568480
H292	H	1.806790	0.997420	-0.318480
H293	H	1.056747	0.939514	-0.247700
H294	H	1.306747	1.189514	0.002300
H295	H	1.556747	1.439514	0.252300
H296	H	1.806747	1.689514	0.502300
H297	H	1.056611	0.583747	-0.247642
H298	H	1.306611	0.833747	0.002358
H299	H	1.556611	1.083747	0.252358
H300	H	1.806611	1.333747	0.502358
H301	H	1.056742	0.247500	-0.712709
H302	H	1.306742	0.497500	-0.462709
H303	H	1.556742	0.747500	-0.212709
H304	H	1.806742	0.997500	0.037291
H305	H	0.899442	0.583789	-0.404563
H306	H	1.149442	0.833789	-0.154563
H307	H	1.399442	1.083789	0.095437
H308	H	1.649442	1.333789	0.345437
H309	H	0.592259	0.247684	-0.404775
H310	H	0.842259	0.497684	-0.154775
H311	H	1.092259	0.747684	0.095225
H312	H	1.342259	0.997684	0.345225
H313	H	0.899619	0.404465	-1.068418
H314	H	1.149619	0.654465	-0.818418
H315	H	1.399619	0.904465	-0.568418
H316	H	1.649619	1.154465	-0.318418
H317	H	0.899571	0.404538	-0.712660
H318	H	1.149571	0.654538	-0.462660
H319	H	1.399571	0.904538	-0.212660
H320	H	1.649571	1.154538	0.037340
H321	H	0.899481	0.712024	-0.404577
H322	H	1.149481	0.962024	-0.154577
H323	H	1.399481	1.212024	0.095423
H324	H	1.649481	1.462024	0.345423
H325	H	0.899545	0.404565	-0.584415
H326	H	1.149545	0.654565	-0.334415
H327	H	1.399545	0.904565	-0.084415
H328	H	1.649545	1.154565	0.165585
H329	H	0.236488	0.247721	-0.404801
H330	H	0.486488	0.497721	-0.154801
H331	H	0.736488	0.747721	0.095199
H332	H	0.986488	0.997721	0.345199
H333	H	0.364733	0.247709	-0.404793
H334	H	0.614733	0.497709	-0.154793
H335	H	0.864733	0.747709	0.095207
H336	H	1.114733	0.997709	0.345207
H337	H	0.236367	0.404580	-0.247453
H338	H	0.486367	0.654580	0.002547
H339	H	0.736367	0.904580	0.252547
H340	H	0.986367	1.154580	0.502547
H341	H	0.364601	0.404564	-0.247438
H342	H	0.614601	0.654564	0.002562
H343	H	0.864601	0.904564	0.252562
H344	H	1.114601	1.154564	0.502562
H345	H	0.592125	0.404535	-0.247426
H346	H	0.842125	0.654535	0.002574
H347	H	1.092125	0.904535	0.252574
H348	H	1.342125	1.154535	0.502574
H349	H	0.720371	0.404528	-0.247415
H350	H	0.970371	0.654528	0.002585
H351	H	1.220371	0.904528	0.252585
H352	H	1.470371	1.154528	0.502585
H353	H	0.899606	0.404501	-0.940184
H354	H	1.149606	0.654501	-0.690184
H355	H	1.399606	0.904501	-0.440184
H356	H	1.649606	1.154501	-0.190184
