data_functionalizedCrystal
_audit_creation_method	'MofGen! by Chris Wilmer'
_symmetry_space_group_name_H-M	'P1'
_symmetry_Int_Tables_number	1
_symmetry_cell_setting	triclinic
loop_
_symmetry_equiv_pos_as_xyz
  x,y,z
_cell_length_a	19.188933
_cell_length_b	19.188930
_cell_length_c	16.098538
_cell_angle_alpha	92.708456
_cell_angle_beta	87.271982
_cell_angle_gamma	83.145175
loop_
_atom_site_label
_atom_site_type_symbol
_atom_site_fract_x
_atom_site_fract_y
_atom_site_fract_z
O1	O	0.929279	0.084045	-0.069237
O2	O	1.429279	0.584045	0.430763
O3	O	0.725968	0.095777	-0.069246
O4	O	1.225968	0.595777	0.430754
O5	O	0.833490	-0.011744	-0.069225
O6	O	1.333490	0.488256	0.430775
O7	O	0.821757	0.191566	-0.069258
O8	O	1.321757	0.691566	0.430742
O9	O	0.827209	-0.005487	0.069286
O10	O	1.327209	0.494513	0.569286
O11	O	0.719687	0.102034	0.069265
O12	O	1.219687	0.602034	0.569265
O13	O	0.922998	0.090301	0.069274
O14	O	1.422998	0.590301	0.569274
Zn15	Zn	0.820345	0.097161	0.091262
Zn16	Zn	1.320345	0.597161	0.591262
Zn17	Zn	0.828621	0.088918	-0.091234
Zn18	Zn	1.328621	0.588918	0.408766
O19	O	0.815476	0.197822	0.069253
O20	O	1.315476	0.697822	0.569253
C21	C	0.696817	0.098525	0.000009
C22	C	1.196817	0.598525	0.500009
C23	C	0.619312	0.097384	0.000006
C24	C	1.119312	0.597384	0.500006
C25	C	0.069480	0.085829	-0.075487
C26	C	0.569480	0.585829	0.424513
C27	C	0.142305	0.086897	-0.075490
C28	C	0.642305	0.586897	0.424510
C29	C	0.175298	0.090845	0.000012
C30	C	0.675298	0.590845	0.500012
C31	C	0.135463	0.093706	0.075524
C32	C	0.635463	0.593706	0.575524
C33	C	0.062641	0.092631	0.075525
C34	C	0.562641	0.592631	0.575525
N35	N	0.281770	0.134801	0.056206
N36	N	0.781770	0.634801	0.556206
N37	N	0.350948	0.135824	0.056199
N38	N	0.850948	0.635824	0.556199
C39	C	0.394707	0.094083	0.000013
C40	C	0.894707	0.594083	0.500013
N41	N	0.366674	0.051288	-0.056179
N42	N	0.866674	0.551288	0.443821
N43	N	0.297489	0.050269	-0.056175
N44	N	0.797489	0.550269	0.443825
C45	C	0.254261	0.092010	0.000019
C46	C	0.754261	0.592010	0.500019
C47	C	0.513498	0.092374	-0.075497
C48	C	1.013498	0.592374	0.424503
C49	C	0.586324	0.093438	-0.075497
C50	C	1.086324	0.593438	0.424503
C51	C	0.579480	0.100254	0.075519
C52	C	1.079480	0.600254	0.575519
C53	C	0.506656	0.099183	0.075517
C54	C	1.006656	0.599183	0.575517
C55	C	0.473669	0.095246	0.000007
C56	C	0.973669	0.595246	0.500007
C57	C	0.829969	-0.034626	0.000033
C58	C	1.329969	0.465374	0.500033
C59	C	0.828828	-0.112131	0.000040
C60	C	1.328828	0.387869	0.500040
C61	C	0.891919	-0.157054	0.000047
C62	C	1.391919	0.342946	0.500047
C63	C	0.890848	-0.229878	0.000033
C64	C	1.390848	0.270122	0.500033
C65	C	0.826682	-0.257775	0.000030
C66	C	1.326682	0.242225	0.500030
C67	C	0.763583	-0.212842	0.000018
C68	C	1.263583	0.287158	0.500018
C69	C	0.764657	-0.140020	0.000024
C70	C	1.264657	0.359980	0.500024
N71	N	0.775497	-0.363652	0.047166
N72	N	1.275497	0.136348	0.547166
N73	N	0.774482	-0.432830	0.047163
N74	N	1.274482	0.067170	0.547163
C75	C	0.823445	-0.477185	0.000013
C76	C	1.323445	0.022815	0.500013
N77	N	0.873471	-0.449748	-0.047123
N78	N	1.373471	0.050252	0.452877
N79	N	0.874488	-0.380563	-0.047117
N80	N	1.374488	0.119437	0.452883
C81	C	0.825511	-0.336738	0.000024
C82	C	1.325511	0.163262	0.500024
C83	C	0.885378	-0.601073	0.000004
C84	C	1.385378	-0.101073	0.500004
C85	C	0.884305	-0.673899	-0.000015
C86	C	1.384305	-0.173899	0.499985
C87	C	0.757038	-0.656861	-0.000021
C88	C	1.257038	-0.156861	0.499979
C89	C	0.758114	-0.584037	-0.000011
C90	C	1.258114	-0.084037	0.499989
C91	C	0.822285	-0.556148	0.000006
C92	C	1.322285	-0.056148	0.500006
C93	C	0.952149	0.087553	0.000018
C94	C	1.452149	0.587553	0.500018
C95	C	1.029654	0.088694	0.000015
C96	C	1.529654	0.588694	0.500015
C97	C	0.818997	0.220705	-0.000007
C98	C	1.318997	0.720705	0.499993
C99	C	0.820138	0.298209	-0.000019
C100	C	1.320138	0.798209	0.499981
N101	N	0.814703	0.102786	0.215810
N102	N	1.314703	0.602786	0.715810
N103	N	0.834269	0.083287	-0.215782
N104	N	1.334269	0.583287	0.284218
C105	C	0.860356	0.057166	0.259404
C106	C	1.360356	0.557166	0.759404
C107	C	0.856415	0.061108	0.346592
C108	C	1.356415	0.561108	0.846592
C109	C	0.806824	0.110673	0.390184
C110	C	1.306824	0.610673	0.890184
C111	C	0.761166	0.156295	0.346584
C112	C	1.261166	0.656295	0.846584
C113	C	0.765104	0.152350	0.259398
C114	C	1.265104	0.652350	0.759398
C115	C	0.792549	0.124964	0.653432
C116	C	1.292549	0.624964	1.153432
C117	C	0.788616	0.128907	0.740624
C118	C	1.288616	0.628907	1.240624
C119	C	0.883864	0.033718	0.740626
C120	C	1.383864	0.533718	1.240626
C121	C	0.887801	0.029780	0.653438
C122	C	1.387801	0.529780	1.153438
C123	C	0.842140	0.075400	0.609845
C124	C	1.342140	0.575400	1.109845
C125	C	0.802796	0.114705	0.479305
C126	C	1.302796	0.614705	0.979305
C127	C	0.846165	0.071364	0.520726
C128	C	1.346165	0.571364	1.020726
H129	H	0.042627	0.082620	-0.136973
H130	H	0.542627	0.582620	0.363027
H131	H	0.706738	-0.547460	-0.000012
H132	H	1.206738	-0.047460	0.499988
H133	H	0.900741	0.016807	0.223916
H134	H	1.400741	0.516807	0.723916
C135	C	0.950977	-0.033359	0.337836
C136	C	1.450977	0.466641	0.837836
C137	C	0.906610	0.010971	0.394510
C138	C	1.406610	0.510971	0.894510
H139	H	0.981970	-0.064307	0.367420
H140	H	1.481970	0.435693	0.867420
H141	H	0.923534	-0.059949	0.303850
H142	H	1.423534	0.440051	0.803850
H143	H	0.977524	-0.005882	0.303810
H144	H	1.477524	0.494118	0.803810
H145	H	0.880058	-0.016506	0.428532
H146	H	1.380058	0.483494	0.928532
H147	H	0.934055	0.037564	0.428510
H148	H	1.434055	0.537564	0.928510
H149	H	0.944173	-0.134351	0.000057
H150	H	1.444173	0.365649	0.500057
C151	C	0.256978	0.085526	-0.142539
C152	C	0.756978	0.585526	0.357461
C153	C	0.186094	0.083750	-0.158486
C154	C	0.686094	0.583750	0.341514
H155	H	0.284009	0.083579	-0.193778
H156	H	0.784009	0.583579	0.306222
H157	H	0.262050	0.127803	-0.111519
H158	H	0.762050	0.627803	0.388481
H159	H	0.272950	0.046391	-0.111514
H160	H	0.772950	0.546391	0.388486
H161	H	0.170121	0.122889	-0.189505
H162	H	0.670121	0.622889	0.310495
H163	H	0.181018	0.041468	-0.189519
H164	H	0.681018	0.541468	0.310481
C165	C	0.705431	-0.316910	0.000021
C166	C	1.205431	0.183090	0.500021
C167	C	0.693050	-0.243504	0.000018
C168	C	1.193050	0.256496	0.500018
H169	H	0.661884	-0.335836	0.000023
H170	H	1.161884	0.164164	0.500023
H171	H	0.733585	-0.334515	-0.048277
H172	H	1.233585	0.165485	0.451723
H173	H	0.729210	-0.330161	0.048328
H174	H	1.229210	0.169839	0.548328
H175	H	0.669276	-0.230253	-0.048292
H176	H	1.169276	0.269747	0.451708
H177	H	0.664885	-0.225893	0.048321
H178	H	1.164885	0.274107	0.548321
H179	H	0.162331	0.096919	0.136998
H180	H	0.662331	0.596919	0.636998
H181	H	0.748231	0.169273	0.776114
H182	H	1.248231	0.669273	1.276114
C183	C	0.698012	0.219455	0.662200
C184	C	1.198012	0.719455	1.162200
C185	C	0.742365	0.175114	0.605522
C186	C	1.242365	0.675114	1.105522
H187	H	0.667033	0.250420	0.632618
H188	H	1.167033	0.750420	1.132618
H189	H	0.671455	0.191992	0.696220
H190	H	1.171455	0.691992	1.196220
H191	H	0.725471	0.246033	0.696192
H192	H	1.225471	0.746033	1.196192
H193	H	0.714906	0.148532	0.571534
H194	H	1.214906	0.648532	1.071534
H195	H	0.768924	0.202580	0.571488
H196	H	1.268924	0.702580	1.071488
C197	C	0.712842	0.204615	0.480233
C198	C	1.212842	0.704615	0.980233
C199	C	0.706656	0.210781	0.394500
C200	C	1.206656	0.710781	0.894500
H201	H	0.679193	0.238258	0.509810
H202	H	1.179193	0.738258	1.009810
H203	H	0.704756	0.158689	0.494535
H204	H	1.204756	0.658689	0.994535
H205	H	0.758773	0.212730	0.494497
H206	H	1.258773	0.712730	0.994497
H207	H	0.660727	0.202661	0.380234
H208	H	1.160727	0.702661	0.880234
H209	H	0.714736	0.256718	0.380192
H210	H	1.214736	0.756718	0.880192
H211	H	0.713279	-0.103443	0.000018
H212	H	1.213279	0.396557	0.500018
C213	C	0.670567	0.246842	0.268148
C214	C	1.170567	0.746842	0.768148
C215	C	0.714924	0.202500	0.211476
C216	C	1.214924	0.702500	0.711476
H217	H	0.639589	0.277805	0.238562
H218	H	1.139589	0.777805	0.738562
H219	H	0.644009	0.219380	0.302167
H220	H	1.144009	0.719380	0.802167
H221	H	0.698023	0.273423	0.302141
H222	H	1.198023	0.773423	0.802141
H223	H	0.687468	0.175916	0.177487
H224	H	1.187468	0.675916	0.677487
H225	H	0.741485	0.229966	0.177443
H226	H	1.241485	0.729966	0.677443
H227	H	0.030214	0.094968	0.137009
H228	H	0.530214	0.594968	0.637009
C229	C	0.966705	-0.324868	-0.071159
C230	C	1.466705	0.175132	0.428841
C231	C	0.960201	-0.279270	0.000046
C232	C	1.460201	0.220730	0.500046
H233	H	1.009522	-0.355355	-0.071150
H234	H	1.509522	0.144645	0.428850
H235	H	0.928338	-0.351897	-0.071161
H236	H	1.428338	0.148103	0.428839
H237	H	0.966676	-0.298274	-0.119455
H238	H	1.466676	0.201726	0.380545
H239	H	0.960224	-0.305864	0.048342
H240	H	1.460224	0.194136	0.548342
H241	H	0.998578	-0.252239	0.000056
H242	H	1.498578	0.247761	0.500056
H243	H	0.921038	-0.003424	0.776127
H244	H	1.421038	0.496576	1.276127
C245	C	0.527575	0.085743	-0.224769
C246	C	1.027575	0.585743	0.275231
C247	C	0.477233	0.088041	-0.158495
C248	C	0.977233	0.588041	0.341505
H249	H	0.505187	0.083065	-0.276007
H250	H	1.005187	0.583065	0.223993
H251	H	0.550389	0.127005	-0.221632
H252	H	1.050389	0.627005	0.278368
H253	H	0.561283	0.045593	-0.221619
H254	H	1.061283	0.545593	0.278381
H255	H	0.443528	0.128194	-0.161641
H256	H	0.943528	0.628194	0.338359
H257	H	0.454408	0.046775	-0.161633
H258	H	0.954408	0.546775	0.338367
H259	H	0.618751	0.091099	-0.136982
H260	H	1.118751	0.591099	0.363018
C261	C	1.011068	-0.625227	-0.000010
C262	C	1.511068	-0.125227	0.499990
C263	C	0.955914	-0.570412	0.000002
C264	C	1.455914	-0.070412	0.500002
H265	H	1.054613	-0.606298	-0.000020
H266	H	1.554613	-0.106298	0.499980
H267	H	1.005818	-0.651101	0.048287
H268	H	1.505818	-0.151101	0.548287
H269	H	1.010181	-0.655450	-0.048317
H270	H	1.510181	-0.155450	0.451683
H271	H	0.956797	-0.540191	0.048312
H272	H	1.456797	-0.040191	0.548312
H273	H	0.961165	-0.544526	-0.048301
H274	H	1.461165	-0.044526	0.451699
H275	H	0.704793	-0.679574	-0.000028
H276	H	1.204793	-0.179574	0.499972
H277	H	0.474229	0.101519	0.136998
H278	H	0.974229	0.601519	0.636998
C279	C	0.981547	-0.063922	0.662200
C280	C	1.481547	0.436078	1.162200
C281	C	0.942309	-0.024708	0.605523
C282	C	1.442309	0.475292	1.105523
H283	H	1.015196	-0.097562	0.632618
H284	H	1.515196	0.402438	1.132618
H285	H	1.005035	-0.033383	0.696189
H286	H	1.505035	0.466617	1.196189
H287	H	0.951020	-0.087424	0.696223
H288	H	1.451020	0.412576	1.196223
H289	H	0.972836	-0.001202	0.571504
H290	H	1.472836	0.498798	1.071504
H291	H	0.918820	-0.055252	0.571520
H292	H	1.418820	0.444748	1.071520
C293	C	0.960166	-0.768870	-0.071225
C294	C	1.460166	-0.268870	0.428775
C295	C	0.953661	-0.723280	-0.000013
C296	C	1.453661	-0.223280	0.499987
H297	H	1.002987	-0.799352	-0.071226
H298	H	1.502987	-0.299352	0.428774
H299	H	0.921803	-0.795904	-0.071229
H300	H	1.421803	-0.295904	0.428771
H301	H	0.960129	-0.742269	-0.119516
H302	H	1.460129	-0.242269	0.380484
H303	H	0.953693	-0.749881	0.048278
H304	H	1.453693	-0.249881	0.548278
H305	H	0.992034	-0.696243	-0.000002
H306	H	1.492034	-0.196243	0.499998
H307	H	0.606343	0.103466	0.136994
H308	H	1.106343	0.603466	0.636994
H309	H	0.886540	0.031005	0.485231
H310	H	1.386540	0.531005	0.985231
H311	H	0.762420	0.155063	0.514805
H312	H	1.262420	0.655063	1.014805
