data_functionalizedCrystal
_audit_creation_method	'MofGen! by Chris Wilmer'
_symmetry_space_group_name_H-M	'P1'
_symmetry_Int_Tables_number	1
_symmetry_cell_setting	triclinic
loop_
_symmetry_equiv_pos_as_xyz
  x,y,z
_cell_length_a	10.654541
_cell_length_b	15.625429
_cell_length_c	9.130307
_cell_angle_alpha	71.919555
_cell_angle_beta	89.999822
_cell_angle_gamma	84.352295
loop_
_atom_site_label
_atom_site_type_symbol
_atom_site_fract_x
_atom_site_fract_y
_atom_site_fract_z
O1	O	1.666519	0.126612	-0.188990
O2	O	1.300914	0.138678	-0.195411
O3	O	1.493487	0.001470	-0.122532
O4	O	1.473946	0.263820	-0.261869
O5	O	1.493481	0.001468	0.121068
O6	O	1.300908	0.138677	0.048189
O7	O	1.666513	0.126611	0.054609
Cu8	Cu	1.483710	0.132644	0.073642
Cu9	Cu	1.483717	0.132645	-0.214443
O10	O	1.473940	0.263819	-0.018270
C11	C	1.254122	0.137792	-0.073142
C12	C	1.114706	0.135143	-0.071740
C13	C	1.085025	0.299212	-0.158898
C14	C	1.004688	0.379999	-0.201819
C15	C	0.873696	0.377504	-0.200496
C16	C	0.823039	0.294214	-0.156241
C17	C	0.903376	0.213427	-0.113319
C18	C	1.034369	0.215931	-0.114652
C19	C	0.933057	0.049360	-0.026152
C20	C	1.064049	0.051852	-0.027485
C21	C	0.882400	-0.033931	0.018102
C22	C	0.962737	-0.114719	0.061015
C23	C	1.093736	-0.112221	0.059688
C24	C	1.144386	-0.028934	0.015437
C25	C	1.492600	-0.032124	0.017107
C26	C	1.489952	-0.132220	0.070259
C27	C	1.481223	-0.461421	-0.418805
C28	C	1.478728	-0.555476	-0.368815
C29	C	1.478722	-0.555464	-0.103259
C30	C	1.481222	-0.461407	-0.153227
C31	C	1.482471	-0.414393	-0.311002
C32	C	1.482471	-0.414380	-0.045424
C33	C	1.484965	-0.320331	-0.095389
C34	C	1.486210	-0.273310	-0.253157
C35	C	1.484965	-0.320344	-0.360967
C36	C	1.481213	-0.461395	0.112349
C37	C	1.482462	-0.414367	0.220153
C38	C	1.484964	-0.320317	0.170189
C39	C	1.486209	-0.273296	0.012421
C40	C	1.486209	-0.273283	0.277999
C41	C	1.488703	-0.179234	0.228034
C42	C	1.488703	-0.179247	-0.037544
C43	C	1.713304	0.127497	-0.067662
C44	C	1.852720	0.130146	-0.069074
C45	C	1.474826	0.297412	-0.157911
C46	C	1.477475	0.397508	-0.211073
N47	N	1.483713	0.132642	0.276266
N48	N	1.483723	0.132640	-0.417063
C49	C	1.654306	0.011180	0.340771
C50	C	1.739611	-0.049549	0.449689
C51	C	1.739623	-0.049549	0.603023
C52	C	1.654320	0.011183	0.647439
C53	C	1.569015	0.071912	0.538521
C54	C	1.569014	0.071908	0.385187
C55	C	1.398418	0.193368	0.474019
C56	C	1.398410	0.193375	0.320682
C57	C	1.313114	0.254101	0.518436
C58	C	1.227814	0.314835	0.409515
C59	C	1.227806	0.314834	0.256173
C60	C	1.313105	0.254103	0.211764
H61	H	1.251044	-0.026892	0.014335
H62	H	0.716377	0.292190	-0.155150
H63	H	0.775738	-0.035956	0.019185
C64	C	0.962193	0.541929	-0.287852
C65	C	1.060371	0.471550	-0.250464
H66	H	0.996569	0.598447	-0.317871
H67	H	0.911723	0.537537	-0.370461
H68	H	0.911717	0.537541	-0.200566
H69	H	1.110842	0.475934	-0.337754
H70	H	1.110862	0.475944	-0.167848
C71	C	1.194752	0.235116	0.002208
C72	C	1.313095	0.254104	0.043217
H73	H	1.194748	0.235120	-0.101849
H74	H	1.177498	0.177383	0.067560
H75	H	1.131753	0.279981	0.013077
H76	H	1.376094	0.209235	0.032360
H77	H	1.330363	0.311845	-0.022154
C78	C	0.709157	0.469861	-0.374790
C79	C	0.785378	0.466302	-0.247675
H80	H	0.654628	0.524678	-0.403907
H81	H	0.760878	0.467429	-0.458428
H82	H	0.660255	0.419894	-0.348229
H83	H	0.834287	0.516265	-0.274239
H84	H	0.733651	0.468742	-0.164019
C85	C	1.383625	-0.063991	0.320849
C86	C	1.490069	-0.127525	0.346516
H87	H	1.384461	-0.032070	0.393999
H88	H	1.384735	-0.022544	0.219742
H89	H	1.309489	-0.094277	0.331424
H90	H	1.564206	-0.097239	0.335929
H91	H	1.488970	-0.168978	0.447647
C92	C	1.766687	-0.172055	0.840540
C93	C	1.833384	-0.116304	0.722759
H94	H	1.824572	-0.213269	0.914454
H95	H	1.715900	-0.135882	0.888917
H96	H	1.714372	-0.204837	0.798122
H97	H	1.885694	-0.083516	0.765175
H98	H	1.884193	-0.152482	0.674376
H99	H	1.654315	0.011181	0.215918
H100	H	1.489731	-0.140967	-0.166019
H101	H	1.158336	0.364283	0.167497
C102	C	1.381909	-0.129116	-0.257473
C103	C	1.488948	-0.169929	-0.308088
H104	H	1.383605	-0.065294	-0.291380
H105	H	1.308184	-0.143977	-0.298624
H106	H	1.381358	-0.150390	-0.148081
H107	H	1.489494	-0.148660	-0.417481
H108	H	1.562692	-0.155060	-0.266943
C109	C	1.338570	0.339223	0.692863
C110	C	1.313118	0.254105	0.686980
H111	H	1.338563	0.339227	0.796915
H112	H	1.418842	0.352093	0.651340
H113	H	1.275551	0.384072	0.634342
H114	H	1.376143	0.209256	0.745492
H115	H	1.232836	0.241224	0.728524
H116	H	1.485993	-0.282064	-0.489442
C117	C	0.775113	-0.191392	0.101760
C118	C	0.907053	-0.206263	0.109652
H119	H	0.740736	-0.247910	0.131777
H120	H	0.747565	-0.158098	0.169020
H121	H	0.747558	-0.158095	-0.000879
H122	H	0.934608	-0.239555	0.212295
H123	H	0.934612	-0.239572	0.042391
C124	C	1.109905	-0.274651	0.145977
C125	C	1.182038	-0.201026	0.106862
H126	H	1.164419	-0.329475	0.175090
H127	H	1.058204	-0.272207	0.229626
H128	H	1.058189	-0.272208	0.059729
H129	H	1.233748	-0.203465	0.193114
H130	H	1.233762	-0.203471	0.023206
H131	H	1.809062	-0.098999	0.413512
H132	H	1.482251	-0.423140	-0.547280
H133	H	1.477700	-0.593761	-0.456614
H134	H	1.191684	0.301252	-0.160012
C135	C	1.056955	0.333237	0.572190
C136	C	1.134057	0.381584	0.458348
H137	H	0.999080	0.374447	0.602346
H138	H	1.011725	0.295419	0.532453
H139	H	1.107773	0.297066	0.658989
H140	H	1.083240	0.417749	0.371544
H141	H	1.179290	0.419417	0.498082
H142	H	1.654325	0.011172	0.772298
H143	H	1.479169	-0.537974	0.153025
C144	C	1.370088	-0.574954	0.133472
C145	C	1.477352	-0.607150	0.070162
H146	H	1.369244	-0.606868	0.240534
H147	H	1.371763	-0.512221	0.119149
H148	H	1.296508	-0.583954	0.083682
H149	H	1.550932	-0.598144	0.119944
H150	H	1.475688	-0.669898	0.084496
H151	H	1.485180	-0.311575	0.406458
H152	H	1.481440	-0.452658	0.348613
