data_functionalizedCrystal
_audit_creation_method	'MofGen! by Chris Wilmer'
_symmetry_space_group_name_H-M	'P1'
_symmetry_Int_Tables_number	1
_symmetry_cell_setting	triclinic
loop_
_symmetry_equiv_pos_as_xyz
  x,y,z
_cell_length_a	12.759399
_cell_length_b	12.759401
_cell_length_c	17.077396
_cell_angle_alpha	90.019998
_cell_angle_beta	89.974693
_cell_angle_gamma	89.986586
loop_
_atom_site_label
_atom_site_type_symbol
_atom_site_fract_x
_atom_site_fract_y
_atom_site_fract_z
Zn1	Zn	-0.418326	-1.606228	-0.443870
Zn2	Zn	-0.594027	-1.606126	-0.312612
Zn3	Zn	-0.418356	-1.430536	-0.312617
Zn4	Zn	-0.593957	-1.430516	-0.443834
O5	O	-0.506166	-1.518351	-0.378233
O6	O	-0.441650	-1.753235	-0.426472
O7	O	-0.570765	-1.582799	-0.202765
O8	O	-0.271331	-1.453893	-0.330046
O9	O	-0.570736	-1.753160	-0.330036
O10	O	-0.271309	-1.582973	-0.426477
O11	O	-0.441700	-1.453794	-0.202770
O12	O	-0.441633	-1.283512	-0.330011
O13	O	-0.570618	-1.453858	-0.553686
O14	O	-0.570647	-1.283497	-0.426415
O15	O	-0.441583	-1.582953	-0.553713
O16	O	-0.741039	-1.582779	-0.330001
O17	O	-0.740987	-1.453759	-0.426410
C18	C	-0.506136	-1.245384	-0.378210
C19	C	-0.506149	-1.128607	-0.378219
C20	C	-0.573254	-1.073710	-0.327934
C21	C	-0.573267	-0.963986	-0.327944
C22	C	-0.439061	-0.964066	-0.428525
C23	C	-0.439054	-1.073788	-0.428518
C24	C	-0.650734	-1.073662	-0.269863
C25	C	-0.650747	-0.963938	-0.269873
C26	C	-0.779134	-1.518285	-0.378218
C27	C	-0.895910	-1.518352	-0.378238
C28	C	-1.060509	-1.451223	-0.428421
C29	C	-0.950785	-1.451158	-0.428402
C30	C	-0.950766	-1.585624	-0.328094
C31	C	-1.060488	-1.585693	-0.328118
C32	C	-1.060519	-1.373588	-0.486330
C33	C	-0.950795	-1.373522	-0.486312
C34	C	-0.232133	-1.518446	-0.378266
C35	C	-0.115357	-1.518487	-0.378280
C36	C	-0.506089	-1.518415	-0.582978
C37	C	-0.506056	-1.518442	-0.670228
C38	C	-0.506187	-0.792384	-0.378249
C39	C	-0.506170	-0.909161	-0.378235
C40	C	-0.438862	-1.585664	-0.711233
C41	C	-0.438827	-1.585677	-0.793213
C42	C	-0.505992	-1.518472	-0.834187
C43	C	-0.573189	-1.451242	-0.793176
C44	C	-0.573218	-1.451225	-0.711197
C45	C	-0.573126	-1.451284	-0.964046
C46	C	-0.573099	-1.451303	-1.046031
C47	C	-0.438735	-1.585736	-1.046063
C48	C	-0.438764	-1.585719	-0.964084
C49	C	-0.505963	-1.518490	-0.923078
C50	C	-0.506168	-1.518348	-0.174286
C51	C	-0.505905	-1.518525	-0.087036
H52	H	-0.628849	-0.934127	-0.209107
H53	H	-0.728087	-0.929909	-0.291548
Cl54	Cl	-0.657605	-1.366766	-0.912498
Cl55	Cl	-0.904943	-1.247891	-0.461068
Cl56	Cl	-1.129436	-1.670273	-0.265093
Cl57	Cl	-0.657623	-1.366751	-0.844686
H58	H	-0.384171	-1.640393	-0.677878
Cl59	Cl	-0.881781	-1.670107	-0.265038
H60	H	-0.621484	-1.107667	-0.212149
H61	H	-0.384436	-0.919419	-0.469478
Cl62	Cl	-1.106379	-1.407181	-0.580226
H63	H	-0.384421	-1.118481	-0.469473
Cl64	Cl	-0.776399	-1.119636	-0.294833
Cl65	Cl	-1.113208	-1.254316	-0.452637
Cl66	Cl	-0.354332	-1.670213	-0.912575
H67	H	-0.916684	-1.402599	-0.544079
Cl68	Cl	-0.657525	-1.366804	-1.097540
H69	H	-0.384113	-1.640418	-0.826596
H70	H	-0.384017	-1.640474	-1.079453
H71	H	-0.627924	-1.396475	-0.677812
