data_functionalizedCrystal
_audit_creation_method	'MofGen! by Chris Wilmer'
_symmetry_space_group_name_H-M	'P1'
_symmetry_Int_Tables_number	1
_symmetry_cell_setting	triclinic
loop_
_symmetry_equiv_pos_as_xyz
  x,y,z
_cell_length_a	16.992694
_cell_length_b	11.026607
_cell_length_c	15.455313
_cell_angle_alpha	93.255562
_cell_angle_beta	87.142206
_cell_angle_gamma	99.627120
loop_
_atom_site_label
_atom_site_type_symbol
_atom_site_fract_x
_atom_site_fract_y
_atom_site_fract_z
O1	O	1.079936	0.255850	-0.072014
O2	O	0.851247	0.252986	-0.072040
O3	O	0.946638	0.075927	-0.072026
O4	O	0.984545	0.432909	-0.072028
O5	O	0.941177	0.086007	0.072235
O6	O	0.845786	0.263067	0.072221
O7	O	1.074474	0.265931	0.072247
Cu8	Cu	0.959632	0.265419	0.085406
Cu9	Cu	0.966090	0.253498	-0.085199
O10	O	0.979084	0.442990	0.072233
C11	C	0.818785	0.254344	0.000087
C12	C	0.730190	0.243358	0.000077
C13	C	0.936914	0.035078	0.000103
C14	C	0.916067	-0.101658	0.000097
C15	C	0.694911	0.349355	0.000078
C16	C	0.611666	0.339026	0.000090
C17	C	0.563702	0.222699	0.000095
C18	C	0.598986	0.116694	0.000098
C19	C	0.682229	0.127024	0.000092
C20	C	0.314060	0.179884	0.000119
C21	C	0.230811	0.169561	0.000122
C22	C	0.243497	0.391895	0.000115
C23	C	0.326741	0.402215	0.000104
C24	C	0.362018	0.296210	0.000111
N25	N	0.478612	0.212138	0.000105
N26	N	0.447106	0.306772	0.000108
C27	C	0.973629	-0.169881	0.000103
C28	C	0.952084	-0.311205	0.000097
C29	C	1.106937	0.264572	0.000118
C30	C	1.195532	0.275558	0.000122
C31	C	0.988808	0.483838	0.000102
C32	C	1.009655	0.620574	0.000102
N33	N	0.955095	0.273804	0.205401
N34	N	0.970632	0.245104	-0.205194
C35	C	0.995642	0.198614	0.250801
C36	C	0.992220	0.204967	0.341609
C37	C	0.948255	0.286517	0.387014
C38	C	0.907702	0.361709	0.341608
C39	C	0.911120	0.355349	0.250802
C40	C	0.933497	0.313936	0.658594
C41	C	0.930084	0.320293	0.749406
C42	C	1.014601	0.163549	0.749400
C43	C	1.018019	0.157201	0.658593
C44	C	0.977463	0.232389	0.613194
N45	N	0.944758	0.293015	0.479834
N46	N	0.980956	0.225883	0.520376
H47	H	0.733959	0.444082	0.000072
C48	C	0.572863	0.455634	0.000105
N49	N	0.543637	0.543469	0.000123
H50	H	1.025236	0.143741	0.378573
C51	C	0.866522	0.438075	0.200863
N52	N	0.832930	0.500387	0.163249
H53	H	0.191760	0.074828	0.000126
C54	C	1.066380	0.067483	0.608653
N55	N	1.102806	-0.000093	0.571039
C56	C	1.061755	-0.107449	0.000119
N57	N	1.128134	-0.060426	0.000134
H58	H	1.047619	0.102333	0.786372
H59	H	0.365789	0.496940	0.000090
H60	H	0.900477	0.375160	0.621637
C61	C	1.097786	-0.317002	0.000113
N62	N	1.164165	-0.269983	0.000123
C63	C	0.863954	-0.373632	0.000088
N64	N	0.797575	-0.420654	0.000084
C65	C	0.859331	0.451403	0.391558
N66	N	0.822896	0.518962	0.429179
C67	C	0.881714	0.410005	0.799350
N68	N	0.845284	0.477572	0.836968
H69	H	1.031448	0.132213	0.213838
H70	H	0.214765	0.478198	0.000111
C71	C	0.352853	0.063273	0.000121
N72	N	0.382075	-0.024564	0.000121
C73	C	0.721035	0.010418	0.000089
N74	N	0.750263	-0.077414	0.000089
C75	C	0.546222	-0.011269	0.000106
N76	N	0.506481	-0.107653	0.000108
H77	H	0.850837	-0.147876	0.000084
