data_functionalizedCrystal
_audit_creation_method	'MofGen! by Chris Wilmer'
_symmetry_space_group_name_H-M	'P1'
_symmetry_Int_Tables_number	1
_symmetry_cell_setting	triclinic
loop_
_symmetry_equiv_pos_as_xyz
  x,y,z
_cell_length_a	15.944551
_cell_length_b	22.010155
_cell_length_c	15.944551
_cell_angle_alpha	89.996699
_cell_angle_beta	83.498738
_cell_angle_gamma	90.003973
loop_
_atom_site_label
_atom_site_type_symbol
_atom_site_fract_x
_atom_site_fract_y
_atom_site_fract_z
O1	O	1.114530	0.050463	0.108320
O2	O	1.614530	0.550463	0.608320
O3	O	0.869981	0.050478	0.121677
O4	O	1.369981	0.550478	0.621677
O5	O	0.998934	0.050465	-0.007276
O6	O	1.498934	0.550465	0.492724
O7	O	0.985577	0.050477	0.237273
O8	O	1.485577	0.550477	0.737273
O9	O	0.998910	-0.050585	-0.007257
O10	O	1.498910	0.449415	0.492743
O11	O	0.869957	-0.050572	0.121696
O12	O	1.369957	0.449428	0.621696
O13	O	1.114507	-0.050587	0.108340
O14	O	1.614507	0.449413	0.608340
Cu15	Cu	0.992230	-0.059806	0.115020
Cu16	Cu	1.492230	0.440194	0.615020
Cu17	Cu	0.992258	0.059697	0.114997
Cu18	Cu	1.492258	0.559697	0.614997
O19	O	0.985554	-0.050574	0.237293
O20	O	1.485554	0.449426	0.737293
C21	C	0.838675	-0.000045	0.121132
C22	C	1.338675	0.499955	0.621132
C23	C	0.745429	-0.000039	0.119470
C24	C	1.245429	0.499961	0.619470
N25	N	0.992217	-0.143859	0.115035
N26	N	1.492217	0.356141	0.615035
C27	C	0.530572	-0.000055	0.035565
C28	C	1.030572	0.499945	0.535565
C29	C	0.469564	0.049770	0.074518
C30	C	0.969564	0.549770	0.574518
C31	C	0.574703	-0.000047	0.116462
C32	C	1.074703	0.499953	0.616462
C33	C	0.469563	-0.049858	0.074556
C34	C	0.969563	0.450142	0.574556
C35	C	0.409790	-0.000056	0.113551
C36	C	0.909790	0.499944	0.613551
C37	C	0.514923	0.049820	0.155437
C38	C	1.014923	0.549820	0.655437
C39	C	0.514928	-0.049853	0.155464
C40	C	1.014928	0.450147	0.655464
C41	C	0.453937	-0.000016	0.194476
C42	C	0.953937	0.499984	0.694476
C43	C	0.669705	-0.000040	0.118137
C44	C	1.169705	0.499960	0.618137
C45	C	0.314789	-0.000058	0.111883
C46	C	0.814789	0.499942	0.611883
C47	C	1.049361	-0.563644	0.057905
C48	C	1.549361	-0.063644	0.557905
C49	C	1.049365	-0.627252	0.057899
C50	C	1.549365	-0.127252	0.557899
O51	O	1.097918	-0.660148	0.009335
O52	O	1.597918	-0.160148	0.509335
N53	N	0.992257	-0.659066	0.114979
N54	N	1.492257	-0.159066	0.614979
C55	C	0.935136	-0.627269	0.172063
C56	C	1.435136	-0.127269	0.672063
O57	O	0.886561	-0.660170	0.220614
O58	O	1.386561	-0.160170	0.720614
C59	C	0.935128	-0.563663	0.172064
C60	C	1.435128	-0.063663	0.672064
C61	C	0.992246	-0.531852	0.114986
C62	C	1.492246	-0.031852	0.614986
C63	C	1.106474	-0.531833	0.000830
C64	C	1.606474	-0.031833	0.500830
C65	C	1.106471	-0.468230	0.000837
C66	C	1.606471	0.031770	0.500837
C67	C	1.049355	-0.436438	0.057919
C68	C	1.549355	0.063562	0.557919
C69	C	0.992243	-0.468249	0.114993
C70	C	1.492243	0.031751	0.614993
C71	C	0.878004	-0.531867	0.229144
C72	C	1.378004	-0.031867	0.729144
C73	C	0.878001	-0.468256	0.229140
C74	C	1.378001	0.031744	0.729140
C75	C	0.935118	-0.436445	0.172061
C76	C	1.435118	0.063555	0.672061
C77	C	0.935125	-0.372853	0.172082
C78	C	1.435125	0.127147	0.672082
N79	N	0.992233	-0.341039	0.115001
N80	N	1.492233	0.158961	0.615001
C81	C	1.049348	-0.372831	0.057920
C82	C	1.549348	0.127169	0.557920
C83	C	0.935154	-0.760847	0.172056
C84	C	1.435154	-0.260847	0.672056
C85	C	0.935165	-0.824452	0.172059
C86	C	1.435165	-0.324452	0.672059
C87	C	1.049394	-0.824430	0.057893
C88	C	1.549394	-0.324430	0.557893
C89	C	1.049386	-0.760824	0.057895
C90	C	1.549386	-0.260824	0.557895
C91	C	0.992262	-0.729033	0.114975
C92	C	1.492262	-0.229033	0.614975
C93	C	1.049338	-0.239260	0.057939
C94	C	1.549338	0.260740	0.557939
C95	C	1.049332	-0.175651	0.057954
C96	C	1.549332	0.324349	0.557954
C97	C	0.935101	-0.175678	0.172116
C98	C	1.435101	0.324322	0.672116
C99	C	0.935109	-0.239282	0.172105
C100	C	1.435109	0.260718	0.672105
C101	C	0.992231	-0.271071	0.115010
C102	C	1.492231	0.228929	0.615010
O103	O	0.886594	-0.339916	0.220618
O104	O	1.386594	0.160084	0.720618
O105	O	1.097907	-0.339922	0.009370
O106	O	1.597907	0.160078	0.509370
C107	C	1.145813	-0.000063	0.108885
C108	C	1.645813	0.499937	0.608885
C109	C	1.239059	-0.000064	0.110547
C110	C	1.739059	0.499936	0.610547
C111	C	0.998367	-0.000060	-0.038561
C112	C	1.498367	0.499940	0.461439
C113	C	0.996705	-0.000061	-0.131807
C114	C	1.496705	0.499939	0.368193
N115	N	0.992278	0.143750	0.114975
N116	N	1.492278	0.643750	0.614975
C117	C	0.912801	-0.000047	-0.346663
C118	C	1.412801	0.499953	0.153337
C119	C	0.951752	-0.049873	-0.407671
C120	C	1.451752	0.450127	0.092329
C121	C	0.993698	-0.000056	-0.302533
C122	C	1.493698	0.499944	0.197467
C123	C	0.951794	0.049754	-0.407674
C124	C	1.451794	0.549754	0.092326
C125	C	0.990787	-0.000048	-0.467445
C126	C	1.490787	0.499952	0.032555
C127	C	1.032671	-0.049923	-0.362312
C128	C	1.532671	0.450077	0.137688
C129	C	1.032702	0.049749	-0.362308
C130	C	1.532702	0.549749	0.137692
C131	C	1.071711	-0.000089	-0.423298
C132	C	1.571711	0.499911	0.076702
C133	C	0.995372	-0.000061	-0.207530
C134	C	1.495372	0.499939	0.292470
C135	C	0.989119	-0.000048	-0.562446
C136	C	1.489119	0.499952	-0.062446
C137	C	0.986120	-0.000047	0.268577
C138	C	1.486120	0.499953	0.768577
C139	C	0.987782	-0.000043	0.361823
C140	C	1.487782	0.499957	0.861823
H141	H	0.449463	0.091890	0.040294
H142	H	0.949463	0.591890	0.540294
H143	H	0.888607	-0.265183	0.218592
H144	H	1.388607	0.234817	0.718592
O145	O	1.160759	-0.000100	-0.467159
O146	O	1.660759	0.499900	0.032841
H147	H	1.170935	0.041289	-0.506778
H148	H	1.670935	0.541289	-0.006778
O149	O	1.111000	-0.858731	-0.003671
O150	O	1.611000	-0.358731	0.496329
H151	H	1.150723	-0.825929	-0.043359
H152	H	1.650723	-0.325929	0.456641
O153	O	0.906426	-0.105670	-0.434298
O154	O	1.406426	0.394330	0.065702
H155	H	0.840484	-0.105566	-0.403310
H156	H	1.340484	0.394434	0.096690
O157	O	1.077946	-0.105786	-0.335838
O158	O	1.577946	0.394214	0.164162
H159	H	1.034330	-0.132970	-0.291399
H160	H	1.534330	0.367030	0.208601
H161	H	1.095847	-0.149753	0.011474
H162	H	1.595847	0.350247	0.511474
O163	O	0.442947	-0.105659	0.029237
O164	O	0.942947	0.394341	0.529237
H165	H	0.473951	-0.105553	-0.036700
H166	H	0.973951	0.394447	0.463300
O167	O	0.873498	-0.141371	0.233667
O168	O	1.373498	0.358629	0.733667
H169	H	0.884190	-0.153567	0.299163
H170	H	1.384190	0.346433	0.799163
O171	O	0.823861	-0.000111	-0.302532
O172	O	1.323861	0.499889	0.197468
H173	H	0.825888	0.000314	-0.233181
H174	H	1.325888	0.500314	0.266819
H175	H	0.420779	0.000015	0.261683
H176	H	0.920779	0.500015	0.761683
O177	O	1.078000	0.105541	-0.335639
O178	O	1.578000	0.605541	0.164361
H179	H	1.044298	0.146843	-0.353593
H180	H	1.544298	0.646843	0.146407
O181	O	0.906475	0.105554	-0.434294
O182	O	1.406475	0.605554	0.065706
H183	H	0.840538	0.105449	-0.403291
H184	H	1.340538	0.605449	0.096709
H185	H	0.535050	-0.091975	0.189660
H186	H	1.035050	0.408025	0.689660
O187	O	0.541420	0.105681	0.200700
O188	O	1.041420	0.605681	0.700700
H189	H	0.509939	0.105818	0.266454
H190	H	1.009939	0.605818	0.766454
H191	H	1.152978	-0.442333	-0.045643
H192	H	1.652978	0.057667	0.454357
O193	O	0.574659	-0.000019	-0.053393
O194	O	1.074659	0.499981	0.446607
H195	H	0.556600	0.041394	-0.086788
H196	H	1.056600	0.541394	0.413212
H197	H	1.152984	-0.557713	-0.045656
H198	H	1.652984	-0.057713	0.454344
O199	O	1.110956	-0.273543	-0.003630
O200	O	1.610956	0.226457	0.496370
H201	H	1.150671	-0.240729	-0.043303
H202	H	1.650671	0.259271	0.456697
O203	O	1.110982	-0.726514	-0.003675
O204	O	1.610982	-0.226514	0.496325
H205	H	1.150692	-0.759314	-0.043368
H206	H	1.650692	-0.259314	0.456632
H207	H	0.888663	-0.850348	0.218547
H208	H	1.388663	-0.350348	0.718547
H209	H	0.888639	-0.734966	0.218545
H210	H	1.388639	-0.234966	0.718545
O211	O	0.816414	-0.566154	0.290741
O212	O	1.316414	-0.066154	0.790741
H213	H	0.750933	-0.553952	0.280008
H214	H	1.250933	-0.053952	0.780008
O215	O	0.816392	-0.433966	0.290711
O216	O	1.316392	0.066034	0.790711
H217	H	0.776686	-0.466776	0.330401
H218	H	1.276686	0.033224	0.830401
