data_functionalizedCrystal
_audit_creation_method	'MofGen! by Chris Wilmer'
_symmetry_space_group_name_H-M	'P1'
_symmetry_Int_Tables_number	1
_symmetry_cell_setting	triclinic
loop_
_symmetry_equiv_pos_as_xyz
  x,y,z
_cell_length_a	10.489741
_cell_length_b	14.519709
_cell_length_c	13.596369
_cell_angle_alpha	89.993066
_cell_angle_beta	90.002617
_cell_angle_gamma	95.890341
loop_
_atom_site_label
_atom_site_type_symbol
_atom_site_fract_x
_atom_site_fract_y
_atom_site_fract_z
O1	O	1.692699	-0.130116	0.081733
O2	O	1.321376	-0.142329	0.081748
O3	O	1.516882	-0.002038	0.081731
O4	O	1.497192	-0.270407	0.081750
O5	O	1.516863	-0.002030	-0.081851
O6	O	1.321356	-0.142322	-0.081834
O7	O	1.692679	-0.130108	-0.081850
Zn8	Zn	1.507015	-0.136214	-0.107814
Zn9	Zn	1.507040	-0.136224	0.107713
O10	O	1.497173	-0.270400	-0.081833
C11	C	1.273844	-0.141403	-0.000041
C12	C	1.132243	-0.138643	-0.000035
C13	C	1.065034	-0.049380	-0.000051
C14	C	0.972477	-0.091551	0.080605
C15	C	0.972491	-0.091565	-0.080675
C16	C	1.041551	-0.180851	0.080687
C17	C	1.041576	-0.180852	-0.080665
C18	C	0.949046	-0.223088	0.000010
C19	C	1.515955	0.032331	-0.000060
C20	C	1.513205	0.134727	-0.000061
C21	C	1.740211	-0.131035	-0.000058
C22	C	1.881812	-0.133794	-0.000057
N23	N	1.507006	-0.136206	-0.254906
C24	C	1.498100	-0.304768	-0.000039
C25	C	1.500850	-0.407165	-0.000032
C26	C	1.503082	0.509678	-0.000035
C27	C	1.505893	0.405355	-0.000042
C28	C	1.508143	0.322206	-0.000048
C29	C	1.510955	0.217876	-0.000054
C30	C	1.507039	-0.136225	-0.656197
C31	C	1.507026	-0.136223	-0.544546
C32	C	1.507023	-0.136216	-0.455555
C33	C	1.507009	-0.136213	-0.343897
N34	N	1.507059	-0.136224	0.254805
H35	H	1.071994	-0.218594	0.148952
O36	O	1.082187	-0.230828	-0.170990
H37	H	1.033863	-0.302509	-0.171610
O38	O	1.131765	0.047850	0.000009
H39	H	1.104256	0.084685	0.067050
O40	O	0.931901	-0.041531	0.170918
H41	H	0.978791	0.030562	0.170749
O42	O	0.882570	-0.320392	0.000055
H43	H	0.910232	-0.357217	0.067069
H44	H	0.941899	-0.053776	-0.148864
