data_functionalizedCrystal
_audit_creation_method	'MofGen! by Chris Wilmer'
_symmetry_space_group_name_H-M	'P1'
_symmetry_Int_Tables_number	1
_symmetry_cell_setting	triclinic
loop_
_symmetry_equiv_pos_as_xyz
  x,y,z
_cell_length_a	19.805407
_cell_length_b	12.827892
_cell_length_c	19.805399
_cell_angle_alpha	89.980369
_cell_angle_beta	90.024201
_cell_angle_gamma	89.983422
loop_
_atom_site_label
_atom_site_type_symbol
_atom_site_fract_x
_atom_site_fract_y
_atom_site_fract_z
Zn1	Zn	1.034778	0.416078	0.382841
Zn2	Zn	1.034711	0.590833	0.269668
Zn3	Zn	0.921593	0.416105	0.269656
Zn4	Zn	0.921575	0.590776	0.382806
O5	O	0.978164	0.503448	0.326243
O6	O	1.129486	0.439273	0.367848
O7	O	1.019685	0.567691	0.174950
O8	O	0.936643	0.269865	0.284680
O9	O	1.129437	0.567665	0.284700
O10	O	1.019800	0.269846	0.367836
O11	O	0.936578	0.439318	0.174941
O12	O	0.826874	0.439262	0.284646
O13	O	0.936612	0.567566	0.477527
O14	O	0.826860	0.567592	0.367776
O15	O	1.019782	0.439217	0.477553
O16	O	1.019667	0.737062	0.284666
O17	O	0.936546	0.737019	0.367788
C18	C	0.802308	0.503424	0.326207
C19	C	0.727076	0.503440	0.326207
C20	C	0.265296	0.570395	0.369504
C21	C	0.335984	0.570393	0.369490
C22	C	0.371315	0.503473	0.326269
C23	C	0.335953	0.436558	0.283055
C24	C	0.265266	0.436566	0.283066
C25	C	0.621026	0.436526	0.283007
C26	C	0.691718	0.436521	0.283001
C27	C	0.691745	0.570354	0.369431
C28	C	0.621058	0.570361	0.369442
C29	C	0.585702	0.503451	0.326226
C30	C	0.509054	0.503455	0.326241
C31	C	0.447962	0.503463	0.326257
C32	C	0.978116	0.774958	0.326240
C33	C	0.978157	0.891111	0.326261
C34	C	1.019336	0.942882	0.285177
C35	C	1.019379	1.062932	0.285198
C36	C	1.154707	0.503472	0.326279
C37	C	1.229939	0.503483	0.326295
C38	C	0.978202	0.503382	0.502785
C39	C	0.978218	0.503354	0.578017
C40	C	0.978226	1.230878	0.326269
C41	C	0.978238	1.114725	0.326301
C42	C	0.978165	0.503438	0.150387
C43	C	0.978280	0.503172	0.075155
C44	C	1.021526	0.436519	0.613376
C45	C	1.021533	0.436489	0.684065
C46	C	0.978235	0.503300	0.719393
C47	C	0.934923	0.570137	0.684030
C48	C	0.934913	0.570162	0.613342
C49	C	0.934961	0.570040	0.969103
C50	C	0.934975	0.570013	1.039795
C51	C	1.021581	0.436367	1.039825
C52	C	1.021571	0.436392	0.969138
C53	C	0.978257	0.503225	0.933781
C54	C	0.978249	0.503256	0.857132
C55	C	0.978246	0.503275	0.796040
H56	H	0.592295	0.624851	0.404639
H57	H	0.592248	0.382047	0.247816
H58	H	1.056831	0.381991	0.940377
C59	C	0.968818	1.013915	0.417244
C60	C	0.930606	0.951247	0.373768
H61	H	0.939459	1.051042	0.446570
H62	H	0.998244	0.971269	0.443180
H63	H	0.994656	1.061946	0.391464
H64	H	0.904771	0.903211	0.399548
H65	H	0.901168	0.993897	0.347829
H66	H	1.056787	0.382117	0.584617
H67	H	1.054561	0.898331	0.249990
C68	C	0.713493	0.747377	0.402221
C69	C	0.730608	0.643914	0.416933
H70	H	0.737481	0.792784	0.431550
H71	H	0.725054	0.762576	0.356733
H72	H	0.666337	0.756939	0.408413
H73	H	0.777764	0.634350	0.410735
H74	H	0.719052	0.628710	0.462432
H75	H	0.720482	0.382022	0.247804
C76	C	0.444298	0.377111	0.244664
C77	C	0.374786	0.362995	0.235547
H78	H	0.468269	0.331687	0.215337
H79	H	0.455864	0.447294	0.234679
H80	H	0.455902	0.361906	0.290158
H81	H	0.363181	0.378207	0.190054
H82	H	0.363215	0.292796	0.245527
C83	C	1.107151	0.304402	0.676994
C84	C	1.069143	0.363029	0.722931
H85	H	1.136547	0.259054	0.700990
H86	H	1.077670	0.264432	0.649420
H87	H	1.133021	0.349963	0.649427
H88	H	1.043269	0.317468	0.750495
H89	H	1.098628	0.403002	0.750517
H90	H	0.236535	0.624884	0.404703
H91	H	1.056848	0.381944	1.068622
C92	C	0.849349	0.702111	1.032669
C93	C	0.887373	0.643448	1.078630
H94	H	0.819961	0.747439	1.056646
H95	H	0.878819	0.742104	1.005104
H96	H	0.823469	0.656572	1.005094
H97	H	0.913257	0.688988	1.106202
H98	H	0.857899	0.603453	1.106206
H99	H	0.899666	0.624532	0.712800
H100	H	0.236479	0.382076	0.247883
C101	C	0.925492	0.710642	0.889608
C102	C	0.887349	0.643509	0.930250
H103	H	0.896094	0.755996	0.865620
H104	H	0.954974	0.750604	0.917186
H105	H	0.951268	0.670851	0.858446
H106	H	0.861577	0.683300	0.961416
H107	H	0.857855	0.603543	0.902670
C108	C	0.849323	0.702295	0.620408
C109	C	0.887319	0.643647	0.574473
H110	H	0.819945	0.747668	0.596411
H111	H	0.823441	0.656756	0.647969
H112	H	0.878818	0.742248	0.647989
H113	H	0.857825	0.603687	0.546895
H114	H	0.913203	0.689191	0.546901
H115	H	0.364769	0.624882	0.404673
H116	H	1.054632	1.107454	0.250023
H117	H	0.942979	1.070210	0.361474
