data_functionalizedCrystal
_audit_creation_method	'MofGen! by Chris Wilmer'
_symmetry_space_group_name_H-M	'P1'
_symmetry_Int_Tables_number	1
_symmetry_cell_setting	triclinic
loop_
_symmetry_equiv_pos_as_xyz
  x,y,z
_cell_length_a	17.640112
_cell_length_b	17.077402
_cell_length_c	17.077396
_cell_angle_alpha	90.030619
_cell_angle_beta	101.178573
_cell_angle_gamma	78.751909
loop_
_atom_site_label
_atom_site_type_symbol
_atom_site_fract_x
_atom_site_fract_y
_atom_site_fract_z
Zn1	Zn	1.208324	0.069651	-0.201631
Zn2	Zn	1.541657	0.402985	0.131703
Zn3	Zn	1.874990	0.736318	0.465036
Zn4	Zn	1.208235	0.200946	-0.070379
Zn5	Zn	1.541568	0.534279	0.262954
Zn6	Zn	1.874902	0.867613	0.596287
Zn7	Zn	1.076154	0.096244	-0.096872
Zn8	Zn	1.409487	0.429577	0.236462
Zn9	Zn	1.742821	0.762911	0.569795
Zn10	Zn	1.076117	0.227450	-0.228086
Zn11	Zn	1.409450	0.560784	0.105248
Zn12	Zn	1.742783	0.894117	0.438581
O13	O	1.142207	0.148573	-0.149242
O14	O	1.475541	0.481906	0.184092
O15	O	1.808874	0.815240	0.517425
O16	O	1.318917	0.064847	-0.162061
O17	O	1.652251	0.398180	0.171272
O18	O	1.985584	0.731513	0.504605
O19	O	1.190693	0.187094	0.035949
O20	O	1.524026	0.520427	0.369282
O21	O	1.857360	0.853761	0.702616
O22	O	1.093739	-0.017141	-0.110784
O23	O	1.427073	0.316192	0.222550
O24	O	1.760406	0.649526	0.555883
O25	O	1.318852	0.161308	-0.065632
O26	O	1.652186	0.494642	0.267702
O27	O	1.985519	0.827975	0.601035
O28	O	1.190844	-0.036679	-0.187750
O29	O	1.524177	0.296655	0.145584
O30	O	1.857510	0.629988	0.478917
O31	O	1.093654	0.110170	0.016485
O32	O	1.426987	0.443503	0.349819
O33	O	1.760320	0.776836	0.683152
O34	O	0.965544	0.135870	-0.136436
O35	O	1.298877	0.469203	0.196897
O36	O	1.632210	0.802537	0.530231
O37	O	1.093675	0.206481	-0.334419
O38	O	1.427009	0.539814	-0.001086
O39	O	1.760342	0.873148	0.332248
O40	O	0.965516	0.232267	-0.232839
O41	O	1.298850	0.565600	0.100495
O42	O	1.632183	0.898933	0.433828
O43	O	1.190807	0.090547	-0.314983
O44	O	1.524141	0.423880	0.018351
O45	O	1.857474	0.757214	0.351684
O46	O	1.190657	0.314319	-0.091284
O47	O	1.523990	0.647653	0.242049
O48	O	1.857323	0.980986	0.575383
O49	O	1.093590	0.333792	-0.207150
O50	O	1.426923	0.667125	0.126183
O51	O	1.760256	1.000459	0.459517
C52	C	0.936851	0.189831	-0.190383
C53	C	1.270185	0.523164	0.142950
C54	C	1.603518	0.856497	0.476283
C55	C	0.848999	0.207500	-0.208002
C56	C	1.182332	0.540833	0.125331
C57	C	1.515666	0.874166	0.458664
C58	C	1.142131	0.352536	-0.149226
C59	C	1.475464	0.685869	0.184108
C60	C	1.808798	1.019203	0.517441
C61	C	1.142171	0.439778	-0.149231
C62	C	1.475504	0.773111	0.184103
C63	C	1.808837	1.106445	0.517436
C64	C	1.142247	0.148504	-0.353978
C65	C	1.475580	0.481837	-0.020645
C66	C	1.808914	0.815171	0.312688
C67	C	1.142264	0.148475	-0.441225
C68	C	1.475597	0.481808	-0.107891
C69	C	1.808931	0.815141	0.225442
C70	C	0.560026	0.014329	-0.015398
C71	C	0.893359	0.347662	0.317935
C72	C	1.226693	0.680995	0.651269
C73	C	0.477475	0.030948	-0.031965
C74	C	0.810809	0.364281	0.301369
C75	C	1.144142	0.697614	0.634702
C76	C	0.477501	0.131464	-0.132175
C77	C	0.810834	0.464797	0.201158
C78	C	1.144168	0.798130	0.534491
C79	C	0.560053	0.114851	-0.115620
C80	C	0.893387	0.448184	0.217713
C81	C	1.226720	0.781517	0.551047
C82	C	0.601309	0.056283	-0.057230
C83	C	0.934643	0.389616	0.276103
C84	C	1.267976	0.722950	0.609437
C85	C	0.601337	0.156805	-0.157452
C86	C	0.934670	0.490138	0.175881
C87	C	1.268003	0.823472	0.509215
C88	C	0.683882	0.140196	-0.140895
C89	C	1.017215	0.473529	0.192439
C90	C	1.350548	0.806863	0.525772
C91	C	0.725143	0.081633	-0.082506
C92	C	1.058477	0.414966	0.250828
C93	C	1.391810	0.748299	0.584161
C94	C	0.683854	0.039674	-0.040673
C95	C	1.017188	0.373007	0.292661
C96	C	1.350521	0.706341	0.625994
C97	C	0.560079	0.215376	-0.215838
C98	C	0.893412	0.548709	0.117496
C99	C	1.226746	0.882043	0.450829
C100	C	0.601362	0.257330	-0.257669
C101	C	0.934696	0.590664	0.075664
C102	C	1.268029	0.923997	0.408997
C103	C	0.683909	0.240718	-0.241117
C104	C	1.017242	0.574051	0.092217
C105	C	1.350576	0.907384	0.425550
C106	C	0.725171	0.182154	-0.182728
C107	C	1.058504	0.515488	0.150606
C108	C	1.391837	0.848821	0.483939
C109	C	0.725198	0.282676	-0.282949
C110	C	1.058531	0.616010	0.050384
C111	C	1.391865	0.949343	0.383717
C112	C	0.807743	0.266067	-0.266392
C113	C	1.141076	0.599401	0.066941
C114	C	1.474410	0.932734	0.400274
C115	C	0.807716	0.165545	-0.166170
C116	C	1.141049	0.498879	0.167163
C117	C	1.474382	0.832212	0.500496
C118	C	1.348365	0.107155	-0.107940
C119	C	1.681699	0.440488	0.225393
C120	C	2.015032	0.773821	0.558726
C121	C	1.436218	0.089505	-0.090340
C122	C	1.769551	0.422838	0.242993
C123	C	2.102884	0.756171	0.576327
C124	C	1.142305	-0.056191	-0.149271
C125	C	1.475639	0.277142	0.184063
C126	C	1.808972	0.610476	0.517396
C127	C	1.142347	-0.143449	-0.149283
C128	C	1.475681	0.189884	0.184050
C129	C	1.809014	0.523217	0.517384
C130	C	1.192765	0.470592	-0.088943
C131	C	1.526098	0.803926	0.244391
C132	C	1.859432	1.137259	0.577724
C133	C	1.192804	0.552565	-0.088955
C134	C	1.526137	0.885898	0.244378
C135	C	1.859470	1.219232	0.577712
C136	C	1.142243	0.603723	-0.149253
C137	C	1.475577	0.937056	0.184081
C138	C	1.808910	1.270389	0.517414
C139	C	1.091647	0.572903	-0.209547
C140	C	1.424980	0.906236	0.123787
C141	C	1.758314	1.239570	0.457120
C142	C	1.091613	0.490931	-0.209537
C143	C	1.424946	0.824264	0.123796
C144	C	1.758279	1.157598	0.457130
C145	C	1.091720	0.743758	-0.209562
C146	C	1.425053	1.077092	0.123771
C147	C	1.758387	1.410425	0.457105
C148	C	1.091753	0.825736	-0.209571
C149	C	1.425086	1.159070	0.123762
C150	C	1.758420	1.492403	0.457096
C151	C	1.192911	0.805392	-0.088980
C152	C	1.526244	1.138726	0.244353
C153	C	1.859578	1.472059	0.577687
C154	C	1.192877	0.723420	-0.088970
C155	C	1.526210	1.056754	0.244363
C156	C	1.859544	1.390087	0.577697
C157	C	1.142279	0.692606	-0.149263
C158	C	1.475612	1.025940	0.184070
C159	C	1.808946	1.359273	0.517403
C160	C	1.091751	0.108411	-0.492346
C161	C	1.425084	0.441745	-0.159013
C162	C	1.758418	0.775078	0.174321
C163	C	1.091764	0.108391	-0.574324
C164	C	1.425097	0.441724	-0.240991
C165	C	1.758431	0.775058	0.092343
C166	C	1.142294	0.148430	-0.605178
C167	C	1.475628	0.481763	-0.271845
C168	C	1.808961	0.815096	0.061489
C169	C	1.192810	0.188498	-0.554051
C170	C	1.526143	0.521832	-0.220717
C171	C	1.859476	0.855165	0.112616
C172	C	1.192792	0.188523	-0.472075
C173	C	1.526125	0.521856	-0.138742
C174	C	1.859459	0.855190	0.194591
C175	C	1.192844	0.188442	-0.724914
C176	C	1.526177	0.521776	-0.391581
C177	C	1.859510	0.855109	-0.058247
C178	C	1.192863	0.188417	-0.806895
C179	C	1.526196	0.521750	-0.473562
C180	C	1.859529	0.855083	-0.140228
C181	C	1.091816	0.108310	-0.827163
C182	C	1.425149	0.441644	-0.493829
C183	C	1.758482	0.774977	-0.160496
C184	C	1.091798	0.108335	-0.745187
C185	C	1.425131	0.441668	-0.411854
C186	C	1.758465	0.775002	-0.078520
C187	C	1.142315	0.148402	-0.694065
C188	C	1.475648	0.481736	-0.360732
C189	C	1.808981	0.815069	-0.027398
C190	C	1.142213	0.148576	0.054707
C191	C	1.475547	0.481909	0.388041
C192	C	1.808880	0.815242	0.721374
C193	C	1.142350	0.148353	0.141984
C194	C	1.475683	0.481686	0.475317
C195	C	1.809016	0.815020	0.808651
H196	H	0.841309	0.117842	-0.118635
H197	H	1.174642	0.451176	0.214698
H198	H	1.507975	0.784509	0.548032
H199	H	1.050655	0.075728	-0.720068
H200	H	1.383989	0.409061	-0.386735
H201	H	1.717322	0.742394	-0.053401
H202	H	1.050597	0.867385	-0.258683
H203	H	1.383930	1.200718	0.074651
H204	H	1.717264	1.534051	0.407984
Cl205	Cl	1.256325	0.406288	-0.013131
Cl206	Cl	1.589659	0.739621	0.320202
Cl207	Cl	1.922992	1.072955	0.653536
H208	H	0.792357	0.068112	-0.069024
H209	H	1.125690	0.401446	0.264309
H210	H	1.459023	0.734779	0.597642
H211	H	0.492866	0.228897	-0.229316
H212	H	0.826199	0.562231	0.104017
H213	H	1.159532	0.895564	0.437350
Cl214	Cl	0.735725	-0.033961	0.032728
Cl215	Cl	1.069059	0.299373	0.366061
Cl216	Cl	1.402392	0.632706	0.699395
Cl217	Cl	1.256392	0.238746	-0.845681
Cl218	Cl	1.589726	0.572079	-0.512348
Cl219	Cl	1.923059	0.905413	-0.179014
Cl220	Cl	1.028311	0.057938	-0.891429
Cl221	Cl	1.361644	0.391271	-0.558096
Cl222	Cl	1.694977	0.724605	-0.224763
H223	H	1.050483	0.614562	-0.258645
H224	H	1.383817	0.947895	0.074688
H225	H	1.717150	1.281228	0.408022
Cl226	Cl	1.256348	0.238817	-0.660648
Cl227	Cl	1.589682	0.572151	-0.327315
Cl228	Cl	1.923015	0.905484	0.006019
H229	H	0.841357	0.300230	-0.300457
H230	H	1.174690	0.633563	0.032876
H231	H	1.508023	0.966897	0.366210
Cl232	Cl	1.256293	0.238895	-0.407808
Cl233	Cl	1.589627	0.572228	-0.074475
Cl234	Cl	1.922960	0.905561	0.258858
H235	H	0.593619	-0.033374	0.032137
H236	H	0.926952	0.299959	0.365471
H237	H	1.260286	0.633292	0.698804
Cl238	Cl	0.425579	-0.021796	0.020637
Cl239	Cl	0.758912	0.311537	0.353970
Cl240	Cl	1.092245	0.644870	0.687303
Cl241	Cl	1.256329	0.238839	-0.592840
Cl242	Cl	1.589663	0.572172	-0.259507
Cl243	Cl	1.922996	0.905506	0.073827
H244	H	0.443899	0.179152	-0.179714
H245	H	0.777232	0.512485	0.153619
H246	H	1.110566	0.845818	0.486952
H247	H	0.567761	0.305018	-0.305208
H248	H	0.901094	0.638352	0.028125
H249	H	1.234427	0.971685	0.361458
Cl250	Cl	0.673324	0.356316	-0.356336
Cl251	Cl	1.006657	0.689649	-0.023002
Cl252	Cl	1.339990	1.022982	0.310331
H253	H	1.050415	0.465844	-0.258630
H254	H	1.383748	0.799177	0.074703
H255	H	1.717081	1.132510	0.408036
Cl256	Cl	1.256414	0.591298	-0.013163
Cl257	Cl	1.589747	0.924632	0.320171
Cl258	Cl	1.923080	1.257965	0.653504
H259	H	1.234043	0.681768	-0.039868
H260	H	1.567376	1.015101	0.293465
H261	H	1.900709	1.348434	0.626798
H262	H	1.050521	0.718673	-0.258661
H263	H	1.383854	1.052006	0.074672
H264	H	1.717187	1.385340	0.408005
Cl265	Cl	1.256512	0.844130	-0.013177
Cl266	Cl	1.589845	1.177464	0.320157
Cl267	Cl	1.923179	1.510797	0.653490
Cl268	Cl	1.028227	0.058069	-0.453566
Cl269	Cl	1.361560	0.391402	-0.120232
Cl270	Cl	1.694894	0.724736	0.213101
H271	H	1.050628	0.075771	-0.615945
H272	H	1.383961	0.409104	-0.282611
H273	H	1.717295	0.742437	0.050722
