data_functionalizedCrystal
_audit_creation_method	'MofGen! by Chris Wilmer'
_symmetry_space_group_name_H-M	'P1'
_symmetry_Int_Tables_number	1
_symmetry_cell_setting	triclinic
loop_
_symmetry_equiv_pos_as_xyz
  x,y,z
_cell_length_a	17.077404
_cell_length_b	18.215405
_cell_length_c	17.077396
_cell_angle_alpha	89.971420
_cell_angle_beta	89.980499
_cell_angle_gamma	90.022957
loop_
_atom_site_label
_atom_site_type_symbol
_atom_site_fract_x
_atom_site_fract_y
_atom_site_fract_z
Zn1	Zn	1.200055	-0.292980	-0.443842
Zn2	Zn	1.533389	0.040353	-0.110509
Zn3	Zn	1.866722	0.373687	0.222824
Zn4	Zn	1.199963	-0.416053	-0.312576
Zn5	Zn	1.533296	-0.082720	0.020757
Zn6	Zn	1.866630	0.250613	0.354091
Zn7	Zn	1.068787	-0.293006	-0.312590
Zn8	Zn	1.402121	0.040328	0.020743
Zn9	Zn	1.735454	0.373661	0.354077
Zn10	Zn	1.068756	-0.416010	-0.443800
Zn11	Zn	1.402089	-0.082676	-0.110466
Zn12	Zn	1.735422	0.250657	0.222867
O13	O	1.134390	-0.354512	-0.378202
O14	O	1.467724	-0.021179	-0.044869
O15	O	1.801057	0.312155	0.288465
O16	O	1.309890	-0.309313	-0.426441
O17	O	1.643223	0.024020	-0.093108
O18	O	1.976557	0.357353	0.240225
O19	O	1.182537	-0.399760	-0.202731
O20	O	1.515870	-0.066427	0.130602
O21	O	1.849203	0.266907	0.463936
O22	O	1.086252	-0.190018	-0.330025
O23	O	1.419586	0.143315	0.003309
O24	O	1.752919	0.476649	0.336642
O25	O	1.309822	-0.399735	-0.330001
O26	O	1.643155	-0.066402	0.003333
O27	O	1.976489	0.266932	0.336666
O28	O	1.182694	-0.189999	-0.426455
O29	O	1.516028	0.143334	-0.093122
O30	O	1.849361	0.476668	0.240212
O31	O	1.086163	-0.309357	-0.202741
O32	O	1.419496	0.023976	0.130592
O33	O	1.752829	0.357309	0.463925
O34	O	0.958936	-0.309315	-0.329983
O35	O	1.292270	0.024018	0.003350
O36	O	1.625603	0.357352	0.336683
O37	O	1.086198	-0.399660	-0.553652
O38	O	1.419532	-0.066327	-0.220319
O39	O	1.752865	0.267006	0.113015
O40	O	0.958913	-0.399685	-0.426382
O41	O	1.292246	-0.066352	-0.093049
O42	O	1.625580	0.266981	0.240284
O43	O	1.182664	-0.309271	-0.553683
O44	O	1.515997	0.024062	-0.220350
O45	O	1.849330	0.357396	0.112983
O46	O	1.182506	-0.519032	-0.329959
O47	O	1.515839	-0.185698	0.003374
O48	O	1.849173	0.147635	0.336707
O49	O	1.086109	-0.519000	-0.426369
O50	O	1.419442	-0.185666	-0.093035
O51	O	1.752775	0.147667	0.240298
C52	C	0.930442	-0.354499	-0.378180
C53	C	1.263776	-0.021165	-0.044847
C54	C	1.597109	0.312168	0.288486
C55	C	0.843193	-0.354511	-0.378190
C56	C	1.176526	-0.021177	-0.044856
C57	C	1.509859	0.312156	0.288477
C58	C	0.802211	-0.401638	-0.428304
C59	C	1.135544	-0.068304	-0.094971
C60	C	1.468878	0.265029	0.238363
C61	C	0.720230	-0.401639	-0.428317
C62	C	1.053564	-0.068306	-0.094983
C63	C	1.386897	0.265027	0.238350
C64	C	0.679233	-0.354517	-0.378210
C65	C	1.012567	-0.021184	-0.044877
C66	C	1.345900	0.312150	0.288456
C67	C	0.720221	-0.307385	-0.328094
C68	C	1.053554	0.025948	0.005240
C69	C	1.386887	0.359282	0.338573
C70	C	0.802200	-0.307380	-0.328086
C71	C	1.135533	0.025953	0.005248
C72	C	1.468866	0.359286	0.338581
C73	C	0.549351	-0.307400	-0.328112
C74	C	0.882684	0.025934	0.005221
C75	C	1.216017	0.359267	0.338554
C76	C	0.467366	-0.307405	-0.328119
C77	C	0.800699	0.025928	0.005214
C78	C	1.134033	0.359262	0.338547
C79	C	0.467381	-0.401659	-0.428344
C80	C	0.800715	-0.068325	-0.095010
C81	C	1.134048	0.265008	0.238323
C82	C	0.549360	-0.401654	-0.428336
C83	C	0.882694	-0.068320	-0.095002
C84	C	1.216027	0.265013	0.238331
C85	C	0.590342	-0.354522	-0.378218
C86	C	0.923676	-0.021189	-0.044884
C87	C	1.257009	0.312144	0.288449
C88	C	1.134315	-0.545718	-0.378175
C89	C	1.467648	-0.212385	-0.044842
C90	C	1.800982	0.120948	0.288492
C91	C	1.134355	-0.627517	-0.378190
C92	C	1.467688	-0.294184	-0.044856
C93	C	1.801021	0.039149	0.288477
C94	C	1.184596	-0.815640	-0.428469
C95	C	1.517929	-0.482307	-0.095135
C96	C	1.851263	-0.148974	0.238198
C97	C	1.184625	-0.892499	-0.428484
C98	C	1.517958	-0.559166	-0.095150
C99	C	1.851291	-0.225832	0.238183
C100	C	1.084282	-0.892632	-0.327984
C101	C	1.417615	-0.559299	0.005350
C102	C	1.750948	-0.225965	0.338683
C103	C	1.084250	-0.815775	-0.327974
C104	C	1.417583	-0.482441	0.005360
C105	C	1.750916	-0.149108	0.338693
C106	C	1.134411	-0.777281	-0.378215
C107	C	1.467745	-0.443947	-0.044882
C108	C	1.801078	-0.110614	0.288452
C109	C	1.134472	-0.930997	-0.378240
C110	C	1.467805	-0.597663	-0.044906
C111	C	1.801138	-0.264330	0.288427
C112	C	1.134502	-1.014330	-0.378255
C113	C	1.467836	-0.680997	-0.044922
C114	C	1.801169	-0.347664	0.288411
C115	C	1.134380	-0.693942	-0.378201
C116	C	1.467713	-0.360608	-0.044867
C117	C	1.801047	-0.027275	0.288466
C118	C	1.339135	-0.354526	-0.378224
C119	C	1.672468	-0.021193	-0.044891
C120	C	2.005801	0.312141	0.288443
C121	C	1.426384	-0.354532	-0.378234
C122	C	1.759718	-0.021199	-0.044900
C123	C	2.093051	0.312135	0.288433
C124	C	1.134438	-0.354458	-0.582946
C125	C	1.467771	-0.021125	-0.249613
C126	C	1.801104	0.312209	0.083720
C127	C	1.134458	-0.354435	-0.670196
C128	C	1.467791	-0.021101	-0.336863
C129	C	1.801125	0.312232	-0.003529
C130	C	1.134487	-0.162559	-0.378246
C131	C	1.467821	0.170774	-0.044913
C132	C	1.801154	0.504107	0.288420
C133	C	1.134529	-0.080760	-0.378265
C134	C	1.467862	0.252573	-0.044932
C135	C	1.801195	0.585906	0.288402
C136	C	1.184689	-0.307365	-0.711204
C137	C	1.518023	0.025968	-0.377871
C138	C	1.851356	0.359302	-0.044537
C139	C	1.184699	-0.307341	-0.793184
C140	C	1.518032	0.025993	-0.459851
C141	C	1.851366	0.359326	-0.126518
C142	C	1.134480	-0.354390	-0.834156
C143	C	1.467814	-0.021057	-0.500822
C144	C	1.801147	0.312277	-0.167489
C145	C	1.084243	-0.401462	-0.793142
C146	C	1.417577	-0.068129	-0.459809
C147	C	1.750910	0.265205	-0.126476
C148	C	1.084231	-0.401482	-0.711163
C149	C	1.417564	-0.068149	-0.377830
C150	C	1.750897	0.265185	-0.044497
C151	C	1.084275	-0.401418	-0.964012
C152	C	1.417608	-0.068084	-0.630679
C153	C	1.750942	0.265249	-0.297346
C154	C	1.084289	-0.401399	-1.045997
C155	C	1.417622	-0.068065	-0.712664
C156	C	1.750955	0.265268	-0.379330
C157	C	1.184743	-0.307276	-1.046034
C158	C	1.518077	0.026057	-0.712700
C159	C	1.851410	0.359391	-0.379367
C160	C	1.184730	-0.307296	-0.964055
C161	C	1.518064	0.026037	-0.630721
C162	C	1.851397	0.359370	-0.297388
C163	C	1.134494	-0.354369	-0.923047
C164	C	1.467828	-0.021036	-0.589713
C165	C	1.801161	0.312297	-0.256380
C166	C	1.134388	-0.354513	-0.174254
C167	C	1.467722	-0.021180	0.159079
C168	C	1.801055	0.312154	0.492413
C169	C	1.134520	-0.354329	-0.087005
C170	C	1.467853	-0.020995	0.246329
C171	C	1.801187	0.312338	0.579662
H172	H	0.686867	-0.440015	-0.469124
H173	H	1.020200	-0.106682	-0.135791
H174	H	1.353533	0.226651	0.197543
F175	F	0.423735	-0.257255	-0.274787
F176	F	0.757069	0.076078	0.058546
F177	F	1.090402	0.409411	0.391879
F178	F	1.238209	-0.257178	-1.089678
F179	F	1.571543	0.076156	-0.756344
F180	F	1.904876	0.409489	-0.423011
H181	H	1.225627	-0.268989	-0.930698
H182	H	1.558961	0.064345	-0.597365
H183	H	1.892294	0.397678	-0.264031
F184	F	0.592965	-0.257236	-0.274772
F185	F	0.926298	0.076098	0.058561
F186	F	1.259631	0.409431	0.391895
H187	H	1.043355	-0.439738	-0.930626
H188	H	1.376688	-0.106405	-0.597293
H189	H	1.710022	0.226929	-0.263960
F190	F	1.238189	-0.257268	-0.836824
F191	F	1.571522	0.076066	-0.503491
F192	F	1.904856	0.409399	-0.170158
F193	F	1.030834	-0.451468	-1.089600
F194	F	1.364167	-0.118134	-0.756267
F195	F	1.697501	0.215199	-0.422933
F196	F	0.845815	-0.257220	-0.274748
F197	F	1.179148	0.076113	0.058585
F198	F	1.512482	0.409447	0.391918
F199	F	0.423765	-0.451811	-0.481692
F200	F	0.757098	-0.118478	-0.148359
F201	F	1.090432	0.214855	0.184975
H202	H	1.043352	-0.439768	-0.826508
H203	H	1.376685	-0.106434	-0.493174
H204	H	1.710018	0.226899	-0.159841
F205	F	1.030766	-0.451578	-0.667520
F206	F	1.364099	-0.118245	-0.334187
F207	F	1.697432	0.215088	-0.000853
F208	F	1.030829	-0.774947	-0.274488
F209	F	1.364162	-0.441614	0.058845
F210	F	1.697495	-0.108280	0.392178
H211	H	0.835585	-0.440013	-0.469104
H212	H	1.168918	-0.106679	-0.135771
H213	H	1.502252	0.226654	0.197563
F214	F	0.592991	-0.451811	-0.481659
F215	F	0.926325	-0.118478	-0.148326
F216	F	1.259658	0.214855	0.185007
H217	H	1.225440	-0.784300	-0.469380
H218	H	1.558773	-0.450967	-0.136046
H219	H	1.892106	-0.117634	0.197287
F220	F	1.238144	-0.257291	-0.667606
F221	F	1.571477	0.076042	-0.334273
F222	F	1.904810	0.409375	-0.000940
H223	H	0.686834	-0.269014	-0.287299
H224	H	1.020168	0.064319	0.046034
H225	H	1.353501	0.397652	0.379367
H226	H	1.043443	-0.923983	-0.287078
H227	H	1.376777	-0.590650	0.046256
H228	H	1.710110	-0.257316	0.379589
F229	F	1.238034	-0.933321	-0.481974
F230	F	1.571368	-0.599987	-0.148641
F231	F	1.904701	-0.266654	0.184692
