data_functionalizedCrystal
_audit_creation_method	'MofGen! by Chris Wilmer'
_symmetry_space_group_name_H-M	'P1'
_symmetry_Int_Tables_number	1
_symmetry_cell_setting	triclinic
loop_
_symmetry_equiv_pos_as_xyz
  x,y,z
_cell_length_a	17.077404
_cell_length_b	17.639999
_cell_length_c	17.077396
_cell_angle_alpha	101.226563
_cell_angle_beta	89.981638
_cell_angle_gamma	101.196076
loop_
_atom_site_label
_atom_site_type_symbol
_atom_site_fract_x
_atom_site_fract_y
_atom_site_fract_z
Zn1	Zn	1.263267	0.314709	-0.380706
Zn2	Zn	1.289725	0.446890	-0.222931
Zn3	Zn	1.132004	0.314731	-0.249452
Zn4	Zn	1.158507	0.446838	-0.354168
O5	O	1.210876	0.380792	-0.301814
O6	O	1.376626	0.332255	-0.359784
O7	O	1.268783	0.429390	-0.116596
O8	O	1.127252	0.204123	-0.289068
O9	O	1.396064	0.429368	-0.243868
O10	O	1.223691	0.204106	-0.385499
O11	O	1.152906	0.332294	-0.136080
O12	O	1.025670	0.332243	-0.263335
O13	O	1.172423	0.429280	-0.467541
O14	O	1.045142	0.429302	-0.340270
O15	O	1.249390	0.332205	-0.487039
O16	O	1.294482	0.557489	-0.218135
O17	O	1.198077	0.557451	-0.314554
C18	C	1.006923	0.380770	-0.301801
C19	C	0.919675	0.380779	-0.301810
C20	C	0.868583	0.330302	-0.362226
C21	C	0.786603	0.330307	-0.362229
C22	C	0.755719	0.380794	-0.301818
C23	C	0.806818	0.431273	-0.241396
C24	C	0.888795	0.431263	-0.241391
C25	C	0.635951	0.431291	-0.241412
C26	C	0.553969	0.431302	-0.241417
C27	C	0.533760	0.330335	-0.362250
C28	C	0.615737	0.330325	-0.362245
C29	C	0.666830	0.380806	-0.301823
C30	C	1.252048	0.586148	-0.260604
C31	C	1.269733	0.674001	-0.243001
C32	C	1.076720	0.962973	-0.435814
C33	C	1.093340	1.045524	-0.419248
C34	C	1.193789	1.045498	-0.318948
C35	C	1.177180	0.962946	-0.335509
C36	C	1.118645	0.921690	-0.393942
C37	C	1.219105	0.921663	-0.293637
C38	C	1.202494	0.839118	-0.310193
C39	C	1.143959	0.797856	-0.368622
C40	C	1.102034	0.839145	-0.410498
C41	C	1.277636	0.962921	-0.235200
C42	C	1.319560	0.921637	-0.193328
C43	C	1.302954	0.839091	-0.209888
C44	C	1.244420	0.797829	-0.268316
C45	C	1.344880	0.797802	-0.168011
C46	C	1.328269	0.715257	-0.184568
C47	C	1.227809	0.715284	-0.284873
C48	C	1.415624	0.380815	-0.301828
C49	C	1.502876	0.380825	-0.301833
C50	C	1.169539	1.174634	-0.343199
C51	C	1.151861	1.086782	-0.360825
C52	C	1.210911	0.380734	-0.506570
C53	C	1.210927	0.380709	-0.593825
C54	C	1.251004	0.330158	-0.644969
C55	C	1.251009	0.330132	-0.726955
C56	C	1.210939	0.380661	-0.757794
C57	C	1.170856	0.431214	-0.706643
C58	C	1.170848	0.431236	-0.624660
C59	C	1.170878	0.431167	-0.877523
C60	C	1.170888	0.431146	-0.959512
C61	C	1.251039	0.330063	-0.979818
C62	C	1.251031	0.330084	-0.897835
C63	C	1.210949	0.380639	-0.846690
C64	C	1.210874	0.380793	-0.097866
C65	C	1.210966	0.380595	-0.010656
H66	H	0.781665	0.472376	-0.192205
H67	H	0.930394	0.472366	-0.192193
C68	C	0.649707	0.274786	-0.428699
N69	N	0.675293	0.232950	-0.478751
C70	C	1.295129	0.274451	-1.036080
N71	N	1.328339	0.232569	-1.078459
C72	C	1.126789	0.486783	-0.821264
N73	N	1.093587	0.528675	-0.778889
C74	C	0.692153	0.486825	-0.174946
N75	N	0.734485	0.528655	-0.124888
H76	H	0.492155	0.289231	-0.411446
C77	C	0.519998	0.486838	-0.174961
N78	N	0.494411	0.528669	-0.124905
C79	C	1.037631	0.793759	-0.474768
N80	N	0.989119	0.759574	-0.523167
C81	C	1.163406	0.669898	-0.349142
N82	N	1.114894	0.635713	-0.397541
H83	H	1.291160	1.030134	-0.221724
C84	C	1.258173	1.090889	-0.254671
N85	N	1.306669	1.125077	-0.206256
C86	C	1.012317	0.917587	-0.500083
N87	N	0.963805	0.883402	-0.548482
H88	H	1.130431	0.730643	-0.382095
H89	H	1.138203	0.472392	-0.583020
C90	C	1.409259	0.843195	-0.103729
N91	N	1.457749	0.877384	-0.055309
H92	H	1.283637	0.289014	-0.619867
H93	H	0.893722	0.289192	-0.411422
C94	C	1.047219	1.090933	-0.465320
N95	N	1.012481	1.125135	-0.500021
H96	H	1.367218	0.955239	-0.145749
H97	H	1.138228	0.472353	-0.731759
C98	C	1.374395	0.669842	-0.138512
N99	N	1.409138	0.635636	-0.103823
C100	C	1.295099	0.274523	-0.783211
N101	N	1.328310	0.232636	-0.825583
H102	H	1.283664	0.288943	-0.872728
H103	H	1.138258	0.472290	-0.984618
H104	H	0.745006	0.289206	-0.411427
