data_functionalizedCrystal
_audit_creation_method	'MofGen! by Chris Wilmer'
_symmetry_space_group_name_H-M	'P1'
_symmetry_Int_Tables_number	1
_symmetry_cell_setting	triclinic
loop_
_symmetry_equiv_pos_as_xyz
  x,y,z
_cell_length_a	17.639617
_cell_length_b	18.101397
_cell_length_c	17.639252
_cell_angle_alpha	101.219366
_cell_angle_beta	109.659138
_cell_angle_gamma	101.204936
loop_
_atom_site_label
_atom_site_type_symbol
_atom_site_fract_x
_atom_site_fract_y
_atom_site_fract_z
Zn1	Zn	1.354220	0.097714	0.721220
Zn2	Zn	1.326284	-0.057493	0.583368
Zn3	Zn	1.188548	0.035008	0.555492
Zn4	Zn	1.216348	-0.057457	0.693245
O5	O	1.271350	0.004443	0.638331
O6	O	1.465857	0.103354	0.726307
O7	O	1.284687	-0.071480	0.464329
O8	O	1.210581	0.146977	0.577518
O9	O	1.445333	-0.010676	0.625028
O10	O	1.332299	0.193047	0.699277
O11	O	1.183493	-0.003520	0.443848
O12	O	1.076893	-0.003486	0.550392
O13	O	1.257963	-0.010616	0.812298
O14	O	1.097318	-0.071420	0.651599
O15	O	1.359257	0.103388	0.832851
O16	O	1.311645	-0.161139	0.597902
O17	O	1.230875	-0.161113	0.678629
C18	C	1.057198	-0.044254	0.594935
C19	C	0.965587	-0.065100	0.576390
C20	C	0.717765	0.162871	0.779423
C21	C	0.631679	0.143261	0.761980
C22	C	0.610299	0.024644	0.656366
C23	C	0.696385	0.044243	0.673803
C24	C	0.750112	0.113358	0.735332
C25	C	0.728732	-0.005270	0.629712
C26	C	0.814810	0.014329	0.647144
C27	C	0.868542	0.083442	0.708668
C28	C	0.836190	0.132957	0.752764
C29	C	0.675003	-0.074382	0.568179
C30	C	0.707350	-0.123895	0.524088
C31	C	0.793430	-0.104299	0.541525
C32	C	0.847162	-0.035186	0.603049
C33	C	0.825782	-0.153815	0.497429
C34	C	0.911860	-0.134215	0.514861
C35	C	0.933240	-0.015587	0.620481
C36	C	1.271271	-0.187993	0.638277
C37	C	1.271319	-0.270294	0.638297
C38	C	1.271439	-0.569344	0.638393
C39	C	1.322045	-0.538084	0.587396
C40	C	1.322298	-0.452377	0.587606
C41	C	1.271379	-0.420982	0.638345
C42	C	1.312476	-0.426881	0.729990
C43	C	1.312897	-0.512493	0.729742
C44	C	1.179719	-0.562753	0.598463
C45	C	1.179758	-0.477447	0.596611
C46	C	1.271345	-0.337133	0.638322
C47	C	1.271477	-0.653191	0.638422
C48	C	1.486338	0.053330	0.681897
C49	C	1.577953	0.074162	0.700462
C50	C	1.314827	0.053385	0.853317
C51	C	1.333354	0.074241	0.944931
C52	C	1.271455	0.197639	0.638408
C53	C	1.271500	0.279968	0.638441
C54	C	1.130630	-0.153944	1.192742
C55	C	1.148056	-0.134333	1.278831
C56	C	1.253524	-0.015631	1.300220
C57	C	1.236104	-0.035230	1.214131
C58	C	1.174656	-0.104388	1.160398
C59	C	1.280130	0.014326	1.181787
C60	C	1.262714	-0.005274	1.095705
C61	C	1.201271	-0.074430	1.041968
C62	C	1.157240	-0.123988	1.074317
C63	C	1.341581	0.083480	1.235522
C64	C	1.385608	0.133036	1.203178
C65	C	1.368187	0.113440	1.117094
C66	C	1.306745	0.044284	1.063357
C67	C	1.412218	0.162998	1.084745
C68	C	1.394802	0.143398	0.998664
C69	C	1.289328	0.024685	0.977275
C70	C	1.228032	-0.044329	1.424180
C71	C	1.209493	-0.065192	1.332563
H72	H	0.879939	0.189236	0.802870
N73	N	1.478488	0.237587	1.142705
H74	H	1.503735	0.266008	1.109152
H75	H	1.523843	0.224240	1.186133
H76	H	0.976989	0.040691	0.670587
N77	N	0.649406	-0.198442	0.457732
H78	H	0.652477	-0.196854	0.401896
H79	H	0.589994	-0.203308	0.453447
N80	N	1.442305	0.196842	0.963786
H81	H	1.473261	0.167284	0.935809
H82	H	1.483829	0.243609	1.010936
N83	N	0.946752	-0.187616	0.467304
H84	H	0.934341	-0.241069	0.476965
H85	H	1.009424	-0.164644	0.487706
H86	H	1.355761	0.099435	1.305614
N87	N	1.411063	-0.542758	0.623919
H88	H	1.422852	-0.577866	0.579819
H89	H	1.418696	-0.565018	0.673365
H90	H	1.303557	0.040675	1.343981
N91	N	0.961389	0.104601	0.727498
H92	H	0.970709	0.110154	0.675193
H93	H	0.985111	0.061912	0.746777
H94	H	1.149088	-0.475763	0.529081
N95	N	0.552341	-0.049897	0.590010
H96	H	0.569885	-0.096528	0.605742
H97	H	0.555431	-0.048240	0.534199
H98	H	0.761514	0.219150	0.829529
N99	N	1.266165	-0.398698	0.782689
H100	H	1.293661	-0.403011	0.841337
H101	H	1.205898	-0.432065	0.756834
H102	H	1.080573	-0.210246	1.148985
N103	N	0.596790	0.196668	0.809539
H104	H	0.643890	0.243424	0.851161
H105	H	0.568780	0.167008	0.840390
H106	H	1.380462	-0.513623	0.761514
H107	H	1.294439	-0.576727	0.519838
N108	N	0.582162	-0.095520	0.549379
H109	H	0.564468	-0.147642	0.560222
H110	H	0.550056	-0.099368	0.488667
H111	H	0.782024	-0.210084	0.447327
N112	N	1.134694	-0.616637	0.510253
H113	H	1.117491	-0.584659	0.469782
H114	H	1.083166	-0.655473	0.506665
H115	H	1.138604	-0.457601	0.629618
N116	N	1.285559	-0.448440	0.498329
H117	H	1.269052	-0.502493	0.458483
H118	H	1.328672	-0.411475	0.487122
H119	H	1.187095	-0.090389	0.971876
H120	H	1.107183	-0.180290	1.030560
N121	N	1.401119	-0.373636	0.772310
H122	H	1.414801	-0.345643	0.732275
H123	H	1.441356	-0.405932	0.789031
N124	N	1.129483	-0.589844	0.647372
H125	H	1.165913	-0.606314	0.695157
H126	H	1.079607	-0.635841	0.609095
N127	N	1.411819	-0.401255	0.624452
H128	H	1.451270	-0.434371	0.640626
H129	H	1.420755	-0.358928	0.675833
H130	H	1.239272	-0.031617	0.933519
H131	H	1.112200	-0.174693	1.305160
N132	N	1.267459	-0.538466	0.783047
H133	H	1.247248	-0.494301	0.806605
H134	H	1.306928	-0.552883	0.830633
H135	H	1.435640	0.189343	1.246939
