data_functionalizedCrystal
_audit_creation_method	'MofGen! by Chris Wilmer'
_symmetry_space_group_name_H-M	'P1'
_symmetry_Int_Tables_number	1
_symmetry_cell_setting	triclinic
loop_
_symmetry_equiv_pos_as_xyz
  x,y,z
_cell_length_a	16.120530
_cell_length_b	16.120484
_cell_length_c	16.120256
_cell_angle_alpha	84.383827
_cell_angle_beta	90.128265
_cell_angle_gamma	89.832673
loop_
_atom_site_label
_atom_site_type_symbol
_atom_site_fract_x
_atom_site_fract_y
_atom_site_fract_z
Zn1	Zn	1.224986	0.422281	-0.554816
Zn2	Zn	1.724986	0.922281	-0.054816
Zn3	Zn	1.224882	0.554961	-0.422121
Zn4	Zn	1.724882	1.054961	0.077879
Zn5	Zn	1.093725	0.408193	-0.408058
Zn6	Zn	1.593725	0.908193	0.091942
Zn7	Zn	1.078879	0.554198	-0.554054
Zn8	Zn	1.578879	1.054198	-0.054054
O9	O	1.155618	0.484908	-0.484762
O10	O	1.655618	0.984908	0.015238
O11	O	1.341008	0.446097	-0.543418
O12	O	1.841008	0.946097	-0.043418
O13	O	1.213653	0.529915	-0.303622
O14	O	1.713653	1.029915	0.196378
O15	O	1.117394	0.293431	-0.421960
O16	O	1.617394	0.793431	0.078040
O17	O	1.340931	0.543577	-0.445927
O18	O	1.840931	1.043577	0.054073
O19	O	1.213831	0.303782	-0.529783
O20	O	1.713831	0.803782	-0.029783
O21	O	1.117293	0.422085	-0.293290
O22	O	1.617293	0.922085	0.206710
O23	O	0.975720	0.421345	-0.421221
O24	O	1.475720	0.921345	0.078779
O25	O	1.092090	0.542275	-0.670788
O26	O	1.592090	1.042275	-0.170788
O27	O	0.964812	0.528614	-0.528483
O28	O	1.464812	1.028614	-0.028483
O29	O	1.199435	0.445357	-0.671349
O30	O	1.699435	0.945357	-0.171349
O31	O	1.199257	0.671491	-0.445188
O32	O	1.699257	1.171491	0.054812
O33	O	1.091989	0.670930	-0.542119
O34	O	1.591989	1.170930	-0.042119
C35	C	1.144022	0.701453	-0.495116
C36	C	1.644022	1.201453	0.004884
C37	C	1.139136	0.794098	-0.499577
C38	C	1.639136	1.294098	0.000423
C39	C	0.940179	0.473368	-0.473243
C40	C	1.440179	0.973368	0.026757
C41	C	0.848012	0.468453	-0.468336
C42	C	1.348012	0.968453	0.031664
C43	C	1.144118	0.495303	-0.702156
C44	C	1.644118	0.995303	-0.202156
C45	C	1.139217	0.499732	-0.794796
C46	C	1.639217	0.999732	-0.294796
C47	C	0.679260	0.459459	-0.459384
C48	C	1.179260	0.959459	0.040616
C49	C	0.632809	0.510422	-0.510204
C50	C	1.132809	1.010422	-0.010204
C51	C	0.538910	0.505418	-0.505223
C52	C	1.038910	1.005418	-0.005223
C53	C	0.773168	0.464462	-0.464364
C54	C	1.273168	0.964462	0.035636
C55	C	1.371898	0.496494	-0.496326
C56	C	1.871898	0.996494	0.003674
C57	C	1.464063	0.501431	-0.501254
C58	C	1.964063	1.001431	-0.001254
C59	C	1.167280	0.267520	-0.474388
C60	C	1.667280	0.767520	0.025612
C61	C	1.172250	0.174881	-0.469967
C62	C	1.672250	0.674881	0.030033
C63	C	1.130219	0.963721	-0.507739
C64	C	1.630219	1.463721	-0.007739
C65	C	1.181165	1.005263	-0.461807
C66	C	1.681165	1.505263	0.038193
C67	C	1.176203	1.099648	-0.466348
C68	C	1.676203	1.599648	0.033652
C69	C	1.135179	0.869328	-0.503199
C70	C	1.635179	1.369328	-0.003199
C71	C	1.181174	0.461788	-1.005960
C72	C	1.681174	0.961788	-0.505960
C73	C	1.130244	0.507783	-0.964402
C74	C	1.630244	1.007783	-0.464402
C75	C	1.135238	0.503302	-0.870024
C76	C	1.635238	1.003302	-0.370024
C77	C	1.176181	0.466268	-1.100346
C78	C	1.676181	0.966268	-0.600346
C79	C	1.167124	0.474497	-0.268214
C80	C	1.667124	0.974497	0.231786
C81	C	1.172198	0.469841	-0.175572
C82	C	1.672198	0.969841	0.324428
H83	H	0.663562	0.557811	-0.557456
H84	H	1.163562	1.057811	-0.057456
C85	C	1.066263	1.011424	-0.565464
C86	C	1.566263	1.511424	-0.065464
H87	H	1.034950	0.972950	-0.593692
H88	H	1.534950	1.472950	-0.093692
H89	H	1.030100	1.041978	-0.533222
H90	H	1.530100	1.541978	-0.033222
H91	H	1.094287	1.048774	-0.605103
H92	H	1.594287	1.548774	-0.105103
H93	H	1.228523	0.419049	-0.970662
H94	H	1.728523	0.919049	-0.470662
H95	H	0.648510	0.412073	-0.412137
H96	H	1.148510	0.912073	0.087863
H97	H	1.228507	0.969944	-0.419071
H98	H	1.728507	1.469944	0.080929
H99	H	1.082887	0.550521	-0.999702
H100	H	1.582887	1.050521	-0.499702
