data_functionalizedCrystal
_audit_creation_method	'MofGen! by Chris Wilmer'
_symmetry_space_group_name_H-M	'P1'
_symmetry_Int_Tables_number	1
_symmetry_cell_setting	triclinic
loop_
_symmetry_equiv_pos_as_xyz
  x,y,z
_cell_length_a	13.032831
_cell_length_b	29.839131
_cell_length_c	13.032268
_cell_angle_alpha	97.140540
_cell_angle_beta	90.886977
_cell_angle_gamma	82.845366
loop_
_atom_site_label
_atom_site_type_symbol
_atom_site_fract_x
_atom_site_fract_y
_atom_site_fract_z
Zn1	Zn	1.498202	-0.303377	-0.780727
Zn2	Zn	1.998202	0.196623	-0.280727
Zn3	Zn	1.519883	-0.370307	-0.608723
Zn4	Zn	2.019883	0.129693	-0.108723
Zn5	Zn	1.348078	-0.284611	-0.586974
Zn6	Zn	1.848078	0.215389	-0.086974
Zn7	Zn	1.326134	-0.367878	-0.758849
Zn8	Zn	1.826134	0.132122	-0.258849
O9	O	1.423074	-0.331543	-0.683818
O10	O	1.923074	0.168457	-0.183818
O11	O	1.644991	-0.321125	-0.776168
O12	O	2.144991	0.178875	-0.276168
O13	O	1.515350	-0.352102	-0.461924
O14	O	2.015350	0.147898	0.038076
O15	O	1.368102	-0.224242	-0.612730
O16	O	1.868102	0.275758	-0.112730
O17	O	1.660920	-0.370299	-0.649797
O18	O	2.160920	0.129701	-0.149797
O19	O	1.478398	-0.238029	-0.755079
O20	O	1.978398	0.261971	-0.255079
O21	O	1.389125	-0.289141	-0.445945
O22	O	1.889125	0.210859	0.054055
O23	O	1.201254	-0.286786	-0.591516
O24	O	1.701254	0.213214	-0.091516
O25	O	1.330702	-0.366159	-0.905665
O26	O	1.830702	0.133841	-0.405665
O27	O	1.185132	-0.347962	-0.717792
O28	O	1.685132	0.152038	-0.217792
O29	O	1.457120	-0.318770	-0.921739
O30	O	1.957120	0.181230	-0.421739
O31	O	1.494072	-0.432843	-0.628583
O32	O	1.994072	0.067157	-0.128583
O33	O	1.351725	-0.431059	-0.738880
O34	O	1.851725	0.068941	-0.238880
C35	C	1.155878	-0.315075	-0.649920
C36	C	1.655878	0.184925	-0.149920
C37	C	1.041567	-0.308042	-0.635443
C38	C	1.541567	0.191958	-0.135443
C39	C	0.982667	-0.335214	-0.691374
C40	C	1.482667	0.164786	-0.191374
C41	C	0.864520	-0.327945	-0.676412
C42	C	1.364520	0.172055	-0.176412
C43	C	1.422895	-0.448252	-0.683744
C44	C	1.922895	0.051748	-0.183744
C45	C	1.422908	-0.498188	-0.683758
C46	C	1.922908	0.001812	-0.183758
C47	C	1.497302	-0.808772	-0.626498
C48	C	1.997302	-0.308772	-0.126498
C49	C	1.497423	-0.996455	-0.626554
C50	C	1.997423	-0.496455	-0.126554
O51	O	1.560533	-1.021509	-0.577811
O52	O	2.060533	-0.521509	-0.077811
N53	N	1.423278	-1.019002	-0.683923
N54	N	1.923278	-0.519002	-0.183923
C55	C	1.349100	-0.994626	-0.741287
C56	C	1.849100	-0.494626	-0.241287
O57	O	1.286044	-1.018111	-0.790093
O58	O	1.786044	-0.518111	-0.290093
C59	C	1.348984	-0.806945	-0.741236
C60	C	1.848984	-0.306945	-0.241236
C61	C	1.423128	-0.784399	-0.683855
C62	C	1.923128	-0.284399	-0.183855
C63	C	1.571441	-0.786226	-0.569122
C64	C	2.071441	-0.286226	-0.069122
C65	C	1.571406	-0.739308	-0.569105
C66	C	2.071406	-0.239308	-0.069105
C67	C	1.497232	-0.714935	-0.626462
C68	C	1.997232	-0.214935	-0.126462
C69	C	1.423093	-0.737481	-0.683837
C70	C	1.923093	-0.237481	-0.183837
C71	C	1.274811	-0.782571	-0.798606
C72	C	1.774811	-0.282571	-0.298606
C73	C	1.274790	-0.735648	-0.798590
C74	C	1.774790	-0.235648	-0.298590
C75	C	1.348935	-0.713102	-0.741209
C76	C	1.848935	-0.213102	-0.241209
C77	C	1.348885	-0.666190	-0.741177
C78	C	1.848885	-0.166190	-0.241177
N79	N	1.423031	-0.643643	-0.683808
N80	N	1.923031	-0.143643	-0.183808
C81	C	1.497205	-0.668015	-0.626451
C82	C	1.997205	-0.168015	-0.126451
C83	C	1.349165	-1.093162	-0.741308
C84	C	1.849165	-0.593162	-0.241308
C85	C	1.349193	-1.140082	-0.741320
C86	C	1.849193	-0.640082	-0.241320
C87	C	1.497518	-1.141907	-0.626588
C88	C	1.997518	-0.641907	-0.126588
C89	C	1.497485	-1.094986	-0.626571
C90	C	1.997485	-0.594986	-0.126571
C91	C	1.423311	-1.070614	-0.683939
C92	C	1.923311	-0.570614	-0.183939
C93	C	1.497126	-0.569483	-0.626417
C94	C	1.997126	-0.069483	-0.126417
C95	C	1.497082	-0.522561	-0.626401
C96	C	1.997082	-0.022561	-0.126401
C97	C	1.348761	-0.520740	-0.741137
C98	C	1.848761	-0.020740	-0.241137
C99	C	1.348801	-0.567658	-0.741149
C100	C	1.848801	-0.067658	-0.241149
C101	C	1.422992	-0.592029	-0.683787
C102	C	1.922992	-0.092029	-0.183787
O103	O	1.285815	-0.641109	-0.789903
O104	O	1.785815	-0.141109	-0.289903
O105	O	1.560265	-0.644524	-0.577671
O106	O	2.060265	-0.144524	-0.077671
C107	C	1.497336	-0.855690	-0.626516
C108	C	1.997336	-0.355690	-0.126516
C109	C	1.423197	-0.878236	-0.683891
C110	C	1.923197	-0.378236	-0.183891
C111	C	1.349024	-0.853863	-0.741249
C112	C	1.849024	-0.353863	-0.241249
C113	C	1.423225	-0.925156	-0.683903
C114	C	1.923225	-0.425156	-0.183903
C115	C	1.497399	-0.949529	-0.626545
C116	C	1.997399	-0.449529	-0.126545
C117	C	1.571545	-0.926981	-0.569176
C118	C	2.071545	-0.426981	-0.069176
C119	C	1.571510	-0.880063	-0.569158
C120	C	2.071510	-0.380063	-0.069158
C121	C	1.274878	-0.876411	-0.798618
C122	C	1.774878	-0.376411	-0.298618
C123	C	1.274918	-0.923329	-0.798630
C124	C	1.774918	-0.423329	-0.298630
C125	C	1.349091	-0.947702	-0.741272
C126	C	1.849091	-0.447702	-0.241272
C127	C	1.691313	-0.348076	-0.717849
C128	C	2.191313	0.151924	-0.217849
C129	C	1.805621	-0.355122	-0.732351
C130	C	2.305621	0.144878	-0.232351
C131	C	1.389044	-0.344287	-0.952061
C132	C	1.889044	0.155713	-0.452061
C133	C	1.374543	-0.349718	-1.066370
C134	C	1.874543	0.150282	-0.566370
C135	C	1.423279	-0.214382	-0.683919
C136	C	1.923279	0.285618	-0.183919
C137	C	1.423367	-0.164454	-0.683962
C138	C	1.923367	0.335546	-0.183962
C139	C	1.430627	-0.328692	-1.125285
C140	C	1.930627	0.171308	-0.625285
C141	C	1.415640	-0.334304	-1.243430
C142	C	1.915640	0.165696	-0.743430
C143	C	1.457031	-0.318820	-0.416627
C144	C	1.957031	0.181180	0.083373
C145	C	1.471732	-0.313275	-0.302344
C146	C	1.971732	0.186725	0.197656
H147	H	0.842654	-0.383766	-0.791322
H148	H	1.342654	0.116234	-0.291322
H149	H	1.004527	-0.279396	-0.576487
H150	H	1.504527	0.220604	-0.076487
N151	N	1.031716	-0.373159	-0.769476
N152	N	1.531716	0.126841	-0.269476
H153	H	1.109164	-0.372973	-0.769092
H154	H	1.609164	0.127027	-0.269092
H155	H	1.014993	-0.403319	-0.750968
H156	H	1.514993	0.096681	-0.250968
H157	H	1.489733	-0.306534	-1.088259
H158	H	1.989733	0.193466	-0.588259
H159	H	0.827484	-0.299297	-0.617452
H160	H	1.327484	0.200703	-0.117452
H161	H	1.557459	-0.504205	-0.579670
H162	H	2.057459	-0.004205	-0.079670
H163	H	1.315426	-0.371870	-1.103395
H164	H	1.815426	0.128130	-0.603395
H165	H	1.557860	-1.076632	-0.579847
H166	H	2.057860	-0.576632	-0.079847
H167	H	1.288809	-1.158433	-0.788034
H168	H	1.788809	-0.658433	-0.288034
H169	H	1.557541	-0.589321	-0.579709
H170	H	2.057541	-0.089321	-0.079709
H171	H	1.631783	-0.720955	-0.522384
H172	H	2.131783	-0.220955	-0.022384
N173	N	1.337319	-0.363648	-1.292455
N174	N	1.837319	0.136352	-0.792455
H175	H	1.337708	-0.363495	-1.369903
H176	H	1.837708	0.136505	-0.869903
H177	H	1.355616	-0.395833	-1.275740
H178	H	1.855616	0.104167	-0.775740
H179	H	1.530841	-0.291115	-1.265323
H180	H	2.030841	0.208885	-0.765323
H181	H	1.214390	-0.715807	-0.845310
H182	H	1.714390	-0.215807	-0.345310
H183	H	1.631847	-0.806066	-0.522415
H184	H	2.131847	-0.306066	-0.022415
H185	H	1.288761	-1.073321	-0.788025
H186	H	1.788761	-0.573321	-0.288025
N187	N	1.577519	-1.168199	-0.564719
N188	N	2.077519	-0.668199	-0.064719
H189	H	1.566279	-1.201342	-0.573438
H190	H	2.066279	-0.701342	-0.073438
H191	H	1.648910	-1.165252	-0.590105
H192	H	2.148910	-0.665252	-0.090105
H193	H	1.214431	-0.800919	-0.845326
H194	H	1.714431	-0.300919	-0.345326
H195	H	1.288366	-0.500888	-0.787833
H196	H	1.788366	-0.000888	-0.287833
N197	N	1.268824	-0.591977	-0.803023
N198	N	1.768824	-0.091977	-0.303023
H199	H	1.221828	-0.569415	-0.839352
H200	H	1.721828	-0.069415	-0.339352
H201	H	1.304621	-0.616254	-0.855967
H202	H	1.804621	-0.116254	-0.355967
H203	H	1.631885	-0.861710	-0.522433
H204	H	2.131885	-0.361710	-0.022433
H205	H	1.631937	-0.946834	-0.522470
H206	H	2.131937	-0.446834	-0.022470
N207	N	1.194934	-0.947642	-0.860513
N208	N	1.694934	-0.447642	-0.360513
H209	H	1.147945	-0.925078	-0.896843
H210	H	1.647945	-0.425078	-0.396843
H211	H	1.230727	-0.971921	-0.913456
H212	H	1.730727	-0.471921	-0.413456
H213	H	1.214477	-0.856570	-0.845327
H214	H	1.714477	-0.356570	-0.345327
