data_functionalizedCrystal
_audit_creation_method	'MofGen! by Chris Wilmer'
_symmetry_space_group_name_H-M	'P1'
_symmetry_Int_Tables_number	1
_symmetry_cell_setting	triclinic
loop_
_symmetry_equiv_pos_as_xyz
  x,y,z
_cell_length_a	16.109301
_cell_length_b	15.186229
_cell_length_c	16.109301
_cell_angle_alpha	89.986602
_cell_angle_beta	96.538468
_cell_angle_gamma	90.005553
loop_
_atom_site_label
_atom_site_type_symbol
_atom_site_fract_x
_atom_site_fract_y
_atom_site_fract_z
O1	O	1.103135	0.073183	-0.106876
O2	O	0.861073	0.073196	-0.120176
O3	O	0.988754	0.073180	0.007505
O4	O	0.975454	0.073199	-0.234557
O5	O	0.988736	-0.073277	0.007526
O6	O	0.861056	-0.073262	-0.120155
O7	O	1.103118	-0.073274	-0.106856
Zn8	Zn	0.982084	-0.096521	-0.113502
Zn9	Zn	0.982107	0.096443	-0.113529
O10	O	0.975437	-0.073259	-0.234536
C11	C	0.830089	-0.000031	-0.119627
C12	C	0.737794	-0.000027	-0.118011
N13	N	0.982074	-0.228214	-0.113483
C14	C	0.428796	-0.000037	-0.188494
C15	C	0.515516	-0.000032	-0.190020
C16	C	0.535389	-0.000031	-0.038531
C17	C	0.448671	-0.000030	-0.037007
C18	C	0.395376	-0.000037	-0.111991
C19	C	0.568815	-0.000033	-0.115041
C20	C	0.662841	-0.000028	-0.116694
C21	C	0.301344	-0.000041	-0.110338
C22	C	0.931693	-0.546167	-0.063080
C23	C	0.931686	-0.453978	-0.063068
C24	C	1.032510	-0.453918	-0.163947
C25	C	1.032520	-0.546106	-0.163954
C26	C	0.982108	-0.592228	-0.113522
C27	C	0.982090	-0.407850	-0.113503
C28	C	0.982082	-0.307894	-0.113490
C29	C	0.982116	-0.692191	-0.113533
C30	C	1.134101	-0.000045	-0.107405
C31	C	1.226396	-0.000044	-0.109020
C32	C	0.988206	-0.000049	0.038490
C33	C	0.986591	-0.000050	0.130785
N34	N	0.982123	0.228135	-0.113542
C35	C	0.975984	-0.000028	-0.265522
C36	C	0.977599	-0.000021	-0.357817
C37	C	1.058599	-0.000040	0.353058
C38	C	1.057075	-0.000033	0.439778
C39	C	0.905586	-0.000028	0.419904
C40	C	0.907111	-0.000029	0.333185
C41	C	0.983620	-0.000040	0.299765
C42	C	0.980571	-0.000031	0.473204
C43	C	0.978918	-0.000023	0.567230
C44	C	0.985273	-0.000046	0.205733
H45	H	0.385405	-0.000042	-0.249551
C46	C	0.815997	0.075258	0.505890
C47	C	0.821492	-0.000027	0.456647
H48	H	0.764082	0.075252	0.528575
H49	H	0.819739	0.126322	0.472462
H50	H	0.860440	0.075248	0.550037
H51	H	0.777053	-0.000013	0.412495
H52	H	0.817743	-0.051104	0.490077
H53	H	0.421461	-0.000028	0.025296
C54	C	0.487156	-0.000045	-0.339604
C55	C	0.552251	-0.000037	-0.274115
H56	H	0.509836	-0.000053	-0.391522
H57	H	0.453751	0.051024	-0.335872
H58	H	0.453743	-0.051122	-0.335838
H59	H	0.585661	0.051044	-0.277878
H60	H	0.585671	-0.051111	-0.277849
C61	C	0.677148	-0.000044	0.026397
C62	C	0.593974	-0.000037	0.043889
H63	H	0.713313	-0.000055	0.077282
H64	H	0.687280	0.051027	-0.004976
H65	H	0.687262	-0.051120	-0.004967
H66	H	0.583859	0.051043	0.075247
H67	H	0.583838	-0.051113	0.075275
C68	C	0.820937	-0.075312	0.224138
C69	C	0.824689	-0.000027	0.274595
H70	H	0.770058	-0.075302	0.187964
H71	H	0.823477	-0.126376	0.258390
H72	H	0.866726	-0.075304	0.191830
H73	H	0.778904	-0.000038	0.306907
H74	H	0.822141	0.051050	0.240339
C75	C	1.128204	-0.000049	0.228949
C76	C	1.142695	-0.000043	0.316320
H77	H	1.180124	-0.000054	0.206273
H78	H	1.097341	0.051020	0.210648
H79	H	1.097329	-0.051126	0.210674
H80	H	1.173565	0.051038	0.334595
H81	H	1.173571	-0.051117	0.334629
H82	H	0.890645	-0.583717	-0.022015
H83	H	1.118130	-0.000031	0.483167
C84	C	0.832020	-0.463303	0.036634
C85	C	0.876265	-0.403348	-0.007625
H86	H	0.797801	-0.432044	0.070860
H87	H	0.870291	-0.499261	0.070690
H88	H	0.797951	-0.499255	-0.001634
H89	H	0.910339	-0.367400	0.030644
H90	H	0.837989	-0.367374	-0.041683
H91	H	1.073553	-0.416354	-0.205008
C92	C	1.132177	-0.536794	-0.263678
C93	C	1.087938	-0.596743	-0.219406
H94	H	1.166384	-0.568057	-0.297912
H95	H	1.166249	-0.500844	-0.225424
H96	H	1.093896	-0.500833	-0.297735
H97	H	1.126219	-0.632699	-0.185344
H98	H	1.053863	-0.632708	-0.257665
