data_functionalizedCrystal
_audit_creation_method	'MofGen! by Chris Wilmer'
_symmetry_space_group_name_H-M	'P1'
_symmetry_Int_Tables_number	1
_symmetry_cell_setting	triclinic
loop_
_symmetry_equiv_pos_as_xyz
  x,y,z
_cell_length_a	18.215407
_cell_length_b	18.050589
_cell_length_c	18.215399
_cell_angle_alpha	89.976397
_cell_angle_beta	89.980167
_cell_angle_gamma	90.028669
loop_
_atom_site_label
_atom_site_type_symbol
_atom_site_fract_x
_atom_site_fract_y
_atom_site_fract_z
Zn1	Zn	1.125055	-0.295658	-0.416138
Zn2	Zn	1.458388	0.037675	-0.082805
Zn3	Zn	1.791722	0.371008	0.250529
Zn4	Zn	1.124956	-0.419853	-0.293081
Zn5	Zn	1.458289	-0.086520	0.040252
Zn6	Zn	1.791623	0.246813	0.373586
Zn7	Zn	1.001987	-0.295682	-0.293085
Zn8	Zn	1.335321	0.037651	0.040248
Zn9	Zn	1.668654	0.370984	0.373581
Zn10	Zn	1.001946	-0.419812	-0.416106
Zn11	Zn	1.335280	-0.086479	-0.082773
Zn12	Zn	1.668613	0.246855	0.250561
O13	O	1.063486	-0.357751	-0.354603
O14	O	1.396820	-0.024418	-0.021269
O15	O	1.730153	0.308915	0.312064
O16	O	1.228026	-0.312140	-0.399826
O17	O	1.561359	0.021193	-0.066493
O18	O	1.894693	0.354527	0.266841
O19	O	1.108620	-0.403409	-0.190097
O20	O	1.441953	-0.070076	0.143236
O21	O	1.775287	0.263258	0.476569
O22	O	1.018371	-0.191755	-0.309424
O23	O	1.351705	0.141579	0.023909
O24	O	1.685038	0.474912	0.357243
O25	O	1.227953	-0.403386	-0.309417
O26	O	1.561287	-0.070052	0.023917
O27	O	1.894620	0.263281	0.357250
O28	O	1.108788	-0.191737	-0.399830
O29	O	1.442122	0.141597	-0.066497
O30	O	1.775455	0.474930	0.266837
O31	O	1.018275	-0.312181	-0.190101
O32	O	1.351609	0.021152	0.143233
O33	O	1.684942	0.354485	0.476566
O34	O	0.898998	-0.312141	-0.309393
O35	O	1.232331	0.021192	0.023941
O36	O	1.565664	0.354525	0.357274
O37	O	1.018301	-0.403315	-0.519095
O38	O	1.351634	-0.069982	-0.185761
O39	O	1.684968	0.263352	0.147572
O40	O	0.898967	-0.403339	-0.399775
O41	O	1.232301	-0.070005	-0.066442
O42	O	1.565634	0.263328	0.266891
O43	O	1.108748	-0.312100	-0.519118
O44	O	1.442082	0.021233	-0.185785
O45	O	1.775415	0.354567	0.147549
O46	O	1.108580	-0.523772	-0.309385
O47	O	1.441913	-0.190439	0.023948
O48	O	1.775247	0.142894	0.357281
O49	O	1.018205	-0.523742	-0.399771
O50	O	1.351538	-0.190409	-0.066438
O51	O	1.684872	0.142925	0.266895
C52	C	0.872280	-0.357739	-0.354582
C53	C	1.205613	-0.024405	-0.021248
C54	C	1.538947	0.308928	0.312085
C55	C	0.790481	-0.357751	-0.354590
C56	C	1.123814	-0.024418	-0.021257
C57	C	1.457148	0.308915	0.312077
C58	C	0.602291	-0.405312	-0.401593
C59	C	0.935624	-0.071979	-0.068260
C60	C	1.268957	0.261354	0.265073
C61	C	0.525432	-0.405315	-0.401602
C62	C	0.858765	-0.071981	-0.068269
C63	C	1.192098	0.261352	0.265064
C64	C	0.525434	-0.310204	-0.307628
C65	C	0.858767	0.023129	0.025705
C66	C	1.192100	0.356463	0.359038
C67	C	0.602291	-0.310199	-0.307623
C68	C	0.935624	0.023135	0.025710
C69	C	1.268958	0.356468	0.359043
C70	C	0.640718	-0.357757	-0.354605
C71	C	0.974051	-0.024424	-0.021271
C72	C	1.307384	0.308910	0.312062
C73	C	0.487001	-0.357765	-0.354619
C74	C	0.820335	-0.024431	-0.021285
C75	C	1.153668	0.308902	0.312048
C76	C	0.403668	-0.357767	-0.354628
C77	C	0.737001	-0.024434	-0.021295
C78	C	1.070334	0.308900	0.312038
C79	C	0.724056	-0.357754	-0.354596
C80	C	1.057390	-0.024421	-0.021263
C81	C	1.390723	0.308913	0.312070
C82	C	1.063397	-0.550704	-0.354590
C83	C	1.396731	-0.217370	-0.021257
C84	C	1.730064	0.115963	0.312076
C85	C	1.063427	-0.633249	-0.354610
C86	C	1.396760	-0.299916	-0.021277
C87	C	1.730093	0.033417	0.312057
C88	C	1.014329	-0.832710	-0.403744
C89	C	1.347662	-0.499377	-0.070411
C90	C	1.680996	-0.166044	0.262922
C91	C	0.996389	-0.882151	-0.336590
C92	C	1.329723	-0.548818	-0.003257
C93	C	1.663056	-0.215484	0.330076
C94	C	1.063499	-0.784380	-0.354619
C95	C	1.396832	-0.451046	-0.021286
C96	C	1.730166	-0.117713	0.312047
C97	C	1.081475	-0.882021	-0.421781
C98	C	1.414808	-0.548688	-0.088448
C99	C	1.748141	-0.215354	0.244885
C100	C	1.063567	-0.930365	-0.354635
C101	C	1.396901	-0.597031	-0.021301
C102	C	1.730234	-0.263698	0.312032
C103	C	1.045524	-0.832733	-0.287430
C104	C	1.378857	-0.499400	0.045904
C105	C	1.712191	-0.166066	0.379237
C106	C	1.130641	-0.832599	-0.372666
C107	C	1.463974	-0.499265	-0.039333
C108	C	1.797307	-0.165932	0.294001
C109	C	1.112726	-0.882017	-0.305466
C110	C	1.446060	-0.548683	0.027868
C111	C	1.779393	-0.215350	0.361201
C112	C	1.063458	-0.700281	-0.354612
C113	C	1.396791	-0.366948	-0.021278
C114	C	1.730124	-0.033615	0.312055
C115	C	1.063609	-1.014461	-0.354635
C116	C	1.396942	-0.681128	-0.021301
C117	C	1.730276	-0.347795	0.312032
C118	C	1.255439	-0.357765	-0.354624
C119	C	1.588772	-0.024431	-0.021291
C120	C	1.922106	0.308902	0.312042
C121	C	1.337238	-0.357770	-0.354634
C122	C	1.670571	-0.024437	-0.021300
C123	C	2.003905	0.308896	0.312033
C124	C	1.063531	-0.357700	-0.546556
C125	C	1.396864	-0.024367	-0.213222
C126	C	1.730198	0.308966	0.120111
C127	C	1.063550	-0.357678	-0.628355
C128	C	1.396883	-0.024345	-0.295021
C129	C	1.730217	0.308988	0.038312
C130	C	1.063595	-0.164046	-0.354631
C131	C	1.396929	0.169288	-0.021298
C132	C	1.730262	0.502621	0.312036
C133	C	1.063642	-0.081500	-0.354643
C134	C	1.396975	0.251833	-0.021310
C135	C	1.730309	0.585167	0.312024
C136	C	1.110663	-0.310138	-0.816562
C137	C	1.443996	0.023195	-0.483229
C138	C	1.777330	0.356528	-0.149895
C139	C	1.110672	-0.310117	-0.893421
C140	C	1.444005	0.023217	-0.560088
C141	C	1.777338	0.356550	-0.226754
C142	C	1.016489	-0.405104	-0.893385
C143	C	1.349823	-0.071770	-0.560052
C144	C	1.683156	0.261563	-0.226718
C145	C	1.016477	-0.405121	-0.816528
C146	C	1.349811	-0.071788	-0.483194
C147	C	1.683144	0.261546	-0.149861
C148	C	1.063568	-0.357639	-0.778118
C149	C	1.396902	-0.024306	-0.444785
C150	C	1.730235	0.309027	-0.111452
C151	C	1.063589	-0.357600	-0.931834
C152	C	1.396922	-0.024267	-0.598501
C153	C	1.730256	0.309066	-0.265168
C154	C	1.063598	-0.357577	-1.015168
C155	C	1.396932	-0.024244	-0.681835
C156	C	1.730265	0.309089	-0.348501
C157	C	1.063558	-0.357661	-0.694779
C158	C	1.396892	-0.024328	-0.361446
C159	C	1.730225	0.309005	-0.028113
C160	C	1.063484	-0.357749	-0.163396
C161	C	1.396817	-0.024416	0.169937
C162	C	1.730151	0.308918	0.503270
C163	C	1.063607	-0.357561	-0.081598
C164	C	1.396941	-0.024228	0.251735
C165	C	1.730274	0.309105	0.585069
H166	H	0.972687	-0.811060	-0.445229
H167	H	1.306020	-0.477727	-0.111896
H168	H	1.639353	-0.144393	0.221438
O169	O	0.921219	-0.910985	-0.316372
O170	O	1.254552	-0.577651	0.016962
O171	O	1.587886	-0.244318	0.350295
H172	H	0.905979	-0.890385	-0.261024
H173	H	1.239313	-0.557052	0.072309
H174	H	1.572646	-0.223719	0.405643
O175	O	0.965676	-0.456357	-0.775061
O176	O	1.299009	-0.123024	-0.441727
O177	O	1.632342	0.210310	-0.108394
H178	H	0.973573	-0.448384	-0.715164
H179	H	1.306906	-0.115050	-0.381831
H180	H	1.640240	0.218283	-0.048498
H181	H	0.978151	-0.443763	-0.924667
H182	H	1.311484	-0.110430	-0.591334
H183	H	1.644818	0.222904	-0.258001
H184	H	1.149006	-0.271474	-0.785291
H185	H	1.482339	0.061860	-0.451958
H186	H	1.815672	0.395193	-0.118625
O187	O	1.205877	-0.803909	-0.392822
O188	O	1.539210	-0.470576	-0.059488
O189	O	1.872543	-0.137242	0.273845
H190	H	1.220679	-0.823673	-0.448586
H191	H	1.554012	-0.490340	-0.115253
H192	H	1.887345	-0.157007	0.218081
O193	O	0.643730	-0.456594	-0.452281
O194	O	0.977063	-0.123261	-0.118948
O195	O	1.310397	0.210072	0.214386
H196	H	0.678773	-0.423390	-0.489769
H197	H	1.012107	-0.090057	-0.156436
H198	H	1.345440	0.243276	0.176897
O199	O	0.483983	-0.456688	-0.452200
O200	O	0.817316	-0.123355	-0.118867
O201	O	1.150649	0.209978	0.214466
H202	H	0.523618	-0.489788	-0.484833
H203	H	0.856951	-0.156455	-0.151500
H204	H	1.190284	0.176879	0.181833
O205	O	1.025338	-0.804177	-0.212180
O206	O	1.358671	-0.470844	0.121154
O207	O	1.692005	-0.137511	0.454487
H208	H	1.015365	-0.851704	-0.174795
H209	H	1.348698	-0.518371	0.158539
H210	H	1.682031	-0.185037	0.491872
O211	O	1.101585	-0.910698	-0.497007
O212	O	1.434918	-0.577364	-0.163674
O213	O	1.768252	-0.244031	0.169660
H214	H	1.060653	-0.890949	-0.537667
H215	H	1.393986	-0.557616	-0.204334
H216	H	1.727319	-0.224283	0.129000
H217	H	1.154337	-0.903530	-0.263881
H218	H	1.487670	-0.570197	0.069453
H219	H	1.821004	-0.236863	0.402786
H220	H	0.494138	-0.271485	-0.269377
H221	H	0.827471	0.061848	0.063957
H222	H	1.160804	0.395182	0.397290
O223	O	1.161470	-0.258888	-0.934888
O224	O	1.494804	0.074445	-0.601555
O225	O	1.828137	0.407779	-0.268222
H226	H	1.194215	-0.225881	-0.895265
H227	H	1.527549	0.107453	-0.561932
H228	H	1.860882	0.440786	-0.228598
H229	H	0.633579	-0.271469	-0.269360
H230	H	0.966913	0.061865	0.063974
H231	H	1.300246	0.395198	0.397307
