data_functionalizedCrystal
_audit_creation_method	'MofGen! by Chris Wilmer'
_symmetry_space_group_name_H-M	'P1'
_symmetry_Int_Tables_number	1
_symmetry_cell_setting	triclinic
loop_
_symmetry_equiv_pos_as_xyz
  x,y,z
_cell_length_a	14.853566
_cell_length_b	12.837942
_cell_length_c	11.295483
_cell_angle_alpha	85.469583
_cell_angle_beta	94.108244
_cell_angle_gamma	89.231677
loop_
_atom_site_label
_atom_site_type_symbol
_atom_site_fract_x
_atom_site_fract_y
_atom_site_fract_z
O1	O	-1.213315	-0.128383	-0.098945
O2	O	-0.713315	0.371617	0.401055
O3	O	-0.952224	-0.144507	-0.098964
O4	O	-0.452224	0.355493	0.401036
O5	O	-1.076980	0.014465	-0.098947
O6	O	-0.576980	0.514465	0.401053
O7	O	-1.088559	-0.287356	-0.098961
O8	O	-0.588559	0.212644	0.401039
O9	O	-1.066020	0.000524	0.099102
O10	O	-0.566020	0.500524	0.599102
O11	O	-0.941265	-0.158449	0.099085
O12	O	-0.441265	0.341551	0.599085
O13	O	-1.202355	-0.142325	0.099105
O14	O	-0.702355	0.357675	0.599105
Cu15	Cu	-1.070809	-0.151660	0.117178
Cu16	Cu	-0.570809	0.348340	0.617178
Cu17	Cu	-1.083770	-0.135172	-0.117038
Cu18	Cu	-0.583770	0.364828	0.382962
O19	O	-1.077600	-0.301297	0.099088
O20	O	-0.577600	0.198703	0.599088
C21	C	-0.913094	-0.150748	0.000058
C22	C	-0.413094	0.349252	0.500058
C23	C	-0.812825	-0.148558	0.000051
C24	C	-0.312825	0.351442	0.500051
C25	C	-1.067588	0.046121	0.000076
C26	C	-0.567588	0.546121	0.500076
C27	C	-1.055923	0.161215	0.000073
C28	C	-0.555923	0.661215	0.500073
C29	C	-1.241486	-0.136084	0.000080
C30	C	-0.741486	0.363916	0.500080
C31	C	-1.341755	-0.138273	0.000079
C32	C	-0.841755	0.361727	0.500079
C33	C	-0.394827	-0.131702	-0.107885
C34	C	0.105173	0.368298	0.392115
C35	C	-0.382901	-0.146902	0.108036
C36	C	0.117099	0.353098	0.608036
C37	C	-0.477109	-0.148957	0.108033
C38	C	0.022891	0.351043	0.608033
C39	C	-0.530181	-0.142387	0.000069
C40	C	-0.030181	0.357613	0.500069
C41	C	-0.489045	-0.133760	-0.107892
C42	C	0.010955	0.366240	0.392108
C43	C	-0.518252	-0.157594	0.215991
C44	C	-0.018252	0.342406	0.715991
C45	C	-0.612467	-0.159651	0.215992
C46	C	-0.112467	0.340349	0.715992
C47	C	-0.665541	-0.153073	0.108026
C48	C	-0.165541	0.346927	0.608026
C49	C	-0.624399	-0.144445	0.000062
C50	C	-0.124399	0.355555	0.500062
C51	C	-0.677471	-0.137874	-0.107902
C52	C	-0.177471	0.362126	0.392098
C53	C	-0.636331	-0.129239	-0.215868
C54	C	-0.136331	0.370761	0.284132
C55	C	-0.542119	-0.127182	-0.215857
C56	C	-0.042119	0.372818	0.284143
C57	C	-0.759753	-0.155129	0.108015
C58	C	-0.259753	0.344871	0.608015
C59	C	-0.771688	-0.139932	-0.107910
C60	C	-0.271688	0.360068	0.392090
C61	C	-1.086991	-0.332953	0.000062
C62	C	-0.586991	0.167047	0.500062
C63	C	-1.098657	-0.448046	0.000057
C64	C	-0.598657	0.051954	0.500057
N65	N	-1.061700	-0.163255	0.281914
N66	N	-0.561700	0.336745	0.781914
C67	C	-1.196170	0.401973	0.000059
C68	C	-0.696170	0.901973	0.500059
C69	C	-1.185213	0.510115	0.000056
C70	C	-0.685213	1.010115	0.500056
C71	C	-1.023053	0.485643	0.000056
C72	C	-0.523053	0.985643	0.500056
C73	C	-1.034010	0.377501	0.000059
C74	C	-0.534010	0.877501	0.500059
C75	C	-1.120571	0.335670	0.000062
C76	C	-0.620571	0.835670	0.500062
C77	C	-1.131527	0.227526	0.000074
C78	C	-0.631527	0.727526	0.500074
C79	C	-0.969368	0.203057	0.000065
C80	C	-0.469368	0.703057	0.500065
C81	C	-0.958411	0.311198	0.000063
C82	C	-0.458411	0.811198	0.500063
N83	N	-1.092886	-0.123569	-0.281773
N84	N	-0.592886	0.376431	0.218227
C85	C	-1.158455	-0.040039	0.531216
C86	C	-0.658455	0.459961	1.031216
C87	C	-1.151578	-0.048809	0.655879
C88	C	-0.651578	0.451191	1.155879
C89	C	-1.041065	-0.189561	0.655904
C90	C	-0.541065	0.310439	1.155904
C91	C	-1.047942	-0.180790	0.531241
C92	C	-0.547942	0.319210	1.031241
C93	C	-1.106640	-0.106028	0.468902
C94	C	-0.606640	0.393972	0.968902
C95	C	-1.113521	-0.097263	0.344237
C96	C	-0.613521	0.402737	0.844237
C97	C	-1.003003	-0.238009	0.344264
C98	C	-0.503003	0.261991	0.844264
C99	C	-0.996126	-0.246780	0.468927
C100	C	-0.496126	0.253220	0.968927
H101	H	-0.814894	-0.134578	-0.195828
H102	H	-0.314894	0.365422	0.304172
Br103	Br	-0.708368	-0.120333	-0.362385
Br104	Br	-0.208368	0.379667	0.137615
H105	H	-0.339684	-0.152259	0.195936
H106	H	0.160316	0.347741	0.695936
H107	H	-1.161319	-0.036391	0.293481
H108	H	-0.661319	0.463609	0.793481
Br109	Br	-0.916463	-0.348234	0.553538
Br110	Br	-0.416463	0.151766	1.053538
Br111	Br	-1.249000	0.170755	0.000090
Br112	Br	-0.749000	0.670755	0.500090
H113	H	-0.887936	0.345273	0.000056
H114	H	-0.387936	0.845273	0.500056
H115	H	-0.952580	0.519722	0.000041
H116	H	-0.452580	1.019722	0.500041
Br117	Br	-0.815582	-0.166859	0.254527
Br118	Br	-0.315582	0.333141	0.754527
Br119	Br	-0.446223	-0.166529	0.362504
Br120	Br	0.053777	0.333471	0.862504
Br121	Br	-0.486282	-0.115416	-0.362368
Br122	Br	0.013718	0.384584	0.137632
Br123	Br	-1.313639	0.345194	0.000100
Br124	Br	-0.813639	0.845194	0.500100
Br125	Br	-0.932688	-0.327579	0.259684
Br126	Br	-0.432688	0.172421	0.759684
Br127	Br	-0.866762	0.113066	0.000091
Br128	Br	-0.366762	0.613066	0.500091
Br129	Br	-0.339000	-0.119947	-0.254403
Br130	Br	0.161000	0.380053	0.245597
Br131	Br	-0.668292	-0.171370	0.362513
Br132	Br	-0.168292	0.328630	0.862513
H133	H	-1.206256	0.020829	0.480458
H134	H	-0.706256	0.520829	0.980458
H135	H	-1.246774	0.564096	0.000050
H136	H	-0.746774	1.064096	0.500050
H137	H	-1.193770	0.004927	0.706612
H138	H	-0.693770	0.504927	1.206612
H139	H	-0.993267	-0.250423	0.706677
H140	H	-0.493267	0.249577	1.206677
