data_functionalizedCrystal
_audit_creation_method	'MofGen! by Chris Wilmer'
_symmetry_space_group_name_H-M	'P1'
_symmetry_Int_Tables_number	1
_symmetry_cell_setting	triclinic
loop_
_symmetry_equiv_pos_as_xyz
  x,y,z
_cell_length_a	14.908783
_cell_length_b	12.645330
_cell_length_c	14.908308
_cell_angle_alpha	93.270481
_cell_angle_beta	89.788727
_cell_angle_gamma	93.308814
loop_
_atom_site_label
_atom_site_type_symbol
_atom_site_fract_x
_atom_site_fract_y
_atom_site_fract_z
Zn1	Zn	1.345328	-0.370782	-0.587852
Zn2	Zn	1.845328	0.129218	-0.087852
Zn3	Zn	1.353915	-0.537296	-0.437502
Zn4	Zn	1.853915	-0.037296	0.062498
Zn5	Zn	1.203642	-0.369635	-0.428823
Zn6	Zn	1.703642	0.130365	0.071177
Zn7	Zn	1.194941	-0.557596	-0.579125
Zn8	Zn	1.694941	-0.057596	-0.079125
O9	O	1.274457	-0.458827	-0.508326
O10	O	1.774457	0.041173	-0.008326
O11	O	1.472295	-0.384855	-0.575192
O12	O	1.972295	0.115145	-0.075192
O13	O	1.341216	-0.506080	-0.310527
O14	O	1.841216	-0.006080	0.189473
O15	O	1.222484	-0.221438	-0.449939
O16	O	1.722484	0.278562	0.050061
O17	O	1.478604	-0.507193	-0.464731
O18	O	1.978604	-0.007193	0.035269
O19	O	1.326581	-0.222281	-0.566777
O20	O	1.826581	0.277719	-0.066777
O21	O	1.230810	-0.382900	-0.304151
O22	O	1.730810	0.117100	0.195849
O23	O	1.076660	-0.402584	-0.441477
O24	O	1.576660	0.097416	0.058523
O25	O	1.207656	-0.541790	-0.706106
O26	O	1.707656	-0.041790	-0.206106
O27	O	1.070268	-0.540678	-0.551903
O28	O	1.570268	-0.040678	-0.051903
O29	O	1.318145	-0.404539	-0.712518
O30	O	1.818145	0.095461	-0.212518
O31	O	1.332779	-0.688338	-0.456269
O32	O	1.832779	-0.188338	0.043731
O33	O	1.215982	-0.703252	-0.560318
O34	O	1.715982	-0.203252	-0.060318
C35	C	1.040838	-0.473710	-0.494802
C36	C	1.540838	0.026290	0.005198
C37	C	0.940894	-0.480104	-0.489037
C38	C	1.440894	0.019896	0.010963
C39	C	0.746507	-0.364927	-0.593405
C40	C	1.246507	0.135073	-0.093405
C41	C	0.652601	-0.370931	-0.587991
C42	C	1.152601	0.129069	-0.087991
C43	C	0.659173	-0.498110	-0.472794
C44	C	1.159173	0.001890	0.027206
C45	C	0.753079	-0.492105	-0.478207
C46	C	1.253079	0.007895	0.021793
C47	C	0.796743	-0.425513	-0.538515
C48	C	1.296743	0.074487	-0.038515
C49	C	0.890651	-0.419515	-0.543932
C50	C	1.390651	0.080485	-0.043932
C51	C	0.897222	-0.546688	-0.428731
C52	C	1.397222	-0.046688	0.071269
C53	C	0.803315	-0.552692	-0.423318
C54	C	1.303315	-0.052692	0.076682
C55	C	1.274392	-0.734260	-0.508309
C56	C	1.774392	-0.234260	-0.008309
C57	C	1.274444	-0.852089	-0.508337
C58	C	1.774444	-0.352089	-0.008337
C59	C	1.201241	-1.029076	-0.574026
C60	C	1.701241	-0.529076	-0.074026
C61	C	1.200900	-0.906523	-0.573781
C62	C	1.700900	-0.406523	-0.073781
C63	C	1.254266	-0.891525	-0.412097
C64	C	1.754266	-0.391525	0.087903
C65	C	1.253819	-1.014181	-0.412496
C66	C	1.753819	-0.514181	0.087504
C67	C	1.368294	-1.014844	-0.538145
C68	C	1.868294	-0.514844	-0.038145
C69	C	1.367591	-0.892422	-0.540183
C70	C	1.867591	-0.392422	-0.040183
C71	C	1.508987	-0.443888	-0.521903
C72	C	2.008987	0.056112	-0.021903
C73	C	1.608930	-0.437521	-0.527689
C74	C	2.108930	0.062479	-0.027689
C75	C	1.260972	-0.475557	-0.742849
C76	C	1.760972	0.024443	-0.242849
C77	C	1.255226	-0.482686	-0.842789
C78	C	1.755226	0.017314	-0.342789
C79	C	1.274545	-0.182319	-0.508363
C80	C	1.774545	0.317681	-0.008363
C81	C	1.274583	-0.064487	-0.508379
C82	C	1.774583	0.435513	-0.008379
C83	C	1.359477	-0.353138	-1.037265
C84	C	1.859477	0.146862	-0.537265
C85	C	1.354080	-0.359833	-1.131168
C86	C	1.854080	0.140167	-0.631168
C87	C	1.239032	-0.502764	-1.124499
C88	C	1.739032	-0.002764	-0.624499
C89	C	1.244429	-0.496069	-1.030596
C90	C	1.744429	0.003931	-0.530596
C91	C	1.304654	-0.421255	-0.986983
C92	C	1.804654	0.078745	-0.486983
C93	C	1.310054	-0.414566	-0.893079
C94	C	1.810054	0.085434	-0.393079
C95	C	1.195002	-0.557492	-0.886411
C96	C	1.695002	-0.057492	-0.386411
C97	C	1.189606	-0.564186	-0.980314
C98	C	1.689606	-0.064186	-0.480314
C99	C	1.287941	-0.442083	-0.274717
C100	C	1.787941	0.057917	0.225283
C101	C	1.293861	-0.434644	-0.174788
C102	C	1.793861	0.065356	0.325212
H103	H	0.926201	-0.365293	-0.593039
H104	H	1.426201	0.134707	-0.093039
C105	C	0.597344	-0.304284	-0.648377
C106	C	1.097344	0.195716	-0.148377
N107	N	0.555725	-0.254084	-0.693862
N108	N	1.055725	0.245916	-0.193862
H109	H	0.623606	-0.552313	-0.423684
H110	H	1.123606	-0.052313	0.076316
H111	H	0.782059	-0.310709	-0.642514
H112	H	1.282059	0.189291	-0.142514
C113	C	0.755274	-0.625941	-0.356983
C114	C	1.255274	-0.125941	0.143017
N115	N	0.719091	-0.681116	-0.307020
N116	N	1.219091	-0.181116	0.192980
H117	H	1.359094	-0.353650	-0.857570
H118	H	1.859094	0.146350	-0.357570
H119	H	0.938134	-0.596030	-0.384043
H120	H	1.438134	-0.096030	0.115957
C121	C	1.414392	-0.284901	-1.186475
C122	C	1.914392	0.215099	-0.686475
N123	N	1.459822	-0.228460	-1.228133
N124	N	1.959822	0.271540	-0.728133
C125	C	1.217096	-0.871207	-0.669956
C126	C	1.717096	-0.371207	-0.169956
N127	N	1.229291	-0.844612	-0.742400
N128	N	1.729291	-0.344612	-0.242400
H129	H	1.213072	-1.062528	-0.645437
H130	H	1.713072	-0.562528	-0.145437
C131	C	1.134694	-0.632426	-0.831093
C132	C	1.634694	-0.132426	-0.331093
N133	N	1.089272	-0.688867	-0.789426
N134	N	1.589272	-0.188867	-0.289426
H135	H	1.132086	-1.063309	-0.554103
H136	H	1.632086	-0.563309	-0.054103
H137	H	1.131317	-0.880634	-0.553628
H138	H	1.631317	-0.380634	-0.053628
C139	C	1.161492	-1.056946	-0.379299
C140	C	1.661492	-0.556946	0.120701
N141	N	1.091947	-1.089151	-0.354298
N142	N	1.591947	-0.589151	0.145702
H143	H	1.140571	-0.625096	-1.015836
H144	H	1.640571	-0.125096	-0.515836
C145	C	1.172768	-0.585028	-1.172489
C146	C	1.672768	-0.085028	-0.672489
N147	N	1.122851	-0.646983	-1.208635
N148	N	1.622851	-0.146983	-0.708635
H149	H	1.408519	-0.292226	-1.001755
H150	H	1.908519	0.207774	-0.501755
C151	C	1.323244	-1.044888	-0.343757
C152	C	1.823244	-0.544888	0.156243
N153	N	1.375529	-1.068013	-0.291979
N154	N	1.875529	-0.568013	0.208021
H155	H	1.186671	-0.863803	-0.387190
H156	H	1.686671	-0.363803	0.112810
C157	C	1.324464	-0.842749	-0.343884
C158	C	1.824464	-0.342749	0.156116
N159	N	1.377338	-0.806006	-0.292506
N160	N	1.877338	-0.306006	0.207494
H161	H	1.387771	-1.049065	-0.607419
H162	H	1.887771	-0.549065	-0.107419
C163	C	1.388308	-0.858082	-0.635887
C164	C	1.888308	-0.358082	-0.135887
N165	N	1.403916	-0.832195	-0.707965
N166	N	1.903916	-0.332195	-0.207965
C167	C	1.442022	-1.044646	-0.473646
C168	C	1.942022	-0.544646	0.026354
N169	N	1.497548	-1.067102	-0.425064
N170	N	1.997548	-0.567102	0.074936
C171	C	1.444708	-0.841778	-0.480880
C172	C	1.944708	-0.341778	0.019120
N173	N	1.502792	-0.803633	-0.436205
N174	N	2.002792	-0.303633	0.063795
