data_functionalizedCrystal
_audit_creation_method	'MofGen! by Chris Wilmer'
_symmetry_space_group_name_H-M	'P1'
_symmetry_Int_Tables_number	1
_symmetry_cell_setting	triclinic
loop_
_symmetry_equiv_pos_as_xyz
  x,y,z
_cell_length_a	12.837943
_cell_length_b	10.654541
_cell_length_c	11.892095
_cell_angle_alpha	93.927124
_cell_angle_beta	85.689438
_cell_angle_gamma	89.656434
loop_
_atom_site_label
_atom_site_type_symbol
_atom_site_fract_x
_atom_site_fract_y
_atom_site_fract_z
O1	O	1.384375	0.319511	-0.093982
O2	O	1.082454	0.303370	-0.093989
O3	O	1.240357	0.129459	-0.093979
O4	O	1.226472	0.493422	-0.093993
O5	O	1.227191	0.143935	0.094028
O6	O	1.069288	0.317845	0.094017
O7	O	1.371209	0.333987	0.094024
Zn8	Zn	1.218158	0.328214	0.123871
Zn9	Zn	1.235505	0.309142	-0.123836
O10	O	1.213306	0.507897	0.094014
C11	C	1.037212	0.305155	0.000013
C12	C	0.922018	0.288892	0.000011
C13	C	0.682463	0.484397	0.000020
C14	C	0.574228	0.469123	0.000018
C15	C	0.597309	0.243071	0.000015
C16	C	0.705544	0.258345	0.000016
C17	C	0.748117	0.379012	0.000017
C18	C	0.856355	0.394285	0.000010
C19	C	0.879434	0.168234	0.000015
C20	C	0.771199	0.152960	0.000014
C21	C	1.232755	0.089788	0.000024
C22	C	1.229707	-0.049989	0.000022
C23	C	1.418522	-0.057354	0.000040
C24	C	1.511493	-0.126702	0.000052
C25	C	1.508622	-0.258033	0.000048
C26	C	1.412770	-0.320020	0.000030
C27	C	1.319799	-0.250672	0.000018
C28	C	1.322680	-0.119337	0.000025
C29	C	1.130987	-0.243308	-0.000008
C30	C	1.133855	-0.111975	0.000003
C31	C	1.035135	-0.305294	-0.000027
C32	C	0.942161	-0.235946	-0.000030
C33	C	0.945036	-0.104606	-0.000025
C34	C	1.040884	-0.042627	-0.000008
C35	C	1.416452	0.332202	0.000019
C36	C	1.531646	0.348464	0.000014
C37	C	1.220908	0.547569	0.000009
C38	C	1.223958	0.687344	0.000003
N39	N	1.206327	0.341231	0.292924
N40	N	1.247344	0.296117	-0.292889
C41	C	1.329669	0.205471	0.529580
C42	C	1.321407	0.214579	0.647922
C43	C	1.181537	0.368549	0.647950
C44	C	1.189799	0.359440	0.529609
C45	C	1.263869	0.277900	0.470428
C46	C	1.272135	0.268799	0.352085
C47	C	1.132260	0.422761	0.352116
C48	C	1.123998	0.431869	0.470457
H49	H	0.736519	0.054717	0.000026
H50	H	1.332449	0.202409	0.303900
C51	C	0.836739	-0.304131	-0.000049
H52	H	0.848345	-0.392278	-0.000049
H53	H	0.803011	-0.286133	-0.065611
H54	H	0.793826	-0.276061	0.065521
H55	H	1.389987	0.139087	0.481394
H56	H	0.717126	0.582649	0.000018
H57	H	0.520775	0.554939	0.000023
C58	C	1.393790	0.134911	0.712985
H59	H	1.439088	0.085053	0.660786
H60	H	1.352872	0.081654	0.759162
H61	H	1.434085	0.188882	0.759137
C62	C	0.550464	0.110353	0.000026
H63	H	0.476600	0.116356	0.000024
H64	H	0.568357	0.071463	0.065588
H65	H	0.577526	0.061366	-0.065544
H66	H	0.869327	-0.048151	-0.000040
H67	H	0.932903	0.082421	0.000005
H68	H	1.420868	0.049584	0.000059
H69	H	1.589533	-0.076217	0.000077
C70	C	1.044051	0.101833	-0.000010
H71	H	1.114450	0.128811	-0.000008
H72	H	1.005235	0.137956	0.065543
H73	H	1.014438	0.127851	-0.065590
H74	H	0.891016	0.492538	0.000013
H75	H	1.584328	-0.314497	0.000049
C76	C	1.100067	0.458229	0.713062
H77	H	1.104576	0.453279	0.792013
H78	H	1.032081	0.434761	0.693683
H79	H	1.113297	0.541986	0.693672
H80	H	1.410442	-0.426958	0.000013
C81	C	1.031975	-0.449755	-0.000028
H82	H	1.101071	-0.482180	-0.000006
H83	H	1.001055	-0.483154	-0.065593
H84	H	0.991859	-0.473053	0.065539
C85	C	1.042533	0.521561	0.535562
H86	H	1.047039	0.516620	0.614514
H87	H	0.974545	0.498099	0.516183
H88	H	1.055771	0.605314	0.516163
H89	H	1.078684	0.481742	0.303941
