data_functionalizedCrystal
_audit_creation_method	'MofGen! by Chris Wilmer'
_symmetry_space_group_name_H-M	'P1'
_symmetry_Int_Tables_number	1
_symmetry_cell_setting	triclinic
loop_
_symmetry_equiv_pos_as_xyz
  x,y,z
_cell_length_a	19.188925
_cell_length_b	19.188925
_cell_length_c	7.540329
_cell_angle_alpha	90.003232
_cell_angle_beta	89.996095
_cell_angle_gamma	96.857451
loop_
_atom_site_label
_atom_site_type_symbol
_atom_site_fract_x
_atom_site_fract_y
_atom_site_fract_z
O1	O	0.926144	-0.087149	-0.147519
O2	O	1.259477	0.246185	0.185814
O3	O	1.592811	0.579518	0.519147
O4	O	0.722832	-0.098887	-0.147514
O5	O	1.056165	0.234446	0.185819
O6	O	1.389499	0.567780	0.519152
O7	O	0.830357	0.008638	-0.147507
O8	O	1.163690	0.341972	0.185826
O9	O	1.497024	0.675305	0.519160
O10	O	0.818619	-0.194674	-0.147527
O11	O	1.151952	0.138660	0.185807
O12	O	1.485286	0.471993	0.519140
O13	O	0.830351	0.008640	0.147458
O14	O	1.163684	0.341973	0.480792
O15	O	1.497017	0.675306	0.814125
O16	O	0.722826	-0.098886	0.147451
O17	O	1.056159	0.234448	0.480784
O18	O	1.389492	0.567781	0.814117
O19	O	0.926138	-0.087147	0.147446
O20	O	1.259471	0.246186	0.480779
O21	O	1.592804	0.579519	0.814112
Cu22	Cu	0.824481	-0.093016	0.174381
Cu23	Cu	1.157814	0.240317	0.507714
Cu24	Cu	1.491148	0.573650	0.841048
Cu25	Cu	0.824489	-0.093018	-0.174449
Cu26	Cu	1.157822	0.240315	0.158884
Cu27	Cu	1.491155	0.573649	0.492217
O28	O	0.818613	-0.194673	0.147438
O29	O	1.151946	0.138661	0.480772
O30	O	1.485279	0.471994	0.814105
C31	C	0.696818	-0.098507	-0.000031
C32	C	1.030151	0.234827	0.333302
C33	C	1.363484	0.568160	0.666636
C34	C	0.619313	-0.097368	-0.000029
C35	C	0.952646	0.235966	0.333304
C36	C	1.285980	0.569299	0.666638
C37	C	0.057542	-0.152832	-0.000038
C38	C	0.390875	0.180502	0.333295
C39	C	0.724208	0.513835	0.666628
C40	C	0.130365	-0.153908	-0.000048
C41	C	0.463698	0.179425	0.333285
C42	C	0.797032	0.512758	0.666618
C43	C	0.175301	-0.090816	-0.000039
C44	C	0.508634	0.242517	0.333295
C45	C	0.841967	0.575851	0.666628
C46	C	0.147408	-0.026642	-0.000065
C47	C	0.480741	0.306691	0.333268
C48	C	0.814074	0.640024	0.666601
C49	C	0.074586	-0.025568	-0.000073
C50	C	0.407919	0.307766	0.333260
C51	C	0.741252	0.641099	0.666593
N52	N	0.295976	-0.045139	0.100374
N53	N	0.629310	0.288194	0.433707
N54	N	0.962643	0.621527	0.767040
N55	N	0.365154	-0.046164	0.100385
N56	N	0.698487	0.287169	0.433719
N57	N	1.031820	0.620502	0.767052
C58	C	0.394710	-0.094050	-0.000018
C59	C	0.728043	0.239283	0.333315
C60	C	1.061376	0.572617	0.666648
N61	N	0.352474	-0.140882	-0.100411
N62	N	0.685807	0.192451	0.232922
N63	N	1.019140	0.525784	0.566255
N64	N	0.283290	-0.139859	-0.100415
N65	N	0.616623	0.193474	0.232918
N66	N	0.949956	0.526808	0.566252
C67	C	0.254265	-0.091974	-0.000031
C68	C	0.587598	0.241359	0.333302
C69	C	0.920931	0.574692	0.666636
C70	C	0.501557	-0.159387	-0.000015
C71	C	0.834891	0.173947	0.333319
C72	C	1.168224	0.507280	0.666652
C73	C	0.574382	-0.160461	-0.000035
C74	C	0.907716	0.172873	0.333298
C75	C	1.241049	0.506206	0.666631
C76	C	0.591424	-0.033193	-0.000035
C77	C	0.924757	0.300140	0.333299
C78	C	1.258091	0.633474	0.666632
C79	C	0.518600	-0.032121	-0.000032
C80	C	0.851934	0.301212	0.333301
C81	C	1.185267	0.634546	0.666635
C82	C	0.473671	-0.095220	-0.000013
C83	C	0.807004	0.238114	0.333320
C84	C	1.140338	0.571447	0.666653
C85	C	0.829974	0.034650	-0.000026
C86	C	1.163308	0.367983	0.333308
C87	C	1.496641	0.701317	0.666641
C88	C	0.828835	0.112155	-0.000029
C89	C	1.162169	0.445488	0.333304
C90	C	1.495502	0.778821	0.666638
C91	C	0.952152	-0.087528	-0.000041
C92	C	1.285485	0.245806	0.333292
C93	C	1.618819	0.579139	0.666625
C94	C	1.029657	-0.088667	-0.000055
C95	C	1.362990	0.244667	0.333278
C96	C	1.696323	0.578000	0.666612
C97	C	0.818995	-0.220684	-0.000047
C98	C	1.152329	0.112649	0.333287
C99	C	1.485662	0.445982	0.666620
C100	C	0.820134	-0.298189	-0.000055
C101	C	1.153468	0.035144	0.333278
C102	C	1.486801	0.368478	0.666612
C103	C	0.884299	0.673926	-0.000075
C104	C	1.217633	1.007259	0.333258
C105	C	1.550966	1.340593	0.666591
C106	C	0.885376	0.601103	-0.000059
C107	C	1.218709	0.934436	0.333274
C108	C	1.552043	1.267769	0.666607
C109	C	0.822284	0.556167	-0.000058
C110	C	1.155617	0.889500	0.333275
C111	C	1.488950	1.222834	0.666608
C112	C	0.758110	0.584060	-0.000028
C113	C	1.091443	0.917393	0.333306
C114	C	1.424777	1.250727	0.666639
C115	C	0.757035	0.656882	-0.000026
C116	C	1.090369	0.990215	0.333307
C117	C	1.423702	1.323549	0.666641
N118	N	0.776610	0.435485	-0.100456
N119	N	1.109943	0.768819	0.232878
N120	N	1.443276	1.102152	0.566211
N121	N	0.777635	0.366308	-0.100461
N122	N	1.110968	0.699641	0.232872
N123	N	1.444301	1.032975	0.566206
C124	C	0.825518	0.336758	-0.000060
C125	C	1.158851	0.670091	0.333274
C126	C	1.492184	1.003425	0.666607
N127	N	0.872347	0.379000	0.100325
N128	N	1.205681	0.712333	0.433659
N129	N	1.539014	1.045667	0.766992
N130	N	0.871324	0.448184	0.100323
N131	N	1.204657	0.781517	0.433656
N132	N	1.537991	1.114851	0.766989
C133	C	0.823442	0.477203	-0.000059
C134	C	1.156775	0.810536	0.333274
C135	C	1.490109	1.143870	0.666608
C136	C	0.890854	0.229910	-0.000060
C137	C	1.224188	0.563244	0.333273
C138	C	1.557521	0.896577	0.666607
C139	C	0.891928	0.157085	-0.000033
C140	C	1.225262	0.490419	0.333300
C141	C	1.558595	0.823752	0.666634
C142	C	0.764661	0.140044	-0.000019
C143	C	1.097994	0.473377	0.333314
C144	C	1.431327	0.806710	0.666647
C145	C	0.763589	0.212867	-0.000029
C146	C	1.096922	0.546201	0.333305
C147	C	1.430255	0.879534	0.666638
C148	C	0.826688	0.257797	-0.000057
C149	C	1.160021	0.591130	0.333276
C150	C	1.493354	0.924463	0.666609
N151	N	0.824481	-0.093015	0.419729
N152	N	1.157814	0.240318	0.753063
N153	N	1.491148	0.573652	1.086396
N154	N	0.824494	-0.093014	-0.419798
N155	N	1.157828	0.240319	-0.086465
N156	N	1.491161	0.573653	0.246869
H157	H	0.464974	-0.210766	-0.000003
H158	H	0.798307	0.122568	0.333330
H159	H	1.131641	0.455901	0.666664
H160	H	0.495897	0.020129	-0.000035
H161	H	0.829230	0.353463	0.333299
H162	H	1.162563	0.686796	0.666632
F163	F	0.639243	0.033955	-0.000047
F164	F	0.972576	0.367289	0.333286
F165	F	1.305910	0.700622	0.666619
H166	H	0.597084	-0.212714	-0.000037
H167	H	0.930417	0.120620	0.333297
H168	H	1.263751	0.453953	0.666630
H169	H	0.711338	0.235571	-0.000025
H170	H	1.044672	0.568904	0.333308
H171	H	1.378005	0.902238	0.666642
F172	F	0.960225	0.127409	-0.000059
F173	F	1.293559	0.460742	0.333275
F174	F	1.626892	0.794076	0.666608
H175	H	0.706740	0.547469	-0.000022
H176	H	1.040073	0.880802	0.333312
H177	H	1.373407	1.214135	0.666645
F178	F	0.951455	0.721739	-0.000092
F179	F	1.284789	1.055072	0.333242
F180	F	1.618122	1.388406	0.666575
F181	F	0.953672	0.571418	-0.000064
F182	F	1.287005	0.904752	0.333270
F183	F	1.620339	1.238085	0.666603
H184	H	0.942233	0.266494	-0.000082
H185	H	1.275567	0.599827	0.333251
H186	H	1.608900	0.933160	0.666584
H187	H	0.704783	0.679584	-0.000005
H188	H	1.038116	1.012918	0.333328
H189	H	1.371450	1.346251	0.666661
H190	H	0.020964	-0.204212	-0.000032
H191	H	0.354298	0.129121	0.333301
H192	H	0.687631	0.462455	0.666635
F193	F	0.160049	-0.222204	-0.000028
F194	F	0.493383	0.111129	0.333306
F195	F	0.826716	0.444462	0.666639
F196	F	0.697512	0.092225	0.000002
F197	F	1.030846	0.425558	0.333335
F198	F	1.364179	0.758891	0.666668
H199	H	0.051883	0.026685	-0.000087
H200	H	0.385217	0.360018	0.333246
H201	H	0.718550	0.693351	0.666579
F202	F	0.195232	0.040505	-0.000062
F203	F	0.528566	0.373838	0.333272
F204	F	0.861899	0.707171	0.666605
