data_functionalizedCrystal
_audit_creation_method	'MofGen! by Chris Wilmer'
_symmetry_space_group_name_H-M	'P1'
_symmetry_Int_Tables_number	1
_symmetry_cell_setting	triclinic
loop_
_symmetry_equiv_pos_as_xyz
  x,y,z
_cell_length_a	19.077399
_cell_length_b	19.077068
_cell_length_c	19.077314
_cell_angle_alpha	89.878373
_cell_angle_beta	94.665049
_cell_angle_gamma	94.530727
loop_
_atom_site_label
_atom_site_type_symbol
_atom_site_fract_x
_atom_site_fract_y
_atom_site_fract_z
Zn1	Zn	1.052326	-0.223299	-0.364730
Zn2	Zn	1.385659	0.110034	-0.031397
Zn3	Zn	1.718993	0.443368	0.301936
Zn4	Zn	1.051855	-0.345546	-0.251957
Zn5	Zn	1.385189	-0.012212	0.081377
Zn6	Zn	1.718522	0.321121	0.414710
Zn7	Zn	0.938797	-0.232407	-0.251964
Zn8	Zn	1.272130	0.100926	0.081370
Zn9	Zn	1.605463	0.434259	0.414703
Zn10	Zn	0.929288	-0.345510	-0.374525
Zn11	Zn	1.262621	-0.012176	-0.041192
Zn12	Zn	1.595955	0.321157	0.292141
O13	O	0.993067	-0.286690	-0.310794
O14	O	1.326400	0.046643	0.022539
O15	O	1.659733	0.379976	0.355873
O16	O	1.151071	-0.235718	-0.345668
O17	O	1.484404	0.097615	-0.012335
O18	O	1.817738	0.430948	0.320998
O19	O	1.040640	-0.334365	-0.153469
O20	O	1.373974	-0.001031	0.179865
O21	O	1.707307	0.332302	0.513198
O22	O	0.958033	-0.132705	-0.262826
O23	O	1.291366	0.200629	0.070507
O24	O	1.624700	0.533962	0.403841
O25	O	1.150725	-0.325533	-0.262814
O26	O	1.484058	0.007801	0.070519
O27	O	1.817392	0.341134	0.403853
O28	O	1.041443	-0.126013	-0.345675
O29	O	1.374776	0.207321	-0.012342
O30	O	1.708109	0.540654	0.320992
O31	O	0.957577	-0.251242	-0.153474
O32	O	1.290910	0.082091	0.179859
O33	O	1.624243	0.415424	0.513193
O34	O	0.838728	-0.251207	-0.272324
O35	O	1.172061	0.082126	0.061009
O36	O	1.505395	0.415459	0.394343
O37	O	0.941827	-0.325471	-0.471715
O38	O	1.275160	0.007862	-0.138381
O39	O	1.608493	0.341195	0.194952
O40	O	0.831742	-0.334303	-0.362370
O41	O	1.165075	-0.000970	-0.029036
O42	O	1.498409	0.332363	0.304297
O43	O	1.032222	-0.235683	-0.464518
O44	O	1.365556	0.097650	-0.131185
O45	O	1.698889	0.430983	0.202148
O46	O	1.031420	-0.444035	-0.272312
O47	O	1.364753	-0.110702	0.061021
O48	O	1.698087	0.222631	0.394355
O49	O	0.941370	-0.444009	-0.362363
O50	O	1.274704	-0.110676	-0.029029
O51	O	1.608037	0.222658	0.304304
C52	C	0.809615	-0.293740	-0.318411
C53	C	1.142949	0.039593	0.014923
C54	C	1.476282	0.372926	0.348256
C55	C	0.731133	-0.296773	-0.321687
C56	C	1.064466	0.036561	0.011647
C57	C	1.397800	0.369894	0.344980
C58	C	0.697878	-0.254863	-0.276415
C59	C	1.031212	0.078470	0.056918
C60	C	1.364545	0.411804	0.390252
C61	C	0.624135	-0.257718	-0.279493
C62	C	0.957469	0.075615	0.053840
C63	C	1.290802	0.408949	0.387174
C64	C	0.583648	-0.302480	-0.327847
C65	C	0.916982	0.030853	0.005486
C66	C	1.250315	0.364187	0.338820
C67	C	0.616908	-0.344394	-0.373121
C68	C	0.950241	-0.011061	-0.039787
C69	C	1.283575	0.322272	0.293546
C70	C	0.690650	-0.341542	-0.370039
C71	C	1.023983	-0.008209	-0.036705
C72	C	1.357316	0.325124	0.296628
C73	C	0.362716	-0.315660	-0.342081
C74	C	0.696050	0.017673	-0.008748
C75	C	1.029383	0.351007	0.324585
C76	C	0.288970	-0.318507	-0.345161
C77	C	0.622303	0.014826	-0.011828
C78	C	0.955636	0.348159	0.321505
C79	C	0.296202	-0.231832	-0.251532
C80	C	0.629536	0.101502	0.081801
C81	C	0.962869	0.434835	0.415134
C82	C	0.369945	-0.228981	-0.248457
C83	C	0.703278	0.104353	0.084876
C84	C	1.036612	0.437686	0.418209
C85	C	0.403198	-0.270898	-0.293729
C86	C	0.736532	0.062436	0.039605
C87	C	1.069865	0.395769	0.372938
N88	N	0.508271	-0.305398	-0.330996
N89	N	0.841604	0.027935	0.002337
N90	N	1.174938	0.361269	0.335671
N91	N	0.478574	-0.267983	-0.290576
N92	N	0.811907	0.065350	0.042758
N93	N	1.145241	0.398684	0.376091
C94	C	0.985331	-0.469559	-0.318414
C95	C	1.318664	-0.136226	0.014919
C96	C	1.651998	0.197107	0.348253
C97	C	0.982085	-0.547788	-0.321695
C98	C	1.315419	-0.214455	0.011638
C99	C	1.648752	0.118879	0.344972
C100	C	1.027478	-0.584528	-0.276387
C101	C	1.360811	-0.251194	0.056946
C102	C	1.694145	0.082139	0.390279
C103	C	1.024429	-0.658032	-0.279477
C104	C	1.357763	-0.324698	0.053856
C105	C	1.691096	0.008635	0.387189
C106	C	0.975984	-0.694795	-0.327871
C107	C	1.309317	-0.361461	0.005462
C108	C	1.642651	-0.028128	0.338795
C109	C	0.930589	-0.658050	-0.373184
C110	C	1.263922	-0.324716	-0.039850
C111	C	1.597256	0.008617	0.293483
C112	C	0.933642	-0.584547	-0.370097
C113	C	1.266975	-0.251214	-0.036764
C114	C	1.600308	0.082120	0.296570
C115	C	0.961826	-0.914626	-0.342130
C116	C	1.295160	-0.581292	-0.008797
C117	C	1.628493	-0.247959	0.324536
C118	C	0.958776	-0.988134	-0.345212
C119	C	1.292109	-0.654800	-0.011879
C120	C	1.625442	-0.321467	0.321454
C121	C	1.052617	-0.988110	-0.251506
C122	C	1.385950	-0.654777	0.081827
C123	C	1.719284	-0.321444	0.415160
C124	C	1.055663	-0.914606	-0.248421
C125	C	1.388996	-0.581273	0.084912
C126	C	1.722329	-0.247940	0.418246
C127	C	1.010270	-0.877868	-0.293736
C128	C	1.343604	-0.544534	0.039598
C129	C	1.676937	-0.211201	0.372931
N130	N	0.972865	-0.769928	-0.331029
N131	N	1.306198	-0.436594	0.002304
N132	N	1.639532	-0.103261	0.335637
N133	N	1.013393	-0.802736	-0.290581
N134	N	1.346727	-0.469402	0.042753
N135	N	1.680060	-0.136069	0.376086
C136	C	1.177234	-0.279613	-0.303148
C137	C	1.510567	0.053720	0.030186
C138	C	1.843901	0.387053	0.363519
C139	C	1.255715	-0.276598	-0.299889
C140	C	1.589048	0.056736	0.033444
C141	C	1.922382	0.390069	0.366777
C142	C	0.986016	-0.279557	-0.494368
C143	C	1.319350	0.053776	-0.161034
C144	C	1.652683	0.387109	0.172299
C145	C	0.983012	-0.276518	-0.572596
C146	C	1.316345	0.056816	-0.239262
C147	C	1.649679	0.390149	0.094071
C148	C	1.000851	-0.103106	-0.303159
C149	C	1.334184	0.230227	0.030175
C150	C	1.667518	0.563561	0.363508
C151	C	1.004168	-0.024873	-0.299905
C152	C	1.337502	0.308460	0.033428
C153	C	1.670835	0.641793	0.366762
C154	C	1.024844	-0.318365	-0.609348
C155	C	1.358177	0.014969	-0.276014
C156	C	1.691511	0.348302	0.057319
C157	C	1.022021	-0.315500	-0.682851
C158	C	1.355355	0.017833	-0.349518
C159	C	1.688688	0.351167	-0.016184
C160	C	0.977363	-0.270791	-0.719601
C161	C	1.310696	0.062542	-0.386268
C162	C	1.644029	0.395875	-0.052935
C163	C	0.935529	-0.228940	-0.682844
C164	C	1.268863	0.104394	-0.349511
C165	C	1.602196	0.437727	-0.016178
C166	C	0.938356	-0.231801	-0.609342
C167	C	1.271689	0.101532	-0.276009
C168	C	1.605023	0.434866	0.057325
C169	C	0.964275	-0.257589	-0.939429
C170	C	1.297608	0.075744	-0.606096
C171	C	1.630941	0.409077	-0.272763
C172	C	0.961450	-0.254733	-1.012937
C173	C	1.294783	0.078601	-0.679604
C174	C	1.628116	0.411934	-0.346270
C175	C	1.047943	-0.341292	-1.012939
C176	C	1.381276	-0.007959	-0.679605
C177	C	1.714610	0.325375	-0.346272
C178	C	1.050763	-0.344153	-0.939435
C179	C	1.384096	-0.010819	-0.606102
C180	C	1.717429	0.322514	-0.272769
C181	C	1.008932	-0.302298	-0.902684
C182	C	1.342265	0.031035	-0.569351
C183	C	1.675599	0.364368	-0.236018
N184	N	0.974475	-0.267864	-0.794734
N185	N	1.307808	0.065470	-0.461400
N186	N	1.641142	0.398803	-0.128067
N187	N	1.011824	-0.305223	-0.827553
N188	N	1.345157	0.028111	-0.494220
N189	N	1.678491	0.361444	-0.160886
C190	C	1.000132	-0.293743	-0.127931
C191	C	1.333465	0.039590	0.205403
C192	C	1.666799	0.372923	0.538736
C193	C	1.003281	-0.296580	-0.049689
C194	C	1.336615	0.036754	0.283644
C195	C	1.669948	0.370087	0.616978
H196	H	0.389782	-0.349792	-0.378944
H197	H	0.723115	-0.016458	-0.045611
H198	H	1.056449	0.316875	0.287722
H199	H	0.583937	-0.380844	-0.412488
H200	H	0.917271	-0.047510	-0.079155
H201	H	1.250604	0.285823	0.254178
H202	H	1.066925	-0.554600	-0.236977
H203	H	1.400258	-0.221267	0.096357
H204	H	1.733591	0.112067	0.429690
H205	H	0.402905	-0.192536	-0.209078
H206	H	0.736238	0.140797	0.124256
H207	H	1.069572	0.474131	0.457589
O208	O	1.073387	-0.697660	-0.230608
O209	O	1.406720	-0.364326	0.102725
O210	O	1.740053	-0.030993	0.436058
H211	H	1.064018	-0.686203	-0.175272
H212	H	1.397351	-0.352870	0.158061
H213	H	1.730685	-0.019536	0.491394
O214	O	0.906524	-1.027796	-0.397409
O215	O	1.239857	-0.694462	-0.064076
O216	O	1.573190	-0.361129	0.269258
H217	H	0.917059	-1.011057	-0.451565
H218	H	1.250392	-0.677724	-0.118231
H219	H	1.583725	-0.344391	0.215102
O220	O	0.878330	-0.697703	-0.425373
O221	O	1.211664	-0.364370	-0.092039
O222	O	1.544997	-0.031037	0.241294
H223	H	0.907133	-0.728552	-0.461296
H224	H	1.240466	-0.395219	-0.127962
H225	H	1.573800	-0.061885	0.205371
O226	O	0.919157	-0.212443	-0.899805
O227	O	1.252490	0.120891	-0.566471
O228	O	1.585824	0.454224	-0.233138
H229	H	0.883184	-0.246619	-0.869111
H230	H	1.216517	0.086715	-0.535777
H231	H	1.549850	0.420048	-0.202444
O232	O	1.067128	-0.360655	-0.722484
O233	O	1.400462	-0.027321	-0.389151
O234	O	1.733795	0.306012	-0.055817
H235	H	1.123601	-0.347022	-0.705571
H236	H	1.456934	-0.013688	-0.372237
H237	H	1.790267	0.319645	-0.038904
O238	O	1.107923	-0.874962	-0.196226
O239	O	1.441256	-0.541629	0.137107
O240	O	1.774589	-0.208295	0.470440
H241	H	1.097395	-0.891722	-0.142075
H242	H	1.430728	-0.558389	0.191258
H243	H	1.764062	-0.225056	0.524591
H244	H	0.924865	-0.884719	-0.379026
H245	H	1.258198	-0.551385	-0.045693
H246	H	1.591531	-0.218052	0.287641
H247	H	0.256007	-0.354957	-0.384541
H248	H	0.589340	-0.021624	-0.051208
H249	H	0.922673	0.311710	0.282125
H250	H	1.089574	-1.018031	-0.214615
H251	H	1.422907	-0.684697	0.118719
H252	H	1.756241	-0.351364	0.452052
O253	O	1.098947	-0.392357	-0.899795
O254	O	1.432280	-0.059024	-0.566462
O255	O	1.765613	0.274309	-0.233129
H256	H	1.127571	-0.420967	-0.937700
H257	H	1.460904	-0.087634	-0.604367
H258	H	1.794238	0.245700	-0.271033
H259	H	0.597063	-0.223595	-0.242624
H260	H	0.930396	0.109738	0.090709
H261	H	1.263730	0.443072	0.424043
O262	O	0.884675	-0.544916	-0.418956
O263	O	1.218009	-0.211582	-0.085622
O264	O	1.551342	0.121751	0.247711
H265	H	0.850468	-0.582827	-0.453120
H266	H	1.183802	-0.249494	-0.119786
H267	H	1.517135	0.083840	0.213547
H268	H	0.717724	-0.375670	-0.406904
H269	H	1.051057	-0.042336	-0.073571
H270	H	1.384391	0.290997	0.259763
H271	H	1.061212	-0.354769	-0.579431
H272	H	1.394546	-0.021436	-0.246097
H273	H	1.727879	0.311898	0.087236
H274	H	1.082001	-0.375366	-1.042869
H275	H	1.415334	-0.042033	-0.709536
H276	H	1.748667	0.291301	-0.376202
H277	H	0.925085	-0.218320	-1.042857
H278	H	1.258418	0.115013	-0.709523
H279	H	1.591751	0.448347	-0.376190
H280	H	0.899170	-0.192534	-0.712772
H281	H	1.232504	0.140799	-0.379439
H282	H	1.565837	0.474133	-0.046105
O283	O	0.260327	-0.186646	-0.202693
O284	O	0.593661	0.146687	0.130641
O285	O	0.926994	0.480021	0.463974
H286	H	0.227022	-0.150961	-0.234155
H287	H	0.560356	0.182372	0.099178
H288	H	0.893689	0.515706	0.432511
H289	H	0.730838	-0.218407	-0.237045
H290	H	1.064171	0.114926	0.096288
H291	H	1.397505	0.448259	0.429622
O292	O	0.893239	-0.186666	-0.569696
O293	O	1.226572	0.146667	-0.236363
O294	O	1.559906	0.480001	0.096970
H295	H	0.861706	-0.155100	-0.607599
H296	H	1.195039	0.178234	-0.274265
H297	H	1.528373	0.511567	0.059068
