data_functionalizedCrystal
_audit_creation_method	'MofGen! by Chris Wilmer'
_symmetry_space_group_name_H-M	'P1'
_symmetry_Int_Tables_number	1
_symmetry_cell_setting	triclinic
loop_
_symmetry_equiv_pos_as_xyz
  x,y,z
_cell_length_a	12.827893
_cell_length_b	12.827893
_cell_length_c	12.827885
_cell_angle_alpha	89.975139
_cell_angle_beta	90.021189
_cell_angle_gamma	89.998281
loop_
_atom_site_label
_atom_site_type_symbol
_atom_site_fract_x
_atom_site_fract_y
_atom_site_fract_z
Zn1	Zn	-1.597756	-0.416032	-0.590938
Zn2	Zn	-1.597686	-0.590810	-0.416213
Zn3	Zn	-1.422997	-0.416078	-0.416206
Zn4	Zn	-1.423019	-0.590726	-0.590907
O5	O	-1.510365	-0.503412	-0.503566
O6	O	-1.743983	-0.439233	-0.567776
O7	O	-1.574475	-0.567685	-0.269976
O8	O	-1.446200	-0.269836	-0.439394
O9	O	-1.743932	-0.567641	-0.439407
O10	O	-1.574594	-0.269802	-0.567769
O11	O	-1.446132	-0.439310	-0.269971
O12	O	-1.276764	-0.439230	-0.439364
O13	O	-1.446236	-0.567499	-0.737148
O14	O	-1.276780	-0.567543	-0.567717
O15	O	-1.574615	-0.439152	-0.737170
O16	O	-1.574496	-0.737035	-0.439377
O17	O	-1.446169	-0.736974	-0.567724
C18	C	-1.238855	-0.503383	-0.503537
C19	C	-1.122702	-0.503396	-0.503549
C20	C	-0.950847	-0.566849	-0.439956
C21	C	-1.070898	-0.566837	-0.439942
C22	C	-1.510356	-0.774921	-0.503571
C23	C	-1.510447	-0.891075	-0.503608
C24	C	-0.782935	-0.503432	-0.503587
C25	C	-0.899088	-0.503419	-0.503575
C26	C	-1.510436	-0.503311	-0.776136
C27	C	-1.510466	-0.503268	-0.892290
C28	C	-1.510402	-0.230841	-0.503584
C29	C	-1.510418	-0.114688	-0.503592
C30	C	-1.446931	-0.062873	-0.567099
C31	C	-1.446946	0.057177	-0.567108
C32	C	-1.573999	-0.439746	-0.944085
C33	C	-1.574031	-0.439700	-1.064136
C34	C	-1.510354	-0.503436	-0.232056
C35	C	-1.510526	-0.503184	-0.115904
H36	H	-1.115410	-0.621147	-0.385482
H37	H	-1.628363	-0.385392	-0.899553
O38	O	-1.638824	-0.374847	-1.117428
C39	C	-1.624444	-0.389250	-1.225427
H40	H	-1.543785	-0.423479	-1.240219
H41	H	-1.631511	-0.310996	-1.266987
H42	H	-1.686405	-0.444919	-1.256407
O43	O	-1.445777	-0.568123	-1.062662
C44	C	-1.505310	-0.635607	-0.999550
H45	H	-1.584521	-0.598749	-0.983321
H46	H	-1.462796	-0.649566	-0.922746
H47	H	-1.516753	-0.713073	-1.041548
H48	H	-1.078196	-0.449092	-0.558022
O49	O	-0.897855	-0.631684	-0.374891
C50	C	-0.969290	-0.690680	-0.315757
H51	H	-1.047117	-0.647935	-0.312125
H52	H	-0.937632	-0.701709	-0.233437
H53	H	-0.980884	-0.770099	-0.353890
O54	O	-1.575187	0.055812	-0.438603
C55	C	-1.552388	0.082368	-0.334416
H56	H	-1.468940	0.112458	-0.329084
H57	H	-1.561299	0.010507	-0.282869
H58	H	-1.608488	0.145610	-0.307047
H59	H	-1.564787	-0.070173	-0.449232
H60	H	-0.943651	-0.449102	-0.558026
O61	O	-1.382040	-0.115809	-0.632059
C62	C	-1.322994	-0.044323	-0.691090
H63	H	-1.365734	0.033507	-0.694787
H64	H	-1.311895	-0.075908	-0.773395
H65	H	-1.243607	-0.032763	-0.652826
O66	O	-1.382250	0.110375	-0.632087
C67	C	-1.441830	0.173550	-0.699516
H68	H	-1.524103	0.140587	-0.706007
H69	H	-1.404058	0.174930	-0.779934
H70	H	-1.445506	0.256217	-0.667135
O71	O	-1.445503	-0.568146	-0.945245
C72	C	-1.386444	-0.627239	-0.873776
H73	H	-1.382740	-0.584536	-0.795946
H74	H	-1.304144	-0.638338	-0.905385
H75	H	-1.424690	-0.706624	-0.862208
