data_functionalizedCrystal
_audit_creation_method	'MofGen! by Chris Wilmer'
_symmetry_space_group_name_H-M	'P1'
_symmetry_Int_Tables_number	1
_symmetry_cell_setting	triclinic
loop_
_symmetry_equiv_pos_as_xyz
  x,y,z
_cell_length_a	15.297327
_cell_length_b	14.908618
_cell_length_c	14.908308
_cell_angle_alpha	89.826377
_cell_angle_beta	102.308214
_cell_angle_gamma	83.009950
loop_
_atom_site_label
_atom_site_type_symbol
_atom_site_fract_x
_atom_site_fract_y
_atom_site_fract_z
Zn1	Zn	-0.470288	-1.259446	-0.664000
Zn2	Zn	0.029712	-0.759446	-0.164000
Zn3	Zn	-0.612817	-1.242009	-0.536789
Zn4	Zn	-0.112817	-0.742009	-0.036789
Zn5	Zn	-0.452976	-1.120922	-0.502182
Zn6	Zn	0.047024	-0.620922	-0.002182
Zn7	Zn	-0.611742	-1.083234	-0.678262
Zn8	Zn	-0.111742	-0.583234	-0.178262
O9	O	-0.536956	-1.176403	-0.595308
O10	O	-0.036956	-0.676403	-0.095308
O11	O	-0.496890	-1.381554	-0.655640
O12	O	0.003110	-0.881554	-0.155640
O13	O	-0.584819	-1.234422	-0.405271
O14	O	-0.084819	-0.734422	0.094729
O15	O	-0.329180	-1.162368	-0.503196
O16	O	0.170820	-0.662368	-0.003196
O17	O	-0.601606	-1.368743	-0.562179
O18	O	-0.101606	-0.868743	-0.062179
O19	O	-0.341899	-1.264141	-0.622083
O20	O	0.158101	-0.764141	-0.122083
O21	O	-0.467384	-1.145460	-0.379845
O22	O	0.032616	-0.645460	0.120155
O23	O	-0.466342	-0.991501	-0.517025
O24	O	0.033658	-0.491501	-0.017025
O25	O	-0.599773	-1.098133	-0.803298
O26	O	-0.099773	-0.598133	-0.303298
O27	O	-0.582986	-0.963812	-0.646390
O28	O	-0.082986	-0.463812	-0.146390
O29	O	-0.495848	-1.227596	-0.792820
O30	O	0.004152	-0.727596	-0.292820
O31	O	-0.738767	-1.197877	-0.576008
O32	O	-0.238767	-0.697877	-0.076008
O33	O	-0.737977	-1.081225	-0.679948
O34	O	-0.237977	-0.581225	-0.179948
C35	C	-0.522669	-0.945395	-0.579501
C36	C	-0.022669	-0.445395	-0.079501
C37	C	-0.516580	-0.846564	-0.572763
C38	C	-0.016580	-0.346564	-0.072763
C39	C	-0.626771	-0.632043	-0.694684
C40	C	-0.126771	-0.132043	-0.194684
C41	C	-0.621053	-0.539181	-0.688357
C42	C	-0.121053	-0.039181	-0.188357
C43	C	-0.499422	-0.567978	-0.553787
C44	C	0.000578	-0.067978	-0.053787
C45	C	-0.505140	-0.660840	-0.560114
C46	C	-0.005140	-0.160840	-0.060114
C47	C	-0.568818	-0.692868	-0.630564
C48	C	-0.068818	-0.192868	-0.130564
C49	C	-0.574540	-0.785731	-0.636886
C50	C	-0.074540	-0.285731	-0.136886
C51	C	-0.452906	-0.814527	-0.502321
C52	C	0.047094	-0.314527	-0.002321
C53	C	-0.447187	-0.721665	-0.495994
C54	C	0.052813	-0.221665	0.004006
C55	C	-0.771069	-1.133592	-0.633302
C56	C	-0.271069	-0.633592	-0.133302
C57	C	-0.871231	-1.115357	-0.649592
C58	C	-0.371231	-0.615357	-0.149592
C59	C	-1.155109	-1.307079	-0.479217
C60	C	-0.655109	-0.807079	0.020783
C61	C	-1.061003	-1.324212	-0.463908
C62	C	-0.561003	-0.824212	0.036092
C63	C	-1.013555	-1.272000	-0.510328
C64	C	-0.513555	-0.772000	-0.010328
C65	C	-1.060223	-1.202651	-0.572060
C66	C	-0.560223	-0.702651	-0.072060
C67	C	-1.154339	-1.185512	-0.587365
C68	C	-0.654339	-0.685512	-0.087365
C69	C	-1.012785	-1.150433	-0.618476
C70	C	-0.512785	-0.650433	-0.118476
C71	C	-1.059453	-1.081085	-0.680207
C72	C	-0.559453	-0.581085	-0.180207
C73	C	-1.153559	-1.063949	-0.695511
C74	C	-0.653559	-0.563949	-0.195511
C75	C	-1.201007	-1.116161	-0.649091
C76	C	-0.701007	-0.616161	-0.149091
C77	C	-0.918669	-1.167572	-0.603170
C78	C	-0.418669	-0.667572	-0.103170
C79	C	-0.917899	-1.046006	-0.711318
C80	C	-0.417899	-0.546006	-0.211318
C81	C	-1.012005	-1.028873	-0.726627
C82	C	-0.512005	-0.528873	-0.226627
C83	C	-0.301931	-1.219404	-0.557188
C84	C	0.198069	-0.719404	-0.057188
C85	C	-0.201777	-1.237728	-0.540943
C86	C	0.298223	-0.737728	-0.040943
C87	C	-0.549621	-1.160606	-0.831890
C88	C	-0.049621	-0.660606	-0.331890
C89	C	-0.555019	-1.153874	-0.932708
C90	C	-0.055019	-0.653874	-0.432708
C91	C	-0.551292	-0.408314	-0.611171
C92	C	-0.051292	0.091686	-0.111171
C93	C	-0.557381	-0.507145	-0.617910
C94	C	-0.057381	-0.007145	-0.117910
C95	C	-0.456922	-1.276035	-1.111241
C96	C	0.043078	-0.776035	-0.611241
C97	C	-0.461990	-1.269713	-1.205967
C98	C	0.038010	-0.769713	-0.705967
C99	C	-0.570218	-1.134906	-1.216887
C100	C	-0.070218	-0.634906	-0.716887
C101	C	-0.565150	-1.141227	-1.122161
C102	C	-0.065150	-0.641227	-0.622161
C103	C	-0.508501	-1.211795	-1.069341
C104	C	-0.008501	-0.711795	-0.569341
C105	C	-0.503438	-1.218120	-0.974614
C106	C	-0.003438	-0.718120	-0.474614
C107	C	-0.611660	-1.083309	-0.985535
C108	C	-0.111660	-0.583309	-0.485535
C109	C	-0.616729	-1.076988	-1.080261
C110	C	-0.116729	-0.576988	-0.580261
C111	C	-0.524278	-1.192201	-0.359640
C112	C	-0.024278	-0.692201	0.140360
C113	C	-0.518637	-1.199152	-0.258794
C114	C	-0.018637	-0.699152	0.241206
H115	H	-0.405718	-0.864061	-0.450108
H116	H	0.094282	-0.364061	0.049892
H117	H	-0.457313	-1.275581	-0.931609
H118	H	0.042687	-0.775581	-0.431609
F119	F	-1.011342	-1.398020	-0.398218
F120	F	-0.511342	-0.898020	0.101782
H121	H	-0.662849	-1.019532	-1.123280
H122	H	-0.162849	-0.519532	-0.623280
F123	F	-0.694547	-0.666131	-0.769653
F124	F	-0.194547	-0.166131	-0.269653
F125	F	-0.867406	-0.990430	-0.760719
F126	F	-0.367406	-0.490430	-0.260719
H127	H	-0.653662	-1.031002	-0.951411
H128	H	-0.153662	-0.531002	-0.451411
H129	H	-0.668242	-0.489659	-0.740571
H130	H	-0.168242	0.010341	-0.240571
H131	H	-0.447574	-0.541884	-0.496435
H132	H	0.052426	-0.041884	0.003565
H133	H	-1.050016	-0.972409	-0.776890
H134	H	-0.550016	-0.472409	-0.276890
F135	F	-1.301134	-1.097667	-0.665074
F136	F	-0.801134	-0.597667	-0.165074
F137	F	-0.379418	-0.687568	-0.421024
F138	F	0.120582	-0.187568	0.078976
F139	F	-0.913420	-1.290413	-0.494240
F140	F	-0.413420	-0.790413	0.005760
F141	F	-0.642312	-0.819816	-0.711862
F142	F	-0.142312	-0.319816	-0.211862
H143	H	-0.410801	-1.333498	-1.068235
H144	H	0.089199	-0.833498	-0.568235
F145	F	-1.205611	-1.362636	-0.429819
F146	F	-0.705611	-0.862636	0.070181
F147	F	-0.869012	-1.241375	-0.537472
F148	F	-0.369012	-0.741375	-0.037472
F149	F	-0.630496	-1.059804	-1.273115
F150	F	-0.130496	-0.559804	-0.773115
F151	F	-1.203224	-0.990139	-0.761207
F152	F	-0.703224	-0.490139	-0.261207
H153	H	-0.419987	-1.322022	-1.240077
H154	H	0.080013	-0.822022	-0.740077
