data_functionalizedCrystal
_audit_creation_method	'MofGen! by Chris Wilmer'
_symmetry_space_group_name_H-M	'P1'
_symmetry_Int_Tables_number	1
_symmetry_cell_setting	triclinic
loop_
_symmetry_equiv_pos_as_xyz
  x,y,z
_cell_length_a	16.109301
_cell_length_b	16.109301
_cell_length_c	15.186229
_cell_angle_alpha	90.005167
_cell_angle_beta	90.000638
_cell_angle_gamma	83.461481
loop_
_atom_site_label
_atom_site_type_symbol
_atom_site_fract_x
_atom_site_fract_y
_atom_site_fract_z
O1	O	-1.103131	-0.106866	-0.073176
O2	O	-0.853131	0.143134	0.176824
O3	O	-0.603131	0.393134	0.426824
O4	O	-0.353131	0.643134	0.676824
O5	O	-0.861069	-0.120165	-0.073190
O6	O	-0.611069	0.129835	0.176810
O7	O	-0.361069	0.379835	0.426810
O8	O	-0.111069	0.629835	0.676810
O9	O	-0.988749	0.007515	-0.073174
O10	O	-0.738749	0.257515	0.176826
O11	O	-0.488749	0.507515	0.426826
O12	O	-0.238749	0.757515	0.676826
O13	O	-0.975450	-0.234547	-0.073192
O14	O	-0.725450	0.015453	0.176808
O15	O	-0.475450	0.265453	0.426808
O16	O	-0.225450	0.515453	0.676808
O17	O	-0.988741	0.007517	0.073284
O18	O	-0.738741	0.257517	0.323284
O19	O	-0.488741	0.507517	0.573284
O20	O	-0.238741	0.757517	0.823284
O21	O	-0.861060	-0.120164	0.073267
O22	O	-0.611060	0.129836	0.323267
O23	O	-0.361060	0.379836	0.573267
O24	O	-0.111060	0.629836	0.823267
O25	O	-1.103122	-0.106864	0.073282
O26	O	-0.853122	0.143136	0.323282
O27	O	-0.603122	0.393136	0.573282
O28	O	-0.353122	0.643136	0.823282
Zn29	Zn	-0.982090	-0.113514	0.096528
Zn30	Zn	-0.732090	0.136486	0.346528
Zn31	Zn	-0.482090	0.386486	0.596528
Zn32	Zn	-0.232090	0.636486	0.846528
Zn33	Zn	-0.982101	-0.113516	-0.096436
Zn34	Zn	-0.732101	0.136484	0.153564
Zn35	Zn	-0.482101	0.386484	0.403564
Zn36	Zn	-0.232101	0.636484	0.653564
O37	O	-0.975441	-0.234545	0.073265
O38	O	-0.725441	0.015455	0.323265
O39	O	-0.475441	0.265455	0.573265
O40	O	-0.225441	0.515455	0.823265
C41	C	-0.830090	-0.119626	0.000037
C42	C	-0.580090	0.130374	0.250037
C43	C	-0.330090	0.380374	0.500037
C44	C	-0.080090	0.630374	0.750037
C45	C	-0.737794	-0.118011	0.000032
C46	C	-0.487794	0.131989	0.250032
C47	C	-0.237794	0.381989	0.500032
C48	C	0.012206	0.631989	0.750032
C49	C	-0.988206	0.038491	0.000056
C50	C	-0.738206	0.288491	0.250056
C51	C	-0.488206	0.538491	0.500056
C52	C	-0.238206	0.788491	0.750056
C53	C	-0.986591	0.130786	0.000057
C54	C	-0.736591	0.380786	0.250057
C55	C	-0.486591	0.630786	0.500057
C56	C	-0.236591	0.880786	0.750057
C57	C	-1.134101	-0.107404	0.000053
C58	C	-0.884101	0.142596	0.250053
C59	C	-0.634101	0.392596	0.500053
C60	C	-0.384101	0.642596	0.750053
C61	C	-1.226397	-0.109019	0.000052
C62	C	-0.976397	0.140981	0.250052
C63	C	-0.726397	0.390981	0.500052
C64	C	-0.476397	0.640981	0.750052
C65	C	-0.975984	-0.265521	0.000034
C66	C	-0.725984	-0.015521	0.250034
C67	C	-0.475984	0.234479	0.500034
C68	C	-0.225984	0.484479	0.750034
C69	C	-0.977600	-0.357816	0.000027
C70	C	-0.727600	-0.107816	0.250027
C71	C	-0.477600	0.142184	0.500027
C72	C	-0.227600	0.392184	0.750027
C73	C	-0.515522	-0.190018	0.000036
C74	C	-0.265522	0.059982	0.250036
C75	C	-0.015522	0.309982	0.500036
C76	C	0.234478	0.559982	0.750036
C77	C	-0.428801	-0.188494	0.000042
C78	C	-0.178801	0.061506	0.250042
C79	C	0.071199	0.311506	0.500042
C80	C	0.321199	0.561506	0.750042
C81	C	-0.448676	-0.037006	0.000050
C82	C	-0.198676	0.212994	0.250050
C83	C	0.051324	0.462994	0.500050
C84	C	0.301324	0.712994	0.750050
C85	C	-0.535394	-0.038530	0.000051
C86	C	-0.285394	0.211470	0.250051
C87	C	-0.035394	0.461470	0.500051
C88	C	0.214606	0.711470	0.750051
C89	C	-0.568815	-0.115039	0.000039
C90	C	-0.318815	0.134961	0.250039
C91	C	-0.068815	0.384961	0.500039
C92	C	0.181185	0.634961	0.750039
C93	C	-0.395376	-0.111990	0.000045
C94	C	-0.145376	0.138010	0.250045
C95	C	0.104624	0.388010	0.500045
C96	C	0.354624	0.638010	0.750045
C97	C	-0.301350	-0.110337	0.000051
C98	C	-0.051350	0.139663	0.250051
C99	C	0.198650	0.389663	0.500051
C100	C	0.448650	0.639663	0.750051
C101	C	-0.662847	-0.116693	0.000035
C102	C	-0.412847	0.133307	0.250035
C103	C	-0.162847	0.383307	0.500035
C104	C	0.087153	0.633307	0.750035
N105	N	-0.982088	-0.113511	0.228220
N106	N	-0.732088	0.136489	0.478220
N107	N	-0.482088	0.386489	0.728220
N108	N	-0.232088	0.636489	0.978220
C109	C	-1.058599	0.353059	0.000047
C110	C	-0.808599	0.603059	0.250047
C111	C	-0.558599	0.853059	0.500047
C112	C	-0.308599	1.103059	0.750047
C113	C	-1.057075	0.439779	0.000040
C114	C	-0.807075	0.689779	0.250040
C115	C	-0.557075	0.939779	0.500040
C116	C	-0.307075	1.189779	0.750040
C117	C	-0.905586	0.419905	0.000034
C118	C	-0.655586	0.669905	0.250034
C119	C	-0.405586	0.919905	0.500034
C120	C	-0.155586	1.169905	0.750034
C121	C	-0.907111	0.333186	0.000035
C122	C	-0.657111	0.583186	0.250035
C123	C	-0.407111	0.833186	0.500035
C124	C	-0.157111	1.083186	0.750035
C125	C	-0.983620	0.299766	0.000046
C126	C	-0.733620	0.549766	0.250046
C127	C	-0.483620	0.799766	0.500046
C128	C	-0.233620	1.049766	0.750046
C129	C	-0.980571	0.473205	0.000038
C130	C	-0.730571	0.723205	0.250038
C131	C	-0.480571	0.973205	0.500038
C132	C	-0.230571	1.223205	0.750038
C133	C	-0.978918	0.567231	0.000030
C134	C	-0.728918	0.817231	0.250030
C135	C	-0.478918	1.067231	0.500030
C136	C	-0.228918	1.317231	0.750030
C137	C	-0.985273	0.205734	0.000052
C138	C	-0.735273	0.455734	0.250052
C139	C	-0.485273	0.705734	0.500052
C140	C	-0.235273	0.955734	0.750052
N141	N	-0.982109	-0.113512	-0.228129
N142	N	-0.732109	0.136488	0.021871
N143	N	-0.482109	0.386488	0.271871
N144	N	-0.232109	0.636488	0.521871
C145	C	-1.038644	-0.056994	0.453950
C146	C	-0.788644	0.193006	0.703950
C147	C	-0.538644	0.443006	0.953950
C148	C	-0.288644	0.693006	1.203950
C149	C	-1.038647	-0.056992	0.546140
C150	C	-0.788647	0.193008	0.796140
C151	C	-0.538647	0.443008	1.046140
C152	C	-0.288647	0.693008	1.296140
C153	C	-0.925547	-0.170032	0.546135
C154	C	-0.675547	0.079968	0.796135
C155	C	-0.425547	0.329968	1.046135
C156	C	-0.175547	0.579968	1.296135
C157	C	-0.925541	-0.170030	0.453947
C158	C	-0.675541	0.079970	0.703947
C159	C	-0.425541	0.329970	0.953947
C160	C	-0.175541	0.579970	1.203947
C161	C	-0.982094	-0.113511	0.407857
C162	C	-0.732094	0.136489	0.657857
C163	C	-0.482094	0.386489	0.907857
C164	C	-0.232094	0.636489	1.157857
C165	C	-0.982103	-0.113512	0.592235
C166	C	-0.732103	0.136488	0.842235
C167	C	-0.482103	0.386488	1.092235
C168	C	-0.232103	0.636488	1.342235
C169	C	-0.982105	-0.113510	0.692191
C170	C	-0.732105	0.136490	0.942191
C171	C	-0.482105	0.386490	1.192191
C172	C	-0.232105	0.636490	1.442191
C173	C	-0.982091	-0.113512	0.307894
C174	C	-0.732091	0.136488	0.557894
C175	C	-0.482091	0.386488	0.807894
C176	C	-0.232091	0.636488	1.057894
H177	H	-0.542730	-0.252317	0.000034
H178	H	-0.292730	-0.002317	0.250034
H179	H	-0.042730	0.247683	0.500034
H180	H	0.207270	0.497683	0.750034
H181	H	-1.120897	0.325851	0.000054
H182	H	-0.870897	0.575851	0.250054
H183	H	-0.620897	0.825851	0.500054
H184	H	-0.370897	1.075851	0.750054
H185	H	-1.118130	0.483168	0.000039
H186	H	-0.868130	0.733168	0.250039
H187	H	-0.618130	0.983168	0.500039
H188	H	-0.368130	1.233168	0.750039
Cl189	Cl	-0.361807	-0.282758	0.000039
Cl190	Cl	-0.111807	-0.032758	0.250039
Cl191	Cl	0.138193	0.217242	0.500039
Cl192	Cl	0.388193	0.467242	0.750039
H193	H	-0.843295	0.447127	0.000027
H194	H	-0.593295	0.697127	0.250027
H195	H	-0.343295	0.947127	0.500027
H196	H	-0.093295	1.197127	0.750027
Cl197	Cl	-0.812844	0.266184	0.000026
Cl198	Cl	-0.562844	0.516184	0.250026
Cl199	Cl	-0.312844	0.766184	0.500026
Cl200	Cl	-0.062844	1.016184	0.750026
Cl201	Cl	-1.109740	0.014064	0.604084
Cl202	Cl	-0.859740	0.264064	0.854084
Cl203	Cl	-0.609740	0.514064	1.104084
Cl204	Cl	-0.359740	0.764064	1.354084
Cl205	Cl	-0.854458	-0.241084	0.604080
Cl206	Cl	-0.604458	0.008916	0.854080
Cl207	Cl	-0.354458	0.258916	1.104080
Cl208	Cl	-0.104458	0.508916	1.354080
H209	H	-0.879487	-0.216053	0.416415
H210	H	-0.629487	0.033947	0.666415
H211	H	-0.379487	0.283947	0.916415
H212	H	-0.129487	0.533947	1.166415
H213	H	-0.421454	0.025285	0.000065
H214	H	-0.171454	0.275285	0.250065
H215	H	0.078546	0.525285	0.500065
H216	H	0.328546	0.775285	0.750065
H217	H	-1.084692	-0.010972	0.416426
H218	H	-0.834692	0.239028	0.666426
H219	H	-0.584692	0.489028	0.916426
H220	H	-0.334692	0.739028	1.166426
H221	H	-0.578788	0.022530	0.000056
H222	H	-0.328788	0.272530	0.250056
H223	H	-0.078788	0.522530	0.500056
H224	H	0.171212	0.772530	0.750056
