data_functionalizedCrystal
_audit_creation_method	'MofGen! by Chris Wilmer'
_symmetry_space_group_name_H-M	'P1'
_symmetry_Int_Tables_number	1
_symmetry_cell_setting	triclinic
loop_
_symmetry_equiv_pos_as_xyz
  x,y,z
_cell_length_a	6.394989
_cell_length_b	17.699097
_cell_length_c	16.776229
_cell_angle_alpha	89.989262
_cell_angle_beta	89.996513
_cell_angle_gamma	84.893071
loop_
_atom_site_label
_atom_site_type_symbol
_atom_site_fract_x
_atom_site_fract_y
_atom_site_fract_z
O1	O	0.264264	1.006769	-0.066349
O2	O	0.298599	0.786742	-0.066336
O3	O	-0.022649	0.899879	-0.066344
O4	O	0.585511	0.893633	-0.066342
O5	O	-0.022668	0.899863	0.066233
O6	O	0.298579	0.786727	0.066241
O7	O	0.264244	1.006753	0.066227
Zn8	Zn	0.281408	0.896738	0.087283
Zn9	Zn	0.281434	0.896758	-0.087392
O10	O	0.585491	0.893617	0.066235
C11	C	0.297354	0.758525	-0.000046
C12	C	0.293649	0.674470	-0.000041
C13	C	0.270949	0.158528	-0.072341
C14	C	0.274416	0.237508	-0.072337
C15	C	0.276143	0.276983	-0.000066
C16	C	0.274380	0.237475	0.072206
C17	C	0.270898	0.158498	0.072201
C18	C	0.288420	0.555983	0.072227
C19	C	0.291908	0.634965	0.072226
C20	C	0.291938	0.634993	-0.072311
C21	C	0.288456	0.556015	-0.072316
C22	C	0.286683	0.516515	-0.000045
C23	C	0.282919	0.430876	-0.000050
C24	C	0.279921	0.362619	-0.000060
C25	C	0.663316	0.894860	-0.000057
C26	C	0.899532	0.898634	-0.000060
C27	C	0.265489	1.034971	-0.000064
C28	C	0.269194	1.119026	-0.000075
N29	N	0.281389	0.896729	0.206495
N30	N	0.281437	0.896772	-0.206603
C31	C	0.139199	0.946842	0.248208
C32	C	0.139197	0.946846	0.331660
C33	C	0.281397	0.896741	0.373397
C34	C	0.423594	0.846622	0.331678
C35	C	0.423584	0.846615	0.248227
C36	C	0.423635	0.846650	0.668225
C37	C	0.423638	0.846663	0.751682
C38	C	0.139248	0.946881	0.751658
C39	C	0.139238	0.946874	0.668208
C40	C	0.281427	0.896753	0.626495
C41	C	0.281424	0.896748	0.536007
C42	C	0.281411	0.896749	0.463884
H43	H	0.293373	0.667164	-0.131157
H44	H	0.539439	0.805858	0.785663
H45	H	0.539367	0.805807	0.214265
H46	H	0.023414	0.987651	0.365623
H47	H	0.287061	0.523878	-0.131166
O48	O	0.293469	0.673200	0.142505
C49	C	0.291203	0.621400	0.206294
H50	H	0.222628	0.567609	0.185105
H51	H	0.458320	0.606654	0.228524
C52	C	0.239839	0.723468	0.300589
C53	C	0.155597	0.657402	0.274566
H54	H	0.156200	0.745676	0.342704
H55	H	0.241374	0.758367	0.257614
H56	H	0.379101	0.711170	0.319108
H57	H	0.016349	0.669702	0.256038
H58	H	0.154037	0.622506	0.317540
O59	O	0.276155	0.275932	0.142339
C60	C	0.279559	0.354113	0.126849
H61	H	0.346144	0.362410	0.064740
H62	H	0.113051	0.382869	0.130275
C63	C	0.336479	0.379269	0.265482
C64	C	0.418276	0.389460	0.189202
H65	H	0.422038	0.401074	0.303946
H66	H	0.334178	0.326598	0.275919
H67	H	0.197724	0.403232	0.268326
H68	H	0.557018	0.365489	0.186356
H69	H	0.420604	0.442128	0.178766
O70	O	0.269294	0.120236	0.142471
C71	C	0.271513	0.172013	0.206261
H72	H	0.340105	0.225812	0.185080
H73	H	0.104379	0.186752	0.228479
C74	C	0.322803	0.069912	0.300557
C75	C	0.407066	0.135986	0.274543
H76	H	0.406409	0.047688	0.342679
H77	H	0.321300	0.035028	0.257581
H78	H	0.183527	0.082203	0.319066
H79	H	0.546328	0.123692	0.256025
H80	H	0.408595	0.170867	0.317518
H81	H	0.539414	0.805841	0.634270
H82	H	0.023412	0.987647	0.214231
O83	O	0.561650	0.798021	0.372342
C84	C	0.531142	0.808761	0.454943
H85	H	0.452879	0.868187	0.466326
H86	H	0.426529	0.764931	0.478645
C87	C	0.840976	0.726436	0.483799
C88	C	0.744869	0.799427	0.497780
H89	H	0.972810	0.720675	0.510224
H90	H	0.861527	0.719198	0.428149
H91	H	0.753777	0.689919	0.503550
H92	H	0.832055	0.835941	0.478020
H93	H	0.724337	0.806671	0.553428
H94	H	0.275833	0.269667	-0.131183
O95	O	0.269194	0.120305	-0.142617
C96	C	0.271541	0.172109	-0.206399
H97	H	0.207914	0.230904	-0.185209
H98	H	0.439414	0.174174	-0.228617
C99	C	0.211431	0.074273	-0.300710
C100	C	0.133266	0.146485	-0.274685
H101	H	0.126145	0.058466	-0.342834
H102	H	0.209858	0.039370	-0.257740
H103	H	0.351324	0.076003	-0.319219
H104	H	-0.006614	0.144752	-0.256167
H105	H	0.134812	0.181386	-0.317654
O106	O	0.000902	0.995573	0.627789
C107	C	-0.124570	1.039818	0.682502
H108	H	-0.126819	1.008775	0.741999
H109	H	-0.056941	1.096685	0.691356
C110	C	-0.347187	1.091394	0.576862
C111	C	-0.349963	1.053263	0.649936
H112	H	-0.486218	1.099690	0.556774
H113	H	-0.262650	1.061587	0.540000
H114	H	-0.290820	1.138778	0.584250
H115	H	-0.406305	1.005875	0.642546
H116	H	-0.434516	1.083062	0.686797
H117	H	0.023464	0.987690	0.785629
H118	H	0.286945	0.523832	0.131074
