data_functionalizedCrystal
_audit_creation_method	'MofGen! by Chris Wilmer'
_symmetry_space_group_name_H-M	'P1'
_symmetry_Int_Tables_number	1
_symmetry_cell_setting	triclinic
loop_
_symmetry_equiv_pos_as_xyz
  x,y,z
_cell_length_a	23.532407
_cell_length_b	11.792241
_cell_length_c	10.868271
_cell_angle_alpha	89.998441
_cell_angle_beta	90.001016
_cell_angle_gamma	83.521047
loop_
_atom_site_label
_atom_site_type_symbol
_atom_site_fract_x
_atom_site_fract_y
_atom_site_fract_z
O1	O	-0.756076	-0.137765	0.102169
O2	O	-0.590331	-0.157700	0.102205
O3	O	-0.677226	0.017533	0.102178
O4	O	-0.669181	-0.312998	0.102197
O5	O	-0.677218	0.017527	-0.102467
O6	O	-0.590323	-0.157705	-0.102439
O7	O	-0.756068	-0.137771	-0.102475
Zn8	Zn	-0.673194	-0.147739	-0.134949
Zn9	Zn	-0.673205	-0.147732	0.134679
O10	O	-0.669173	-0.313003	-0.102448
C11	C	-0.569108	-0.157195	-0.000112
C12	C	-0.505882	-0.155669	-0.000099
C13	C	-0.676716	0.059809	-0.000144
C14	C	-0.675204	0.185787	-0.000142
C15	C	-0.777291	-0.138276	-0.000155
C16	C	-0.840517	-0.139802	-0.000160
C17	C	-0.107337	-0.249795	-0.000149
C18	C	-0.047928	-0.248377	-0.000157
O19	O	-0.011701	-0.335633	-0.000196
N20	N	-0.024684	-0.144202	-0.000161
C21	C	-0.060853	-0.041437	-0.000169
O22	O	-0.035627	0.047303	-0.000175
C23	C	-0.120260	-0.042856	-0.000171
C24	C	-0.143501	-0.147038	-0.000154
C25	C	-0.130577	-0.353969	-0.000134
C26	C	-0.189982	-0.355386	-0.000124
C27	C	-0.226146	-0.252630	-0.000129
C28	C	-0.202905	-0.148456	-0.000144
C29	C	-0.156428	0.059907	-0.000188
C30	C	-0.215839	0.058479	-0.000190
C31	C	-0.239079	-0.045703	-0.000174
C32	C	-0.298474	-0.047116	-0.000140
N33	N	-0.321717	-0.151292	-0.000136
C34	C	-0.285553	-0.254049	-0.000130
C35	C	0.063907	-0.038465	-0.000169
C36	C	0.123313	-0.037045	-0.000159
C37	C	0.136234	-0.243985	-0.000149
C38	C	0.076827	-0.245404	-0.000150
C39	C	0.040664	-0.142641	-0.000165
C40	C	-0.410308	-0.257017	-0.000109
C41	C	-0.469718	-0.258425	-0.000094
C42	C	-0.482634	-0.051485	-0.000111
C43	C	-0.423229	-0.050077	-0.000119
C44	C	-0.387066	-0.152852	-0.000122
O45	O	-0.334736	0.040094	-0.000105
O46	O	-0.310787	-0.342774	-0.000141
C47	C	-0.669683	-0.355280	-0.000123
C48	C	-0.671195	-0.481258	-0.000117
N49	N	-0.673191	-0.147744	-0.318963
C50	C	-0.672423	0.416434	-0.000121
C51	C	-0.673968	0.288085	-0.000133
C52	C	-0.673196	-0.147744	-0.430301
C53	C	-0.673203	-0.147733	-0.569978
N54	N	-0.673212	-0.147718	0.318693
H55	H	-0.488636	-0.343267	-0.000079
H56	H	0.142230	0.047791	-0.000153
H57	H	0.034466	0.045223	-0.000171
C58	C	0.176022	-0.357017	-0.000154
H59	H	0.214730	-0.341243	-0.000168
H60	H	0.168947	-0.399769	0.071210
H61	H	0.168942	-0.399761	-0.071527
C62	C	-0.397663	0.064520	-0.000124
H63	H	-0.427712	0.125514	-0.000129
H64	H	-0.374751	0.069379	0.071231
H65	H	-0.374763	0.069373	-0.071506
H66	H	-0.512089	0.032176	-0.000110
C67	C	-0.130877	0.174509	-0.000223
H68	H	-0.160931	0.235494	-0.000245
H69	H	-0.107968	0.179392	0.071133
H70	H	-0.107976	0.179357	-0.071604
H71	H	-0.245281	0.142164	-0.000204
H72	H	-0.208898	-0.440222	-0.000110
C73	C	-0.090805	-0.467011	-0.000118
H74	H	-0.113164	-0.529246	-0.000099
H75	H	-0.067358	-0.470782	-0.071476
H76	H	-0.067366	-0.470758	0.071262
C77	C	-0.370538	-0.370067	-0.000096
H78	H	-0.392895	-0.432304	-0.000072
H79	H	-0.347093	-0.373837	-0.071458
H80	H	-0.347096	-0.373810	0.071279
H81	H	0.057909	-0.330239	-0.000143
