data_functionalizedCrystal
_audit_creation_method	'MofGen! by Chris Wilmer'
_symmetry_space_group_name_H-M	'P1'
_symmetry_Int_Tables_number	1
_symmetry_cell_setting	triclinic
loop_
_symmetry_equiv_pos_as_xyz
  x,y,z
_cell_length_a	6.817900
_cell_length_b	11.168136
_cell_length_c	16.417825
_cell_angle_alpha	93.915456
_cell_angle_beta	103.385495
_cell_angle_gamma	108.508683
loop_
_atom_site_label
_atom_site_type_symbol
_atom_site_fract_x
_atom_site_fract_y
_atom_site_fract_z
V1	V	-4.083861	-0.394142	-0.115898
O2	O	-4.070714	-0.386184	0.005556
O3	O	-4.034576	-0.391884	-0.229794
O4	O	-4.060550	-0.565841	-0.114121
O5	O	-4.044560	-0.211023	-0.110917
V6	V	-4.564352	-0.372186	-0.101370
O7	O	-4.351769	-0.442303	-0.147766
O8	O	-4.746641	-0.324024	-0.069502
O9	O	-4.390430	-0.374444	0.012526
O10	O	-4.694895	-0.380144	-0.222824
O11	O	-4.721049	-0.555305	-0.106351
O12	O	-4.364456	-0.200487	-0.103147
C13	C	-3.878550	-0.385779	-0.257559
C14	C	-3.919709	-0.385078	-0.350670
C15	C	-3.957358	-0.267809	-0.552931
C16	C	-3.996055	-0.267160	-0.640420
C17	C	-4.110237	-0.498532	-0.664338
C18	C	-4.071555	-0.499181	-0.576850
C19	C	-3.995104	-0.383815	-0.521148
C20	C	-4.072483	-0.382517	-0.696125
C21	C	-4.114440	-0.381814	-0.790985
C22	C	-3.953148	-0.384518	-0.426282
C23	C	-3.911681	-0.607677	-0.110006
C24	C	-3.973900	-0.748044	-0.109306
C25	C	-4.175586	-0.816750	-0.112967
C26	C	-4.239896	-0.961828	-0.112244
C27	C	-4.209797	-0.380545	0.040287
C28	C	-4.147878	-0.381255	0.133397
C29	C	-4.176666	-0.158644	-0.107265
C30	C	-4.093686	-0.018275	-0.107960
H31	H	-4.102306	-0.593653	-0.550974
N32	N	-4.468759	-1.040050	-0.116383
H33	H	-4.557491	-0.982440	-0.119339
H34	H	-4.529838	-1.107521	-0.168454
H35	H	-4.300643	-0.768166	-0.116631
H36	H	-3.965317	-0.172697	-0.666292
N37	N	-3.864807	-0.940069	-0.103809
H38	H	-3.861439	-0.897522	-0.156060
H39	H	-3.803687	-0.872664	-0.051702
N40	N	-3.874891	-0.143376	-0.492860
H41	H	-3.981124	-0.096984	-0.505756
H42	H	-3.856075	-0.161476	-0.432635
N43	N	-4.192728	-0.622959	-0.724416
H44	H	-4.211514	-0.604948	-0.784663
H45	H	-4.086453	-0.669309	-0.711454
N46	N	-3.808267	-0.812412	-0.104466
H47	H	-3.747022	-0.799169	-0.154921
H48	H	-3.689208	-0.774231	-0.050562
