data_functionalizedCrystal
_audit_creation_method	'MofGen! by Chris Wilmer'
_symmetry_space_group_name_H-M	'P1'
_symmetry_Int_Tables_number	1
_symmetry_cell_setting	triclinic
loop_
_symmetry_equiv_pos_as_xyz
  x,y,z
_cell_length_a	19.288864
_cell_length_b	18.366186
_cell_length_c	19.288865
_cell_angle_alpha	90.011479
_cell_angle_beta	83.136245
_cell_angle_gamma	90.022894
loop_
_atom_site_label
_atom_site_type_symbol
_atom_site_fract_x
_atom_site_fract_y
_atom_site_fract_z
O1	O	-0.921353	-0.060791	-0.086649
O2	O	-0.421353	0.439209	0.413351
O3	O	-0.719092	-0.060743	-0.098337
O4	O	-0.219092	0.439257	0.401663
O5	O	-0.826067	-0.060754	0.008637
O6	O	-0.326067	0.439246	0.508637
O7	O	-0.814378	-0.060780	-0.193623
O8	O	-0.314378	0.439220	0.306377
O9	O	-0.826049	0.060345	0.008643
O10	O	-0.326049	0.560345	0.508643
O11	O	-0.719074	0.060357	-0.098332
O12	O	-0.219074	0.560357	0.401668
O13	O	-0.921335	0.060308	-0.086643
O14	O	-0.421335	0.560308	0.413357
Zn15	Zn	-0.820201	0.079559	-0.092487
Zn16	Zn	-0.320201	0.579559	0.407513
Zn17	Zn	-0.820225	-0.079994	-0.092494
Zn18	Zn	-0.320225	0.420006	0.407506
O19	O	-0.814360	0.060319	-0.193618
O20	O	-0.314360	0.560319	0.306382
C21	C	-0.693207	-0.000187	-0.097959
C22	C	-0.193207	0.499813	0.402041
C23	C	-0.616103	-0.000167	-0.096830
C24	C	-0.116103	0.499833	0.403170
C25	C	-0.825682	-0.000202	0.034516
C26	C	-0.325682	0.499798	0.534516
C27	C	-0.824553	-0.000195	0.111620
C28	C	-0.324553	0.499805	0.611620
N29	N	-0.820190	0.188451	-0.092482
N30	N	-0.320190	0.688451	0.407518
C31	C	-0.947220	-0.000250	-0.087022
C32	C	-0.447220	0.499750	0.412978
C33	C	-1.024324	-0.000274	-0.088151
C34	C	-0.524324	0.499726	0.411849
C35	C	-0.571407	-0.000187	-0.159598
C36	C	-0.071407	0.499813	0.340402
C37	C	-0.498960	-0.000195	-0.158537
C38	C	0.001040	0.499805	0.341463
C39	C	-0.471212	-0.000198	-0.094705
C40	C	0.028788	0.499802	0.405295
C41	C	-0.515918	-0.000174	-0.031929
C42	C	-0.015918	0.499826	0.468071
C43	C	-0.588364	-0.000159	-0.032991
C44	C	-0.088364	0.499841	0.467009
C45	C	-0.362956	-0.042642	-0.044527
C46	C	0.137044	0.457358	0.455473
C47	C	-0.290512	-0.042662	-0.043468
C48	C	0.209488	0.457338	0.456532
C49	C	-0.247767	-0.000241	-0.091425
C50	C	0.252233	0.499759	0.408575
C51	C	-0.277473	0.042189	-0.140454
C52	C	0.222527	0.542189	0.359546
C53	C	-0.349918	0.042205	-0.141517
C54	C	0.150082	0.542205	0.358483
C55	C	-0.392658	-0.000214	-0.093546
C56	C	0.107342	0.499786	0.406454
C57	C	-0.124514	-0.000269	-0.153047
C58	C	0.375486	0.499731	0.346953
C59	C	-0.052066	-0.000272	-0.151984
C60	C	0.447934	0.499728	0.348016
C61	C	-0.069026	-0.000259	-0.025374
C62	C	0.430974	0.499741	0.474626
C63	C	-0.141473	-0.000248	-0.026439
C64	C	0.358527	0.499752	0.473561
C65	C	-0.169212	-0.000256	-0.090278
C66	C	0.330788	0.499744	0.409722
N67	N	-0.820242	-0.188885	-0.092493
N68	N	-0.320242	0.311115	0.407507
C69	C	-0.867574	0.226546	-0.045137
C70	C	-0.367574	0.726546	0.454863
C71	C	-0.867578	0.302774	-0.045134
C72	C	-0.367578	0.802774	0.454866
C73	C	-0.820206	0.340903	-0.092488
C74	C	-0.320206	0.840903	0.407512
C75	C	-0.772813	0.302799	-0.139836
C76	C	-0.272813	0.802799	0.360164
C77	C	-0.772805	0.226572	-0.139834
C78	C	-0.272805	0.726572	0.360166
C79	C	-0.810907	0.461657	-0.155775
C80	C	-0.310907	0.961657	0.344225
C81	C	-0.810920	0.537882	-0.155779
C82	C	-0.310920	1.037882	0.344221
C83	C	-0.820225	0.576011	-0.092496
C84	C	-0.320225	1.076011	0.407504
C85	C	-0.829533	0.537905	-0.029207
C86	C	-0.329533	1.037905	0.470793
C87	C	-0.829525	0.461679	-0.029204
C88	C	-0.329525	0.961679	0.470796
C89	C	-0.820208	0.423558	-0.092496
C90	C	-0.320208	0.923558	0.407504
C91	C	-0.867617	0.696761	-0.045144
C92	C	-0.367617	1.196761	0.454856
C93	C	-0.867616	0.772990	-0.045140
C94	C	-0.367616	1.272990	0.454860
C95	C	-0.772854	0.773014	-0.139849
C96	C	-0.272854	1.273014	0.360151
C97	C	-0.772851	0.696786	-0.139847
C98	C	-0.272851	1.196786	0.360153
C99	C	-0.820236	0.658664	-0.092495
C100	C	-0.320236	1.158664	0.407505
C101	C	-0.814745	-0.000234	-0.219497
C102	C	-0.314745	0.499766	0.280503
C103	C	-0.815874	-0.000246	-0.296601
C104	C	-0.315874	0.499754	0.203399
C105	C	-0.887321	-0.000207	0.156316
C106	C	-0.387321	0.499793	0.656316
C107	C	-0.886260	-0.000218	0.228763
C108	C	-0.386260	0.499782	0.728763
C109	C	-0.822428	-0.000203	0.256511
C110	C	-0.322428	0.499797	0.756511
C111	C	-0.759652	-0.000196	0.211805
C112	C	-0.259652	0.499804	0.711805
C113	C	-0.760714	-0.000192	0.139359
C114	C	-0.260714	0.499808	0.639359
C115	C	-0.772242	0.042227	0.364800
C116	C	-0.272242	0.542227	0.864800
C117	C	-0.771182	0.042228	0.437245
C118	C	-0.271182	0.542228	0.937245
C119	C	-0.819148	-0.000219	0.479956
C120	C	-0.319148	0.499781	0.979956
C121	C	-0.868186	-0.042657	0.450216
C122	C	-0.368186	0.457343	0.950216
C123	C	-0.869248	-0.042653	0.377771
C124	C	-0.369248	0.457347	0.877771
C125	C	-0.821269	-0.000208	0.335065
C126	C	-0.321269	0.499792	0.835065
C127	C	-0.880770	-0.000244	0.603209
C128	C	-0.380770	0.499756	1.103209
C129	C	-0.879707	-0.000259	0.675657
C130	C	-0.379707	0.499741	1.175657
C131	C	-0.753097	-0.000230	0.658697
C132	C	-0.253097	0.499770	1.158697
C133	C	-0.754162	-0.000221	0.586250
C134	C	-0.254162	0.499779	1.086250
C135	C	-0.818001	-0.000225	0.558511
C136	C	-0.318001	0.499775	1.058511
H137	H	-0.593987	-0.000195	-0.211580
H138	H	-0.093987	0.499805	0.288420
H139	H	-0.734240	0.333848	-0.178392
H140	H	-0.234240	0.833848	0.321608
H141	H	-0.462561	-0.000209	-0.209652
H142	H	0.037439	0.499791	0.290348
H143	H	-0.906165	0.333797	-0.006578
H144	H	-0.406165	0.833797	0.493422
O145	O	-0.381951	0.087997	-0.194377
O146	O	0.118049	0.587997	0.305623
H147	H	-0.360868	0.070547	-0.247858
H148	H	0.139132	0.570547	0.252142
H149	H	-0.803318	0.430619	-0.207311
H150	H	-0.303318	0.930619	0.292689
O151	O	-0.839551	0.420576	0.039051
O152	O	-0.339551	0.920576	0.539051
H153	H	-0.846017	0.459890	0.083059
H154	H	-0.346017	0.959890	0.583059
H155	H	-0.734219	0.195554	-0.178388
H156	H	-0.234219	0.695554	0.321612
O157	O	-0.953964	-0.000224	0.276981
O158	O	-0.453964	0.499776	0.776981
H159	H	-0.956487	0.049133	0.310403
H160	H	-0.456487	0.549133	0.810403
O161	O	-0.189685	-0.000230	0.041263
O162	O	0.310315	0.499770	0.541263
H163	H	-0.223130	-0.049576	0.043805
H164	H	0.276870	0.450424	0.543805
O165	O	-0.918702	0.655625	0.005936
O166	O	-0.418702	1.155625	0.505936
H167	H	-0.972825	0.670219	-0.002760
H168	H	-0.472825	1.170219	0.497240
H169	H	-0.906200	0.804008	-0.006582
H170	H	-0.406200	1.304008	0.493418
H171	H	-0.939303	-0.000212	0.133736
H172	H	-0.439303	0.499788	0.633736
H173	H	-0.932751	-0.000250	0.580622
H174	H	-0.432751	0.499750	1.080622
O175	O	-0.947409	-0.000266	0.723871
O176	O	-0.447409	0.499734	1.223871
H177	H	-0.991975	-0.000258	0.692408
H178	H	-0.491975	0.499742	1.192408
O179	O	-0.721749	0.655687	-0.190915
O180	O	-0.221749	1.155687	0.309085
H181	H	-0.730431	0.670291	-0.245042
H182	H	-0.230431	1.170291	0.254958
H183	H	-0.909175	-0.077208	0.353560
H184	H	-0.409175	0.422792	0.853560
H185	H	-0.701123	-0.000221	0.681288
H186	H	-0.201123	0.499779	1.181288
H187	H	-0.266331	-0.077215	-0.003548
H188	H	0.233669	0.422785	0.496452
O189	O	-0.800896	0.578980	-0.224037
O190	O	-0.300896	1.078980	0.275963
H191	H	-0.794414	0.539663	-0.268041
H192	H	-0.294414	1.039663	0.231959
H193	H	-0.707679	-0.000185	0.234401
H194	H	-0.207679	0.499815	0.734401
H195	H	-0.907244	-0.077221	0.484991
H196	H	-0.407244	0.422779	0.984991
H197	H	-0.906156	0.195509	-0.006579
H198	H	-0.406156	0.695509	0.493421
H199	H	-0.731250	0.076779	0.461452
H200	H	-0.231250	0.576779	0.961452
O201	O	-0.686462	-0.000191	0.538034
O202	O	-0.186462	0.499809	1.038034
H203	H	-0.641896	-0.000174	0.569498
H204	H	-0.141896	0.499826	1.069498
H205	H	-0.242671	0.076733	-0.179506
H206	H	0.257329	0.576733	0.320494
H207	H	-0.733180	0.076796	0.330029
H208	H	-0.233180	0.576796	0.830029
O209	O	-0.721758	0.814127	-0.190928
O210	O	-0.221758	1.314127	0.309072
H211	H	-0.729725	0.873533	-0.182979
H212	H	-0.229725	1.373533	0.317021
H213	H	-0.709599	-0.000182	0.102967
H214	H	-0.209599	0.499818	0.602967
H215	H	-0.493322	-0.000187	0.020044
H216	H	0.006678	0.499813	0.520044
O217	O	-0.154442	-0.000263	-0.221897
O218	O	0.345558	0.499737	0.278103
H219	H	-0.111187	-0.000264	-0.265367
H220	H	0.388813	0.499736	0.234633
H221	H	-0.046435	-0.000306	0.026600
H222	H	0.453565	0.499694	0.526600
O223	O	-0.003852	-0.000290	-0.219686
O224	O	0.496148	0.499710	0.280314
H225	H	-0.035315	-0.000300	-0.264252
H226	H	0.464685	0.499700	0.235748
O227	O	-0.839565	0.579016	0.039057
O228	O	-0.339565	1.079016	0.539057
H229	H	-0.837997	0.638423	0.028426
H230	H	-0.337997	1.138423	0.528426
O231	O	-0.409059	-0.088403	0.007198
O232	O	0.090941	0.411597	0.507198
H233	H	-0.376233	-0.117919	0.041459
H234	H	0.123767	0.382081	0.541459
O235	O	-0.636579	-0.000141	0.034711
O236	O	-0.136579	0.499859	0.534711
H237	H	-0.605117	-0.000147	0.079278
H238	H	-0.105117	0.499853	0.579278
