data_functionalizedCrystal
_audit_creation_method	'MofGen! by Chris Wilmer'
_symmetry_space_group_name_H-M	'P1'
_symmetry_Int_Tables_number	1
_symmetry_cell_setting	triclinic
loop_
_symmetry_equiv_pos_as_xyz
  x,y,z
_cell_length_a	23.532407
_cell_length_b	22.010155
_cell_length_c	23.532407
_cell_angle_alpha	90.000423
_cell_angle_beta	97.151284
_cell_angle_gamma	89.994913
loop_
_atom_site_label
_atom_site_type_symbol
_atom_site_fract_x
_atom_site_fract_y
_atom_site_fract_z
O1	O	-0.755264	0.050484	0.069127
O2	O	-0.255264	0.550484	0.569127
O3	O	-0.589400	0.050496	0.079130
O4	O	-0.089400	0.550496	0.579130
O5	O	-0.677334	0.050479	-0.008803
O6	O	-0.177334	0.550479	0.491197
O7	O	-0.667330	0.050502	0.157061
O8	O	-0.167330	0.550502	0.657061
O9	O	-0.677318	-0.050572	-0.008790
O10	O	-0.177318	0.449428	0.491210
O11	O	-0.589384	-0.050554	0.079144
O12	O	-0.089384	0.449446	0.579144
O13	O	-0.755248	-0.050566	0.069141
O14	O	-0.255248	0.449434	0.569141
Cu15	Cu	-0.672315	-0.059787	0.074143
Cu16	Cu	-0.172315	0.440213	0.574143
Cu17	Cu	-0.672333	0.059717	0.074128
Cu18	Cu	-0.172333	0.559717	0.574128
O19	O	-0.667314	-0.050549	0.157074
O20	O	-0.167314	0.449451	0.657074
C21	C	-0.568176	-0.000027	0.078882
C22	C	-0.068176	0.499973	0.578882
C23	C	-0.504959	-0.000023	0.078116
C24	C	-0.004959	0.499977	0.578116
N25	N	-0.672305	-0.143839	0.074154
N26	N	-0.172305	0.356161	0.574154
C27	C	-0.238792	-0.000044	0.022921
C28	C	0.261208	0.499956	0.522921
C29	C	-0.298192	-0.000045	0.023632
C30	C	0.201808	0.499955	0.523632
O31	O	-0.334937	-0.000072	-0.020153
O32	O	0.165063	0.499928	0.479847
N33	N	-0.320818	-0.000033	0.075909
N34	N	0.179182	0.499967	0.575909
C35	C	-0.284041	-0.000028	0.127477
C36	C	0.215959	0.499972	0.627477
O37	O	-0.308740	-0.000019	0.172007
O38	O	0.191260	0.499981	0.672007
C39	C	-0.224642	-0.000032	0.126765
C40	C	0.275358	0.499968	0.626765
C41	C	-0.202019	-0.000037	0.074485
C42	C	0.297981	0.499963	0.574485
C43	C	-0.216168	-0.000050	-0.029354
C44	C	0.283832	0.499950	0.470646
C45	C	-0.156772	-0.000048	-0.030066
C46	C	0.343228	0.499952	0.469934
C47	C	-0.119999	-0.000041	0.021499
C48	C	0.380001	0.499959	0.521499
C49	C	-0.142623	-0.000035	0.073774
C50	C	0.357377	0.499965	0.573774
C51	C	-0.187865	-0.000031	0.178333
C52	C	0.312135	0.499969	0.678333
C53	C	-0.128463	-0.000035	0.177616
C54	C	0.371537	0.499965	0.677616
C55	C	-0.105840	-0.000040	0.125336
C56	C	0.394160	0.499960	0.625336
C57	C	-0.046454	-0.000027	0.124627
C58	C	0.453546	0.499973	0.624627
N59	N	-0.023828	-0.000038	0.072351
N60	N	0.476172	0.499962	0.572351
C61	C	-0.060600	-0.000045	0.020787
C62	C	0.439400	0.499955	0.520787
C63	C	-0.408783	-0.000021	0.128968
C64	C	0.091217	0.499979	0.628968
C65	C	-0.468181	-0.000013	0.129681
C66	C	0.031819	0.499987	0.629681
C67	C	-0.482328	-0.000030	0.025836
C68	C	0.017672	0.499970	0.525836
C69	C	-0.422929	-0.000034	0.025124
C70	C	0.077071	0.499966	0.525124
C71	C	-0.386157	-0.000032	0.076692
C72	C	0.113843	0.499968	0.576692
C73	C	0.064136	-0.000041	0.019297
C74	C	0.564136	0.499959	0.519297
C75	C	0.123538	-0.000037	0.018590
C76	C	0.623538	0.499963	0.518590
C77	C	0.137680	-0.000023	0.122435
C78	C	0.637680	0.499977	0.622435
C79	C	0.078284	-0.000023	0.123142
C80	C	0.578284	0.499977	0.623142
C81	C	0.041512	-0.000035	0.071568
C82	C	0.541512	0.499965	0.571568
O83	O	-0.009675	-0.000002	0.168390
O84	O	0.490325	0.499998	0.668390
O85	O	-0.035892	-0.000062	-0.023737
O86	O	0.464108	0.499938	0.476263
C87	C	-0.711273	-0.563627	0.035196
C88	C	-0.211273	-0.063627	0.535196
C89	C	-0.711275	-0.627234	0.035192
C90	C	-0.211275	-0.127234	0.535192
O91	O	-0.744383	-0.660132	0.002077
O92	O	-0.244383	-0.160132	0.502077
N93	N	-0.672333	-0.659047	0.074116
N94	N	-0.172333	-0.159047	0.574116
C95	C	-0.633382	-0.627248	0.113042
C96	C	-0.133382	-0.127248	0.613042
O97	O	-0.600259	-0.660147	0.146148
O98	O	-0.100259	-0.160147	0.646148
C99	C	-0.633377	-0.563641	0.113043
C100	C	-0.133377	-0.063641	0.613043
C101	C	-0.672326	-0.531832	0.074120
C102	C	-0.172326	-0.031832	0.574120
C103	C	-0.750217	-0.531818	-0.003723
C104	C	-0.250217	-0.031818	0.496277
C105	C	-0.750215	-0.468214	-0.003718
C106	C	-0.250215	0.031786	0.496282
C107	C	-0.711268	-0.436420	0.035206
C108	C	-0.211268	0.063580	0.535206
C109	C	-0.672323	-0.468229	0.074125
C110	C	-0.172323	0.031771	0.574125
C111	C	-0.594424	-0.531844	0.151965
C112	C	-0.094424	-0.031844	0.651965
C113	C	-0.594422	-0.468233	0.151962
C114	C	-0.094422	0.031767	0.651962
C115	C	-0.633370	-0.436424	0.113040
C116	C	-0.133370	0.063576	0.613040
C117	C	-0.633374	-0.372832	0.113054
C118	C	-0.133374	0.127168	0.613054
N119	N	-0.672316	-0.341020	0.074131
N120	N	-0.172316	0.158980	0.574131
C121	C	-0.711263	-0.372814	0.035207
C122	C	-0.211263	0.127186	0.535207
C123	C	-0.633395	-0.760826	0.113037
C124	C	-0.133395	-0.260826	0.613037
C125	C	-0.633402	-0.824431	0.113039
C126	C	-0.133402	-0.324431	0.613039
C127	C	-0.711294	-0.824413	0.035189
C128	C	-0.211294	-0.324413	0.535189
C129	C	-0.711290	-0.760807	0.035190
C130	C	-0.211290	-0.260807	0.535190
C131	C	-0.672337	-0.729013	0.074113
C132	C	-0.172337	-0.229013	0.574113
C133	C	-0.711256	-0.239242	0.035220
C134	C	-0.211256	0.260758	0.535220
C135	C	-0.711252	-0.175634	0.035230
C136	C	-0.211252	0.324366	0.535230
C137	C	-0.633358	-0.175657	0.113078
C138	C	-0.133358	0.324343	0.613078
C139	C	-0.633364	-0.239260	0.113070
C140	C	-0.133364	0.260740	0.613070
C141	C	-0.672315	-0.271052	0.074137
C142	C	-0.172315	0.228948	0.574137
O143	O	-0.600282	-0.339893	0.146151
O144	O	-0.100282	0.160107	0.646151
O145	O	-0.744376	-0.339907	0.002101
O146	O	-0.244376	0.160093	0.502101
C147	C	0.223528	-0.000038	0.069389
C148	C	0.723528	0.499962	0.569389
C149	C	0.160311	-0.000030	0.070155
C150	C	0.660311	0.499970	0.570155
C151	C	-0.677071	-0.000048	-0.030012
C152	C	-0.177071	0.499952	0.469988
C153	C	-0.676305	-0.000053	-0.093229
C154	C	-0.176305	0.499947	0.406771
N155	N	-0.672347	0.143769	0.074113
N156	N	-0.172347	0.643769	0.574113
C157	C	-0.723538	-0.000023	-0.492332
C158	C	-0.223538	0.499977	0.007668
C159	C	-0.722827	-0.000018	-0.551733
C160	C	-0.222827	0.499982	-0.051733
O161	O	-0.766613	0.000001	-0.588477
O162	O	-0.266613	0.500001	-0.088477
N163	N	-0.670551	-0.000015	-0.574359
N164	N	-0.170551	0.499985	-0.074359
C165	C	-0.618982	-0.000010	-0.537581
C166	C	-0.118982	0.499990	-0.037581
O167	O	-0.574452	-0.000006	-0.562281
O168	O	-0.074452	0.499994	-0.062281
C169	C	-0.619695	-0.000010	-0.478182
C170	C	-0.119695	0.499990	0.021818
C171	C	-0.671974	-0.000020	-0.455559
C172	C	-0.171974	0.499980	0.044441
C173	C	-0.775814	-0.000032	-0.469709
C174	C	-0.275814	0.499968	0.030291
C175	C	-0.776525	-0.000038	-0.410313
C176	C	-0.276525	0.499962	0.089687
C177	C	-0.724961	-0.000035	-0.373540
C178	C	-0.224961	0.499965	0.126460
C179	C	-0.672685	-0.000026	-0.396163
C180	C	-0.172685	0.499974	0.103837
C181	C	-0.568127	-0.000001	-0.441406
C182	C	-0.068127	0.499999	0.058594
C183	C	-0.568843	-0.000001	-0.382003
C184	C	-0.068843	0.499999	0.117997
C185	C	-0.621123	-0.000010	-0.359381
C186	C	-0.121123	0.499990	0.140619
C187	C	-0.621832	-0.000028	-0.299994
C188	C	-0.121832	0.499972	0.200006
N189	N	-0.674109	-0.000032	-0.277368
N190	N	-0.174109	0.499968	0.222632
C191	C	-0.725673	-0.000035	-0.314141
C192	C	-0.225673	0.499965	0.185859
C193	C	-0.617491	-0.000008	-0.662324
C194	C	-0.117491	0.499992	-0.162324
C195	C	-0.616778	-0.000012	-0.721722
C196	C	-0.116778	0.499988	-0.221722
C197	C	-0.720623	-0.000019	-0.735869
C198	C	-0.220623	0.499981	-0.235869
C199	C	-0.721335	-0.000020	-0.676470
C200	C	-0.221335	0.499980	-0.176470
C201	C	-0.669767	-0.000012	-0.639698
C202	C	-0.169767	0.499988	-0.139698
C203	C	-0.727163	-0.000048	-0.189404
C204	C	-0.227163	0.499952	0.310596
C205	C	-0.727869	-0.000056	-0.130002
C206	C	-0.227869	0.499944	0.369998
C207	C	-0.624025	-0.000045	-0.115860
C208	C	-0.124025	0.499955	0.384140
C209	C	-0.623318	-0.000040	-0.175257
C210	C	-0.123318	0.499960	0.324743
C211	C	-0.674891	-0.000039	-0.212028
C212	C	-0.174891	0.499961	0.287972
O213	O	-0.578069	-0.000045	-0.263215
O214	O	-0.078069	0.499955	0.236785
O215	O	-0.770196	-0.000031	-0.289433
O216	O	-0.270196	0.499969	0.210567
C217	C	-0.667577	-0.000021	0.178283
C218	C	-0.167577	0.499979	0.678283
C219	C	-0.668343	-0.000012	0.241500
C220	C	-0.168343	0.499988	0.741500
H221	H	0.141954	-0.000039	-0.023984
H222	H	0.641954	0.499961	0.476016
H223	H	-0.762610	-0.000020	-0.765821
H224	H	-0.262610	0.499980	-0.265821
H225	H	-0.582043	-0.000045	-0.085909
H226	H	-0.082043	0.499955	0.414091
H227	H	-0.580747	-0.000049	-0.193677
H228	H	-0.080747	0.499951	0.306323
H229	H	0.034204	-0.000050	-0.022699
H230	H	0.534204	0.499950	0.477301
H231	H	-0.138359	-0.000055	-0.072637
H232	H	0.361641	0.499945	0.427363
H233	H	-0.562708	-0.557734	0.183659
H234	H	-0.062708	-0.057734	0.683659
H235	H	0.059864	-0.000019	0.165712
H236	H	0.559864	0.499981	0.665712
H237	H	0.167631	-0.000014	0.164417
H238	H	0.667631	0.499986	0.664417
H239	H	-0.246104	-0.000057	-0.071347
H240	H	0.253896	0.499943	0.428653
H241	H	-0.742971	-0.149737	0.003535
H242	H	-0.242971	0.350263	0.503535
H243	H	-0.601676	-0.734943	0.144738
H244	H	-0.101676	-0.234943	0.644738
H245	H	-0.817806	-0.000032	-0.499644
H246	H	-0.317806	0.499968	0.000356
H247	H	-0.098525	-0.000036	0.219610
H248	H	0.401475	0.499964	0.719610
H249	H	-0.575496	-0.000007	-0.632386
H250	H	-0.075496	0.499993	-0.132386
H251	H	-0.742973	-0.265120	0.003516
H252	H	-0.242973	0.234880	0.503516
H253	H	-0.763906	-0.000027	-0.658055
H254	H	-0.263906	0.499973	-0.158055
H255	H	-0.378846	-0.000015	0.170964
H256	H	0.121154	0.499985	0.670964
H257	H	-0.601654	-0.265160	0.144770
H258	H	-0.101654	0.234840	0.644770
H259	H	-0.404515	-0.000039	-0.017447
H260	H	0.095485	0.499961	0.482553
H261	H	-0.512280	-0.000036	-0.016150
H262	H	-0.012280	0.499964	0.483850
H263	H	-0.601649	-0.149760	0.144771
H264	H	-0.101649	0.350240	0.644771
H265	H	-0.770443	-0.000065	-0.111586
H266	H	-0.270443	0.499935	0.388414
H267	H	-0.562700	-0.442350	0.183658
H268	H	-0.062700	0.057650	0.683658
H269	H	-0.781929	-0.442319	-0.035413
H270	H	-0.281929	0.057681	0.464587
H271	H	-0.525555	0.000011	-0.459814
H272	H	-0.025555	0.500011	0.040186
H273	H	-0.743006	-0.850311	0.003494
H274	H	-0.243006	-0.350311	0.503494
H275	H	-0.486595	-0.000000	0.172252
H276	H	0.013405	0.500000	0.672252
H277	H	-0.819097	-0.000043	-0.391899
H278	H	-0.319097	0.499957	0.108101
H279	H	-0.206274	-0.000024	0.220904
H280	H	0.293726	0.499976	0.720904
H281	H	-0.781933	-0.557699	-0.035422
H282	H	-0.281933	-0.057699	0.464578
H283	H	-0.574207	-0.000015	-0.740135
H284	H	-0.074207	0.499985	-0.240135
H285	H	-0.769159	-0.000044	-0.219337
H286	H	-0.269159	0.499956	0.280663
H287	H	-0.526850	0.000007	-0.352065
H288	H	-0.026850	0.500007	0.147935
H289	H	-0.743004	-0.734911	0.003496
H290	H	-0.243004	-0.234911	0.503496
H291	H	-0.601692	-0.850325	0.144739
H292	H	-0.101692	-0.350325	0.644739
