data_functionalizedCrystal
_audit_creation_method	'MofGen! by Chris Wilmer'
_symmetry_space_group_name_H-M	'P1'
_symmetry_Int_Tables_number	1
_symmetry_cell_setting	triclinic
loop_
_symmetry_equiv_pos_as_xyz
  x,y,z
_cell_length_a	10.654559
_cell_length_b	19.188924
_cell_length_c	17.666332
_cell_angle_alpha	89.996286
_cell_angle_beta	89.993183
_cell_angle_gamma	83.815324
loop_
_atom_site_label
_atom_site_type_symbol
_atom_site_fract_x
_atom_site_fract_y
_atom_site_fract_z
O1	O	1.665759	0.098089	-0.062956
O2	O	1.300084	0.107425	-0.062957
O3	O	1.493479	0.001171	-0.062948
O4	O	1.472364	0.204344	-0.062966
O5	O	1.493453	0.001174	0.062949
O6	O	1.300058	0.107429	0.062939
O7	O	1.665733	0.098093	0.062940
Cu8	Cu	1.482894	0.102761	0.074435
Cu9	Cu	1.482924	0.102757	-0.074452
O10	O	1.472339	0.204348	0.062931
C11	C	1.253288	0.106740	-0.000009
C12	C	1.113889	0.104685	-0.000009
C13	C	1.063717	0.040193	-0.000001
C14	C	0.932735	0.038266	-0.000007
C15	C	0.902109	0.165331	-0.000024
C16	C	1.033088	0.167256	-0.000024
C17	C	1.144518	-0.022378	0.000014
C18	C	1.094346	-0.086876	0.000023
C19	C	0.963365	-0.088803	0.000017
C20	C	0.882555	-0.026231	0.000003
C21	C	1.492783	-0.024843	0.000001
C22	C	1.490735	-0.102361	0.000003
C23	C	1.489793	-0.138768	-0.068623
C24	C	1.487851	-0.211604	-0.068629
C25	C	1.486876	-0.248031	-0.000004
C26	C	1.487811	-0.211615	0.068631
C27	C	1.489741	-0.138780	0.068635
N28	N	1.555298	-0.367244	0.051071
N29	N	1.553468	-0.436435	0.051063
C30	C	1.481059	-0.467479	-0.000012
N31	N	1.410566	-0.426719	-0.051090
N32	N	1.412402	-0.357523	-0.051083
C33	C	1.484783	-0.327008	-0.000001
C34	C	1.478009	-0.582862	-0.068649
C35	C	1.476059	-0.655698	-0.068652
C36	C	1.476032	-0.655709	0.068610
C37	C	1.477969	-0.582873	0.068611
C38	C	1.478964	-0.546454	-0.000021
C39	C	1.712529	0.098778	-0.000010
C40	C	1.851928	0.100833	-0.000015
C41	C	1.473034	0.230361	-0.000020
C42	C	1.475082	0.307880	-0.000027
N43	N	1.482881	0.102764	0.179155
N44	N	1.482946	0.102749	-0.179172
C45	C	1.558870	0.145483	0.781200
C46	C	1.558858	0.145490	0.701953
C47	C	1.482935	0.102750	0.662336
C48	C	1.406996	0.060014	0.701974
C49	C	1.407001	0.060013	0.781220
N50	N	1.479898	0.041569	0.537917
N51	N	1.479900	0.041572	0.462637
C52	C	1.482913	0.102750	0.423572
N53	N	1.485949	0.163926	0.462632
N54	N	1.485953	0.163923	0.537920
C55	C	1.482921	0.102746	0.576407
C56	C	1.558828	0.145495	0.298015
C57	C	1.558806	0.145503	0.218766
C58	C	1.406951	0.060020	0.218788
C59	C	1.406965	0.060018	0.298036
C60	C	1.482911	0.102754	0.337644
H61	H	0.775902	-0.027805	-0.000008
H62	H	1.620683	0.180292	0.669681
H63	H	1.251171	-0.020817	0.000021
H64	H	1.487076	-0.241252	-0.124515
C65	C	1.323481	0.012998	0.658400
C66	C	1.323477	0.012993	0.571232
C67	C	1.239954	-0.034021	0.527659
C68	C	1.156435	-0.081030	0.571253
C69	C	1.156435	-0.081027	0.658426
C70	C	1.239959	-0.034013	0.701999
H71	H	1.385306	0.047793	0.538956
H72	H	1.239954	-0.034024	0.463128
H73	H	1.094606	-0.115833	0.538998
H74	H	1.094607	-0.115827	0.690701
H75	H	1.239959	-0.034010	0.766530
H76	H	0.836303	0.216273	-0.000034
C77	C	1.486741	-0.251682	0.144120
C78	C	1.484627	-0.331798	0.144119
C79	C	1.483551	-0.371863	0.219611
C80	C	1.484588	-0.331812	0.295102
C81	C	1.486702	-0.251692	0.295106
C82	C	1.487779	-0.211626	0.219614
H83	H	1.483859	-0.361450	0.088233
H84	H	1.481986	-0.431174	0.219608
H85	H	1.483792	-0.361471	0.350986
H86	H	1.487470	-0.222039	0.350992
H87	H	1.489344	-0.152315	0.219617
C88	C	1.088294	0.238196	-0.000032
C89	C	1.057656	0.290351	0.065336
C90	C	1.112865	0.361291	0.065324
C91	C	1.198714	0.380076	-0.000056
C92	C	1.229356	0.327921	-0.065429
C93	C	1.174147	0.256980	-0.065417
H94	H	0.994102	0.276445	0.113738
H95	H	1.090181	0.399900	0.113717
H96	H	1.239583	0.432591	-0.000065
H97	H	1.292910	0.341826	-0.113831
H98	H	1.196831	0.218371	-0.113810
C99	C	1.490789	-0.098729	0.144129
C100	C	1.381492	-0.101344	0.200748
C101	C	1.382544	-0.061292	0.276243
C102	C	1.492893	-0.018625	0.295119
C103	C	1.602198	-0.016009	0.238499
C104	C	1.601146	-0.056060	0.163004
H105	H	1.299797	-0.132930	0.186775
H106	H	1.301629	-0.063230	0.318156
H107	H	1.493672	0.011024	0.351005
H108	H	1.683893	0.015578	0.252471
H109	H	1.682061	-0.054123	0.121090
H110	H	1.490600	-0.109121	-0.124509
C111	C	1.323489	0.012996	0.824814
C112	C	1.384212	-0.043565	0.879287
C113	C	1.300704	-0.090585	0.922883
C114	C	1.156473	-0.081044	0.912005
C115	C	1.095743	-0.024479	0.857529
C116	C	1.179251	0.022541	0.813934
H117	H	1.490987	-0.050631	0.887342
H118	H	1.345661	-0.132458	0.963209
H119	H	1.094655	-0.115851	0.944277
H120	H	0.988968	-0.017414	0.849474
H121	H	1.134294	0.064413	0.773607
C122	C	1.479093	-0.542795	-0.144140
C123	C	1.478040	-0.582845	-0.219632
C124	C	1.479126	-0.542780	-0.295124
C125	C	1.481264	-0.462666	-0.295123
C126	C	1.482317	-0.422611	-0.219629
C127	C	1.481232	-0.462676	-0.144137
H128	H	1.476457	-0.642154	-0.219635
H129	H	1.478346	-0.572432	-0.351010
H130	H	1.482068	-0.433008	-0.351007
H131	H	1.483900	-0.363302	-0.219626
H132	H	1.482011	-0.433025	-0.088251
H133	H	1.475228	-0.685366	0.124486
H134	H	1.620661	0.180296	0.330266
C135	C	1.475023	-0.695747	-0.144148
C136	C	1.584334	-0.693130	-0.200756
C137	C	1.583300	-0.733179	-0.276254
C138	C	1.472954	-0.775844	-0.295144
C139	C	1.363635	-0.778462	-0.238534
C140	C	1.364669	-0.738414	-0.163037
H141	H	1.666026	-0.661546	-0.186774
H142	H	1.664226	-0.731241	-0.318160
H143	H	1.472188	-0.805490	-0.351032
H144	H	1.281943	-0.810047	-0.252516
H145	H	1.283743	-0.740352	-0.121131
H146	H	1.478747	-0.553231	0.124494
H147	H	0.922520	-0.141320	0.000017
C148	C	1.642395	0.192499	0.824769
C149	C	1.725905	0.239510	0.781171
C150	C	1.809426	0.286528	0.824742
C151	C	1.809437	0.286533	0.911909
C152	C	1.725923	0.239520	0.955511
C153	C	1.642402	0.192502	0.911941
H154	H	1.725900	0.239508	0.716640
H155	H	1.871248	0.321330	0.792464
H156	H	1.871264	0.321338	0.944163
H157	H	1.725928	0.239522	1.020043
H158	H	1.580580	0.157700	0.944219
C159	C	1.642326	0.192516	0.175173
C160	C	1.786557	0.182963	0.186051
C161	C	1.870078	0.229978	0.142459
C162	C	1.809368	0.286545	0.087988
C163	C	1.665130	0.296101	0.077107
C164	C	1.581609	0.249086	0.120700
H165	H	1.831504	0.141086	0.226376
H166	H	1.976853	0.222904	0.150513
H167	H	1.871196	0.321349	0.055718
H168	H	1.620183	0.337978	0.036782
H169	H	1.474834	0.256160	0.112645
H170	H	1.345126	0.025225	0.186533
H171	H	1.160150	-0.137819	0.000027
C172	C	1.323467	0.012995	0.341628
C173	C	1.384196	-0.043566	0.396100
C174	C	1.300694	-0.090594	0.439689
C175	C	1.156464	-0.081060	0.428807
C176	C	1.095728	-0.024496	0.374333
C177	C	1.179230	0.022531	0.330743
H178	H	1.490970	-0.050626	0.404157
H179	H	1.345655	-0.132466	0.480014
H180	H	1.094651	-0.115873	0.461074
H181	H	0.988953	-0.017437	0.366275
H182	H	1.134268	0.064403	0.290418
