data_functionalizedCrystal
_audit_creation_method	'MofGen! by Chris Wilmer'
_symmetry_space_group_name_H-M	'P1'
_symmetry_Int_Tables_number	1
_symmetry_cell_setting	triclinic
loop_
_symmetry_equiv_pos_as_xyz
  x,y,z
_cell_length_a	12.645331
_cell_length_b	25.639240
_cell_length_c	25.639233
_cell_angle_alpha	89.974071
_cell_angle_beta	89.986410
_cell_angle_gamma	90.031736
loop_
_atom_site_label
_atom_site_type_symbol
_atom_site_fract_x
_atom_site_fract_y
_atom_site_fract_z
Zn1	Zn	1.620525	-0.208229	-0.295597
Zn2	Zn	1.620388	-0.295647	-0.208150
Zn3	Zn	1.443268	-0.208226	-0.208174
Zn4	Zn	1.443175	-0.295633	-0.295553
O5	O	1.531839	-0.251934	-0.251868
O6	O	1.768854	-0.219832	-0.284005
O7	O	1.596875	-0.284056	-0.134988
O8	O	1.466878	-0.135061	-0.219799
O9	O	1.768754	-0.284058	-0.219758
O10	O	1.597108	-0.135063	-0.284028
O11	O	1.466745	-0.219828	-0.135005
O12	O	1.294908	-0.219814	-0.219756
O13	O	1.466719	-0.284034	-0.368724
O14	O	1.294840	-0.284032	-0.283954
O15	O	1.597018	-0.219818	-0.368756
O16	O	1.596784	-0.368811	-0.219716
O17	O	1.466586	-0.368800	-0.283931
C18	C	1.256409	-0.251922	-0.251853
C19	C	1.138579	-0.251929	-0.251859
C20	C	0.971023	-0.211344	-0.211696
C21	C	1.093583	-0.211449	-0.211519
C22	C	1.094034	-0.307003	-0.236795
C23	C	0.971436	-0.306782	-0.236521
C24	C	0.971420	-0.237964	-0.307241
C25	C	1.094026	-0.236733	-0.306934
C26	C	1.531689	-0.387777	-0.251827
C27	C	1.531722	-0.445891	-0.251827
C28	C	1.599684	-0.806216	-0.285373
C29	C	1.599715	-0.860820	-0.285383
O30	O	1.657320	-0.889025	-0.313863
N31	N	1.531986	-0.888173	-0.251919
C32	C	1.464214	-0.860918	-0.218445
O33	O	1.406608	-0.889198	-0.189982
C34	C	1.464178	-0.806315	-0.218438
C35	C	1.531919	-0.778965	-0.251901
C36	C	1.667418	-0.778866	-0.318833
C37	C	1.667388	-0.724266	-0.318822
C38	C	1.599623	-0.697015	-0.285350
C39	C	1.531889	-0.724365	-0.251889
C40	C	1.396402	-0.779062	-0.184967
C41	C	1.396371	-0.724455	-0.184963
C42	C	1.464112	-0.697105	-0.218426
C43	C	1.464094	-0.642514	-0.218406
N44	N	1.531823	-0.615161	-0.251870
C45	C	1.599587	-0.642412	-0.285342
C46	C	1.464293	-0.975589	-0.218464
C47	C	1.464334	-1.030191	-0.218469
C48	C	1.599833	-1.030089	-0.285408
C49	C	1.599797	-0.975486	-0.285400
C50	C	1.532022	-0.948236	-0.251929
C51	C	1.599520	-0.527747	-0.285315
C52	C	1.599487	-0.473141	-0.285299
C53	C	1.463984	-0.473248	-0.218363
C54	C	1.464020	-0.527849	-0.218376
C55	C	1.531792	-0.555096	-0.251857
O56	O	1.406516	-0.614274	-0.189942
O57	O	1.657174	-0.614125	-0.313805
C58	C	1.808344	-0.251947	-0.251884
C59	C	1.926174	-0.251952	-0.251890
C60	C	1.531873	-0.251925	-0.388241
C61	C	1.531888	-0.251921	-0.446355
C62	C	1.532018	-0.115561	-0.251921
C63	C	1.532095	-0.057447	-0.251943
C64	C	1.599820	-0.218384	-0.806741
C65	C	1.599833	-0.218370	-0.861345
O66	O	1.657506	-0.189918	-0.889601
N67	N	1.532005	-0.251798	-0.888638
C68	C	1.464151	-0.285240	-0.861324
O69	O	1.406458	-0.313671	-0.889552
C70	C	1.464133	-0.285251	-0.806720
C71	C	1.531974	-0.251824	-0.779430
C72	C	1.667655	-0.184960	-0.779451
C73	C	1.667643	-0.184975	-0.724850
C74	C	1.599796	-0.218415	-0.697540
C75	C	1.531962	-0.251839	-0.724830
C76	C	1.396275	-0.318689	-0.779407
C77	C	1.396262	-0.318698	-0.724800
C78	C	1.464103	-0.285271	-0.697510
C79	C	1.464104	-0.285295	-0.642919
N80	N	1.531932	-0.251866	-0.615626
C81	C	1.599779	-0.218426	-0.642936
C82	C	1.464192	-0.285212	-0.975994
C83	C	1.464214	-0.285204	-1.030597
C84	C	1.599895	-0.218333	-1.030615
C85	C	1.599878	-0.218345	-0.976011
C86	C	1.532020	-0.251784	-0.948702
C87	C	1.599749	-0.218461	-0.528271
C88	C	1.599734	-0.218481	-0.473666
C89	C	1.464049	-0.285349	-0.473653
C90	C	1.464068	-0.285332	-0.528254
C91	C	1.531921	-0.251883	-0.555561
O92	O	1.406457	-0.313731	-0.614628
O93	O	1.657452	-0.189994	-0.614701
C94	C	1.531866	-0.251905	-0.116026
C95	C	1.532057	-0.251762	-0.057912
H96	H	0.940183	-0.220486	-0.170920
C97	C	1.321873	-0.809134	-0.148158
N98	N	1.265730	-0.831784	-0.120433
C99	C	1.389417	-0.322129	-0.443601
N100	N	1.333195	-0.349828	-0.420964
C101	C	0.931350	-0.349042	-0.274343
N102	N	0.901162	-0.380873	-0.302827
C103	C	1.134275	-0.156273	-0.224268
N104	N	1.164920	-0.114712	-0.233869
H105	H	1.655118	-0.191125	-0.953795
C106	C	1.389822	-1.060270	-0.181653
N107	N	1.333692	-1.082923	-0.153924
C108	C	1.674521	-0.181545	-1.060667
N109	N	1.730725	-0.153838	-1.083303
H110	H	1.122869	-0.220693	-0.170501
C111	C	1.389592	-0.321980	-1.060610
N112	N	1.333378	-0.349678	-1.083213
C113	C	0.932744	-0.322803	-0.181854
N114	N	0.903606	-0.334869	-0.140676
H115	H	1.722903	-0.157726	-0.801681
H116	H	1.654998	-0.191223	-0.550499
C117	C	1.135446	-0.323306	-0.182713
N118	N	1.166633	-0.335582	-0.141977
C119	C	1.742258	-0.148195	-0.694838
N120	N	1.798457	-0.120488	-0.672237
H121	H	1.408933	-0.312445	-0.953762
H122	H	0.941578	-0.170381	-0.221038
H123	H	1.341177	-0.702271	-0.157707
C124	C	1.674362	-0.181705	-0.443650
N125	N	1.730567	-0.154004	-0.421044
C126	C	1.389508	-0.557934	-0.181563
N127	N	1.333377	-0.580591	-0.153838
C128	C	1.321635	-0.355458	-0.809414
N129	N	1.265407	-0.383152	-0.832014
C130	C	1.133419	-0.348973	-0.275098
N131	N	1.163091	-0.380584	-0.303946
H132	H	1.340992	-0.345923	-0.702567
H133	H	1.409105	-0.953405	-0.191204
C134	C	1.389447	-0.322106	-0.558273
N135	N	1.333233	-0.349802	-0.580881
H136	H	1.123148	-0.196205	-0.318293
C137	C	0.929712	-0.184654	-0.325743
N138	N	0.898301	-0.144498	-0.339671
H139	H	1.722545	-0.702001	-0.346072
H140	H	1.654957	-0.953221	-0.312649
C141	C	1.389442	-0.443262	-0.181547
N142	N	1.333290	-0.420675	-0.153821
H143	H	1.124659	-0.264154	-0.338485
C144	C	0.932231	-0.277919	-0.347701
N145	N	0.902706	-0.308015	-0.378172
H146	H	1.654653	-0.450875	-0.312549
C147	C	1.741980	-0.808833	-0.355654
N148	N	1.798153	-0.831401	-0.383386
C149	C	1.674079	-0.557711	-0.322142
N150	N	1.730243	-0.580281	-0.349877
C151	C	1.674368	-1.060076	-0.322232
N152	N	1.730503	-1.082663	-0.349967
