data_functionalizedCrystal
_audit_creation_method	'MofGen! by Chris Wilmer'
_symmetry_space_group_name_H-M	'P1'
_symmetry_Int_Tables_number	1
_symmetry_cell_setting	triclinic
loop_
_symmetry_equiv_pos_as_xyz
  x,y,z
_cell_length_a	13.897448
_cell_length_b	13.033748
_cell_length_c	13.032268
_cell_angle_alpha	103.297929
_cell_angle_beta	97.148041
_cell_angle_gamma	97.212326
loop_
_atom_site_label
_atom_site_type_symbol
_atom_site_fract_x
_atom_site_fract_y
_atom_site_fract_z
Zn1	Zn	-0.248571	1.547444	-0.394585
Zn2	Zn	0.001429	1.797444	-0.144585
Zn3	Zn	0.251429	2.047444	0.105415
Zn4	Zn	0.501429	2.297444	0.355415
Zn5	Zn	-0.386441	1.569898	-0.216997
Zn6	Zn	-0.136441	1.819898	0.033003
Zn7	Zn	0.113559	2.069898	0.283003
Zn8	Zn	0.363559	2.319898	0.533003
Zn9	Zn	-0.248640	1.392397	-0.239526
Zn10	Zn	0.001360	1.642397	0.010474
Zn11	Zn	0.251360	1.892397	0.260474
Zn12	Zn	0.501360	2.142397	0.510474
Zn13	Zn	-0.433314	1.369815	-0.417062
Zn14	Zn	-0.183314	1.619815	-0.167062
Zn15	Zn	0.066686	1.869815	0.082938
Zn16	Zn	0.316686	2.119815	0.332938
O17	O	-0.329241	1.469888	-0.317042
O18	O	-0.079241	1.719888	-0.067042
O19	O	0.170759	1.969888	0.182958
O20	O	0.420759	2.219888	0.432958
O21	O	-0.247214	1.699046	-0.352192
O22	O	0.002786	1.949046	-0.102192
O23	O	0.252786	2.199046	0.147808
O24	O	0.502786	2.449046	0.397808
O25	O	-0.348574	1.565199	-0.071365
O26	O	-0.098574	1.815199	0.178635
O27	O	0.151426	2.065199	0.428635
O28	O	0.401426	2.315199	0.678635
O29	O	-0.113646	1.413018	-0.260116
O30	O	0.136354	1.663018	-0.010116
O31	O	0.386354	1.913018	0.239884
O32	O	0.636354	2.163018	0.489884
O33	O	-0.348507	1.715542	-0.221719
O34	O	-0.098507	1.965542	0.028281
O35	O	0.151493	2.215542	0.278281
O36	O	0.401493	2.465542	0.528281
O37	O	-0.113595	1.526930	-0.374038
O38	O	0.136405	1.776930	-0.124038
O39	O	0.386405	2.026930	0.125962
O40	O	0.636405	2.276930	0.375962
O41	O	-0.247332	1.434790	-0.087917
O42	O	0.002668	1.684790	0.162083
O43	O	0.252668	1.934790	0.412083
O44	O	0.502668	2.184790	0.662083
O45	O	-0.292783	1.240778	-0.281911
O46	O	-0.042783	1.490778	-0.031911
O47	O	0.207217	1.740778	0.218089
O48	O	0.457217	1.990778	0.468089
O49	O	-0.428395	1.374531	-0.562701
O50	O	-0.178395	1.624531	-0.312701
O51	O	0.071605	1.874531	-0.062701
O52	O	0.321605	2.124531	0.187299
O53	O	-0.428462	1.224187	-0.412346
O54	O	-0.178462	1.474187	-0.162346
O55	O	0.071538	1.724187	0.087654
O56	O	0.321538	1.974187	0.337654
O57	O	-0.292665	1.505034	-0.546187
O58	O	-0.042665	1.755034	-0.296187
O59	O	0.207335	2.005034	-0.046187
O60	O	0.457335	2.255034	0.203813
O61	O	-0.527644	1.543303	-0.243514
O62	O	-0.277644	1.793303	0.006486
O63	O	-0.027644	2.043303	0.256486
O64	O	0.222356	2.293303	0.506486
O65	O	-0.562081	1.396303	-0.390501
O66	O	-0.312081	1.646303	-0.140501
O67	O	-0.062081	1.896303	0.109499
O68	O	0.187919	2.146303	0.359499
C69	C	-0.365717	1.193946	-0.352013
C70	C	-0.115717	1.443946	-0.102013
C71	C	0.134283	1.693946	0.147987
C72	C	0.384283	1.943946	0.397987
C73	C	-0.381348	1.075894	-0.366999
C74	C	-0.131348	1.325894	-0.116999
C75	C	0.118652	1.575894	0.133001
C76	C	0.368652	1.825894	0.383001
C77	C	-0.579862	1.469815	-0.317021
C78	C	-0.329862	1.719815	-0.067021
C79	C	-0.079862	1.969815	0.182979
C80	C	0.170138	2.219815	0.432979
C81	C	-0.687070	1.469876	-0.317036
C82	C	-0.437070	1.719876	-0.067036
C83	C	-0.187070	1.969876	0.182964
C84	C	0.062930	2.219876	0.432964
C85	C	-0.321111	1.031430	-0.309247
C86	C	-0.071111	1.281430	-0.059247
C87	C	0.178889	1.531430	0.190753
C88	C	0.428889	1.781430	0.440753
C89	C	-0.337265	0.909417	-0.324735
C90	C	-0.087265	1.159417	-0.074735
C91	C	0.162735	1.409417	0.175265
C92	C	0.412735	1.659417	0.425265
C93	C	-0.883359	1.469979	-0.317088
C94	C	-0.633359	1.719979	-0.067088
C95	C	-0.383359	1.969979	0.182912
C96	C	-0.133359	2.219979	0.432912
C97	C	-0.774131	1.469918	-0.317062
C98	C	-0.524131	1.719918	-0.067062
C99	C	-0.274131	1.969918	0.182938
C100	C	-0.024131	2.219918	0.432938
C101	C	-0.077641	1.469988	-0.317083
C102	C	0.172359	1.719988	-0.067083
C103	C	0.422359	1.969988	0.182917
C104	C	0.672359	2.219988	0.432917
C105	C	0.029576	1.470031	-0.317100
C106	C	0.279576	1.720031	-0.067100
C107	C	0.529576	1.970031	0.182900
C108	C	0.779576	2.220031	0.432900
C109	C	-0.365751	1.434759	-0.594057
C110	C	-0.115751	1.684759	-0.344057
C111	C	0.134249	1.934759	-0.094057
C112	C	0.384249	2.184759	0.155943
C113	C	-0.381309	1.419789	-0.712104
C114	C	-0.131309	1.669789	-0.462104
C115	C	0.118691	1.919789	-0.212104
C116	C	0.368691	2.169789	0.037896
C117	C	-0.292624	1.746908	-0.281935
C118	C	-0.042624	1.996908	-0.031935
C119	C	0.207376	2.246908	0.218065
C120	C	0.457376	2.496908	0.468065
C121	C	-0.277020	1.864957	-0.266975
C122	C	-0.027020	2.114957	-0.016975
C123	C	0.222980	2.364957	0.233025
C124	C	0.472980	2.614957	0.483025
C125	C	-0.321089	1.477685	-0.756562
C126	C	-0.071089	1.727685	-0.506562
C127	C	0.178911	1.977685	-0.256562
C128	C	0.428911	2.227685	-0.006562
C129	C	-0.337168	1.462214	-0.878570
C130	C	-0.087168	1.712214	-0.628570
C131	C	0.162832	1.962214	-0.378570
C132	C	0.412832	2.212214	-0.128570
C133	C	-0.292796	1.504943	-0.041098
C134	C	-0.042796	1.754943	0.208902
C135	C	0.207204	2.004943	0.458902
C136	C	0.457204	2.254943	0.708902
C137	C	-0.276939	1.520118	0.076975
C138	C	-0.026939	1.770118	0.326975
C139	C	0.223061	2.020118	0.576975
C140	C	0.473061	2.270118	0.826975
H141	H	-0.257585	1.083694	-0.248334
H142	H	-0.007585	1.333694	0.001666
H143	H	0.242415	1.583694	0.251666
H144	H	0.492415	1.833694	0.501666
H145	H	-0.213488	0.917216	-0.206058
H146	H	0.036512	1.167216	0.043942
H147	H	0.286512	1.417216	0.293942
H148	H	0.536512	1.667216	0.543942
H149	H	-0.444763	1.358761	-0.764368
H150	H	-0.194763	1.608761	-0.514368
H151	H	0.055237	1.858761	-0.264368
H152	H	0.305237	2.108761	-0.014368
H153	H	-0.400627	1.401182	-0.930831
H154	H	-0.150627	1.651182	-0.680831
H155	H	0.099373	1.901182	-0.430831
H156	H	0.349373	2.151182	-0.180831
H157	H	-0.444880	1.023631	-0.427905
H158	H	-0.194880	1.273631	-0.177905
H159	H	0.055120	1.523631	0.072095
H160	H	0.305120	1.773631	0.322095
H161	H	-0.400801	0.857158	-0.385645
H162	H	-0.150801	1.107158	-0.135645
H163	H	0.099199	1.357158	0.114355
H164	H	0.349199	1.607158	0.364355
H165	H	-0.257626	1.538702	-0.704300
H166	H	-0.007626	1.788702	-0.454300
H167	H	0.242374	2.038702	-0.204300
H168	H	0.492374	2.288702	0.045700
H169	H	-0.213470	1.581138	-0.870767
H170	H	0.036530	1.831138	-0.620767
H171	H	0.286530	2.081138	-0.370767
H172	H	0.536530	2.331138	-0.120767
