data_functionalizedCrystal
_audit_creation_method	'MofGen! by Chris Wilmer'
_symmetry_space_group_name_H-M	'P1'
_symmetry_Int_Tables_number	1
_symmetry_cell_setting	triclinic
loop_
_symmetry_equiv_pos_as_xyz
  x,y,z
_cell_length_a	12.759401
_cell_length_b	12.759400
_cell_length_c	12.759393
_cell_angle_alpha	90.030447
_cell_angle_beta	90.019097
_cell_angle_gamma	90.013149
loop_
_atom_site_label
_atom_site_type_symbol
_atom_site_fract_x
_atom_site_fract_y
_atom_site_fract_z
Zn1	Zn	1.606267	-0.418205	0.594006
Zn2	Zn	2.106267	0.081795	1.094006
Zn3	Zn	1.606166	-0.593924	0.418330
Zn4	Zn	2.106166	-0.093924	0.918330
Zn5	Zn	1.430569	-0.418259	0.418344
Zn6	Zn	1.930569	0.081741	0.918344
Zn7	Zn	1.430562	-0.593842	0.593970
Zn8	Zn	1.930562	-0.093842	1.093970
O9	O	1.518391	-0.506057	0.506162
O10	O	2.018391	-0.006057	1.006162
O11	O	1.753274	-0.441526	0.570712
O12	O	2.253274	0.058474	1.070712
O13	O	1.582833	-0.570678	0.271311
O14	O	2.082833	-0.070678	0.771311
O15	O	1.453920	-0.271231	0.441667
O16	O	1.953920	0.228769	0.941667
O17	O	1.753200	-0.570625	0.441643
O18	O	2.253200	-0.070625	0.941643
O19	O	1.583005	-0.271191	0.570726
O20	O	2.083005	0.228809	1.070726
O21	O	1.453822	-0.441618	0.271321
O22	O	1.953822	0.058382	0.771321
O23	O	1.283547	-0.441539	0.441631
O24	O	1.783547	0.058461	0.941631
O25	O	1.453909	-0.570487	0.740996
O26	O	1.953909	-0.070487	1.240996
O27	O	1.283542	-0.570539	0.570663
O28	O	1.783542	-0.070539	1.070663
O29	O	1.582998	-0.441447	0.741023
O30	O	2.082998	0.058553	1.241023
O31	O	1.582826	-0.740934	0.441608
O32	O	2.082826	-0.240934	0.941608
O33	O	1.453811	-0.740874	0.570649
O34	O	1.953811	-0.240874	1.070649
C35	C	1.245423	-0.506037	0.506145
C36	C	1.745423	-0.006037	1.006145
C37	C	1.128647	-0.506054	0.506163
C38	C	1.628647	-0.006054	1.006163
C39	C	0.964094	-0.438966	0.573482
C40	C	1.464094	0.061034	1.073482
C41	C	1.073818	-0.438952	0.573472
C42	C	1.573818	0.061048	1.073472
C43	C	1.073746	-0.573182	0.438866
C44	C	1.573746	-0.073182	0.938866
C45	C	0.964024	-0.573201	0.438881
C46	C	1.464024	-0.073201	0.938881
C47	C	0.909270	-0.371853	0.640788
C48	C	1.409270	0.128147	1.140788
C49	C	0.964163	-0.304725	0.708087
C50	C	1.464163	0.195275	1.208087
C51	C	1.073887	-0.304711	0.708077
C52	C	1.573887	0.195289	1.208077
C53	C	1.128718	-0.371824	0.640769
C54	C	1.628718	0.128176	1.140769
C55	C	1.518336	-0.779025	0.506146
C56	C	2.018336	-0.279025	1.006146
C57	C	1.518408	-0.895801	0.506174
C58	C	2.018408	-0.395801	1.006174
C59	C	1.585589	-0.950563	0.573430
C60	C	2.085589	-0.450563	1.073430
C61	C	1.585638	-1.060287	0.573455
C62	C	2.085638	-0.560287	1.073455
C63	C	1.451322	-1.060478	0.438960
C64	C	1.951322	-0.560478	0.938960
C65	C	1.451269	-0.950756	0.438941
C66	C	1.951269	-0.450756	0.938941
C67	C	1.652728	-0.895608	0.640663
C68	C	2.152728	-0.395608	1.140663
C69	C	1.719915	-0.950370	0.707923
C70	C	2.219915	-0.450370	1.207923
C71	C	1.719964	-1.060094	0.707949
C72	C	2.219964	-0.560094	1.207949
C73	C	1.652826	-1.115056	0.640714
C74	C	2.152826	-0.615056	1.140714
C75	C	1.792424	-0.506079	0.506180
C76	C	2.292424	-0.006079	1.006180
C77	C	1.909201	-0.506087	0.506188
C78	C	2.409201	-0.006087	1.006188
C79	C	1.518464	-0.505951	0.780196
C80	C	2.018464	-0.005951	1.280196
C81	C	1.518496	-0.505906	0.896973
C82	C	2.018496	-0.005906	1.396973
C83	C	1.518475	-0.232024	0.506202
C84	C	2.018475	0.267976	1.006202
C85	C	1.518510	-0.115248	0.506219
C86	C	2.018510	0.384752	1.006219
C87	C	1.518378	-0.506087	0.233195
C88	C	2.018378	-0.006087	0.733195
C89	C	1.518550	-0.505836	0.116419
C90	C	2.018550	-0.005836	0.616419
C91	C	1.585722	-0.438709	0.951850
C92	C	2.085722	0.061291	1.451850
C93	C	1.585747	-0.438671	1.061575
C94	C	2.085747	0.061329	1.561575
C95	C	1.451316	-0.573037	1.061533
C96	C	1.951316	-0.073037	1.561533
C97	C	1.451287	-0.573069	0.951811
C98	C	1.951287	-0.073069	1.451811
C99	C	1.652930	-0.371546	0.897012
C100	C	2.152930	0.128454	1.397012
C101	C	1.720163	-0.304344	0.951890
C102	C	2.220163	0.195656	1.451890
C103	C	1.720188	-0.304306	1.061614
C104	C	2.220188	0.195694	1.561614
C105	C	1.652980	-0.371470	1.116460
C106	C	2.152980	0.128530	1.616460
H107	H	0.919513	-0.250090	0.762892
H108	H	1.419513	0.249910	1.262892
C109	C	1.652878	-1.235757	0.640752
C110	C	2.152878	-0.735757	1.140752
N111	N	1.652921	-1.326667	0.640779
N112	N	2.152921	-0.826667	1.140779
H113	H	1.396563	-0.906169	0.384176
H114	H	1.896563	-0.406169	0.884176
H115	H	0.819927	-0.371852	0.640799
H116	H	1.319927	0.128148	1.140799
H117	H	1.118578	-0.250060	0.762882
H118	H	1.618578	0.249940	1.262882
H119	H	0.919329	-0.627859	0.384087
H120	H	1.419329	-0.127859	0.884087
H121	H	1.396662	-1.105238	0.384220
H122	H	1.896662	-0.605238	0.884220
H123	H	1.652920	-0.371572	0.807669
H124	H	2.152920	0.128428	1.307669
C125	C	1.652677	-0.774910	0.640644
C126	C	2.152677	-0.274910	1.140644
N127	N	1.652637	-0.683999	0.640630
N128	N	2.152637	-0.183999	1.140630
H129	H	1.218063	-0.371799	0.640760
H130	H	1.718063	0.128201	1.140760
H131	H	1.774571	-0.905614	0.762670
H132	H	2.274571	-0.405614	1.262670
H133	H	1.396529	-0.627771	0.907129
H134	H	1.896529	-0.127771	1.407129
C135	C	1.794082	-0.230463	0.891557
C136	C	2.294082	0.269537	1.391557
N137	N	1.849759	-0.174813	0.846115
N138	N	2.349759	0.325187	1.346115
C139	C	1.794140	-0.230380	1.121976
C140	C	2.294140	0.269620	1.621976
N141	N	1.849848	-0.174700	1.167439
N142	N	2.349848	0.325300	1.667439
C143	C	1.134065	-0.646991	0.364822
C144	C	1.634065	-0.146991	0.864822
N145	N	1.179496	-0.702579	0.309046
N146	N	1.679496	-0.202579	0.809046
H147	H	1.396599	-0.627718	1.106198
H148	H	1.896599	-0.127718	1.606198
C149	C	1.653007	-0.371419	1.237161
C150	C	2.153007	0.128581	1.737161
N151	N	1.653031	-0.371383	1.328071
N152	N	2.153031	0.128617	1.828071
H153	H	1.774662	-1.104678	0.762724
H154	H	2.274662	-0.604678	1.262724
