data_functionalizedCrystal
_audit_creation_method	'MofGen! by Chris Wilmer'
_symmetry_space_group_name_H-M	'P1'
_symmetry_Int_Tables_number	1
_symmetry_cell_setting	triclinic
loop_
_symmetry_equiv_pos_as_xyz
  x,y,z
_cell_length_a	19.805407
_cell_length_b	19.805405
_cell_length_c	11.169409
_cell_angle_alpha	89.962829
_cell_angle_beta	89.977652
_cell_angle_gamma	90.024042
loop_
_atom_site_label
_atom_site_type_symbol
_atom_site_fract_x
_atom_site_fract_y
_atom_site_fract_z
Zn1	Zn	1.034765	-0.269457	-0.678583
Zn2	Zn	1.034670	-0.382666	-0.477883
Zn3	Zn	0.921570	-0.269491	-0.477909
Zn4	Zn	0.921542	-0.382604	-0.678519
O5	O	0.978137	-0.326054	-0.578224
O6	O	1.129469	-0.284486	-0.651976
O7	O	1.019639	-0.367693	-0.309937
O8	O	0.936637	-0.174770	-0.504566
O9	O	1.129399	-0.367660	-0.504522
O10	O	1.019801	-0.174745	-0.652001
O11	O	0.936545	-0.284544	-0.309955
O12	O	0.826850	-0.284484	-0.504504
O13	O	0.936589	-0.367554	-0.846477
O14	O	0.826829	-0.367588	-0.651892
O15	O	1.019773	-0.284426	-0.846524
O16	O	1.019612	-0.477374	-0.504460
O17	O	0.936497	-0.477329	-0.651867
C18	C	0.802281	-0.326033	-0.578194
C19	C	0.727049	-0.326040	-0.578210
C20	C	0.691741	-0.282808	-0.655106
C21	C	0.621053	-0.282812	-0.655111
C22	C	0.585673	-0.326052	-0.578225
C23	C	0.620985	-0.369286	-0.501321
C24	C	0.691672	-0.369278	-0.501311
C25	C	0.335912	-0.369316	-0.501357
C26	C	0.265220	-0.369322	-0.501376
C27	C	0.265293	-0.282850	-0.655157
C28	C	0.335980	-0.282842	-0.655148
C29	C	0.371286	-0.326074	-0.578239
C30	C	0.447934	-0.326068	-0.578234
C31	C	0.509026	-0.326061	-0.578236
C32	C	0.978060	-0.501911	-0.578180
C33	C	0.978088	-0.577142	-0.578202
C34	C	1.021366	-0.612415	-0.655031
C35	C	1.021390	-0.683104	-0.655053
C36	C	0.978140	-0.718518	-0.578239
C37	C	0.934858	-0.683240	-0.501407
C38	C	0.934831	-0.612553	-0.501391
C39	C	0.934967	-0.968314	-0.501468
C40	C	0.934999	-1.039006	-0.501487
C41	C	1.021526	-1.038864	-0.655130
C42	C	1.021499	-0.968177	-0.655115
C43	C	0.978215	-0.932905	-0.578287
C44	C	0.978188	-0.856257	-0.578265
C45	C	0.978170	-0.795165	-0.578254
C46	C	1.154679	-0.326076	-0.578253
C47	C	1.229911	-0.326085	-0.578266
C48	C	0.978189	-0.325979	-0.891266
C49	C	0.978211	-0.325947	-1.024666
C50	C	0.978233	-0.149512	-0.578293
C51	C	0.978273	-0.074280	-0.578323
C52	C	0.978124	-0.326080	-0.266399
C53	C	0.978233	-0.325922	-0.132999
H54	H	0.592173	-0.404489	-0.438713
H55	H	0.720419	-0.404482	-0.438694
C56	C	0.582218	-0.235255	-0.739706
N57	N	0.552968	-0.199433	-0.803427
H58	H	1.056637	-0.711820	-0.717606
H59	H	0.899724	-0.939601	-0.438910
H60	H	0.899640	-0.712080	-0.438868
H61	H	0.236416	-0.404534	-0.438761
C62	C	1.069082	-0.929225	-0.739608
N63	N	1.104922	-0.899888	-0.803252
H64	H	0.899589	-0.583835	-0.438830
H65	H	0.720543	-0.247599	-0.717719
H66	H	1.056769	-1.067591	-0.717691
H67	H	0.364782	-0.247634	-0.717760
H68	H	0.364650	-0.404518	-0.438735
H69	H	1.056588	-0.583586	-0.717577
C70	C	0.226450	-0.235283	-0.739739
N71	N	0.197194	-0.199455	-0.803442
C72	C	0.887413	-1.077960	-0.416989
N73	N	0.851574	-1.107300	-0.353349
