data_functionalizedCrystal
_audit_creation_method	'MofGen! by Chris Wilmer'
_symmetry_space_group_name_H-M	'P1'
_symmetry_Int_Tables_number	1
_symmetry_cell_setting	triclinic
loop_
_symmetry_equiv_pos_as_xyz
  x,y,z
_cell_length_a	14.446369
_cell_length_b	14.446369
_cell_length_c	14.446369
_cell_angle_alpha	59.999833
_cell_angle_beta	90.002259
_cell_angle_gamma	59.999699
loop_
_atom_site_label
_atom_site_type_symbol
_atom_site_fract_x
_atom_site_fract_y
_atom_site_fract_z
Zr1	Zr	0.891778	1.013188	-0.121488
O2	O	0.743969	1.206310	-0.269305
O3	O	0.937089	0.820068	-0.076168
O4	O	0.937088	1.013180	-0.269289
O5	O	0.743971	1.013204	0.076146
O6	O	1.089425	1.013172	-0.269283
O7	O	0.743970	1.013198	-0.076184
O8	O	1.089426	0.667730	0.076174
O9	O	0.743971	1.358646	-0.269312
O10	O	1.070102	0.899494	-0.056843
O11	O	0.956416	0.899505	0.056835
O12	O	0.956415	1.126869	-0.170540
O13	O	0.842729	1.126880	-0.056862
Zr14	Zr	1.134741	1.013184	0.121470
Zr15	Zr	1.134739	1.013175	-0.121479
Zr16	Zr	0.891781	1.013197	0.121461
Zr17	Zr	0.891781	1.256146	-0.121499
Zr18	Zr	1.134739	0.770226	0.121481
O19	O	1.089431	1.206304	0.076150
O20	O	1.089427	1.206291	-0.269292
O21	O	0.743973	1.206323	0.076137
O22	O	1.282551	0.820062	0.269286
O23	O	1.282547	0.820049	-0.076155
O24	O	0.937093	0.820081	0.269274
O25	O	1.282549	1.013168	-0.076164
O26	O	1.089431	1.013192	0.269270
O27	O	0.937094	1.013201	0.269265
O28	O	1.282550	1.013174	0.076166
O29	O	0.937091	1.358635	-0.269305
O30	O	1.089428	0.667737	0.269286
O31	O	1.282549	0.667727	0.269293
O32	O	1.282547	0.667719	0.076182
O33	O	0.743973	1.358653	-0.076200
O34	O	0.937094	1.358642	-0.076193
O35	O	1.070104	0.899503	0.170521
O36	O	1.183791	0.899492	0.056843
O37	O	1.070104	1.126867	-0.056853
O38	O	0.956418	1.126878	0.056825
C39	C	1.013257	0.709283	0.000005
C40	C	1.013256	0.606141	0.000009
C41	C	0.941898	0.459138	0.072035
C42	C	0.941510	0.566758	0.071743
C43	C	0.960948	0.655135	-0.123528
C44	C	0.960412	0.547902	-0.123154
C45	C	1.136973	0.372678	0.050459
C46	C	1.136791	0.478829	0.052980
C47	C	0.709354	1.013203	-0.000020
C48	C	0.606211	1.013208	-0.000024
C49	C	0.387843	1.156599	-0.071371
C50	C	0.495074	1.156695	-0.071772
C51	C	0.602886	0.941975	-0.052320
C52	C	0.495117	0.942885	-0.052843
C53	C	0.496483	0.939939	0.123709
C54	C	0.602452	0.942641	0.123514
C55	C	1.317166	1.013169	0.000002
C56	C	1.420309	1.013164	0.000006
C57	C	1.013257	1.013175	-0.303901
C58	C	1.013255	1.013171	-0.407039
C59	C	1.013263	1.317089	-0.000023
C60	C	1.013264	1.420231	-0.000028
C61	C	1.084970	0.869751	-0.374610
C62	C	1.085358	0.869699	-0.481865
C63	C	1.065186	1.084837	-0.589833
C64	C	1.065723	1.083883	-0.482042
C65	C	0.889581	1.085998	-0.483007
C66	C	0.889773	1.083333	-0.588996
C67	C	1.013263	1.013198	0.303883
C68	C	1.013264	1.013202	0.407021
C69	C	1.317163	0.709266	0.000016
C70	C	1.420305	0.606118	0.000024
C71	C	1.013260	0.709294	0.303897
C72	C	1.013261	0.606156	0.407040
C73	C	1.317167	0.709278	0.303908
C74	C	1.420310	0.606134	0.407054
C75	C	0.709353	1.317095	-0.303926
C76	C	0.606210	1.420238	-0.407073
C77	C	0.709357	1.317106	-0.000034
C78	C	0.606215	1.420254	-0.000043
C79	C	1.013259	1.317078	-0.303915
C80	C	1.013259	1.420216	-0.407058
C81	C	1.638674	0.459796	0.071364
C82	C	1.531443	0.566725	0.071766
C83	C	1.423633	0.479262	0.052327
C84	C	1.531401	0.371879	0.052849
C85	C	1.530027	0.546851	-0.123711
C86	C	1.424059	0.655329	-0.123515
C87	C	0.941211	0.459845	0.482027
C88	C	0.941515	0.566767	0.374692
C89	C	1.136793	0.479295	0.481604
C90	C	1.136406	0.371919	0.588469
C91	C	0.962801	0.546901	0.590040
C92	C	0.960293	0.655373	0.481363
C93	C	1.495297	0.459796	0.625423
C94	C	1.387963	0.566742	0.518187
C95	C	1.494852	0.479281	0.410374
C96	C	1.601717	0.371881	0.518147
C97	C	1.603333	0.546825	0.516800
C98	C	1.494655	0.655320	0.410827
H99	H	1.190395	0.346698	-0.001778
H100	H	1.050565	0.813521	-0.480121
H101	H	0.521771	0.837649	-0.004216
H102	H	1.520181	0.687442	0.331674
H103	H	0.869286	0.745871	0.429935
H104	H	1.050361	0.813143	-0.320511
H105	H	0.332857	1.212616	-0.162073
H106	H	1.601435	0.281134	0.568481
H107	H	1.175660	0.814023	-0.319780
H108	H	1.680300	0.341914	0.491498
H109	H	1.155309	1.035687	-0.592132
H110	H	1.016833	1.189128	-0.508678
H111	H	0.446460	0.985835	0.167397
H112	H	1.345365	0.501510	0.002847
H113	H	1.010431	0.683916	-0.179542
H114	H	1.533057	0.656074	0.036687
H115	H	1.176591	0.813774	-0.479574
H116	H	1.522090	0.501526	0.332113
H117	H	0.831879	1.188002	-0.668124
H118	H	0.333887	1.212894	-0.036471
H119	H	1.581749	0.281124	0.143879
H120	H	0.850014	0.497089	0.479687
H121	H	1.007326	0.687497	0.506886
H122	H	0.873210	0.586478	0.594152
H123	H	0.492627	1.212922	-0.163025
H124	H	1.192815	0.501540	0.508836
H125	H	0.850550	0.656121	0.320416
H126	H	0.601935	0.994580	0.162582
H127	H	1.443231	0.440743	0.408228
H128	H	0.681610	0.837959	0.181170
H129	H	1.421501	0.440706	0.142492
H130	H	1.607464	0.586382	0.566826
H131	H	1.580045	0.586419	-0.167401
H132	H	1.156719	1.033567	-0.431853
H133	H	1.424580	0.745816	-0.162586
H134	H	0.976597	0.530049	0.162712
H135	H	0.493315	1.212869	-0.036967
H136	H	0.870786	0.747446	-0.164221
H137	H	1.015438	1.190364	-0.668090
H138	H	1.333702	0.656089	0.519806
H139	H	1.015040	0.522110	0.668258
H140	H	1.344900	0.687456	-0.181166
H141	H	1.533901	0.529260	0.163020
H142	H	1.502578	0.522061	-0.177137
H143	H	1.176814	0.281163	0.588200
H144	H	0.846167	1.039769	-0.432838
H145	H	0.851184	0.494904	0.037326
H146	H	1.443259	0.745781	0.411389
H147	H	1.180676	0.278933	0.140028
H148	H	1.492974	0.497023	0.679387
H149	H	1.494252	0.370137	0.680396
H150	H	0.850982	1.031093	-0.588341
H151	H	0.975896	0.370177	0.480997
H152	H	0.681154	0.836473	-0.002835
H153	H	1.175869	0.439229	0.143991
H154	H	1.681552	0.522025	0.489359
H155	H	0.444772	0.993503	-0.143872
H156	H	1.692630	0.497033	0.036461
H157	H	1.009035	0.525929	-0.179763
H158	H	1.193018	0.341962	0.667052
H159	H	1.177483	0.440734	0.430000
H160	H	1.334162	0.529294	0.520631
H161	H	0.976799	0.370271	0.163230
H162	H	0.835904	1.191649	-0.510427
H163	H	0.523921	0.834277	0.177143
H164	H	0.850259	0.655562	0.036742
H165	H	1.194444	0.500326	0.005953
H166	H	0.976527	0.529297	0.320909
H167	H	0.869379	0.588604	-0.163571
H168	H	0.605021	0.991447	-0.142485
H169	H	1.504746	0.341924	0.004222
H170	H	1.693660	0.370128	0.162066
