data_functionalizedCrystal
_audit_creation_method	'MofGen! by Chris Wilmer'
_symmetry_space_group_name_H-M	'P1'
_symmetry_Int_Tables_number	1
_symmetry_cell_setting	triclinic
loop_
_symmetry_equiv_pos_as_xyz
  x,y,z
_cell_length_a	10.489741
_cell_length_b	11.295692
_cell_length_c	12.837938
_cell_angle_alpha	94.168408
_cell_angle_beta	90.316093
_cell_angle_gamma	85.449422
loop_
_atom_site_label
_atom_site_type_symbol
_atom_site_fract_x
_atom_site_fract_y
_atom_site_fract_z
O1	O	1.701778	0.098940	-0.140093
O2	O	1.332096	0.098957	-0.153832
O3	O	1.508740	0.098949	0.004002
O4	O	1.525134	0.098947	-0.297926
O5	O	1.525564	-0.099095	-0.008588
O6	O	1.348920	-0.099087	-0.166422
O7	O	1.718602	-0.099105	-0.152682
Cu8	Cu	1.535297	-0.117179	-0.160702
Cu9	Cu	1.515401	0.117032	-0.145813
O10	O	1.541958	-0.099097	-0.310516
C11	C	1.292862	-0.000063	-0.159089
C12	C	1.150889	-0.000056	-0.155984
N13	N	1.549301	-0.281910	-0.171173
C14	C	1.650306	-0.468893	-0.246595
C15	C	1.639683	-0.344233	-0.238677
C16	C	1.469532	-0.344256	-0.111585
C17	C	1.480155	-0.468915	-0.119503
C18	C	1.570547	-0.531230	-0.187009
C19	C	1.581175	-0.655892	-0.194921
C20	C	1.411019	-0.655912	-0.067835
C21	C	1.400396	-0.531252	-0.059917
C22	C	1.071679	-0.000066	-0.055559
C23	C	0.976487	0.097577	-0.096792
C24	C	0.993111	-0.097679	-0.109228
C25	C	1.057561	0.097669	-0.197252
C26	C	1.074200	-0.097675	-0.209681
C27	C	0.979042	-0.000008	-0.250985
C28	C	1.757836	-0.000082	-0.147425
C29	C	1.899808	-0.000082	-0.150530
N30	N	1.501407	0.281763	-0.135333
C31	C	1.511614	-0.000070	0.036369
C32	C	1.495096	-0.000061	0.151570
C33	C	1.693669	-0.000034	0.391048
C34	C	1.678155	-0.000025	0.499290
C35	C	1.448553	-0.000027	0.476299
C36	C	1.464067	-0.000036	0.368057
C37	C	1.586629	-0.000041	0.325436
C38	C	1.602144	-0.000058	0.217191
C39	C	1.372541	-0.000051	0.194203
C40	C	1.357027	-0.000043	0.302445
C41	C	1.539084	-0.000062	0.657118
C42	C	1.555601	-0.000024	0.541920
H43	H	1.654778	-0.706627	-0.249886
H44	H	1.086049	0.180312	-0.234458
C45	C	1.727427	-0.275667	-0.304214
H46	H	1.782785	-0.330637	-0.345543
H47	H	1.676775	-0.227044	-0.348462
H48	H	1.776876	-0.227030	-0.259061
H49	H	0.964459	-0.180229	-0.071965
H50	H	1.257239	-0.000034	0.337163
C51	C	1.300983	-0.462700	0.014341
H52	H	1.306085	-0.379529	0.010530
H53	H	1.217713	-0.483145	-0.005531
H54	H	1.317842	-0.483124	0.083850
H55	H	1.112256	0.000057	0.027005
H56	H	1.285383	-0.000066	0.140768
H57	H	1.701940	-0.000066	0.182490
C58	C	1.795894	-0.000015	0.571465
H59	H	1.769104	0.000001	0.642036
H60	H	1.851482	-0.069076	0.554065
H61	H	1.839726	0.069058	0.562833
C62	C	1.313744	0.000002	0.523193
H63	H	1.252210	0.000009	0.468616
H64	H	1.308777	-0.069047	0.560566
H65	H	1.297069	0.069087	0.569318
H66	H	1.395934	-0.293498	-0.056631
C67	C	1.749730	-0.537443	-0.320845
H68	H	1.795709	-0.482462	-0.355202
H69	H	1.807458	-0.586063	-0.281881
H70	H	1.707351	-0.586080	-0.371277
C71	C	1.828476	-0.000049	0.344154
H72	H	1.822385	-0.000064	0.270291
H73	H	1.867243	0.069010	0.371002
H74	H	1.878964	-0.069124	0.362228
H75	H	1.346072	-0.706680	-0.019317
H76	H	0.933775	0.180130	-0.049052
C77	C	1.131954	-0.209198	-0.274122
H78	H	1.110201	-0.278516	-0.242750
H79	H	1.098951	-0.209902	-0.343199
H80	H	1.222357	-0.207993	-0.276150
H81	H	0.938724	0.000045	-0.333625
