data_functionalizedCrystal
_audit_creation_method	'MofGen! by Chris Wilmer'
_symmetry_space_group_name_H-M	'P1'
_symmetry_Int_Tables_number	1
_symmetry_cell_setting	triclinic
loop_
_symmetry_equiv_pos_as_xyz
  x,y,z
_cell_length_a	17.077404
_cell_length_b	25.639240
_cell_length_c	17.077396
_cell_angle_alpha	90.026744
_cell_angle_beta	89.981638
_cell_angle_gamma	89.964608
loop_
_atom_site_label
_atom_site_type_symbol
_atom_site_fract_x
_atom_site_fract_y
_atom_site_fract_z
Zn1	Zn	1.199975	0.208179	-0.443828
Zn2	Zn	1.199849	0.295617	-0.312566
Zn3	Zn	1.068707	0.208194	-0.312579
Zn4	Zn	1.068642	0.295582	-0.443792
O5	O	1.134293	0.251893	-0.378191
O6	O	1.309805	0.219786	-0.426426
O7	O	1.182427	0.284041	-0.202721
O8	O	1.086200	0.135027	-0.330010
O9	O	1.309713	0.284026	-0.329988
O10	O	1.182642	0.135016	-0.426438
O11	O	1.086078	0.219811	-0.202730
O12	O	0.958852	0.219778	-0.329975
O13	O	1.086089	0.283967	-0.553644
O14	O	0.958804	0.283982	-0.426377
O15	O	1.182579	0.219753	-0.553671
O16	O	1.182364	0.368777	-0.329953
O17	O	1.085967	0.368752	-0.426365
C18	C	0.930345	0.251878	-0.378174
C19	C	0.843096	0.251884	-0.378185
C20	C	1.134166	0.387736	-0.378171
C21	C	1.134183	0.445850	-0.378188
C22	C	1.184444	0.696986	-0.428445
C23	C	1.184428	0.642382	-0.428440
O24	O	1.227105	0.614097	-0.471148
N25	N	1.134245	0.615123	-0.378195
C26	C	1.084081	0.642472	-0.327946
O27	O	1.041396	0.614273	-0.285208
C28	C	1.084101	0.697076	-0.327948
C29	C	1.134282	0.724331	-0.378202
C30	C	1.234621	0.724242	-0.478694
C31	C	1.234635	0.778842	-0.478700
C32	C	1.184473	0.806187	-0.428457
C33	C	1.134296	0.778932	-0.378207
C34	C	1.033941	0.724424	-0.277696
C35	C	1.033967	0.779031	-0.277701
C36	C	1.084147	0.806286	-0.327955
C37	C	1.084149	0.860877	-0.327970
N38	N	1.134331	0.888136	-0.378215
C39	C	1.184494	0.860790	-0.428458
C40	C	1.084043	0.527802	-0.327946
C41	C	1.084018	0.473199	-0.327948
C42	C	1.184366	0.473113	-0.428441
C43	C	1.184386	0.527716	-0.428442
C44	C	1.134225	0.555060	-0.378191
C45	C	1.184520	0.975456	-0.428467
C46	C	1.184528	1.030061	-0.428471
C47	C	1.084183	1.030143	-0.327975
C48	C	1.084172	0.975542	-0.327974
C49	C	1.134347	0.948200	-0.378223
O50	O	1.041496	0.889197	-0.285281
O51	O	1.227179	0.888996	-0.471182
C52	C	0.802155	0.218494	-0.428477
C53	C	0.720174	0.218497	-0.428480
C54	C	0.679136	0.251894	-0.378196
C55	C	0.720083	0.285286	-0.327898
C56	C	0.802062	0.285280	-0.327891
C57	C	0.549213	0.285298	-0.327918
C58	C	0.467228	0.285305	-0.327926
C59	C	0.467325	0.218516	-0.428507
C60	C	0.549304	0.218509	-0.428500
C61	C	0.590245	0.251902	-0.378203
C62	C	1.339038	0.251908	-0.378210
C63	C	1.426287	0.251915	-0.378217
C64	C	1.134341	0.251854	-0.582936
C65	C	1.134361	0.251838	-0.670186
C66	C	1.134407	1.115520	-0.378225
C67	C	1.134366	1.057406	-0.378227
C68	C	1.184605	0.218399	-0.711191
C69	C	1.184615	0.218381	-0.793171
C70	C	1.134383	0.251806	-0.834145
C71	C	1.084134	0.285247	-0.793134
C72	C	1.084121	0.285262	-0.711155
C73	C	1.084165	0.285216	-0.964004
C74	C	1.084179	0.285202	-1.045989
C75	C	1.184659	0.218335	-1.046020
C76	C	1.184646	0.218350	-0.964041
C77	C	1.134397	0.251792	-0.923036
C78	C	1.134291	0.251894	-0.174244
C79	C	1.134423	0.251763	-0.086994
H80	H	1.225390	1.052250	-0.469398
H81	H	0.686843	0.191309	-0.469434
H82	H	0.582715	0.191318	-0.469451
H83	H	0.993119	0.801291	-0.236779
Cl84	Cl	1.247597	0.941091	-0.491638
H85	H	1.225554	0.191135	-0.930683
Cl86	Cl	0.415857	0.176535	-0.491735
H87	H	1.225572	0.191105	-1.079411
H88	H	1.225512	0.191182	-0.677836
Cl89	Cl	1.021120	1.064530	-0.264821
H90	H	1.043303	0.953351	-0.287061
Cl91	Cl	1.021021	0.327217	-1.097498
H92	H	1.043235	0.312439	-0.930621
H93	H	1.043231	0.312460	-0.826502
Cl94	Cl	0.853737	0.176509	-0.491699
Cl95	Cl	0.415639	0.327302	-0.264728
Cl96	Cl	0.600681	0.327281	-0.264692
H97	H	1.043188	0.550062	-0.287027
H98	H	1.275503	0.801029	-0.519616
Cl99	Cl	1.297690	0.689875	-0.541867
Cl100	Cl	1.247817	0.176364	-0.844717
H101	H	1.043199	0.312486	-0.677770
Cl102	Cl	0.853531	0.327258	-0.264665
Cl103	Cl	1.247475	0.561974	-0.491618
H104	H	1.225212	0.450838	-0.469350
H105	H	1.043148	0.451012	-0.287035
Cl106	Cl	0.668493	0.327268	-0.264678
H107	H	0.993081	0.702240	-0.236774
