data_functionalizedCrystal
_audit_creation_method	'MofGen! by Chris Wilmer'
_symmetry_space_group_name_H-M	'P1'
_symmetry_Int_Tables_number	1
_symmetry_cell_setting	triclinic
loop_
_symmetry_equiv_pos_as_xyz
  x,y,z
_cell_length_a	23.532407
_cell_length_b	23.532407
_cell_length_c	12.996460
_cell_angle_alpha	90.004951
_cell_angle_beta	90.000844
_cell_angle_gamma	82.848678
loop_
_atom_site_label
_atom_site_type_symbol
_atom_site_fract_x
_atom_site_fract_y
_atom_site_fract_z
O1	O	0.755261	0.069131	0.085449
O2	O	1.255261	0.569131	0.585449
O3	O	0.589398	0.079134	0.085480
O4	O	1.089398	0.579134	0.585480
O5	O	0.677331	-0.008799	0.085445
O6	O	1.177331	0.491201	0.585445
O7	O	0.667328	0.157064	0.085484
O8	O	1.167328	0.657064	0.585484
O9	O	0.677320	-0.008794	-0.085689
O10	O	1.177320	0.491206	0.414311
O11	O	0.589387	0.079139	-0.085653
O12	O	1.089387	0.579139	0.414347
O13	O	0.755250	0.069136	-0.085685
O14	O	1.255250	0.569136	0.414315
Cu15	Cu	0.672317	0.074138	-0.101295
Cu16	Cu	1.172317	0.574138	0.398705
Cu17	Cu	0.672331	0.074132	0.101091
Cu18	Cu	1.172331	0.574132	0.601091
O19	O	0.667317	0.157069	-0.085649
O20	O	1.167317	0.657069	0.414351
C21	C	0.568176	0.078882	-0.000083
C22	C	1.068176	0.578882	0.499917
C23	C	0.504959	0.078116	-0.000071
C24	C	1.004959	0.578116	0.499929
C25	C	0.105856	0.125350	-0.000107
C26	C	0.605856	0.625350	0.499893
C27	C	0.046456	0.124638	-0.000113
C28	C	0.546456	0.624638	0.499887
O29	O	0.009711	0.168424	-0.000140
O30	O	0.509711	0.668424	0.499860
N31	N	0.023830	0.072362	-0.000124
N32	N	0.523830	0.572362	0.499876
C33	C	0.060607	0.020794	-0.000139
C34	C	0.560607	0.520794	0.499861
O35	O	0.035908	-0.023737	-0.000149
O36	O	0.535908	0.476263	0.499851
C37	C	0.120006	0.021506	-0.000140
C38	C	0.620006	0.521506	0.499860
C39	C	0.142629	0.073785	-0.000118
C40	C	0.642629	0.573785	0.499882
C41	C	0.128479	0.177625	-0.000087
C42	C	0.628479	0.677625	0.499913
C43	C	0.187876	0.178336	-0.000078
C44	C	0.687876	0.678336	0.499922
C45	C	0.224649	0.126772	-0.000090
C46	C	0.724649	0.626772	0.499910
C47	C	0.202025	0.074497	-0.000110
C48	C	0.702025	0.574497	0.499890
C49	C	0.156783	-0.030062	-0.000162
C50	C	0.656783	0.469938	0.499838
C51	C	0.216185	-0.029345	-0.000163
C52	C	0.716185	0.470655	0.499837
C53	C	0.238808	0.022934	-0.000142
C54	C	0.738808	0.522934	0.499858
C55	C	0.298194	0.023643	-0.000113
C56	C	0.798194	0.523643	0.499887
N57	N	0.320820	0.075920	-0.000103
N58	N	0.820820	0.575920	0.499897
C59	C	0.284048	0.127484	-0.000091
C60	C	0.784048	0.627484	0.499909
C61	C	-0.064135	0.019302	-0.000139
C62	C	0.435865	0.519302	0.499861
C63	C	-0.123533	0.018589	-0.000130
C64	C	0.376467	0.518589	0.499870
C65	C	-0.137680	0.122434	-0.000107
C66	C	0.362320	0.622434	0.499893
C67	C	-0.078281	0.123146	-0.000108
C68	C	0.421719	0.623146	0.499892
C69	C	-0.041509	0.071578	-0.000128
C70	C	0.458491	0.571578	0.499872
C71	C	0.408784	0.128974	-0.000072
C72	C	0.908784	0.628974	0.499928
C73	C	0.468186	0.129680	-0.000060
C74	C	0.968186	0.629680	0.499940
C75	C	0.482329	0.025836	-0.000089
C76	C	0.982329	0.525836	0.499911
C77	C	0.422932	0.025129	-0.000096
C78	C	0.922932	0.525129	0.499904
C79	C	0.386160	0.076702	-0.000091
C80	C	0.886160	0.576702	0.499909
O81	O	0.334974	-0.020119	-0.000091
O82	O	0.834974	0.479881	0.499909
O83	O	0.308755	0.172007	-0.000094
O84	O	0.808755	0.672007	0.499906
C85	C	0.677071	-0.030013	-0.000125
C86	C	1.177071	0.469987	0.499875
C87	C	0.676305	-0.093230	-0.000132
C88	C	1.176305	0.406770	0.499868
C89	C	0.723539	-0.492333	-0.000085
C90	C	1.223539	0.007667	0.499915
C91	C	0.722827	-0.551733	-0.000077
C92	C	1.222827	-0.051733	0.499923
O93	O	0.766613	-0.588478	-0.000047
O94	O	1.266613	-0.088478	0.499953
N95	N	0.670551	-0.574359	-0.000068
N96	N	1.170551	-0.074359	0.499932
C97	C	0.618983	-0.537582	-0.000056
C98	C	1.118983	-0.037582	0.499944
O99	O	0.574452	-0.562281	-0.000047
O100	O	1.074452	-0.062281	0.499953
C101	C	0.619695	-0.478182	-0.000057
C102	C	1.119695	0.021818	0.499943
C103	C	0.671974	-0.455560	-0.000076
C104	C	1.171974	0.044440	0.499924
C105	C	0.775814	-0.469710	-0.000104
C106	C	1.275814	0.030290	0.499896
C107	C	0.776525	-0.410313	-0.000113
C108	C	1.276525	0.089687	0.499887
C109	C	0.724961	-0.373540	-0.000105
C110	C	1.224961	0.126460	0.499895
C111	C	0.672685	-0.396164	-0.000086
C112	C	1.172685	0.103836	0.499914
C113	C	0.568127	-0.441406	-0.000038
C114	C	1.068127	0.058594	0.499962
C115	C	0.568844	-0.382004	-0.000037
C116	C	1.068844	0.117996	0.499963
C117	C	0.621123	-0.359381	-0.000057
C118	C	1.121123	0.140619	0.499943
C119	C	0.621832	-0.299995	-0.000087
C120	C	1.121832	0.200005	0.499913
N121	N	0.674109	-0.277368	-0.000097
N122	N	1.174109	0.222632	0.499903
C123	C	0.725673	-0.314141	-0.000105
C124	C	1.225673	0.185859	0.499895
C125	C	0.617491	-0.662324	-0.000053
C126	C	1.117491	-0.162324	0.499947
C127	C	0.616778	-0.721722	-0.000060
C128	C	1.116778	-0.221722	0.499940
C129	C	0.720623	-0.735869	-0.000079
C130	C	1.220623	-0.235869	0.499921
C131	C	0.721335	-0.676470	-0.000080
C132	C	1.221335	-0.176470	0.499920
C133	C	0.669767	-0.639698	-0.000062
C134	C	1.169767	-0.139698	0.499938
C135	C	0.727163	-0.189405	-0.000127
C136	C	1.227163	0.310595	0.499873
C137	C	0.727869	-0.130003	-0.000141
C138	C	1.227869	0.369997	0.499859
C139	C	0.624025	-0.115860	-0.000117
C140	C	1.124025	0.384140	0.499883
C141	C	0.623318	-0.175257	-0.000108
C142	C	1.123318	0.324743	0.499892
C143	C	0.674891	-0.212029	-0.000110
C144	C	1.174891	0.287971	0.499890
O145	O	0.578070	-0.263215	-0.000113
O146	O	1.078070	0.236785	0.499887
O147	O	0.770196	-0.289433	-0.000101
O148	O	1.270196	0.210567	0.499899
C149	C	0.776472	0.069388	-0.000120
C150	C	1.276472	0.569388	0.499880
C151	C	0.839689	0.070154	-0.000124
C152	C	1.339689	0.570154	0.499876
C153	C	0.667577	0.178283	-0.000078
C154	C	1.167577	0.678283	0.499922
C155	C	0.668343	0.241500	-0.000063
C156	C	1.168343	0.741500	0.499937
N157	N	0.672312	0.074142	-0.243642
N158	N	1.172312	0.574142	0.256358
C159	C	0.672315	0.074143	-0.336748
C160	C	1.172315	0.574143	0.163252
C161	C	0.672320	0.074140	-0.453553
C162	C	1.172320	0.574140	0.046447
C163	C	0.672327	0.074133	-0.546652
C164	C	1.172327	0.574133	-0.046652
C165	C	0.672333	0.074130	-0.663464
C166	C	1.172333	0.574130	-0.163464
N167	N	0.672340	0.074124	0.243438
N168	N	1.172340	0.574124	0.743438
H169	H	0.138375	-0.072634	-0.000180
H170	H	0.638375	0.427366	0.499820
N171	N	-0.146628	-0.034818	-0.000129
N172	N	0.353372	0.465182	0.499871
N173	N	-0.113782	-0.080851	-0.000134
N174	N	0.386218	0.419149	0.499866
H175	H	-0.130090	-0.118572	-0.000137
H176	H	0.369910	0.381428	0.499863
H177	H	0.526850	-0.352066	-0.000022
H178	H	1.026850	0.147934	0.499978
N179	N	0.773303	-0.773429	-0.000089
N180	N	1.273303	-0.273429	0.499911
N181	N	0.808145	-0.771541	-0.072231
N182	N	1.308145	-0.271541	0.427769
H183	H	0.845349	-0.798067	-0.072239
H184	H	1.345349	-0.298067	0.427761
N185	N	0.563376	-0.744826	-0.000030
N186	N	1.063376	-0.244826	0.499970
N187	N	0.551394	-0.776383	0.072117
N188	N	1.051394	-0.276383	0.572117
H189	H	0.513677	-0.792698	0.072145
H190	H	1.013677	-0.292698	0.572145
H191	H	0.769159	-0.219337	-0.000124
H192	H	1.269159	0.280663	0.499876
N193	N	0.090924	0.230303	-0.000094
N194	N	0.590924	0.730303	0.499906
N195	N	0.092828	0.265148	-0.072223
N196	N	0.592828	0.765148	0.427777
H197	H	0.066308	0.302356	-0.072224
H198	H	0.566308	0.802356	0.427776
N199	N	0.564807	-0.624772	-0.000039
N200	N	1.064807	-0.124772	0.499961
N201	N	0.518139	-0.644987	-0.000029
N202	N	1.018139	-0.144987	0.499971
H203	H	0.480930	-0.618469	-0.000017
H204	H	0.980930	-0.118469	0.499983
N205	N	0.253739	-0.082028	-0.000195
N206	N	0.753739	0.417972	0.499805
N207	N	0.233527	-0.128698	-0.000219
N208	N	0.733527	0.371302	0.499781
H209	H	0.260047	-0.165905	-0.000241
H210	H	0.760047	0.334095	0.499759
H211	H	0.525555	-0.459814	-0.000015
H212	H	1.025555	0.040186	0.499985
N213	N	0.781269	-0.106886	-0.000169
N214	N	1.281269	0.393114	0.499831
N215	N	0.793247	-0.075326	-0.072315
N216	N	1.293247	0.424674	0.427685
H217	H	0.830959	-0.059000	-0.072335
H218	H	1.330959	0.441000	0.427665
H219	H	0.404512	-0.017441	-0.000098
H220	H	0.904512	0.482559	0.499902
H221	H	0.580748	-0.193677	-0.000120
H222	H	1.080748	0.306323	0.499880
H223	H	0.819097	-0.391900	-0.000125
H224	H	1.319097	0.108100	0.499875
H225	H	0.582043	-0.085909	-0.000113
H226	H	1.082043	0.414091	0.499887
N227	N	0.371221	0.181649	-0.000073
N228	N	0.871221	0.681649	0.499927
N229	N	0.336499	0.192846	-0.072209
N230	N	0.836499	0.692846	0.427791
H231	H	0.309969	0.230047	-0.072205
H232	H	0.809969	0.730047	0.427795
N233	N	0.491283	0.183091	-0.000053
N234	N	0.991283	0.683091	0.499947
N235	N	0.479909	0.217776	-0.072185
N236	N	0.979909	0.717776	0.427815
H237	H	0.496219	0.255497	-0.072183
H238	H	0.996219	0.755497	0.427817
N239	N	0.210970	0.231744	-0.000055
N240	N	0.710970	0.731744	0.499945
N241	N	0.178121	0.277775	-0.000046
N242	N	0.678121	0.777775	0.499954
H243	H	0.194427	0.315498	-0.000031
H244	H	0.694427	0.815498	0.499969
N245	N	0.774742	-0.653374	-0.000104
N246	N	1.274742	-0.153374	0.499896
N247	N	0.820775	-0.686220	-0.000120
N248	N	1.320775	-0.186220	0.499880
H249	H	0.858497	-0.669912	-0.000137
H250	H	1.358497	-0.169912	0.499863
N251	N	-0.055185	0.176553	-0.000085
N252	N	0.444815	0.676553	0.499915
N253	N	-0.088031	0.222586	-0.000069
N254	N	0.411969	0.722586	0.499931
H255	H	-0.071723	0.260308	-0.000055
H256	H	0.428277	0.760308	0.499945
H257	H	-0.167632	0.164421	-0.000102
H258	H	0.332368	0.664421	0.499898
H259	H	-0.034198	-0.022693	-0.000146
H260	H	0.465802	0.477307	0.499854
N261	N	0.519899	-0.026832	-0.000130
N262	N	1.019899	0.473168	0.499870
N263	N	0.518006	-0.061667	-0.072289
N264	N	1.018006	0.438333	0.427711
H265	H	0.544542	-0.098864	-0.072328
H266	H	1.044542	0.401136	0.427672
N267	N	0.828496	-0.507259	-0.000105
N268	N	1.328496	-0.007259	0.499895
N269	N	0.875162	-0.487040	-0.000118
N270	N	1.375162	0.012960	0.499882
H271	H	0.912372	-0.513555	-0.000126
H272	H	1.412372	-0.013555	0.499874
