data_functionalizedCrystal
_audit_creation_method	'MofGen! by Chris Wilmer'
_symmetry_space_group_name_H-M	'P1'
_symmetry_Int_Tables_number	1
_symmetry_cell_setting	triclinic
loop_
_symmetry_equiv_pos_as_xyz
  x,y,z
_cell_length_a	12.759401
_cell_length_b	17.637651
_cell_length_c	12.759393
_cell_angle_alpha	78.751097
_cell_angle_beta	89.980198
_cell_angle_gamma	101.218439
loop_
_atom_site_label
_atom_site_type_symbol
_atom_site_fract_x
_atom_site_fract_y
_atom_site_fract_z
Zn1	Zn	1.521692	-0.314748	-0.509309
Zn2	Zn	2.021692	0.185252	-0.009309
Zn3	Zn	1.486051	-0.446983	-0.298053
Zn4	Zn	1.986051	0.053017	0.201947
Zn5	Zn	1.345981	-0.314785	-0.333638
Zn6	Zn	1.845981	0.185215	0.166362
Zn7	Zn	1.310467	-0.446923	-0.473710
Zn8	Zn	1.810467	0.053077	0.026290
O9	O	1.416048	-0.380860	-0.403677
O10	O	1.916048	0.119140	0.096323
O11	O	1.663982	-0.332300	-0.481291
O12	O	2.163982	0.167700	0.018709
O13	O	1.467417	-0.429488	-0.155741
O14	O	1.967417	0.070512	0.344259
O15	O	1.399068	-0.204139	-0.386732
O16	O	1.899068	0.295861	0.113268
O17	O	1.637797	-0.429452	-0.326082
O18	O	2.137797	0.070548	0.173918
O19	O	1.528162	-0.204112	-0.515797
O20	O	2.028162	0.295888	-0.015797
O21	O	1.364508	-0.332362	-0.181885
O22	O	1.864508	0.167638	0.318115
O23	O	1.194252	-0.332303	-0.352213
O24	O	1.694252	0.167697	0.147787
O25	O	1.338539	-0.429349	-0.625464
O26	O	1.838539	0.070651	-0.125464
O27	O	1.168159	-0.429384	-0.455123
O28	O	1.668159	0.070616	0.044877
O29	O	1.493726	-0.332241	-0.651619
O30	O	1.993726	0.167759	-0.151619
O31	O	1.432980	-0.557616	-0.291563
O32	O	1.932980	-0.057616	0.208437
O33	O	1.303980	-0.557572	-0.420618
O34	O	1.803980	-0.057572	0.079382
C35	C	1.143085	-0.380841	-0.403667
C36	C	1.643085	0.119159	0.096333
C37	C	1.026306	-0.380853	-0.403682
C38	C	1.526306	0.119147	0.096318
C39	C	0.875312	-0.330375	-0.484581
C40	C	1.375312	0.169625	0.015419
C41	C	0.985041	-0.330359	-0.484578
C42	C	1.485041	0.169641	0.015422
C43	C	0.957834	-0.431370	-0.322790
C44	C	1.457834	0.068630	0.177210
C45	C	0.848107	-0.431389	-0.322798
C46	C	1.348107	0.068611	0.177202
C47	C	1.360787	-0.586282	-0.348389
C48	C	1.860787	-0.086282	0.151611
C49	C	1.337243	-0.674163	-0.324771
C50	C	1.837243	-0.174163	0.175229
C51	C	1.595595	-0.962826	-0.583428
C52	C	2.095595	-0.462826	-0.083428
C53	C	1.573438	-1.045403	-0.561217
C54	C	2.073438	-0.545403	-0.061217
C55	C	1.439102	-1.045539	-0.426692
C56	C	1.939102	-0.545539	0.073308
C57	C	1.461251	-0.962960	-0.448888
C58	C	1.961251	-0.462960	0.051112
C59	C	1.539498	-0.921610	-0.527257
C60	C	2.039498	-0.421610	-0.027257
C61	C	1.405154	-0.921744	-0.392717
C62	C	1.905154	-0.421744	0.107283
C63	C	1.427298	-0.839172	-0.414915
C64	C	1.927298	-0.339172	0.085085
C65	C	1.505540	-0.797817	-0.493284
C66	C	2.005540	-0.297817	0.006716
C67	C	1.561642	-0.839039	-0.549455
C68	C	2.061642	-0.339039	-0.049455
C69	C	1.326903	-0.963095	-0.314353
C70	C	1.826903	-0.463095	0.185647
C71	C	1.270806	-0.921879	-0.258183
C72	C	1.770806	-0.421879	0.241817
C73	C	1.292955	-0.839306	-0.280375
C74	C	1.792955	-0.339306	0.219625
C75	C	1.371196	-0.797950	-0.358744
C76	C	1.871196	-0.297950	0.141256
C77	C	1.236852	-0.798084	-0.224204
C78	C	1.736852	-0.298084	0.275796
C79	C	1.258996	-0.715512	-0.246402
C80	C	1.758996	-0.215512	0.253598
C81	C	1.393340	-0.715379	-0.380942
C82	C	1.893340	-0.215379	0.119058
C83	C	1.690076	-0.380879	-0.403688
C84	C	2.190076	0.119121	0.096312
C85	C	1.806850	-0.380887	-0.403693
C86	C	2.306850	0.119113	0.096307
C87	C	1.416147	-0.380784	-0.677731
C88	C	1.916147	0.119216	-0.177731
C89	C	1.416189	-0.380752	-0.794517
C90	C	1.916189	0.119248	-0.294517
C91	C	1.471552	-0.174635	-0.459205
C92	C	1.971552	0.325365	0.040795
C93	C	1.495205	-0.086755	-0.482867
C94	C	1.995205	0.413245	0.017133
C95	C	1.497001	-0.330179	-0.863001
C96	C	1.997001	0.169821	-0.363001
C97	C	1.497028	-0.330145	-0.972734
C98	C	1.997028	0.169855	-0.472734
C99	C	1.335425	-0.431262	-0.945487
C100	C	1.835425	0.068738	-0.445487
C101	C	1.335395	-0.431292	-0.835757
C102	C	1.835395	0.068708	-0.335757
C103	C	1.416025	-0.380878	-0.130705
C104	C	1.916025	0.119122	0.369295
C105	C	1.416246	-0.380688	-0.013980
C106	C	1.916246	0.119312	0.486020
H107	H	0.841725	-0.289253	-0.550451
H108	H	1.341725	0.210747	-0.050451
O109	O	1.584181	-0.275594	-1.046608
O110	O	2.084181	0.224406	-0.546608
H111	H	1.628114	-0.310967	-1.087096
H112	H	2.128114	0.189033	-0.587096
O113	O	1.248205	-0.485817	-0.761885
O114	O	1.748205	0.014183	-0.261885
H115	H	1.192029	-0.520956	-0.808995
H116	H	1.692029	-0.020956	-0.308995
H117	H	1.269648	-0.472412	-0.979079
H118	H	1.769648	0.027588	-0.479079
H119	H	1.625367	-0.805370	-0.613264
H120	H	2.125367	-0.305370	-0.113264
O121	O	1.058888	-0.275871	-0.571812
O122	O	1.558888	0.224129	-0.071812
H123	H	1.011762	-0.240754	-0.628054
H124	H	1.511762	0.259246	-0.128054
O125	O	1.529433	-0.708756	-0.517221
O126	O	2.029433	-0.208756	-0.017221
H127	H	1.513999	-0.686950	-0.602304
H128	H	2.013999	-0.186950	-0.102304
H129	H	0.991440	-0.472486	-0.256926
H130	H	1.491440	0.027514	0.243074
O131	O	1.679994	-0.918216	-0.667952
O132	O	2.179994	-0.418216	-0.167952
H133	H	1.715284	-0.960747	-0.703287
H134	H	2.215284	-0.460747	-0.203287
O135	O	1.633943	-1.089866	-0.621801
O136	O	2.133943	-0.589866	-0.121801
H137	H	1.720668	-1.073996	-0.608119
H138	H	2.220668	-0.573996	-0.108119
O139	O	0.774254	-0.485867	-0.235545
O140	O	1.274254	0.014133	0.264455
H141	H	0.821378	-0.520970	-0.179281
H142	H	1.321378	-0.020970	0.320719
O143	O	1.477742	-0.670768	-0.465461
O144	O	1.977742	-0.170768	0.034539
H145	H	1.455443	-0.686572	-0.543657
H146	H	1.955443	-0.186572	-0.043657
H147	H	1.375391	-1.079217	-0.362886
H148	H	1.875391	-0.579217	0.137114
H149	H	1.308866	-1.030330	-0.296292
H150	H	1.808866	-0.530330	0.203708
O151	O	1.186429	-0.966478	-0.173642
O152	O	1.686429	-0.466478	0.326358
H153	H	1.180463	-1.030820	-0.167632
H154	H	1.680463	-0.530820	0.332368
O155	O	1.198503	-0.671051	-0.185811
O156	O	1.698503	-0.171051	0.314189
H157	H	1.111776	-0.686932	-0.199474
H158	H	1.611776	-0.186932	0.300526
O159	O	1.152468	-0.842684	-0.139670
O160	O	1.652468	-0.342684	0.360330
H161	H	1.146500	-0.907026	-0.133666
H162	H	1.646500	-0.407026	0.366334
H163	H	1.562787	-0.289024	-0.829428
H164	H	2.062787	0.210976	-0.329428
