data_functionalizedCrystal
_audit_creation_method	'MofGen! by Chris Wilmer'
_symmetry_space_group_name_H-M	'P1'
_symmetry_Int_Tables_number	1
_symmetry_cell_setting	triclinic
loop_
_symmetry_equiv_pos_as_xyz
  x,y,z
_cell_length_a	11.169417
_cell_length_b	11.169416
_cell_length_c	11.169409
_cell_angle_alpha	89.972296
_cell_angle_beta	89.978351
_cell_angle_gamma	90.010304
loop_
_atom_site_label
_atom_site_type_symbol
_atom_site_fract_x
_atom_site_fract_y
_atom_site_fract_z
Zn1	Zn	-1.834948	0.477767	0.678640
Zn2	Zn	-1.834831	0.678507	0.477973
Zn3	Zn	-1.634234	0.477831	0.477968
Zn4	Zn	-1.634235	0.678400	0.678611
O5	O	-1.734562	0.578126	0.578298
O6	O	-2.002882	0.504414	0.652035
O7	O	-1.808172	0.651959	0.310022
O8	O	-1.660907	0.309873	0.504597
O9	O	-2.002796	0.651897	0.504606
O10	O	-1.808371	0.309826	0.652030
O11	O	-1.660794	0.504522	0.310019
O12	O	-1.466284	0.504419	0.504570
O13	O	-1.660909	0.651714	0.846565
O14	O	-1.466285	0.651776	0.651982
O15	O	-1.808372	0.504310	0.846586
O16	O	-1.808173	0.846443	0.504578
O17	O	-1.660796	0.846364	0.651987
C18	C	-1.422737	0.578094	0.578273
C19	C	-1.289337	0.578109	0.578290
C20	C	-1.734505	0.889951	0.578306
C21	C	-1.734590	1.023351	0.578350
C22	C	-1.047604	0.578148	0.578316
C23	C	-1.181004	0.578128	0.578303
C24	C	-1.734654	0.577993	0.891341
C25	C	-1.734693	0.577936	1.024741
C26	C	-1.734643	1.265084	0.578332
C27	C	-1.734657	1.131684	0.578388
C28	C	-1.734539	0.578172	0.266473
C29	C	-1.734732	0.577891	0.133074
