data_functionalizedCrystal
_audit_creation_method	'MofGen! by Chris Wilmer'
_symmetry_space_group_name_H-M	'P1'
_symmetry_Int_Tables_number	1
_symmetry_cell_setting	triclinic
loop_
_symmetry_equiv_pos_as_xyz
  x,y,z
_cell_length_a	23.096457
_cell_length_b	14.809374
_cell_length_c	23.096457
_cell_angle_alpha	55.138786
_cell_angle_beta	90.011236
_cell_angle_gamma	55.128111
loop_
_atom_site_label
_atom_site_type_symbol
_atom_site_fract_x
_atom_site_fract_y
_atom_site_fract_z
Zr1	Zr	0.439228	1.187655	-0.194493
O2	O	0.324163	1.414028	-0.309528
O3	O	0.490167	0.961287	-0.143567
O4	O	0.467546	1.187657	-0.286944
O5	O	0.346807	1.187655	-0.070868
O6	O	0.562829	1.187653	-0.286945
O7	O	0.346784	1.187658	-0.166150
O8	O	0.603294	0.782719	-0.030470
O9	O	0.306342	1.592589	-0.327344
O10	O	0.564073	1.054391	-0.140771
O11	O	0.492982	1.054392	-0.069662
O12	O	0.466349	1.320913	-0.238470
O13	O	0.395258	1.320914	-0.167360
Zr14	Zr	0.591229	1.187644	-0.042531
Zr15	Zr	0.591193	1.187648	-0.194496
Zr16	Zr	0.439264	1.187650	-0.042529
Zr17	Zr	0.410805	1.472440	-0.222908
Zr18	Zr	0.619651	0.902859	-0.014117
O19	O	0.540289	1.414012	-0.093458
O20	O	0.540237	1.414018	-0.309531
O21	O	0.324215	1.414021	-0.093454
O22	O	0.706294	0.961271	0.072503
O23	O	0.706242	0.961278	-0.143570
O24	O	0.490219	0.961280	0.072507
O25	O	0.683650	1.187643	-0.166156
O26	O	0.562910	1.187642	0.049920
O27	O	0.467628	1.187646	0.049921
O28	O	0.683673	1.187640	-0.070874
O29	O	0.427134	1.592584	-0.327346
O30	O	0.603323	0.782715	0.090321
O31	O	0.724115	0.782709	0.090319
O32	O	0.724086	0.782713	-0.030472
O33	O	0.306371	1.592586	-0.206552
O34	O	0.427163	1.592580	-0.206554
O35	O	0.564108	1.054386	0.001445
O36	O	0.635199	1.054385	-0.069664
O37	O	0.537475	1.320907	-0.167363
O38	O	0.466383	1.320908	-0.096253
C39	C	0.550780	0.831427	-0.082970
C40	C	0.562846	0.710529	-0.070907
C41	C	0.508997	0.750119	-0.124742
C42	C	0.521467	0.625166	-0.112275
C43	C	0.325143	1.187658	-0.118509
C44	C	0.260630	1.187661	-0.118508
C45	C	0.230314	1.187674	-0.171004
C46	C	0.169703	1.187660	-0.171003
C47	C	0.139400	1.187664	-0.118513
C48	C	0.169727	1.187642	-0.066007
C49	C	0.230342	1.187641	-0.066004
N50	N	0.012381	1.274537	-0.111290
N51	N	-0.045202	1.274542	-0.111297
C52	C	-0.043230	1.187665	-0.118517
N53	N	0.018494	1.100802	-0.125745
N54	N	0.076080	1.100804	-0.125742
C55	C	0.073673	1.187664	-0.118510
C56	C	-0.139267	1.187660	-0.171014
C57	C	-0.199875	1.187637	-0.171007
C58	C	-0.199856	1.187635	-0.066016
C59	C	-0.139243	1.187643	-0.066019
C60	C	-0.108955	1.187663	-0.118522
C61	C	0.705313	1.187641	-0.118515
C62	C	0.769826	1.187638	-0.118516
C63	C	0.515183	1.187655	-0.308596
C64	C	0.515167	1.187657	-0.373109
C65	C	0.479677	1.543872	-0.154055
C66	C	0.467611	1.664770	-0.166117
C67	C	0.464160	1.326775	-0.454410
C68	C	0.464178	1.326777	-0.515027
C69	C	0.515194	1.187654	-0.494337
C70	C	0.566211	1.048518	-0.413022
C71	C	0.566198	1.048520	-0.352408
N72	N	0.520407	1.084098	-0.551560
N73	N	0.520415	1.084106	-0.609145
C74	C	0.515239	1.187640	-0.676961
N75	N	0.510039	1.291190	-0.685027
N76	N	0.510027	1.291186	-0.627439
C77	C	0.515215	1.187637	-0.560058
C78	C	0.464248	1.326770	-0.823994
C79	C	0.464272	1.326766	-0.884609
C80	C	0.566301	1.048503	-0.782602
C81	C	0.566282	1.048510	-0.721989
C82	C	0.515251	1.187648	-0.742690
C83	C	0.515274	1.187643	0.071572
C84	C	0.515290	1.187641	0.136085
C85	C	0.740865	0.831419	-0.082973
C86	C	0.817444	0.710517	-0.070911
C87	C	0.550826	0.831421	0.107114
C88	C	0.562907	0.710521	0.183690
C89	C	0.740911	0.831413	0.107111
C90	C	0.817505	0.710509	0.183686
C91	C	0.289546	1.543886	-0.344135
C92	C	0.212951	1.664790	-0.420710
C93	C	0.289592	1.543880	-0.154051
C94	C	0.213013	1.664782	-0.166113
C95	C	0.479631	1.543878	-0.344139
C96	C	0.467549	1.664778	-0.420714
C97	C	0.816280	0.653744	-0.102370
C98	C	0.888226	0.540159	-0.091053
C99	C	0.961337	0.483344	-0.048271
C100	C	0.962499	0.540129	-0.016812
C101	C	0.890553	0.653718	-0.028135
C102	C	0.605708	0.653742	0.256774
C103	C	0.617055	0.540159	0.328729
C104	C	0.585607	0.483349	0.327599
C105	C	0.542801	0.540139	0.254507
C106	C	0.531449	0.653728	0.182553
C107	C	0.890590	0.653731	0.182527
C108	C	0.962563	0.540145	0.254470
C109	C	0.961450	0.483332	0.327570
C110	C	0.888357	0.540121	0.328726
C111	C	0.816385	0.653713	0.256784
C112	C	0.139865	1.721581	-0.419553
C113	C	0.067888	1.835203	-0.491499
C114	C	0.069001	1.892022	-0.564600
C115	C	0.142095	1.835226	-0.565755
C116	C	0.214069	1.721614	-0.493811
C117	C	0.214176	1.721567	-0.134661
C118	C	0.142226	1.835183	-0.145999
C119	C	0.069114	1.892003	-0.188783
C120	C	0.067953	1.835212	-0.220239
C121	C	0.139901	1.721607	-0.208906
C122	C	0.499009	1.721552	-0.419558
C123	C	0.487672	1.835136	-0.491501
C124	C	0.444871	1.891952	-0.564601
C125	C	0.413412	1.835167	-0.565755
C126	C	0.424754	1.721577	-0.493812
H127	H	0.618180	0.584128	-0.015589
H128	H	0.453666	0.876520	-0.180062
H129	H	0.756755	0.700002	-0.137216
O130	O	0.615770	0.913237	-0.273467
C131	C	0.660822	0.790437	-0.268198
H132	H	0.627649	0.831219	-0.326365
H133	H	0.668537	0.693135	-0.215028
H134	H	0.722709	0.747658	-0.258940
H135	H	0.143188	1.881402	-0.120378
O136	O	-0.000986	2.002329	-0.634405
C137	C	-0.065730	2.040283	-0.617701
H138	H	-0.041846	1.940639	-0.551807
H139	H	-0.110910	2.063886	-0.658343
H140	H	-0.096790	2.147013	-0.629446
H141	H	0.887265	0.493939	-0.116673
O142	O	0.259675	1.187611	-0.222026
C143	C	0.219901	1.187657	-0.268375
H144	H	0.194410	1.139341	-0.235275
H145	H	0.264575	1.113560	-0.277927
H146	H	0.168555	1.310102	-0.329399
O147	O	1.033555	0.485153	0.253351
C148	C	1.068080	0.512909	0.283417
H149	H	1.018813	0.612452	0.276295
H150	H	1.098560	0.543039	0.248247
H151	H	1.114783	0.405685	0.350021
O152	O	1.031329	0.373180	0.397453
C153	C	1.025693	0.428668	0.432540
H154	H	0.978342	0.559461	0.383911
H155	H	1.086696	0.384064	0.461530
H156	H	1.007483	0.387349	0.480550
O157	O	0.371845	1.890152	-0.636693
C158	C	0.346485	1.815726	-0.622302
H159	H	0.387094	1.700571	-0.556727
H160	H	0.350421	1.796180	-0.663835
H161	H	0.281434	1.890240	-0.634706
H162	H	0.756880	0.699927	0.257738
H163	H	0.517198	0.493868	0.253599
O164	O	0.394105	1.666517	-0.494871
C165	C	0.339216	1.694371	-0.464838
H166	H	0.353444	1.708441	-0.424913
H167	H	0.344748	1.593533	-0.427889
H168	H	0.275074	1.803659	-0.517424
O169	O	0.401507	0.815514	-0.232096
C170	C	0.331071	0.847737	-0.231989
H171	H	0.345201	0.737362	-0.194350
H172	H	0.282358	0.933974	-0.296549
H173	H	0.308697	0.897933	-0.204981
H174	H	0.145015	1.187670	-0.213753
H175	H	0.422610	1.440072	-0.471272
H176	H	1.022036	0.493853	0.018021
H177	H	0.631319	0.699984	0.257709
O178	O	0.887226	0.485161	0.399701
C179	C	0.837727	0.606369	0.395387
H180	H	0.833115	0.702951	0.347361
H181	H	0.865111	0.563020	0.456410
H182	H	0.774929	0.651148	0.378903
O183	O	0.615784	0.913494	-0.762637
C184	C	0.604808	0.943322	-0.833570
H185	H	0.542712	1.062860	-0.885659
H186	H	0.609449	0.854423	-0.824003
H187	H	0.653387	0.936800	-0.848407
O188	O	0.891629	0.709085	0.002303
C189	C	0.842878	0.868270	-0.061208
H190	H	0.836949	0.899411	-0.120245
H191	H	0.871777	0.900898	-0.048362
H192	H	0.780488	0.933224	-0.066373
O193	O	1.031156	0.372947	-0.037314
C194	C	1.014438	0.335055	-0.074273
H195	H	0.955358	0.366374	-0.080181
H196	H	1.065545	0.206663	-0.035768
H197	H	1.008893	0.401483	-0.136756
H198	H	0.138945	1.675325	-0.360037
H199	H	0.576805	0.498763	-0.056954
H200	H	0.145052	1.187642	-0.023268
O201	O	-0.003071	1.890265	-0.261665
C202	C	-0.037570	1.862540	-0.211233
H203	H	0.011723	1.762966	-0.145381
H204	H	-0.068104	1.832474	-0.224312
H205	H	-0.084223	1.969758	-0.223225
H206	H	0.651913	0.493933	0.388236
H207	H	0.008381	1.881427	-0.490543
O208	O	0.259674	1.187712	-0.014986
C209	C	0.219950	1.187668	0.031362
H210	H	0.159024	1.235976	-0.001736
H211	H	0.210296	1.261773	0.040910
H212	H	0.258408	1.065224	0.092388
H213	H	0.138944	1.675375	-0.234517
H214	H	0.891512	0.699972	0.123013
O215	O	0.615704	0.913461	-0.642983
C216	C	0.568863	0.905138	-0.604909
H217	H	0.507948	1.025940	-0.640114
H218	H	0.601658	0.846236	-0.540688
H219	H	0.559106	0.836509	-0.603133
H220	H	0.422639	1.440067	-0.581234
O221	O	0.433953	2.002108	-0.634487
C222	C	0.468978	1.946628	-0.669580
H223	H	0.517549	1.815835	-0.620952
H224	H	0.497260	1.991243	-0.698579
H225	H	0.420451	1.987942	-0.717584
O226	O	0.596744	0.372955	0.397578
C227	C	0.641251	0.335058	0.462319
H228	H	0.677366	0.366371	0.445267
H229	H	0.684297	0.206667	0.517943
H230	H	0.598082	0.401489	0.476099
O231	O	0.489890	0.708647	0.111636
C232	C	0.464557	0.634160	0.126077
H233	H	0.505175	0.519035	0.191662
H234	H	0.468507	0.614549	0.084573
H235	H	0.399506	0.708663	0.113673
O236	O	0.143031	1.890540	-0.636833
C237	C	0.063826	2.003012	-0.700078
H238	H	0.025524	1.984349	-0.674576
H239	H	0.065384	1.993803	-0.745905
H240	H	0.036523	2.121827	-0.730894
H241	H	0.422697	1.440064	-0.840850
O242	O	-0.109898	1.187592	-0.222033
C243	C	-0.149665	1.187621	-0.268377
H244	H	-0.175152	1.139299	-0.235275
H245	H	-0.104985	1.113520	-0.277925
H246	H	-0.201011	1.310062	-0.329403
O247	O	0.285131	1.666185	-0.494816
C248	C	0.338307	1.507019	-0.446119
H249	H	0.319987	1.458819	-0.399999
H250	H	0.402523	1.448164	-0.413338
H251	H	0.335414	1.485366	-0.485642
H252	H	0.533860	1.675310	-0.360044
O253	O	0.285156	1.666359	-0.092994
C254	C	0.299509	1.600627	-0.013979
H255	H	0.239823	1.651952	-0.013026
H256	H	0.328912	1.625538	0.006271
H257	H	0.341398	1.471244	0.028712
O258	O	-0.000694	2.002304	-0.199680
C259	C	0.016018	2.040253	-0.162757
H260	H	0.081925	1.940609	-0.113573
H261	H	-0.024617	2.063850	-0.134888
H262	H	0.004260	2.146985	-0.209950
H263	H	0.513291	1.881358	-0.490547
H264	H	-0.224525	1.187629	-0.023275
O265	O	-0.229250	1.187372	-0.221890
C266	C	-0.215858	1.055204	-0.176582
H267	H	-0.163708	0.962812	-0.112927
H268	H	-0.200286	1.010846	-0.206751
H269	H	-0.272750	1.085078	-0.173432
H270	H	-0.114561	1.187641	-0.023274
H271	H	0.607750	0.935243	-0.396181
H272	H	0.422738	1.440057	-0.950811
