data_functionalizedCrystal
_audit_creation_method	'MofGen! by Chris Wilmer'
_symmetry_space_group_name_H-M	'P1'
_symmetry_Int_Tables_number	1
_symmetry_cell_setting	triclinic
loop_
_symmetry_equiv_pos_as_xyz
  x,y,z
_cell_length_a	19.188930
_cell_length_b	19.188930
_cell_length_c	9.730223
_cell_angle_alpha	89.982832
_cell_angle_beta	89.990488
_cell_angle_gamma	83.144779
loop_
_atom_site_label
_atom_site_type_symbol
_atom_site_fract_x
_atom_site_fract_y
_atom_site_fract_z
O1	O	0.087167	0.926144	-0.114747
O2	O	0.420501	1.259477	0.218586
O3	O	0.753834	1.592810	0.551920
O4	O	0.098902	0.722832	-0.114655
O5	O	0.432235	1.056166	0.218678
O6	O	0.765568	1.389499	0.552012
O7	O	-0.008621	0.830355	-0.114677
O8	O	0.324712	1.163688	0.218657
O9	O	0.658046	1.497022	0.551990
O10	O	0.194690	0.818621	-0.114725
O11	O	0.528024	1.151954	0.218608
O12	O	0.861357	1.485288	0.551942
O13	O	-0.008624	0.830348	0.113903
O14	O	0.324709	1.163682	0.447237
O15	O	0.658043	1.497015	0.780570
O16	O	0.098899	0.722825	0.113925
O17	O	0.432232	1.056159	0.447258
O18	O	0.765565	1.389492	0.780592
O19	O	0.087165	0.926137	0.113833
O20	O	0.420498	1.259470	0.447166
O21	O	0.753831	1.592803	0.780500
Zn22	Zn	0.093031	0.824480	0.150171
Zn23	Zn	0.426365	1.157813	0.483504
Zn24	Zn	0.759698	1.491147	0.816838
Zn25	Zn	0.093035	0.824489	-0.150993
Zn26	Zn	0.426368	1.157822	0.182340
Zn27	Zn	0.759702	1.491156	0.515674
O28	O	0.194687	0.818614	0.113855
O29	O	0.528021	1.151947	0.447188
O30	O	0.861354	1.485281	0.780521
C31	C	0.098520	0.696818	-0.000353
C32	C	0.431854	1.030151	0.332981
C33	C	0.765187	1.363485	0.666314
C34	C	0.097380	0.619313	-0.000316
C35	C	0.430713	0.952647	0.333017
C36	C	0.764046	1.285980	0.666350
C37	C	0.160470	0.574389	-0.000353
C38	C	0.493804	0.907723	0.332980
C39	C	0.827137	1.241056	0.666314
C40	C	0.159399	0.501566	-0.000368
C41	C	0.492732	0.834899	0.332966
C42	C	0.826065	1.168232	0.666299
C43	C	0.095233	0.473669	-0.000374
C44	C	0.428566	0.807002	0.332960
C45	C	0.761899	1.140336	0.666293
C46	C	0.032133	0.518603	-0.000329
C47	C	0.365467	0.851936	0.333004
C48	C	0.698800	1.185270	0.666337
C49	C	0.033207	0.591425	-0.000301
C50	C	0.366540	0.924758	0.333033
C51	C	0.699874	1.258092	0.666366
N52	N	0.046187	0.365691	-0.078213
N53	N	0.379520	0.699025	0.255120
N54	N	0.712853	1.032358	0.588454
N55	N	0.045171	0.296513	-0.078243
N56	N	0.378505	0.629846	0.255090
N57	N	0.711838	0.963179	0.588423
C58	C	0.091994	0.254260	-0.000457
C59	C	0.425328	0.587594	0.332876
C60	C	0.758661	0.920927	0.666210
N61	N	0.139882	0.283799	0.077343
N62	N	0.473216	0.617132	0.410677
N63	N	0.806549	0.950465	0.744010
N64	N	0.140900	0.352984	0.077367
N65	N	0.474233	0.686317	0.410701
N66	N	0.807566	1.019650	0.744034
C67	C	0.094062	0.394707	-0.000404
C68	C	0.427395	0.728040	0.332929
C69	C	0.760728	1.061373	0.666263
C70	C	0.153928	0.130372	-0.000508
C71	C	0.487261	0.463705	0.332826
C72	C	0.820594	0.797039	0.666159
C73	C	0.152853	0.057547	-0.000514
C74	C	0.486187	0.390881	0.332819
C75	C	0.819520	0.724214	0.666153
C76	C	0.025586	0.074586	-0.000489
C77	C	0.358920	0.407919	0.332844
C78	C	0.692253	0.741253	0.666177
C79	C	0.026662	0.147409	-0.000469
C80	C	0.359996	0.480743	0.332864
C81	C	0.693329	0.814076	0.666197
C82	C	0.090835	0.175298	-0.000485
C83	C	0.424168	0.508631	0.332848
C84	C	0.757502	0.841964	0.666182
C85	C	-0.034634	0.829972	-0.000383
C86	C	0.298700	1.163305	0.332951
C87	C	0.632033	1.496638	0.666284
C88	C	-0.112138	0.828831	-0.000370
C89	C	0.221195	1.162164	0.332963
C90	C	0.554529	1.495498	0.666296
C91	C	-0.157062	0.891922	-0.000392
C92	C	0.176271	1.225255	0.332941
C93	C	0.509605	1.558588	0.666274
C94	C	-0.229886	0.890850	-0.000414
C95	C	0.103448	1.224184	0.332919
C96	C	0.436781	1.557517	0.666253
C97	C	-0.257782	0.826684	-0.000386
C98	C	0.075551	1.160017	0.332948
C99	C	0.408884	1.493351	0.666281
C100	C	-0.212849	0.763585	-0.000372
C101	C	0.120485	1.096918	0.332962
C102	C	0.453818	1.430252	0.666295
C103	C	-0.140026	0.764658	-0.000364
C104	C	0.193307	1.097992	0.332970
C105	C	0.526640	1.431325	0.666303
N106	N	-0.365788	0.777634	0.077427
N107	N	-0.032455	1.110968	0.410760
N108	N	0.300878	1.444301	0.744093
N109	N	-0.434967	0.776619	0.077422
N110	N	-0.101634	1.109952	0.410755
N111	N	0.231700	1.443286	0.744089
C112	C	-0.477191	0.823446	-0.000412
C113	C	-0.143858	1.156779	0.332921
C114	C	0.189476	1.490113	0.666255
N115	N	-0.447625	0.871337	-0.078225
N116	N	-0.114291	1.204671	0.255109
N117	N	0.219042	1.538004	0.588442
N118	N	-0.378440	0.872355	-0.078214
N119	N	-0.045107	1.205688	0.255119
N120	N	0.288227	1.539022	0.588453
C121	C	-0.336745	0.825513	-0.000395
C122	C	-0.003412	1.158846	0.332938
C123	C	0.329922	1.492180	0.666272
C124	C	-0.601079	0.885379	-0.000459
C125	C	-0.267746	1.218712	0.332874
C126	C	0.065587	1.552046	0.666207
C127	C	-0.673904	0.884305	-0.000489
C128	C	-0.340571	1.217638	0.332844
C129	C	-0.007238	1.550971	0.666177
C130	C	-0.656865	0.757038	-0.000433
C131	C	-0.323532	1.090371	0.332900
C132	C	0.009801	1.423704	0.666233
C133	C	-0.584042	0.758114	-0.000417
C134	C	-0.250709	1.091447	0.332916
C135	C	0.082624	1.424781	0.666250
C136	C	-0.556154	0.822286	-0.000424
C137	C	-0.222821	1.155620	0.332910
C138	C	0.110513	1.488953	0.666243
C139	C	0.220700	0.818997	-0.000442
C140	C	0.554033	1.152331	0.332891
C141	C	0.887366	1.485664	0.666224
C142	C	0.298204	0.820138	-0.000464
C143	C	0.631538	1.153471	0.332870
C144	C	0.964871	1.486805	0.666203
C145	C	0.087546	0.952151	-0.000472
C146	C	0.420879	1.285485	0.332861
C147	C	0.754213	1.618818	0.666194
C148	C	0.088687	1.029656	-0.000518
C149	C	0.422020	1.362989	0.332816
C150	C	0.755353	1.696322	0.666149
N151	N	0.093028	0.824479	0.355707
N152	N	0.426362	1.157812	0.689041
N153	N	0.759695	1.491146	1.022374
N154	N	0.093032	0.824496	-0.356529
N155	N	0.426366	1.157829	-0.023196
N156	N	0.759699	1.491162	0.310137
C157	C	0.045437	0.872106	0.427624
C158	C	0.378770	1.205439	0.760957
C159	C	0.712104	1.538773	1.094290
C160	C	0.045437	0.872113	0.571507
C161	C	0.378770	1.205446	0.904840
C162	C	0.712104	1.538780	1.238173
C163	C	0.140626	0.776864	0.571544
C164	C	0.473959	1.110197	0.904878
C165	C	0.807293	1.443530	1.238211
C166	C	0.140622	0.776854	0.427664
C167	C	0.473955	1.110187	0.760997
C168	C	0.807289	1.443520	1.094331
H169	H	-0.020111	0.495885	-0.000353
H170	H	0.313222	0.829218	0.332980
H171	H	0.646556	1.162551	0.666314
H172	H	-0.018171	0.628003	-0.000272
H173	H	0.315162	0.961336	0.333062
H174	H	0.648496	1.294670	0.666395
O175	O	0.191957	0.725485	0.350081
O176	O	0.525290	1.058818	0.683414
O177	O	0.858623	1.392151	1.016747
H178	H	0.225060	0.692377	0.424286
H179	H	0.558393	1.025711	0.757619
H180	H	0.891727	1.359044	1.090953
O181	O	-0.005892	0.923482	0.649079
O182	O	0.327441	1.256815	0.982413
O183	O	0.660774	1.590149	1.315746
H184	H	0.023421	0.957319	0.714600
H185	H	0.356755	1.290652	1.047934
H186	H	0.690088	1.623985	1.381267
O187	O	0.223137	0.160461	-0.000497
O188	O	0.556471	0.493794	0.332837
O189	O	0.889804	0.827128	0.666170
H190	H	0.266830	0.116984	-0.000498
H191	H	0.600164	0.450318	0.332835
H192	H	0.933497	0.783651	0.666168
O193	O	0.220904	0.009087	-0.000548
O194	O	0.554238	0.342421	0.332785
O195	O	0.887571	0.675754	0.666118
H196	H	0.265704	0.040718	-0.000566
H197	H	0.599038	0.374051	0.332768
H198	H	0.932371	0.707384	0.666101
O199	O	-0.043625	0.044510	-0.000496
O200	O	0.289708	0.377844	0.332837
O201	O	0.623042	0.711177	0.666171
H202	H	-0.033773	-0.013676	-0.000529
H203	H	0.299560	0.319658	0.332804
H204	H	0.632893	0.652991	0.666138
H205	H	-0.578372	0.937632	-0.000471
H206	H	-0.245038	1.270966	0.332862
H207	H	0.088295	1.604299	0.666196
H208	H	-0.547464	0.706738	-0.000391
H209	H	-0.214131	1.040072	0.332942
H210	H	0.119203	1.373405	0.666275
O211	O	-0.722360	0.952358	-0.000500
O212	O	-0.389027	1.285692	0.332833
O213	O	-0.055693	1.619025	0.666167
H214	H	-0.712452	0.983090	-0.093661
H215	H	-0.379119	1.316423	0.239673
H216	H	-0.045786	1.649757	0.573006
H217	H	0.006682	0.910884	0.369040
H218	H	0.340016	1.244218	0.702373
H219	H	0.673349	1.577551	1.035707
O220	O	-0.126986	0.961136	-0.000410
O221	O	0.206347	1.294470	0.332923
O222	O	0.539680	1.627803	0.666257
H223	H	-0.068800	0.951286	-0.000390
H224	H	0.264533	1.284620	0.332943
H225	H	0.597866	1.617953	0.666276
H226	H	-0.679578	0.704792	-0.000417
H227	H	-0.346245	1.038126	0.332916
H228	H	-0.012911	1.371459	0.666249
H229	H	0.212725	0.597091	-0.000368
H230	H	0.546058	0.930424	0.332965
H231	H	0.879391	1.263758	0.666298
O232	O	-0.278354	0.958900	-0.000419
O233	O	0.054980	1.292233	0.332914
O234	O	0.388313	1.625566	0.666248
H235	H	-0.246727	1.003702	-0.000411
H236	H	0.086607	1.337036	0.332922
H237	H	0.419940	1.670369	0.666255
H238	H	-0.235567	0.711340	-0.000352
H239	H	0.097767	1.044674	0.332982
H240	H	0.431100	1.378007	0.666315
O241	O	0.191966	0.725505	0.649152
O242	O	0.525299	1.058839	0.982486
O243	O	0.858633	1.392172	1.315819
H244	H	0.183981	0.733518	0.761284
H245	H	0.517314	1.066852	1.094618
H246	H	0.850647	1.400185	1.427951
O247	O	-0.091569	0.696606	-0.000314
O248	O	0.241764	1.029939	0.333019
O249	O	0.575098	1.363272	0.666353
H250	H	-0.101450	0.665884	-0.093461
H251	H	0.231883	0.999218	0.239873
H252	H	0.565217	1.332551	0.573206
O253	O	0.227448	0.453098	-0.000422
O254	O	0.560782	0.786431	0.332911
O255	O	0.894115	1.119764	0.666245
H256	H	0.272251	0.484725	-0.000438
H257	H	0.605584	0.818058	0.332896
H258	H	0.938918	1.151392	0.666229
O259	O	-0.041386	0.195871	-0.000442
O260	O	0.291948	0.529204	0.332892
O261	O	0.625281	0.862537	0.666225
H262	H	-0.086186	0.164240	-0.000457
H263	H	0.247147	0.497574	0.332877
H264	H	0.580481	0.830907	0.666210
