data_functionalizedCrystal
_audit_creation_method	'MofGen! by Chris Wilmer'
_symmetry_space_group_name_H-M	'P1'
_symmetry_Int_Tables_number	1
_symmetry_cell_setting	triclinic
loop_
_symmetry_equiv_pos_as_xyz
  x,y,z
_cell_length_a	13.897449
_cell_length_b	12.645330
_cell_length_c	12.645323
_cell_angle_alpha	89.975130
_cell_angle_beta	89.978672
_cell_angle_gamma	90.018972
loop_
_atom_site_label
_atom_site_type_symbol
_atom_site_fract_x
_atom_site_fract_y
_atom_site_fract_z
Zn1	Zn	1.474708	-0.421995	-0.599408
Zn2	Zn	1.474601	-0.599283	-0.422148
Zn3	Zn	1.313396	-0.422038	-0.422157
Zn4	Zn	1.313379	-0.599221	-0.599368
O5	O	1.394021	-0.510634	-0.510770
O6	O	1.609676	-0.445520	-0.575908
O7	O	1.453178	-0.575815	-0.273802
O8	O	1.334846	-0.273685	-0.445690
O9	O	1.609596	-0.575773	-0.445676
O10	O	1.453362	-0.273653	-0.575916
O11	O	1.334742	-0.445594	-0.273808
O12	O	1.178412	-0.445533	-0.445651
O13	O	1.334818	-0.575667	-0.747721
O14	O	1.178400	-0.575709	-0.575847
O15	O	1.453346	-0.445460	-0.747750
O16	O	1.453162	-0.747622	-0.445636
O17	O	1.334713	-0.747576	-0.575839
C18	C	1.143407	-0.510620	-0.510746
C19	C	1.036193	-0.510639	-0.510761
C20	C	0.839898	-0.510643	-0.510789
C21	C	0.949130	-0.510638	-0.510770
C22	C	1.393951	-0.786064	-0.510755
C23	C	1.394009	-0.903894	-0.510785
C24	C	1.319800	-1.071473	-0.592947
C25	C	1.319420	-0.948914	-0.592683
C26	C	1.366488	-0.948488	-0.399063
C27	C	1.366035	-1.071087	-0.399562
C28	C	1.496192	-1.070981	-0.539437
C29	C	1.495566	-0.948374	-0.541880
C30	C	1.645614	-0.510649	-0.510795
C31	C	1.752828	-0.510655	-0.510806
C32	C	1.394092	-0.510552	-0.787276
C33	C	1.394122	-0.510517	-0.905106
C34	C	1.394118	-0.234129	-0.510808
C35	C	1.394159	-0.116299	-0.510825
C36	C	1.319326	-0.592044	-1.072651
C37	C	1.319522	-0.592448	-0.950091
C38	C	1.495758	-0.540833	-0.949623
C39	C	1.495348	-0.541344	-1.072221
C40	C	1.368243	-0.398218	-1.072304
C41	C	1.365976	-0.398891	-0.949698
C42	C	1.394006	-0.510639	-0.235341
C43	C	1.394162	-0.510375	-0.117511
H44	H	1.336860	-1.100885	-0.676060
O45	O	1.229188	-0.569696	-1.107982
C46	C	1.227709	-0.574291	-1.219372
H47	H	1.289319	-0.626289	-1.248291
H48	H	1.156294	-0.609115	-1.246829
H49	H	1.236317	-0.491186	-1.253067
O50	O	1.522255	-0.637656	-0.912963
C51	C	1.449176	-0.678197	-0.847036
H52	H	1.377797	-0.638854	-0.867598
H53	H	1.442881	-0.767236	-0.859321
H54	H	1.467757	-0.661284	-0.760882
H55	H	1.418931	-0.919329	-0.336203
O56	O	1.521719	-0.639084	-1.106408
C57	C	1.605671	-0.630871	-1.168513
H58	H	1.645809	-0.555251	-1.146996
H59	H	1.653954	-0.702066	-1.152999
H60	H	1.585136	-0.628655	-1.255763
H61	H	1.244630	-1.102376	-0.574234
O62	O	1.229252	-0.913899	-0.569936
C63	C	1.231751	-0.852327	-0.477047
H64	H	1.307558	-0.820119	-0.464825
H65	H	1.179067	-0.783679	-0.484783
H66	H	1.210649	-0.903392	-0.406424
H67	H	1.553885	-0.917722	-0.486421
O68	O	1.281448	-0.365112	-1.109280
C69	C	1.293353	-0.269912	-1.165882
H70	H	1.370866	-0.263512	-1.194719
H71	H	1.242581	-0.269125	-1.236666
H72	H	1.276239	-0.200119	-1.112033
H73	H	1.336639	-0.918759	-0.675524
O74	O	1.229559	-0.569990	-0.914231
C75	C	1.164490	-0.646890	-0.951694
H76	H	1.205321	-0.722496	-0.971550
H77	H	1.108513	-0.664298	-0.888099
H78	H	1.127019	-0.616061	-1.025724
H79	H	1.336270	-0.674672	-1.103470
O80	O	1.339812	-0.691655	-0.915068
C81	C	1.262635	-0.729233	-0.853152
H82	H	1.194099	-0.685006	-0.875401
H83	H	1.252257	-0.817401	-0.868093
H84	H	1.279140	-0.715682	-0.765898
O85	O	1.564174	-0.472274	-0.914817
C86	C	1.634342	-0.528054	-0.856763
H87	H	1.633800	-0.614721	-0.881537
H88	H	1.708327	-0.492664	-0.873103
H89	H	1.617641	-0.521881	-0.768709
O90	O	1.564071	-0.473341	-1.107512
C91	C	1.544027	-0.370654	-1.070123
H92	H	1.497202	-0.375994	-0.996274
H93	H	1.614324	-0.328779	-1.049993
H94	H	1.504347	-0.324155	-1.133867
H95	H	1.291181	-0.376028	-0.920601
H96	H	1.516320	-0.919223	-0.624101
O97	O	1.277055	-1.105452	-0.370803
C98	C	1.237355	-1.166562	-0.453196
H99	H	1.297728	-1.199162	-0.504786
H100	H	1.194387	-1.234932	-0.418144
H101	H	1.187848	-1.115012	-0.503280
H102	H	1.292679	-0.917879	-0.374386
H103	H	1.417845	-1.100743	-0.336288
H104	H	1.521296	-1.101824	-0.619519
O105	O	1.562174	-1.105700	-0.468027
C106	C	1.516415	-1.170585	-0.392516
H107	H	1.447263	-1.204114	-0.427527
H108	H	1.566428	-1.238280	-0.369678
H109	H	1.498552	-1.121832	-0.319283
H110	H	1.416501	-0.334826	-0.919075
O111	O	1.433188	-0.325627	-1.107094
C112	C	1.431501	-0.322050	-1.218520
H113	H	1.359183	-0.352522	-1.248198
H114	H	1.442249	-0.237020	-1.246102
H115	H	1.491706	-0.373714	-1.251363
