data_functionalizedCrystal
_audit_creation_method	'MofGen! by Chris Wilmer'
_symmetry_space_group_name_H-M	'P1'
_symmetry_Int_Tables_number	1
_symmetry_cell_setting	triclinic
loop_
_symmetry_equiv_pos_as_xyz
  x,y,z
_cell_length_a	19.805407
_cell_length_b	12.594516
_cell_length_c	19.805399
_cell_angle_alpha	89.978854
_cell_angle_beta	90.017803
_cell_angle_gamma	89.975952
loop_
_atom_site_label
_atom_site_type_symbol
_atom_site_fract_x
_atom_site_fract_y
_atom_site_fract_z
Zn1	Zn	1.034734	0.423843	0.382718
Zn2	Zn	1.034648	0.601836	0.269542
Zn3	Zn	0.921549	0.423864	0.269546
Zn4	Zn	0.921512	0.601772	0.382693
O5	O	0.978111	0.512829	0.326125
O6	O	1.129439	0.447473	0.367714
O7	O	1.019625	0.578264	0.174826
O8	O	0.936615	0.274915	0.284571
O9	O	1.129376	0.578244	0.284564
O10	O	1.019771	0.274900	0.367718
O11	O	0.936531	0.447508	0.174829
O12	O	0.826827	0.447446	0.284546
O13	O	0.936551	0.578133	0.477413
O14	O	0.826800	0.578153	0.367674
O15	O	1.019735	0.447410	0.477431
O16	O	1.019589	0.750774	0.284540
O17	O	0.936468	0.750726	0.367671
C18	C	0.802255	0.512795	0.326108
C19	C	0.727023	0.512807	0.326117
C20	C	0.978034	0.789370	0.326117
C21	C	0.978063	0.907675	0.326136
C22	C	0.691712	0.444835	0.369479
C23	C	0.621024	0.444840	0.369482
C24	C	0.585647	0.512824	0.326125
C25	C	0.620963	0.580799	0.282759
C26	C	0.691650	0.580787	0.282753
C27	C	0.335889	0.580847	0.282780
C28	C	0.265197	0.580856	0.282790
C29	C	0.265263	0.444900	0.369508
C30	C	0.335950	0.444888	0.369503
C31	C	0.371260	0.512859	0.326134
C32	C	0.447908	0.512851	0.326130
C33	C	0.509000	0.512839	0.326132
C34	C	0.932840	0.976941	0.371319
C35	C	0.916343	1.047796	0.309557
C36	C	0.994596	1.047619	0.387908
C37	C	0.961533	0.976972	0.264342
C38	C	1.039815	0.976789	0.342734
C39	C	1.023341	1.047612	0.280930
C40	C	1.154653	0.512863	0.326142
C41	C	1.229885	0.512878	0.326149
C42	C	0.978149	0.512762	0.502668
C43	C	0.978165	0.512733	0.577900
C44	C	0.978177	1.235208	0.326146
C45	C	0.978129	1.116903	0.326153
C46	C	0.978112	0.512819	0.150269
C47	C	0.978227	0.512548	0.075037
C48	C	1.021480	0.444662	0.613254
C49	C	1.021487	0.444631	0.683943
C50	C	0.978182	0.512678	0.719275
C51	C	0.934862	0.580752	0.683915
C52	C	0.934852	0.580776	0.613228
C53	C	0.934900	0.580652	0.968989
C54	C	0.934915	0.580625	1.039681
C55	C	1.021535	0.444507	1.039704
C56	C	1.021525	0.444532	0.969016
C57	C	0.978203	0.512602	0.933663
C58	C	0.978195	0.512633	0.857014
C59	C	0.978193	0.512653	0.795922
H60	H	0.720510	0.389477	0.404787
O61	O	0.882108	0.935822	0.421855
H62	H	0.895335	0.965341	0.472971
H63	H	1.091994	0.945579	0.356788
H64	H	1.056791	0.389125	0.940252
O65	O	0.227040	0.654172	0.236015
H66	H	0.240597	0.737734	0.247519
O67	O	0.888159	0.654069	0.930885
H68	H	0.918404	0.708257	0.898669
H69	H	0.899648	0.636038	1.068446
H70	H	0.236506	0.389551	0.404819
H71	H	0.864152	1.079009	0.295533
O72	O	1.068244	0.371054	1.077834
H73	H	1.060968	0.382447	1.132923
H74	H	0.899574	0.636196	0.584443
O75	O	0.888148	0.654141	0.722019
H76	H	0.895434	0.642695	0.777112
H77	H	0.947515	0.946068	0.212095
O78	O	1.013092	1.088723	0.457095
H79	H	0.975444	1.060418	0.494491
H80	H	1.056746	0.389254	0.584492
H81	H	0.592277	0.389493	0.404793
O82	O	1.068209	0.371219	0.722079
H83	H	1.098326	0.323918	0.685634
H84	H	0.364750	0.389532	0.404810
O85	O	1.074040	1.088462	0.230274
H86	H	1.047774	1.138149	0.192134
O87	O	0.373970	0.654151	0.236004
H88	H	0.337493	0.701429	0.205861
O89	O	0.582812	0.654125	0.235992
H90	H	0.527726	0.642722	0.243284
H91	H	0.720399	0.636137	0.247443
