data_functionalizedCrystal
_audit_creation_method	'MofGen! by Chris Wilmer'
_symmetry_space_group_name_H-M	'P1'
_symmetry_Int_Tables_number	1
_symmetry_cell_setting	triclinic
loop_
_symmetry_equiv_pos_as_xyz
  x,y,z
_cell_length_a	13.635800
_cell_length_b	19.452420
_cell_length_c	11.102291
_cell_angle_alpha	85.477834
_cell_angle_beta	108.605752
_cell_angle_gamma	78.303285
loop_
_atom_site_label
_atom_site_type_symbol
_atom_site_fract_x
_atom_site_fract_y
_atom_site_fract_z
V1	V	2.038357	-0.097192	0.396881
O2	O	2.036121	0.004661	0.388686
O3	O	2.009634	-0.192706	0.394782
O4	O	2.027017	-0.095701	0.569693
O5	O	2.018618	-0.093016	0.212563
V6	V	2.279091	-0.085008	0.374760
O7	O	2.171241	-0.123917	0.445404
O8	O	2.371306	-0.058283	0.326237
O9	O	2.196211	0.010506	0.376859
O10	O	2.340026	-0.186862	0.382955
O11	O	2.357529	-0.089185	0.559078
O12	O	2.178828	-0.086500	0.201947
V13	V	2.538357	-0.097192	0.396881
O14	O	2.536121	0.004661	0.388686
O15	O	2.509634	-0.192706	0.394782
O16	O	2.527017	-0.095701	0.569693
O17	O	2.518618	-0.093016	0.212563
V18	V	2.779091	-0.085008	0.374760
O19	O	2.671241	-0.123917	0.445404
O20	O	2.871306	-0.058283	0.326237
O21	O	2.696211	0.010506	0.376859
O22	O	2.840026	-0.186862	0.382955
O23	O	2.857529	-0.089185	0.559078
O24	O	2.678828	-0.086500	0.201947
C25	C	1.930618	-0.215990	0.388680
C26	C	1.947863	-0.294075	0.388115
C27	C	1.927676	-0.320701	0.271384
C28	C	1.943911	-0.394068	0.270815
C29	C	1.980315	-0.440805	0.386982
C30	C	2.000509	-0.414171	0.503729
C31	C	1.984283	-0.340806	0.504296
N32	N	1.969802	-0.561255	0.468797
N33	N	1.985212	-0.630948	0.468250
C34	C	2.029207	-0.661851	0.385282
N35	N	2.057193	-0.620425	0.302860
N36	N	2.041776	-0.550725	0.303403
C37	C	1.997913	-0.520358	0.386381
C38	C	2.026625	-0.768029	0.267926
C39	C	2.042868	-0.841398	0.267362
C40	C	2.099457	-0.861499	0.500279
C41	C	2.083223	-0.788132	0.500840
C42	C	2.046802	-0.741401	0.384660
C43	C	1.952791	-0.092249	0.611795
C44	C	1.984130	-0.091662	0.753074
C45	C	2.106898	0.033787	0.382958
C46	C	2.079273	0.111870	0.383531
C47	C	2.084725	-0.089953	0.159839
C48	C	2.043004	-0.090537	0.018559
C49	C	2.430618	-0.215990	0.388680
C50	C	2.447863	-0.294075	0.388115
C51	C	2.452791	-0.092249	0.611795
C52	C	2.484130	-0.091662	0.753074
C53	C	2.090230	-0.094890	0.825943
C54	C	2.119667	-0.094324	0.958686
C55	C	1.936895	-0.087307	0.945680
C56	C	1.907459	-0.087867	0.812938
C57	C	2.195752	-0.098944	0.833454
C58	C	2.225189	-0.098379	0.966197
C59	C	2.606898	0.033787	0.382958
C60	C	2.579273	0.111870	0.383531
C61	C	2.584725	-0.089953	0.159839
C62	C	2.543004	-0.090537	0.018559
C63	C	2.547337	-0.334326	0.394223
C64	C	2.563558	-0.407696	0.393712
C65	C	2.480303	-0.440814	0.387085
C66	C	2.380821	-0.400558	0.380980
C67	C	2.364603	-0.327189	0.381500
C68	C	2.652293	0.152121	0.377426
C69	C	2.626343	0.225491	0.377943
C70	C	2.527376	0.258608	0.384574
C71	C	2.454350	0.218353	0.390675
C72	C	2.480297	0.144985	0.390148
C73	C	2.590230	-0.094890	0.825943
C74	C	2.619667	-0.094324	0.958686
C75	C	2.436895	-0.087307	0.945680
C76	C	2.407459	-0.087867	0.812938
C77	C	2.695752	-0.098944	0.833454
C78	C	2.725189	-0.098379	0.966197
H79	H	1.898027	-0.282657	0.176781
N80	N	2.259273	-0.035816	1.002297
N81	N	2.260184	0.010563	0.918330
H82	H	2.284253	0.054749	0.943826
N83	N	2.759273	-0.035821	1.002336
N84	N	2.710857	0.004963	1.057491
H85	H	2.734923	0.049145	1.083017
H86	H	2.287939	-0.149167	1.019369
N87	N	2.803901	-0.162094	1.032897
N88	N	2.782741	-0.221214	1.019378
H89	H	2.838328	-0.266211	1.066486
H90	H	2.283598	-0.294422	0.376520
N91	N	2.243798	-0.164665	0.803194
N92	N	2.304397	-0.213412	0.891537
H93	H	2.338322	-0.259831	0.870168
N94	N	2.700947	0.266608	0.371754
N95	N	2.677785	0.332113	0.372235
H96	H	2.730476	0.361151	0.367872
N97	N	2.004874	-0.313605	0.623539
N98	N	1.931475	-0.272164	0.644912
H99	H	1.946012	-0.252952	0.729130
N100	N	1.923299	-0.421265	0.151560
N101	N	1.890792	-0.379534	0.047842
H102	H	1.876235	-0.398739	-0.036383
N103	N	2.665169	-0.448803	0.399909
N104	N	2.672725	-0.482781	0.310981
H105	H	2.744486	-0.511811	0.315353
H106	H	2.030152	-0.452229	0.598314
N107	N	2.496897	-0.515760	0.386561
N108	N	2.585725	-0.551684	0.392014
H109	H	2.597452	-0.604615	0.391642
N110	N	2.632399	-0.300517	0.400988
N111	N	2.721208	-0.336477	0.406447
H112	H	2.781292	-0.312605	0.411231
N113	N	2.405715	0.103863	0.396387
N114	N	2.371599	0.069881	0.307471
H115	H	2.318920	0.040841	0.311876
N116	N	1.989421	-0.720299	0.149245
N117	N	1.971408	-0.744086	0.045025
H118	H	1.945131	-0.710379	-0.038796
H119	H	2.506261	0.318350	0.385000
H120	H	2.732882	0.125166	0.372028
H121	H	1.821065	-0.085240	0.753613
H122	H	2.313040	-0.427534	0.375584
N123	N	2.022252	-0.868586	0.148105
N124	N	1.989736	-0.826851	0.044390
H125	H	1.975175	-0.846053	-0.039838
N126	N	2.218667	-0.039129	0.773996
N127	N	2.175444	0.022460	0.782949
H128	H	2.191625	0.064706	0.740958
N129	N	2.353264	0.252198	0.397444
N130	N	2.330126	0.317705	0.397918
H131	H	2.258735	0.341611	0.402705
N132	N	2.299083	-0.084584	0.738514
N133	N	2.276619	-0.133860	0.677368
H134	H	2.200075	-0.131544	0.624808
N135	N	2.358595	-0.083427	1.006851
N136	N	2.384886	-0.082921	1.125368
H137	H	2.329585	-0.080181	1.168570
N138	N	2.718687	-0.039137	0.773999
N139	N	2.758979	0.003464	0.840965
H140	H	2.775176	0.045702	0.798977
N141	N	2.743798	-0.164665	0.803194
N142	N	2.804397	-0.213412	0.891537
H143	H	2.838322	-0.259831	0.870168
H144	H	2.099654	-0.766454	0.595895
N145	N	2.136621	-0.909230	0.618943
N146	N	2.083101	-0.905017	0.692055
H147	H	2.109352	-0.938730	0.775866
N148	N	1.858595	-0.083427	1.006851
N149	N	1.884886	-0.082921	1.125368
H150	H	1.829585	-0.080181	1.168570
