data_functionalizedCrystal
_audit_creation_method	'MofGen! by Chris Wilmer'
_symmetry_space_group_name_H-M	'P1'
_symmetry_Int_Tables_number	1
_symmetry_cell_setting	triclinic
loop_
_symmetry_equiv_pos_as_xyz
  x,y,z
_cell_length_a	6.817900
_cell_length_b	10.992421
_cell_length_c	17.110486
_cell_angle_alpha	95.147452
_cell_angle_beta	99.060439
_cell_angle_gamma	108.764763
loop_
_atom_site_label
_atom_site_type_symbol
_atom_site_fract_x
_atom_site_fract_y
_atom_site_fract_z
V1	V	-4.003796	-0.177378	-0.246709
O2	O	-3.964021	0.008917	-0.242024
O3	O	-3.982135	-0.352090	-0.245011
O4	O	-3.933214	-0.174477	-0.354313
O5	O	-4.013281	-0.169925	-0.131966
V6	V	-4.486833	-0.155115	-0.232986
O7	O	-4.266119	-0.226213	-0.276811
O8	O	-4.674707	-0.106280	-0.202884
O9	O	-4.285288	0.019596	-0.234684
O10	O	-4.644005	-0.341411	-0.237671
O11	O	-4.594745	-0.162569	-0.347729
O12	O	-4.334209	-0.158017	-0.125383
C13	C	-3.834358	-0.394686	-0.241116
C14	C	-3.897787	-0.537514	-0.240445
C15	C	-3.771953	-0.168122	-0.380540
C16	C	-3.795705	-0.166906	-0.468506
C17	C	-3.767873	-0.732809	-0.235034
C18	C	-3.701620	-0.584164	-0.235418
C19	C	-4.001433	-0.576264	-0.166652
C20	C	-4.066019	-0.724808	-0.165870
C21	C	-4.129800	-0.763155	-0.317142
C22	C	-4.060029	-0.614639	-0.318743
C23	C	-3.989132	-0.172747	-0.513864
C24	C	-4.011437	-0.171603	-0.596517
C25	C	-3.840317	-0.164628	-0.633812
C26	C	-3.646873	-0.158783	-0.588448
C27	C	-3.624566	-0.159917	-0.505796
C28	C	-3.898547	-0.160874	-0.883168
C29	C	-3.920872	-0.159745	-0.965827
C30	C	-4.285434	-0.172563	-0.973889
C31	C	-4.263113	-0.173704	-0.891236
C32	C	-4.069669	-0.167852	-0.845878
C33	C	-3.863114	-0.163463	-0.718298
C34	C	-4.046870	-0.169008	-0.761394
C35	C	-4.096408	0.062186	-0.238577
C36	C	-4.012217	0.205012	-0.239253
C37	C	-4.158813	-0.164376	-0.099151
C38	C	-4.114299	-0.165586	-0.011184
H39	H	-3.620890	-0.558318	-0.288146
H40	H	-3.781513	-0.154060	-0.996189
F41	F	-3.540176	-0.515726	-0.161938
F42	F	-3.692682	-0.154673	-0.834908
H43	H	-3.718591	-0.779149	-0.287435
F44	F	-3.464754	-0.151358	-0.628143
H45	H	-4.168939	-0.176352	-0.633443
F46	F	-3.418691	-0.153691	-0.457522
H47	H	-4.442929	-0.177325	-1.010828
H48	H	-3.677228	-0.753456	-0.178863
H49	H	-4.402461	-0.179383	-0.860876
F50	F	-4.362610	-0.816875	-0.322194
F51	F	-4.228980	-0.176428	-0.721700
F52	F	-3.681012	-0.156056	-0.757999
F53	F	-3.964032	-0.583307	-0.390105
F54	F	-3.955486	-0.747823	-0.089289
F55	F	-4.191286	-0.536742	-0.167760
F56	F	-4.296406	-0.778250	-0.165719
F57	F	-4.250990	-0.575144	-0.329516
F58	F	-3.851599	-0.505491	-0.090884
H59	H	-4.098463	-0.812585	-0.372979
H60	H	-4.128485	-0.178435	-0.483505
