data_functionalizedCrystal
_audit_creation_method	'MofGen! by Chris Wilmer'
_symmetry_space_group_name_H-M	'P1'
_symmetry_Int_Tables_number	1
_symmetry_cell_setting	triclinic
loop_
_symmetry_equiv_pos_as_xyz
  x,y,z
_cell_length_a	16.992694
_cell_length_b	16.109301
_cell_length_c	15.186229
_cell_angle_alpha	90.005167
_cell_angle_beta	90.002273
_cell_angle_gamma	92.935148
loop_
_atom_site_label
_atom_site_type_symbol
_atom_site_fract_x
_atom_site_fract_y
_atom_site_fract_z
O1	O	1.040345	-0.176288	-0.073123
O2	O	0.812060	-0.174354	-0.073149
O3	O	0.932474	-0.054708	-0.073126
O4	O	0.919931	-0.295934	-0.073146
O5	O	0.932466	-0.054706	0.073331
O6	O	0.812052	-0.174352	0.073308
O7	O	1.040337	-0.176286	0.073334
Zn8	Zn	0.926193	-0.175318	0.096574
Zn9	Zn	0.926204	-0.175321	-0.096389
O10	O	0.919923	-0.295931	0.073312
C11	C	0.782844	-0.171865	0.000076
C12	C	0.695802	-0.164441	0.000067
N13	N	0.926192	-0.175316	0.228267
C14	C	0.931962	-0.023699	0.000103
C15	C	0.930439	0.068698	0.000104
C16	C	0.645543	-0.236067	0.000062
C17	C	0.563758	-0.229087	0.000074
C18	C	0.532234	-0.150481	0.000086
C19	C	0.582499	-0.078849	0.000094
C20	C	0.664282	-0.085830	0.000087
C21	C	0.288644	-0.121548	0.000112
C22	C	0.206854	-0.114572	0.000116
C23	C	0.188119	-0.264811	0.000098
C24	C	0.269904	-0.271785	0.000086
C25	C	0.320163	-0.200154	0.000099
N26	N	0.448637	-0.143344	0.000096
N27	N	0.403758	-0.207291	0.000095
C28	C	1.069553	-0.178775	0.000107
C29	C	1.156595	-0.186198	0.000111
C30	C	0.920435	-0.326941	0.000081
C31	C	0.921959	-0.419338	0.000074
C32	C	0.998348	0.286439	0.000097
C33	C	0.996911	0.373256	0.000090
C34	C	0.854044	0.362915	0.000077
C35	C	0.855482	0.276100	0.000078
C36	C	0.927636	0.237865	0.000093
C37	C	0.924761	0.411496	0.000084
C38	C	0.923202	0.505626	0.000076
C39	C	0.929196	0.143729	0.000099
N40	N	0.926212	-0.175317	-0.228082
C41	C	0.979529	-0.122357	0.454000
C42	C	0.979532	-0.122355	0.546190
C43	C	0.872869	-0.228279	0.546179
C44	C	0.872863	-0.228275	0.453991
C45	C	0.926198	-0.175316	0.407904
C46	C	0.926206	-0.175317	0.592281
C47	C	0.926208	-0.175316	0.692237
C48	C	0.926195	-0.175316	0.307941
H49	H	0.671204	-0.300077	0.000052
C50	C	0.774678	0.404982	0.000078
N51	N	0.714898	0.436666	0.000086
H52	H	0.797897	0.236549	0.000072
H53	H	0.829430	-0.271401	0.416457
H54	H	0.181191	-0.050558	0.000124
C55	C	0.343917	-0.042750	0.000120
N56	N	0.385552	0.016604	0.000124
C57	C	0.508477	-0.307882	0.000085
N58	N	0.466839	-0.367235	0.000099
H59	H	1.057101	0.255311	0.000107
C60	C	0.304575	-0.358259	0.000088
N61	N	0.330688	-0.423392	0.000091
C62	C	1.038194	-0.064089	0.596891
N63	N	1.082379	-0.020197	0.635079
C64	C	0.547819	0.007620	0.000108
N65	N	0.521700	0.072750	0.000115
H66	H	0.147190	-0.323129	0.000090
C67	C	0.814202	-0.286529	0.596883
N68	N	0.770013	-0.330404	0.635073
H69	H	0.705203	-0.027504	0.000091
H70	H	1.022956	-0.079233	0.416478
C71	C	1.074699	0.426684	0.000103
N72	N	1.133293	0.466926	0.000114
