data_functionalizedCrystal
_audit_creation_method	'MofGen! by Chris Wilmer'
_symmetry_space_group_name_H-M	'P1'
_symmetry_Int_Tables_number	1
_symmetry_cell_setting	triclinic
loop_
_symmetry_equiv_pos_as_xyz
  x,y,z
_cell_length_a	29.839135
_cell_length_b	25.639240
_cell_length_c	25.639233
_cell_angle_alpha	89.974071
_cell_angle_beta	90.016897
_cell_angle_gamma	89.965416
loop_
_atom_site_label
_atom_site_type_symbol
_atom_site_fract_x
_atom_site_fract_y
_atom_site_fract_z
Zn1	Zn	-0.686752	-0.208189	-0.295643
Zn2	Zn	-0.186752	0.291811	0.204357
Zn3	Zn	-0.686694	-0.295608	-0.208196
Zn4	Zn	-0.186694	0.204392	0.291804
Zn5	Zn	-0.611633	-0.208191	-0.208215
Zn6	Zn	-0.111633	0.291809	0.291785
Zn7	Zn	-0.611594	-0.295598	-0.295594
Zn8	Zn	-0.111594	0.204402	0.204406
O9	O	-0.649168	-0.251896	-0.251912
O10	O	-0.149168	0.248104	0.248088
O11	O	-0.749611	-0.219788	-0.284055
O12	O	-0.249611	0.280212	0.215945
O13	O	-0.676729	-0.284017	-0.135033
O14	O	-0.176729	0.215983	0.364967
O15	O	-0.621638	-0.135025	-0.219840
O16	O	-0.121638	0.364975	0.280160
O17	O	-0.749569	-0.284015	-0.219809
O18	O	-0.249569	0.215985	0.280191
O19	O	-0.676828	-0.135024	-0.284073
O20	O	-0.176828	0.364976	0.215927
O21	O	-0.621582	-0.219792	-0.135047
O22	O	-0.121582	0.280208	0.364953
O23	O	-0.548761	-0.219782	-0.219793
O24	O	-0.048761	0.280218	0.280207
O25	O	-0.621571	-0.283998	-0.368766
O26	O	-0.121571	0.216002	0.131234
O27	O	-0.548732	-0.284000	-0.283990
O28	O	-0.048732	0.216000	0.216010
O29	O	-0.676790	-0.219779	-0.368801
O30	O	-0.176790	0.280221	0.131199
O31	O	-0.676691	-0.368772	-0.219761
O32	O	-0.176691	0.131228	0.280239
O33	O	-0.621515	-0.368764	-0.283972
O34	O	-0.121515	0.131236	0.216028
C35	C	-0.532445	-0.251891	-0.251889
C36	C	-0.032445	0.248109	0.248111
C37	C	-0.482511	-0.251901	-0.251892
C38	C	0.017489	0.248099	0.248108
C39	C	-0.172887	-0.218498	-0.285412
C40	C	0.327113	0.281502	0.214588
C41	C	0.014786	-0.218499	-0.285426
C42	C	0.514786	0.281501	0.214574
O43	O	0.039035	-0.190089	-0.313902
O44	O	0.539035	0.309911	0.186098
N45	N	0.038274	-0.251887	-0.251927
N46	N	0.538274	0.248113	0.248073
C47	C	0.014841	-0.285275	-0.218421
C48	C	0.514841	0.214725	0.281579
O49	O	0.039125	-0.313671	-0.189925
O50	O	0.539125	0.186329	0.310075
C51	C	-0.172831	-0.285271	-0.218405
C52	C	0.327169	0.214729	0.281595
C53	C	-0.196317	-0.251884	-0.251909
C54	C	0.303683	0.248116	0.248091
C55	C	-0.196372	-0.185113	-0.318913
C56	C	0.303628	0.314887	0.181087
C57	C	-0.243288	-0.185115	-0.318911
C58	C	0.256712	0.314885	0.181089
C59	C	-0.266718	-0.218502	-0.285408
C60	C	0.233282	0.281498	0.214592
C61	C	-0.243232	-0.251887	-0.251907
C62	C	0.256768	0.248113	0.248093
C63	C	-0.196264	-0.318657	-0.184896
C64	C	0.303736	0.181343	0.315104
C65	C	-0.243185	-0.318652	-0.184894
C66	C	0.256815	0.181348	0.315106
C67	C	-0.266670	-0.285265	-0.218398
C68	C	0.233330	0.214735	0.281602
C69	C	-0.313578	-0.285275	-0.218402
C70	C	0.186422	0.214725	0.281598
N71	N	-0.337066	-0.251887	-0.251901
N72	N	0.162934	0.248113	0.248099
C73	C	-0.313636	-0.218500	-0.285404
C74	C	0.186364	0.281500	0.214596
C75	C	0.113371	-0.285276	-0.218432
C76	C	0.613371	0.214724	0.281568
C77	C	0.160289	-0.285278	-0.218437
C78	C	0.660289	0.214722	0.281563
C79	C	0.160231	-0.218500	-0.285441
C80	C	0.660231	0.281500	0.214559
C81	C	0.113313	-0.218501	-0.285439
C82	C	0.613313	0.281499	0.214561
C83	C	0.089884	-0.251887	-0.251931
C84	C	0.589884	0.248113	0.248069
C85	C	-0.412161	-0.218507	-0.285398
C86	C	0.087839	0.281493	0.214602
C87	C	-0.459081	-0.218514	-0.285394
C88	C	0.040919	0.281486	0.214606
C89	C	-0.459019	-0.285289	-0.218388
C90	C	0.040981	0.214711	0.281612
C91	C	-0.412104	-0.285285	-0.218393
C92	C	0.087896	0.214715	0.281607
C93	C	-0.388676	-0.251890	-0.251900
C94	C	0.111324	0.248110	0.248100
O95	O	-0.337855	-0.313665	-0.189937
O96	O	0.162145	0.186335	0.310063
O97	O	-0.337928	-0.190101	-0.313887
O98	O	0.162072	0.309899	0.186113
C99	C	-0.125971	-0.218496	-0.285414
C100	C	0.374029	0.281504	0.214586
C101	C	-0.102486	-0.251880	-0.251913
C102	C	0.397514	0.248120	0.248087
C103	C	-0.125916	-0.285267	-0.218410
C104	C	0.374084	0.214733	0.281590
C105	C	-0.055568	-0.251882	-0.251917
C106	C	0.444432	0.248118	0.248083
C107	C	-0.032138	-0.218495	-0.285420
C108	C	0.467862	0.281505	0.214580
C109	C	-0.055626	-0.185107	-0.318918
C110	C	0.444374	0.314893	0.181082
C111	C	-0.102541	-0.185109	-0.318917
C112	C	0.397459	0.314891	0.181083
C113	C	-0.102428	-0.318655	-0.184911
C114	C	0.397572	0.181345	0.315089
C115	C	-0.055513	-0.318651	-0.184916
C116	C	0.444487	0.181349	0.315084
C117	C	-0.032083	-0.285264	-0.218419
C118	C	0.467917	0.214736	0.281581
C119	C	-0.649105	-0.387739	-0.251871
C120	C	-0.149105	0.112261	0.248129
C121	C	-0.649119	-0.445853	-0.251871
C122	C	-0.149119	0.054147	0.248129
C123	C	0.233654	-0.251899	-0.251934
C124	C	0.733654	0.248101	0.248066
C125	C	0.183719	-0.251891	-0.251940
C126	C	0.683719	0.248109	0.248060
C127	C	-0.677919	-0.806177	-0.285418
C128	C	-0.177919	-0.306177	0.214582
C129	C	-0.677933	-0.860781	-0.285429
C130	C	-0.177933	-0.360781	0.214571
O131	O	-0.702345	-0.888984	-0.313910
O132	O	-0.202345	-0.388984	0.186090
N133	N	-0.649230	-0.888135	-0.251962
N134	N	-0.149230	-0.388135	0.248038
C135	C	-0.620510	-0.860883	-0.218487
C136	C	-0.120510	-0.360883	0.281513
O137	O	-0.596097	-0.889164	-0.190022
O138	O	-0.096097	-0.389164	0.309978
C139	C	-0.620495	-0.806279	-0.218479
C140	C	-0.120495	-0.306279	0.281521
C141	C	-0.649202	-0.778928	-0.251944
C142	C	-0.149202	-0.278928	0.248056
C143	C	-0.706624	-0.778825	-0.318881
C144	C	-0.206624	-0.278825	0.181119
C145	C	-0.706611	-0.724225	-0.318869
C146	C	-0.206611	-0.224225	0.181131
C147	C	-0.677894	-0.696976	-0.285395
C148	C	-0.177894	-0.196976	0.214605
C149	C	-0.649189	-0.724327	-0.251933
C150	C	-0.149189	-0.224327	0.248067
C151	C	-0.591772	-0.779027	-0.185007
C152	C	-0.091772	-0.279027	0.314993
C153	C	-0.591759	-0.724420	-0.185002
C154	C	-0.091759	-0.224420	0.314998
C155	C	-0.620466	-0.697069	-0.218467
C156	C	-0.120466	-0.197069	0.281533
C157	C	-0.620459	-0.642478	-0.218447
C158	C	-0.120459	-0.142478	0.281553
N159	N	-0.649161	-0.615123	-0.251914
N160	N	-0.149161	-0.115123	0.248086
C161	C	-0.677879	-0.642372	-0.285388
C162	C	-0.177879	-0.142372	0.214612
C163	C	-0.620543	-0.975553	-0.218506
C164	C	-0.120543	-0.475553	0.281494
C165	C	-0.620560	-1.030155	-0.218511
C166	C	-0.120560	-0.530155	0.281489
C167	C	-0.677983	-1.030050	-0.285453
C168	C	-0.177983	-0.530050	0.214547
C169	C	-0.677968	-0.975447	-0.285446
C170	C	-0.177968	-0.475447	0.214554
C171	C	-0.649246	-0.948199	-0.251973
C172	C	-0.149246	-0.448199	0.248027
C173	C	-0.677850	-0.527707	-0.285361
C174	C	-0.177850	-0.027707	0.214639
C175	C	-0.677836	-0.473102	-0.285345
C176	C	-0.177836	0.026898	0.214655
C177	C	-0.620412	-0.473212	-0.218404
C178	C	-0.120412	0.026788	0.281596
C179	C	-0.620428	-0.527813	-0.218418
C180	C	-0.120428	-0.027813	0.281582
C181	C	-0.649148	-0.555059	-0.251901
C182	C	-0.149148	-0.055059	0.248099
O183	O	-0.596058	-0.614240	-0.189982
O184	O	-0.096058	-0.114240	0.310018
O185	O	-0.702283	-0.614085	-0.313852
O186	O	-0.202283	-0.114085	0.186148
C187	C	-0.649244	-0.115523	-0.251964
C188	C	-0.149244	0.384477	0.248036
C189	C	-0.649276	-0.057409	-0.251987
C190	C	-0.149276	0.442591	0.248013
C191	C	-0.649183	-0.251887	-0.388285
C192	C	-0.149183	0.248113	0.111715
C193	C	-0.649189	-0.251883	-0.446399
C194	C	-0.149189	0.248117	0.053601
C195	C	-0.677977	-0.218345	-0.806786
C196	C	-0.177977	0.281655	-0.306786
C197	C	-0.677983	-0.218331	-0.861391
C198	C	-0.177983	0.281669	-0.361391
O199	O	-0.702424	-0.189877	-0.889648
O200	O	-0.202424	0.310123	-0.389648
N201	N	-0.649238	-0.251761	-0.888682
N202	N	-0.149238	0.248239	-0.388682
C203	C	-0.620483	-0.285204	-0.861365
C204	C	-0.120483	0.214796	-0.361365
O205	O	-0.596034	-0.313637	-0.889592
O206	O	-0.096034	0.186363	-0.389592
C207	C	-0.620475	-0.285215	-0.806762
C208	C	-0.120475	0.214785	-0.306762
C209	C	-0.649225	-0.251787	-0.779474
C210	C	-0.149225	0.248213	-0.279474
C211	C	-0.706724	-0.184919	-0.779498
C212	C	-0.206724	0.315081	-0.279498
C213	C	-0.706719	-0.184934	-0.724898
C214	C	-0.206719	0.315066	-0.224898
C215	C	-0.677967	-0.218376	-0.697585
C216	C	-0.177967	0.281624	-0.197585
C217	C	-0.649220	-0.251802	-0.724873
C218	C	-0.149220	0.248198	-0.224873
C219	C	-0.591718	-0.318655	-0.779447
C220	C	-0.091718	0.181345	-0.279447
C221	C	-0.591713	-0.318663	-0.724840
C222	C	-0.091713	0.181337	-0.224840
C223	C	-0.620463	-0.285235	-0.697552
C224	C	-0.120463	0.214765	-0.197552
C225	C	-0.620463	-0.285259	-0.642960
C226	C	-0.120463	0.214741	-0.142960
N227	N	-0.649208	-0.251829	-0.615670
N228	N	-0.149208	0.248171	-0.115670
C229	C	-0.677960	-0.218387	-0.642982
C230	C	-0.177960	0.281613	-0.142982
C231	C	-0.620500	-0.285176	-0.976036
C232	C	-0.120500	0.214824	-0.476036
C233	C	-0.620510	-0.285168	-1.030638
C234	C	-0.120510	0.214832	-0.530638
C235	C	-0.678009	-0.218294	-1.030660
C236	C	-0.178009	0.281706	-0.530660
C237	C	-0.678002	-0.218306	-0.976057
C238	C	-0.178002	0.281694	-0.476057
C239	C	-0.649245	-0.251746	-0.948745
C240	C	-0.149245	0.248254	-0.448745
C241	C	-0.677947	-0.218422	-0.528317
C242	C	-0.177947	0.281578	-0.028317
C243	C	-0.677941	-0.218442	-0.473711
C244	C	-0.177941	0.281558	0.026289
C245	C	-0.620440	-0.285313	-0.473695
C246	C	-0.120440	0.214687	0.026305
C247	C	-0.620448	-0.285296	-0.528295
C248	C	-0.120448	0.214704	-0.028295
C249	C	-0.649203	-0.251846	-0.555605
C250	C	-0.149203	0.248154	-0.055605
O251	O	-0.596033	-0.313696	-0.614668
O252	O	-0.096033	0.186304	-0.114668
O253	O	-0.702401	-0.189954	-0.614748
O254	O	-0.202401	0.310046	-0.114748
C255	C	-0.649179	-0.251868	-0.116069
C256	C	-0.149179	0.248132	0.383931
C257	C	-0.649260	-0.251724	-0.057956
C258	C	-0.149260	0.248276	0.442044
H259	H	0.179407	-0.312470	-0.191160
H260	H	0.679407	0.187530	0.308840
C261	C	-0.560089	-0.355417	-0.809462
C262	C	-0.060089	0.144583	-0.309462
C263	C	-0.524839	-0.332737	-0.846994
C264	C	-0.024839	0.167263	-0.346994
C265	C	-0.493206	-0.369497	-0.877012
C266	C	0.006794	0.130503	-0.377012
C267	C	-0.496824	-0.428938	-0.869498
C268	C	0.003176	0.071062	-0.369498
C269	C	-0.532076	-0.451622	-0.831964
C270	C	-0.032076	0.048378	-0.331964
C271	C	-0.563708	-0.414862	-0.801946
C272	C	-0.063708	0.085138	-0.301946
H273	H	-0.522159	-0.288732	-0.852559
H274	H	-0.022159	0.211268	-0.352559
H275	H	-0.467110	-0.352704	-0.904797
H276	H	0.032890	0.147296	-0.404797
H277	H	-0.473407	-0.456151	-0.891719
H278	H	0.026593	0.043849	-0.391719
H279	H	-0.534755	-0.495627	-0.826399
H280	H	-0.034755	0.004373	-0.326399
H281	H	-0.589804	-0.431654	-0.774160
H282	H	-0.089804	0.068346	-0.274160
H283	H	-0.730138	-0.157684	-0.801730
H284	H	-0.230138	0.342316	-0.301730
C285	C	-0.709624	-0.181531	-0.946043
C286	C	-0.209624	0.318469	-0.446043
C287	C	-0.744879	-0.204192	-0.908505
C288	C	-0.244879	0.295808	-0.408505
C289	C	-0.776502	-0.167414	-0.878494
C290	C	-0.276502	0.332586	-0.378494
C291	C	-0.772870	-0.107975	-0.886021
C292	C	-0.272870	0.392025	-0.386021
C293	C	-0.737613	-0.085312	-0.923561
C294	C	-0.237613	0.414688	-0.423561
C295	C	-0.705990	-0.122089	-0.953572
C296	C	-0.205990	0.377911	-0.453572
H297	H	-0.747570	-0.248194	-0.902931
H298	H	-0.247570	0.251806	-0.402931
H299	H	-0.802602	-0.184192	-0.850705
H300	H	-0.302602	0.315808	-0.350705
H301	H	-0.796279	-0.080750	-0.863806
H302	H	-0.296279	0.419250	-0.363806
H303	H	-0.734922	-0.041309	-0.929135
H304	H	-0.234922	0.458691	-0.429135
H305	H	-0.679890	-0.105311	-0.981361
H306	H	-0.179890	0.394689	-0.481361
C307	C	-0.588816	-0.322096	-0.443639
C308	C	-0.088816	0.177904	0.056361
C309	C	-0.537746	-0.317825	-0.451127
C310	C	-0.037746	0.182175	0.048873
C311	C	-0.506121	-0.354604	-0.421067
C312	C	-0.006121	0.145396	0.078933
C313	C	-0.525566	-0.395656	-0.383520
C314	C	-0.025566	0.104344	0.116480
C315	C	-0.576638	-0.399930	-0.376030
C316	C	-0.076638	0.100070	0.123970
C317	C	-0.608263	-0.363150	-0.406090
C318	C	-0.108263	0.136850	0.093910
H319	H	-0.523350	-0.287434	-0.478924
H320	H	-0.023350	0.212566	0.021076
H321	H	-0.468314	-0.351441	-0.426612
H322	H	0.031686	0.148559	0.073388
H323	H	-0.502155	-0.422883	-0.361268
H324	H	-0.002155	0.077117	0.138732
H325	H	-0.591034	-0.430320	-0.348233
H326	H	-0.091034	0.069680	0.151767
H327	H	-0.646070	-0.366314	-0.400545
H328	H	-0.146070	0.133686	0.099455
C329	C	-0.738219	-0.808794	-0.355703
C330	C	-0.238219	-0.308794	0.144297
C331	C	-0.718750	-0.846329	-0.396741
C332	C	-0.218750	-0.346329	0.103259
C333	C	-0.750351	-0.876293	-0.433562
C334	C	-0.250351	-0.376293	0.066438
C335	C	-0.801421	-0.868723	-0.429343
C336	C	-0.301421	-0.368723	0.070657
C337	C	-0.820893	-0.831186	-0.388303
C338	C	-0.320893	-0.331186	0.111697
C339	C	-0.789292	-0.801222	-0.351483
C340	C	-0.289292	-0.301222	0.148517
H341	H	-0.680942	-0.851935	-0.399866
H342	H	-0.180942	-0.351935	0.100134
H343	H	-0.735936	-0.904081	-0.463943
H344	H	-0.235936	-0.404081	0.036057
H345	H	-0.824814	-0.890905	-0.456600
H346	H	-0.324814	-0.390905	0.043400
H347	H	-0.858701	-0.825581	-0.385179
H348	H	-0.358701	-0.325581	0.114821
H349	H	-0.803707	-0.773435	-0.321102
H350	H	-0.303707	-0.273435	0.178898
H351	H	-0.036541	-0.157924	-0.346199
H352	H	0.463459	0.342076	0.153801
H353	H	-0.392981	-0.312477	-0.191117
H354	H	0.107019	0.187523	0.308883
C355	C	0.087604	-0.322009	-0.181574
C356	C	0.587604	0.177991	0.318426
C357	C	0.094079	-0.317660	-0.122146
C358	C	0.594079	0.182340	0.377854
C359	C	0.068314	-0.354396	-0.085291
C360	C	0.568314	0.145604	0.414709
C361	C	0.036075	-0.395480	-0.107863
C362	C	0.536075	0.104520	0.392137
C363	C	0.029599	-0.399831	-0.167294
C364	C	0.529599	0.100169	0.332706
C365	C	0.055364	-0.363095	-0.204150
C366	C	0.555364	0.136905	0.295850
H367	H	0.117945	-0.287245	-0.105434
H368	H	0.617945	0.212755	0.394566
H369	H	0.073109	-0.351175	-0.041296
H370	H	0.573109	0.148825	0.458704
H371	H	0.017003	-0.422674	-0.080580
H372	H	0.517003	0.077326	0.419420
H373	H	0.005733	-0.430245	-0.184006
H374	H	0.505733	0.069755	0.315994
H375	H	0.050569	-0.366316	-0.248145
H376	H	0.550569	0.133684	0.251855
C377	C	-0.128196	-0.355388	-0.148058
C378	C	0.371804	0.144612	0.351942
C379	C	-0.121726	-0.351039	-0.088630
C380	C	0.378274	0.148961	0.411370
C381	C	-0.147491	-0.387777	-0.051777
C382	C	0.352509	0.112223	0.448223
C383	C	-0.179726	-0.428864	-0.074353
C384	C	0.320274	0.071136	0.425647
C385	C	-0.186197	-0.433214	-0.133784
C386	C	0.313803	0.066786	0.366216
C387	C	-0.160432	-0.396476	-0.170637
C388	C	0.339568	0.103524	0.329363
H389	H	-0.097862	-0.320623	-0.071915
H390	H	0.402138	0.179377	0.428085
H391	H	-0.142700	-0.384557	-0.007781
H392	H	0.357300	0.115443	0.492219
H393	H	-0.198799	-0.456060	-0.047072
H394	H	0.301201	0.043940	0.452928
H395	H	-0.210061	-0.463630	-0.150499
H396	H	0.289939	0.036370	0.349501
H397	H	-0.165223	-0.399696	-0.214633
H398	H	0.334777	0.100304	0.285367
H399	H	-0.121659	-0.157921	-0.346199
H400	H	0.378341	0.342079	0.153801
C401	C	-0.484914	-0.181785	-0.322250
C402	C	0.015086	0.318215	0.177750
C403	C	-0.478473	-0.186138	-0.381679
C404	C	0.021527	0.313862	0.118321
C405	C	-0.504303	-0.149409	-0.418533
C406	C	-0.004303	0.350591	0.081467
C407	C	-0.536574	-0.108327	-0.395958
C408	C	-0.036574	0.391673	0.104042
C409	C	-0.543016	-0.103972	-0.336526
C410	C	-0.043016	0.396028	0.163474
C411	C	-0.517186	-0.140701	-0.299672
C412	C	-0.017186	0.359299	0.200328
H413	H	-0.454583	-0.216551	-0.398393
H414	H	0.045417	0.283449	0.101607
H415	H	-0.499534	-0.152633	-0.462529
H416	H	0.000466	0.347367	0.037471
H417	H	-0.555695	-0.081138	-0.423240
H418	H	-0.055695	0.418862	0.076760
H419	H	-0.566906	-0.073559	-0.319812
H420	H	-0.066906	0.426441	0.180188
H421	H	-0.521955	-0.137477	-0.255677
H422	H	-0.021955	0.362523	0.244323
H423	H	-0.701361	-0.191182	-0.550546
H424	H	-0.201361	0.308818	-0.050546
C425	C	-0.588823	-0.443230	-0.181587
C426	C	-0.088823	0.056770	0.318413
C427	C	-0.592519	-0.450761	-0.122153
C428	C	-0.092519	0.049239	0.377847
C429	C	-0.560927	-0.420776	-0.085339
C430	C	-0.060927	0.079224	0.414661
C431	C	-0.525638	-0.383261	-0.107959
C432	C	-0.025638	0.116739	0.392041
C433	C	-0.521940	-0.375728	-0.167396
C434	C	-0.021940	0.124272	0.332604
C435	C	-0.553533	-0.405713	-0.204210
C436	C	-0.053533	0.094287	0.295790
H437	H	-0.618643	-0.478534	-0.105406
H438	H	-0.118643	0.021466	0.394594
H439	H	-0.563664	-0.426353	-0.041340
H440	H	-0.063664	0.073647	0.458660
H441	H	-0.502251	-0.361065	-0.080707
H442	H	-0.002251	0.138935	0.419293
H443	H	-0.495816	-0.347955	-0.184143
H444	H	0.004184	0.152045	0.315857
H445	H	-0.550795	-0.400136	-0.248209
H446	H	-0.050795	0.099864	0.251791
C447	C	-0.709572	-1.060030	-0.322279
C448	C	-0.209572	-0.560030	0.177721
C449	C	-0.744863	-1.097548	-0.299670
C450	C	-0.244863	-0.597548	0.200330
C451	C	-0.776450	-1.127529	-0.336492
C452	C	-0.276450	-0.627529	0.163508
C453	C	-0.772747	-1.119991	-0.395925
C454	C	-0.272747	-0.619991	0.104075
C455	C	-0.737454	-1.082471	-0.418537
C456	C	-0.237454	-0.582471	0.081463
C457	C	-0.705866	-1.052490	-0.381715
C458	C	-0.205866	-0.552490	0.118285
H459	H	-0.747606	-1.103130	-0.255672
H460	H	-0.247606	-0.603130	0.244328
H461	H	-0.802576	-1.155303	-0.319753
H462	H	-0.302576	-0.655303	0.180247
H463	H	-0.796130	-1.142184	-0.423183
H464	H	-0.296130	-0.642184	0.076817
H465	H	-0.734711	-1.076889	-0.462536
H466	H	-0.234711	-0.576889	0.037464
H467	H	-0.679740	-1.024716	-0.398454
H468	H	-0.179740	-0.524716	0.101546
C469	C	0.087481	-0.181772	-0.322290
C470	C	0.587481	0.318228	0.177710
C471	C	0.093917	-0.186126	-0.381720
C472	C	0.593917	0.313874	0.118280
C473	C	0.068087	-0.149394	-0.418571
C474	C	0.568087	0.350606	0.081429
C475	C	0.035822	-0.108308	-0.395993
C476	C	0.535822	0.391692	0.104007
C477	C	0.029384	-0.103952	-0.336561
C478	C	0.529384	0.396048	0.163439
C479	C	0.055214	-0.140684	-0.299709
C480	C	0.555214	0.359316	0.200291
H481	H	0.117803	-0.216542	-0.398436
H482	H	0.617803	0.283458	0.101564
H483	H	0.072853	-0.152619	-0.462567
H484	H	0.572853	0.347381	0.037433
H485	H	0.016701	-0.081117	-0.423273
H486	H	0.516701	0.418883	0.076727
H487	H	0.005498	-0.073536	-0.319845
H488	H	0.505498	0.426464	0.180155
H489	H	0.050448	-0.137459	-0.255713
H490	H	0.550448	0.362541	0.244287
H491	H	-0.701420	-0.191063	-1.052908
H492	H	-0.201420	0.308937	-0.552908
H493	H	-0.597189	-1.052420	-0.191254
H494	H	-0.097189	-0.552420	0.308746
C495	C	-0.560188	-0.809102	-0.148197
C496	C	-0.060188	-0.309102	0.351803
C497	C	-0.579675	-0.846644	-0.107167
C498	C	-0.079675	-0.346644	0.392833
C499	C	-0.548087	-0.876716	-0.070355
C500	C	-0.048087	-0.376716	0.429645
C501	C	-0.497013	-0.869247	-0.074574
C502	C	0.002987	-0.369247	0.425426
C503	C	-0.477524	-0.831703	-0.115606
C504	C	0.022476	-0.331703	0.384394
C505	C	-0.509112	-0.801631	-0.152418
C506	C	-0.009112	-0.301631	0.347582
H507	H	-0.617485	-0.852175	-0.104042
H508	H	-0.117485	-0.352175	0.395958
H509	H	-0.562515	-0.904509	-0.039981
H510	H	-0.062515	-0.404509	0.460019
H511	H	-0.473630	-0.891508	-0.047325
H512	H	0.026370	-0.391508	0.452675
H513	H	-0.439714	-0.826172	-0.118731
H514	H	0.060286	-0.326172	0.381269
H515	H	-0.494684	-0.773838	-0.182792
H516	H	0.005316	-0.273838	0.317208
C517	C	-0.560082	-0.355451	-0.694796
C518	C	-0.060082	0.144549	-0.194796
C519	C	-0.509013	-0.351180	-0.702294
C520	C	-0.009013	0.148820	-0.202294
C521	C	-0.477384	-0.387969	-0.672251
C522	C	0.022616	0.112031	-0.172251
C523	C	-0.496824	-0.429029	-0.634709
C524	C	0.003176	0.070971	-0.134709
C525	C	-0.547895	-0.433302	-0.627209
C526	C	-0.047895	0.066698	-0.127209
C527	C	-0.579524	-0.396513	-0.657253
C528	C	-0.079524	0.103487	-0.157253
H529	H	-0.494621	-0.320783	-0.730087
H530	H	0.005379	0.179217	-0.230087
H531	H	-0.439578	-0.384805	-0.677803
H532	H	0.060422	0.115195	-0.177803
H533	H	-0.473410	-0.456262	-0.612469
H534	H	0.026590	0.043738	-0.112469
H535	H	-0.562287	-0.463699	-0.599417
H536	H	-0.062287	0.036301	-0.099417
H537	H	-0.617330	-0.399677	-0.651700
H538	H	-0.117330	0.100323	-0.151700
C539	C	-0.738184	-0.694145	-0.355691
C540	C	-0.238184	-0.194145	0.144309
C541	C	-0.789260	-0.701607	-0.351494
C542	C	-0.289260	-0.201607	0.148506
C543	C	-0.820833	-0.671533	-0.388321
C544	C	-0.320833	-0.171533	0.111679
C545	C	-0.801329	-0.633996	-0.429345
C546	C	-0.301329	-0.133996	0.070655
C547	C	-0.750250	-0.626532	-0.433544
C548	C	-0.250250	-0.126532	0.066456
C549	C	-0.718678	-0.656606	-0.396717
C550	C	-0.218678	-0.156606	0.103283
H551	H	-0.803700	-0.729396	-0.321124
H552	H	-0.303700	-0.229396	0.178876
H553	H	-0.858645	-0.677058	-0.385213
H554	H	-0.358645	-0.177058	0.114787
H555	H	-0.824701	-0.611733	-0.456607
H556	H	-0.324701	-0.111733	0.043393
H557	H	-0.735810	-0.598744	-0.463914
H558	H	-0.235810	-0.098744	0.036086
H559	H	-0.680866	-0.651081	-0.399825
H560	H	-0.180866	-0.151081	0.100175
H561	H	-0.597104	-0.312395	-1.052852
H562	H	-0.097104	0.187605	-0.552852
H563	H	-0.701343	-0.953181	-0.312696
H564	H	-0.201343	-0.453181	0.187304
H565	H	-0.597083	-0.312411	-0.953802
H566	H	-0.097083	0.187589	-0.453802
H567	H	-0.393092	-0.191312	-0.312680
H568	H	0.106908	0.308688	0.187320
H569	H	-0.597156	-0.953370	-0.191244
H570	H	-0.097156	-0.453370	0.308756
C571	C	-0.268957	-0.355379	-0.148035
C572	C	0.231043	0.144621	0.351965
C573	C	-0.262488	-0.351022	-0.088606
C574	C	0.237512	0.148978	0.411394
C575	C	-0.288259	-0.387749	-0.051749
C576	C	0.211741	0.112251	0.448251
C577	C	-0.320498	-0.428835	-0.074319
C578	C	0.179502	0.071165	0.425681
C579	C	-0.326968	-0.433194	-0.133750
C580	C	0.173032	0.066806	0.366250
C581	C	-0.301197	-0.396466	-0.170608
C582	C	0.198803	0.103534	0.329392
H583	H	-0.238621	-0.320607	-0.071895
H584	H	0.261379	0.179393	0.428105
H585	H	-0.283469	-0.384522	-0.007753
H586	H	0.216531	0.115478	0.492247
H587	H	-0.339575	-0.456023	-0.047035
H588	H	0.160425	0.043977	0.452965
H589	H	-0.350835	-0.463609	-0.150461
H590	H	0.149165	0.036391	0.349539
H591	H	-0.305987	-0.399693	-0.214603
H592	H	0.194013	0.100307	0.285397
H593	H	-0.568369	-0.702238	-0.157745
H594	H	-0.068369	-0.202238	0.342255
C595	C	-0.588856	-0.557905	-0.181602
C596	C	-0.088856	-0.057905	0.318398
C597	C	-0.592558	-0.550435	-0.122167
C598	C	-0.092558	-0.050435	0.377833
C599	C	-0.560984	-0.580524	-0.085354
C600	C	-0.060984	-0.080524	0.414646
C601	C	-0.525708	-0.618083	-0.107976
C602	C	-0.025708	-0.118083	0.392024
C603	C	-0.522004	-0.625555	-0.167414
C604	C	-0.022004	-0.125555	0.332586
C605	C	-0.553578	-0.595466	-0.204227
C606	C	-0.053578	-0.095466	0.295773
H607	H	-0.618673	-0.522630	-0.105419
H608	H	-0.118673	-0.022630	0.394581
H609	H	-0.563726	-0.574993	-0.041354
H610	H	-0.063726	-0.074993	0.458646
H611	H	-0.502335	-0.640357	-0.080725
H612	H	-0.002335	-0.140357	0.419275
H613	H	-0.495889	-0.653360	-0.184163
H614	H	0.004111	-0.153360	0.315837
H615	H	-0.550836	-0.600997	-0.248227
H616	H	-0.050836	-0.100997	0.251773
H617	H	-0.262405	-0.157927	-0.346193
H618	H	0.237595	0.342073	0.153807
H619	H	-0.177301	-0.157923	-0.346195
H620	H	0.322699	0.342077	0.153805
H621	H	-0.730130	-0.157712	-0.702685
H622	H	-0.230130	0.342288	-0.202685
H623	H	0.179316	-0.191315	-0.312721
H624	H	0.679316	0.308685	0.187279
C625	C	-0.709414	-0.443016	-0.322161
C626	C	-0.209414	0.056984	0.177839
C627	C	-0.740999	-0.472994	-0.358984
C628	C	-0.240999	0.027006	0.141016
C629	C	-0.772575	-0.442910	-0.395800
C630	C	-0.272575	0.057090	0.104200
C631	C	-0.772565	-0.382849	-0.395793
C632	C	-0.272565	0.117151	0.104207
C633	C	-0.740979	-0.352868	-0.358968
C634	C	-0.240979	0.147132	0.141032
C635	C	-0.709403	-0.382951	-0.322152
C636	C	-0.209403	0.117049	0.177848
H637	H	-0.741007	-0.517458	-0.358991
H638	H	-0.241007	-0.017458	0.141009
H639	H	-0.795957	-0.465105	-0.423060
H640	H	-0.295957	0.034895	0.076940
H641	H	-0.795939	-0.360579	-0.423046
H642	H	-0.295939	0.139421	0.076954
H643	H	-0.740970	-0.308403	-0.358961
H644	H	-0.240970	0.191597	0.141039
H645	H	-0.686021	-0.360757	-0.294892
H646	H	-0.186021	0.139243	0.205108
H647	H	-0.177150	-0.345843	-0.157613
H648	H	0.322850	0.154157	0.342387
H649	H	-0.478104	-0.312473	-0.191112
H650	H	0.021896	0.187527	0.308888
H651	H	-0.036395	-0.345844	-0.157634
H652	H	0.463605	0.154156	0.342366
H653	H	-0.701354	-0.191220	-0.451496
H654	H	-0.201354	0.308780	0.048504
H655	H	-0.701234	-0.549885	-0.312629
H656	H	-0.201234	-0.049885	0.187371
H657	H	-0.597041	-0.312521	-0.550514
H658	H	-0.097041	0.187479	-0.050514
