data_functionalizedCrystal
_audit_creation_method	'MofGen! by Chris Wilmer'
_symmetry_space_group_name_H-M	'P1'
_symmetry_Int_Tables_number	1
_symmetry_cell_setting	triclinic
loop_
_symmetry_equiv_pos_as_xyz
  x,y,z
_cell_length_a	29.839134
_cell_length_b	21.395361
_cell_length_c	21.395356
_cell_angle_alpha	90.030681
_cell_angle_beta	89.966687
_cell_angle_gamma	89.974432
loop_
_atom_site_label
_atom_site_type_symbol
_atom_site_fract_x
_atom_site_fract_y
_atom_site_fract_z
Zn1	Zn	0.686803	0.249540	-0.354411
Zn2	Zn	1.020137	0.582874	-0.021078
Zn3	Zn	1.353470	0.916207	0.312256
Zn4	Zn	0.686735	0.354317	-0.249628
Zn5	Zn	1.020068	0.687650	0.083705
Zn6	Zn	1.353401	1.020984	0.417039
Zn7	Zn	0.611671	0.249548	-0.249630
Zn8	Zn	0.945005	0.582881	0.083704
Zn9	Zn	1.278338	0.916214	0.417037
Zn10	Zn	0.611648	0.354275	-0.354350
Zn11	Zn	0.944981	0.687608	-0.021017
Zn12	Zn	1.278315	1.020941	0.312316
O13	O	0.649214	0.301920	-0.302005
O14	O	0.982548	0.635253	0.031329
O15	O	1.315881	0.968587	0.364662
O16	O	0.749661	0.263454	-0.340536
O17	O	1.082995	0.596787	-0.007202
O18	O	1.416328	0.930120	0.326131
O19	O	0.676758	0.340440	-0.161950
O20	O	1.010092	0.673773	0.171383
O21	O	1.343425	1.007106	0.504716
O22	O	0.621676	0.161869	-0.263555
O23	O	0.955010	0.495202	0.069778
O24	O	1.288343	0.828536	0.403111
O25	O	0.749611	0.340433	-0.263552
O26	O	1.082944	0.673766	0.069781
O27	O	1.416278	1.007099	0.403115
O28	O	0.676875	0.161863	-0.340538
O29	O	1.010209	0.495197	-0.007204
O30	O	1.343542	0.828530	0.326129
O31	O	0.621610	0.263466	-0.161952
O32	O	0.954943	0.596800	0.171382
O33	O	1.288276	0.930133	0.504715
O34	O	0.548801	0.263425	-0.263497
O35	O	0.882134	0.596759	0.069837
O36	O	1.215468	0.930092	0.403170
O37	O	0.621636	0.340360	-0.442036
O38	O	0.954970	0.673694	-0.108703
O39	O	1.288303	1.007027	0.224630
O40	O	0.548784	0.340368	-0.340434
O41	O	0.882117	0.673701	-0.007101
O42	O	1.215451	1.007034	0.326232
O43	O	0.676853	0.263413	-0.442081
O44	O	1.010186	0.596746	-0.108747
O45	O	1.343519	0.930079	0.224586
O46	O	0.676736	0.441989	-0.263493
O47	O	1.010069	0.775322	0.069840
O48	O	1.343402	1.108656	0.403173
O49	O	0.621570	0.441958	-0.340432
O50	O	0.954903	0.775291	-0.007099
O51	O	1.288236	1.108625	0.326234
C52	C	0.649155	0.464707	-0.301970
C53	C	0.982488	0.798041	0.031364
C54	C	1.315822	1.131374	0.364697
C55	C	0.649171	0.534349	-0.301976
C56	C	0.982504	0.867682	0.031357
C57	C	1.315837	1.201015	0.364691
C58	C	0.532492	0.301893	-0.301960
C59	C	0.865825	0.635227	0.031374
C60	C	1.199158	0.968560	0.364707
C61	C	0.482557	0.301897	-0.301955
C62	C	0.815891	0.635230	0.031378
C63	C	1.149224	0.968564	0.364712
C64	C	0.649250	0.301881	-0.465428
C65	C	0.982583	0.635214	-0.132095
C66	C	1.315916	0.968548	0.201239
C67	C	0.649265	0.301864	-0.535069
C68	C	0.982598	0.635198	-0.201736
C69	C	1.315931	0.968531	0.131597
C70	C	0.172914	0.342043	-0.342017
C71	C	0.506248	0.675376	-0.008684
C72	C	0.839581	1.008710	0.324650
C73	C	-0.014759	0.342061	-0.342045
C74	C	0.318575	0.675394	-0.008712
C75	C	0.651908	1.008727	0.324622
O76	O	-0.039023	0.376165	-0.376080
O77	O	0.294310	0.709498	-0.042747
O78	O	0.627644	1.042831	0.290586
N79	N	-0.038228	0.301943	-0.302052
N80	N	0.295106	0.635276	0.031281
N81	N	0.628439	0.968609	0.364615
C82	C	-0.014776	0.261815	-0.262052
C83	C	0.318558	0.595148	0.071281
C84	C	0.651891	0.928482	0.404615
O85	O	-0.039044	0.227688	-0.228041
O86	O	0.294289	0.561021	0.105293
O87	O	0.627623	0.894355	0.438626
C88	C	0.172896	0.261795	-0.262028
C89	C	0.506230	0.595128	0.071306
C90	C	0.839563	0.928461	0.404639
C91	C	0.196363	0.301919	-0.302019
C92	C	0.529696	0.635253	0.031314
C93	C	0.863030	0.968586	0.364648
C94	C	0.196381	0.382164	-0.382005
C95	C	0.529715	0.715497	-0.048672
C96	C	0.863048	1.048831	0.284661
C97	C	0.243297	0.382162	-0.381996
C98	C	0.576630	0.715495	-0.048662
C99	C	0.909963	1.048828	0.284671
C100	C	0.266745	0.342038	-0.341997
C101	C	0.600079	0.675371	-0.008664
C102	C	0.933412	1.008705	0.324669
C103	C	0.243279	0.301917	-0.302009
C104	C	0.576612	0.635250	0.031324
C105	C	0.909945	0.968584	0.364658
C106	C	0.196348	0.221664	-0.222031
C107	C	0.529681	0.554997	0.111302
C108	C	0.863014	0.888330	0.444635
C109	C	0.243269	0.221661	-0.222030
C110	C	0.576602	0.554995	0.111303
C111	C	0.909935	0.888328	0.444637
C112	C	0.266735	0.261786	-0.262021
C113	C	0.600069	0.595119	0.071312
C114	C	0.933402	0.928453	0.404645
C115	C	0.313643	0.261791	-0.262001
C116	C	0.646976	0.595124	0.071332
C117	C	0.980309	0.928458	0.404666
N118	N	0.337112	0.301909	-0.301994
N119	N	0.670445	0.635242	0.031339
N120	N	1.003779	0.968576	0.364673
C121	C	0.313663	0.342032	-0.341992
C122	C	0.646997	0.675366	-0.008659
C123	C	0.980330	1.008699	0.324674
C124	C	-0.113306	0.261829	-0.262067
C125	C	0.220027	0.595163	0.071267
C126	C	0.553360	0.928496	0.404600
C127	C	-0.160224	0.261835	-0.262072
C128	C	0.173109	0.595168	0.071262
C129	C	0.506442	0.928502	0.404595
C130	C	-0.160204	0.342080	-0.342066
C131	C	0.173130	0.675413	-0.008732
C132	C	0.506463	1.008747	0.324601
C133	C	-0.113285	0.342077	-0.342057
C134	C	0.220048	0.675410	-0.008724
C135	C	0.553382	1.008744	0.324610
C136	C	-0.089837	0.301947	-0.302060
C137	C	0.243496	0.635280	0.031274
C138	C	0.576829	0.968614	0.364607
C139	C	0.412189	0.342025	-0.341968
C140	C	0.745522	0.675358	-0.008635
C141	C	1.078856	1.008691	0.324698
C142	C	0.459109	0.342021	-0.341953
C143	C	0.792442	0.675354	-0.008620
C144	C	1.125775	1.008687	0.324713
C145	C	0.459084	0.261773	-0.261962
C146	C	0.792417	0.595107	0.071371
C147	C	1.125751	0.928440	0.404705
C148	C	0.412169	0.261780	-0.261974
C149	C	0.745502	0.595113	0.071359
C150	C	1.078835	0.928446	0.404692
C151	C	0.388722	0.301907	-0.301983
C152	C	0.722056	0.635241	0.031351
C153	C	1.055389	0.968574	0.364684
O154	O	0.337936	0.227700	-0.227989
O155	O	0.671269	0.561033	0.105345
O156	O	1.004603	0.894367	0.438678
O157	O	0.337940	0.376144	-0.376008
O158	O	0.671273	0.709478	-0.042675
O159	O	1.004606	1.042811	0.290658
C160	C	0.125999	0.342045	-0.342027
C161	C	0.459332	0.675379	-0.008693
C162	C	0.792666	1.008712	0.324640
C163	C	0.102532	0.301924	-0.302038
C164	C	0.435866	0.635258	0.031295
C165	C	0.769199	0.968591	0.364628
C166	C	0.125981	0.261801	-0.262040
C167	C	0.459314	0.595134	0.071293
C168	C	0.792648	0.928467	0.404626
C169	C	0.055614	0.301930	-0.302044
C170	C	0.388948	0.635263	0.031290
C171	C	0.722281	0.968597	0.364623
C172	C	0.032166	0.342054	-0.342042
C173	C	0.365499	0.675387	-0.008708
C174	C	0.698832	1.008720	0.324625
C175	C	0.055635	0.382171	-0.382035
C176	C	0.388968	0.715505	-0.048701
C177	C	0.722302	1.048838	0.284632
C178	C	0.102550	0.382169	-0.382025
C179	C	0.435884	0.715502	-0.048692
C180	C	0.769217	1.048836	0.284642
C181	C	0.102512	0.221683	-0.222047
C182	C	0.435845	0.555016	0.111286
C183	C	0.769178	0.888350	0.444619
C184	C	0.055596	0.221689	-0.222060
C185	C	0.388930	0.555022	0.111274
C186	C	0.722263	0.888356	0.444607
C187	C	0.032148	0.261813	-0.262058
C188	C	0.365481	0.595146	0.071275
C189	C	0.698814	0.928479	0.404609
C190	C	0.766393	0.301947	-0.302050
C191	C	1.099726	0.635280	0.031283
C192	C	1.433059	0.968614	0.364616
C193	C	0.816327	0.301959	-0.302070
C194	C	1.149660	0.635292	0.031263
C195	C	1.482994	0.968625	0.364597
C196	C	0.649286	0.138497	-0.302053
C197	C	0.982619	0.471830	0.031280
C198	C	1.315953	0.805163	0.364613
C199	C	0.649317	0.068855	-0.302074
C200	C	0.982650	0.402189	0.031259
C201	C	1.315983	0.735522	0.364592
C202	C	0.677921	0.567057	-0.261955
C203	C	1.011254	0.900391	0.071379
C204	C	1.344588	1.233724	0.404712
C205	C	0.677942	0.632493	-0.261969
C206	C	1.011275	0.965826	0.071365
C207	C	1.344609	1.299159	0.404698
C208	C	0.649204	0.665217	-0.301997
C209	C	0.982538	0.998550	0.031336
C210	C	1.315871	1.331884	0.364669
C211	C	0.620452	0.632501	-0.342026
C212	C	0.953785	0.965834	-0.008693
C213	C	1.287119	1.299167	0.324640
C214	C	0.620435	0.567066	-0.342016
C215	C	0.953769	0.900400	-0.008682
C216	C	1.287102	1.233733	0.324651
C217	C	0.608754	0.768926	-0.306898
C218	C	0.942087	1.102260	0.026436
C219	C	1.275420	1.435593	0.359769
C220	C	0.608770	0.834359	-0.306904
C221	C	0.942103	1.167693	0.026429
C222	C	1.275437	1.501026	0.359763
C223	C	0.649257	0.867038	-0.302034
C224	C	0.982590	1.200371	0.031299
C225	C	1.315923	1.533704	0.364633
C226	C	0.689729	0.834275	-0.297145
C227	C	1.023062	1.167609	0.036189
C228	C	1.356396	1.500942	0.369522
C229	C	0.689712	0.768841	-0.297134
C230	C	1.023045	1.102174	0.036199
C231	C	1.356379	1.435508	0.369533
C232	C	0.649220	0.736169	-0.302014
C233	C	0.982553	1.069503	0.031320
C234	C	1.315886	1.402836	0.364653
C235	C	0.678032	0.970699	-0.262026
C236	C	1.011366	1.304032	0.071307
C237	C	1.344699	1.637365	0.404641
C238	C	0.678054	1.036135	-0.262044
C239	C	1.011387	1.369469	0.071289
C240	C	1.344721	1.702802	0.404622
C241	C	0.620560	1.036142	-0.342099
C242	C	0.953893	1.369475	-0.008765
C243	C	1.287227	1.702809	0.324568
C244	C	0.620542	0.970707	-0.342084
C245	C	0.953876	1.304040	-0.008750
C246	C	1.287209	1.637373	0.324583
C247	C	0.649278	0.937989	-0.302044
C248	C	0.982611	1.271322	0.031289
C249	C	1.315945	1.604656	0.364623
C250	C	0.620556	0.261780	-0.567773
C251	C	0.953890	0.595113	-0.234440
C252	C	1.287223	0.928447	0.098893
C253	C	0.620555	0.261768	-0.633209
C254	C	0.953888	0.595102	-0.299875
C255	C	1.287222	0.928435	0.033458
C256	C	0.649270	0.301835	-0.665938
C257	C	0.982603	0.635168	-0.332604
C258	C	1.315936	0.968501	0.000729
C259	C	0.677980	0.341927	-0.633226
C260	C	1.011313	0.675260	-0.299893
C261	C	1.344647	1.008594	0.033441
C262	C	0.677977	0.341942	-0.567792
C263	C	1.011311	0.675275	-0.234458
C264	C	1.344644	1.008609	0.098875
C265	C	0.689747	0.306766	-0.769633
C266	C	1.023080	0.640099	-0.436300
C267	C	1.356414	0.973432	-0.102967
C268	C	0.689750	0.306746	-0.835066
C269	C	1.023084	0.640080	-0.501733
C270	C	1.356417	0.973413	-0.168400
C271	C	0.649277	0.301792	-0.867759
C272	C	0.982610	0.635126	-0.534425
C273	C	1.315944	0.968459	-0.201092
C274	C	0.608799	0.296844	-0.835010
C275	C	0.942133	0.630178	-0.501676
C276	C	1.275466	0.963511	-0.168343
C277	C	0.608797	0.296859	-0.769576
C278	C	0.942130	0.630193	-0.436242
C279	C	1.275464	0.963526	-0.102909
C280	C	0.649275	0.301823	-0.736890
C281	C	0.982609	0.635157	-0.403557
C282	C	1.315942	0.968490	-0.070223
C283	C	0.620565	0.261693	-0.971415
C284	C	0.953898	0.595026	-0.638082
C285	C	1.287231	0.928360	-0.304749
C286	C	0.620562	0.261686	-1.036852
C287	C	0.953896	0.595019	-0.703518
C288	C	1.287229	0.928353	-0.370185
C289	C	0.677992	0.341841	-1.036868
C290	C	1.011325	0.675175	-0.703534
C291	C	1.344658	1.008508	-0.370201
C292	C	0.677990	0.341852	-0.971432
C293	C	1.011323	0.675185	-0.638099
C294	C	1.344656	1.008518	-0.304766
C295	C	0.649277	0.301774	-0.938710
C296	C	0.982610	0.635108	-0.605377
C297	C	1.315944	0.968441	-0.272043
C298	C	0.649205	0.301913	-0.139217
C299	C	0.982538	0.635247	0.194116
C300	C	1.315872	0.968580	0.527450
C301	C	0.649277	0.301753	-0.069576
C302	C	0.982610	0.635087	0.263757
C303	C	1.315944	0.968420	0.597090
H304	H	0.478213	0.374697	-0.374519
H305	H	0.811546	0.708031	-0.041186
H306	H	1.144880	1.041364	0.292147
O307	O	0.708955	0.385066	-1.072162
O308	O	1.042288	0.718400	-0.738829
O309	O	1.375622	1.051733	-0.405496
H310	H	0.728915	0.412948	-1.038424
H311	H	1.062248	0.746281	-0.705091
H312	H	1.395582	1.079614	-0.371758
O313	O	0.030336	0.425494	-0.425128
O314	O	0.363670	0.758827	-0.091795
O315	O	0.697003	1.092161	0.241538
H316	H	0.054533	0.453415	-0.452919
H317	H	0.387866	0.786749	-0.119586
H318	H	0.721199	1.120082	0.213747
O319	O	0.030287	0.178407	-0.178925
O320	O	0.363620	0.511740	0.154408
O321	O	0.696954	0.845074	0.487741
H322	H	0.054479	0.150504	-0.151118
H323	H	0.387813	0.483837	0.182215
H324	H	0.721146	0.817170	0.515548
H325	H	0.393105	0.374699	-0.374548
H326	H	0.726438	0.708032	-0.041215
H327	H	1.059771	1.041366	0.292118
O328	O	0.733407	0.312082	-0.870384
O329	O	1.066740	0.645415	-0.537051
O330	O	1.400073	0.978748	-0.203718
H331	H	0.738015	0.270099	-0.900206
H332	H	1.071348	0.603433	-0.566872
H333	H	1.404682	0.936766	-0.233539
O334	O	0.708964	0.385072	-0.936152
O335	O	1.042297	0.718405	-0.602818
O336	O	1.375630	1.051739	-0.269485
H337	H	0.728936	0.412926	-0.969901
H338	H	1.062269	0.746259	-0.636568
H339	H	1.395603	1.079592	-0.303235
O340	O	0.589561	1.071430	-0.385270
O341	O	0.922895	1.404764	-0.051936
O342	O	1.256228	1.738097	0.281397
H343	H	0.609664	1.101201	-0.417180
H344	H	0.942997	1.434535	-0.083847
H345	H	1.276330	1.767868	0.249487
H346	H	0.701432	0.944059	-0.229425
H347	H	1.034765	1.277392	0.103908
H348	H	1.368099	1.610726	0.437242
H349	H	0.575839	0.292832	-0.742914
H350	H	0.909172	0.626165	-0.409581
H351	H	1.242505	0.959499	-0.076248
O352	O	0.733403	0.312105	-0.734373
O353	O	1.066736	0.645438	-0.401040
O354	O	1.400070	0.978771	-0.067707
H355	H	0.761549	0.315531	-0.768137
H356	H	1.094883	0.648864	-0.434803
H357	H	1.428216	0.982197	-0.101470
O358	O	-0.088016	0.218549	-0.218922
O359	O	0.245317	0.551882	0.114412
O360	O	0.578651	0.885215	0.447745
H361	H	-0.066661	0.246550	-0.186995
H362	H	0.266672	0.579884	0.146338
H363	H	0.600006	0.913217	0.479672
O364	O	0.733360	0.733501	-0.291870
O365	O	1.066693	1.066835	0.041464
O366	O	1.400026	1.400168	0.374797
H367	H	0.761518	0.767212	-0.288489
H368	H	1.094852	1.100546	0.044844
H369	H	1.428185	1.433879	0.378177
H370	H	0.597129	0.944074	-0.374670
H371	H	0.930463	1.277407	-0.041337
H372	H	1.263796	1.610740	0.291997
H373	H	0.701360	0.374549	-0.659878
H374	H	1.034693	0.707883	-0.326545
H375	H	1.368026	1.041216	0.006789
H376	H	0.597181	0.229046	-1.063478
H377	H	0.930515	0.562379	-0.730145
H378	H	1.263848	0.895713	-0.396812
H379	H	0.597185	0.229060	-0.944771
H380	H	0.930518	0.562393	-0.611438
H381	H	1.263851	0.895727	-0.278105
H382	H	0.597023	0.540435	-0.374606
H383	H	0.930356	0.873768	-0.041273
H384	H	1.263690	1.207101	0.292060
O385	O	0.565121	0.869695	-0.312177
O386	O	0.898454	1.203029	0.021156
O387	O	1.231788	1.536362	0.354490
H388	H	0.536966	0.835981	-0.315574
H389	H	0.870299	1.169314	0.017759
H390	H	1.203633	1.502647	0.351092
O391	O	0.589603	0.218517	-0.668498
O392	O	0.922936	0.551851	-0.335164
O393	O	1.256270	0.885184	-0.001831
H394	H	0.566730	0.246534	-0.698290
H395	H	0.900063	0.579867	-0.364957
H396	H	1.233397	0.913201	-0.031624
O397	O	0.589592	0.218552	-0.532478
O398	O	0.922926	0.551885	-0.199145
O399	O	1.256259	0.885218	0.134188
H400	H	0.569629	0.190676	-0.566217
H401	H	0.902962	0.524010	-0.232884
H402	H	1.236296	0.857343	0.100449
O403	O	0.565143	0.291498	-0.870264
O404	O	0.898476	0.624832	-0.536931
O405	O	1.231810	0.958165	-0.203597
H406	H	0.536999	0.288055	-0.836499
H407	H	0.870332	0.621388	-0.503166
H408	H	1.203665	0.954722	-0.169833
H409	H	0.701357	0.374583	-0.541164
H410	H	1.034690	0.707916	-0.207831
H411	H	1.368024	1.041250	0.125502
H412	H	0.722697	0.860881	-0.293179
H413	H	1.056031	1.194214	0.040154
H414	H	1.389364	1.527547	0.373487
H415	H	0.121653	0.414843	-0.414590
H416	H	0.454986	0.748176	-0.081257
H417	H	0.788319	1.081509	0.252076
O418	O	0.709069	1.071419	-0.218883
O419	O	1.042402	1.404752	0.114451
O420	O	1.375736	1.738085	0.447784
H421	H	0.688981	1.101284	-0.186987
H422	H	1.022315	1.434618	0.146346
H423	H	1.355648	1.767951	0.479680
H424	H	0.575782	0.742326	-0.310866
H425	H	0.909115	1.075659	0.022467
H426	H	1.242448	1.408993	0.355801
H427	H	0.701320	0.540420	-0.229354
H428	H	1.034654	0.873754	0.103980
H429	H	1.367987	1.207087	0.437313
O430	O	0.268605	0.425430	-0.425138
O431	O	0.601939	0.758763	-0.091805
O432	O	0.935272	1.092097	0.241529
H433	H	0.244411	0.453321	-0.452955
H434	H	0.577745	0.786654	-0.119622
H435	H	0.911078	1.119988	0.213712
O436	O	0.171122	0.425516	-0.425109
O437	O	0.504455	0.758849	-0.091776
O438	O	0.837788	1.092183	0.241557
H439	H	0.180153	0.414891	-0.474315
H440	H	0.513486	0.748224	-0.140982
H441	H	0.846819	1.081557	0.192352
O442	O	-0.087973	0.385342	-0.385198
O443	O	0.245360	0.718676	-0.051865
O444	O	0.578694	1.052009	0.281468
H445	H	-0.096995	0.434505	-0.374371
H446	H	0.236338	0.767839	-0.041038
H447	H	0.569671	1.101172	0.292296
O448	O	-0.185498	0.385353	-0.385214
O449	O	0.147835	0.718686	-0.051881
O450	O	0.481168	1.052020	0.281453
H451	H	-0.222065	0.378607	-0.378499
H452	H	0.111269	0.711941	-0.045166
H453	H	0.444602	1.045274	0.288167
H454	H	-0.179327	0.229167	-0.229501
H455	H	0.154006	0.562501	0.103833
H456	H	0.487340	0.895834	0.437166
O457	O	0.127800	0.178418	-0.178891
O458	O	0.461134	0.511752	0.154443
O459	O	0.794467	0.845085	0.487776
H460	H	0.103594	0.150533	-0.151079
H461	H	0.436928	0.483867	0.182254
H462	H	0.770261	0.817200	0.515588
H463	H	0.597055	0.659149	-0.374619
H464	H	0.930388	0.992482	-0.041286
H465	H	1.263721	1.325816	0.292048
H466	H	0.262357	0.188978	-0.189462
H467	H	0.595691	0.522311	0.143871
H468	H	0.929024	0.855645	0.477204
O469	O	0.171043	0.178383	-0.178901
O470	O	0.504376	0.511717	0.154433
O471	O	0.837709	0.845050	0.487766
H472	H	0.180069	0.129226	-0.189749
H473	H	0.513402	0.462559	0.143584
H474	H	0.846736	0.795893	0.476918
O475	O	0.386853	0.218505	-0.218842
O476	O	0.720187	0.551839	0.114492
O477	O	1.053520	0.885172	0.447825
H478	H	0.411043	0.190603	-0.191029
H479	H	0.744376	0.523936	0.142304
H480	H	1.077710	0.857270	0.475638
O481	O	0.484380	0.218501	-0.218819
O482	O	0.817713	0.551834	0.114514
O483	O	1.151046	0.885168	0.447847
H484	H	0.475393	0.169342	-0.229656
H485	H	0.808726	0.502675	0.103677
H486	H	1.142060	0.836008	0.437011
H487	H	0.701356	0.659129	-0.229379
H488	H	1.034689	0.992462	0.103954
H489	H	1.368022	1.325796	0.437288
