data_functionalizedCrystal
_audit_creation_method	'MofGen! by Chris Wilmer'
_symmetry_space_group_name_H-M	'P1'
_symmetry_Int_Tables_number	1
_symmetry_cell_setting	triclinic
loop_
_symmetry_equiv_pos_as_xyz
  x,y,z
_cell_length_a	10.654544
_cell_length_b	26.809956
_cell_length_c	10.654532
_cell_angle_alpha	89.999225
_cell_angle_beta	84.482525
_cell_angle_gamma	90.017130
loop_
_atom_site_label
_atom_site_type_symbol
_atom_site_fract_x
_atom_site_fract_y
_atom_site_fract_z
O1	O	1.667856	0.041486	0.176396
O2	O	1.302377	0.041483	0.193203
O3	O	1.493527	0.041488	0.002059
O4	O	1.476706	0.041481	0.367540
O5	O	1.493468	-0.041471	0.002058
O6	O	1.302318	-0.041476	0.193202
O7	O	1.667797	-0.041473	0.176395
Zn8	Zn	1.485048	-0.054646	0.184798
Zn9	Zn	1.485126	0.054656	0.184800
O10	O	1.476647	-0.041478	0.367539
C11	C	1.255549	0.000004	0.191968
C12	C	1.116106	0.000003	0.188276
C13	C	1.116016	-0.090442	0.188290
C14	C	1.050462	-0.135662	0.186566
C15	C	0.919443	-0.135660	0.183095
C16	C	0.853977	-0.090432	0.181344
C17	C	0.919532	-0.045212	0.183068
C18	C	1.050553	-0.045219	0.186543
C19	C	0.919622	0.045232	0.183046
C20	C	1.050640	0.045231	0.186526
C21	C	0.854156	0.090460	0.181295
C22	C	0.919709	0.135682	0.183028
C23	C	1.050736	0.135678	0.186501
C24	C	1.116194	0.090452	0.188250
N25	N	1.485004	-0.129242	0.184797
C26	C	1.561937	-0.473869	0.261666
C27	C	1.561978	-0.682747	0.261666
O28	O	1.627356	-0.709752	0.327008
N29	N	1.485156	-0.708869	0.184787
C30	C	1.408324	-0.682769	0.107897
O31	O	1.342993	-0.709780	0.042498
C32	C	1.408291	-0.473892	0.107892
C33	C	1.485109	-0.447773	0.184785
C34	C	1.638750	-0.447750	0.338552
C35	C	1.638734	-0.395533	0.338556
C36	C	1.561905	-0.369437	0.261675
C37	C	1.485093	-0.395556	0.184789
C38	C	1.331468	-0.447793	0.030996
C39	C	1.331468	-0.395570	0.031000
C40	C	1.408286	-0.369451	0.107892
C41	C	1.408249	-0.317243	0.107913
N42	N	1.485071	-0.291121	0.184791
C43	C	1.561899	-0.317218	0.261672
C44	C	1.408345	-0.792432	0.107907
C45	C	1.408352	-0.844651	0.107910
C46	C	1.562007	-0.844626	0.261677
C47	C	1.561993	-0.792406	0.261680
C48	C	1.485167	-0.766310	0.184786
C49	C	1.561859	-0.207560	0.261677
C50	C	1.561832	-0.155339	0.261678
C51	C	1.408182	-0.155369	0.107907
C52	C	1.408203	-0.207585	0.107910
C53	C	1.485052	-0.233679	0.184798
O54	O	1.342915	-0.290206	0.042594
O55	O	1.627241	-0.290197	0.327041
C56	C	1.561953	-0.526086	0.261662
C57	C	1.485141	-0.552205	0.184776
C58	C	1.408313	-0.526109	0.107895
C59	C	1.485147	-0.604424	0.184779
C60	C	1.561976	-0.630521	0.261660
C61	C	1.638798	-0.604398	0.338538
C62	C	1.638782	-0.552182	0.338543
C63	C	1.331491	-0.552231	0.031017
C64	C	1.331512	-0.604447	0.031019
C65	C	1.408340	-0.630544	0.107901
C66	C	1.714625	0.000007	0.177630
C67	C	1.854068	0.000011	0.181322
C68	C	1.492265	0.000010	-0.044739
C69	C	1.488579	0.000016	-0.184183
N70	N	1.485180	0.129252	0.184791
C71	C	1.477908	0.000001	0.414338
C72	C	1.481594	-0.000002	0.553782
C73	C	1.488627	0.090461	0.815769
C74	C	1.486913	0.135679	0.750237
C75	C	1.483427	0.135672	0.619220
C76	C	1.481651	0.090442	0.553733
C77	C	1.483366	0.045224	0.619266
C78	C	1.486856	0.045235	0.750285
C79	C	1.483309	-0.045220	0.619314
C80	C	1.486804	-0.045214	0.750330
C81	C	1.481534	-0.090450	0.553827
C82	C	1.483257	-0.135670	0.619359
C83	C	1.486745	-0.135661	0.750383
C84	C	1.488518	-0.090433	0.815862
H85	H	1.624437	-0.228799	0.324286
H86	H	1.481803	-0.172492	0.566030
H87	H	1.222875	0.090444	0.191085
N88	N	0.720323	0.090454	0.177761
N89	N	0.651018	0.070267	0.264593
H90	H	0.556496	0.070263	0.262101
H91	H	1.345636	-0.228853	0.045313
H92	H	0.747297	-0.090434	0.178502
H93	H	1.222696	-0.090448	0.191134
N94	N	1.478045	0.090439	0.419910
N95	N	1.388113	0.110624	0.372270
H96	H	1.385559	0.110623	0.277755
N97	N	1.481689	0.181865	0.552293
N98	N	1.570470	0.212148	0.556089
H99	H	1.569244	0.244772	0.508823
H100	H	0.866068	-0.172483	0.181701
H101	H	0.866397	0.172503	0.181595
H102	H	1.104103	0.172502	0.187901
N103	N	1.477938	-0.090454	0.420002
N104	N	1.388016	-0.070267	0.372349
H105	H	1.385474	-0.070269	0.277833
H106	H	1.701334	-0.530920	0.401157
N107	N	1.640307	-0.128667	0.340237
N108	N	1.708899	-0.151978	0.408871
H109	H	1.764323	-0.133143	0.464351
N110	N	1.717194	-0.368865	0.417124
N111	N	1.785770	-0.392180	0.485765
H112	H	1.841184	-0.373349	0.541262
H113	H	1.701319	-0.468992	0.401158
H114	H	1.268946	-0.625709	-0.031593
N115	N	1.640477	-0.765735	0.340222
N116	N	1.709066	-0.789048	0.408854
H117	H	1.764505	-0.770215	0.464323
H118	H	1.488122	-0.172483	0.803734
H119	H	1.491364	-0.090421	0.922542
H120	H	1.345627	-0.134112	0.045316
H121	H	1.103779	-0.172486	0.187988
H122	H	1.701348	-0.625655	0.401144
H123	H	1.624559	-0.865882	0.324282
H124	H	1.345784	-0.865913	0.045311
N125	N	1.253013	-0.525580	-0.047529
N126	N	1.267030	-0.531411	-0.164434
H127	H	1.211594	-0.512591	-0.219907
N128	N	1.329848	-0.765788	0.029357
N129	N	1.261262	-0.789123	-0.039264
H130	H	1.205814	-0.770308	-0.094735
N131	N	1.252990	-0.474457	-0.047556
N132	N	1.184414	-0.451140	-0.116194
H133	H	1.128986	-0.469970	-0.171679
H134	H	1.491480	0.090471	0.922448
N135	N	1.253008	-0.368923	-0.047582
N136	N	1.184448	-0.392254	-0.116238
H137	H	1.129041	-0.373436	-0.171742
H138	H	1.488357	0.172504	0.803571
