data_functionalizedCrystal
_audit_creation_method	'MofGen! by Chris Wilmer'
_symmetry_space_group_name_H-M	'P1'
_symmetry_Int_Tables_number	1
_symmetry_cell_setting	triclinic
loop_
_symmetry_equiv_pos_as_xyz
  x,y,z
_cell_length_a	23.532407
_cell_length_b	23.532355
_cell_length_c	16.776229
_cell_angle_alpha	89.998710
_cell_angle_beta	89.993145
_cell_angle_gamma	97.161913
loop_
_atom_site_label
_atom_site_type_symbol
_atom_site_fract_x
_atom_site_fract_y
_atom_site_fract_z
O1	O	-0.068990	0.755281	-0.066167
O2	O	0.431010	1.255281	0.433833
O3	O	-0.079025	0.589414	-0.066191
O4	O	0.420975	1.089414	0.433809
O5	O	0.008925	0.677349	-0.066188
O6	O	0.508925	1.177349	0.433812
O7	O	-0.156940	0.667346	-0.066170
O8	O	0.343060	1.167346	0.433830
O9	O	0.008920	0.677336	0.066388
O10	O	0.508920	1.177336	0.566388
O11	O	-0.079029	0.589401	0.066386
O12	O	0.420971	1.089401	0.566386
O13	O	-0.068995	0.755269	0.066409
O14	O	0.431005	1.255269	0.566409
Zn15	Zn	-0.074013	0.672333	0.087447
Zn16	Zn	0.425987	1.172333	0.587447
Zn17	Zn	-0.074007	0.672350	-0.087228
Zn18	Zn	0.425993	1.172350	0.412772
O19	O	-0.156945	0.667333	0.066407
O20	O	0.343055	1.167333	0.566407
C21	C	-0.078776	0.568191	0.000094
C22	C	0.421224	1.068191	0.500094
C23	C	-0.078022	0.504972	0.000085
C24	C	0.421978	1.004972	0.500085
C25	C	-0.073286	0.112951	0.072385
C26	C	0.426714	0.612951	0.572385
C27	C	-0.072569	0.053552	0.072388
C28	C	0.427431	0.553552	0.572388
O29	O	-0.072181	0.022827	0.133848
O30	O	0.427819	0.522827	0.633848
N31	N	-0.072211	0.023850	0.000121
N32	N	0.427789	0.523850	0.500121
C33	C	-0.072564	0.053552	-0.072154
C34	C	0.427436	0.553552	0.427846
O35	O	-0.072193	0.022834	-0.133623
O36	O	0.427807	0.522834	0.366377
C37	C	-0.073277	0.112951	-0.072156
C38	C	0.426723	0.612951	0.427844
C39	C	-0.073641	0.142649	0.000115
C40	C	0.426359	0.642649	0.500115
C41	C	-0.073650	0.142649	0.144651
C42	C	0.426350	0.642649	0.644651
C43	C	-0.074368	0.202044	0.144648
C44	C	0.425632	0.702044	0.644648
C45	C	-0.074723	0.231742	0.072378
C46	C	0.425277	0.731742	0.572378
C47	C	-0.074360	0.202044	0.000112
C48	C	0.425640	0.702044	0.500112
C49	C	-0.073627	0.142652	-0.144431
C50	C	0.426373	0.642652	0.355569
C51	C	-0.074340	0.202055	-0.144427
C52	C	0.425660	0.702055	0.355573
C53	C	-0.074704	0.231753	-0.072155
C54	C	0.425296	0.731753	0.427845
C55	C	-0.075433	0.291136	-0.072161
C56	C	0.424567	0.791136	0.427839
N57	N	-0.075792	0.320838	0.000107
N58	N	0.424208	0.820838	0.500107
C59	C	-0.075437	0.291141	0.072376
C60	C	0.424563	0.791141	0.572376
C61	C	-0.071065	-0.071189	-0.072144
C62	C	0.428935	0.428811	0.427856
C63	C	-0.070356	-0.130588	-0.072143
C64	C	0.429644	0.369412	0.427857
C65	C	-0.070360	-0.130584	0.072400
C66	C	0.429640	0.369416	0.572400
C67	C	-0.071073	-0.071185	0.072397
C68	C	0.428927	0.428815	0.572397
C69	C	-0.071423	-0.041488	0.000123
C70	C	0.428577	0.458512	0.500123
C71	C	-0.076946	0.415875	0.072364
C72	C	0.423054	0.915875	0.572364
C73	C	-0.077667	0.475275	0.072354
C74	C	0.422333	0.975275	0.572354
C75	C	-0.077660	0.475266	-0.072188
C76	C	0.422340	0.975266	0.427812
C77	C	-0.076942	0.415871	-0.072179
C78	C	0.423058	0.915871	0.427821
C79	C	-0.076583	0.386177	0.000104
C80	C	0.423417	0.886177	0.500104
O81	O	-0.075820	0.321899	-0.133589
O82	O	0.424180	0.821899	0.366411
O83	O	-0.075800	0.321866	0.133834
O84	O	0.424200	0.821866	0.633834
C85	C	-0.178158	0.667594	0.000121
C86	C	0.321842	1.167594	0.500121
C87	C	-0.241375	0.668360	0.000129
C88	C	0.258625	1.168360	0.500129
C89	C	-0.640487	0.621125	0.000081
C90	C	-0.140487	1.121125	0.500081
C91	C	-0.699887	0.621837	0.000076
C92	C	-0.199887	1.121837	0.500076
O93	O	-0.736640	0.578050	0.000040
O94	O	-0.236640	1.078050	0.500040
N95	N	-0.722504	0.674114	0.000084
N96	N	-0.222504	1.174114	0.500084
C97	C	-0.685717	0.725684	0.000090
C98	C	-0.185717	1.225684	0.500090
O99	O	-0.710408	0.770216	0.000096
O100	O	-0.210408	1.270216	0.500096
C101	C	-0.626318	0.724972	0.000090
C102	C	-0.126318	1.224972	0.500090
C103	C	-0.603705	0.672691	0.000090
C104	C	-0.103705	1.172691	0.500090
C105	C	-0.617874	0.568849	0.000080
C106	C	-0.117874	1.068849	0.500080
C107	C	-0.558478	0.568137	0.000087
C108	C	-0.058478	1.068137	0.500087
C109	C	-0.521695	0.619703	0.000095
C110	C	-0.021695	1.119703	0.500095
C111	C	-0.544309	0.671980	0.000097
C112	C	-0.044309	1.171980	0.500097
C113	C	-0.589532	0.776541	0.000090
C114	C	-0.089532	1.276541	0.500090
C115	C	-0.530129	0.775824	0.000089
C116	C	-0.030129	1.275824	0.500089
C117	C	-0.507516	0.723543	0.000089
C118	C	-0.007516	1.223543	0.500089
C119	C	-0.448130	0.722834	0.000112
C120	C	0.051870	1.222834	0.500112
N121	N	-0.425514	0.670556	0.000103
N122	N	0.074486	1.170556	0.500103
C123	C	-0.462296	0.618991	0.000095
C124	C	0.037704	1.118991	0.500095
C125	C	-0.810459	0.727175	0.000089
C126	C	-0.310459	1.227175	0.500089
C127	C	-0.869857	0.727888	0.000095
C128	C	-0.369857	1.227888	0.500095
C129	C	-0.884023	0.624041	0.000079
C130	C	-0.384023	1.124041	0.500079
C131	C	-0.824624	0.623329	0.000079
C132	C	-0.324624	1.123329	0.500079
C133	C	-0.787842	0.674898	0.000081
C134	C	-0.287842	1.174898	0.500081
C135	C	-0.337560	0.617501	0.000110
C136	C	0.162440	1.117501	0.500110
C137	C	-0.278158	0.616794	0.000121
C138	C	0.221842	1.116794	0.500121
C139	C	-0.263996	0.720642	0.000132
C140	C	0.236004	1.220642	0.500132
C141	C	-0.323393	0.721349	0.000126
C142	C	0.176607	1.221349	0.500126
C143	C	-0.360174	0.669774	0.000112
C144	C	0.139826	1.169774	0.500112
O145	O	-0.411343	0.766598	0.000144
O146	O	0.088657	1.266598	0.500144
O147	O	-0.437597	0.574467	0.000079
O148	O	0.062403	1.074467	0.500079
C149	C	0.030139	0.677088	0.000096
C150	C	0.530139	1.177088	0.500096
C151	C	0.093356	0.676322	0.000083
C152	C	0.593356	1.176322	0.500083
C153	C	-0.069244	0.776491	0.000123
C154	C	0.430756	1.276491	0.500123
C155	C	-0.069998	0.839710	0.000127
C156	C	0.430002	1.339710	0.500127
N157	N	-0.074017	0.672325	0.206658
N158	N	0.425983	1.172325	0.706658
N159	N	-0.073998	0.672361	-0.206440
N160	N	0.426002	1.172361	0.293560
C161	C	-0.035068	0.711304	0.751824
C162	C	0.464932	1.211304	1.251824
C163	C	-0.035072	0.711301	0.668372
C164	C	0.464928	1.211301	1.168372
C165	C	-0.074004	0.672353	0.626658
C166	C	0.425996	1.172353	1.126658
C167	C	-0.112938	0.633408	0.668400
C168	C	0.387062	1.133408	1.168400
C169	C	-0.112937	0.633414	0.751851
C170	C	0.387063	1.133414	1.251851
C171	C	-0.112947	0.633384	0.331853
C172	C	0.387053	1.133384	0.831853
C173	C	-0.112945	0.633380	0.248396
C174	C	0.387055	1.133380	0.748396
C175	C	-0.035083	0.711271	0.248374
C176	C	0.464917	1.211271	0.748374
C177	C	-0.035081	0.711277	0.331825
C178	C	0.464919	1.211277	0.831825
C179	C	-0.074017	0.672335	0.373560
C180	C	0.425983	1.172335	0.873560
C181	C	-0.074013	0.672339	0.464048
C182	C	0.425987	1.172339	0.964048
C183	C	-0.074006	0.672345	0.536171
C184	C	0.425994	1.172345	1.036171
H185	H	-0.071356	-0.047014	-0.131002
H186	H	0.428644	0.452986	0.368998
C187	C	-0.155770	0.590547	0.377755
C188	C	0.344230	1.090547	0.877755
H189	H	-0.150200	0.596130	0.433429
H190	H	0.349800	1.096130	0.933429
H191	H	-0.149784	0.552573	0.364082
H192	H	0.350216	1.052573	0.864082
H193	H	-0.193749	0.596517	0.364081
H194	H	0.306251	1.096517	0.864081
H195	H	-0.607932	0.819114	0.000090
H196	H	-0.107932	1.319114	0.500090
C197	C	-0.078046	0.507941	-0.151678
C198	C	0.421954	1.007941	0.348322
H199	H	-0.078518	0.547570	-0.141323
H200	H	0.421482	1.047570	0.358677
H201	H	-0.111139	0.493677	-0.181380
H202	H	0.388861	0.993677	0.318620
H203	H	-0.044704	0.502743	-0.181367
H204	H	0.455296	1.002743	0.318633
H205	H	-0.259750	0.574219	0.000124
H206	H	0.240250	1.074219	0.500124
H207	H	-0.341805	0.763920	0.000138
H208	H	0.158195	1.263920	0.500138
H209	H	-0.070070	-0.154774	0.131245
H210	H	0.429930	0.345226	0.631245
H211	H	-0.073330	0.118483	-0.203282
H212	H	0.426670	0.618483	0.296718
C213	C	0.007744	0.754118	0.377710
C214	C	0.507744	1.254118	0.877710
H215	H	0.002172	0.748540	0.433388
H216	H	0.502172	1.248540	0.933388
H217	H	0.001760	0.792090	0.364030
H218	H	0.501760	1.292090	0.864030
H219	H	0.045723	0.748145	0.364028
H220	H	0.545723	1.248145	0.864028
C221	C	-0.074730	0.234718	-0.223931
C222	C	0.425270	0.734718	0.276069
H223	H	-0.074415	0.208520	-0.266967
H224	H	0.425585	0.708520	0.233033
H225	H	-0.041795	0.262426	-0.226943
H226	H	0.458205	0.762426	0.273057
H227	H	-0.108231	0.253350	-0.226934
H228	H	0.391769	0.753350	0.273066
C229	C	-0.076560	0.383199	-0.151675
C230	C	0.423440	0.883199	0.348325
H231	H	-0.076877	0.409395	-0.194716
H232	H	0.423123	0.909395	0.305284
H233	H	-0.109497	0.355493	-0.154665
H234	H	0.390503	0.855493	0.345335
H235	H	-0.043062	0.364564	-0.154694
H236	H	0.456938	0.864564	0.345306
H237	H	-0.367500	0.575504	0.000099
H238	H	0.132500	1.075504	0.500099
H239	H	-0.806217	0.580757	0.000082
H240	H	-0.306217	1.080757	0.500082
H241	H	-0.540072	0.525565	0.000080
H242	H	-0.040072	1.025565	0.500080
C243	C	-0.073264	0.109990	0.224154
C244	C	0.426736	0.609990	0.724154
H245	H	-0.073587	0.136192	0.267186
H246	H	0.426413	0.636192	0.767186
H247	H	-0.039773	0.091349	0.227171
H248	H	0.460227	0.591349	0.727171
H249	H	-0.106209	0.082289	0.227163
H250	H	0.393791	0.582289	0.727163
C251	C	-0.071459	-0.038521	0.151895
C252	C	0.428541	0.461479	0.651895
H253	H	-0.071140	-0.064719	0.194933
H254	H	0.428860	0.435281	0.694933
H255	H	-0.104949	-0.019876	0.154915
H256	H	0.395051	0.480124	0.654915
H257	H	-0.038513	-0.010821	0.154890
H258	H	0.461487	0.489179	0.654890
C259	C	-0.155761	0.590564	0.622517
C260	C	0.344239	1.090564	1.122517
H261	H	-0.150183	0.596133	0.566838
H262	H	0.349817	1.096133	1.066838
H263	H	-0.193740	0.596530	0.636196
H264	H	0.306260	1.096530	1.136196
H265	H	-0.149770	0.552591	0.636201
H266	H	0.350230	1.052591	1.136201
C267	C	0.007738	0.754116	0.202463
C268	C	0.507738	1.254116	0.702463
H269	H	0.002158	0.748542	0.146789
H270	H	0.502158	1.248542	0.646789
H271	H	0.045718	0.748152	0.216130
H272	H	0.545718	1.248152	0.716130
H273	H	0.001746	0.792090	0.216141
H274	H	0.501746	1.292090	0.716141
H275	H	-0.077965	0.499452	0.131209
H276	H	0.422035	0.999452	0.631209
H277	H	-0.144638	0.601704	0.785832
H278	H	0.355362	1.101704	1.285832
C279	C	-0.658326	0.512121	0.000077
C280	C	-0.158326	1.012121	0.500077
H281	H	-0.636342	0.480890	0.000083
H282	H	-0.136342	0.980890	0.500083
H283	H	-0.681792	0.510235	-0.046152
H284	H	-0.181792	1.010235	0.453848
H285	H	-0.681793	0.510236	0.046319
H286	H	-0.181793	1.010236	0.546319
C287	C	-0.924492	0.567319	0.000057
C288	C	-0.424492	1.067319	0.500057
H289	H	-0.963105	0.575235	0.000047
H290	H	-0.463105	1.075235	0.500047
H291	H	-0.917680	0.545857	0.046283
H292	H	-0.417680	1.045857	0.546283
H293	H	-0.917662	0.545878	-0.046188
H294	H	-0.417662	1.045878	0.453812
C295	C	-0.894724	0.785397	0.000103
C296	C	-0.394724	1.285397	0.500103
H297	H	-0.864306	0.816003	0.000104
H298	H	-0.364306	1.316003	0.500104
H299	H	-0.917609	0.787833	0.046332
H300	H	-0.417609	1.287833	0.546332
H301	H	-0.917592	0.787839	-0.046138
H302	H	-0.417592	1.287839	0.453862
H303	H	-0.234038	0.762625	0.000143
H304	H	0.265962	1.262625	0.500143
H305	H	-0.144650	0.601662	0.214434
H306	H	0.355350	1.101662	0.714434
C307	C	0.007757	0.754146	0.797706
C308	C	0.507757	1.254146	1.297706
H309	H	0.002188	0.748569	0.853385
H310	H	0.502188	1.248569	1.353385
H311	H	0.001773	0.792118	0.784025
H312	H	0.501773	1.292118	1.284025
H313	H	0.045736	0.748172	0.784022
H314	H	0.545736	1.248172	1.284022
H315	H	-0.074661	0.226219	0.203499
H316	H	0.425339	0.726219	0.703499
C317	C	-0.076557	0.383219	0.151872
C318	C	0.423443	0.883219	0.651872
H319	H	-0.076882	0.409419	0.194905
H320	H	0.423118	0.909419	0.694905
H321	H	-0.043063	0.364581	0.154886
H322	H	0.456937	0.864581	0.654886
H323	H	-0.109499	0.355514	0.154881
H324	H	0.390501	0.855514	0.654881
C325	C	-0.770003	0.783905	0.000106
C326	C	-0.270003	1.283905	0.500106
H327	H	-0.791984	0.815138	0.000119
H328	H	-0.291984	1.315138	0.500119
H329	H	-0.746530	0.785798	-0.046123
H330	H	-0.246530	1.285798	0.453877
H331	H	-0.746545	0.785782	0.046347
H332	H	-0.246545	1.285782	0.546347
H333	H	-0.500183	0.817819	0.000086
H334	H	-0.000183	1.317819	0.500086
H335	H	-0.003373	0.743011	0.634390
H336	H	0.496627	1.243011	1.134390
H337	H	-0.070068	-0.154764	-0.130994
H338	H	0.429932	0.345236	0.369006
