data_functionalizedCrystal
_audit_creation_method	'MofGen! by Chris Wilmer'
_symmetry_space_group_name_H-M	'P1'
_symmetry_Int_Tables_number	1
_symmetry_cell_setting	triclinic
loop_
_symmetry_equiv_pos_as_xyz
  x,y,z
_cell_length_a	23.532407
_cell_length_b	23.532407
_cell_length_c	9.730223
_cell_angle_alpha	89.987127
_cell_angle_beta	89.999391
_cell_angle_gamma	82.848747
loop_
_atom_site_label
_atom_site_type_symbol
_atom_site_fract_x
_atom_site_fract_y
_atom_site_fract_z
O1	O	0.755259	0.069135	-0.114228
O2	O	1.005259	0.319135	0.135772
O3	O	1.255259	0.569135	0.385772
O4	O	1.505259	0.819135	0.635772
O5	O	0.589395	0.079138	-0.114253
O6	O	0.839395	0.329138	0.135747
O7	O	1.089395	0.579138	0.385747
O8	O	1.339395	0.829138	0.635747
O9	O	0.677328	-0.008795	-0.114202
O10	O	0.927328	0.241205	0.135798
O11	O	1.177328	0.491205	0.385798
O12	O	1.427328	0.741205	0.635798
O13	O	0.667325	0.157068	-0.114280
O14	O	0.917325	0.407068	0.135720
O15	O	1.167325	0.657068	0.385720
O16	O	1.417325	0.907068	0.635720
O17	O	0.677323	-0.008797	0.114378
O18	O	0.927323	0.241203	0.364378
O19	O	1.177323	0.491203	0.614378
O20	O	1.427323	0.741203	0.864378
O21	O	0.589390	0.079136	0.114326
O22	O	0.839390	0.329136	0.364326
O23	O	1.089390	0.579136	0.614326
O24	O	1.339390	0.829136	0.864326
O25	O	0.755253	0.069133	0.114352
O26	O	1.005253	0.319133	0.364352
O27	O	1.255253	0.569133	0.614352
O28	O	1.505253	0.819133	0.864352
Zn29	Zn	0.672320	0.074134	0.150631
Zn30	Zn	0.922320	0.324134	0.400631
Zn31	Zn	1.172320	0.574134	0.650631
Zn32	Zn	1.422320	0.824134	0.900631
Zn33	Zn	0.672328	0.074137	-0.150533
Zn34	Zn	0.922328	0.324137	0.099467
Zn35	Zn	1.172328	0.574137	0.349467
Zn36	Zn	1.422328	0.824137	0.599467
O37	O	0.667320	0.157066	0.114300
O38	O	0.917320	0.407066	0.364300
O39	O	1.167320	0.657066	0.614300
O40	O	1.417320	0.907066	0.864300
C41	C	0.568176	0.078882	0.000034
C42	C	0.818176	0.328882	0.250034
C43	C	1.068176	0.578882	0.500034
C44	C	1.318176	0.828882	0.750034
C45	C	0.504959	0.078116	0.000026
C46	C	0.754959	0.328116	0.250026
C47	C	1.004959	0.578116	0.500026
C48	C	1.254959	0.828116	0.750026
C49	C	0.238792	0.022921	0.000090
C50	C	0.488792	0.272921	0.250090
C51	C	0.738792	0.522921	0.500090
C52	C	0.988792	0.772921	0.750090
C53	C	0.298192	0.023632	0.000089
C54	C	0.548192	0.273632	0.250089
C55	C	0.798192	0.523632	0.500089
C56	C	1.048192	0.773632	0.750089
O57	O	0.334937	-0.020153	0.000157
O58	O	0.584937	0.229847	0.250157
O59	O	0.834937	0.479847	0.500157
O60	O	1.084937	0.729847	0.750157
N61	N	0.320818	0.075909	0.000055
N62	N	0.570818	0.325909	0.250055
N63	N	0.820818	0.575909	0.500055
N64	N	1.070818	0.825909	0.750055
C65	C	0.284041	0.127477	0.000035
C66	C	0.534041	0.377477	0.250035
C67	C	0.784041	0.627477	0.500035
C68	C	1.034041	0.877477	0.750035
O69	O	0.308740	0.172007	0.000008
O70	O	0.558740	0.422007	0.250008
O71	O	0.808740	0.672007	0.500008
O72	O	1.058740	0.922007	0.750008
C73	C	0.224642	0.126765	0.000046
C74	C	0.474642	0.376765	0.250046
C75	C	0.724642	0.626765	0.500046
C76	C	0.974642	0.876765	0.750046
C77	C	0.202019	0.074485	0.000066
C78	C	0.452019	0.324485	0.250066
C79	C	0.702019	0.574485	0.500066
C80	C	0.952019	0.824485	0.750066
C81	C	0.216168	-0.029354	0.000111
C82	C	0.466168	0.220646	0.250111
C83	C	0.716168	0.470646	0.500111
C84	C	0.966168	0.720646	0.750111
C85	C	0.156772	-0.030066	0.000109
C86	C	0.406772	0.219934	0.250109
C87	C	0.656772	0.469934	0.500109
C88	C	0.906772	0.719934	0.750109
C89	C	0.119999	0.021499	0.000086
C90	C	0.369999	0.271499	0.250086
C91	C	0.619999	0.521499	0.500086
C92	C	0.869999	0.771499	0.750086
C93	C	0.142623	0.073774	0.000064
C94	C	0.392623	0.323774	0.250064
C95	C	0.642623	0.573774	0.500064
C96	C	0.892623	0.823774	0.750064
C97	C	0.187865	0.178333	0.000036
C98	C	0.437865	0.428333	0.250036
C99	C	0.687865	0.678333	0.500036
C100	C	0.937865	0.928333	0.750036
C101	C	0.128463	0.177616	0.000048
C102	C	0.378463	0.427616	0.250048
C103	C	0.628463	0.677616	0.500048
C104	C	0.878463	0.927616	0.750048
C105	C	0.105840	0.125336	0.000068
C106	C	0.355840	0.375336	0.250068
C107	C	0.605840	0.625336	0.500068
C108	C	0.855840	0.875336	0.750068
C109	C	0.046454	0.124627	0.000039
C110	C	0.296454	0.374627	0.250039
C111	C	0.546454	0.624627	0.500039
C112	C	0.796454	0.874627	0.750039
N113	N	0.023828	0.072351	0.000073
N114	N	0.273828	0.322351	0.250073
N115	N	0.523828	0.572351	0.500073
N116	N	0.773828	0.822351	0.750073
C117	C	0.060600	0.020787	0.000096
C118	C	0.310600	0.270787	0.250096
C119	C	0.560600	0.520787	0.500096
C120	C	0.810600	0.770787	0.750096
C121	C	0.408783	0.128968	0.000016
C122	C	0.658783	0.378968	0.250016
C123	C	0.908783	0.628968	0.500016
C124	C	1.158783	0.878968	0.750016
C125	C	0.468181	0.129681	-0.000005
C126	C	0.718181	0.379681	0.249995
C127	C	0.968181	0.629681	0.499995
C128	C	1.218181	0.879681	0.749995
C129	C	0.482328	0.025836	0.000051
C130	C	0.732328	0.275836	0.250051
C131	C	0.982328	0.525836	0.500051
C132	C	1.232328	0.775836	0.750051
C133	C	0.422929	0.025124	0.000062
C134	C	0.672929	0.275124	0.250062
C135	C	0.922929	0.525124	0.500062
C136	C	1.172929	0.775124	0.750062
C137	C	0.386157	0.076692	0.000050
C138	C	0.636157	0.326692	0.250050
C139	C	0.886157	0.576692	0.500050
C140	C	1.136157	0.826692	0.750050
C141	C	-0.064136	0.019297	0.000091
C142	C	0.185864	0.269297	0.250091
C143	C	0.435864	0.519297	0.500091
C144	C	0.685864	0.769297	0.750091
C145	C	-0.123538	0.018590	0.000084
C146	C	0.126462	0.268590	0.250084
C147	C	0.376462	0.518590	0.500084
C148	C	0.626462	0.768590	0.750084
C149	C	-0.137680	0.122435	0.000035
C150	C	0.112320	0.372435	0.250035
C151	C	0.362320	0.622435	0.500035
C152	C	0.612320	0.872435	0.750035
C153	C	-0.078284	0.123142	0.000035
C154	C	0.171716	0.373142	0.250035
C155	C	0.421716	0.623142	0.500035
C156	C	0.671716	0.873142	0.750035
C157	C	-0.041512	0.071568	0.000068
C158	C	0.208488	0.321568	0.250068
C159	C	0.458488	0.571568	0.500068
C160	C	0.708488	0.821568	0.750068
O161	O	0.009675	0.168390	-0.000024
O162	O	0.259675	0.418390	0.249976
O163	O	0.509675	0.668390	0.499976
O164	O	0.759675	0.918390	0.749976
O165	O	0.035892	-0.023737	0.000142
O166	O	0.285892	0.226263	0.250142
O167	O	0.535892	0.476263	0.500142
O168	O	0.785892	0.726263	0.750142
C169	C	0.677071	-0.030012	0.000095
C170	C	0.927071	0.219988	0.250095
C171	C	1.177071	0.469988	0.500095
C172	C	1.427071	0.719988	0.750095
C173	C	0.676305	-0.093229	0.000116
C174	C	0.926305	0.156771	0.250116
C175	C	1.176305	0.406771	0.500116
C176	C	1.426305	0.656771	0.750116
C177	C	0.621110	-0.359397	0.000022
C178	C	0.871110	-0.109397	0.250022
C179	C	1.121110	0.140603	0.500022
C180	C	1.371110	0.390603	0.750022
C181	C	0.621821	-0.299997	0.000033
C182	C	0.871821	-0.049997	0.250033
C183	C	1.121821	0.200003	0.500033
C184	C	1.371821	0.450003	0.750033
O185	O	0.578035	-0.263252	-0.000018
O186	O	0.828035	-0.013252	0.249982
O187	O	1.078035	0.236748	0.499982
O188	O	1.328035	0.486748	0.749982
N189	N	0.674097	-0.277370	0.000056
N190	N	0.924097	-0.027370	0.250056
N191	N	1.174097	0.222630	0.500056
N192	N	1.424097	0.472630	0.750056
C193	C	0.725666	-0.314148	0.000056
C194	C	0.975666	-0.064148	0.250056
C195	C	1.225666	0.185852	0.500056
C196	C	1.475666	0.435852	0.750056
O197	O	0.770196	-0.289448	0.000075
O198	O	1.020196	-0.039448	0.250075
O199	O	1.270196	0.210552	0.500075
O200	O	1.520196	0.460552	0.750075
C201	C	0.724953	-0.373547	0.000035
C202	C	0.974953	-0.123547	0.250035
C203	C	1.224953	0.126453	0.500035
C204	C	1.474953	0.376453	0.750035
C205	C	0.672674	-0.396170	0.000025
C206	C	0.922674	-0.146170	0.250025
C207	C	1.172674	0.103830	0.500025
C208	C	1.422674	0.353830	0.750025
C209	C	0.568834	-0.382020	0.000011
C210	C	0.818834	-0.132020	0.250011
C211	C	1.068834	0.117980	0.500011
C212	C	1.318834	0.367980	0.750011
C213	C	0.568123	-0.441416	0.000002
C214	C	0.818123	-0.191416	0.250002
C215	C	1.068123	0.058584	0.500002
C216	C	1.318123	0.308584	0.750002
C217	C	0.619687	-0.478189	0.000006
C218	C	0.869687	-0.228189	0.250006
C219	C	1.119687	0.021811	0.500006
C220	C	1.369687	0.271811	0.750006
C221	C	0.671963	-0.455566	0.000017
C222	C	0.921963	-0.205566	0.250017
C223	C	1.171963	0.044434	0.500017
C224	C	1.421963	0.294434	0.750017
C225	C	0.776521	-0.410323	0.000024
C226	C	1.026521	-0.160323	0.250024
C227	C	1.276521	0.089677	0.500024
C228	C	1.526521	0.339677	0.750024
C229	C	0.775805	-0.469726	0.000003
C230	C	1.025805	-0.219726	0.250003
C231	C	1.275805	0.030274	0.500003
C232	C	1.525805	0.280274	0.750003
C233	C	0.723525	-0.492348	-0.000007
C234	C	0.973525	-0.242348	0.249993
C235	C	1.223525	0.007652	0.499993
C236	C	1.473525	0.257652	0.749993
C237	C	0.722816	-0.551735	0.000012
C238	C	0.972816	-0.301735	0.250012
C239	C	1.222816	-0.051735	0.500012
C240	C	1.472816	0.198265	0.750012
N241	N	0.670539	-0.574361	-0.000012
N242	N	0.920539	-0.324361	0.249988
N243	N	1.170539	-0.074361	0.499988
N244	N	1.420539	0.175639	0.749988
C245	C	0.618975	-0.537588	-0.000015
C246	C	0.868975	-0.287588	0.249985
C247	C	1.118975	-0.037588	0.499985
C248	C	1.368975	0.212412	0.749985
C249	C	0.727157	-0.189405	0.000096
C250	C	0.977157	0.060595	0.250096
C251	C	1.227157	0.310595	0.500096
C252	C	1.477157	0.560595	0.750096
C253	C	0.727870	-0.130007	0.000127
C254	C	0.977870	0.119993	0.250127
C255	C	1.227870	0.369993	0.500127
C256	C	1.477870	0.619993	0.750127
C257	C	0.624025	-0.115860	0.000101
C258	C	0.874025	0.134140	0.250101
C259	C	1.124025	0.384140	0.500101
C260	C	1.374025	0.634140	0.750101
C261	C	0.623313	-0.175259	0.000081
C262	C	0.873313	0.074741	0.250081
C263	C	1.123313	0.324741	0.500081
C264	C	1.373313	0.574741	0.750081
C265	C	0.674881	-0.212031	0.000072
C266	C	0.924881	0.037969	0.250072
C267	C	1.174881	0.287969	0.500072
C268	C	1.424881	0.537969	0.750072
C269	C	0.617485	-0.662325	-0.000031
C270	C	0.867485	-0.412325	0.249969
C271	C	1.117485	-0.162325	0.499969
C272	C	1.367485	0.087675	0.749969
C273	C	0.616779	-0.721727	-0.000033
C274	C	0.866779	-0.471727	0.249967
C275	C	1.116779	-0.221727	0.499967
C276	C	1.366779	0.028273	0.749967
C277	C	0.720623	-0.735869	-0.000015
C278	C	0.970623	-0.485869	0.249985
C279	C	1.220623	-0.235869	0.499985
C280	C	1.470623	0.014131	0.749985
C281	C	0.721330	-0.676472	-0.000005
C282	C	0.971330	-0.426472	0.249995
C283	C	1.221330	-0.176472	0.499995
C284	C	1.471330	0.073528	0.749995
C285	C	0.669757	-0.639701	-0.000018
C286	C	0.919757	-0.389701	0.249982
C287	C	1.169757	-0.139701	0.499982
C288	C	1.419757	0.110299	0.749982
O289	O	0.766579	-0.588514	0.000057
O290	O	1.016579	-0.338514	0.250057
O291	O	1.266579	-0.088514	0.500057
O292	O	1.516579	0.161486	0.750057
O293	O	0.574452	-0.562296	-0.000053
O294	O	0.824452	-0.312296	0.249947
O295	O	1.074452	-0.062296	0.499947
O296	O	1.324452	0.187704	0.749947
C297	C	0.776472	0.069389	0.000061
C298	C	1.026472	0.319389	0.250061
C299	C	1.276472	0.569389	0.500061
C300	C	1.526472	0.819389	0.750061
C301	C	0.839689	0.070155	0.000060
C302	C	1.089689	0.320155	0.250060
C303	C	1.339689	0.570155	0.500060
C304	C	1.589689	0.820155	0.750060
C305	C	0.667577	0.178283	-0.000000
C306	C	0.917577	0.428283	0.250000
C307	C	1.167577	0.678283	0.500000
C308	C	1.417577	0.928283	0.750000
C309	C	0.668343	0.241500	-0.000030
C310	C	0.918343	0.491500	0.249970
C311	C	1.168343	0.741500	0.499970
C312	C	1.418343	0.991500	0.749970
N313	N	0.672319	0.074131	0.356167
N314	N	0.922319	0.324131	0.606167
N315	N	1.172319	0.574131	0.856167
N316	N	1.422319	0.824131	1.106167
N317	N	0.672333	0.074135	-0.356069
N318	N	0.922333	0.324135	-0.106069
N319	N	1.172333	0.574135	0.143931
N320	N	1.422333	0.824135	0.393931
C321	C	0.711269	0.035211	0.428116
C322	C	0.961269	0.285211	0.678116
C323	C	1.211269	0.535211	0.928116
C324	C	1.461269	0.785211	1.178116
C325	C	0.711275	0.035211	0.571999
C326	C	0.961275	0.285211	0.821999
C327	C	1.211275	0.535211	1.071999
C328	C	1.461275	0.785211	1.321999
C329	C	0.633379	0.113057	0.571972
C330	C	0.883379	0.363057	0.821972
C331	C	1.133379	0.613057	1.071972
C332	C	1.383379	0.863057	1.321972
C333	C	0.633371	0.113054	0.428091
C334	C	0.883371	0.363054	0.678091
C335	C	1.133371	0.613054	0.928091
C336	C	1.383371	0.863054	1.178091
H337	H	0.138359	-0.072637	0.000132
H338	H	0.388359	0.177363	0.250132
H339	H	0.638359	0.427363	0.500132
H340	H	0.888359	0.677363	0.750132
Cl341	Cl	0.584399	0.161984	0.337632
Cl342	Cl	0.834399	0.411984	0.587632
Cl343	Cl	1.084399	0.661984	0.837632
Cl344	Cl	1.334399	0.911984	1.087632
H345	H	0.246104	-0.071347	0.000135
H346	H	0.496104	0.178653	0.250135
H347	H	0.746104	0.428653	0.500135
H348	H	0.996104	0.678653	0.750135
Cl349	Cl	0.504001	-0.335801	0.000004
Cl350	Cl	0.754001	-0.085801	0.250004
Cl351	Cl	1.004001	0.164199	0.500004
Cl352	Cl	1.254001	0.414199	0.750004
H353	H	0.575489	-0.632392	-0.000041
H354	H	0.825489	-0.382392	0.249959
H355	H	1.075489	-0.132392	0.499959
H356	H	1.325489	0.117608	0.749959
Cl357	Cl	0.551051	-0.750163	-0.000043
Cl358	Cl	0.801051	-0.500163	0.249957
Cl359	Cl	1.051051	-0.250163	0.499957
Cl360	Cl	1.301051	-0.000163	0.749957
H361	H	-0.141954	-0.023984	0.000097
H362	H	0.108046	0.226016	0.250097
H363	H	0.358046	0.476016	0.500097
H364	H	0.608046	0.726016	0.750097
Cl365	Cl	0.760231	-0.013723	0.337704
Cl366	Cl	1.010231	0.236277	0.587704
Cl367	Cl	1.260231	0.486277	0.837704
Cl368	Cl	1.510231	0.736277	1.087704
H369	H	0.512280	-0.016150	0.000071
H370	H	0.762280	0.233850	0.250071
H371	H	1.012280	0.483850	0.500071
H372	H	1.262280	0.733850	0.750071
H373	H	0.742991	0.003518	0.630576
H374	H	0.992991	0.253518	0.880576
H375	H	1.242991	0.503518	1.130576
H376	H	1.492991	0.753518	1.380576
H377	H	0.582038	-0.085909	0.000099
H378	H	0.832038	0.164091	0.250099
H379	H	1.082038	0.414091	0.500099
H380	H	1.332038	0.664091	0.750099
H381	H	0.770441	-0.111594	0.000156
H382	H	1.020441	0.138406	0.250156
H383	H	1.270441	0.388406	0.500156
H384	H	1.520441	0.638406	0.750156
H385	H	0.601669	0.144748	0.630547
H386	H	0.851669	0.394748	0.880547
H387	H	1.101669	0.644748	1.130547
H388	H	1.351669	0.894748	1.380547
H389	H	-0.034204	-0.022699	0.000118
H390	H	0.215796	0.227301	0.250118
H391	H	0.465796	0.477301	0.500118
H392	H	0.715796	0.727301	0.750118
Cl393	Cl	0.791992	-0.235628	0.000103
Cl394	Cl	1.041992	0.014372	0.250103
Cl395	Cl	1.291992	0.264372	0.500103
Cl396	Cl	1.541992	0.514372	0.750103
Cl397	Cl	0.496613	0.195407	-0.000059
Cl398	Cl	0.746613	0.445407	0.249941
Cl399	Cl	0.996613	0.695407	0.499941
Cl400	Cl	1.246613	0.945407	0.749941
Cl401	Cl	0.394496	-0.040601	0.000094
Cl402	Cl	0.644496	0.209399	0.250094
Cl403	Cl	0.894496	0.459399	0.500094
Cl404	Cl	1.144496	0.709399	0.750094
H405	H	0.378846	0.170964	-0.000004
H406	H	0.628846	0.420964	0.249996
H407	H	0.878846	0.670964	0.499996
H408	H	1.128846	0.920964	0.749996
H409	H	0.206274	0.220904	0.000014
H410	H	0.456274	0.470904	0.250014
H411	H	0.706274	0.720904	0.500014
H412	H	0.956274	0.970904	0.750014
H413	H	0.098525	0.219610	0.000044
H414	H	0.348525	0.469610	0.250044
H415	H	0.598525	0.719610	0.500044
H416	H	0.848525	0.969610	0.750044
Cl417	Cl	-0.049843	0.188865	-0.000008
Cl418	Cl	0.200157	0.438865	0.249992
Cl419	Cl	0.450157	0.688865	0.499992
Cl420	Cl	0.700157	0.938865	0.749992
Cl421	Cl	0.840637	-0.515951	-0.000012
Cl422	Cl	1.090637	-0.265951	0.249988
Cl423	Cl	1.340637	-0.015951	0.499988
Cl424	Cl	1.590637	0.234049	0.749988
H425	H	0.819093	-0.391915	0.000031
H426	H	1.069093	-0.141915	0.250031
H427	H	1.319093	0.108085	0.500031
H428	H	1.569093	0.358085	0.750031
Cl429	Cl	0.787054	-0.648031	0.000057
Cl430	Cl	1.037054	-0.398031	0.250057
Cl431	Cl	1.287054	-0.148031	0.500057
Cl432	Cl	1.537054	0.101969	0.750057
H433	H	-0.167631	0.164417	0.000009
H434	H	0.082369	0.414417	0.250009
H435	H	0.332369	0.664417	0.500009
H436	H	0.582369	0.914417	0.750009
H437	H	0.525551	-0.459830	-0.000017
H438	H	0.775551	-0.209830	0.249983
H439	H	1.025551	0.040170	0.499983
H440	H	1.275551	0.290170	0.749983
H441	H	0.580742	-0.193674	0.000078
H442	H	0.830742	0.056326	0.250078
H443	H	1.080742	0.306326	0.500078
H444	H	1.330742	0.556326	0.750078
Cl445	Cl	0.785443	-0.782108	-0.000002
Cl446	Cl	1.035443	-0.532108	0.249998
Cl447	Cl	1.285443	-0.282108	0.499998
Cl448	Cl	1.535443	-0.032108	0.749998
