data_functionalizedCrystal
_audit_creation_method	'MofGen! by Chris Wilmer'
_symmetry_space_group_name_H-M	'P1'
_symmetry_Int_Tables_number	1
_symmetry_cell_setting	triclinic
loop_
_symmetry_equiv_pos_as_xyz
  x,y,z
_cell_length_a	16.120484
_cell_length_b	13.897449
_cell_length_c	13.897441
_cell_angle_alpha	89.979267
_cell_angle_beta	87.134365
_cell_angle_gamma	87.073220
loop_
_atom_site_label
_atom_site_type_symbol
_atom_site_fract_x
_atom_site_fract_y
_atom_site_fract_z
Zn1	Zn	-0.331852	-1.455182	0.564824
Zn2	Zn	-0.471283	-1.446874	0.411694
Zn3	Zn	-0.331892	-1.293869	0.403544
Zn4	Zn	-0.471229	-1.285654	0.572943
O5	O	-0.401564	-1.370395	0.488251
O6	O	-0.350354	-1.589061	0.544523
O7	O	-0.452832	-1.426539	0.275633
O8	O	-0.215221	-1.322182	0.418130
O9	O	-0.452794	-1.582958	0.432019
O10	O	-0.215191	-1.440698	0.536621
O11	O	-0.350422	-1.314126	0.269646
O12	O	-0.350369	-1.157798	0.426003
O13	O	-0.452700	-1.308182	0.706846
O14	O	-0.452739	-1.151763	0.550460
O15	O	-0.350301	-1.432733	0.700880
O16	O	-0.587942	-1.418574	0.439893
O17	O	-0.587901	-1.300126	0.558362
C18	C	-0.618172	-1.357583	0.500914
C19	C	-0.710837	-1.352190	0.506363
C20	C	-0.401553	-1.119781	0.488229
C21	C	-0.401568	-1.012566	0.488243
C22	C	-0.401490	-1.370468	0.739840
C23	C	-0.401459	-1.370499	0.847052
C24	C	-0.880499	-1.342350	0.516332
C25	C	-0.921788	-1.398613	0.460186
C26	C	-1.016194	-1.393137	0.465733
C27	C	-0.786085	-1.347824	0.510787
C28	C	-0.184110	-1.383283	0.475560
C29	C	-0.091444	-1.388775	0.470152
C30	C	-0.401576	-1.621987	0.488275
C31	C	-0.401581	-1.729201	0.488285
C32	C	-0.401571	-0.816271	0.488268
C33	C	-0.401567	-0.925504	0.488251
C34	C	-0.401577	-1.370382	0.237638
C35	C	-0.401374	-1.370551	0.130412
C36	C	-0.401402	-1.370528	1.043344
C37	C	-0.401436	-1.370509	0.934114
H38	H	-0.916048	-1.290074	0.568561
H39	H	-0.886236	-1.450891	0.407952
