data_functionalizedCrystal
_audit_creation_method	'MofGen! by Chris Wilmer'
_symmetry_space_group_name_H-M	'P1'
_symmetry_Int_Tables_number	1
_symmetry_cell_setting	triclinic
loop_
_symmetry_equiv_pos_as_xyz
  x,y,z
_cell_length_a	10.654553
_cell_length_b	14.044190
_cell_length_c	9.730223
_cell_angle_alpha	89.993542
_cell_angle_beta	89.999314
_cell_angle_gamma	88.838977
loop_
_atom_site_label
_atom_site_type_symbol
_atom_site_fract_x
_atom_site_fract_y
_atom_site_fract_z
O1	O	1.681226	0.133242	-0.114323
O2	O	1.317023	0.145932	-0.114324
O3	O	1.493653	0.001566	-0.114296
O4	O	1.504596	0.277608	-0.114350
O5	O	1.493651	0.001570	0.114284
O6	O	1.317021	0.145936	0.114256
O7	O	1.681224	0.133245	0.114257
Zn8	Zn	1.499122	0.139591	0.150549
Zn9	Zn	1.499125	0.139586	-0.150615
O10	O	1.504594	0.277612	0.114230
C11	C	1.270131	0.145002	-0.000034
C12	C	1.130407	0.142212	-0.000033
C13	C	0.933470	0.138276	0.124557
C14	C	1.064755	0.140903	0.124565
C15	C	1.064767	0.140904	-0.124646
C16	C	0.933485	0.138284	-0.124652
C17	C	0.933464	0.138271	0.268437
C18	C	1.064749	0.140898	0.268445
C19	C	1.488865	-0.033778	-0.000002
C20	C	1.474586	-0.139098	0.000010
C21	C	1.549751	-0.388890	-0.000044
C22	C	1.448501	-0.331927	-0.000035
C23	C	1.463018	-0.224627	-0.000010
C24	C	1.535236	-0.496200	-0.000069
C25	C	1.728116	0.134176	-0.000036
C26	C	1.867840	0.136966	-0.000046
C27	C	1.509382	0.312956	-0.000067
C28	C	1.523661	0.418276	-0.000088
N29	N	1.499130	0.139594	0.356085
N30	N	1.499126	0.139576	-0.356152
C31	C	1.577366	0.075691	0.428023
C32	C	1.577361	0.075679	0.571906
C33	C	1.420882	0.203483	0.571900
C34	C	1.420881	0.203489	0.428020
C35	C	1.667712	0.001907	0.428028
C36	C	1.667707	0.001895	0.571911
H37	H	1.101268	0.210084	0.313078
Br38	Br	1.712393	-0.335861	-0.000025
Br39	Br	1.831285	0.028973	0.637006
Br40	Br	0.867291	0.247525	0.360491
H41	H	0.896936	0.069089	0.313090
H42	H	1.630268	-0.067004	0.616540
H43	H	0.880053	0.137229	-0.226116
H44	H	1.350915	-0.363745	-0.000043
Br45	Br	1.314679	0.290200	0.330386
H46	H	1.104443	0.075342	0.323694
H47	H	1.761218	0.025011	0.383397
Br48	Br	1.153865	0.142695	-0.293745
Br49	Br	1.314688	0.290191	0.669533
Br50	Br	1.619761	-0.119611	0.362945
