data_functionalizedCrystal
_audit_creation_method	'MofGen! by Chris Wilmer'
_symmetry_space_group_name_H-M	'P1'
_symmetry_Int_Tables_number	1
_symmetry_cell_setting	triclinic
loop_
_symmetry_equiv_pos_as_xyz
  x,y,z
_cell_length_a	10.654545
_cell_length_b	16.974813
_cell_length_c	9.130313
_cell_angle_alpha	86.340922
_cell_angle_beta	89.996934
_cell_angle_gamma	83.938073
loop_
_atom_site_label
_atom_site_type_symbol
_atom_site_fract_x
_atom_site_fract_y
_atom_site_fract_z
O1	O	1.666115	0.111039	-0.134943
O2	O	1.300471	0.121623	-0.136204
O3	O	1.493486	0.001283	-0.121930
O4	O	1.473100	0.231379	-0.149217
O5	O	1.493473	0.001280	0.121669
O6	O	1.300458	0.121620	0.107395
O7	O	1.666102	0.111035	0.108656
Cu8	Cu	1.483279	0.116327	0.130268
Cu9	Cu	1.483294	0.116331	-0.157816
O10	O	1.473087	0.231375	0.094382
C11	C	1.253678	0.120845	-0.014313
C12	C	1.114271	0.118522	-0.014040
C13	C	1.048776	0.117427	0.118877
C14	C	0.917791	0.115231	0.119137
C15	C	0.917806	0.115230	-0.146448
C16	C	1.048790	0.117420	-0.146706
C17	C	1.492704	-0.028181	0.003360
C18	C	1.490378	-0.115971	0.013762
C19	C	1.489296	-0.157208	-0.114136
C20	C	1.487102	-0.239695	-0.104359
C21	C	1.486000	-0.280944	0.033319
C22	C	1.487079	-0.239701	0.161227
C23	C	1.489264	-0.157214	0.151448
C24	C	1.479458	-0.527641	0.076806
C25	C	1.477277	-0.610134	0.086575
C26	C	1.477298	-0.610122	-0.179011
C27	C	1.479490	-0.527635	-0.188778
C28	C	1.480562	-0.486398	-0.060871
N29	N	1.483762	-0.365259	0.043317
N30	N	1.482791	-0.402084	-0.070870
C31	C	1.712894	0.111813	-0.013238
C32	C	1.852302	0.114136	-0.013521
C33	C	1.473869	0.260840	-0.030912
C34	C	1.476194	0.348629	-0.041323
N35	N	1.483277	0.116324	0.332891
N36	N	1.483306	0.116328	-0.360439
C37	C	1.568772	0.063060	0.415861
C38	C	1.568785	0.063060	0.569198
C39	C	1.397801	0.169595	0.556581
C40	C	1.397784	0.169590	0.403247
H41	H	1.102087	0.118324	0.226902
C42	C	1.476104	-0.655488	-0.319700
N43	N	1.475198	-0.689657	-0.425673
H44	H	1.486175	-0.273291	0.273327
H45	H	0.864475	0.114333	-0.254460
C46	C	1.303762	0.228183	0.633988
N47	N	1.232929	0.272313	0.692289
C48	C	1.476061	-0.655505	0.238038
N49	N	1.475146	-0.689680	0.352114
H50	H	0.864471	0.114339	0.227371
H51	H	1.480356	-0.494078	0.180958
H52	H	1.490128	-0.123639	0.255596
C53	C	1.486027	-0.285061	-0.245057
N54	N	1.485257	-0.319234	-0.351037
H55	H	1.638384	0.019686	0.358581
C56	C	1.662827	0.004459	0.660458
N57	N	1.733659	-0.039685	0.729196
C58	C	1.303785	0.228224	0.311971
N59	N	1.233006	0.272397	0.243220
H60	H	1.102118	0.118309	-0.254949
H61	H	1.490200	-0.123630	-0.226249
H62	H	1.480389	-0.494056	-0.300890
