data_functionalizedCrystal
_audit_creation_method	'MofGen! by Chris Wilmer'
_symmetry_space_group_name_H-M	'P1'
_symmetry_Int_Tables_number	1
_symmetry_cell_setting	triclinic
loop_
_symmetry_equiv_pos_as_xyz
  x,y,z
_cell_length_a	9.065218
_cell_length_b	9.065218
_cell_length_c	8.140239
_cell_angle_alpha	89.989394
_cell_angle_beta	89.998449
_cell_angle_gamma	85.015918
loop_
_atom_site_label
_atom_site_type_symbol
_atom_site_fract_x
_atom_site_fract_y
_atom_site_fract_z
O1	O	-1.960395	-0.216354	0.136649
O2	O	-1.460395	0.283646	0.636649
O3	O	-1.531111	-0.234100	0.136654
O4	O	-1.031111	0.265900	0.636654
O5	O	-1.754626	-0.010585	0.136610
O6	O	-1.254626	0.489415	0.636610
O7	O	-1.736880	-0.439870	0.136694
O8	O	-1.236880	0.060130	0.636694
O9	O	-1.754619	-0.010583	-0.136617
O10	O	-1.254619	0.489417	0.363383
O11	O	-1.531103	-0.234099	-0.136573
O12	O	-1.031103	0.265901	0.363427
O13	O	-1.960388	-0.216352	-0.136578
O14	O	-1.460388	0.283648	0.363422
Zn15	Zn	-1.745745	-0.225225	-0.179956
Zn16	Zn	-1.245745	0.274775	0.320044
Zn17	Zn	-1.745754	-0.225228	0.180032
Zn18	Zn	-1.245754	0.274772	0.680032
O19	O	-1.736873	-0.439868	-0.136533
O20	O	-1.236873	0.060132	0.363467
C21	C	-1.476120	-0.232394	0.000041
C22	C	-0.976120	0.267606	0.500041
C23	C	-1.312277	-0.227294	0.000041
C24	C	-0.812277	0.272706	0.500041
C25	C	-1.752917	0.044403	-0.000011
C26	C	-1.252917	0.544403	0.499989
C27	C	-1.747817	0.208245	-0.000033
C28	C	-1.247817	0.708245	0.499967
C29	C	-2.015378	-0.218059	0.000039
C30	C	-1.515378	0.281941	0.500039
C31	C	-2.179221	-0.223158	0.000050
C32	C	-1.679221	0.276842	0.500050
N33	N	-1.745749	-0.225223	-0.425639
N34	N	-1.245749	0.274777	0.074361
C35	C	-1.738582	0.505145	0.000046
C36	C	-1.238582	1.005145	0.500046
C37	C	-1.743681	0.341302	-0.000057
C38	C	-1.243681	0.841302	0.499943
N39	N	-1.745761	-0.225218	0.425715
N40	N	-1.245761	0.274782	0.925715
