data_functionalizedCrystal
_audit_creation_method	'MofGen! by Chris Wilmer'
_symmetry_space_group_name_H-M	'P1'
_symmetry_Int_Tables_number	1
_symmetry_cell_setting	triclinic
loop_
_symmetry_equiv_pos_as_xyz
  x,y,z
_cell_length_a	8.559649
_cell_length_b	14.519709
_cell_length_c	7.681481
_cell_angle_alpha	84.238882
_cell_angle_beta	85.086760
_cell_angle_gamma	103.270595
loop_
_atom_site_label
_atom_site_type_symbol
_atom_site_fract_x
_atom_site_fract_y
_atom_site_fract_z
O1	O	2.104962	0.021483	0.146394
O2	O	1.639892	-0.026137	0.146417
O3	O	1.884763	0.132800	0.146356
O4	O	1.860091	-0.137454	0.146456
O5	O	1.914902	0.152402	-0.146509
O6	O	1.670031	-0.006535	-0.146448
O7	O	2.135102	0.041085	-0.146471
Zn8	Zn	1.907352	0.020387	-0.192958
Zn9	Zn	1.867642	-0.005439	0.192904
O10	O	1.890231	-0.117852	-0.146410
C11	C	1.595442	-0.019945	-0.000013
C12	C	1.418092	-0.030686	-0.000006
C13	C	1.898684	0.176879	-0.000086
C14	C	1.895243	0.279015	-0.000112
C15	C	1.882569	0.653004	-0.000159
C16	C	1.886088	0.548947	-0.000147
C17	C	1.888905	0.466012	-0.000137
C18	C	1.892426	0.361950	-0.000121
C19	C	2.179551	0.034892	-0.000037
C20	C	2.356900	0.045633	-0.000032
N21	N	1.934465	0.038014	-0.456299
C22	C	1.876316	0.838073	-0.000027
C23	C	1.879775	0.735949	-0.000176
N24	N	1.840542	-0.023058	0.456245
H25	H	1.334792	-0.104251	0.000030
O26	O	1.726353	-0.097462	-0.453835
C27	C	1.801314	-0.155323	-0.347193
H28	H	1.923339	-0.111519	-0.319748
H29	H	1.721448	-0.183272	-0.217479
H30	H	1.819771	-0.217964	-0.418112
O31	O	1.456391	0.133327	0.000169
C32	C	1.538260	0.134056	0.151864
H33	H	1.541528	0.058053	0.202460
H34	H	1.666967	0.179475	0.117735
H35	H	1.472489	0.165229	0.258061
O36	O	2.048770	0.112495	-0.545843
C37	C	2.017705	0.198909	-0.500995
H38	H	1.942435	0.185514	-0.367100
H39	H	2.136934	0.252462	-0.494874
H40	H	1.948629	0.228627	-0.604742
