data_functionalizedCrystal
_audit_creation_method	'MofGen! by Chris Wilmer'
_symmetry_space_group_name_H-M	'P1'
_symmetry_Int_Tables_number	1
_symmetry_cell_setting	triclinic
loop_
_symmetry_equiv_pos_as_xyz
  x,y,z
_cell_length_a	25.639242
_cell_length_b	25.639234
_cell_length_c	12.759400
_cell_angle_alpha	89.981268
_cell_angle_beta	90.006948
_cell_angle_gamma	89.978465
loop_
_atom_site_label
_atom_site_type_symbol
_atom_site_fract_x
_atom_site_fract_y
_atom_site_fract_z
Zn1	Zn	0.799349	-0.295656	-0.418546
Zn2	Zn	1.299349	0.204344	0.081454
Zn3	Zn	0.799299	-0.208229	-0.594228
Zn4	Zn	1.299299	0.291771	-0.094228
Zn5	Zn	0.711915	-0.208232	-0.418540
Zn6	Zn	1.211915	0.291768	0.081460
Zn7	Zn	0.711908	-0.295631	-0.594160
Zn8	Zn	1.211908	0.204369	-0.094160
O9	O	0.755618	-0.251937	-0.506368
O10	O	1.255618	0.248063	-0.006368
O11	O	0.872508	-0.284068	-0.441882
O12	O	1.372508	0.215932	0.058118
O13	O	0.787689	-0.135065	-0.570948
O14	O	1.287689	0.364935	-0.070948
O15	O	0.723538	-0.219840	-0.271519
O16	O	1.223538	0.280160	0.228481
O17	O	0.872471	-0.219836	-0.570954
O18	O	1.372471	0.280164	-0.070954
O19	O	0.787775	-0.284070	-0.271524
O20	O	1.287775	0.215930	0.228476
O21	O	0.723488	-0.135066	-0.441871
O22	O	1.223488	0.364934	0.058129
O23	O	0.638749	-0.219816	-0.441805
O24	O	1.138749	0.280184	0.058195
O25	O	0.723525	-0.368800	-0.570839
O26	O	1.223525	0.131200	-0.070839
O27	O	0.638743	-0.284028	-0.570832
O28	O	1.138743	0.215972	-0.070832
O29	O	0.787768	-0.368818	-0.441816
O30	O	1.287768	0.131182	0.058184
O31	O	0.787682	-0.219812	-0.741240
O32	O	1.287682	0.280188	-0.241240
O33	O	0.723476	-0.284026	-0.741190
O34	O	1.223476	0.215974	-0.241190
C35	C	0.619775	-0.251920	-0.506312
C36	C	1.119775	0.248080	-0.006312
C37	C	0.561661	-0.251925	-0.506313
C38	C	1.061661	0.248075	-0.006313
C39	C	0.310495	-0.285443	-0.439280
C40	C	0.810495	0.214557	0.060720
C41	C	0.365099	-0.285440	-0.439269
C42	C	0.865099	0.214560	0.060731
O43	O	0.393359	-0.313935	-0.382230
O44	O	0.893359	0.186065	0.117770
N45	N	0.392387	-0.251943	-0.506356
N46	N	0.892387	0.248057	-0.006356
C47	C	0.365068	-0.218450	-0.573465
C48	C	0.865068	0.281550	-0.073465
O49	O	0.393292	-0.189958	-0.630528
O50	O	0.893292	0.310042	-0.130528
C51	C	0.310464	-0.218456	-0.573480
C52	C	0.810464	0.281544	-0.073480
C53	C	0.283180	-0.251952	-0.506381
C54	C	0.783180	0.248048	-0.006381
C55	C	0.283210	-0.318937	-0.372187
C56	C	0.783210	0.181063	0.127813
C57	C	0.228610	-0.318939	-0.372196
C58	C	0.728610	0.181061	0.127804
C59	C	0.201294	-0.285448	-0.439298
C60	C	0.701294	0.214552	0.060702
C61	C	0.228579	-0.251954	-0.506391
C62	C	0.728579	0.248046	-0.006391
C63	C	0.283146	-0.184966	-0.640594
C64	C	0.783146	0.315034	-0.140594
C65	C	0.228539	-0.184975	-0.640604
C66	C	0.728539	0.315025	-0.140604
C67	C	0.201254	-0.218471	-0.573505
C68	C	0.701254	0.281529	-0.073505
C69	C	0.146663	-0.218465	-0.573502
C70	C	0.646663	0.281535	-0.073502
N71	N	0.119375	-0.251962	-0.506415
N72	N	0.619375	0.248038	-0.006415
C73	C	0.146691	-0.285454	-0.439313
C74	C	0.646691	0.214546	0.060687
C75	C	0.479738	-0.218441	-0.573430
C76	C	0.979738	0.281559	-0.073430
C77	C	0.534341	-0.218432	-0.573411
C78	C	1.034341	0.281568	-0.073411
C79	C	0.534369	-0.285423	-0.439216
C80	C	1.034369	0.214577	0.060784
C81	C	0.479765	-0.285429	-0.439231
C82	C	0.979765	0.214571	0.060769
C83	C	0.452451	-0.251938	-0.506343
C84	C	0.952451	0.248062	-0.006343
C85	C	0.032026	-0.285455	-0.439337
C86	C	0.532026	0.214545	0.060663
C87	C	-0.022580	-0.285453	-0.439349
C88	C	0.477420	0.214547	0.060651
C89	C	-0.022603	-0.218464	-0.573547
C90	C	0.477397	0.281536	-0.073547
C91	C	0.031998	-0.218464	-0.573532
C92	C	0.531998	0.281536	-0.073532
C93	C	0.059311	-0.251964	-0.506423
C94	C	0.559311	0.248036	-0.006423
O95	O	0.118368	-0.189986	-0.630515
O96	O	0.618368	0.310014	-0.130515
O97	O	0.118460	-0.313946	-0.382270
O98	O	0.618460	0.186054	0.117730
C99	C	0.755652	-0.388310	-0.506320
C100	C	1.255652	0.111690	-0.006320
C101	C	0.755666	-0.446424	-0.506300
C102	C	1.255666	0.053576	-0.006300
C103	C	0.722252	-0.806794	-0.438964
C104	C	1.222252	-0.306794	0.061036
C105	C	0.722254	-0.861398	-0.438945
C106	C	1.222254	-0.361398	0.061055
O107	O	0.693818	-0.889640	-0.381810
O108	O	1.193818	-0.389640	0.118190
N109	N	0.755683	-0.888707	-0.506135
N110	N	1.255683	-0.388707	-0.006135
C111	C	0.789108	-0.861408	-0.573356
C112	C	1.289108	-0.361408	-0.073356
O113	O	0.817542	-0.889651	-0.630505
O114	O	1.317542	-0.389651	-0.130505
C115	C	0.789102	-0.806805	-0.573380
C116	C	1.289102	-0.306805	-0.073380
C117	C	0.755675	-0.779499	-0.506178
C118	C	1.255675	-0.279499	-0.006178
C119	C	0.688826	-0.779488	-0.371769
C120	C	1.188826	-0.279488	0.128231
C121	C	0.688824	-0.724887	-0.371787
C122	C	1.188824	-0.224887	0.128213
C123	C	0.722248	-0.697593	-0.439000
C124	C	1.222248	-0.197593	0.061000
C125	C	0.755673	-0.724899	-0.506196
C126	C	1.255673	-0.224899	-0.006196
C127	C	0.822524	-0.779508	-0.640605
C128	C	1.322524	-0.279508	-0.140605
C129	C	0.822515	-0.724901	-0.640623
C130	C	1.322515	-0.224901	-0.140623
C131	C	0.789087	-0.697595	-0.573421
C132	C	1.289087	-0.197595	-0.073421
C133	C	0.789094	-0.643003	-0.573427
C134	C	1.289094	-0.143003	-0.073427
N135	N	0.755665	-0.615695	-0.506237
N136	N	1.255665	-0.115695	-0.006237
C137	C	0.722242	-0.642989	-0.439024
C138	C	1.222242	-0.142989	0.060976
C139	C	0.789117	-0.976079	-0.573303
C140	C	1.289117	-0.476079	-0.073303
C141	C	0.789126	-1.030681	-0.573275
C142	C	1.289126	-0.530681	-0.073275
C143	C	0.722271	-1.030667	-0.438865
C144	C	1.222271	-0.530667	0.061135
C145	C	0.722266	-0.976064	-0.438889
C146	C	1.222266	-0.476064	0.061111
C147	C	0.755688	-0.948770	-0.506113
C148	C	1.255688	-0.448770	-0.006113
C149	C	0.722240	-0.528324	-0.439066
C150	C	1.222240	-0.028324	0.060934
C151	C	0.722243	-0.473719	-0.439087
C152	C	1.222243	0.026281	0.060913
C153	C	0.789095	-0.473738	-0.573500
C154	C	1.289095	0.026262	-0.073500
C155	C	0.789095	-0.528338	-0.573475
C156	C	1.289095	-0.028338	-0.073475
C157	C	0.755663	-0.555630	-0.506255
C158	C	1.255663	-0.055630	-0.006255
O159	O	0.817515	-0.614727	-0.630536
O160	O	1.317515	-0.114727	-0.130536
O161	O	0.693808	-0.614740	-0.381894
O162	O	1.193808	-0.114740	0.118106
C163	C	0.891991	-0.251954	-0.506426
C164	C	1.391991	0.248046	-0.006426
C165	C	0.950105	-0.251962	-0.506451
C166	C	1.450105	0.248038	-0.006451
C167	C	0.755587	-0.251928	-0.779336
C168	C	1.255587	0.248072	-0.279336
C169	C	0.755621	-0.251941	-0.896112
C170	C	1.255621	0.248059	-0.396112
C171	C	0.755614	-0.116095	-0.506340
C172	C	1.255614	0.383905	-0.006340
C173	C	0.755701	-0.057981	-0.506065
C174	C	1.255701	0.442019	-0.006065
C175	C	0.789055	-0.285414	-0.950887
C176	C	1.289055	0.214586	-0.450887
C177	C	0.789085	-0.285428	-1.060611
C178	C	1.289085	0.214572	-0.560611
C179	C	0.722244	-0.218492	-1.060776
C180	C	1.222244	0.281508	-0.560776
C181	C	0.722213	-0.218481	-0.951054
C182	C	1.222213	0.281519	-0.451054
C183	C	0.807775	-0.347123	-1.210469
C184	C	1.307775	0.152877	-0.710469
C185	C	0.841217	-0.380591	-1.265247
C186	C	1.341217	0.119409	-0.765247
C187	C	0.892219	-0.388662	-1.229556
C188	C	1.392219	0.111338	-0.729556
C189	C	0.909789	-0.363257	-1.139088
C190	C	1.409789	0.136743	-0.639088
C191	C	0.876349	-0.329784	-1.084316
C192	C	1.376349	0.170216	-0.584316
C193	C	0.825340	-0.321724	-1.120005
C194	C	1.325340	0.178276	-0.620005
C195	C	0.703528	-0.156786	-0.801194
C196	C	1.203528	0.343214	-0.301194
C197	C	0.670091	-0.123311	-0.746419
C198	C	1.170091	0.376689	-0.246419
C199	C	0.619088	-0.115235	-0.782109
C200	C	1.119088	0.384765	-0.282109
C201	C	0.601520	-0.140631	-0.872580
C202	C	1.101520	0.359369	-0.372580
C203	C	0.634957	-0.174106	-0.927354
C204	C	1.134957	0.325894	-0.427354
C205	C	0.685960	-0.182183	-0.891658
C206	C	1.185960	0.317817	-0.391658
C207	C	0.755663	-0.251958	-0.232335
C208	C	1.255663	0.248042	0.267665
C209	C	0.755682	-0.251967	-0.115558
C210	C	1.255682	0.248033	0.384442
H211	H	0.206399	-0.346217	-0.317562
H212	H	0.706399	0.153783	0.182438
C213	C	0.615629	-0.202045	-1.026872
C214	C	1.115629	0.297955	-0.526872
N215	N	0.601071	-0.223090	-1.101826
N216	N	1.101071	0.276910	-0.601826
H217	H	0.816340	-0.953860	-0.628039
H218	H	1.316340	-0.453860	-0.128039
H219	H	0.695045	-0.191249	-1.105523
H220	H	1.195045	0.308751	-0.605523
H221	H	0.457554	-0.312704	-0.384592
H222	H	0.957554	0.187296	0.115408
H223	H	0.556619	-0.312694	-0.384578
H224	H	1.056619	0.187306	0.115422
H225	H	0.559990	-0.134054	-0.901641
H226	H	1.059990	0.365946	-0.401641
H227	H	0.816320	-0.550572	-0.628185
H228	H	1.316320	-0.050572	-0.128185
C229	C	0.564348	-0.181579	-0.647215
C230	C	1.064348	0.318421	-0.147215
N231	N	0.586948	-0.153822	-0.702812
N232	N	1.086948	0.346178	-0.202812
C233	C	0.449697	-0.181588	-0.647248
C234	C	0.949697	0.318412	-0.147248
N235	N	0.427073	-0.153830	-0.702847
N236	N	0.927073	0.346170	-0.202847
C237	C	-0.052660	-0.181626	-0.647357
C238	C	0.447340	0.318374	-0.147357
N239	N	-0.075301	-0.153882	-0.702957
N240	N	0.424699	0.346118	-0.202957
H241	H	0.766244	-0.340560	-1.239531
H242	H	1.266244	0.159440	-0.739531
H243	H	0.591865	-0.087974	-0.737502
H244	H	1.091865	0.412026	-0.237502
C245	C	0.689419	-0.095371	-0.646903
C246	C	1.189419	0.404629	-0.146903
N247	N	0.703978	-0.074327	-0.571947
N248	N	1.203978	0.425673	-0.071947
C249	C	0.965911	-0.372099	-1.099890
C250	C	1.465911	0.127901	-0.599890
N251	N	1.008188	-0.378748	-1.070380
N252	N	1.508188	0.121252	-0.570380
C253	C	0.821887	-0.408539	-1.364755
C254	C	1.321887	0.091461	-0.864755
N255	N	0.807330	-0.429588	-1.439705
N256	N	1.307330	0.070412	-0.939705
C257	C	0.825857	-0.443703	-0.647434
C258	C	1.325857	0.056297	-0.147434
N259	N	0.853544	-0.421080	-0.703129
N260	N	1.353544	0.078920	-0.203129
H261	H	0.745056	-0.163366	-0.772117
H262	H	1.245056	0.336634	-0.272117
C263	C	0.859287	-0.694881	-0.714571
C264	C	1.359287	-0.194881	-0.214571
N265	N	0.886985	-0.672271	-0.770264
N266	N	1.386985	-0.172271	-0.270264
C267	C	-0.052590	-0.322304	-0.365535
C268	C	0.447410	0.177696	0.134465
N269	N	-0.075192	-0.350061	-0.309942
N270	N	0.424808	0.149939	0.190058
H271	H	0.816352	-1.052909	-0.627985
H272	H	1.316352	-0.552909	-0.127985
C273	C	0.685467	-0.443685	-0.365159
C274	C	1.185467	0.056315	0.134841
N275	N	0.657767	-0.421066	-0.309481
N276	N	1.157767	0.078934	0.190519
C277	C	0.313249	-0.355781	-0.298357
C278	C	0.813249	0.144219	0.201643
N279	N	0.335870	-0.383530	-0.242735
N280	N	0.835870	0.116470	0.257265
H281	H	0.695018	-0.550539	-0.384328
H282	H	1.195018	-0.050539	0.115672
H283	H	0.305352	-0.157690	-0.695233
H284	H	0.805352	0.342310	-0.195233
H285	H	0.919448	-0.415913	-1.274164
H286	H	1.419448	0.084087	-0.774164
H287	H	0.206302	-0.157704	-0.695259
H288	H	0.706302	0.342296	-0.195259
H289	H	0.695056	-1.052900	-0.384137
H290	H	1.195056	-0.552900	0.115863
H291	H	0.054214	-0.191184	-0.628160
H292	H	0.554214	0.308816	-0.128160
C293	C	0.062062	-0.322304	-0.365507
C294	C	0.562062	0.177696	0.134493
N295	N	0.084685	-0.350055	-0.309893
N296	N	0.584685	0.149945	0.190107
C297	C	0.652046	-0.694858	-0.297869
C298	C	1.152046	-0.194858	0.202131
N299	N	0.624341	-0.672243	-0.242193
N300	N	1.124341	-0.172243	0.257807
C301	C	0.859294	-0.809532	-0.714541
C302	C	1.359294	-0.309532	-0.214541
N303	N	0.886990	-0.832145	-0.770238
N304	N	1.386990	-0.332145	-0.270238
H305	H	0.661606	-0.801705	-0.317035
H306	H	1.161606	-0.301705	0.182965
H307	H	0.816258	-0.312660	-0.906156
H308	H	1.316258	0.187340	-0.406156
C309	C	0.895672	-0.301842	-0.984803
C310	C	1.395672	0.198158	-0.484803
N311	N	0.910226	-0.280800	-0.909843
N312	N	1.410226	0.219200	-0.409843
C313	C	0.685490	-0.946033	-0.364969
C314	C	1.185490	-0.446033	0.135031
N315	N	0.657787	-0.923415	-0.309292
N316	N	1.157787	-0.423415	0.190708
