data_functionalizedCrystal
_audit_creation_method	'MofGen! by Chris Wilmer'
_symmetry_space_group_name_H-M	'P1'
_symmetry_Int_Tables_number	1
_symmetry_cell_setting	triclinic
loop_
_symmetry_equiv_pos_as_xyz
  x,y,z
_cell_length_a	12.503552
_cell_length_b	9.065218
_cell_length_c	9.065218
_cell_angle_alpha	94.984115
_cell_angle_beta	93.573739
_cell_angle_gamma	93.575569
loop_
_atom_site_label
_atom_site_type_symbol
_atom_site_fract_x
_atom_site_fract_y
_atom_site_fract_z
O1	O	-0.089319	-1.968806	0.207941
O2	O	0.410681	-1.468806	0.707941
O3	O	-0.089320	-1.539521	0.225688
O4	O	0.410680	-1.039521	0.725688
O5	O	-0.089317	-1.763037	0.002172
O6	O	0.410683	-1.263037	0.502172
O7	O	-0.089322	-1.745291	0.431457
O8	O	0.410678	-1.245291	0.931457
O9	O	0.089325	-1.746208	0.018997
O10	O	0.589325	-1.246208	0.518997
O11	O	0.089322	-1.522692	0.242512
O12	O	0.589322	-1.022692	0.742512
O13	O	0.089323	-1.951977	0.224766
O14	O	0.589323	-1.451977	0.724766
Cu15	Cu	0.105634	-1.735798	0.235175
Cu16	Cu	0.605634	-1.235798	0.735175
Cu17	Cu	-0.105631	-1.755700	0.215278
Cu18	Cu	0.394369	-1.255700	0.715278
O19	O	0.089320	-1.728462	0.448281
O20	O	0.589320	-1.228462	0.948281
C21	C	0.000001	-1.476120	0.232394
C22	C	0.500001	-0.976120	0.732394
C23	C	0.000000	-1.312277	0.227294
C24	C	0.500000	-0.812277	0.727294
N25	N	0.254227	-1.721810	0.249168
N26	N	0.754227	-1.221810	0.749168
N27	N	-0.254224	-1.769699	0.201273
N28	N	0.245776	-1.269699	0.701273
C29	C	0.526661	-1.790268	0.180683
C30	C	1.026661	-1.290268	0.680683
C31	C	0.473335	-1.701247	0.269754
C32	C	0.973335	-1.201247	0.769754
C33	C	0.351412	-1.712691	0.258297
C34	C	0.851412	-1.212691	0.758297
C35	C	0.648595	-1.778825	0.192138
C36	C	1.148595	-1.278825	0.692138
C37	C	-0.000000	-2.015378	0.218059
C38	C	0.500000	-1.515378	0.718059
C39	C	-0.000007	-2.179222	0.223158
C40	C	0.499993	-1.679222	0.723158
C41	C	0.000002	-1.752917	-0.044402
C42	C	0.500002	-1.252917	0.455598
C43	C	-0.000003	-1.747818	-0.208246
C44	C	0.499997	-1.247818	0.291754
C45	C	-0.000001	-1.738582	0.494855
C46	C	0.499999	-1.238582	0.994855
C47	C	-0.000003	-1.743682	0.658698
C48	C	0.499997	-1.243682	1.158698
H49	H	0.519250	-1.616439	0.354614
H50	H	1.019250	-1.116439	0.854614
H51	H	0.480751	-1.875072	0.095830
H52	H	0.980751	-1.375072	0.595830
