data_functionalizedCrystal
_audit_creation_method	'MofGen! by Chris Wilmer'
_symmetry_space_group_name_H-M	'P1'
_symmetry_Int_Tables_number	1
_symmetry_cell_setting	triclinic
loop_
_symmetry_equiv_pos_as_xyz
  x,y,z
_cell_length_a	35.277628
_cell_length_b	35.288095
_cell_length_c	35.277682
_cell_angle_alpha	59.997929
_cell_angle_beta	89.998958
_cell_angle_gamma	60.000166
loop_
_atom_site_label
_atom_site_type_symbol
_atom_site_fract_x
_atom_site_fract_y
_atom_site_fract_z
O1	O	-0.323087	-0.271234	0.011271
O2	O	-0.267964	-0.193634	-0.011228
O3	O	-0.267962	-0.271233	0.066395
O4	O	-0.323089	-0.193635	-0.066351
O5	O	-0.204915	-0.334261	0.066394
O6	O	-0.204918	-0.256661	-0.011228
O7	O	-0.260040	-0.334261	0.011271
Cu8	Cu	-0.226722	-0.301216	0.000022
Cu9	Cu	-0.301282	-0.226679	0.000022
O10	O	-0.260043	-0.256662	-0.066351
C11	C	-0.163481	-0.071298	-0.023519
C12	C	-0.186872	-0.024531	-0.020298
C13	C	-0.117860	-0.093995	-0.023838
C14	C	-0.163483	-0.139918	-0.023524
C15	C	-0.186875	-0.166518	-0.020308
C16	C	-0.117862	-0.162510	-0.023843
C17	C	-0.094838	-0.139921	-0.023519
C18	C	-0.044836	-0.166525	-0.020298
C19	C	-0.186401	-0.093991	-0.023843
C20	C	-0.004439	-0.188019	-0.017694
C21	C	-0.205769	0.013252	-0.017695
C22	C	-0.205774	-0.188010	-0.017709
C23	C	0.046241	-0.214983	-0.014429
C24	C	-0.229477	0.060653	-0.014430
C25	C	-0.229483	-0.214971	-0.014450
C26	C	-0.500364	-0.466062	0.034181
C27	C	-0.477341	-0.511990	0.034503
C28	C	-0.431722	-0.466060	0.034178
C29	C	-0.408804	-0.511988	0.034500
C30	C	-0.431721	-0.534685	0.034181
C31	C	-0.477342	-0.443470	0.034500
C32	C	-0.665895	-0.342485	0.021756
C33	C	-0.712772	-0.317221	0.018243
C34	C	-0.736287	-0.338907	0.016481
C35	C	-0.787116	-0.311512	0.012664
C36	C	-0.712921	-0.385861	0.018236
C37	C	-0.666047	-0.411125	0.021755
C38	C	-0.642533	-0.389434	0.023515
C39	C	-0.389805	-0.687746	0.021758
C40	C	-0.368199	-0.731097	0.018245
C41	C	-0.322995	-0.752841	0.016478
C42	C	-0.299567	-0.799839	0.012662
C43	C	-0.299393	-0.731235	0.018230
C44	C	-0.320995	-0.687892	0.021751
C45	C	-0.366205	-0.666148	0.023512
C46	C	-0.389808	-0.342477	0.021744
C47	C	-0.368205	-0.317208	0.018222
C48	C	-0.322998	-0.338892	0.016457
C49	C	-0.299573	-0.311495	0.012637
C50	C	-0.299398	-0.385842	0.018210
C51	C	-0.321003	-0.411107	0.021730
C52	C	-0.366208	-0.389423	0.023501
C53	C	-0.591706	-0.416830	0.027326
C54	C	-0.551191	-0.438667	0.030366
C55	C	-0.408299	-0.438663	0.030360
C56	C	-0.389629	-0.416824	0.027317
C57	C	-0.408298	-0.581682	0.030365
C58	C	-0.389627	-0.619146	0.027325
C59	C	-0.432024	-0.061845	-0.438511
C60	C	-0.477645	-0.015917	-0.461431
C61	C	-0.432025	-0.061844	-0.369869
C62	C	-0.477645	-0.015916	-0.392892
C63	C	-0.500668	0.006779	-0.438513
C64	C	-0.409106	-0.084435	-0.392891
C65	C	-0.320834	-0.185425	-0.480424
C66	C	-0.299076	-0.210690	-0.502029
C67	C	-0.322531	-0.189005	-0.547237
C68	C	-0.298945	-0.216401	-0.570661
C69	C	-0.367745	-0.142051	-0.570839
C70	C	-0.389497	-0.116787	-0.549237
C71	C	-0.366040	-0.138476	-0.504027
C72	C	-0.666200	0.159838	-0.549704
C73	C	-0.713077	0.203188	-0.571462
C74	C	-0.736595	0.224934	-0.548009
C75	C	-0.787423	0.271931	-0.571594
C76	C	-0.713230	0.203329	-0.502796
C77	C	-0.666353	0.159987	-0.481041
C78	C	-0.642841	0.138241	-0.504500
C79	C	-0.320836	-0.185423	-0.204335
C80	C	-0.299080	-0.210691	-0.157455
C81	C	-0.322536	-0.189006	-0.133940
C82	C	-0.298950	-0.216402	-0.083110
C83	C	-0.367748	-0.142056	-0.157305
C84	C	-0.389502	-0.116792	-0.204182
C85	C	-0.366040	-0.138478	-0.227695
C86	C	-0.389632	-0.111079	-0.480604
C87	C	-0.408436	-0.089241	-0.461934
C88	C	-0.408437	-0.089240	-0.319041
C89	C	-0.389634	-0.111078	-0.278525
C90	C	-0.551496	0.053776	-0.462102
C91	C	-0.592011	0.091239	-0.480906
O92	O	0.196122	-0.334274	0.011291
O93	O	0.063378	-0.256674	-0.011208
O94	O	0.140994	-0.334276	0.066414
O95	O	0.118506	-0.256671	-0.066331
O96	O	0.140996	-0.271251	0.066419
O97	O	0.063380	-0.193649	-0.011203
O98	O	0.196124	-0.271249	0.011296
Cu99	Cu	0.129752	-0.226694	0.000047
Cu100	Cu	0.129750	-0.301228	0.000041
O101	O	0.118508	-0.193647	-0.066327
O102	O	-0.260036	0.184774	0.011294
O103	O	-0.204910	0.074561	-0.011204
O104	O	-0.204913	0.074554	0.066418
O105	O	-0.260033	0.184781	-0.066328
O106	O	-0.267961	0.074557	0.066413
O107	O	-0.267958	0.074564	-0.011209
O108	O	-0.323083	0.184777	0.011289
Cu109	Cu	-0.301278	0.129670	0.000040
Cu110	Cu	-0.226716	0.129668	0.000045
O111	O	-0.323081	0.184784	-0.066333
O112	O	-0.936929	0.397535	-0.602582
O113	O	-0.804185	0.287317	-0.547454
O114	O	-0.881802	0.287315	-0.547452
O115	O	-0.859312	0.397537	-0.602584
O116	O	-0.881801	0.287314	-0.610498
O117	O	-0.804183	0.287316	-0.610500
O118	O	-0.936927	0.397533	-0.665628
Cu119	Cu	-0.870555	0.342425	-0.643820
Cu120	Cu	-0.870557	0.342426	-0.569261
O121	O	-0.859310	0.397536	-0.665629
O122	O	-0.267961	-0.271234	-0.665316
O123	O	-0.323086	-0.193638	-0.610192
O124	O	-0.323085	-0.271236	-0.610189
O125	O	-0.267962	-0.193636	-0.665319
O126	O	-0.260038	-0.334264	-0.547142
O127	O	-0.260039	-0.256666	-0.547145
O128	O	-0.204914	-0.334262	-0.602269
Cu129	Cu	-0.226720	-0.301219	-0.568950
Cu130	Cu	-0.301280	-0.226681	-0.643511
O131	O	-0.204915	-0.256664	-0.602272
C132	C	-0.094840	-0.456607	0.293255
C133	C	-0.044837	-0.503376	0.316647
C134	C	-0.117862	-0.433912	0.316174
C135	C	-0.163483	-0.387984	0.224612
C136	C	-0.186875	-0.361381	0.174609
C137	C	-0.186401	-0.365393	0.247634
C138	C	-0.163483	-0.387984	0.293255
C139	C	-0.186874	-0.361382	0.316646
C140	C	-0.117862	-0.433912	0.247635
C141	C	-0.205772	-0.339889	0.335543
C142	C	-0.004440	-0.541160	0.335545
C143	C	-0.205773	-0.339888	0.134212
C144	C	-0.229480	-0.312925	0.359250
C145	C	0.046239	-0.588562	0.359254
C146	C	-0.229481	-0.312924	0.083532
C147	C	0.153295	-0.388013	0.293279
C148	C	0.150076	-0.361413	0.316673
C149	C	0.153614	-0.433940	0.316196
C150	C	0.153297	-0.388008	0.224634
C151	C	0.150079	-0.361403	0.174632
C152	C	0.153616	-0.433935	0.247655
C153	C	0.153293	-0.456633	0.293275
C154	C	0.150072	-0.503401	0.316665
C155	C	0.153617	-0.365420	0.247659
C156	C	0.147469	-0.541185	0.335561
C157	C	0.147474	-0.339922	0.335572
C158	C	0.147479	-0.339908	0.134234
C159	C	0.144204	-0.588587	0.359267
C160	C	0.144211	-0.312962	0.359282
C161	C	0.144218	-0.312942	0.083555
C162	C	-0.163482	-0.139963	0.293267
C163	C	-0.186875	-0.166567	0.316654
C164	C	-0.117861	-0.162559	0.316187
C165	C	-0.163482	-0.071333	0.224628
C166	C	-0.186873	-0.024557	0.174627
C167	C	-0.117860	-0.094033	0.247653
C168	C	-0.094838	-0.139967	0.293272
C169	C	-0.044835	-0.166574	0.316665
C170	C	-0.186401	-0.094030	0.247648
C171	C	-0.004438	-0.188070	0.335563
C172	C	-0.205773	-0.188061	0.335549
C173	C	-0.205771	0.013233	0.134231
C174	C	0.046242	-0.215038	0.359273
C175	C	-0.229482	-0.215026	0.359253
C176	C	-0.229479	0.060643	0.083553
C177	C	0.095627	0.006487	-0.438489
C178	C	0.095306	-0.016206	-0.461409
C179	C	0.095623	-0.062137	-0.369847
C180	C	0.095303	-0.084726	-0.392871
C181	C	0.095625	-0.062133	-0.438492
C182	C	0.095305	-0.016210	-0.392868
C183	C	0.108059	0.159543	-0.480399
C184	C	0.111575	0.202893	-0.502003
C185	C	0.113340	0.224640	-0.547210
C186	C	0.117161	0.271637	-0.570634
C187	C	0.111587	0.203038	-0.570814
C188	C	0.108065	0.159695	-0.549212
C189	C	0.106302	0.137948	-0.504002
C190	C	0.108054	-0.116452	-0.549685
C191	C	0.111568	-0.141562	-0.571444
C192	C	0.113332	-0.188519	-0.547992
C193	C	0.117148	-0.215753	-0.571578
C194	C	0.111577	-0.210363	-0.502779
C195	C	0.108055	-0.185249	-0.481023
C196	C	0.106297	-0.138292	-0.504481
C197	C	0.108046	-0.116473	-0.204312
C198	C	0.111564	-0.141591	-0.157432
C199	C	0.113326	-0.188548	-0.133918
C200	C	0.117142	-0.215786	-0.083088
C201	C	0.111574	-0.210388	-0.157283
C202	C	0.108058	-0.185270	-0.204161
C203	C	0.106290	-0.138308	-0.227673
C204	C	0.102487	0.090947	-0.480580
C205	C	0.099445	0.053484	-0.461911
C206	C	0.099438	-0.089371	-0.319019
C207	C	0.102477	-0.111078	-0.278503
C208	C	0.099442	-0.089362	-0.462081
C209	C	0.102482	-0.111066	-0.480886
O210	O	0.118477	-0.256700	0.452885
O211	O	0.140984	-0.334299	0.397762
O212	O	0.063360	-0.256699	0.397752
O213	O	0.196101	-0.334300	0.452895
O214	O	0.063367	-0.193672	0.334708
O215	O	0.140992	-0.271271	0.334718
O216	O	0.118484	-0.193673	0.389842
Cu217	Cu	0.129739	-0.226717	0.356523
Cu218	Cu	0.129730	-0.301254	0.431080
O219	O	0.196108	-0.271272	0.389852
C220	C	-0.500364	0.533998	-0.438484
C221	C	-0.477341	0.556591	-0.461399
C222	C	-0.431721	0.465364	-0.369840
C223	C	-0.408802	0.488061	-0.392859
C224	C	-0.431720	0.533995	-0.438478
C225	C	-0.477342	0.488064	-0.392865
C226	C	-0.665898	0.588334	-0.480407
C227	C	-0.712776	0.613450	-0.502014
C228	C	-0.736291	0.660414	-0.547220
C229	C	-0.787122	0.687654	-0.570647
C230	C	-0.712926	0.682257	-0.570819
C231	C	-0.666050	0.657138	-0.549214
C232	C	-0.642536	0.610174	-0.504006
C233	C	-0.389802	0.657585	-0.549654
C234	C	-0.368196	0.682850	-0.571408
C235	C	-0.322990	0.661164	-0.547952
C236	C	-0.299561	0.688558	-0.571532
C237	C	-0.299388	0.614205	-0.502740
C238	C	-0.320990	0.588935	-0.480990
C239	C	-0.366202	0.610633	-0.504452
C240	C	-0.389804	0.312282	-0.204314
C241	C	-0.368201	0.268929	-0.157436
C242	C	-0.322993	0.247179	-0.133918
C243	C	-0.299567	0.200174	-0.083089
C244	C	-0.299392	0.268786	-0.157278
C245	C	-0.320998	0.312139	-0.204154
C246	C	-0.366204	0.333881	-0.227670
C247	C	-0.591708	0.582942	-0.480581
C248	C	-0.551193	0.561234	-0.461909
C249	C	-0.408297	0.418359	-0.319013
C250	C	-0.389626	0.380890	-0.278499
C251	C	-0.408296	0.561393	-0.462062
C252	C	-0.389624	0.583232	-0.480862
H253	H	-0.371321	-0.530978	0.035012
O254	O	0.154249	-0.456686	0.360920
C255	C	0.155133	-0.527854	0.426966
C256	C	0.154424	-0.502156	0.376322
H257	H	0.155265	-0.564614	0.439430
H258	H	0.187624	-0.540336	0.449865
H259	H	0.122999	-0.497607	0.429082
H260	H	0.186536	-0.532375	0.374161
H261	H	0.121913	-0.489662	0.353445
H262	H	-0.223883	-0.328432	0.229146
O263	O	-0.255131	-0.256247	-0.479156
C264	C	-0.176065	-0.299386	-0.478305
C265	C	-0.225810	-0.247754	-0.504249
H266	H	-0.152347	-0.292540	-0.498587
H267	H	-0.162996	-0.310560	-0.442287
H268	H	-0.176034	-0.333297	-0.474848
H269	H	-0.225880	-0.213808	-0.507740
H270	H	-0.238858	-0.236626	-0.540251
H271	H	-0.099380	-0.199466	-0.024359
O272	O	-0.255443	0.593061	-0.479964
C273	C	-0.175365	0.516889	-0.442574
C274	C	-0.225106	0.540771	-0.468373
H275	H	-0.150825	0.474605	-0.433187
H276	H	-0.163940	0.542974	-0.465874
H277	H	-0.174512	0.515397	-0.409530
H278	H	-0.225998	0.542266	-0.501418
H279	H	-0.236510	0.514678	-0.445041
H280	H	-0.099379	-0.074998	-0.024355
H281	H	-0.223885	-0.074993	-0.024363
O282	O	-0.499459	-0.534581	0.035114
C283	C	-0.569726	-0.530396	0.036083
C284	C	-0.544741	-0.504745	0.035371
H285	H	-0.606337	-0.506291	0.036301
H286	H	-0.571664	-0.530619	0.003944
H287	H	-0.549655	-0.573298	0.068568
H288	H	-0.564790	-0.461833	0.002907
H289	H	-0.542797	-0.504564	0.067532
H290	H	0.154133	-0.328462	0.229178
H291	H	-0.647028	0.674924	-0.568431
O292	O	-0.433387	-0.071133	-0.226878
C293	C	-0.484066	0.020477	-0.251637
C294	C	-0.434344	-0.031194	-0.225932
H295	H	-0.484858	0.052777	-0.250871
H296	H	-0.495601	0.034856	-0.289193
H297	H	-0.508558	0.012034	-0.233845
H298	H	-0.409817	-0.022794	-0.243684
H299	H	-0.422847	-0.045558	-0.188375
H300	H	-0.223884	-0.075035	0.229163
H301	H	0.106623	0.141841	-0.443588
H302	H	-0.099377	-0.452909	0.353658
O303	O	-0.298125	0.543308	-0.437084
C304	C	-0.300931	0.473987	-0.373134
C305	C	-0.326874	0.525648	-0.422864
H306	H	-0.324167	0.459699	-0.361618
H307	H	-0.267880	0.441624	-0.372308
H308	H	-0.291548	0.482414	-0.348647
H309	H	-0.336289	0.517272	-0.447380
H310	H	-0.359905	0.557994	-0.423652
O311	O	-0.735730	-0.406937	0.016467
C312	C	-0.760797	-0.432615	-0.024529
C313	C	-0.734946	-0.408747	-0.022575
H314	H	-0.760181	-0.434075	-0.056097
H315	H	-0.743076	-0.474900	0.008371
H316	H	-0.798306	-0.406499	-0.027322
H317	H	-0.697436	-0.434821	-0.019798
H318	H	-0.752703	-0.366455	-0.055474
O319	O	-0.095883	-0.071290	0.225548
C320	C	-0.101009	-0.000123	0.155257
C321	C	-0.125955	-0.025817	0.180236
H322	H	-0.125308	0.036639	0.118615
H323	H	-0.090602	0.012355	0.175270
H324	H	-0.068631	-0.030371	0.153385
H325	H	-0.158349	0.004403	0.182114
H326	H	-0.136327	-0.038307	0.160214
H327	H	-0.099372	-0.452898	0.229148
O328	O	0.094651	-0.128791	-0.370768
C329	C	0.093742	-0.193927	-0.300481
C330	C	0.094477	-0.144025	-0.325457
H331	H	0.093610	-0.206266	-0.263840
H332	H	0.061241	-0.184312	-0.320497
H333	H	0.125865	-0.228172	-0.298609
H334	H	0.062376	-0.109759	-0.327335
H335	H	0.126998	-0.153684	-0.305431
H336	H	-0.646754	-0.324820	0.023190
H337	H	-0.371622	-0.121391	-0.374409
H338	H	-0.099381	-0.199518	0.353671
H339	H	-0.495826	0.593550	-0.498882
O340	O	-0.390584	-0.121022	-0.134460
C341	C	-0.457295	-0.095294	-0.109439
C342	C	-0.431476	-0.119131	-0.135313
H343	H	-0.490365	-0.093748	-0.110129
H344	H	-0.434012	-0.121415	-0.071909
H345	H	-0.466635	-0.053034	-0.127156
H346	H	-0.422132	-0.161387	-0.117636
H347	H	-0.454774	-0.092972	-0.172844
O348	O	-0.433740	0.333497	-0.227190
C349	C	-0.512732	0.411836	-0.269611
C350	C	-0.462995	0.387878	-0.243723
H351	H	-0.536401	0.455803	-0.282977
H352	H	-0.512749	0.408498	-0.300127
H353	H	-0.525873	0.388927	-0.244862
H354	H	-0.449823	0.410769	-0.268436
H355	H	-0.463007	0.391208	-0.213202
O356	O	0.094744	0.006488	-0.506110
C357	C	0.093887	0.077632	-0.572154
C358	C	0.094514	0.051995	-0.521536
H359	H	0.093691	0.114435	-0.584645
H360	H	0.126047	0.047402	-0.574261
H361	H	0.061422	0.090056	-0.595040
H362	H	0.126957	0.039572	-0.498620
H363	H	0.062332	0.082241	-0.519466
H364	H	0.113009	-0.248624	-0.138135
H365	H	0.154138	-0.452930	0.229170
H366	H	-0.495829	-0.406511	0.035012
O367	O	0.094664	0.006530	-0.370890
C368	C	0.093780	0.077687	-0.376014
C369	C	0.094498	0.051997	-0.400961
H370	H	0.093655	0.114445	-0.400312
H371	H	0.061283	0.090172	-0.365611
H372	H	0.125907	0.047434	-0.343633
H373	H	0.062393	0.082221	-0.433358
H374	H	0.127016	0.039500	-0.411329
H375	H	-0.387425	-0.278978	0.016792
H376	H	-0.731792	-0.278991	0.016812
H377	H	0.113001	-0.123813	-0.138408
O378	O	0.106357	-0.070874	-0.227077
C379	C	0.106691	-0.005271	-0.222286
C380	C	0.108618	-0.056919	-0.196445
H381	H	0.108509	0.006034	-0.197534
H382	H	0.137282	-0.012155	-0.235685
H383	H	0.072820	0.028568	-0.252785
H384	H	0.142469	-0.090783	-0.165928
H385	H	0.078004	-0.049991	-0.183080
H386	H	0.113004	0.220477	-0.482781
O387	O	0.113299	-0.120293	-0.615351
C388	C	0.112916	-0.049401	-0.681164
C389	C	0.110957	-0.073434	-0.631439
H390	H	0.111013	-0.011505	-0.694190
H391	H	0.146802	-0.079798	-0.681224
H392	H	0.082345	-0.039088	-0.704903
H393	H	0.141504	-0.083745	-0.607671
H394	H	0.077051	-0.043023	-0.631415
O395	O	-0.643122	0.542703	-0.436501
C396	C	-0.647925	0.477122	-0.370531
C397	C	-0.673773	0.528793	-0.420255
H398	H	-0.672698	0.465867	-0.357376
H399	H	-0.617447	0.443246	-0.370529
H400	H	-0.634498	0.484024	-0.346861
H401	H	-0.687230	0.521944	-0.443952
H402	H	-0.704228	0.562652	-0.420220
O403	O	0.113330	0.224209	-0.614715
C404	C	0.118737	0.291064	-0.678499
C405	C	0.116775	0.267135	-0.628775
H406	H	0.121513	0.325781	-0.689886
H407	H	0.150289	0.258914	-0.679385
H408	H	0.085825	0.306234	-0.703051
H409	H	0.149665	0.251967	-0.604194
H410	H	0.085202	0.299302	-0.627927
H411	H	-0.732378	0.221040	-0.483702
H412	H	0.106637	0.142110	-0.568432
H413	H	-0.426617	-0.324814	0.023182
O414	O	0.106273	-0.070795	-0.572450
C415	C	0.062382	0.022724	-0.602429
C416	C	0.064344	-0.028946	-0.576636
H417	H	0.028481	0.056575	-0.605831
H418	H	0.092941	0.015860	-0.582116
H419	H	0.064261	0.033997	-0.638469
H420	H	0.062452	-0.040248	-0.540596
H421	H	0.033789	-0.022055	-0.596985
O422	O	0.113311	-0.255989	-0.480054
C423	C	0.118706	-0.325151	-0.483148
C424	C	0.116754	-0.273487	-0.508933
H425	H	0.121480	-0.339307	-0.506489
H426	H	0.150256	-0.357585	-0.450100
H427	H	0.085791	-0.316786	-0.473773
H428	H	0.149646	-0.281800	-0.518340
H429	H	0.085183	-0.241070	-0.541961
O430	O	-0.433712	-0.666708	0.023490
C431	C	-0.499687	-0.671127	0.023109
C432	C	-0.449961	-0.695014	0.021155
H433	H	-0.512843	-0.693995	0.021212
H434	H	-0.499692	-0.674532	0.056993
H435	H	-0.523351	-0.627139	-0.007467
H436	H	-0.426268	-0.739009	0.051707
H437	H	-0.449993	-0.691568	-0.012748
H438	H	0.106623	-0.203035	-0.444212
O439	O	-0.735536	0.592295	-0.479163
C440	C	-0.807697	0.600525	-0.481944
C441	C	-0.781974	0.624533	-0.507881
H442	H	-0.845248	0.626584	-0.505147
H443	H	-0.789941	0.558254	-0.472590
H444	H	-0.806950	0.598980	-0.448874
H445	H	-0.782713	0.626114	-0.540966
H446	H	-0.799738	0.666789	-0.517198
O447	O	0.106343	-0.206544	-0.226792
C448	C	0.106763	-0.277454	-0.221688
C449	C	0.108693	-0.253408	-0.196007
H450	H	0.108671	-0.315354	-0.196807
H451	H	0.072883	-0.247066	-0.252162
H452	H	0.137341	-0.287761	-0.235101
H453	H	0.078138	-0.243103	-0.182563
H454	H	0.142592	-0.283811	-0.165555
H455	H	-0.371318	0.469063	-0.374372
H456	H	-0.495832	0.469078	-0.374381
O457	O	-0.391185	0.247992	-0.134819
C458	C	-0.461722	0.252726	-0.139915
C459	C	-0.435742	0.276482	-0.165586
H460	H	-0.497754	0.275757	-0.164776
H461	H	-0.441510	0.208758	-0.126529
H462	H	-0.465144	0.256098	-0.109420
H463	H	-0.432314	0.273149	-0.196098
H464	H	-0.455964	0.320439	-0.178938
O465	O	-0.735843	0.727893	-0.614717
C466	C	-0.808123	0.797075	-0.678501
C467	C	-0.782228	0.745398	-0.628781
H468	H	-0.845626	0.811237	-0.689891
H469	H	-0.807513	0.829499	-0.679379
H470	H	-0.790385	0.788725	-0.703057
H471	H	-0.799945	0.753697	-0.604197
H472	H	-0.782834	0.712991	-0.627941
O473	O	-0.391075	-0.752160	0.016619
C474	C	-0.391935	-0.830347	0.052532
C475	C	-0.365987	-0.806559	0.054436
H476	H	-0.371657	-0.874335	0.083097
H477	H	-0.427952	-0.807402	0.054424
H478	H	-0.395393	-0.826921	0.018641
H479	H	-0.362495	-0.809980	0.088321
H480	H	-0.329986	-0.829508	0.052518
H481	H	-0.262584	-0.748943	0.016794
O482	O	-0.390516	-0.120916	-0.614781
C483	C	-0.427909	-0.044747	-0.694864
C484	C	-0.402113	-0.068623	-0.645122
H485	H	-0.437301	-0.002460	-0.719407
H486	H	-0.404604	-0.070831	-0.706286
H487	H	-0.460949	-0.043263	-0.695715
H488	H	-0.369073	-0.070109	-0.644232
H489	H	-0.425451	-0.042531	-0.633721
H490	H	-0.426614	0.675254	-0.568760
O491	O	-0.298012	-0.666955	0.023426
C492	C	-0.227478	-0.671684	0.023068
C493	C	-0.253455	-0.695440	0.021158
H494	H	-0.191445	-0.694711	0.021244
H495	H	-0.247691	-0.627714	-0.007526
H496	H	-0.224057	-0.675060	0.056937
H497	H	-0.256882	-0.692103	-0.012692
H498	H	-0.233231	-0.739399	0.051775
H499	H	-0.647332	0.142401	-0.444230
H500	H	-0.647026	-0.449354	0.023185
O501	O	-0.391199	0.728479	-0.615312
C502	C	-0.461726	0.793900	-0.681126
C503	C	-0.435730	0.742226	-0.631404
H504	H	-0.497730	0.805024	-0.694155
H505	H	-0.465205	0.827833	-0.681179
H506	H	-0.441470	0.787076	-0.704867
H507	H	-0.455963	0.748997	-0.607634
H508	H	-0.432246	0.708310	-0.631388
O509	O	-0.297998	0.333046	-0.226782
C510	C	-0.227479	0.328348	-0.221674
C511	C	-0.253470	0.304612	-0.195996
H512	H	-0.191477	0.305376	-0.196792
H513	H	-0.223997	0.324943	-0.252148
H514	H	-0.247742	0.372327	-0.235087
H515	H	-0.233229	0.260626	-0.182552
H516	H	-0.256957	0.308058	-0.165544
H517	H	-0.262581	0.251075	-0.138127
H518	H	-0.301784	-0.449335	0.023157
H519	H	-0.262587	-0.403497	0.016771
H520	H	-0.496128	0.003076	-0.374407
O521	O	-0.499624	0.006688	-0.506154
C522	C	-0.494451	0.002537	-0.572250
C523	C	-0.469517	-0.023141	-0.521593
H524	H	-0.470117	-0.021562	-0.584751
H525	H	-0.526821	0.002778	-0.574437
H526	H	-0.504865	0.045433	-0.595075
H527	H	-0.459072	-0.066047	-0.498737
H528	H	-0.437167	-0.023340	-0.519443
H529	H	-0.301727	-0.203079	-0.223479
O530	O	-0.255154	-0.256280	-0.134835
C531	C	-0.189349	-0.321704	-0.139926
C532	C	-0.239091	-0.270067	-0.165600
H533	H	-0.176350	-0.332873	-0.164785
H534	H	-0.165582	-0.314880	-0.126537
H535	H	-0.189303	-0.355610	-0.109433
H536	H	-0.239181	-0.236136	-0.196111
H537	H	-0.262836	-0.276935	-0.178955
H538	H	-0.426308	-0.078556	-0.568458
O539	O	-0.297987	-0.206465	-0.436542
C540	C	-0.231263	-0.232199	-0.385801
C541	C	-0.257097	-0.208352	-0.435517
H542	H	-0.198194	-0.233743	-0.384954
H543	H	-0.254537	-0.206087	-0.374389
H544	H	-0.221918	-0.274462	-0.361245
H545	H	-0.266446	-0.166094	-0.460108
H546	H	-0.233809	-0.234503	-0.446891
O547	O	-0.643424	0.138799	-0.572566
C548	C	-0.648226	0.143215	-0.642960
C549	C	-0.674074	0.167104	-0.617130
H550	H	-0.672998	0.166082	-0.678991
H551	H	-0.617747	0.146620	-0.646372
H552	H	-0.634800	0.099227	-0.622621
H553	H	-0.687530	0.211098	-0.637446
H554	H	-0.704530	0.163657	-0.613713
H555	H	-0.732097	0.220775	-0.608274
