data_functionalizedCrystal
_audit_creation_method	'MofGen! by Chris Wilmer'
_symmetry_space_group_name_H-M	'P1'
_symmetry_Int_Tables_number	1
_symmetry_cell_setting	triclinic
loop_
_symmetry_equiv_pos_as_xyz
  x,y,z
_cell_length_a	17.077404
_cell_length_b	25.639240
_cell_length_c	17.077396
_cell_angle_alpha	90.038257
_cell_angle_beta	90.019501
_cell_angle_gamma	90.032983
loop_
_atom_site_label
_atom_site_type_symbol
_atom_site_fract_x
_atom_site_fract_y
_atom_site_fract_z
Zn1	Zn	1.200001	-0.208148	0.443789
Zn2	Zn	1.199885	-0.295585	0.312501
Zn3	Zn	1.068733	-0.208166	0.312537
Zn4	Zn	1.068678	-0.295554	0.443725
O5	O	1.134324	-0.251863	0.378138
O6	O	1.309832	-0.219752	0.426386
O7	O	1.182462	-0.284010	0.202659
O8	O	1.086217	-0.134998	0.329991
O9	O	1.309747	-0.283992	0.329929
O10	O	1.182659	-0.134985	0.426421
O11	O	1.086105	-0.219783	0.202686
O12	O	0.958878	-0.219753	0.329928
O13	O	1.086124	-0.283939	0.553580
O14	O	0.958838	-0.283957	0.426310
O15	O	1.182606	-0.219722	0.553628
O16	O	1.182409	-0.368746	0.329866
O17	O	1.086012	-0.368724	0.426275
C18	C	0.930376	-0.251854	0.378116
C19	C	0.843126	-0.251862	0.378126
C20	C	0.802136	-0.285344	0.428232
C21	C	0.720155	-0.285345	0.428244
C22	C	0.679167	-0.251867	0.378146
C23	C	0.720163	-0.218382	0.328038
C24	C	0.802142	-0.218378	0.328030
C25	C	0.549293	-0.218392	0.328057
C26	C	0.467309	-0.218396	0.328064
C27	C	0.467307	-0.285358	0.428271
C28	C	0.549285	-0.285355	0.428263
C29	C	0.590276	-0.251871	0.378154
C30	C	1.134213	-0.387706	0.378077
C31	C	1.134238	-0.445820	0.378076
C32	C	1.184567	-0.806137	0.428440
C33	C	1.184590	-0.860742	0.428456
O34	O	1.227249	-0.888940	0.471213
N35	N	1.134433	-0.888102	0.378214
C36	C	1.084244	-0.860856	0.327958
O37	O	1.041584	-0.889142	0.285226
C38	C	1.084218	-0.806252	0.327947
C39	C	1.134383	-0.778895	0.378187
C40	C	1.234727	-0.778780	0.478676
C41	C	1.234705	-0.724179	0.478659
C42	C	1.184522	-0.696936	0.428406
C43	C	1.134361	-0.724294	0.378169
C44	C	1.034026	-0.779007	0.277696
C45	C	1.034003	-0.724400	0.277689
C46	C	1.084169	-0.697042	0.327929
C47	C	1.084156	-0.642451	0.327899
N48	N	1.134312	-0.615090	0.378141
C49	C	1.184495	-0.642333	0.428394
C50	C	1.084303	-0.975526	0.327987
C51	C	1.084333	-1.030129	0.327994
C52	C	1.184677	-1.030011	0.428493
C53	C	1.184651	-0.975408	0.428481
C54	C	1.134460	-0.948166	0.378229
C55	C	1.184445	-0.527668	0.428354
C56	C	1.184421	-0.473063	0.428330
C57	C	1.084074	-0.473185	0.327834
C58	C	1.084101	-0.527786	0.327855
C59	C	1.134289	-0.555026	0.378121
O60	O	1.041516	-0.614218	0.285165
O61	O	1.227141	-0.614040	0.471127
C62	C	1.339068	-0.251873	0.378160
C63	C	1.426318	-0.251877	0.378170
C64	C	1.134372	-0.251825	0.582882
C65	C	1.134392	-0.251808	0.670132
C66	C	1.134457	-0.115490	0.378217
C67	C	1.134513	-0.057376	0.378251
C68	C	1.134322	-0.251864	0.174190
C69	C	1.134454	-0.251733	0.086941
C70	C	1.184632	-0.218368	0.711149
C71	C	1.184641	-0.218350	0.793129
C72	C	1.134414	-0.251777	0.834092
C73	C	1.084168	-0.285219	0.793070
C74	C	1.084156	-0.285233	0.711091
C75	C	1.084200	-0.285187	0.963940
C76	C	1.084214	-0.285174	1.045925
C77	C	1.184686	-0.218304	1.045978
C78	C	1.184673	-0.218319	0.963999
C79	C	1.134428	-0.251762	0.922983
H80	H	0.433938	-0.191129	0.287279
H81	H	1.225274	-0.450790	0.469241
C82	C	1.239874	-1.059988	0.483779
N83	N	1.281445	-1.082569	0.525418
H84	H	1.043270	-0.312433	0.826428
C85	C	1.028872	-0.443208	0.272562
N86	N	0.987288	-0.420627	0.230935
H87	H	1.225535	-0.191150	0.677802
H88	H	0.582656	-0.312619	0.469053
H89	H	1.225554	-0.191121	0.826521
C90	C	0.978833	-0.809088	0.222433
N91	N	0.937257	-0.831745	0.180807
C92	C	1.239924	-0.181547	0.918942
N93	N	1.281537	-0.153848	0.885004
H94	H	1.225596	-0.191073	1.079378
C95	C	1.028889	-0.322021	0.665973
N96	N	0.987259	-0.349731	0.631992
H97	H	1.043491	-1.052399	0.287075
C98	C	1.028956	-0.321941	1.090982
N99	N	0.987334	-0.349634	1.124919
C100	C	0.675073	-0.181554	0.272932
N101	N	0.641112	-0.153816	0.231423
C102	C	0.847216	-0.322173	0.483344
N103	N	0.881167	-0.349912	0.524859
C104	C	0.675070	-0.322187	0.483350
N105	N	0.641111	-0.349942	0.524853
H106	H	1.043273	-0.312412	0.930547
H107	H	0.433928	-0.312621	0.469074
H108	H	1.043258	-0.550062	0.286940
C109	C	0.847231	-0.181548	0.272908
N110	N	0.881192	-0.153804	0.231389
H111	H	0.582665	-0.191121	0.287260
H112	H	1.225308	-0.549840	0.469291
C113	C	1.289894	-0.694093	0.533924
N114	N	1.331467	-0.671435	0.575552
H115	H	1.275592	-0.800955	0.519603
C116	C	1.029088	-0.945565	0.272699
N117	N	0.987498	-0.923001	0.231058
H118	H	0.993129	-0.702222	0.236769
C119	C	1.239833	-0.945319	0.483751
N120	N	1.281397	-0.922659	0.525385
