data_functionalizedCrystal
_audit_creation_method	'MofGen! by Chris Wilmer'
_symmetry_space_group_name_H-M	'P1'
_symmetry_Int_Tables_number	1
_symmetry_cell_setting	triclinic
loop_
_symmetry_equiv_pos_as_xyz
  x,y,z
_cell_length_a	11.169416
_cell_length_b	11.169417
_cell_length_c	11.169409
_cell_angle_alpha	89.978351
_cell_angle_beta	90.030874
_cell_angle_gamma	89.991438
loop_
_atom_site_label
_atom_site_type_symbol
_atom_site_fract_x
_atom_site_fract_y
_atom_site_fract_z
Zn1	Zn	-0.477767	-1.834962	0.678613
Zn2	Zn	-0.144434	-1.501629	1.011947
Zn3	Zn	0.188900	-1.168296	1.345280
Zn4	Zn	-0.678507	-1.834852	0.477935
Zn5	Zn	-0.345174	-1.501518	0.811269
Zn6	Zn	-0.011841	-1.168185	1.144602
Zn7	Zn	-0.477831	-1.634248	0.477941
Zn8	Zn	-0.144497	-1.300915	0.811275
Zn9	Zn	0.188836	-0.967582	1.144608
Zn10	Zn	-0.678400	-1.634256	0.678574
Zn11	Zn	-0.345067	-1.300922	1.011907
Zn12	Zn	-0.011734	-0.967589	1.345241
O13	O	-0.578126	-1.734579	0.578266
O14	O	-0.244793	-1.401246	0.911599
O15	O	0.088540	-1.067913	1.244933
O16	O	-0.504414	-2.002897	0.652007
O17	O	-0.171080	-1.669564	0.985340
O18	O	0.162253	-1.336231	1.318674
O19	O	-0.651959	-1.808192	0.309986
O20	O	-0.318625	-1.474858	0.643320
O21	O	0.014708	-1.141525	0.976653
O22	O	-0.309873	-1.660917	0.504580
O23	O	0.023461	-1.327583	0.837913
O24	O	0.356794	-0.994250	1.171247
O25	O	-0.651897	-2.002816	0.504570
O26	O	-0.318563	-1.669483	0.837903
O27	O	0.014770	-1.336149	1.171236
O28	O	-0.309826	-1.808380	0.652013
O29	O	0.023508	-1.475047	0.985346
O30	O	0.356841	-1.141714	1.318679
O31	O	-0.504522	-1.660809	0.309991
O32	O	-0.171189	-1.327476	0.643324
O33	O	0.162144	-0.994143	0.976657
O34	O	-0.504419	-1.466300	0.504542
O35	O	-0.171085	-1.132966	0.837875
O36	O	0.162248	-0.799633	1.171208
O37	O	-0.651714	-1.660929	0.846529
O38	O	-0.318381	-1.327596	1.179862
O39	O	0.014952	-0.994263	1.513196
O40	O	-0.651776	-1.466305	0.651945
O41	O	-0.318443	-1.132972	0.985279
O42	O	0.014890	-0.799638	1.318612
O43	O	-0.504310	-1.808388	0.846558
O44	O	-0.170976	-1.475054	1.179891
O45	O	0.162357	-1.141721	1.513225
O46	O	-0.846443	-1.808199	0.504531
O47	O	-0.513110	-1.474866	0.837865
O48	O	-0.179776	-1.141532	1.171198
O49	O	-0.846364	-1.660822	0.651940
O50	O	-0.513031	-1.327489	0.985273
O51	O	-0.179698	-0.994155	1.318606
C52	C	-0.578094	-1.422755	0.578241
C53	C	-0.244760	-1.089421	0.911574
C54	C	0.088573	-0.756088	1.244907
C55	C	-0.578109	-1.289355	0.578258
C56	C	-0.244775	-0.956021	0.911592
C57	C	0.088558	-0.622688	1.244925
C58	C	-0.889951	-1.734532	0.578257
C59	C	-0.556618	-1.401199	0.911590
C60	C	-0.223284	-1.067865	1.244923
C61	C	-1.023351	-1.734621	0.578293
C62	C	-0.690018	-1.401288	0.911626
C63	C	-0.356684	-1.067955	1.244960
C64	C	-0.265084	-1.734660	0.578301
C65	C	0.068249	-1.401327	0.911635
C66	C	0.401583	-1.067993	1.244968
C67	C	-0.131684	-1.734694	0.578316
C68	C	0.201649	-1.401361	0.911650
C69	C	0.534983	-1.068028	1.244983
C70	C	-0.577993	-1.734672	0.891309
C71	C	-0.244660	-1.401338	1.224642
C72	C	0.088674	-1.068005	1.557975
C73	C	-0.577936	-1.734711	1.024709
C74	C	-0.244603	-1.401378	1.358042
C75	C	0.088730	-1.068044	1.691375
C76	C	-0.578148	-1.047622	0.578284
C77	C	-0.244815	-0.714288	0.911617
C78	C	0.088518	-0.380955	1.244951
C79	C	-0.578128	-1.181022	0.578271
C80	C	-0.244795	-0.847688	0.911605
C81	C	0.088539	-0.514355	1.244938
C82	C	-0.578172	-1.734557	0.266441
C83	C	-0.244839	-1.401223	0.599775
C84	C	0.088494	-1.067890	0.933108
C85	C	-0.577891	-1.734750	0.133042
C86	C	-0.244558	-1.401417	0.466375
C87	C	0.088775	-1.068083	0.799708
