data_functionalizedCrystal
_audit_creation_method	'MofGen! by Chris Wilmer'
_symmetry_space_group_name_H-M	'P1'
_symmetry_Int_Tables_number	1
_symmetry_cell_setting	triclinic
loop_
_symmetry_equiv_pos_as_xyz
  x,y,z
_cell_length_a	12.811445
_cell_length_b	12.837942
_cell_length_c	9.730223
_cell_angle_alpha	89.996108
_cell_angle_beta	84.565292
_cell_angle_gamma	89.412982
loop_
_atom_site_label
_atom_site_type_symbol
_atom_site_fract_x
_atom_site_fract_y
_atom_site_fract_z
O1	O	1.406644	0.139717	-0.289597
O2	O	1.906644	0.639717	0.210403
O3	O	1.102579	0.154899	-0.251704
O4	O	1.602579	0.654899	0.248296
O5	O	1.247869	-0.003624	-0.269802
O6	O	1.747869	0.496376	0.230198
O7	O	1.261353	0.298240	-0.271499
O8	O	1.761353	0.798240	0.228501
O9	O	1.247858	-0.003628	-0.041221
O10	O	1.747858	0.496372	0.458779
O11	O	1.102568	0.154895	-0.023123
O12	O	1.602568	0.654895	0.476877
O13	O	1.406633	0.139713	-0.061015
O14	O	1.906633	0.639713	0.438985
Zn15	Zn	1.254599	0.147303	-0.005777
Zn16	Zn	1.754599	0.647303	0.494223
Zn17	Zn	1.254613	0.147309	-0.306943
Zn18	Zn	1.754613	0.647309	0.193057
O19	O	1.261343	0.298236	-0.042918
O20	O	1.761343	0.798236	0.457082
C21	C	1.063384	0.154045	-0.132530
C22	C	1.563384	0.654045	0.367470
C23	C	0.946611	0.151493	-0.117978
C24	C	1.446611	0.651493	0.382022
C25	C	0.727191	0.146723	-0.339857
C26	C	1.227191	0.646723	0.160143
C27	C	0.617473	0.144327	-0.326190
C28	C	1.117473	0.644327	0.173810
C29	C	0.617454	0.144310	-0.076977
C30	C	1.117454	0.644310	0.423023
C31	C	0.727172	0.146707	-0.090644
C32	C	1.227172	0.646707	0.409356
C33	C	0.782037	0.147912	-0.222089
C34	C	1.282037	0.647912	0.277911
C35	C	0.891758	0.150301	-0.235755
C36	C	1.391758	0.650301	0.264245
C37	C	0.891736	0.150292	0.013457
C38	C	1.391736	0.650292	0.513457
C39	C	0.782018	0.147896	0.027124
C40	C	1.282018	0.647896	0.527124
C41	C	1.243308	-0.042267	-0.154944
C42	C	1.743308	0.457733	0.345056
C43	C	1.229722	-0.157403	-0.153253
C44	C	1.729722	0.342597	0.346747
C45	C	1.393052	-0.397653	-0.173636
C46	C	1.893052	0.102347	0.326364
C47	C	1.380291	-0.505834	-0.172048
C48	C	1.880291	-0.005834	0.327952
C49	C	1.191442	-0.481948	-0.148500
C50	C	1.691442	0.018052	0.351500
C51	C	1.204202	-0.373767	-0.150088
C52	C	1.704202	0.126233	0.349912
C53	C	1.305010	-0.331623	-0.162654
C54	C	1.805010	0.168377	0.337346
C55	C	1.317770	-0.223440	-0.164232
C56	C	1.817770	0.276560	0.335768
C57	C	1.128921	-0.199557	-0.140693
C58	C	1.628921	0.300443	0.359307
C59	C	1.116161	-0.307738	-0.139106
C60	C	1.616161	0.192262	0.360894
C61	C	1.445828	0.140567	-0.180193
C62	C	1.945828	0.640567	0.319807
C63	C	1.562600	0.143118	-0.194754
C64	C	2.062600	0.643118	0.305246
C65	C	1.265903	0.336878	-0.157778
C66	C	1.765903	0.836878	0.342222
C67	C	1.279489	0.452014	-0.159478
C68	C	1.779489	0.952014	0.340522
N69	N	1.254597	0.147299	0.199760
N70	N	1.754597	0.647299	0.699760
N71	N	1.254622	0.147305	-0.512480
N72	N	1.754622	0.647305	-0.012480
C73	C	1.318958	0.077134	0.263669
C74	C	1.818958	0.577134	0.763669
C75	C	1.318969	0.077135	0.407550
C76	C	1.818969	0.577135	0.907550
C77	C	1.190253	0.217473	0.423602
C78	C	1.690253	0.717473	0.923602
C79	C	1.190238	0.217466	0.279723
C80	C	1.690238	0.717466	0.779723
H81	H	0.572763	0.143339	0.030039
H82	H	1.072763	0.643339	0.530039
F83	F	1.387468	0.002454	0.475562
F84	F	1.887468	0.502454	0.975562
H85	H	1.137822	0.274603	0.227686
H86	H	1.637822	0.774603	0.727686
F87	F	1.121765	0.292150	0.508713
F88	F	1.621765	0.792150	1.008713
F89	F	0.723615	0.146618	0.167009
F90	F	1.223615	0.646618	0.667009
F91	F	0.950148	0.151580	-0.375647
F92	F	1.450148	0.651580	0.124353
F93	F	1.473997	-0.576104	-0.183741
F94	F	1.973997	-0.076104	0.316259
F95	F	1.008879	-0.352602	-0.125743
F96	F	1.508879	0.147398	0.374257
H97	H	0.936403	0.151259	0.109353
H98	H	1.436403	0.651259	0.609353
H99	H	1.371361	0.019998	0.198565
H100	H	1.871361	0.519998	0.698565
H101	H	1.399853	-0.189129	-0.174459
H102	H	1.899853	0.310871	0.325541
H103	H	1.475134	-0.363339	-0.183855
H104	H	1.975134	0.136661	0.316145
H105	H	0.572822	0.143361	-0.422089
H106	H	1.072822	0.643361	0.077911
H107	H	0.771864	0.147699	-0.446884
H108	H	1.271864	0.647699	0.053116
H109	H	1.109368	-0.516281	-0.138283
H110	H	1.609368	-0.016281	0.361717
H111	H	1.057231	-0.145783	-0.131740
H112	H	1.557231	0.354217	0.368260
