data_functionalizedCrystal
_audit_creation_method	'MofGen! by Chris Wilmer'
_symmetry_space_group_name_H-M	'P1'
_symmetry_Int_Tables_number	1
_symmetry_cell_setting	triclinic
loop_
_symmetry_equiv_pos_as_xyz
  x,y,z
_cell_length_a	20.919287
_cell_length_b	14.628931
_cell_length_c	20.919309
_cell_angle_alpha	57.441689
_cell_angle_beta	86.849199
_cell_angle_gamma	58.213065
loop_
_atom_site_label
_atom_site_type_symbol
_atom_site_fract_x
_atom_site_fract_y
_atom_site_fract_z
Zr1	Zr	0.611979	1.014219	-0.122533
O2	O	0.505845	1.216085	-0.222815
O3	O	0.644514	0.820092	-0.091790
O4	O	0.639110	1.026231	-0.230460
O5	O	0.515512	0.997772	0.025240
O6	O	0.744232	1.026902	-0.236491
O7	O	0.511249	1.009946	-0.084145
O8	O	0.753899	0.658158	0.011564
O9	O	0.505845	1.366517	-0.222815
O10	O	0.736842	0.897574	-0.083180
O11	O	0.661572	0.887988	0.002954
O12	O	0.655209	1.130689	-0.160312
O13	O	0.579939	1.121103	-0.074179
Zr14	Zr	0.786435	0.995875	0.042306
Zr15	Zr	0.779636	1.015290	-0.132151
Zr16	Zr	0.618778	0.994803	0.051924
Zr17	Zr	0.611979	1.254140	-0.122533
Zr18	Zr	0.786435	0.755953	0.042306
O19	O	0.753900	1.190001	0.011564
O20	O	0.744232	1.217608	-0.236491
O21	O	0.515512	1.188478	0.025240
O22	O	0.892569	0.794009	0.142589
O23	O	0.882902	0.821615	-0.105466
O24	O	0.654181	0.792486	0.156265
O25	O	0.882902	1.012321	-0.105466
O26	O	0.759304	0.983863	0.150234
O27	O	0.654182	0.983191	0.156264
O28	O	0.887165	1.000147	0.003919
O29	O	0.639111	1.367368	-0.230461
O30	O	0.759303	0.642725	0.150234
O31	O	0.892569	0.643577	0.142589
O32	O	0.887164	0.659010	0.003919
O33	O	0.511249	1.351084	-0.084146
O34	O	0.644515	1.351935	-0.091791
O35	O	0.743205	0.879404	0.080086
O36	O	0.818475	0.888991	-0.006048
O37	O	0.736842	1.122106	-0.083180
O38	O	0.661572	1.112519	0.002953
C39	C	0.699207	0.704942	-0.040113
C40	C	0.699206	0.603089	-0.040113
C41	C	0.736545	0.562435	-0.082841
C42	C	0.736546	0.457165	-0.082842
C43	C	0.489493	1.003707	-0.028082
C44	C	0.418318	1.003252	-0.023999
C45	C	0.382531	1.009749	-0.082344
C46	C	0.315657	1.009314	-0.078503
C47	C	0.284568	1.002393	-0.016321
C48	C	0.320361	0.995891	0.042029
C49	C	0.387237	0.996316	0.038191
C50	C	0.082765	1.000765	-0.001715
C51	C	0.015883	1.000345	0.002117
C52	C	0.011184	1.013765	-0.118415
C53	C	0.078059	1.014198	-0.122250
C54	C	0.113849	1.007689	-0.063898
C55	C	0.216210	1.001953	-0.012395
C56	C	0.182209	1.008120	-0.067821
C57	C	0.908921	1.006387	-0.052144
C58	C	0.980096	1.006842	-0.056227
C59	C	0.690703	1.029333	-0.258332
C60	C	0.687816	1.037575	-0.332393
C61	C	0.699207	1.305152	-0.040114
C62	C	0.699207	1.407005	-0.040114
C63	C	0.729072	0.919767	-0.326927
C64	C	0.726353	0.927520	-0.396518
C65	C	0.682383	1.053082	-0.471575
C66	C	0.641122	1.170899	-0.477039
C67	C	0.643837	1.163145	-0.407448
C68	C	0.672051	1.082581	-0.683707
C69	C	0.669342	1.090326	-0.753299
C70	C	0.754572	0.846946	-0.672774
C71	C	0.757286	0.839204	-0.603186
C72	C	0.716022	0.957020	-0.608656
C73	C	0.679605	1.061009	-0.542709
C74	C	0.718796	0.949092	-0.537522
C75	C	0.707711	0.980761	0.178105
C76	C	0.710598	0.972518	0.252167
C77	C	0.908921	0.706282	-0.052144
C78	C	0.980096	0.604884	-0.056227
C79	C	0.707711	0.680655	0.178106
C80	C	0.710597	0.570560	0.252167
C81	C	0.917425	0.681996	0.166075
C82	C	0.991486	0.572355	0.236053
C83	C	0.480989	1.328098	-0.246301
C84	C	0.406928	1.437739	-0.316280
C85	C	0.489493	1.303812	-0.028083
C86	C	0.418318	1.405210	-0.024000
C87	C	0.690703	1.329438	-0.258332
C88	C	0.687817	1.439533	-0.332394
C89	C	0.970908	0.561747	-0.098414
C90	C	1.037778	0.466488	-0.102266
C91	C	1.113834	0.414360	-0.063926
C92	C	1.123020	0.457505	-0.021738
C93	C	1.056151	0.552770	-0.017891
C94	C	0.754564	0.514377	0.327217
C95	C	0.757273	0.410943	0.396812
C96	C	0.716020	0.363688	0.391356
C97	C	0.672047	0.419882	0.316299
C98	C	0.669334	0.523320	0.246705
C99	C	1.065563	0.525871	0.223954
C100	C	1.135158	0.422866	0.289699
C101	C	1.130674	0.366341	0.367542
C102	C	1.056588	0.412834	0.379640
C103	C	0.986996	0.515844	0.313896
C104	C	0.332850	1.484234	-0.304181
C105	C	0.263256	1.587269	-0.369926
C106	C	0.267740	1.643799	-0.447769
C107	C	0.341825	1.597299	-0.459867
C108	C	0.411418	1.494273	-0.394122
C109	C	0.427505	1.448357	0.018180
C110	C	0.360635	1.543645	0.022013
C111	C	0.284579	1.595777	-0.016329
C112	C	0.275393	1.552627	-0.058514
C113	C	0.342262	1.457348	-0.062352
C114	C	0.729080	1.486755	-0.326912
C115	C	0.726383	1.590188	-0.396495
C116	C	0.682419	1.646404	-0.471558
C117	C	0.641155	1.599173	-0.477039
C118	C	0.643856	1.495735	-0.407457
H119	H	0.768510	0.422191	-0.119426
Br120	Br	0.810564	0.578478	0.334644
H121	H	0.230136	1.673359	-0.013198
Br122	Br	0.511948	1.431178	-0.410557
H123	H	0.633533	0.569052	0.185599
Br124	Br	0.326742	1.407533	-0.198544
H125	H	1.030283	0.431371	-0.136620
Br126	Br	-0.037389	1.022594	-0.197603
H127	H	0.667234	0.441984	-0.003535
H128	H	0.610251	1.457299	-0.411931
H129	H	0.295047	0.990247	0.092663
H130	H	0.610239	1.259077	-0.411904
H131	H	0.213459	1.595087	-0.089731
H132	H	1.168276	0.336788	-0.067065
H133	H	1.184953	0.415048	0.009476
Br134	Br	-0.026308	0.990959	0.086513
H135	H	1.069230	0.571879	0.160576
H136	H	0.764880	1.440999	-0.265798
Br137	Br	0.789834	0.634304	-0.143810
Br138	Br	0.347898	1.674031	-0.565517
Br139	Br	0.616018	1.242476	-0.691137
Br140	Br	0.267089	1.018124	-0.157684
H141	H	1.063642	0.587878	0.016467
Br142	Br	0.867697	0.632476	-0.150457
H143	H	0.759985	1.628632	-0.392017
Br144	Br	1.235691	0.359786	0.273263
Br145	Br	0.816955	0.334700	0.498665
H146	H	0.667242	0.559956	-0.003531
Br147	Br	0.719710	0.223305	0.485814
Br148	Br	1.225130	0.226541	0.456760
H149	H	0.605317	1.273134	-0.538156
Br150	Br	0.678760	1.786787	-0.565984
Br151	Br	1.050516	0.336107	0.485290
H152	H	0.638460	0.381391	0.311868
Br153	Br	0.788760	0.749353	-0.225069
Br154	Br	0.424711	1.019157	-0.166744
H155	H	0.103370	1.019834	-0.172884
H156	H	0.926682	0.553678	0.323758
H157	H	0.111899	0.995470	0.045797
Br158	Br	0.581485	1.675492	-0.578917
Br159	Br	0.435810	0.987486	0.117381
Br160	Br	0.609671	1.260744	-0.855166
Br161	Br	0.162723	1.650351	-0.353489
Br162	Br	0.778463	0.778691	-0.435660
H163	H	0.211067	1.727689	-0.501295
H164	H	0.368130	1.578761	0.056368
H165	H	0.207526	1.013748	-0.118448
Br166	Br	0.174015	0.992559	0.071995
Br167	Br	0.530716	1.377631	0.070221
H168	H	0.334771	1.422220	-0.096697
H169	H	0.759949	0.831588	-0.392061
H170	H	0.793094	0.736958	-0.542075
H171	H	0.788165	0.751027	-0.668330
H172	H	0.643807	1.163242	-0.603828
