data_functionalizedCrystal
_audit_creation_method	'MofGen! by Chris Wilmer'
_symmetry_space_group_name_H-M	'P1'
_symmetry_Int_Tables_number	1
_symmetry_cell_setting	triclinic
loop_
_symmetry_equiv_pos_as_xyz
  x,y,z
_cell_length_a	17.699083
_cell_length_b	14.044220
_cell_length_c	16.776229
_cell_angle_alpha	89.992645
_cell_angle_beta	89.998886
_cell_angle_gamma	88.235946
loop_
_atom_site_label
_atom_site_type_symbol
_atom_site_fract_x
_atom_site_fract_y
_atom_site_fract_z
O1	O	1.012346	0.119850	-0.066178
O2	O	1.512346	0.619850	0.433822
O3	O	0.793043	0.135443	-0.066204
O4	O	1.293043	0.635443	0.433796
O5	O	0.899403	-0.010330	-0.066183
O6	O	1.399403	0.489670	0.433817
O7	O	0.905986	0.265624	-0.066198
O8	O	1.405986	0.765624	0.433802
O9	O	0.899387	-0.010339	0.066393
O10	O	1.399387	0.489661	0.566393
O11	O	0.793027	0.135434	0.066372
O12	O	1.293027	0.635434	0.566372
O13	O	1.012330	0.119841	0.066399
O14	O	1.512330	0.619841	0.566399
Zn15	Zn	0.902676	0.127636	0.087435
Zn16	Zn	1.402676	0.627636	0.587435
Zn17	Zn	0.902697	0.127648	-0.087240
Zn18	Zn	1.402697	0.627648	0.412760
O19	O	0.905970	0.265615	0.066378
O20	O	1.405970	0.765615	0.566378
C21	C	0.764800	0.134880	0.000081
C22	C	1.264800	0.634880	0.500081
C23	C	0.680666	0.133204	0.000071
C24	C	1.180666	0.633204	0.500071
C25	C	0.637948	0.218769	0.000067
C26	C	1.137948	0.718769	0.500067
C27	C	0.558895	0.217189	0.000077
C28	C	1.058895	0.717189	0.500077
C29	C	0.522563	0.130041	0.000086
C30	C	1.022563	0.630041	0.500086
C31	C	0.565287	0.044469	0.000093
C32	C	1.065287	0.544469	0.500093
C33	C	0.644338	0.046050	0.000088
C34	C	1.144338	0.546050	0.500088
C35	C	0.246484	0.038089	0.000113
C36	C	0.746484	0.538089	0.500113
C37	C	0.167427	0.036514	0.000115
C38	C	0.667427	0.536514	0.500115
C39	C	0.161041	0.209227	0.000102
C40	C	0.661041	0.709227	0.500102
C41	C	0.240092	0.210809	0.000097
C42	C	0.740092	0.710809	0.500097
C43	C	0.282809	0.125237	0.000108
C44	C	0.782809	0.625237	0.500108
C45	C	0.368527	0.126952	0.000098
C46	C	0.868527	0.626952	0.500098
C47	C	0.436847	0.128325	0.000090
C48	C	0.936847	0.628325	0.500090
C49	C	0.896513	-0.045643	0.000105
C50	C	1.396513	0.454357	0.500105
C51	C	0.887917	-0.150849	0.000105
C52	C	1.387917	0.349151	0.500105
C53	C	0.872202	-0.343474	0.000091
C54	C	1.372202	0.156526	0.500091
C55	C	0.933168	-0.401248	0.000096
C56	C	1.433168	0.098752	0.500096
C57	C	0.924424	-0.508431	0.000089
C58	C	1.424424	-0.008431	0.500089
C59	C	0.880945	-0.236281	0.000099
C60	C	1.380945	0.263719	0.500099
C61	C	1.040574	0.120404	0.000112
C62	C	1.540574	0.620404	0.500112
C63	C	1.124707	0.122081	0.000117
C64	C	1.624707	0.622081	0.500117
C65	C	0.908860	0.300927	0.000088
C66	C	1.408860	0.800927	0.500088
C67	C	0.917456	0.406133	0.000083
C68	C	1.417456	0.906133	0.500083
N69	N	0.902667	0.127628	0.206646
N70	N	1.402667	0.627628	0.706646
N71	N	0.902712	0.127649	-0.206452
N72	N	1.402712	0.627649	0.293548
C73	C	0.949781	0.063106	0.248372
C74	C	1.449781	0.563106	0.748372
C75	C	0.949785	0.063105	0.331825
C76	C	1.449785	0.563105	0.831825
C77	C	0.902679	0.127631	0.373549
C78	C	1.402679	0.627631	0.873549
C79	C	0.855560	0.192156	0.331817
C80	C	1.355560	0.692156	0.831817
C81	C	0.855552	0.192152	0.248366
C82	C	1.355552	0.692152	0.748366
C83	C	0.855589	0.192175	0.668364
C84	C	1.355589	0.692175	1.168364
C85	C	0.855601	0.192176	0.751821
C86	C	1.355601	0.692176	1.251821
C87	C	0.949821	0.063128	0.751822
C88	C	1.449821	0.563128	1.251822
C89	C	0.949813	0.063123	0.668372
C90	C	1.449813	0.563123	1.168372
C91	C	0.902692	0.127645	0.626647
C92	C	1.402692	0.627645	1.126647
C93	C	0.902687	0.127644	0.536159
C94	C	1.402687	0.627644	1.036159
C95	C	0.902687	0.127638	0.464036
C96	C	1.402687	0.627638	0.964036
H97	H	0.524117	0.286865	0.000073
H98	H	1.024117	0.786865	0.500073
H99	H	0.991930	-0.370212	0.000050
H100	H	1.491930	0.129788	0.500050
C101	C	1.051272	0.042174	0.574342
C102	C	1.551272	0.542174	1.074342
C103	C	1.001455	-0.007892	0.622431
C104	C	1.501455	0.492108	1.122431
H105	H	1.083113	-0.001697	0.545962
H106	H	1.583113	0.498303	1.045962
H107	H	1.023210	0.080680	0.537615
H108	H	1.523210	0.580680	1.037615
H109	H	1.081287	0.081483	0.606841
H110	H	1.581287	0.581483	1.106841
H111	H	0.971435	-0.047195	0.589931
H112	H	1.471435	0.452805	1.089931
H113	H	1.029519	-0.046414	0.659163
H114	H	1.529519	0.453586	1.159163
H115	H	0.813445	-0.374508	0.000082
H116	H	1.313445	0.125492	0.500082
C117	C	0.037025	0.283508	0.000113
C118	C	0.537025	0.783508	0.500113
C119	C	0.114084	0.303293	0.000101
C120	C	0.614084	0.803293	0.500101
H121	H	0.008039	0.341580	0.000115
H122	H	0.508039	0.841580	0.500115
H123	H	0.025382	0.247775	-0.046112
H124	H	0.525382	0.747775	0.453888
H125	H	0.025393	0.247766	0.046353
H126	H	0.525393	0.747766	0.546353
H127	H	0.125717	0.339030	-0.046143
H128	H	0.625717	0.839030	0.453857
H129	H	0.125731	0.339041	0.046330
H130	H	0.625731	0.839041	0.546330
H131	H	0.988143	0.010565	0.214406
H132	H	1.488143	0.510565	0.714406
H133	H	0.988187	0.010588	0.785804
H134	H	1.488187	0.510588	1.285804
H135	H	0.988148	0.010565	0.365798
H136	H	1.488148	0.510565	0.865798
H137	H	0.679119	-0.023626	0.000091
H138	H	1.179119	0.476374	0.500091
H139	H	0.817239	0.244723	0.785791
H140	H	1.317239	0.744723	1.285791
C141	C	0.762463	0.319744	0.676757
C142	C	1.262463	0.819744	1.176757
C143	C	0.803800	0.263103	0.622507
C144	C	1.303800	0.763103	1.122507
H145	H	0.730493	0.363538	0.648442
H146	H	1.230493	0.863538	1.148442
H147	H	0.732586	0.280337	0.709313
H148	H	1.232586	0.780337	1.209313
H149	H	0.796277	0.353782	0.709297
H150	H	1.296277	0.853782	1.209297
H151	H	0.769986	0.229060	0.589971
H152	H	1.269986	0.729060	1.089971
H153	H	0.833679	0.302515	0.589937
H154	H	1.333679	0.802515	1.089937
C155	C	0.723148	0.320743	0.068200
C156	C	1.223148	0.820743	0.568200
C157	C	0.677884	0.314564	0.000053
C158	C	1.177884	0.814564	0.500053
H159	H	0.747804	0.379882	0.068188
H160	H	1.247804	0.879882	0.568188
H161	H	0.692444	0.316540	0.114426
H162	H	1.192444	0.816540	0.614426
H163	H	0.759901	0.270004	0.068192
H164	H	1.259901	0.770004	0.568192
H165	H	0.641127	0.365299	0.000064
H166	H	1.141127	0.865299	0.500064
H167	H	0.708590	0.318777	-0.046185
H168	H	1.208590	0.818777	0.453815
H169	H	0.817201	0.244692	0.365794
H170	H	1.317201	0.744692	0.865794
C171	C	0.762425	0.319724	0.256741
C172	C	1.262425	0.819724	0.756741
C173	C	0.803768	0.263081	0.202498
C174	C	1.303768	0.763081	0.702498
H175	H	0.730457	0.363515	0.228423
H176	H	1.230457	0.863515	0.728423
H177	H	0.732547	0.280318	0.289298
H178	H	1.232547	0.780318	0.789298
H179	H	0.796236	0.353765	0.289282
H180	H	1.296236	0.853765	0.789282
H181	H	0.769956	0.229034	0.169960
H182	H	1.269956	0.729034	0.669960
H183	H	0.833648	0.302492	0.169927
H184	H	1.333648	0.802492	0.669927
H185	H	0.269670	0.281773	0.000086
H186	H	0.769670	0.781773	0.500086
H187	H	0.281255	-0.031590	0.000123
H188	H	0.781255	0.468410	0.500123
C189	C	0.181676	-0.134063	0.000147
C190	C	0.681676	0.365937	0.500147
C191	C	0.127489	-0.059286	0.000134
C192	C	0.627489	0.440714	0.500134
H193	H	0.157018	-0.193201	0.000163
H194	H	0.657018	0.306799	0.500163
H195	H	0.212374	-0.129861	-0.046084
H196	H	0.712374	0.370139	0.453916
H197	H	0.212378	-0.129846	0.046382
H198	H	0.712378	0.370154	0.546382
H199	H	0.096791	-0.063499	-0.046104
H200	H	0.596791	0.436501	0.453896
H201	H	0.096778	-0.063490	0.046369
H202	H	0.596778	0.436510	0.546369
H203	H	0.535699	-0.026488	0.000112
H204	H	1.035699	0.473512	0.500112
