data_functionalizedCrystal
_audit_creation_method	'MofGen! by Chris Wilmer'
_symmetry_space_group_name_H-M	'P1'
_symmetry_Int_Tables_number	1
_symmetry_cell_setting	triclinic
loop_
_symmetry_equiv_pos_as_xyz
  x,y,z
_cell_length_a	16.625548
_cell_length_b	19.121063
_cell_length_c	16.625539
_cell_angle_alpha	87.589626
_cell_angle_beta	90.017055
_cell_angle_gamma	92.470058
loop_
_atom_site_label
_atom_site_type_symbol
_atom_site_fract_x
_atom_site_fract_y
_atom_site_fract_z
Zn1	Zn	1.218929	-0.279606	0.469578
Zn2	Zn	1.468929	-0.029606	0.719578
Zn3	Zn	1.718929	0.220394	0.969578
Zn4	Zn	1.968929	0.470394	1.219578
Zn5	Zn	1.213076	-0.397060	0.340487
Zn6	Zn	1.463076	-0.147060	0.590487
Zn7	Zn	1.713076	0.102940	0.840487
Zn8	Zn	1.963076	0.352940	1.090487
Zn9	Zn	1.084098	-0.279629	0.334759
Zn10	Zn	1.334098	-0.029629	0.584759
Zn11	Zn	1.584098	0.220371	0.834759
Zn12	Zn	1.834098	0.470371	1.084759
Zn13	Zn	1.078299	-0.397023	0.475275
Zn14	Zn	1.328299	-0.147023	0.725275
Zn15	Zn	1.578299	0.102977	0.975275
Zn16	Zn	1.828299	0.352977	1.225275
O17	O	1.148601	-0.338330	0.405025
O18	O	1.398601	-0.088330	0.655025
O19	O	1.648601	0.161670	0.905025
O20	O	1.898601	0.411670	1.155025
O21	O	1.330985	-0.295192	0.452466
O22	O	1.580985	-0.045192	0.702466
O23	O	1.830985	0.204808	0.952466
O24	O	2.080985	0.454808	1.202466
O25	O	1.195945	-0.381507	0.226896
O26	O	1.445945	-0.131507	0.476896
O27	O	1.695945	0.118493	0.726896
O28	O	1.945945	0.368493	0.976896
O29	O	1.106861	-0.181341	0.347862
O30	O	1.356861	0.068659	0.597862
O31	O	1.606861	0.318659	0.847862
O32	O	1.856861	0.568659	1.097862
O33	O	1.326685	-0.381485	0.357624
O34	O	1.576685	-0.131485	0.607624
O35	O	1.826685	0.118515	0.857624
O36	O	2.076685	0.368515	1.107624
O37	O	1.205920	-0.181324	0.446913
O38	O	1.455920	0.068676	0.696913
O39	O	1.705920	0.318676	0.946913
O40	O	1.955920	0.568676	1.196913
O41	O	1.101185	-0.295231	0.222688
O42	O	1.351185	-0.045231	0.472688
O43	O	1.601185	0.204769	0.722688
O44	O	1.851185	0.454769	0.972688
O45	O	0.970497	-0.295196	0.353386
O46	O	1.220497	-0.045196	0.603386
O47	O	1.470497	0.204804	0.853386
O48	O	1.720497	0.454804	1.103386
O49	O	1.096976	-0.381423	0.587350
O50	O	1.346976	-0.131423	0.837350
O51	O	1.596976	0.118577	1.087350
O52	O	1.846976	0.368577	1.337350
O53	O	0.966236	-0.381445	0.456622
O54	O	1.216236	-0.131445	0.706622
O55	O	1.466236	0.118555	0.956622
O56	O	1.716236	0.368555	1.206622
O57	O	1.200297	-0.295157	0.583165
O58	O	1.450297	-0.045157	0.833165
O59	O	1.700297	0.204843	1.083165
O60	O	1.950297	0.454843	1.333165
O61	O	1.190321	-0.495340	0.363148
O62	O	1.440321	-0.245340	0.613148
O63	O	1.690321	0.004660	0.863148
O64	O	1.940321	0.254660	1.113148
O65	O	1.091301	-0.495313	0.462176
O66	O	1.341301	-0.245313	0.712176
O67	O	1.591301	0.004687	0.962176
O68	O	1.841301	0.254687	1.212176
C69	C	0.939110	-0.338320	0.405002
C70	C	1.189110	-0.088320	0.655002
C71	C	1.439110	0.161680	0.905002
C72	C	1.689110	0.411680	1.155002
C73	C	0.849489	-0.338332	0.405012
C74	C	1.099489	-0.088332	0.655012
C75	C	1.349489	0.161668	0.905012
C76	C	1.599489	0.411668	1.155012
C77	C	0.521313	-0.338337	0.405046
C78	C	0.771313	-0.088337	0.655046
C79	C	1.021313	0.161663	0.905046
C80	C	1.271313	0.411663	1.155046
C81	C	0.612621	-0.338334	0.405034
C82	C	0.862621	-0.088334	0.655034
C83	C	1.112621	0.161666	0.905034
C84	C	1.362621	0.411666	1.155034
C85	C	0.685398	-0.338335	0.405028
C86	C	0.935398	-0.088335	0.655028
C87	C	1.185398	0.161665	0.905028
C88	C	1.435398	0.411665	1.155028
C89	C	0.776712	-0.338331	0.405017
C90	C	1.026712	-0.088331	0.655017
C91	C	1.276712	0.161669	0.905017
C92	C	1.526712	0.411669	1.155017
C93	C	1.139568	-0.520811	0.413919
C94	C	1.389568	-0.270811	0.663919
C95	C	1.639568	-0.020811	0.913919
C96	C	1.889568	0.229189	1.163919
C97	C	1.135778	-0.598877	0.417751
C98	C	1.385778	-0.348877	0.667751
C99	C	1.635778	-0.098877	0.917751
C100	C	1.885778	0.151123	1.167751
C101	C	1.185592	-0.635543	0.368035
C102	C	1.435592	-0.385543	0.618035
C103	C	1.685592	-0.135543	0.868035
C104	C	1.935592	0.114457	1.118035
C105	C	1.182032	-0.708894	0.371644
C106	C	1.432032	-0.458894	0.621644
C107	C	1.682032	-0.208894	0.871644
C108	C	1.932032	0.041106	1.121644
C109	C	1.128653	-0.745578	0.424965
C110	C	1.378653	-0.495578	0.674965
C111	C	1.628653	-0.245578	0.924965
C112	C	1.878653	0.004422	1.174965
C113	C	1.078837	-0.708907	0.474686
C114	C	1.328837	-0.458907	0.724686
C115	C	1.578837	-0.208907	0.974686
C116	C	1.828837	0.041093	1.224686
C117	C	1.082402	-0.635557	0.471081
C118	C	1.332402	-0.385557	0.721081
C119	C	1.582402	-0.135557	0.971081
C120	C	1.832402	0.114443	1.221081
C121	C	1.115313	-0.967048	0.438432
C122	C	1.365313	-0.717048	0.688432
C123	C	1.615313	-0.467048	0.938432
C124	C	1.865313	-0.217048	1.188432
C125	C	1.111750	-1.040404	0.442031
C126	C	1.361750	-0.790404	0.692031
C127	C	1.611750	-0.540404	0.942031
C128	C	1.861750	-0.290404	1.192031
C129	C	1.214946	-1.040386	0.338990
C130	C	1.464946	-0.790386	0.588990
C131	C	1.714946	-0.540386	0.838990
C132	C	1.964946	-0.290386	1.088990
C133	C	1.218503	-0.967035	0.335386
C134	C	1.468503	-0.717035	0.585386
C135	C	1.718503	-0.467035	0.835386
C136	C	1.968503	-0.217035	1.085386
C137	C	1.168690	-0.930370	0.385110
C138	C	1.418690	-0.680370	0.635110
C139	C	1.668690	-0.430370	0.885110
C140	C	1.918690	-0.180370	1.135110
C141	C	1.125011	-0.820555	0.428653
C142	C	1.375011	-0.570555	0.678653
C143	C	1.625011	-0.320555	0.928653
C144	C	1.875011	-0.070555	1.178653
C145	C	1.172336	-0.855394	0.381425
C146	C	1.422336	-0.605394	0.631425
C147	C	1.672336	-0.355394	0.881425
C148	C	1.922336	-0.105394	1.131425
C149	C	1.358909	-0.338340	0.405048
C150	C	1.608909	-0.088340	0.655048
C151	C	1.858909	0.161660	0.905048
C152	C	2.108909	0.411660	1.155048
C153	C	1.448530	-0.338345	0.405058
C154	C	1.698530	-0.088345	0.655058
C155	C	1.948530	0.161655	0.905058
C156	C	2.198530	0.411655	1.155058
C157	C	1.148642	-0.338283	0.615331
C158	C	1.398642	-0.088283	0.865331
C159	C	1.648642	0.161717	1.115331
C160	C	1.898642	0.411717	1.365331
C161	C	1.148660	-0.338264	0.704952
C162	C	1.398660	-0.088264	0.954952
C163	C	1.648660	0.161736	1.204952
C164	C	1.898660	0.411736	1.454952
C165	C	1.157690	-0.155136	0.396113
C166	C	1.407690	0.094864	0.646113
C167	C	1.657690	0.344864	0.896113
C168	C	1.907690	0.594864	1.146113
C169	C	1.161564	-0.077070	0.392316
C170	C	1.411564	0.172930	0.642316
C171	C	1.661564	0.422930	0.892316
C172	C	1.911564	0.672930	1.142316
C173	C	1.148608	-0.338325	0.195534
C174	C	1.398608	-0.088325	0.445534
C175	C	1.648608	0.161675	0.695534
C176	C	1.898608	0.411675	0.945534
C177	C	1.148756	-0.338147	0.105904
C178	C	1.398756	-0.088147	0.355904
C179	C	1.648756	0.161853	0.605904
C180	C	1.898756	0.411853	0.855904
C181	C	1.148674	-0.338248	0.777733
C182	C	1.398674	-0.088248	1.027733
C183	C	1.648674	0.161752	1.277733
C184	C	1.898674	0.411752	1.527733
C185	C	1.148694	-0.338222	0.869041
C186	C	1.398694	-0.088222	1.119041
C187	C	1.648694	0.161778	1.369041
C188	C	1.898694	0.411778	1.619041
C189	C	1.148715	-0.338197	0.941816
C190	C	1.398715	-0.088197	1.191816
C191	C	1.648715	0.161803	1.441816
C192	C	1.898715	0.411803	1.691816
C193	C	1.148736	-0.338172	1.033129
C194	C	1.398736	-0.088172	1.283129
C195	C	1.648736	0.161828	1.533129
C196	C	1.898736	0.411828	1.783129
H197	H	1.222595	-0.738745	0.331160
H198	H	1.472595	-0.488745	0.581160
H199	H	1.722595	-0.238745	0.831160
H200	H	1.972595	0.011255	1.081160
O201	O	1.268687	-1.079940	0.285387
O202	O	1.518687	-0.829940	0.535387
O203	O	1.768687	-0.579940	0.785387
O204	O	2.018687	-0.329940	1.035387
H205	H	1.231010	-1.113422	0.245978
H206	H	1.481010	-0.863422	0.495978
H207	H	1.731010	-0.613422	0.745978
H208	H	1.981010	-0.363422	0.995978
H209	H	1.261968	-0.937168	0.291968
H210	H	1.511968	-0.687168	0.541968
H211	H	1.761968	-0.437168	0.791968
H212	H	2.011968	-0.187168	1.041968
H213	H	1.068292	-1.070270	0.485466
H214	H	1.318292	-0.820270	0.735466
H215	H	1.568292	-0.570270	0.985466
H216	H	1.818292	-0.320270	1.235466
O217	O	1.061564	-0.927506	0.492035
O218	O	1.311564	-0.677506	0.742035
O219	O	1.561564	-0.427506	0.992035
O220	O	1.811564	-0.177506	1.242035
H221	H	1.023835	-0.965340	0.529702
H222	H	1.273835	-0.715340	0.779702
H223	H	1.523835	-0.465340	1.029702
H224	H	1.773835	-0.215340	1.279702
O225	O	1.021253	-0.748467	0.532190
O226	O	1.271253	-0.498467	0.782190
O227	O	1.521253	-0.248467	1.032190
O228	O	1.771253	0.001533	1.282190
H229	H	1.027132	-0.805633	0.526336
H230	H	1.277132	-0.555633	0.776336
H231	H	1.527132	-0.305633	1.026336
H232	H	1.777132	-0.055633	1.276336
H233	H	1.041839	-0.605704	0.511566
H234	H	1.291839	-0.355704	0.761566
H235	H	1.541839	-0.105704	1.011566
H236	H	1.791839	0.144296	1.261566
O237	O	1.229918	-0.815828	0.323929
O238	O	1.479918	-0.565828	0.573929
O239	O	1.729918	-0.315828	0.823929
O240	O	1.979918	-0.065828	1.073929
H241	H	1.195479	-0.782459	0.281233
H242	H	1.445479	-0.532459	0.531233
H243	H	1.695479	-0.282459	0.781233
H244	H	1.945479	-0.032459	1.031233
O245	O	1.067426	-0.860128	0.486146
O246	O	1.317426	-0.610128	0.736146
O247	O	1.567426	-0.360128	0.986146
O248	O	1.817426	-0.110128	1.236146
H249	H	1.101862	-0.893503	0.528838
H250	H	1.351862	-0.643503	0.778838
H251	H	1.601862	-0.393503	1.028838
H252	H	1.851862	-0.143503	1.278838
H253	H	1.229055	-0.605680	0.324612
H254	H	1.479055	-0.355680	0.574612
H255	H	1.729055	-0.105680	0.824612
H256	H	1.979055	0.144320	1.074612
