data_functionalizedCrystal
_audit_creation_method	'MofGen! by Chris Wilmer'
_symmetry_space_group_name_H-M	'P1'
_symmetry_Int_Tables_number	1
_symmetry_cell_setting	triclinic
loop_
_symmetry_equiv_pos_as_xyz
  x,y,z
_cell_length_a	16.625548
_cell_length_b	16.625539
_cell_length_c	16.625545
_cell_angle_alpha	89.971893
_cell_angle_beta	90.026626
_cell_angle_gamma	89.979432
loop_
_atom_site_label
_atom_site_type_symbol
_atom_site_fract_x
_atom_site_fract_y
_atom_site_fract_z
Zn1	Zn	1.232663	-0.455910	-0.320977
Zn2	Zn	1.565996	-0.122577	0.012356
Zn3	Zn	1.899330	0.210756	0.345689
Zn4	Zn	1.232559	-0.321078	-0.455820
Zn5	Zn	1.565892	0.012255	-0.122487
Zn6	Zn	1.899226	0.345589	0.210846
Zn7	Zn	1.097825	-0.321091	-0.321008
Zn8	Zn	1.431158	0.012242	0.012325
Zn9	Zn	1.764492	0.345576	0.345659
Zn10	Zn	1.097788	-0.455868	-0.455774
Zn11	Zn	1.431121	-0.122535	-0.122441
Zn12	Zn	1.764455	0.210799	0.210893
O13	O	1.165209	-0.388487	-0.388395
O14	O	1.498542	-0.055154	-0.055062
O15	O	1.831875	0.278180	0.278272
O16	O	1.345482	-0.438037	-0.338871
O17	O	1.678815	-0.104704	-0.005538
O18	O	2.012148	0.228630	0.327796
O19	O	1.214658	-0.208247	-0.437969
O20	O	1.547992	0.125086	-0.104636
O21	O	1.881325	0.458419	0.228697
O22	O	1.115771	-0.338998	-0.208171
O23	O	1.449104	-0.005665	0.125162
O24	O	1.782437	0.327668	0.458495
O25	O	1.345405	-0.338976	-0.437940
O26	O	1.678739	-0.005643	-0.104606
O27	O	2.012072	0.327690	0.228727
O28	O	1.214836	-0.438050	-0.208149
O29	O	1.548169	-0.104716	0.125184
O30	O	1.881502	0.228617	0.458518
O31	O	1.115670	-0.208257	-0.338923
O32	O	1.449003	0.125077	-0.005590
O33	O	1.782336	0.458410	0.327743
O34	O	0.984988	-0.338957	-0.338878
O35	O	1.318321	-0.005624	-0.005545
O36	O	1.651654	0.327710	0.327788
O37	O	1.115708	-0.568706	-0.437861
O38	O	1.449041	-0.235373	-0.104527
O39	O	1.782374	0.097961	0.228806
O40	O	0.984961	-0.437977	-0.437891
O41	O	1.318294	-0.104644	-0.104557
O42	O	1.651627	0.228690	0.228776
O43	O	1.214800	-0.568737	-0.338826
O44	O	1.548133	-0.235404	-0.005493
O45	O	1.881466	0.097929	0.327841
O46	O	1.214622	-0.338935	-0.568647
O47	O	1.547956	-0.005602	-0.235313
O48	O	1.881289	0.327732	0.098020
O49	O	1.115607	-0.437965	-0.568613
O50	O	1.448940	-0.104631	-0.235279
O51	O	1.782273	0.228702	0.098054
C52	C	0.955718	-0.388464	-0.388383
C53	C	1.289051	-0.055131	-0.055050
C54	C	1.622385	0.278202	0.278283
C55	C	0.866097	-0.388474	-0.388398
C56	C	1.199430	-0.055140	-0.055065
C57	C	1.532764	0.278193	0.278269
C58	C	0.537921	-0.388508	-0.388403
C59	C	0.871255	-0.055175	-0.055070
C60	C	1.204588	0.278158	0.278264
C61	C	0.629230	-0.388496	-0.388399
C62	C	0.962563	-0.055163	-0.055066
C63	C	1.295896	0.278171	0.278267
C64	C	0.702006	-0.388490	-0.388401
C65	C	1.035339	-0.055157	-0.055068
C66	C	1.368673	0.278176	0.278266
C67	C	0.793320	-0.388480	-0.388396
C68	C	1.126654	-0.055146	-0.055063
C69	C	1.459987	0.278187	0.278270
C70	C	1.165261	-0.598796	-0.388335
C71	C	1.498595	-0.265463	-0.055001
C72	C	1.831928	0.067871	0.278332
C73	C	1.165284	-0.688417	-0.388309
C74	C	1.498617	-0.355084	-0.054976
C75	C	1.831950	-0.021750	0.278357
C76	C	1.165321	-1.016593	-0.388219
C77	C	1.498654	-0.683260	-0.054886
C78	C	1.831987	-0.349926	0.278448
C79	C	1.165308	-0.925284	-0.388247
C80	C	1.498642	-0.591951	-0.054913
C81	C	1.831975	-0.258618	0.278420
C82	C	1.165303	-0.852508	-0.388265
C83	C	1.498636	-0.519175	-0.054931
C84	C	1.831969	-0.185841	0.278402
C85	C	1.165289	-0.761194	-0.388291
C86	C	1.498623	-0.427860	-0.054958
C87	C	1.831956	-0.094527	0.278376
C88	C	1.375518	-0.388510	-0.388407
C89	C	1.708851	-0.055177	-0.055074
C90	C	2.042184	0.278157	0.278260
C91	C	1.465139	-0.388520	-0.388412
C92	C	1.798472	-0.055186	-0.055079
C93	C	2.131805	0.278147	0.278254
C94	C	1.165121	-0.388462	-0.597886
C95	C	1.498455	-0.055128	-0.264552
C96	C	1.831788	0.278205	0.068781
C97	C	1.165158	-0.388478	-0.687507
C98	C	1.498491	-0.055144	-0.354174
C99	C	1.831824	0.278189	-0.020840
C100	C	1.165203	-0.178996	-0.388397
C101	C	1.498536	0.154337	-0.055063
C102	C	1.831870	0.487671	0.278270
C103	C	1.165337	-0.089375	-0.388195
C104	C	1.498670	0.243958	-0.054862
C105	C	1.832004	0.577291	0.278472
C106	C	1.165189	-0.388494	-0.760289
C107	C	1.498522	-0.055160	-0.426956
C108	C	1.831855	0.278173	-0.093623
C109	C	1.165236	-0.388511	-0.851598
C110	C	1.498569	-0.055178	-0.518264
C111	C	1.831902	0.278155	-0.184931
C112	C	1.165278	-0.388522	-0.924374
C113	C	1.498611	-0.055188	-0.591041
C114	C	1.831944	0.278145	-0.257707
C115	C	1.165324	-0.388538	-1.015688
C116	C	1.498657	-0.055205	-0.682355
C117	C	1.831990	0.278128	-0.349022
C118	C	1.165319	-0.388530	-0.178086
C119	C	1.498652	-0.055197	0.155247
C120	C	1.831985	0.278137	0.488581
C121	C	1.165366	-0.388548	-0.088465
C122	C	1.498699	-0.055215	0.244869
C123	C	1.832032	0.278118	0.578202
