data_functionalizedCrystal
_audit_creation_method	'MofGen! by Chris Wilmer'
_symmetry_space_group_name_H-M	'P1'
_symmetry_Int_Tables_number	1
_symmetry_cell_setting	triclinic
loop_
_symmetry_equiv_pos_as_xyz
  x,y,z
_cell_length_a	12.759401
_cell_length_b	12.594516
_cell_length_c	12.759393
_cell_angle_alpha	90.029726
_cell_angle_beta	90.020938
_cell_angle_gamma	90.013340
loop_
_atom_site_label
_atom_site_type_symbol
_atom_site_fract_x
_atom_site_fract_y
_atom_site_fract_z
Zn1	Zn	1.606287	-0.423647	0.594026
Zn2	Zn	2.106287	0.076353	1.094026
Zn3	Zn	1.606187	-0.601663	0.418348
Zn4	Zn	2.106187	-0.101663	0.918348
Zn5	Zn	1.430586	-0.423704	0.418361
Zn6	Zn	1.930586	0.076296	0.918361
Zn7	Zn	1.430587	-0.601589	0.593985
Zn8	Zn	1.930587	-0.101589	1.093985
O9	O	1.518412	-0.512651	0.506180
O10	O	2.018412	-0.012651	1.006180
O11	O	1.753295	-0.447269	0.570733
O12	O	2.253295	0.052731	1.070733
O13	O	1.582851	-0.578111	0.271329
O14	O	2.082851	-0.078111	0.771329
O15	O	1.453935	-0.274751	0.441685
O16	O	1.953935	0.225249	0.941685
O17	O	1.753222	-0.578056	0.441664
O18	O	2.253222	-0.078056	0.941664
O19	O	1.583022	-0.274709	0.570746
O20	O	2.083022	0.225291	1.070746
O21	O	1.453838	-0.447365	0.271338
O22	O	1.953838	0.052635	0.771338
O23	O	1.283565	-0.447293	0.441646
O24	O	1.783565	0.052707	0.941646
O25	O	1.453936	-0.577930	0.741012
O26	O	1.953936	-0.077930	1.241012
O27	O	1.283566	-0.577985	0.570677
O28	O	1.783566	-0.077985	1.070677
O29	O	1.583023	-0.447197	0.741042
O30	O	2.083023	0.052803	1.241042
O31	O	1.582852	-0.750599	0.441625
O32	O	2.082852	-0.250599	0.941625
O33	O	1.453839	-0.750545	0.570665
O34	O	1.953839	-0.250545	1.070665
C35	C	1.245445	-0.512638	0.506159
C36	C	1.745445	-0.012638	1.006159
C37	C	1.128668	-0.512658	0.506175
C38	C	1.628668	-0.012658	1.006175
C39	C	1.073834	-0.580812	0.573256
C40	C	1.573834	-0.080812	1.073256
C41	C	0.964110	-0.580816	0.573277
C42	C	1.464110	-0.080816	1.073277
C43	C	0.964064	-0.444509	0.439127
C44	C	1.464064	0.055491	0.939127
C45	C	1.073786	-0.444500	0.439113
C46	C	1.573786	0.055500	0.939113
C47	C	1.518363	-0.789192	0.506162
C48	C	2.018363	-0.289192	1.006162
C49	C	1.518439	-0.907497	0.506189
C50	C	2.018439	-0.407497	1.006189
C51	C	1.588690	-0.976741	0.436079
C52	C	2.088690	-0.476741	0.936079
C53	C	1.614368	-1.047434	0.531972
C54	C	2.114368	-0.547434	1.031972
C55	C	1.492893	-1.047603	0.410357
C56	C	1.992893	-0.547603	0.910357
C57	C	1.544165	-0.976632	0.602133
C58	C	2.044165	-0.476632	1.102133
C59	C	1.422645	-0.976795	0.480453
C60	C	1.922645	-0.476795	0.980453
C61	C	1.448286	-1.047456	0.576412
C62	C	1.948286	-0.547456	1.076412
C63	C	1.792445	-0.512665	0.506202
C64	C	2.292445	-0.012665	1.006202
C65	C	1.909222	-0.512671	0.506211
C66	C	2.409222	-0.012671	1.006211
C67	C	1.518491	-0.512549	0.780214
C68	C	2.018491	-0.012549	1.280214
C69	C	1.518524	-0.512505	0.896990
C70	C	2.018524	-0.012505	1.396990
C71	C	1.518489	-0.235030	0.506221
C72	C	2.018489	0.264970	1.006221
C73	C	1.518522	-0.116725	0.506239
C74	C	2.018522	0.383275	1.006239
C75	C	1.518394	-0.512676	0.233213
C76	C	2.018394	-0.012676	0.733213
C77	C	1.518564	-0.512420	0.116437
C78	C	2.018564	-0.012420	0.616437
C79	C	1.585744	-0.444422	0.951869
C80	C	2.085744	0.055578	1.451869
C81	C	1.585762	-0.444376	1.061594
C82	C	2.085762	0.055624	1.561594
C83	C	1.451336	-0.580506	1.061550
C84	C	1.951336	-0.080506	1.561550
C85	C	1.451314	-0.580546	0.951828
C86	C	1.951314	-0.080546	1.451828
H87	H	1.118433	-0.388994	0.384488
H88	H	1.618433	0.111006	0.884488
H89	H	0.919469	-0.636313	0.627902
H90	H	1.419469	-0.136313	1.127902
C91	C	0.903690	-0.369553	0.365353
C92	C	1.403690	0.130447	0.865353
H93	H	0.830490	-0.379327	0.374959
H94	H	1.330490	0.120673	0.874959
H95	H	0.921687	-0.298054	0.380842
H96	H	1.421687	0.201946	0.880842
H97	H	0.921638	-0.385054	0.294732
H98	H	1.421638	0.114946	0.794732
C99	C	1.134201	-0.655773	0.647031
C100	C	1.634201	-0.155773	1.147031
H101	H	1.085825	-0.696355	0.686991
H102	H	1.585825	-0.196355	1.186991
H103	H	1.176978	-0.702099	0.606762
H104	H	1.676978	-0.202099	1.106762
H105	H	1.177030	-0.615100	0.692874
H106	H	1.677030	-0.115100	1.192874
C107	C	1.668954	-0.934783	0.356060
C108	C	2.168954	-0.434783	0.856060
H109	H	1.737014	-0.958968	0.374541
H110	H	2.237014	-0.458968	0.874541
H111	H	1.651446	-0.960123	0.288138
H112	H	2.151446	-0.460123	0.788138
H113	H	1.667930	-0.859360	0.356157
H114	H	2.167930	-0.359360	0.856157
H115	H	1.396568	-0.635987	0.907144
H116	H	1.896568	-0.135987	1.407144
H117	H	1.640468	-0.389016	0.907224
H118	H	2.140468	0.110984	1.407224
H119	H	1.695414	-1.078466	0.553769
H120	H	2.195414	-0.578466	1.053769
C121	C	1.573538	-0.934706	0.711673
C122	C	2.073538	-0.434706	1.211673
H123	H	1.573366	-0.859277	0.710976
H124	H	2.073366	-0.359277	1.210976
H125	H	1.523980	-0.959482	0.761534
H126	H	2.023980	-0.459482	1.261534
H127	H	1.641410	-0.959479	0.730077
H128	H	2.141410	-0.459479	1.230077
H129	H	1.640498	-0.388934	1.106271
H130	H	2.140498	0.111066	1.606271
C131	C	1.368082	-1.089148	0.656622
C132	C	1.868082	-0.589148	1.156622
H133	H	1.386431	-1.064713	0.724654
H134	H	1.886431	-0.564713	1.224654
H135	H	1.300208	-1.063891	0.638904
H136	H	1.800208	-0.563891	1.138904
H137	H	1.368145	-1.164574	0.655807
H138	H	1.868145	-0.664574	1.155807
C139	C	1.313196	-0.934830	0.450969
C140	C	1.813196	-0.434830	0.950969
H141	H	1.295117	-0.959089	0.382804
H142	H	1.795117	-0.459089	0.882804
H143	H	1.263144	-0.960095	0.500093
H144	H	1.763144	-0.460095	1.000093
H145	H	1.313812	-0.859407	0.451794
H146	H	1.813812	-0.359407	0.951794
H147	H	1.396619	-0.635905	1.106212
H148	H	1.896619	-0.135905	1.606212
H149	H	1.471251	-1.078777	0.329293
H150	H	1.971251	-0.578777	0.829293
