data_functionalizedCrystal
_audit_creation_method	'MofGen! by Chris Wilmer'
_symmetry_space_group_name_H-M	'P1'
_symmetry_Int_Tables_number	1
_symmetry_cell_setting	triclinic
loop_
_symmetry_equiv_pos_as_xyz
  x,y,z
_cell_length_a	16.053934
_cell_length_b	17.699083
_cell_length_c	17.699083
_cell_angle_alpha	96.716985
_cell_angle_beta	92.570138
_cell_angle_gamma	92.566513
loop_
_atom_site_label
_atom_site_type_symbol
_atom_site_fract_x
_atom_site_fract_y
_atom_site_fract_z
O1	O	0.069313	-1.000890	0.098897
O2	O	0.069341	-0.780510	0.111351
O3	O	0.069319	-0.896926	-0.005066
O4	O	0.069335	-0.884473	0.215313
O5	O	-0.069539	-0.903299	-0.011451
O6	O	-0.069517	-0.786883	0.104965
O7	O	-0.069544	-1.007263	0.092511
Zn8	Zn	-0.091577	-0.898085	0.097724
Zn9	Zn	0.091374	-0.889688	0.106138
O10	O	-0.069522	-0.890846	0.208928
C11	C	-0.000084	-0.755499	0.107712
C12	C	-0.000074	-0.671481	0.106374
N13	N	-0.216436	-0.903821	0.091982
C14	C	-0.260141	-0.854276	0.141499
C15	C	-0.347547	-0.858310	0.137479
C16	C	-0.391246	-0.911887	0.083937
C17	C	-0.347535	-0.961437	0.034418
C18	C	-0.260131	-0.957405	0.038442
C19	C	-0.652652	-0.929476	0.066379
C20	C	-0.740062	-0.933503	0.062357
C21	C	-0.740068	-0.830377	0.165419
C22	C	-0.652662	-0.826347	0.169436
C23	C	-0.608959	-0.875900	0.119919
N24	N	-0.480589	-0.916011	0.079825
N25	N	-0.519617	-0.871779	0.124036
C26	C	-0.000110	-0.899667	-0.036456
C27	C	-0.000110	-0.898328	-0.120474
N28	N	0.216233	-0.883958	0.111874
C29	C	-0.000117	-1.032273	0.096150
C30	C	-0.000122	-1.116291	0.097489
C31	C	-0.000069	-0.622860	0.174707
C32	C	-0.000080	-0.543917	0.173445
C33	C	-0.000090	-0.513596	0.103848
C34	C	-0.000097	-0.562224	0.035509
C35	C	-0.000092	-0.641165	0.036772
C36	C	-0.000118	-0.243862	0.030412
C37	C	-0.000121	-0.164914	0.029154
C38	C	-0.000106	-0.146613	0.167085
C39	C	-0.000101	-0.225555	0.168348
C40	C	-0.000113	-0.274175	0.100010
C41	C	-0.000103	-0.359774	0.101380
C42	C	-0.000094	-0.427999	0.102477
C43	C	-0.000120	-0.966662	-0.169095
C44	C	-0.000112	-0.965399	-0.248038
C45	C	-0.000101	-0.895802	-0.278358
C46	C	-0.000089	-0.827463	-0.229731
C47	C	-0.000090	-0.828726	-0.150789
C48	C	-0.000081	-0.822368	-0.548093
C49	C	-0.000082	-0.821110	-0.627041
C50	C	-0.000103	-0.959041	-0.645342
C51	C	-0.000105	-0.960304	-0.566401
C52	C	-0.000088	-0.891965	-0.517780
C53	C	-0.000095	-0.893335	-0.432181
C54	C	-0.000100	-0.894432	-0.363956
C55	C	-0.000092	-0.888106	0.240318
C56	C	-0.000086	-0.889444	0.324336
H57	H	-0.224567	-0.810645	0.185095
C58	C	-0.000072	-0.490436	0.248612
H59	H	-0.000055	-0.519800	0.290242
H60	H	-0.048497	-0.461491	0.248764
H61	H	0.048354	-0.457031	0.253210
H62	H	-0.000117	-0.537531	-0.021159
H63	H	-0.000090	-0.250236	0.225021
C64	C	-0.395601	-1.020369	-0.024478
H65	H	-0.453916	-1.015669	-0.019789
H66	H	-0.381272	-1.070203	-0.015663
H67	H	-0.381277	-1.011578	-0.074323
H68	H	-0.000075	-0.764432	-0.651724
H69	H	-0.383131	-0.817968	0.177800
C70	C	-0.000089	-0.694648	-0.038394
H71	H	-0.000087	-0.665286	-0.080025
H72	H	-0.048509	-0.728056	-0.042998
H73	H	0.048343	-0.723591	-0.038538
H74	H	-0.000128	-0.283440	-0.025233
C75	C	-0.000104	-0.093129	0.242257
H76	H	-0.000118	-0.041771	0.231541
H77	H	0.048322	-0.100075	0.273027
H78	H	-0.048529	-0.104539	0.268573
C79	C	-0.000132	-1.043220	-0.135750
H80	H	-0.000129	-1.083735	-0.176016
H81	H	-0.048555	-1.048804	-0.107565
H82	H	0.048296	-1.044356	-0.103106
H83	H	-0.000074	-0.770796	-0.254423
C84	C	-0.212055	-1.011902	-0.016029
H85	H	-0.250597	-1.044384	-0.048498
H86	H	-0.177953	-1.041782	0.012729
H87	H	-0.177965	-0.983160	-0.045935
H88	H	-0.000061	-0.647540	0.231381
H89	H	-0.000130	-0.140231	-0.027523
H90	H	-0.000122	-1.021044	-0.287623
C91	C	-0.604599	-0.767416	0.228335
H92	H	-0.643148	-0.738490	0.257255
H93	H	-0.570507	-0.734392	0.202717
H94	H	-0.570500	-0.793014	0.261380
C95	C	-0.000114	-1.036860	-0.533052
H96	H	-0.000110	-1.077377	-0.573316
H97	H	-0.048535	-1.042444	-0.504865
H98	H	0.048316	-1.037992	-0.500409
C99	C	-0.000112	-1.034215	-0.698824
H100	H	-0.000129	-1.075844	-0.669459
H101	H	0.048311	-1.034372	-0.727769
H102	H	-0.048540	-1.038810	-0.732229
C103	C	-0.000078	-0.747199	-0.494621
H104	H	-0.000082	-0.705571	-0.523988
H105	H	0.048343	-0.742594	-0.461213
H106	H	-0.048508	-0.747050	-0.465679
C107	C	-0.000079	-0.753561	-0.097302
H108	H	-0.000073	-0.764280	-0.045945
H109	H	-0.048496	-0.727235	-0.108706
H110	H	0.048356	-0.722799	-0.104251
H111	H	-0.775660	-0.790034	0.205734
H112	H	-0.775638	-0.977133	0.018754
H113	H	-0.617075	-0.969823	0.026059
