data_functionalizedCrystal
_audit_creation_method	'MofGen! by Chris Wilmer'
_symmetry_space_group_name_H-M	'P1'
_symmetry_Int_Tables_number	1
_symmetry_cell_setting	triclinic
loop_
_symmetry_equiv_pos_as_xyz
  x,y,z
_cell_length_a	20.016444
_cell_length_b	12.970454
_cell_length_c	12.970454
_cell_angle_alpha	59.999644
_cell_angle_beta	90.001406
_cell_angle_gamma	60.002422
loop_
_atom_site_label
_atom_site_type_symbol
_atom_site_fract_x
_atom_site_fract_y
_atom_site_fract_z
Zr1	Zr	0.643580	1.128569	-0.135307
O2	O	0.536907	1.343653	-0.299932
O3	O	0.676281	0.913480	-0.084840
O4	O	0.676280	1.128572	-0.299932
O5	O	0.536908	1.128560	0.084827
O6	O	0.786220	1.128580	-0.299932
O7	O	0.536908	1.128561	-0.084841
O8	O	0.786221	0.743820	0.084828
O9	O	0.536907	1.513320	-0.299933
O10	O	0.772274	1.001957	-0.063317
O11	O	0.690228	1.001951	0.063304
O12	O	0.690227	1.255194	-0.189939
O13	O	0.608181	1.255187	-0.063318
Zr14	Zr	0.818922	1.128581	0.135293
Zr15	Zr	0.818921	1.128582	-0.135307
Zr16	Zr	0.643581	1.128568	0.135293
Zr17	Zr	0.643580	1.399169	-0.135308
Zr18	Zr	0.818922	0.857981	0.135294
O19	O	0.786221	1.343669	0.084825
O20	O	0.786220	1.343671	-0.299933
O21	O	0.536908	1.343651	0.084826
O22	O	0.925595	0.913497	0.299918
O23	O	0.925594	0.913499	-0.084840
O24	O	0.676282	0.913478	0.299919
O25	O	0.925594	1.128590	-0.084841
O26	O	0.786222	1.128577	0.299917
O27	O	0.676282	1.128569	0.299917
O28	O	0.925594	1.128589	0.084826
O29	O	0.676280	1.513331	-0.299934
O30	O	0.786222	0.743819	0.299919
O31	O	0.925595	0.743829	0.299919
O32	O	0.925594	0.743831	0.084828
O33	O	0.536908	1.513319	-0.084843
O34	O	0.676281	1.513329	-0.084843
O35	O	0.772275	1.001956	0.189925
O36	O	0.854322	1.001963	0.063304
O37	O	0.772274	1.255199	-0.063318
O38	O	0.690228	1.255192	0.063303
C39	C	0.731251	0.790096	-0.000006
C40	C	0.731251	0.675219	-0.000005
C41	C	0.511926	1.128559	-0.000007
C42	C	0.437489	1.128553	-0.000007
C43	C	0.309049	0.996383	0.066092
C44	C	0.239104	0.996389	0.066095
C45	C	0.153454	1.260777	-0.066108
C46	C	0.223399	1.260769	-0.066103
C47	C	0.301196	1.128568	-0.000006
C48	C	0.161306	1.128582	-0.000008
C49	C	0.085468	1.128589	-0.000005
C50	C	0.377039	1.128560	-0.000007
C51	C	0.950576	1.128591	-0.000008
C52	C	1.025013	1.128597	-0.000008
C53	C	0.731250	1.128577	-0.338486
C54	C	0.731250	1.128577	-0.453363
C55	C	0.731251	1.467054	-0.000009
C56	C	0.731251	1.581931	-0.000010
C57	C	0.731252	1.128573	0.338472
C58	C	0.731252	1.128573	0.453349
C59	C	0.950576	0.790112	-0.000006
C60	C	1.025013	0.675241	-0.000006
C61	C	0.731252	0.790094	0.338474
C62	C	0.731252	0.675217	0.453351
C63	C	0.950577	0.790110	0.338473
C64	C	1.025015	0.675238	0.453350
C65	C	0.511925	1.467040	-0.338488
C66	C	0.437487	1.581911	-0.453365
C67	C	0.511926	1.467038	-0.000009
C68	C	0.437489	1.581909	-0.000009
C69	C	0.731250	1.467056	-0.338488
C70	C	0.731250	1.581933	-0.453366
C71	C	1.017142	0.621293	-0.066111
C72	C	1.087077	0.513374	-0.066136
C73	C	1.164882	0.459398	-0.000047
C74	C	1.172752	0.513356	0.066061
C75	C	1.102818	0.621280	0.066077
C76	C	1.102806	0.621297	0.441203
C77	C	1.172755	0.513378	0.549132
C78	C	1.164910	0.459394	0.669207
C79	C	1.087110	0.513347	0.681352
C80	C	1.017164	0.621271	0.573424
C81	C	0.359696	1.635866	-0.441218
C82	C	0.289748	1.743819	-0.549147
C83	C	0.297592	1.797808	-0.669222
C84	C	0.375392	1.743849	-0.681367
C85	C	0.445339	1.635905	-0.573439
C86	C	0.445360	1.635868	0.066086
C87	C	0.375425	1.743817	0.066081
C88	C	0.297620	1.797797	-0.000012
C89	C	0.289750	1.743834	-0.066115
C90	C	0.359684	1.635894	-0.066117
H91	H	0.372392	0.888737	0.119926
O92	O	0.246588	0.868115	0.130281
C93	C	0.176798	0.750946	0.188815
C94	C	0.168203	0.896327	0.116090
H95	H	0.113434	0.773704	0.177345
H96	H	0.211628	0.685739	0.293199
H97	H	0.211706	0.685756	0.149665
H98	H	0.133277	0.961634	0.155133
H99	H	0.133405	0.961423	0.011714
O100	O	0.215917	1.389051	-0.130202
C101	C	0.285719	1.506199	-0.188828
C102	C	0.294306	1.360826	-0.116173
H103	H	0.349086	1.483430	-0.177533
H104	H	0.250893	1.571408	-0.149654
H105	H	0.250811	1.571392	-0.293172
H106	H	0.329231	1.295515	-0.011819
H107	H	0.329099	1.295728	-0.155450
H108	H	0.953795	0.665240	-0.119944
O109	O	0.520977	1.583475	0.130107
C110	C	0.649633	1.550551	0.117973
C111	C	0.564033	1.609901	0.045322
H112	H	0.684462	1.571922	0.049452
H113	H	0.684575	1.428238	0.193014
H114	H	0.643208	1.607651	0.165236
H115	H	0.570383	1.552911	-0.002019
H116	H	0.529123	1.732223	-0.029650
H117	H	0.226392	1.787801	-0.119926
H118	H	1.221820	0.371517	-0.000070
O119	O	0.520965	1.583398	-0.585023
C120	C	0.666682	1.417108	-0.477385
C121	C	0.581087	1.476443	-0.464072
H122	H	0.715314	1.330603	-0.379612
H123	H	0.674088	1.510058	-0.531135
H124	H	0.674007	1.366668	-0.531282
H125	H	0.573703	1.526866	-0.410149
H126	H	0.573720	1.383440	-0.410373
H127	H	0.353293	1.591914	-0.343456
H128	H	0.381769	1.787820	-0.779145
H129	H	0.353264	1.591964	-0.119935
O130	O	1.248396	0.460703	0.130243
C131	C	1.394099	0.294455	0.188748
C132	C	1.308481	0.353944	0.116025
H133	H	1.442702	0.208152	0.177255
H134	H	1.401532	0.243801	0.293136
H135	H	1.401445	0.387466	0.149613
H136	H	1.301077	0.261014	0.155052
H137	H	1.301088	0.404640	0.011644
H138	H	0.381849	1.787735	0.119914
H139	H	0.090105	1.368410	-0.119923
H140	H	1.109209	0.665234	0.343442
O141	O	0.214136	1.796190	-0.537493
C142	C	0.085478	1.829114	-0.582540
C143	C	0.171072	1.769777	-0.595857
H144	H	0.050642	1.807754	-0.629694
H145	H	0.050537	1.951425	-0.629802
H146	H	0.091914	1.771997	-0.478171
H147	H	0.164711	1.826783	-0.700193
H148	H	0.205982	1.647457	-0.548516
H149	H	1.236096	0.469461	0.539221
O150	O	1.232945	0.354504	0.773912
C151	C	1.380314	0.199708	0.856215
C152	C	1.303331	0.318474	0.737540
H153	H	1.437241	0.170563	0.826851
H154	H	1.380397	0.098556	0.914829
H155	H	1.380292	0.242160	0.914833
H156	H	1.303302	0.276158	0.678824
H157	H	1.303278	0.419603	0.679021
O158	O	1.079351	0.461108	0.797902
C159	C	0.987042	0.472372	0.917689
C160	C	0.995708	0.531690	0.785619
H161	H	0.919421	0.529390	0.907803
H162	H	1.017598	0.493656	0.971535
H163	H	1.017700	0.350063	0.971511
H164	H	0.965045	0.654006	0.731693
H165	H	0.965174	0.510294	0.731869
H166	H	1.080653	0.469454	-0.119969
H167	H	0.240630	1.885702	-0.757093
H168	H	1.109238	0.665190	0.119916
O169	O	0.941537	0.673858	0.585009
C170	C	0.795820	0.840016	0.477371
C171	C	0.881415	0.780621	0.464058
H172	H	0.747188	0.926321	0.379597
H173	H	0.788397	0.890644	0.531125
H174	H	0.788512	0.746960	0.531263
H175	H	0.888782	0.873595	0.410139
H176	H	0.888799	0.729950	0.410354
O177	O	0.229605	1.902700	-0.000186
C178	C	0.082238	2.057570	-0.072648
C179	C	0.159191	1.938791	-0.072583
H180	H	0.025289	2.086764	-0.131153
H181	H	0.082183	2.158695	-0.115179
H182	H	0.082277	2.015106	0.028431
H183	H	0.159202	1.981119	-0.173623
H184	H	0.159216	1.837689	-0.029981
