data_functionalizedCrystal
_audit_creation_method	'MofGen! by Chris Wilmer'
_symmetry_space_group_name_H-M	'P1'
_symmetry_Int_Tables_number	1
_symmetry_cell_setting	triclinic
loop_
_symmetry_equiv_pos_as_xyz
  x,y,z
_cell_length_a	6.817900
_cell_length_b	11.102183
_cell_length_c	14.125465
_cell_angle_alpha	94.634773
_cell_angle_beta	100.398878
_cell_angle_gamma	108.603876
loop_
_atom_site_label
_atom_site_type_symbol
_atom_site_fract_x
_atom_site_fract_y
_atom_site_fract_z
V1	V	-4.017257	-0.174747	-0.299975
O2	O	-3.978095	0.009521	-0.294266
O3	O	-3.994669	-0.347574	-0.297921
O4	O	-3.952927	-0.171566	-0.430805
O5	O	-4.020125	-0.167706	-0.160463
V6	V	-4.499605	-0.152765	-0.283288
O7	O	-4.281094	-0.222967	-0.336578
O8	O	-4.685965	-0.104545	-0.246685
O9	O	-4.298987	0.020063	-0.285341
O10	O	-4.656164	-0.337032	-0.288997
O11	O	-4.614133	-0.159806	-0.422800
O12	O	-4.340728	-0.155945	-0.152458
C13	C	-3.846464	-0.389721	-0.293189
C14	C	-3.909176	-0.531006	-0.292382
C15	C	-3.844194	-0.495370	-0.116162
C16	C	-3.841162	-0.543927	-0.027677
C17	C	-3.900091	-0.676678	-0.026924
C18	C	-3.962065	-0.760877	-0.114666
C19	C	-3.965098	-0.712320	-0.203152
C20	C	-3.906157	-0.579564	-0.203895
C21	C	-4.030093	-0.747956	-0.379370
C22	C	-3.971149	-0.615205	-0.380124
C23	C	-4.092066	-0.832154	-0.467112
C24	C	-4.095085	-0.783597	-0.555599
C25	C	-4.036148	-0.650837	-0.556348
C26	C	-3.974182	-0.566648	-0.468610
C27	C	-3.793217	-0.165204	-0.462693
C28	C	-3.822075	-0.163746	-0.569648
C29	C	-3.874968	-0.161074	-0.765471
C30	C	-4.061262	-0.166435	-0.817792
C31	C	-4.090694	-0.164948	-0.926755
C32	C	-3.845528	-0.162561	-0.656498
C33	C	-4.110534	0.062203	-0.290071
C34	C	-4.027060	0.203487	-0.290884
C35	C	-4.163781	-0.162312	-0.120564
C36	C	-4.114161	-0.163763	-0.013609
H37	H	-3.796148	-0.387274	-0.116765
N38	N	-3.702706	-0.153826	-0.812006
N39	N	-3.634380	-0.061653	-0.856400
H40	H	-3.512760	-0.056507	-0.889306
N41	N	-4.022244	-0.896473	-0.113875
N42	N	-3.892915	-0.942777	-0.070486
H43	H	-3.935414	-1.038543	-0.069925
H44	H	-3.897627	-0.716212	0.045128
H45	H	-4.038649	-0.611313	-0.628405
N46	N	-3.777875	-0.457904	0.061936
N47	N	-3.725266	-0.339379	0.061258
H48	H	-3.680577	-0.278627	0.124547
H49	H	-3.926159	-0.458551	-0.469210
N50	N	-4.152228	-0.967750	-0.466322
N51	N	-4.022878	-1.014045	-0.422940
H52	H	-4.065357	-1.109811	-0.422380
N53	N	-4.158372	-0.869620	-0.645205
N54	N	-4.057391	-0.942696	-0.660729
H55	H	-4.102086	-1.003456	-0.724014
N56	N	-4.233596	-0.173587	-0.771318
N57	N	-4.209072	-0.174802	-0.681585
H58	H	-4.330776	-0.179856	-0.648758
