data_functionalizedCrystal
_audit_creation_method	'MofGen! by Chris Wilmer'
_symmetry_space_group_name_H-M	'P1'
_symmetry_Int_Tables_number	1
_symmetry_cell_setting	triclinic
loop_
_symmetry_equiv_pos_as_xyz
  x,y,z
_cell_length_a	25.639243
_cell_length_b	25.639239
_cell_length_c	25.639233
_cell_angle_alpha	89.981253
_cell_angle_beta	90.015962
_cell_angle_gamma	89.958590
loop_
_atom_site_label
_atom_site_type_symbol
_atom_site_fract_x
_atom_site_fract_y
_atom_site_fract_z
Zn1	Zn	0.799225	0.208176	0.295656
Zn2	Zn	1.049225	0.458176	0.545656
Zn3	Zn	1.299225	0.708176	0.795656
Zn4	Zn	1.549225	0.958176	1.045656
Zn5	Zn	0.799149	0.295595	0.208220
Zn6	Zn	1.049149	0.545595	0.458220
Zn7	Zn	1.299149	0.795595	0.708220
Zn8	Zn	1.549149	1.045595	0.958220
Zn9	Zn	0.711801	0.208180	0.208229
Zn10	Zn	0.961801	0.458180	0.458229
Zn11	Zn	1.211801	0.708180	0.708229
Zn12	Zn	1.461801	0.958180	0.958229
Zn13	Zn	0.711746	0.295587	0.295619
Zn14	Zn	0.961746	0.545587	0.545619
Zn15	Zn	1.211746	0.795587	0.795619
Zn16	Zn	1.461746	1.045587	1.045619
O17	O	0.755480	0.251885	0.251931
O18	O	1.005480	0.501885	0.501931
O19	O	1.255480	0.751885	0.751931
O20	O	1.505480	1.001885	1.001931
O21	O	0.872380	0.219775	0.284069
O22	O	1.122380	0.469775	0.534069
O23	O	1.372380	0.719775	0.784069
O24	O	1.622380	0.969775	1.034069
O25	O	0.787553	0.284004	0.135056
O26	O	1.037553	0.534004	0.385056
O27	O	1.287553	0.784004	0.635056
O28	O	1.537553	1.034004	0.885056
O29	O	0.723453	0.135014	0.219846
O30	O	0.973453	0.385014	0.469846
O31	O	1.223453	0.635014	0.719846
O32	O	1.473453	0.885014	0.969846
O33	O	0.872324	0.284001	0.219830
O34	O	1.122324	0.534001	0.469830
O35	O	1.372324	0.784001	0.719830
O36	O	1.622324	1.034001	0.969830
O37	O	0.787683	0.135012	0.284077
O38	O	1.037683	0.385012	0.534077
O39	O	1.287683	0.635012	0.784077
O40	O	1.537683	0.885012	1.034077
O41	O	0.723379	0.219781	0.135063
O42	O	0.973379	0.469781	0.385063
O43	O	1.223379	0.719781	0.635063
O44	O	1.473379	0.969781	0.885063
O45	O	0.638629	0.219772	0.219810
O46	O	0.888629	0.469772	0.469810
O47	O	1.138629	0.719772	0.719810
O48	O	1.388629	0.969772	0.969810
O49	O	0.723360	0.283987	0.368789
O50	O	0.973360	0.533987	0.618789
O51	O	1.223360	0.783987	0.868789
O52	O	1.473360	1.033987	1.118789
O53	O	0.638589	0.283990	0.284016
O54	O	0.888589	0.533990	0.534016
O55	O	1.138589	0.783990	0.784016
O56	O	1.388589	1.033990	1.034016
O57	O	0.787630	0.219767	0.368816
O58	O	1.037630	0.469767	0.618816
O59	O	1.287630	0.719767	0.868816
O60	O	1.537630	0.969767	1.118816
O61	O	0.787499	0.368759	0.219795
O62	O	1.037499	0.618759	0.469795
O63	O	1.287499	0.868759	0.719795
O64	O	1.537499	1.118759	0.969795
O65	O	0.723286	0.368753	0.284007
O66	O	0.973286	0.618753	0.534007
O67	O	1.223286	0.868753	0.784007
O68	O	1.473286	1.118753	1.034007
C69	C	0.619638	0.251881	0.251910
C70	C	0.869638	0.501881	0.501910
C71	C	1.119638	0.751881	0.751910
C72	C	1.369638	1.001881	1.001910
C73	C	0.561524	0.251892	0.251914
C74	C	0.811524	0.501892	0.501914
C75	C	1.061524	0.751892	0.751914
C76	C	1.311524	1.001892	1.001914
C77	C	0.201184	0.218495	0.285436
C78	C	0.451184	0.468495	0.535436
C79	C	0.701184	0.718495	0.785436
C80	C	0.951184	0.968495	1.035436
C81	C	0.146580	0.218494	0.285439
C82	C	0.396580	0.468494	0.535439
C83	C	0.646580	0.718494	0.785439
C84	C	0.896580	0.968494	1.035439
O85	O	0.118363	0.190088	0.313915
O86	O	0.368363	0.440088	0.563915
O87	O	0.618363	0.690088	0.813915
O88	O	0.868363	0.940088	1.063915
N89	N	0.119241	0.251883	0.251945
N90	N	0.369241	0.501883	0.501945
N91	N	0.619241	0.751883	0.751945
N92	N	0.869241	1.001883	1.001945
C93	C	0.146510	0.285271	0.218443
C94	C	0.396510	0.535271	0.468443
C95	C	0.646510	0.785271	0.718443
C96	C	0.896510	1.035271	0.968443
O97	O	0.118242	0.313670	0.189954
O98	O	0.368242	0.563670	0.439954
O99	O	0.618242	0.813670	0.689954
O100	O	0.868242	1.063670	0.939954
C101	C	0.201113	0.285268	0.218437
C102	C	0.451113	0.535268	0.468437
C103	C	0.701113	0.785268	0.718437
C104	C	0.951113	1.035268	0.968437
C105	C	0.228449	0.251881	0.251937
C106	C	0.478449	0.501881	0.501937
C107	C	0.728449	0.751881	0.751937
C108	C	0.978449	1.001881	1.001937
C109	C	0.228520	0.185109	0.318932
C110	C	0.478520	0.435109	0.568932
C111	C	0.728520	0.685109	0.818932
C112	C	0.978520	0.935109	1.068932
C113	C	0.283121	0.185111	0.318930
C114	C	0.533121	0.435111	0.568930
C115	C	0.783121	0.685111	0.818930
C116	C	1.033121	0.935111	1.068930
C117	C	0.310385	0.218497	0.285431
C118	C	0.560385	0.468497	0.535431
C119	C	0.810385	0.718497	0.785431
C120	C	1.060385	0.968497	1.035431
C121	C	0.283049	0.251882	0.251934
C122	C	0.533049	0.501882	0.501934
C123	C	0.783049	0.751882	0.751934
C124	C	1.033049	1.001882	1.001934
C125	C	0.228380	0.318653	0.184932
C126	C	0.478380	0.568653	0.434932
C127	C	0.728380	0.818653	0.684932
C128	C	0.978380	1.068653	0.934932
C129	C	0.282987	0.318647	0.184929
C130	C	0.532987	0.568647	0.434929
C131	C	0.782987	0.818647	0.684929
C132	C	1.032987	1.068647	0.934929
C133	C	0.310323	0.285260	0.218429
C134	C	0.560323	0.535260	0.468429
C135	C	0.810323	0.785260	0.718429
C136	C	1.060323	1.035260	0.968429
C137	C	0.364915	0.285270	0.218432
C138	C	0.614915	0.535270	0.468432
C139	C	0.864915	0.785270	0.718432
C140	C	1.114915	1.035270	0.968432
N141	N	0.392253	0.251881	0.251926
N142	N	0.642253	0.501881	0.501926
N143	N	0.892253	0.751881	0.751926
N144	N	1.142253	1.001881	1.001926
C145	C	0.364989	0.218494	0.285425
C146	C	0.614989	0.468494	0.535425
C147	C	0.864989	0.718494	0.785425
C148	C	1.114989	0.968494	1.035425
C149	C	0.031839	0.285273	0.218456
C150	C	0.281839	0.535273	0.468456
C151	C	0.531839	0.785273	0.718456
C152	C	0.781839	1.035273	0.968456
C153	C	-0.022763	0.285279	0.218464
C154	C	0.227237	0.535279	0.468464
C155	C	0.477237	0.785279	0.718464
C156	C	0.727237	1.035279	0.968464
C157	C	-0.022689	0.218501	0.285460
C158	C	0.227311	0.468501	0.535460
C159	C	0.477311	0.718501	0.785460
C160	C	0.727311	0.968501	1.035460
C161	C	0.031914	0.218499	0.285454
C162	C	0.281914	0.468499	0.535454
C163	C	0.531914	0.718499	0.785454
C164	C	0.781914	0.968499	1.035454
C165	C	0.059178	0.251884	0.251950
C166	C	0.309178	0.501884	0.501950
C167	C	0.559178	0.751884	0.751950
C168	C	0.809178	1.001884	1.001950
C169	C	0.479654	0.218500	0.285417
C170	C	0.729654	0.468500	0.535417
C171	C	0.979654	0.718500	0.785417
C172	C	1.229654	0.968500	1.035417
C173	C	0.534259	0.218506	0.285413
C174	C	0.784259	0.468506	0.535413
C175	C	1.034259	0.718506	0.785413
C176	C	1.284259	0.968506	1.035413
C177	C	0.534180	0.285281	0.218415
C178	C	0.784180	0.535281	0.468415
C179	C	1.034180	0.785281	0.718415
C180	C	1.284180	1.035281	0.968415
C181	C	0.479580	0.285278	0.218421
C182	C	0.729580	0.535278	0.468421
C183	C	0.979580	0.785278	0.718421
C184	C	1.229580	1.035278	0.968421
C185	C	0.452318	0.251883	0.251924
C186	C	0.702318	0.501883	0.501924
C187	C	0.952318	0.751883	0.751924
C188	C	1.202318	1.001883	1.001924
O189	O	0.393166	0.313659	0.189969
O190	O	0.643166	0.563659	0.439969
O191	O	0.893166	0.813659	0.689969
O192	O	1.143166	1.063659	0.939969
O193	O	0.393263	0.190095	0.313904
O194	O	0.643263	0.440095	0.563904
O195	O	0.893263	0.690095	0.813904
O196	O	1.143263	0.940095	1.063904
C197	C	0.755392	0.387727	0.251907
C198	C	1.005392	0.637727	0.501907
C199	C	1.255392	0.887727	0.751907
C200	C	1.505392	1.137727	1.001907
C201	C	0.755403	0.445841	0.251914
C202	C	1.005403	0.695841	0.501914
C203	C	1.255403	0.945841	0.751914
C204	C	1.505403	1.195841	1.001914
C205	C	0.755497	0.251875	0.388304
C206	C	1.005497	0.501875	0.638304
C207	C	1.255497	0.751875	0.888304
C208	C	1.505497	1.001875	1.138304
C209	C	0.755504	0.251871	0.446418
C210	C	1.005504	0.501871	0.696418
C211	C	1.255504	0.751871	0.946418
C212	C	1.505504	1.001871	1.196418
C213	C	0.891853	0.251888	0.251952
C214	C	1.141853	0.501888	0.501952
C215	C	1.391853	0.751888	0.751952
C216	C	1.641853	1.001888	1.001952
C217	C	0.949967	0.251890	0.251961
C218	C	1.199967	0.501890	0.501961
C219	C	1.449967	0.751890	0.751961
C220	C	1.699967	1.001890	1.001961
C221	C	0.755583	0.115512	0.251967
C222	C	1.005583	0.365512	0.501967
C223	C	1.255583	0.615512	0.751967
C224	C	1.505583	0.865512	1.001967
C225	C	0.755627	0.057397	0.251982
C226	C	1.005627	0.307397	0.501982
C227	C	1.255627	0.557397	0.751982
C228	C	1.505627	0.807397	1.001982
C229	C	0.789004	0.806195	0.218553
C230	C	1.039004	1.056195	0.468553
C231	C	1.289004	1.306195	0.718553
C232	C	1.539004	1.556195	0.968553
C233	C	0.789024	0.860799	0.218560
C234	C	1.039024	1.110799	0.468560
C235	C	1.289024	1.360799	0.718560
C236	C	1.539024	1.610799	0.968560
O237	O	0.817502	0.889028	0.190169
O238	O	1.067502	1.139028	0.440169
O239	O	1.317502	1.389028	0.690169
O240	O	1.567502	1.639028	0.940169
N241	N	0.755572	0.888124	0.251966
N242	N	1.005572	1.138124	0.501966
N243	N	1.255572	1.388124	0.751966
N244	N	1.505572	1.638124	1.001966
C245	C	0.722102	0.860841	0.285371
C246	C	0.972102	1.110841	0.535371
C247	C	1.222102	1.360841	0.785371
C248	C	1.472102	1.610841	1.035371
O249	O	0.693651	0.889096	0.313786
O250	O	0.943651	1.139096	0.563786
O251	O	1.193651	1.389096	0.813786
O252	O	1.443651	1.639096	1.063786
C253	C	0.722085	0.806238	0.285366
C254	C	0.972085	1.056238	0.535366
C255	C	1.222085	1.306238	0.785366
C256	C	1.472085	1.556238	1.035366
C257	C	0.755535	0.778916	0.251954
C258	C	1.005535	1.028916	0.501954
C259	C	1.255535	1.278916	0.751954
C260	C	1.505535	1.528916	1.001954
C261	C	0.822452	0.778873	0.185144
C262	C	1.072452	1.028873	0.435144
C263	C	1.322452	1.278873	0.685144
C264	C	1.572452	1.528873	0.935144
C265	C	0.822431	0.724273	0.185137
C266	C	1.072431	0.974273	0.435137
C267	C	1.322431	1.224273	0.685137
C268	C	1.572431	1.474273	0.935137
C269	C	0.788962	0.696994	0.218538
C270	C	1.038962	0.946994	0.468538
C271	C	1.288962	1.196994	0.718538
C272	C	1.538962	1.446994	0.968538
C273	C	0.755514	0.724315	0.251946
C274	C	1.005514	0.974315	0.501946
C275	C	1.255514	1.224315	0.751946
C276	C	1.505514	1.474315	1.001946
C277	C	0.688617	0.778956	0.318773
C278	C	0.938617	1.028956	0.568773
C279	C	1.188617	1.278956	0.818773
C280	C	1.438617	1.528956	1.068773
C281	C	0.688603	0.724349	0.318765
C282	C	0.938603	0.974349	0.568765
C283	C	1.188603	1.224349	0.818765
C284	C	1.438603	1.474349	1.068765
C285	C	0.722053	0.697027	0.285354
C286	C	0.972053	0.947027	0.535354
C287	C	1.222053	1.197027	0.785354
C288	C	1.472053	1.447027	1.035354
C289	C	0.722024	0.642436	0.285340
C290	C	0.972024	0.892436	0.535340
C291	C	1.222024	1.142436	0.785340
C292	C	1.472024	1.392436	1.035340
N293	N	0.755475	0.615112	0.251934
N294	N	1.005475	0.865112	0.501934
N295	N	1.255475	1.115112	0.751934
N296	N	1.505475	1.365112	1.001934
C297	C	0.788944	0.642390	0.218533
C298	C	1.038944	0.892390	0.468533
C299	C	1.288944	1.142390	0.718533
C300	C	1.538944	1.392390	0.968533
C301	C	0.722141	0.975511	0.285379
C302	C	0.972141	1.225511	0.535379
C303	C	1.222141	1.475511	0.785379
C304	C	1.472141	1.725511	1.035379
C305	C	0.722155	1.030114	0.285381
C306	C	0.972155	1.280114	0.535381
C307	C	1.222155	1.530114	0.785381
C308	C	1.472155	1.780114	1.035381
C309	C	0.789078	1.030068	0.218571
C310	C	1.039078	1.280068	0.468571
C311	C	1.289078	1.530068	0.718571
C312	C	1.539078	1.780068	0.968571
C313	C	0.789061	0.975465	0.218566
C314	C	1.039061	1.225465	0.468566
C315	C	1.289061	1.475465	0.718566
C316	C	1.539061	1.725465	0.968566
C317	C	0.755593	0.948187	0.251973
C318	C	1.005593	1.198187	0.501973
C319	C	1.255593	1.448187	0.751973
C320	C	1.505593	1.698187	1.001973
C321	C	0.788897	0.527725	0.218519
C322	C	1.038897	0.777725	0.468519
C323	C	1.288897	1.027725	0.718519
C324	C	1.538897	1.277725	0.968519
C325	C	0.788872	0.473120	0.218513
C326	C	1.038872	0.723120	0.468513
C327	C	1.288872	0.973120	0.718513
C328	C	1.538872	1.223120	0.968513
C329	C	0.721951	0.473170	0.285325
C330	C	0.971951	0.723170	0.535325
C331	C	1.221951	0.973170	0.785325
C332	C	1.471951	1.223170	1.035325
C333	C	0.721974	0.527771	0.285329
C334	C	0.971974	0.777771	0.535329
C335	C	1.221974	1.027771	0.785329
C336	C	1.471974	1.277771	1.035329
C337	C	0.755452	0.555047	0.251925
C338	C	1.005452	0.805047	0.501925
C339	C	1.255452	1.055047	0.751925
C340	C	1.505452	1.305047	1.001925
O341	O	0.693562	0.614173	0.313718
O342	O	0.943562	0.864173	0.563718
O343	O	1.193562	1.114173	0.813718
O344	O	1.443562	1.364173	1.063718
O345	O	0.817396	0.614128	0.190127
O346	O	1.067396	0.864128	0.440127
O347	O	1.317396	1.114128	0.690127
O348	O	1.567396	1.364128	0.940127
C349	C	0.755494	0.251856	0.116089
C350	C	1.005494	0.501856	0.366089
C351	C	1.255494	0.751856	0.616089
C352	C	1.505494	1.001856	0.866089
C353	C	0.755588	0.251713	0.057975
C354	C	1.005588	0.501713	0.307975
C355	C	1.255588	0.751713	0.557975
C356	C	1.505588	1.001713	0.807975
C357	C	0.789012	0.218333	0.806801
C358	C	1.039012	0.468333	1.056801
C359	C	1.289012	0.718333	1.306801
C360	C	1.539012	0.968333	1.556801
C361	C	0.789019	0.218318	0.861405
C362	C	1.039019	0.468318	1.111405
C363	C	1.289019	0.718318	1.361405
C364	C	1.539019	0.968318	1.611405
O365	O	0.817466	0.189864	0.889659
O366	O	1.067466	0.439864	1.139659
O367	O	1.317466	0.689864	1.389659
O368	O	1.567466	0.939864	1.639659
N369	N	0.755562	0.251749	0.888701
N370	N	1.005562	0.501749	1.138701
N371	N	1.255562	0.751749	1.388701
N372	N	1.505562	1.001749	1.638701
C373	C	0.722093	0.285192	0.861389
C374	C	0.972093	0.535192	1.111389
C375	C	1.222093	0.785192	1.361389
C376	C	1.472093	1.035192	1.611389
O377	O	0.693636	0.313626	0.889620
O378	O	0.943636	0.563626	1.139620
O379	O	1.193636	0.813626	1.389620
O380	O	1.443636	1.063626	1.639620
C381	C	0.722084	0.285204	0.806786
C382	C	0.972084	0.535204	1.056786
C383	C	1.222084	0.785204	1.306786
C384	C	1.472084	1.035204	1.556786
C385	C	0.755547	0.251775	0.779493
C386	C	1.005547	0.501775	1.029493
C387	C	1.255547	0.751775	1.279493
C388	C	1.505547	1.001775	1.529493
C389	C	0.822472	0.184906	0.779508
C390	C	1.072472	0.434906	1.029508
C391	C	1.322472	0.684906	1.279508
C392	C	1.572472	0.934906	1.529508
C393	C	0.822466	0.184921	0.724908
C394	C	1.072466	0.434921	0.974908
C395	C	1.322466	0.684921	1.224908
C396	C	1.572466	0.934921	1.474908
C397	C	0.789001	0.218363	0.697600
C398	C	1.039001	0.468363	0.947600
C399	C	1.289001	0.718363	1.197600
C400	C	1.539001	0.968363	1.447600
C401	C	0.755541	0.251790	0.724893
C402	C	1.005541	0.501790	0.974893
C403	C	1.255541	0.751790	1.224893
C404	C	1.505541	1.001790	1.474893
C405	C	0.688613	0.318644	0.779475
C406	C	0.938613	0.568644	1.029475
C407	C	1.188613	0.818644	1.279475
C408	C	1.438613	1.068644	1.529475
C409	C	0.688607	0.318653	0.724868
C410	C	0.938607	0.568653	0.974868
C411	C	1.188607	0.818653	1.224868
C412	C	1.438607	1.068653	1.474868
C413	C	0.722069	0.285223	0.697576
C414	C	0.972069	0.535223	0.947576
C415	C	1.222069	0.785223	1.197576
C416	C	1.472069	1.035223	1.447576
C417	C	0.722070	0.285247	0.642984
C418	C	0.972070	0.535247	0.892984
C419	C	1.222070	0.785247	1.142984
C420	C	1.472070	1.035247	1.392984
N421	N	0.755526	0.251817	0.615689
N422	N	1.005526	0.501817	0.865689
N423	N	1.255526	0.751817	1.115689
N424	N	1.505526	1.001817	1.365689
C425	C	0.788992	0.218375	0.642996
C426	C	1.038992	0.468375	0.892996
C427	C	1.288992	0.718375	1.142996
C428	C	1.538992	0.968375	1.392996
C429	C	0.722113	0.285165	0.976060
C430	C	0.972113	0.535165	1.226060
C431	C	1.222113	0.785165	1.476060
C432	C	1.472113	1.035165	1.726060
C433	C	0.722124	0.285157	1.030662
C434	C	0.972124	0.535157	1.280662
C435	C	1.222124	0.785157	1.530662
C436	C	1.472124	1.035157	1.780662
C437	C	0.789049	0.218282	1.030675
C438	C	1.039049	0.468282	1.280675
C439	C	1.289049	0.718282	1.530675
C440	C	1.539049	0.968282	1.780675
C441	C	0.789041	0.218293	0.976071
C442	C	1.039041	0.468293	1.226071
C443	C	1.289041	0.718293	1.476071
C444	C	1.539041	0.968293	1.726071
C445	C	0.755570	0.251735	0.948764
C446	C	1.005570	0.501735	1.198764
C447	C	1.255570	0.751735	1.448764
C448	C	1.505570	1.001735	1.698764
C449	C	0.788977	0.218410	0.528331
C450	C	1.038977	0.468410	0.778331
C451	C	1.288977	0.718410	1.028331
C452	C	1.538977	0.968410	1.278331
C453	C	0.788970	0.218429	0.473726
C454	C	1.038970	0.468429	0.723726
C455	C	1.288970	0.718429	0.973726
C456	C	1.538970	0.968429	1.223726
C457	C	0.722043	0.285302	0.473719
C458	C	0.972043	0.535302	0.723719
C459	C	1.222043	0.785302	0.973719
C460	C	1.472043	1.035302	1.223719
C461	C	0.722052	0.285285	0.528319
C462	C	0.972052	0.535285	0.778319
C463	C	1.222052	0.785285	1.028319
C464	C	1.472052	1.035285	1.278319
C465	C	0.755521	0.251834	0.555624
C466	C	1.005521	0.501834	0.805624
C467	C	1.255521	0.751834	1.055624
C468	C	1.505521	1.001834	1.305624
O469	O	0.693635	0.313686	0.614696
O470	O	0.943635	0.563686	0.864696
O471	O	1.193635	0.813686	1.114696
O472	O	1.443635	1.063686	1.364696
O473	O	0.817439	0.189941	0.614759
O474	O	1.067439	0.439941	0.864759
O475	O	1.317439	0.689941	1.114759
O476	O	1.567439	0.939941	1.364759
H477	H	0.556389	0.312465	0.191142
H478	H	0.806389	0.562465	0.441142
H479	H	1.056389	0.812465	0.691142
H480	H	1.306389	1.062465	0.941142
H481	H	0.694857	0.312400	0.953830
H482	H	0.944857	0.562400	1.203830
H483	H	1.194857	0.812400	1.453830
H484	H	1.444857	1.062400	1.703830
N485	N	0.686036	0.946089	0.321404
N486	N	0.936036	1.196089	0.571404
N487	N	1.186036	1.446089	0.821404
N488	N	1.436036	1.696089	1.071404
H489	H	0.694130	0.955570	0.358770
H490	H	0.944130	1.205570	0.608770
H491	H	1.194130	1.455570	0.858770
H492	H	1.444130	1.705570	1.108770
H493	H	0.648703	0.955649	0.313200
H494	H	0.898703	1.205649	0.563200
H495	H	1.148703	1.455649	0.813200
H496	H	1.398703	1.705649	1.063200
N497	N	0.685945	0.321368	0.444261
N498	N	0.935945	0.571368	0.694261
N499	N	1.185945	0.821368	0.944261
N500	N	1.435945	1.071368	1.194261
H501	H	0.694034	0.358725	0.453758
H502	H	0.944034	0.608725	0.703758
H503	H	1.194034	0.858725	0.953758
H504	H	1.444034	1.108725	1.203758
H505	H	0.691036	0.316256	0.405539
H506	H	0.941036	0.566256	0.655539
H507	H	1.191036	0.816256	0.905539
H508	H	1.441036	1.066256	1.155539
N509	N	0.199126	0.149096	0.355072
N510	N	0.449126	0.399096	0.605072
N511	N	0.699126	0.649096	0.855072
N512	N	0.949126	0.899096	1.105072
H513	H	0.176468	0.170378	0.379268
H514	H	0.426468	0.420378	0.629268
H515	H	0.676468	0.670378	0.879268
H516	H	0.926468	0.920378	1.129268
H517	H	0.176509	0.124836	0.333841
H518	H	0.426509	0.374836	0.583841
H519	H	0.676509	0.624836	0.833841
H520	H	0.926509	0.874836	1.083841
N521	N	0.450260	0.182483	0.321556
N522	N	0.700260	0.432483	0.571556
N523	N	0.950260	0.682483	0.821556
N524	N	1.200260	0.932483	1.071556
H525	H	0.427599	0.203765	0.345751
H526	H	0.677599	0.453765	0.595751
H527	H	0.927599	0.703765	0.845751
H528	H	1.177599	0.953765	1.095751
H529	H	0.427646	0.158223	0.300323
H530	H	0.677646	0.408223	0.550323
H531	H	0.927646	0.658223	0.800323
H532	H	1.177646	0.908223	1.050323
H533	H	0.816229	0.191169	0.550557
H534	H	1.066229	0.441169	0.800557
H535	H	1.316229	0.691169	1.050557
H536	H	1.566229	0.941169	1.300557
N537	N	0.652519	0.354698	0.808905
N538	N	0.902519	0.604698	1.058905
N539	N	1.152519	0.854698	1.308905
N540	N	1.402519	1.104698	1.558905
H541	H	0.660606	0.392057	0.799396
H542	H	0.910606	0.642057	1.049396
H543	H	1.160606	0.892057	1.299396
H544	H	1.410606	1.142057	1.549396
H545	H	0.615184	0.346528	0.799380
H546	H	0.865184	0.596528	1.049380
H547	H	1.115184	0.846528	1.299380
H548	H	1.365184	1.096528	1.549380
H549	H	0.305183	0.345834	0.157644
H550	H	0.555183	0.595834	0.407644
H551	H	0.805183	0.845834	0.657644
H552	H	1.055183	1.095834	0.907644
N553	N	0.563743	0.182496	0.321548
N554	N	0.813743	0.432496	0.571548
N555	N	1.063743	0.682496	0.821548
N556	N	1.313743	0.932496	1.071548
H557	H	0.538182	0.161345	0.342768
H558	H	0.788182	0.411345	0.592768
H559	H	1.038182	0.661345	0.842768
H560	H	1.288182	0.911345	1.092768
H561	H	0.586410	0.158267	0.300310
H562	H	0.836410	0.408267	0.550310
H563	H	1.086410	0.658267	0.800310
H564	H	1.336410	0.908267	1.050310
H565	H	0.849714	0.157699	0.702691
H566	H	1.099714	0.407699	0.952691
H567	H	1.349714	0.657699	1.202691
H568	H	1.599714	0.907699	1.452691
H569	H	0.694881	0.312384	1.052880
H570	H	0.944881	0.562384	1.302880
H571	H	1.194881	0.812384	1.552880
H572	H	1.444881	1.062384	1.802880
N573	N	0.825000	0.557144	0.182491
N574	N	1.075000	0.807144	0.432491
N575	N	1.325000	1.057144	0.682491
N576	N	1.575000	1.307144	0.932491
H577	H	0.862348	0.547595	0.190643
H578	H	1.112348	0.797595	0.440643
H579	H	1.362348	1.047595	0.690643
H580	H	1.612348	1.297595	0.940643
H581	H	0.816853	0.547653	0.145140
H582	H	1.066853	0.797653	0.395140
H583	H	1.316853	1.047653	0.645140
H584	H	1.566853	1.297653	0.895140
N585	N	0.652501	0.354717	0.695416
N586	N	0.902501	0.604717	0.945416
N587	N	1.152501	0.854717	1.195416
N588	N	1.402501	1.104717	1.445416
H589	H	0.631305	0.375889	0.720995
H590	H	0.881305	0.625889	0.970995
H591	H	1.131305	0.875889	1.220995
H592	H	1.381305	1.125889	1.470995
H593	H	0.673756	0.378924	0.672761
H594	H	0.923756	0.628924	0.922761
H595	H	1.173756	0.878924	1.172761
H596	H	1.423756	1.128924	1.422761
N597	N	0.652545	0.808413	0.354818
N598	N	0.902545	1.058413	0.604818
N599	N	1.152545	1.308413	0.854818
N600	N	1.402545	1.558413	1.104818
H601	H	0.657630	0.847146	0.349761
H602	H	0.907630	1.097146	0.599761
H603	H	1.157630	1.347146	0.849761
H604	H	1.407630	1.597146	1.099761
H605	H	0.615205	0.798911	0.346649
H606	H	0.865205	1.048911	0.596649
H607	H	1.115205	1.298911	0.846649
H608	H	1.365205	1.548911	1.096649
H609	H	0.661350	0.702142	0.345971
H610	H	0.911350	0.952142	0.595971
H611	H	1.161350	1.202142	0.845971
H612	H	1.411350	1.452142	1.095971
H613	H	0.816298	0.191050	1.052918
H614	H	1.066298	0.441050	1.302918
H615	H	1.316298	0.691050	1.552918
H616	H	1.566298	0.941050	1.802918
H617	H	0.206133	0.345840	0.157652
H618	H	0.456133	0.595840	0.407652
H619	H	0.706133	0.845840	0.657652
H620	H	0.956133	1.095840	0.907652
H621	H	0.694699	0.450951	0.312518
H622	H	0.944699	0.700951	0.562518
H623	H	1.194699	0.950951	0.812518
H624	H	1.444699	1.200951	1.062518
N625	N	0.312601	0.149098	0.355060
N626	N	0.562601	0.399098	0.605060
N627	N	0.812601	0.649098	0.855060
N628	N	1.062601	0.899098	1.105060
H629	H	0.287037	0.127950	0.376278
H630	H	0.537037	0.377950	0.626278
H631	H	0.787037	0.627950	0.876278
H632	H	1.037037	0.877950	1.126278
H633	H	0.335264	0.124868	0.333820
H634	H	0.585264	0.374868	0.583820
H635	H	0.835264	0.624868	0.833820
H636	H	1.085264	0.874868	1.083820
H637	H	0.457322	0.312470	0.191149
H638	H	0.707322	0.562470	0.441149
H639	H	0.957322	0.812470	0.691149
H640	H	1.207322	1.062470	0.941149
N641	N	0.061396	0.182489	0.321585
N642	N	0.311396	0.432489	0.571585
N643	N	0.561396	0.682489	0.821585
N644	N	0.811396	0.932489	1.071585
H645	H	0.035834	0.161342	0.342807
H646	H	0.285834	0.411342	0.592807
H647	H	0.535834	0.661342	0.842807
H648	H	0.785834	0.911342	1.092807
H649	H	0.084059	0.158257	0.300347
H650	H	0.334059	0.408257	0.550347
H651	H	0.584059	0.658257	0.800347
H652	H	0.834059	0.908257	1.050347
N653	N	-0.052101	0.182490	0.321592
N654	N	0.197899	0.432490	0.571592
N655	N	0.447899	0.682490	0.821592
N656	N	0.697899	0.932490	1.071592
H657	H	-0.090839	0.187559	0.316508
H658	H	0.159161	0.437559	0.566508
H659	H	0.409161	0.687559	0.816508
H660	H	0.659161	0.937559	1.066508
H661	H	-0.042535	0.145136	0.313521
H662	H	0.207465	0.395136	0.563521
H663	H	0.457465	0.645136	0.813521
H664	H	0.707465	0.895136	1.063521
N665	N	0.686068	1.059575	0.321412
N666	N	0.936068	1.309575	0.571412
N667	N	1.186068	1.559575	0.821412
N668	N	1.436068	1.809575	1.071412
H669	H	0.694158	1.050044	0.358775
H670	H	0.944158	1.300044	0.608775
H671	H	1.194158	1.550044	0.858775
H672	H	1.444158	1.800044	1.108775
H673	H	0.691169	1.098297	0.316309
H674	H	0.941169	1.348297	0.566309
H675	H	1.191169	1.598297	0.816309
H676	H	1.441169	1.848297	1.066309
N677	N	-0.052244	0.321296	0.182339
N678	N	0.197756	0.571296	0.432339
N679	N	0.447756	0.821296	0.682339
N680	N	0.697756	1.071296	0.932339
H681	H	-0.026682	0.342444	0.161119
H682	H	0.223318	0.592444	0.411119
H683	H	0.473318	0.842444	0.661119
H684	H	0.723318	1.092444	0.911119
H685	H	-0.074891	0.299979	0.158181
H686	H	0.175109	0.549979	0.408181
H687	H	0.425109	0.799979	0.658181
H688	H	0.675109	1.049979	0.908181
H689	H	0.054034	0.312464	0.191174
H690	H	0.304034	0.562464	0.441174
H691	H	0.554034	0.812464	0.691174
H692	H	0.804034	1.062464	0.941174
H693	H	0.816111	0.450876	0.191304
H694	H	1.066111	0.700876	0.441304
H695	H	1.316111	0.950876	0.691304
H696	H	1.566111	1.200876	0.941304
N697	N	0.858517	0.694808	0.149108
N698	N	1.108517	0.944808	0.399108
N699	N	1.358517	1.194808	0.649108
N700	N	1.608517	1.444808	0.899108
H701	H	0.879723	0.720381	0.127955
H702	H	1.129723	0.970381	0.377955
H703	H	1.379723	1.220381	0.627955
H704	H	1.629723	1.470381	0.877955
H705	H	0.882690	0.672123	0.170417
H706	H	1.132690	0.922123	0.420417
H707	H	1.382690	1.172123	0.670417
H708	H	1.632690	1.422123	0.920417
N709	N	0.858554	0.808290	0.149116
N710	N	1.108554	1.058290	0.399116
N711	N	1.358554	1.308290	0.649116
N712	N	1.608554	1.558290	0.899116
H713	H	0.879737	0.782689	0.127955
H714	H	1.129737	1.032689	0.377955
H715	H	1.379737	1.282689	0.627955
H716	H	1.629737	1.532689	0.877955
H717	H	0.837296	0.830976	0.124899
H718	H	1.087296	1.080976	0.374899
H719	H	1.337296	1.330976	0.624899
H720	H	1.587296	1.580976	0.874899
N721	N	0.825141	0.945999	0.182532
N722	N	1.075141	1.195999	0.432532
N723	N	1.325141	1.445999	0.682532
N724	N	1.575141	1.695999	0.932532
H725	H	0.846344	0.971570	0.161375
H726	H	1.096344	1.221570	0.411375
H727	H	1.346344	1.471570	0.661375
H728	H	1.596344	1.721570	0.911375
H729	H	0.849317	0.923311	0.203836
H730	H	1.099317	1.173311	0.453836
H731	H	1.349317	1.423311	0.703836
H732	H	1.599317	1.673311	0.953836
H733	H	0.816333	1.052289	0.191376
H734	H	1.066333	1.302289	0.441376
H735	H	1.316333	1.552289	0.691376
H736	H	1.566333	1.802289	0.941376
H737	H	0.694809	0.312510	0.550542
H738	H	0.944809	0.562510	0.800542
H739	H	1.194809	0.812510	1.050542
H740	H	1.444809	1.062510	1.300542
H741	H	0.816221	0.191207	0.451507
H742	H	1.066221	0.441207	0.701507
H743	H	1.316221	0.691207	0.951507
H744	H	1.566221	0.941207	1.201507
H745	H	0.694738	0.550017	0.312538
H746	H	0.944738	0.800017	0.562538
H747	H	1.194738	1.050017	0.812538
H748	H	1.444738	1.300017	1.062538
H749	H	0.849724	0.157671	0.801736
H750	H	1.099724	0.407671	1.051736
H751	H	1.349724	0.657671	1.301736
H752	H	1.599724	0.907671	1.551736
H753	H	0.816288	0.191071	0.953853
H754	H	1.066288	0.441071	1.203853
H755	H	1.316288	0.691071	1.453853
H756	H	1.566288	0.941071	1.703853
