data_functionalizedCrystal
_audit_creation_method	'MofGen! by Chris Wilmer'
_symmetry_space_group_name_H-M	'P1'
_symmetry_Int_Tables_number	1
_symmetry_cell_setting	triclinic
loop_
_symmetry_equiv_pos_as_xyz
  x,y,z
_cell_length_a	6.817900
_cell_length_b	16.418049
_cell_length_c	16.255661
_cell_angle_alpha	95.377892
_cell_angle_beta	103.488922
_cell_angle_gamma	103.389670
loop_
_atom_site_label
_atom_site_type_symbol
_atom_site_fract_x
_atom_site_fract_y
_atom_site_fract_z
V1	V	-4.026216	-0.116563	-0.264171
O2	O	-4.014211	0.004905	-0.258835
O3	O	-3.977284	-0.230456	-0.262659
O4	O	-3.977785	-0.115076	-0.379250
O5	O	-4.013707	-0.111274	-0.141437
V6	V	-4.509917	-0.101998	-0.249455
O7	O	-4.287084	-0.148513	-0.296451
O8	O	-4.699247	-0.070048	-0.217175
O9	O	-4.335643	0.011894	-0.250967
O10	O	-4.639319	-0.223467	-0.254790
O11	O	-4.639824	-0.107288	-0.372189
O12	O	-4.335143	-0.103486	-0.134376
C13	C	-3.822156	-0.258211	-0.258568
C14	C	-3.863435	-0.351322	-0.258099
C15	C	-3.822794	-0.111031	-0.407290
C16	C	-3.864476	-0.110569	-0.501370
C17	C	-4.140466	-0.569819	-0.261269
C18	C	-4.179241	-0.657307	-0.260836
C19	C	-3.815025	-0.648742	-0.252362
C20	C	-3.776257	-0.561256	-0.252802
C21	C	-3.938983	-0.521797	-0.257251
C22	C	-4.016525	-0.696770	-0.256378
C23	C	-4.058564	-0.791629	-0.255908
C24	C	-3.896942	-0.426932	-0.257722
C25	C	-3.775056	-0.105043	-0.724175
C26	C	-3.931169	-0.176359	-0.793834
C27	C	-3.940864	-0.109701	-0.673617
C28	C	-3.859045	-0.037569	-0.771593
C29	C	-4.014635	-0.108860	-0.839998
C30	C	-4.096458	-0.181081	-0.742046
C31	C	-4.024273	-0.042228	-0.719789
C32	C	-4.180522	-0.113564	-0.789429
C33	C	-3.898361	-0.110187	-0.577769
C34	C	-4.057156	-0.108381	-0.935846
C35	C	-4.154113	0.039645	-0.255056
C36	C	-4.092073	0.132755	-0.255530
C37	C	-4.153475	-0.107533	-0.106331
C38	C	-4.091032	-0.107992	-0.012250
H39	H	-4.343306	-0.696404	-0.264109
H40	H	-4.272970	-0.537694	-0.264891
C41	C	-3.724001	0.044371	-0.789726
C42	C	-3.740398	0.060191	-0.882680
C43	C	-3.605341	0.142126	-0.900811
C44	C	-3.453887	0.208241	-0.825988
C45	C	-3.437484	0.192423	-0.733027
C46	C	-3.572541	0.110488	-0.714896
H47	H	-3.852519	0.011247	-0.938074
H48	H	-3.617484	0.153836	-0.969627
H49	H	-3.353910	0.268895	-0.839409
H50	H	-3.325363	0.241367	-0.677633
H51	H	-3.560398	0.098778	-0.646081
H52	H	-3.682545	-0.680880	-0.248738
H53	H	-4.196416	-0.241797	-0.728736
H54	H	-3.603317	-0.101533	-0.695685
H55	H	-4.352379	-0.117186	-0.817785
C56	C	-3.878610	-0.252965	-0.837387
C57	C	-3.654446	-0.263210	-0.812380
C58	C	-3.601871	-0.339812	-0.855928
C59	C	-3.773461	-0.406169	-0.924484
C60	C	-3.997641	-0.395926	-0.949495
C61	C	-4.050216	-0.319324	-0.905947
H62	H	-3.527411	-0.214086	-0.761627
H63	H	-3.435917	-0.347394	-0.837412
H64	H	-3.734542	-0.462875	-0.956721
H65	H	-4.124676	-0.445050	-1.000248
H66	H	-4.216169	-0.311742	-0.924462
H67	H	-4.063109	0.014483	-0.687534
H68	H	-3.612179	-0.522155	-0.249533
