data_functionalizedCrystal
_audit_creation_method	'MofGen! by Chris Wilmer'
_symmetry_space_group_name_H-M	'P1'
_symmetry_Int_Tables_number	1
_symmetry_cell_setting	triclinic
loop_
_symmetry_equiv_pos_as_xyz
  x,y,z
_cell_length_a	18.215407
_cell_length_b	25.639239
_cell_length_c	25.639234
_cell_angle_alpha	90.021106
_cell_angle_beta	90.011142
_cell_angle_gamma	90.039134
loop_
_atom_site_label
_atom_site_type_symbol
_atom_site_fract_x
_atom_site_fract_y
_atom_site_fract_z
Zn1	Zn	1.124938	-0.208196	0.295622
Zn2	Zn	1.124836	-0.295618	0.208186
Zn3	Zn	1.001889	-0.208199	0.208199
Zn4	Zn	1.001807	-0.295603	0.295589
O5	O	1.063368	-0.251904	0.251899
O6	O	1.227909	-0.219798	0.284032
O7	O	1.108518	-0.284030	0.135023
O8	O	1.018290	-0.135034	0.219815
O9	O	1.227834	-0.284027	0.219793
O10	O	1.108693	-0.135031	0.284044
O11	O	1.018190	-0.219804	0.135032
O12	O	0.898894	-0.219789	0.219783
O13	O	1.018149	-0.284000	0.368759
O14	O	0.898834	-0.284004	0.283989
O15	O	1.108613	-0.219783	0.368783
O16	O	1.108438	-0.368782	0.219761
O17	O	1.018050	-0.368770	0.283976
C18	C	0.872161	-0.251895	0.251884
C19	C	0.790362	-0.251904	0.251890
C20	C	0.602156	-0.285393	0.285280
C21	C	0.525297	-0.285395	0.285286
C22	C	0.525331	-0.218425	0.218530
C23	C	0.602188	-0.218421	0.218526
C24	C	0.640599	-0.251908	0.251901
C25	C	0.486883	-0.251914	0.251911
C26	C	0.403549	-0.251915	0.251917
C27	C	0.723938	-0.251906	0.251895
C28	C	1.063244	-0.387747	0.251875
C29	C	1.063258	-0.445861	0.251883
C30	C	1.110556	-0.806217	0.218520
C31	C	1.110584	-0.860821	0.218527
O32	O	1.150670	-0.889053	0.190134
N33	N	1.063497	-0.888143	0.251934
C34	C	1.016383	-0.860858	0.285340
O35	O	0.976335	-0.889111	0.313757
C36	C	1.016359	-0.806255	0.285335
C37	C	1.063444	-0.778936	0.251922
C38	C	1.157638	-0.778898	0.185110
C39	C	1.157608	-0.724298	0.185102
C40	C	1.110496	-0.697016	0.218505
C41	C	1.063414	-0.724335	0.251915
C42	C	0.969250	-0.778970	0.318744
C43	C	0.969230	-0.724363	0.318736
C44	C	1.016315	-0.697044	0.285323
C45	C	1.016273	-0.642453	0.285310
N46	N	1.063361	-0.615131	0.251902
C47	C	1.110472	-0.642413	0.218500
C48	C	1.016439	-0.975528	0.285348
C49	C	1.016459	-1.030131	0.285351
C50	C	1.110661	-1.030091	0.218538
C51	C	1.110637	-0.975487	0.218533
C52	C	1.063526	-0.948207	0.251941
C53	C	1.110406	-0.527748	0.218486
C54	C	1.110370	-0.473142	0.218480
C55	C	1.016171	-0.473187	0.285295
C56	C	1.016204	-0.527788	0.285299
C57	C	1.063327	-0.555067	0.251893
O58	O	0.976210	-0.614187	0.313689
O59	O	1.150521	-0.614153	0.190093
C60	C	1.255320	-0.251914	0.251915
C61	C	1.337119	-0.251918	0.251921
C62	C	1.063383	-0.251889	0.388272
C63	C	1.063390	-0.251883	0.446386
C64	C	1.063512	-0.115531	0.251935
C65	C	1.063573	-0.057417	0.251950
C66	C	1.063394	-0.251881	0.116057
C67	C	1.063530	-0.251740	0.057943
C68	C	1.016335	-0.285255	0.697562
C69	C	1.016322	-0.285267	0.642957
O70	O	0.976243	-0.313694	0.614705
N71	N	1.063418	-0.251841	0.615660
C72	C	1.110525	-0.218397	0.642970
O73	O	1.150583	-0.189966	0.614738
C74	C	1.110534	-0.218383	0.697574
C75	C	1.063440	-0.251815	0.724868
C76	C	0.969244	-0.318685	0.724856
C77	C	0.969258	-0.318673	0.779457
C78	C	1.016363	-0.285233	0.806763
C79	C	1.063454	-0.251804	0.779469
C80	C	1.157637	-0.184937	0.724883
C81	C	1.157641	-0.184925	0.779490
C82	C	1.110547	-0.218357	0.806784
C83	C	1.110573	-0.218352	0.861375
N84	N	1.063476	-0.251779	0.888672
C85	C	1.016371	-0.285219	0.861366
C86	C	1.110502	-0.218428	0.528300
C87	C	1.110498	-0.218445	0.473697
C88	C	1.016293	-0.285314	0.473688
C89	C	1.016302	-0.285300	0.528291
C90	C	1.063406	-0.251855	0.555597
C91	C	1.016405	-0.285193	0.976031
C92	C	1.016425	-0.285181	1.030637
C93	C	1.110627	-0.218309	1.030641
C94	C	1.110610	-0.218323	0.976041
C95	C	1.063493	-0.251767	0.948737
O96	O	1.150629	-0.189939	0.889662
O97	O	0.976314	-0.313640	0.889605
H98	H	0.494001	-0.312661	0.312468
H99	H	0.978075	-0.312407	1.052857
H100	H	0.633489	-0.191150	0.191345
H101	H	0.494048	-0.191161	0.191357
H102	H	0.977953	-0.312523	0.550511
H103	H	1.148712	-0.450901	0.191269
N104	N	1.208432	-0.148877	0.695453
H105	H	1.238266	-0.127692	0.721045
H106	H	1.178497	-0.124684	0.672801
N107	N	1.161224	-0.557170	0.182456
H108	H	1.213793	-0.547622	0.190606
H109	H	1.149759	-0.547680	0.145106
H110	H	0.930868	-0.702154	0.345943
H111	H	1.148978	-0.953247	0.191325
H112	H	0.978031	-0.312422	0.953807
H113	H	1.195951	-0.702058	0.157896
N114	N	1.208451	-0.808321	0.149079
H115	H	1.261020	-0.798775	0.157230
H116	H	1.196985	-0.798827	0.111731
H117	H	1.149024	-1.052313	0.191341
N118	N	0.965662	-1.059593	0.321380
H119	H	0.935814	-1.034020	0.342536
H120	H	0.995599	-1.082215	0.345602
N121	N	1.161411	-0.182272	0.946598
H122	H	1.191256	-0.161088	0.972184
H123	H	1.131474	-0.158077	0.923949
H124	H	0.930880	-0.345915	0.702629
N125	N	0.965618	-0.946106	0.321379
H126	H	0.935794	-0.971704	0.342539
H127	H	0.931570	-0.923486	0.300071
H128	H	0.930904	-0.801204	0.345950
H129	H	0.633428	-0.312660	0.312457
H130	H	1.148855	-0.191226	0.451479
H131	H	0.930907	-0.345896	0.801675
N132	N	0.965485	-0.321383	0.444231
H133	H	0.972628	-0.316315	0.405499
H134	H	0.912935	-0.313240	0.453772
H135	H	0.977865	-0.550032	0.312508
N136	N	0.965355	-0.443757	0.321317
H137	H	0.972486	-0.405021	0.316240
H138	H	0.976776	-0.453272	0.358667
H139	H	1.148866	-0.191193	0.550528
H140	H	1.195996	-0.157687	0.801719
N141	N	1.161433	-0.182244	1.060098
H142	H	1.154289	-0.187311	1.098830
H143	H	1.150012	-0.144905	1.050560
