data_functionalizedCrystal
_audit_creation_method	'MofGen! by Chris Wilmer'
_symmetry_space_group_name_H-M	'P1'
_symmetry_Int_Tables_number	1
_symmetry_cell_setting	triclinic
loop_
_symmetry_equiv_pos_as_xyz
  x,y,z
_cell_length_a	18.101398
_cell_length_b	18.101395
_cell_length_c	18.101390
_cell_angle_alpha	89.968753
_cell_angle_beta	89.977223
_cell_angle_gamma	90.026371
loop_
_atom_site_label
_atom_site_type_symbol
_atom_site_fract_x
_atom_site_fract_y
_atom_site_fract_z
Zn1	Zn	1.132110	-0.294895	-0.418847
Zn2	Zn	1.632110	0.205105	0.081153
Zn3	Zn	1.132009	-0.418752	-0.295009
Zn4	Zn	1.632009	0.081248	0.204991
Zn5	Zn	1.008272	-0.294919	-0.295008
Zn6	Zn	1.508272	0.205081	0.204992
Zn7	Zn	1.008219	-0.418689	-0.418797
Zn8	Zn	1.508219	0.081311	0.081203
O9	O	1.070152	-0.356814	-0.356915
O10	O	1.570152	0.143186	0.143085
O11	O	1.235729	-0.311342	-0.402441
O12	O	1.735729	0.188658	0.097559
O13	O	1.115575	-0.402362	-0.191376
O14	O	1.615575	0.097638	0.308624
O15	O	1.024764	-0.191283	-0.311456
O16	O	1.524764	0.308717	0.188544
O17	O	1.235655	-0.402339	-0.311457
O18	O	1.735655	0.097661	0.188543
O19	O	1.115747	-0.191266	-0.402440
O20	O	1.615747	0.308734	0.097560
O21	O	1.024666	-0.311382	-0.191375
O22	O	1.524666	0.188618	0.308625
O23	O	0.904632	-0.311321	-0.311408
O24	O	1.404632	0.188679	0.188592
O25	O	1.024674	-0.402232	-0.522437
O26	O	1.524674	0.097768	-0.022437
O27	O	0.904593	-0.402255	-0.402355
O28	O	1.404593	0.097745	0.097645
O29	O	1.115696	-0.311281	-0.522473
O30	O	1.615696	0.188719	-0.022473
O31	O	1.115524	-0.522377	-0.311409
O32	O	1.615524	-0.022377	0.188591
O33	O	1.024576	-0.522331	-0.402356
O34	O	1.524576	-0.022331	0.097644
C35	C	0.877742	-0.356784	-0.356877
C36	C	1.377742	0.143216	0.143123
C37	C	0.795428	-0.356789	-0.356878
C38	C	1.295428	0.143211	0.143122
C39	C	0.496337	-0.356835	-0.356940
C40	C	0.996337	0.143165	0.143060
C41	C	0.527662	-0.299336	-0.299997
C42	C	1.027662	0.200664	0.200003
C43	C	0.613280	-0.299490	-0.299754
C44	C	1.113280	0.200510	0.200246
C45	C	0.644719	-0.356812	-0.356909
C46	C	1.144719	0.143188	0.143091
C47	C	0.613602	-0.434825	-0.335587
C48	C	1.113602	0.065175	0.164413
C49	C	0.527957	-0.434505	-0.335191
C50	C	1.027957	0.065495	0.164809
C51	C	0.527949	-0.336999	-0.435339
C52	C	1.027949	0.163001	0.064661
C53	C	0.613600	-0.335262	-0.434911
C54	C	1.113600	0.164738	0.065089
C55	C	0.728579	-0.356803	-0.356893
C56	C	1.228579	0.143197	0.143107
C57	C	0.412477	-0.356849	-0.356954
C58	C	0.912477	0.143151	0.143046
C59	C	1.070053	-0.549225	-0.356893
C60	C	1.570053	-0.049225	0.143107
C61	C	1.070079	-0.631539	-0.356909
C62	C	1.570079	-0.131539	0.143091
C63	C	1.070241	-0.930630	-0.356949
C64	C	1.570241	-0.430630	0.143051
C65	C	1.013152	-0.899306	-0.414312
C66	C	1.513152	-0.399306	0.085688
C67	C	1.012881	-0.813688	-0.414133
C68	C	1.512881	-0.313688	0.085867
C69	C	1.070161	-0.782247	-0.356930
C70	C	1.570161	-0.282247	0.143070
C71	C	1.049034	-0.813402	-0.278878
C72	C	1.549034	-0.313402	0.221122
C73	C	1.048666	-0.899047	-0.279221
C74	C	1.548666	-0.399047	0.220779
C75	C	1.148582	-0.898978	-0.376950
C76	C	1.648582	-0.398978	0.123050
C77	C	1.148122	-0.813327	-0.378661
C78	C	1.648122	-0.313327	0.121339
C79	C	1.070116	-0.698388	-0.356914
C80	C	1.570116	-0.198388	0.143086
C81	C	1.070284	-1.014489	-0.356959
C82	C	1.570284	-0.514489	0.143041
C83	C	1.263314	-0.356845	-0.356954
C84	C	1.763314	0.143155	0.143046
C85	C	1.345628	-0.356858	-0.356971
C86	C	1.845628	0.143142	0.143029
C87	C	1.070190	-0.356747	-0.550077
C88	C	1.570190	0.143253	-0.050077
C89	C	1.070206	-0.356718	-0.632391
C90	C	1.570206	0.143282	-0.132391
C91	C	1.070272	-0.163652	-0.356953
C92	C	1.570272	0.336348	0.143047
C93	C	1.070323	-0.081338	-0.356970
C94	C	1.570323	0.418662	0.143030
C95	C	1.070233	-0.356695	-0.783100
C96	C	1.570233	0.143305	-0.283100
C97	C	1.127503	-0.299466	-0.814476
C98	C	1.627503	0.200534	-0.314476
C99	C	1.127742	-0.299621	-0.900095
C100	C	1.627742	0.200379	-0.400095
C101	C	1.070259	-0.356671	-0.931482
C102	C	1.570259	0.143329	-0.431482
C103	C	1.091134	-0.434784	-0.900376
C104	C	1.591134	0.065216	-0.400376
C105	C	1.091535	-0.434467	-0.814731
C106	C	1.591535	0.065533	-0.314731
C107	C	0.991948	-0.336488	-0.814649
C108	C	1.491948	0.163512	-0.314649
C109	C	0.992383	-0.334753	-0.900301
C110	C	1.492383	0.165247	-0.400301
C111	C	1.070272	-0.356662	-1.015342
C112	C	1.570272	0.143338	-0.515342
C113	C	1.070221	-0.356709	-0.699240
C114	C	1.570221	0.143291	-0.199240
C115	C	1.070158	-0.356828	-0.164505
C116	C	1.570158	0.143172	0.335495
C117	C	1.070285	-0.356648	-0.082191
C118	C	1.570285	0.143352	0.417809
H119	H	0.635018	-0.451938	-0.278892
H120	H	1.135018	0.048062	0.221108
H121	H	0.506114	-0.312302	-0.242242
H122	H	1.006114	0.187698	0.257758
H123	H	1.026099	-0.792621	-0.472007
H124	H	1.526099	-0.292621	0.027993
H125	H	0.972875	-0.280507	-0.793053
H126	H	1.472875	0.219493	-0.293053
H127	H	0.976634	-0.277267	-0.920634
H128	H	1.476634	0.222733	-0.420634
C129	C	0.640917	-0.317211	-0.221274
C130	C	1.140917	0.182789	0.278726
N131	N	0.661733	-0.330561	-0.162159
N132	N	1.161733	0.169439	0.337841
C133	C	1.037622	-0.494062	-0.786684
C134	C	1.537622	0.005938	-0.286684
N135	N	0.997022	-0.538954	-0.765562
N136	N	1.497022	-0.038954	-0.265562
C137	C	1.103435	-0.785887	-0.219560
C138	C	1.603435	-0.285887	0.280440
N139	N	1.144410	-0.765159	-0.174882
N140	N	1.644410	-0.265159	0.325118
H141	H	0.507692	-0.378879	-0.477766
H142	H	1.007692	0.121121	0.022234
C143	C	0.931698	-0.386944	-0.929130
C144	C	1.431698	0.113056	-0.429130
N145	N	0.885994	-0.426269	-0.950833
N146	N	1.385994	0.073731	-0.450833
H147	H	0.507946	-0.451327	-0.277877
H148	H	1.007946	0.048673	0.222123
C149	C	0.498813	-0.261480	-0.461526
C150	C	0.998813	0.238520	0.038474
N151	N	0.476870	-0.204594	-0.481240
N152	N	0.976870	0.295406	0.018760
C153	C	0.934306	-0.392792	-0.787227
C154	C	1.434306	0.107208	-0.287227
N155	N	0.890896	-0.435201	-0.766567
N156	N	1.390896	0.064799	-0.266567
H157	H	1.191116	-0.919235	-0.335170
H158	H	1.691116	-0.419235	0.164830
C159	C	0.972484	-0.784516	-0.255582
C160	C	1.472484	-0.284516	0.244418
N161	N	0.914824	-0.762760	-0.238040
N162	N	1.414824	-0.262760	0.261960
H163	H	0.991399	-0.919087	-0.262279
H164	H	1.491399	-0.419087	0.237721
H165	H	1.164054	-0.792961	-0.436103
H166	H	1.664054	-0.292961	0.063897
H167	H	0.634320	-0.241640	-0.313119
H168	H	1.134320	0.258360	0.186881
C169	C	1.030825	-0.927067	-0.492752
C170	C	1.530825	-0.427067	0.007248
N171	N	1.044137	-0.947983	-0.551835
N172	N	1.544137	-0.447983	-0.051835
C173	C	1.206119	-0.317714	-0.927795
C174	C	1.706119	0.182286	-0.427795
N175	N	1.265155	-0.331346	-0.948659
N176	N	1.765155	0.168654	-0.448659
H177	H	0.955437	-0.920889	-0.401230
H178	H	1.455437	-0.420889	0.098770
C179	C	1.110097	-0.220988	-0.786680
C180	C	1.610097	0.279012	-0.286680
N181	N	1.096985	-0.161877	-0.765741
N182	N	1.596985	0.338123	-0.265741
C183	C	1.036521	-0.493957	-0.927838
C184	C	1.536521	0.006043	-0.427838
N185	N	0.995385	-0.538525	-0.948525
N186	N	1.495385	-0.038525	-0.448525
H187	H	0.633944	-0.277853	-0.450989
H188	H	1.133944	0.222147	0.049011
H189	H	1.147720	-0.452174	-0.921855
H190	H	1.647720	0.047826	-0.421855
H191	H	0.954812	-0.793261	-0.400884
H192	H	1.454812	-0.293261	0.099116
H193	H	1.088443	-0.919771	-0.235023
H194	H	1.588443	-0.419771	0.264977
C195	C	0.499959	-0.494345	-0.388772
C196	C	0.999959	0.005655	0.111228
N197	N	0.478874	-0.539419	-0.429126
N198	N	0.978874	-0.039419	0.070874
H199	H	0.507091	-0.241309	-0.313215
H200	H	1.007091	0.258691	0.186785
C201	C	1.168836	-0.457545	-0.787758
C202	C	1.668836	0.042455	-0.287758
N203	N	1.227063	-0.474923	-0.767446
N204	N	1.727063	0.025077	-0.267446
C205	C	1.174603	-0.928081	-0.452533
C206	C	1.674603	-0.428081	0.047467
N207	N	1.194192	-0.950000	-0.509465
N208	N	1.694192	-0.450000	-0.009465
C209	C	1.208625	-0.784412	-0.326331
C210	C	1.708625	-0.284412	0.173669
N211	N	1.254194	-0.762634	-0.286908
N212	N	1.754194	-0.262634	0.213092
H213	H	1.185182	-0.312699	-0.792968
H214	H	1.685182	0.187301	-0.292968
H215	H	1.114700	-0.241710	-0.921129
H216	H	1.614700	0.258290	-0.421129
C217	C	0.642509	-0.387720	-0.495299
C218	C	1.142509	0.112280	0.004701
N219	N	0.664281	-0.427239	-0.540782
N220	N	1.164281	0.072761	-0.040782
C221	C	0.641121	-0.494257	-0.389854
C222	C	1.141121	0.005743	0.110146
N223	N	0.661853	-0.539020	-0.430728
N224	N	1.161853	-0.039020	0.069272
