data_functionalizedCrystal
_audit_creation_method	'MofGen! by Chris Wilmer'
_symmetry_space_group_name_H-M	'P1'
_symmetry_Int_Tables_number	1
_symmetry_cell_setting	triclinic
loop_
_symmetry_equiv_pos_as_xyz
  x,y,z
_cell_length_a	14.853566
_cell_length_b	22.010155
_cell_length_c	14.853567
_cell_angle_alpha	90.008054
_cell_angle_beta	96.365328
_cell_angle_gamma	90.005626
loop_
_atom_site_label
_atom_site_type_symbol
_atom_site_fract_x
_atom_site_fract_y
_atom_site_fract_z
O1	O	1.196372	0.050480	-0.117686
O2	O	0.933912	0.050489	-0.131709
O3	O	1.072153	0.050486	0.006532
O4	O	1.058132	0.050483	-0.255927
O5	O	1.072128	-0.050564	0.006512
O6	O	0.933887	-0.050561	-0.131730
O7	O	1.196347	-0.050571	-0.117707
Cu8	Cu	1.065115	-0.059793	-0.124720
Cu9	Cu	1.065144	0.059711	-0.124696
O10	O	1.058106	-0.050567	-0.255948
C11	C	0.900311	-0.000035	-0.131084
C12	C	0.800227	-0.000031	-0.129181
N13	N	1.065100	-0.143845	-0.124737
C14	C	0.377056	0.055041	-0.121119
C15	C	0.377050	-0.055128	-0.121142
C16	C	0.471084	-0.055126	-0.122929
C17	C	0.518108	-0.000040	-0.123813
C18	C	0.471099	0.055045	-0.122909
C19	C	0.518100	-0.110209	-0.123842
C20	C	0.612140	-0.110210	-0.125631
C21	C	0.659166	-0.055123	-0.126508
C22	C	0.612151	-0.000036	-0.125603
C23	C	0.659175	0.055050	-0.126487
C24	C	0.612162	0.110137	-0.125575
C25	C	0.518125	0.110132	-0.123786
C26	C	0.753203	-0.055117	-0.128297
C27	C	0.753218	0.055054	-0.128277
C28	C	1.126361	-0.563626	-0.063491
C29	C	1.126365	-0.627233	-0.063485
O30	O	1.178415	-0.660126	-0.011423
N31	N	1.065144	-0.659052	-0.124677
C32	C	1.003908	-0.627260	-0.185873
O33	O	0.951835	-0.660165	-0.237920
C34	C	1.003901	-0.563654	-0.185874
C35	C	1.065132	-0.531838	-0.124684
C36	C	1.187587	-0.531810	-0.002306
C37	C	1.187583	-0.468207	-0.002313
C38	C	1.126354	-0.436419	-0.063506
C39	C	1.065129	-0.468235	-0.124692
C40	C	0.942662	-0.531863	-0.247064
C41	C	0.942659	-0.468252	-0.247060
C42	C	1.003890	-0.436436	-0.185870
C43	C	1.003896	-0.372844	-0.185892
N44	N	1.065118	-0.341025	-0.124700
C45	C	1.126347	-0.372813	-0.063507
C46	C	1.003928	-0.760838	-0.185864
C47	C	1.003940	-0.824443	-0.185868
C48	C	1.126396	-0.824412	-0.063479
C49	C	1.126388	-0.760806	-0.063481
C50	C	1.065150	-0.729019	-0.124673
C51	C	1.126336	-0.239242	-0.063528
C52	C	1.126329	-0.175633	-0.063544
C53	C	1.003871	-0.175669	-0.185929
C54	C	1.003880	-0.239273	-0.185917
C55	C	1.065116	-0.271057	-0.124709
O56	O	0.951871	-0.339911	-0.237925
O57	O	1.178404	-0.339900	-0.011461
C58	C	1.229948	-0.000045	-0.118332
C59	C	1.330032	-0.000045	-0.120235
C60	C	1.071505	-0.000037	0.040111
C61	C	1.069601	-0.000032	0.140194
N62	N	1.065166	0.143764	-0.124672
C63	C	1.058754	-0.000043	-0.289526
C64	C	1.060658	-0.000044	-0.389610
C65	C	0.979435	-0.000040	0.552728
C66	C	1.143668	-0.000046	0.574009
C67	C	1.145458	-0.000043	0.479976
C68	C	1.064236	-0.000039	0.422313
C69	C	0.981223	-0.000039	0.458685
C70	C	1.228470	-0.000049	0.443597
C71	C	1.230263	-0.000046	0.349558
C72	C	1.149040	-0.000038	0.291894
C73	C	1.066023	-0.000037	0.328271
C74	C	0.984801	-0.000033	0.270608
C75	C	0.901784	-0.000028	0.306983
C76	C	0.899999	-0.000031	0.401021
C77	C	1.150824	-0.000036	0.197856
C78	C	0.986588	-0.000032	0.176566
H79	H	0.791498	0.099912	-0.128993
Br80	Br	0.817002	-0.129872	-0.129544
Br81	Br	0.454277	-0.184965	-0.122658
Br82	Br	1.209438	-0.132458	0.019501
H83	H	0.338757	-0.099977	-0.120429
H84	H	0.650410	-0.155065	-0.126371
Br85	Br	0.791558	-0.000031	0.228717
H86	H	0.892788	-0.442374	-0.296889
Br87	Br	1.270681	-0.425036	0.080737
Br88	Br	0.313262	0.129799	-0.119850
H89	H	1.294597	-0.000058	0.490552
Br90	Br	1.209442	-0.282367	0.019541
Br91	Br	0.787344	-0.000019	0.450393
Br92	Br	0.920779	-0.132519	-0.268977
H93	H	1.297861	-0.000050	0.319950
Br94	Br	0.920852	-0.867614	-0.268929
Br95	Br	0.920790	-0.282449	-0.268975
Br96	Br	0.675990	0.184894	-0.126784
Br97	Br	0.454323	0.184886	-0.122508
H98	H	0.954063	-0.734960	-0.235702
Br99	Br	1.270693	-0.574940	0.080754
H100	H	1.218415	-0.000044	0.168244
Br101	Br	1.209490	-0.717635	0.019565
H102	H	0.920446	-0.000026	0.129622
Br103	Br	1.209492	-0.867566	0.019568
H104	H	0.892801	-0.557758	-0.296890
Br105	Br	1.253894	-0.000064	0.652265
Br106	Br	0.866775	-0.000025	0.602090
