data_functionalizedCrystal
_audit_creation_method	'MofGen! by Chris Wilmer'
_symmetry_space_group_name_H-M	'P1'
_symmetry_Int_Tables_number	1
_symmetry_cell_setting	triclinic
loop_
_symmetry_equiv_pos_as_xyz
  x,y,z
_cell_length_a	14.519710
_cell_length_b	10.723024
_cell_length_c	9.798715
_cell_angle_alpha	90.001978
_cell_angle_beta	89.997255
_cell_angle_gamma	95.925993
loop_
_atom_site_label
_atom_site_type_symbol
_atom_site_fract_x
_atom_site_fract_y
_atom_site_fract_z
O1	O	1.224702	-0.163572	-0.113458
O2	O	1.724702	0.336428	0.386542
O3	O	0.956324	-0.182835	-0.113466
O4	O	1.456324	0.317165	0.386534
O5	O	1.096703	0.008431	-0.113457
O6	O	1.596703	0.508431	0.386543
O7	O	1.084322	-0.354837	-0.113467
O8	O	1.584322	0.145163	0.386533
O9	O	1.096693	0.008431	0.113525
O10	O	1.596693	0.508431	0.613525
O11	O	0.956313	-0.182834	0.113516
O12	O	1.456313	0.317166	0.613516
O13	O	1.224692	-0.163571	0.113525
O14	O	1.724692	0.336429	0.613525
Zn15	Zn	1.090501	-0.173203	0.149558
Zn16	Zn	1.590501	0.326797	0.649558
Zn17	Zn	1.090515	-0.173203	-0.149500
Zn18	Zn	1.590515	0.326797	0.350500
O19	O	1.084312	-0.354837	0.113515
O20	O	1.584312	0.145163	0.613515
C21	C	0.921954	-0.181937	0.000023
C22	C	1.421954	0.318063	0.500023
C23	C	0.819559	-0.179246	0.000020
C24	C	1.319559	0.320754	0.500020
C25	C	1.259061	-0.164469	0.000032
C26	C	1.759061	0.335531	0.500032
C27	C	1.361456	-0.167159	0.000026
C28	C	1.861456	0.332841	0.500026
C29	C	1.095797	0.054922	0.000033
C30	C	1.595797	0.554922	0.500033
C31	C	1.093101	0.193451	0.000028
C32	C	1.593101	0.693451	0.500028
C33	C	1.736403	-0.177063	0.000025
C34	C	2.236403	0.322937	0.500025
C35	C	1.632081	-0.174313	0.000025
C36	C	2.132081	0.325687	0.500025
C37	C	1.548933	-0.172111	0.000024
C38	C	2.048933	0.327889	0.500024
C39	C	1.444604	-0.169361	0.000027
C40	C	1.944604	0.330639	0.500027
C41	C	1.085218	-0.401328	0.000022
C42	C	1.585218	0.098672	0.500022
C43	C	1.087914	-0.539857	0.000018
C44	C	1.587914	-0.039857	0.500018
N45	N	1.090498	-0.173201	0.353658
N46	N	1.590498	0.326799	0.853658
C47	C	1.171651	0.269169	0.000028
C48	C	1.671651	0.769169	0.500028
C49	C	1.168866	0.412346	0.000023
C50	C	1.668866	0.912346	0.500023
N51	N	1.090524	-0.173194	-0.353600
N52	N	1.590524	0.326806	0.146400
C53	C	1.149440	-0.092543	0.421439
C54	C	1.649440	0.407457	0.921439
C55	C	1.149454	-0.092538	0.578602
C56	C	1.649454	0.407462	1.078602
H57	H	1.240961	0.227995	0.000039
H58	H	1.740961	0.727995	0.500039
H59	H	1.040043	-0.242249	0.411979
H60	H	1.540043	0.257751	0.911979
H61	H	1.023791	0.234625	0.000017
H62	H	1.523791	0.734625	0.500017
H63	H	1.236110	0.477407	0.000030
H64	H	1.736110	0.977407	0.500030
C65	C	1.216695	-0.000253	0.656141
C66	C	1.716695	0.499747	1.156141
C67	C	1.200740	0.122347	0.621463
C68	C	1.700740	0.622347	1.121463
C69	C	1.262673	0.207396	0.692855
C70	C	1.762673	0.707396	1.192855
H71	H	1.207825	-0.012314	0.751463
H72	H	1.707825	0.487686	1.251463
H73	H	1.278405	-0.013653	0.632746
H74	H	1.778405	0.486347	1.132746
H75	H	1.139044	0.135742	0.644867
H76	H	1.639044	0.635742	1.144867
H77	H	1.209617	0.134448	0.526154
H78	H	1.709617	0.634448	1.026154
H79	H	1.324383	0.193997	0.669460
H80	H	1.824383	0.693997	1.169460
H81	H	1.253798	0.195324	0.788173
H82	H	1.753798	0.695324	1.288173
H83	H	1.251862	0.290590	0.669327
H84	H	1.751862	0.790590	1.169327
C85	C	1.023381	-0.265344	0.568525
C86	C	1.523381	0.234656	1.068525
C87	C	1.073204	-0.341581	0.486454
C88	C	1.573204	0.158419	0.986454
C89	C	1.011383	-0.426473	0.414672
C90	C	1.511383	0.073527	0.914672
H91	H	0.986386	-0.316067	0.631292
H92	H	1.486386	0.183933	1.131292
H93	H	0.984650	-0.220487	0.512712
H94	H	1.484650	0.279513	1.012712
H95	H	1.111918	-0.386435	0.542261
H96	H	1.611918	0.113565	1.042261
H97	H	1.110195	-0.290893	0.423661
H98	H	1.610195	0.209107	0.923661
H99	H	0.972652	-0.381616	0.358860
H100	H	1.472652	0.118384	0.858860
H101	H	0.974392	-0.477187	0.477449
H102	H	1.474392	0.022813	0.977449
H103	H	1.045178	-0.478202	0.358970
H104	H	1.545178	0.021798	0.858970
H105	H	1.020666	0.395089	0.000027
H106	H	1.520666	0.895089	0.500027
H107	H	1.199888	-0.023486	0.363120
H108	H	1.699888	0.476514	0.863120
