data_functionalizedCrystal
_audit_creation_method	'MofGen! by Chris Wilmer'
_symmetry_space_group_name_H-M	'P1'
_symmetry_Int_Tables_number	1
_symmetry_cell_setting	triclinic
loop_
_symmetry_equiv_pos_as_xyz
  x,y,z
_cell_length_a	17.699083
_cell_length_b	8.559649
_cell_length_c	16.176319
_cell_angle_alpha	89.994559
_cell_angle_beta	89.998611
_cell_angle_gamma	76.530840
loop_
_atom_site_label
_atom_site_type_symbol
_atom_site_fract_x
_atom_site_fract_y
_atom_site_fract_z
O1	O	0.992507	0.202110	-0.068628
O2	O	0.770623	0.228405	-0.068655
O3	O	0.901113	-0.017421	-0.068638
O4	O	0.862017	0.447935	-0.068645
O5	O	0.901098	-0.017436	0.068855
O6	O	0.770608	0.228389	0.068838
O7	O	0.992492	0.202094	0.068865
Cu8	Cu	0.881549	0.215240	0.081406
Cu9	Cu	0.881566	0.215259	-0.081196
O10	O	0.862002	0.447920	0.068849
C11	C	0.742473	0.227455	0.000088
C12	C	0.658616	0.224628	0.000078
C13	C	0.601734	0.368922	0.000076
C14	C	0.522943	0.366257	0.000087
C15	C	0.501037	0.219296	0.000094
C16	C	0.557926	0.074990	0.000098
C17	C	0.636715	0.077657	0.000093
C18	C	0.240179	0.064231	0.000118
C19	C	0.161383	0.061575	0.000121
C20	C	0.126407	0.352831	0.000112
C21	C	0.205196	0.355498	0.000108
C22	C	0.262078	0.211193	0.000116
C23	C	0.347512	0.214085	0.000106
C24	C	0.415605	0.216402	0.000098
C25	C	0.904069	-0.076970	0.000107
C26	C	0.912888	-0.254384	0.000104
C27	C	1.020643	0.203044	0.000120
C28	C	1.104499	0.205871	0.000125
C29	C	0.859047	0.507469	0.000101
C30	C	0.850227	0.684883	0.000099
N31	N	0.881542	0.215226	0.195771
N32	N	0.881580	0.215260	-0.195561
C33	C	0.939336	0.106419	0.239043
C34	C	0.939340	0.106417	0.325590
C35	C	0.881552	0.215232	0.368864
C36	C	0.823752	0.324044	0.325586
C37	C	0.823746	0.324037	0.239041
C38	C	0.823776	0.324074	0.674614
C39	C	0.823789	0.324076	0.761166
C40	C	0.939370	0.106455	0.761164
C41	C	0.939364	0.106447	0.674618
C42	C	0.881562	0.215253	0.631348
C43	C	0.881558	0.215252	0.537504
C44	C	0.881559	0.215242	0.462706
H45	H	0.476631	0.483756	0.000085
C46	C	0.993471	-0.365839	-0.000013
C47	C	1.033774	-0.337033	-0.070737
C48	C	1.108011	-0.439659	-0.070867
H49	H	0.989008	-0.474299	-0.000051
H50	H	1.020960	-0.346509	0.047911
H51	H	1.006292	-0.356376	-0.118648
H52	H	1.038258	-0.228593	-0.070714
H53	H	1.135500	-0.420329	-0.022943
H54	H	1.103541	-0.548113	-0.070903
H55	H	1.135369	-0.420118	-0.118848
C56	C	1.002122	-0.011905	0.192213
C57	C	1.052724	-0.107223	0.248637
C58	C	1.110566	-0.216261	0.205531
H59	H	1.030370	0.045312	0.158440
H60	H	0.978784	-0.078455	0.158478
H61	H	1.076061	-0.040681	0.282358
H62	H	1.024499	-0.164474	0.282412
H63	H	1.087227	-0.282811	0.171796
H64	H	1.138808	-0.159031	0.171759
H65	H	1.144902	-0.280957	0.243808
H66	H	0.986399	0.017818	0.360821
H67	H	0.986422	0.017846	0.639387
H68	H	0.986434	0.017854	0.796403
C69	C	0.301814	-0.092610	0.000082
C70	C	0.265761	-0.221877	0.000064
C71	C	0.322519	-0.366390	0.000020
H72	H	0.333306	-0.097860	0.048016
H73	H	0.333272	-0.097715	-0.047884
H74	H	0.234317	-0.216775	0.048026
H75	H	0.234273	-0.216680	-0.047866
H76	H	0.353977	-0.371494	-0.047946
H77	H	0.354008	-0.371623	0.047955
H78	H	0.298065	-0.454114	0.000001
H79	H	0.789834	-0.231386	0.000095
C80	C	0.760950	0.442284	0.808002
C81	C	0.710314	0.537540	0.751585
C82	C	0.652416	0.646428	0.794700
H83	H	0.784212	0.508905	0.841758
H84	H	0.732750	0.384902	0.841755
H85	H	0.738510	0.594917	0.717847
H86	H	0.687033	0.470964	0.717828
H87	H	0.624216	0.589046	0.828453
H88	H	0.675685	0.713037	0.828454
H89	H	0.618049	0.711062	0.756428
C90	C	0.761146	0.442308	0.627542
C91	C	0.795778	0.540008	0.577832
C92	C	0.738108	0.648944	0.534448
H93	H	0.726708	0.507270	0.665621
H94	H	0.732977	0.384960	0.593740
H95	H	0.823935	0.597353	0.611632
H96	H	0.830211	0.475091	0.539738
H97	H	0.709938	0.591596	0.500646
H98	H	0.703674	0.713895	0.572533
H99	H	0.761598	0.715237	0.500709
C100	C	0.760898	0.441997	0.372526
C101	C	0.688025	0.416235	0.351503
C102	C	0.630106	0.524851	0.394734
H103	H	0.762804	0.548713	0.358370
H104	H	0.769130	0.426410	0.430274
H105	H	0.679795	0.431835	0.293767
H106	H	0.686093	0.309540	0.365661
H107	H	0.638338	0.509264	0.452483
H108	H	0.632019	0.631561	0.380575
H109	H	0.580655	0.507377	0.380483
H110	H	0.776683	0.412636	0.203810
C111	C	0.534098	-0.084523	-0.000065
C112	C	0.489903	-0.094572	-0.070812
C113	C	0.467950	-0.241503	-0.070999
H114	H	0.504046	-0.091780	0.047826
H115	H	0.579243	-0.170127	-0.000108
H116	H	0.444765	-0.008991	-0.070762
H117	H	0.519939	-0.087343	-0.118715
H118	H	0.513095	-0.327107	-0.071042
H119	H	0.437901	-0.248747	-0.023105
H120	H	0.437968	-0.248347	-0.119003
C121	C	0.625626	0.528369	0.000195
C122	C	0.669858	0.538387	0.070917
C123	C	0.691887	0.685239	0.071050
H124	H	0.580533	0.614062	0.000239
H125	H	0.655673	0.535481	-0.047730
H126	H	0.639811	0.531291	0.118830
H127	H	0.714961	0.452728	0.070888
H128	H	0.721934	0.692352	0.023125
H129	H	0.646790	0.770921	0.071092
H130	H	0.721906	0.692050	0.119030
H131	H	0.080083	0.470330	0.000110
H132	H	0.223027	0.475168	0.000099
H133	H	0.683029	-0.039842	0.000094
H134	H	0.143552	-0.058106	0.000127
