data_functionalizedCrystal
_audit_creation_method	'MofGen! by Chris Wilmer'
_symmetry_space_group_name_H-M	'P1'
_symmetry_Int_Tables_number	1
_symmetry_cell_setting	triclinic
loop_
_symmetry_equiv_pos_as_xyz
  x,y,z
_cell_length_a	18.215407
_cell_length_b	18.215405
_cell_length_c	12.759393
_cell_angle_alpha	89.962431
_cell_angle_beta	89.980633
_cell_angle_gamma	90.022329
loop_
_atom_site_label
_atom_site_type_symbol
_atom_site_fract_x
_atom_site_fract_y
_atom_site_fract_z
Zn1	Zn	1.125086	-0.292991	-0.593962
Zn2	Zn	1.124991	-0.416077	-0.418264
Zn3	Zn	1.002015	-0.293024	-0.418299
Zn4	Zn	1.001985	-0.416015	-0.593902
O5	O	1.063519	-0.354527	-0.506107
O6	O	1.228058	-0.309331	-0.570665
O7	O	1.108650	-0.399794	-0.271247
O8	O	1.018393	-0.190035	-0.441640
O9	O	1.227988	-0.399762	-0.441581
O10	O	1.108813	-0.190011	-0.570699
O11	O	1.018300	-0.309387	-0.271273
O12	O	0.899027	-0.309326	-0.441583
O13	O	1.018342	-0.399656	-0.740931
O14	O	0.899005	-0.399687	-0.570598
O15	O	1.108784	-0.309271	-0.740975
O16	O	1.108621	-0.519053	-0.441523
O17	O	1.018249	-0.519008	-0.570564
C18	C	0.872313	-0.354504	-0.506088
C19	C	0.790514	-0.354512	-0.506105
C20	C	1.063441	-0.545733	-0.506056
C21	C	1.063476	-0.627532	-0.506070
C22	C	0.602356	-0.307522	-0.573426
C23	C	0.525497	-0.307528	-0.573429
C24	C	0.525435	-0.401553	-0.438806
C25	C	0.602292	-0.401542	-0.438798
C26	C	0.640751	-0.354528	-0.506114
C27	C	0.487034	-0.354545	-0.506125
C28	C	0.403701	-0.354552	-0.506129
C29	C	0.724089	-0.354519	-0.506109
C30	C	1.110643	-0.815725	-0.439002
C31	C	1.110675	-0.892584	-0.439027
C32	C	1.016490	-0.892576	-0.573287
C33	C	1.016461	-0.815719	-0.573266
C34	C	1.063536	-0.777295	-0.506117
C35	C	1.063598	-0.931011	-0.506164
C36	C	1.063633	-1.014345	-0.506192
C37	C	1.063502	-0.693957	-0.506091
C38	C	1.255472	-0.354550	-0.506126
C39	C	1.337271	-0.354560	-0.506134
C40	C	1.063571	-0.354453	-0.780140
C41	C	1.063593	-0.354421	-0.896917
C42	C	1.063617	-0.162574	-0.506180
C43	C	1.063659	-0.080775	-0.506212
C44	C	1.110692	-0.307353	-0.951803
C45	C	1.110710	-0.307326	-1.061527
C46	C	1.016526	-0.401442	-1.061469
C47	C	1.016505	-0.401464	-0.951747
C48	C	1.165071	-0.253018	-0.951838
C49	C	1.165089	-0.252991	-1.061562
C50	C	1.063510	-0.354548	-0.233139
C51	C	1.063631	-0.354372	-0.116363
H52	H	0.633666	-0.269237	-0.628236
C53	C	0.964653	-0.773443	-0.647124
N54	N	0.925640	-0.741602	-0.702761
H55	H	0.494239	-0.269250	-0.628240
H56	H	0.978149	-0.439789	-0.907062
H57	H	1.219194	-0.273452	-0.917800
C58	C	0.644529	-0.453255	-0.364745
N59	N	0.676341	-0.492202	-0.308969
H60	H	1.148975	-0.784443	-0.384326
C61	C	1.162493	-0.934853	-0.365190
N62	N	1.201524	-0.966690	-0.309571
C63	C	0.483123	-0.453270	-0.364769
N64	N	0.451255	-0.492227	-0.309006
C65	C	0.964702	-0.934849	-0.647135
N66	N	0.925690	-0.966688	-0.702754
H67	H	0.978187	-0.439742	-1.106125
H68	H	1.149833	-0.196024	-0.922090
H69	H	1.144705	-0.198838	-1.095618
C70	C	1.242083	-0.273625	-1.101795
N71	N	1.300072	-0.289167	-1.132098
