data_functionalizedCrystal
_audit_creation_method	'MofGen! by Chris Wilmer'
_symmetry_space_group_name_H-M	'P1'
_symmetry_Int_Tables_number	1
_symmetry_cell_setting	triclinic
loop_
_symmetry_equiv_pos_as_xyz
  x,y,z
_cell_length_a	21.395364
_cell_length_b	18.215405
_cell_length_c	21.395355
_cell_angle_alpha	89.983159
_cell_angle_beta	89.975484
_cell_angle_gamma	90.018496
loop_
_atom_site_label
_atom_site_type_symbol
_atom_site_fract_x
_atom_site_fract_y
_atom_site_fract_z
Zn1	Zn	0.957894	-0.293153	-0.354268
Zn2	Zn	1.291227	0.040181	-0.020935
Zn3	Zn	1.624560	0.373514	0.312399
Zn4	Zn	0.957811	-0.416201	-0.249494
Zn5	Zn	1.291144	-0.082868	0.083840
Zn6	Zn	1.624477	0.250466	0.417173
Zn7	Zn	0.853109	-0.293144	-0.249505
Zn8	Zn	1.186442	0.040190	0.083828
Zn9	Zn	1.519775	0.373523	0.417162
Zn10	Zn	0.853093	-0.416173	-0.354234
Zn11	Zn	1.186426	-0.082840	-0.020901
Zn12	Zn	1.519759	0.250494	0.312433
O13	O	0.905476	-0.354668	-0.301875
O14	O	1.238810	-0.021334	0.031458
O15	O	1.572143	0.311999	0.364792
O16	O	1.045561	-0.309491	-0.340379
O17	O	1.378894	0.023843	-0.007046
O18	O	1.712227	0.357176	0.326288
O19	O	0.943894	-0.399885	-0.161817
O20	O	1.277227	-0.066552	0.171516
O21	O	1.610561	0.266782	0.504849
O22	O	0.867050	-0.190161	-0.263421
O23	O	1.200384	0.143173	0.069912
O24	O	1.533717	0.476506	0.403246
O25	O	1.045500	-0.399894	-0.263402
O26	O	1.378833	-0.066560	0.069931
O27	O	1.712166	0.266773	0.403265
O28	O	0.944035	-0.190167	-0.340390
O29	O	1.277369	0.143166	-0.007057
O30	O	1.610702	0.476499	0.326277
O31	O	0.866970	-0.309476	-0.161825
O32	O	1.200303	0.023858	0.171508
O33	O	1.533636	0.357191	0.504841
O34	O	0.765429	-0.309448	-0.263388
O35	O	1.098762	0.023885	0.069946
O36	O	1.432095	0.357218	0.403279
O37	O	0.867023	-0.399846	-0.441916
O38	O	1.200356	-0.066513	-0.108583
O39	O	1.533689	0.266821	0.224750
O40	O	0.765417	-0.399837	-0.340332
O41	O	1.098750	-0.066504	-0.006998
O42	O	1.432083	0.266829	0.326335
O43	O	0.944020	-0.309464	-0.441941
O44	O	1.277353	0.023870	-0.108608
O45	O	1.610686	0.357203	0.224725
O46	O	0.943878	-0.519181	-0.263369
O47	O	1.277212	-0.185848	0.069965
O48	O	1.610545	0.147485	0.403298
O49	O	0.866942	-0.519161	-0.340321
O50	O	1.200275	-0.185828	-0.006988
O51	O	1.533609	0.147506	0.326346
C52	C	0.742689	-0.354639	-0.301858
C53	C	1.076022	-0.021306	0.031476
C54	C	1.409356	0.312027	0.364809
C55	C	0.673048	-0.354645	-0.301865
C56	C	1.006381	-0.021312	0.031468
C57	C	1.339714	0.312022	0.364802
C58	C	0.905416	-0.545874	-0.301854
C59	C	1.238750	-0.212541	0.031480
C60	C	1.572083	0.120793	0.364813
C61	C	0.905448	-0.627673	-0.301865
C62	C	1.238781	-0.294339	0.031468
C63	C	1.572115	0.038994	0.364801
C64	C	0.171283	-0.307706	-0.342031
C65	C	0.504616	0.025628	-0.008698
C66	C	0.837949	0.358961	0.324635
C67	C	0.236718	-0.307700	-0.342031
C68	C	0.570051	0.025633	-0.008698
C69	C	0.903385	0.358966	0.324635
C70	C	0.269409	-0.354690	-0.301889
C71	C	0.602743	-0.021357	0.031444
C72	C	0.936076	0.311977	0.364777
C73	C	0.236660	-0.401702	-0.261756
C74	C	0.569993	-0.068369	0.071578
C75	C	0.903326	0.264965	0.404911
C76	C	0.171226	-0.401711	-0.261761
C77	C	0.504559	-0.068378	0.071572
C78	C	0.837892	0.264955	0.404905
C79	C	0.373046	-0.360389	-0.245422
C80	C	0.706380	-0.027055	0.087911
C81	C	1.039713	0.306278	0.421245
C82	C	0.438479	-0.360374	-0.245415
C83	C	0.771813	-0.027041	0.087918
C84	C	1.105146	0.306292	0.421251
C85	C	0.471230	-0.354666	-0.301872
C86	C	0.804563	-0.021332	0.031461
C87	C	1.137897	0.312001	0.364795
C88	C	0.438540	-0.348956	-0.358337
C89	C	0.771873	-0.015623	-0.025004
C90	C	1.105206	0.317711	0.308330
C91	C	0.373105	-0.348965	-0.358343
C92	C	0.706439	-0.015632	-0.025009
C93	C	1.039772	0.317701	0.308324
C94	C	0.340362	-0.354686	-0.301879
C95	C	0.673695	-0.021352	0.031455
C96	C	1.007028	0.311981	0.364788
C97	C	0.574924	-0.307654	-0.342006
C98	C	0.908257	0.025679	-0.008672
C99	C	1.241591	0.359012	0.324661
C100	C	0.640361	-0.307654	-0.342007
C101	C	0.973694	0.025679	-0.008673
C102	C	1.307027	0.359013	0.324660
C103	C	0.640301	-0.401652	-0.261726
C104	C	0.973635	-0.068319	0.071608
C105	C	1.306968	0.265015	0.404941
C106	C	0.574866	-0.401656	-0.261730
C107	C	0.908199	-0.068323	0.071603
C108	C	1.241533	0.265011	0.404936
C109	C	0.542181	-0.354653	-0.301870
C110	C	0.875515	-0.021320	0.031464
C111	C	1.208848	0.312013	0.364797
C112	C	0.945553	-0.815809	-0.341997
C113	C	1.278887	-0.482476	-0.008664
C114	C	1.612220	-0.149142	0.324669
C115	C	0.945576	-0.892668	-0.342009
C116	C	1.278909	-0.559334	-0.008676
C117	C	1.612243	-0.226001	0.324658
C118	C	0.865477	-0.892774	-0.261792
C119	C	1.198810	-0.559441	0.071542
C120	C	1.532144	-0.226107	0.404875
C121	C	0.865452	-0.815917	-0.261784
C122	C	1.198785	-0.482583	0.071550
C123	C	1.532118	-0.149250	0.404883
C124	C	0.905493	-0.777436	-0.301885
C125	C	1.238827	-0.444103	0.031448
C126	C	1.572160	-0.110770	0.364781
C127	C	0.905541	-0.931152	-0.301905
C128	C	1.238875	-0.597819	0.031428
C129	C	1.572208	-0.264486	0.364761
C130	C	0.905566	-1.014486	-0.301918
C131	C	1.238899	-0.681153	0.031416
C132	C	1.572233	-0.347819	0.364749
C133	C	0.905468	-0.694097	-0.301874
C134	C	1.238802	-0.360764	0.031459
C135	C	1.572135	-0.027431	0.364793
C136	C	1.068900	-0.354696	-0.301893
C137	C	1.402233	-0.021363	0.031440
C138	C	1.735566	0.311970	0.364774
C139	C	1.138541	-0.354709	-0.301901
C140	C	1.471874	-0.021375	0.031433
C141	C	1.805208	0.311958	0.364766
C142	C	0.905528	-0.354653	-0.465298
C143	C	1.238862	-0.021319	-0.131965
C144	C	1.572195	0.312014	0.201368
C145	C	0.905551	-0.354646	-0.534940
C146	C	1.238884	-0.021313	-0.201606
C147	C	1.572217	0.312020	0.131727
C148	C	0.905554	-0.162715	-0.301911
C149	C	1.238887	0.170619	0.031423
C150	C	1.572220	0.503952	0.364756
C151	C	0.905587	-0.080916	-0.301926
C152	C	1.238920	0.252418	0.031408
C153	C	1.572253	0.585751	0.364741
C154	C	0.945641	-0.307582	-0.567667
C155	C	1.278975	0.025751	-0.234334
C156	C	1.612308	0.359084	0.099000
C157	C	0.945640	-0.307551	-0.633102
C158	C	1.278974	0.025783	-0.299769
C159	C	1.612307	0.359116	0.033564
C160	C	0.905556	-0.354596	-0.665808
C161	C	1.238889	-0.021263	-0.332475
C162	C	1.572222	0.312070	0.000859
C163	C	0.865457	-0.401664	-0.633073
C164	C	1.198790	-0.068330	-0.299740
C165	C	1.532124	0.265003	0.033594
C166	C	0.865455	-0.401689	-0.567639
C167	C	1.198788	-0.068355	-0.234306
C168	C	1.532121	0.264978	0.099028
C169	C	0.900587	-0.420860	-0.769475
C170	C	1.233921	-0.087526	-0.436142
C171	C	1.567254	0.245807	-0.102809
C172	C	0.900594	-0.420836	-0.834908
C173	C	1.233928	-0.087503	-0.501575
C174	C	1.567261	0.245831	-0.168242
C175	C	0.905559	-0.354518	-0.867629
C176	C	1.238893	-0.021185	-0.534296
C177	C	1.572226	0.312148	-0.200962
C178	C	0.910531	-0.288223	-0.834909
C179	C	1.243864	0.045111	-0.501575
C180	C	1.577197	0.378444	-0.168242
C181	C	0.910528	-0.288248	-0.769474
C182	C	1.243862	0.045086	-0.436141
C183	C	1.577195	0.378419	-0.102808
C184	C	0.905553	-0.354574	-0.736761
C185	C	1.238887	-0.021241	-0.403427
C186	C	1.572220	0.312093	-0.070094
C187	C	0.945651	-0.307416	-0.971309
C188	C	1.278985	0.025917	-0.637975
C189	C	1.612318	0.359251	-0.304642
C190	C	0.945646	-0.307383	-1.036745
C191	C	1.278979	0.025950	-0.703412
C192	C	1.612313	0.359284	-0.370079
C193	C	0.865466	-0.401503	-1.036715
C194	C	1.198799	-0.068169	-0.703382
C195	C	1.532133	0.265164	-0.370048
C196	C	0.865468	-0.401529	-0.971279
C197	C	1.198801	-0.068196	-0.637946
C198	C	1.532135	0.265138	-0.304613
C199	C	0.905564	-0.354487	-0.938580
C200	C	1.238897	-0.021153	-0.605247
C201	C	1.572231	0.312180	-0.271914
C202	C	0.905461	-0.354629	-0.139088
C203	C	1.238794	-0.021296	0.194246
C204	C	1.572127	0.312037	0.527579
C205	C	0.905560	-0.354428	-0.069447
C206	C	1.238893	-0.021095	0.263887
C207	C	1.572227	0.312238	0.597220
H208	H	0.144675	-0.269436	-0.374719
H209	H	0.478008	0.063898	-0.041385
H210	H	0.811341	0.397231	0.291948
H211	H	0.832818	-0.439966	-0.659706
H212	H	1.166151	-0.106633	-0.326373
H213	H	1.499484	0.226701	0.006960
Cl214	Cl	0.130063	-0.460802	-0.211304
Cl215	Cl	0.463396	-0.127469	0.122029
Cl216	Cl	0.796729	0.205864	0.455363
Cl217	Cl	0.815051	-0.460861	-0.526494
Cl218	Cl	1.148384	-0.127527	-0.193161
Cl219	Cl	1.481718	0.205806	0.140173
H220	H	0.263381	-0.269422	-0.374710
H221	H	0.596715	0.063912	-0.041376
H222	H	0.930048	0.397245	0.291957
Cl223	Cl	0.332011	-0.341794	-0.429324
Cl224	Cl	0.665344	-0.008461	-0.095991
Cl225	Cl	0.998678	0.324873	0.237343
Cl226	Cl	0.995936	-0.940905	-0.392441
Cl227	Cl	1.329270	-0.607571	-0.059108
Cl228	Cl	1.662603	-0.274238	0.274226
H229	H	0.832878	-0.924114	-0.229141
H230	H	1.166211	-0.590781	0.104192
H231	H	1.499544	-0.257448	0.437525
H232	H	0.978296	-0.269107	-0.944684
H233	H	1.311630	0.064226	-0.611350
H234	H	1.644963	0.397559	-0.278017
H235	H	0.832827	-0.784671	-0.229120
H236	H	1.166160	-0.451338	0.104214
H237	H	1.499494	-0.118005	0.437547
H238	H	0.978290	-0.269276	-0.541047
H239	H	1.311623	0.064058	-0.207714
H240	H	1.644956	0.397391	0.125619
H241	H	0.667018	-0.269381	-0.374690
H242	H	1.000351	0.063953	-0.041357
H243	H	1.333685	0.397286	0.291976
Cl244	Cl	0.996031	-0.248365	-0.674254
Cl245	Cl	1.329365	0.084969	-0.340921
Cl246	Cl	1.662698	0.418302	-0.007587
H247	H	0.914575	-0.234268	-0.742836
H248	H	1.247908	0.099066	-0.409503
H249	H	1.581241	0.432399	-0.076170
H250	H	0.978157	-0.784480	-0.374652
H251	H	1.311490	-0.451147	-0.041318
H252	H	1.644823	-0.117813	0.292015
Cl253	Cl	0.916776	-0.204846	-0.876036
Cl254	Cl	1.250109	0.128487	-0.542702
Cl255	Cl	1.583442	0.461820	-0.209369
Cl256	Cl	0.996060	-0.248223	-1.077889
Cl257	Cl	1.329394	0.085111	-0.744556
Cl258	Cl	1.662727	0.418444	-0.411222
Cl259	Cl	0.815067	-0.460640	-1.077824
Cl260	Cl	1.148400	-0.127307	-0.744491
Cl261	Cl	1.481734	0.206027	-0.411158
Cl262	Cl	0.815068	-0.460702	-0.930134
Cl263	Cl	1.148401	-0.127369	-0.596801
Cl264	Cl	1.481734	0.205965	-0.263468
H265	H	0.896550	-0.474818	-0.861544
H266	H	1.229883	-0.141485	-0.528211
H267	H	1.563217	0.191849	-0.194878
H268	H	0.548311	-0.269382	-0.374690
H269	H	0.881644	0.063952	-0.041356
H270	H	1.214978	0.397285	0.291977
Cl271	Cl	0.479704	-0.341769	-0.429315
Cl272	Cl	0.813038	-0.008435	-0.095982
Cl273	Cl	1.146371	0.324898	0.237351
H274	H	0.666918	-0.439918	-0.229046
H275	H	1.000251	-0.106584	0.104287
H276	H	1.333585	0.226749	0.437621
Cl277	Cl	0.533703	-0.460738	-0.211267
Cl278	Cl	0.867036	-0.127404	0.122066
Cl279	Cl	1.200370	0.205929	0.455399
H280	H	0.896377	-0.474850	-0.742840
H281	H	1.229710	-0.141516	-0.409506
H282	H	1.563043	0.191817	-0.076173
H283	H	0.465091	-0.365019	-0.199438
H284	H	0.798424	-0.031686	0.133895
H285	H	1.131758	0.301648	0.467229
Cl286	Cl	0.331881	-0.367578	-0.174442
Cl287	Cl	0.665214	-0.034245	0.158891
Cl288	Cl	0.998548	0.299089	0.492225
H289	H	0.263281	-0.439963	-0.229073
H290	H	0.596615	-0.106630	0.104260
H291	H	0.929948	0.226703	0.437593
