data_functionalizedCrystal
_audit_creation_method	'MofGen! by Chris Wilmer'
_symmetry_space_group_name_H-M	'P1'
_symmetry_Int_Tables_number	1
_symmetry_cell_setting	triclinic
loop_
_symmetry_equiv_pos_as_xyz
  x,y,z
_cell_length_a	6.394984
_cell_length_b	14.971486
_cell_length_c	14.048226
_cell_angle_alpha	90.001501
_cell_angle_beta	90.002789
_cell_angle_gamma	85.054740
loop_
_atom_site_label
_atom_site_type_symbol
_atom_site_fract_x
_atom_site_fract_y
_atom_site_fract_z
O1	O	-0.272213	-1.189888	-0.079043
O2	O	-0.304811	-0.929841	-0.079068
O3	O	0.015544	-1.063558	-0.079058
O4	O	-0.592568	-1.056171	-0.079054
O5	O	0.015563	-1.063542	0.079264
O6	O	-0.304792	-0.929824	0.079253
O7	O	-0.272194	-1.189872	0.079278
Zn8	Zn	-0.288490	-1.059845	0.104402
Zn9	Zn	-0.288515	-1.059867	-0.104193
O10	O	-0.592549	-1.056154	0.079267
C11	C	-0.303344	-0.896492	0.000089
C12	C	-0.298975	-0.797147	0.000079
C13	C	0.329620	-1.057632	0.000110
C14	C	0.093371	-1.062083	0.000109
C15	C	-0.273661	-1.223221	0.000119
C16	C	-0.278030	-1.322565	0.000122
N17	N	-0.288472	-1.059837	0.246763
C18	C	-0.487175	-0.741956	0.000082
C19	C	-0.483057	-0.648612	0.000096
C20	C	-0.290738	-0.610461	0.000101
C21	C	-0.102524	-0.665660	0.000101
C22	C	-0.106643	-0.759002	0.000094
C23	C	-0.093951	-0.471105	0.000114
C24	C	-0.089830	-0.377757	0.000120
C25	C	-0.470365	-0.360715	0.000116
C26	C	-0.474484	-0.454057	0.000109
C27	C	-0.286269	-0.509249	0.000107
N28	N	-0.288517	-1.059883	-0.246553
C29	C	-0.146677	-1.119067	0.296586
C30	C	-0.146676	-1.119073	0.396244
C31	C	-0.288481	-1.059852	0.446077
C32	C	-0.430282	-1.000616	0.396247
C33	C	-0.430272	-1.000606	0.296591
C34	C	-0.430297	-1.000642	0.603961
C35	C	-0.430311	-1.000653	0.703624
C36	C	-0.146702	-1.119108	0.703614
C37	C	-0.146691	-1.119099	0.603958
C38	C	-0.288496	-1.059863	0.554135
H39	H	-0.636309	-0.603678	0.000097
C40	C	-0.586287	-0.935503	0.758437
C41	C	-0.742239	-0.870341	0.703631
C42	C	-0.898217	-0.805189	0.758443
C43	C	-0.898242	-0.805199	0.868060
C44	C	-0.742284	-0.870364	0.922873
C45	C	-0.586306	-0.935516	0.868061
H46	H	-0.742225	-0.870331	0.622480
H47	H	-1.013667	-0.756950	0.717866
H48	H	-1.013707	-0.756970	0.908635
H49	H	-0.742298	-0.870374	1.004023
H50	H	-0.470856	-0.983755	0.908637
H51	H	0.059314	-0.516041	0.000114
H52	H	-0.643783	-0.773010	0.000077
C53	C	-0.677411	-0.300010	0.000123
C54	C	-0.726915	-0.233488	-0.082081
C55	C	-0.933955	-0.172781	-0.082080
C56	C	-1.091491	-0.178596	0.000124
C57	C	-1.041991	-0.245121	0.082335
C58	C	-0.834951	-0.305828	0.082334
H59	H	-0.610294	-0.229181	-0.142940
H60	H	-0.970597	-0.123535	-0.142938
H61	H	-1.244754	-0.133657	0.000125
H62	H	-1.158611	-0.249428	0.143193
H63	H	-0.798309	-0.355074	0.143192
C64	C	0.009288	-1.184240	0.549136
C65	C	0.247164	-1.180069	0.562840
C66	C	0.403148	-1.245209	0.508017
C67	C	0.321257	-1.314520	0.439490
C68	C	0.083369	-1.318693	0.425783
C69	C	-0.072615	-1.253554	0.480606
H70	H	0.307795	-1.128759	0.613571
H71	H	0.579248	-1.242119	0.518164
H72	H	0.436726	-1.362740	0.398907
H73	H	0.022738	-1.370004	0.375053
H74	H	-0.248715	-1.256644	0.470459
H75	H	-0.545736	-0.952393	0.436827
H76	H	-0.631087	-0.485116	0.000096
H77	H	0.066773	-0.346698	0.000125
H78	H	0.054066	-0.634591	0.000119
H79	H	0.046609	-0.803939	0.000091
H80	H	-0.031212	-1.167294	0.256018
H81	H	-0.031215	-1.167301	0.436809
H82	H	-0.031240	-1.167339	0.744185
H83	H	-0.545763	-0.952403	0.563399
H84	H	-0.545732	-0.952374	0.256026
