data_functionalizedCrystal
_audit_creation_method	'MofGen! by Chris Wilmer'
_symmetry_space_group_name_H-M	'P1'
_symmetry_Int_Tables_number	1
_symmetry_cell_setting	triclinic
loop_
_symmetry_equiv_pos_as_xyz
  x,y,z
_cell_length_a	19.077105
_cell_length_b	12.594516
_cell_length_c	12.594510
_cell_angle_alpha	90.033997
_cell_angle_beta	92.318329
_cell_angle_gamma	87.708332
loop_
_atom_site_label
_atom_site_type_symbol
_atom_site_fract_x
_atom_site_fract_y
_atom_site_fract_z
Zn1	Zn	1.076066	-0.489118	0.667157
Zn2	Zn	1.076003	-0.667143	0.489176
Zn3	Zn	0.958365	-0.482022	0.482044
Zn4	Zn	0.958361	-0.659893	0.659968
O5	O	1.017199	-0.574544	0.574586
O6	O	1.174549	-0.518737	0.649541
O7	O	1.060373	-0.642651	0.339282
O8	O	0.974006	-0.334019	0.506624
O9	O	1.174503	-0.649532	0.518779
O10	O	1.060480	-0.339232	0.642626
O11	O	0.973945	-0.506643	0.334043
O12	O	0.859872	-0.499613	0.499652
O13	O	0.974000	-0.637175	0.809869
O14	O	0.859870	-0.630294	0.630372
O15	O	1.060477	-0.511707	0.815151
O16	O	1.060370	-0.815126	0.511808
O17	O	0.973939	-0.809799	0.637288
C18	C	0.834333	-0.563397	0.563459
C19	C	0.756102	-0.558654	0.558724
C20	C	1.017166	-0.851083	0.574566
C21	C	1.017216	-0.969391	0.574596
C22	C	0.719367	-0.624568	0.624451
C23	C	0.645861	-0.620097	0.620007
C24	C	0.609092	-0.549718	0.549830
C25	C	0.645833	-0.483798	0.484100
C26	C	0.719337	-0.488263	0.488550
C27	C	0.389254	-0.529049	0.529239
C28	C	0.315745	-0.524591	0.524791
C29	C	0.315778	-0.660889	0.660700
C30	C	0.389284	-0.665353	0.665140
C31	C	0.426018	-0.599429	0.599414
N32	N	0.533957	-0.545149	0.545283
N33	N	0.501152	-0.603993	0.603967
C34	C	1.064281	-1.041506	0.506427
C35	C	1.081480	-1.113239	0.604620
C36	C	1.000105	-1.108463	0.476471
C37	C	1.034449	-1.039568	0.672843
C38	C	0.953044	-1.034784	0.544626
C39	C	0.970219	-1.106483	0.642884
C40	C	1.200778	-0.585735	0.585758
C41	C	1.279009	-0.590504	0.590518
C42	C	1.017245	-0.574424	0.852210
C43	C	1.017265	-0.574373	0.970517
C44	C	1.017250	-0.296926	0.574631
C45	C	1.017273	-0.178622	0.574650
C46	C	1.017193	-0.574589	0.298045
C47	C	1.017309	-0.574349	0.179747
C48	C	1.064314	-0.506126	1.042644
C49	C	1.000120	-0.476168	1.109539
C50	C	1.081496	-0.604259	1.114423
C51	C	0.953037	-0.544362	1.035852
C52	C	1.034456	-0.672501	1.040732
C53	C	0.970218	-0.642577	1.107593
H54	H	0.615953	-0.673772	0.673528
O55	O	0.424823	-0.464972	0.465289
C56	C	0.376605	-0.401881	0.402416
H57	H	0.324207	-0.442299	0.395479
H58	H	0.397819	-0.391709	0.319860
H59	H	0.368801	-0.320618	0.441067
O60	O	0.888312	-0.993836	0.514134
C61	C	0.870436	-1.028878	0.410565
H62	H	0.920333	-1.051788	0.367747
H63	H	0.840211	-0.962310	0.365016
H64	H	0.836307	-1.100869	0.415182
O65	O	1.111618	-0.437085	1.008539
C66	C	1.093257	-0.333706	1.043571
H67	H	1.034881	-0.328138	1.059883
H68	H	1.104992	-0.273711	0.979573
H69	H	1.125049	-0.315675	1.119584
H70	H	0.419216	-0.722666	0.722283
H71	H	1.135774	-1.147575	0.629999
H72	H	0.749247	-0.434584	0.435033
H73	H	0.930404	-0.700278	1.136006
O74	O	0.755158	-0.692791	0.692680
C75	C	0.797690	-0.634851	0.764121
H76	H	0.808699	-0.554817	0.727383
H77	H	0.849378	-0.681362	0.781443
H78	H	0.769386	-0.621521	0.841303
H79	H	0.615890	-0.426489	0.426964
O80	O	0.279984	-0.724810	0.724508
C81	C	0.207223	-0.705801	0.705518
H82	H	0.197179	-0.623012	0.670188
H83	H	0.179312	-0.711411	0.783544
H84	H	0.186340	-0.767605	0.647469
O85	O	1.111862	-1.007406	0.437843
C86	C	1.179478	-1.047536	0.469857
H87	H	1.180778	-1.067395	0.558230
H88	H	1.219618	-0.985217	0.454581
H89	H	1.192713	-1.122442	0.422649
H90	H	1.049001	-0.755475	1.010454
H91	H	1.048891	-1.009399	0.755916
O92	O	0.922844	-1.140361	0.711912
C93	C	0.941166	-1.105083	0.815236
H94	H	0.999554	-1.088819	0.820881
H95	H	0.929347	-1.168913	0.875365
H96	H	0.909413	-1.028995	0.833014
H97	H	0.985609	-1.138760	0.393464
O98	O	0.982894	-0.377172	1.145779
C99	C	1.038221	-0.341118	1.212273
H100	H	1.070968	-0.412222	1.245264
H101	H	1.015656	-0.293350	1.280744
H102	H	1.072776	-0.288630	1.164583
H103	H	0.285809	-0.467267	0.467651
O104	O	0.888286	-0.514049	0.994821
C105	C	0.889047	-0.514412	0.882925
H106	H	0.945130	-0.505995	0.857036
H107	H	0.854504	-0.445170	0.849946
H108	H	0.868123	-0.592361	0.851312
O109	O	1.146328	-0.634314	1.155321
C110	C	1.195734	-0.562134	1.122340
H111	H	1.174872	-0.520329	1.046562
H112	H	1.247317	-0.607009	1.106380
H113	H	1.204963	-0.500699	1.187406
