data_functionalizedCrystal
_audit_creation_method	'MofGen! by Chris Wilmer'
_symmetry_space_group_name_H-M	'P1'
_symmetry_Int_Tables_number	1
_symmetry_cell_setting	triclinic
loop_
_symmetry_equiv_pos_as_xyz
  x,y,z
_cell_length_a	16.120530
_cell_length_b	12.827892
_cell_length_c	16.120297
_cell_angle_alpha	87.123928
_cell_angle_beta	89.871860
_cell_angle_gamma	87.111104
loop_
_atom_site_label
_atom_site_type_symbol
_atom_site_fract_x
_atom_site_fract_y
_atom_site_fract_z
Zn1	Zn	1.247499	-0.529438	0.534590
Zn2	Zn	1.747499	-0.029438	1.034590
Zn3	Zn	1.254468	-0.695798	0.395541
Zn4	Zn	1.754468	-0.195798	0.895541
Zn5	Zn	1.115487	-0.511779	0.388507
Zn6	Zn	1.615487	-0.011779	0.888507
Zn7	Zn	1.108424	-0.694836	0.527510
Zn8	Zn	1.608424	-0.194836	1.027510
O9	O	1.181470	-0.607963	0.461537
O10	O	1.681470	-0.107963	0.961537
O11	O	1.364790	-0.559299	0.522052
O12	O	1.864790	-0.059299	1.022052
O13	O	1.241904	-0.664400	0.278242
O14	O	1.741904	-0.164400	0.778242
O15	O	1.133038	-0.367889	0.407905
O16	O	1.633038	0.132111	0.907905
O17	O	1.369911	-0.681523	0.419892
O18	O	1.869911	-0.181523	0.919892
O19	O	1.230026	-0.380863	0.515232
O20	O	1.730026	0.119137	1.015232
O21	O	1.139796	-0.529202	0.273075
O22	O	1.639796	-0.029202	0.773075
O23	O	0.998183	-0.528269	0.401040
O24	O	1.498183	-0.028269	0.901040
O25	O	1.121000	-0.679883	0.644815
O26	O	1.621000	-0.179883	1.144815
O27	O	0.992994	-0.662760	0.503164
O28	O	1.492994	-0.162760	1.003164
O29	O	1.223178	-0.558366	0.650017
O30	O	1.723178	-0.058366	1.150017
O31	O	1.235056	-0.841903	0.413027
O32	O	1.735056	-0.341903	0.913027
O33	O	1.127758	-0.841196	0.509984
O34	O	1.627758	-0.341196	1.009984
C35	C	1.181418	-0.879469	0.461520
C36	C	1.681418	-0.379469	0.961520
C37	C	1.181471	-0.995627	0.461544
C38	C	1.681471	-0.495627	0.961544
C39	C	0.965416	-0.593495	0.450571
C40	C	1.465416	-0.093495	0.950571
C41	C	0.872986	-0.587331	0.445899
C42	C	1.372986	-0.087331	0.945899
C43	C	1.234622	-1.047734	0.413626
C44	C	1.734622	-0.547734	0.913626
C45	C	1.234678	-1.167789	0.413650
C46	C	1.734678	-0.667789	0.913650
C47	C	0.703755	-0.576055	0.437377
C48	C	1.203755	-0.076055	0.937377
C49	C	0.660021	-0.639952	0.485757
C50	C	1.160021	-0.139952	0.985757
C51	C	0.565855	-0.633677	0.481016
C52	C	1.065855	-0.133677	0.981016
C53	C	0.797930	-0.582328	0.442118
C54	C	1.297930	-0.082328	0.942118
C55	C	1.398367	-0.622489	0.472546
C56	C	1.898367	-0.122489	0.972546
C57	C	1.490796	-0.628679	0.477238
C58	C	1.990796	-0.128679	0.977238
C59	C	1.170524	-0.620987	0.678432
C60	C	1.670524	-0.120987	1.178432
C61	C	1.165859	-0.626537	0.770859
C62	C	1.665859	-0.126537	1.270859
C63	C	1.181543	-0.335400	0.461574
C64	C	1.681543	0.164600	0.961574
C65	C	1.181574	-0.219250	0.461589
C66	C	1.681574	0.280750	0.961589
C67	C	1.192421	-0.594917	0.245488
C68	C	1.692421	-0.094917	0.745488
C69	C	1.197246	-0.589084	0.153069
C70	C	1.697246	-0.089084	0.653069
C71	C	1.157313	-0.636645	0.940085
C72	C	1.657313	-0.136645	1.440085
C73	C	1.205790	-0.578979	0.983850
C74	C	1.705790	-0.078979	1.483850
C75	C	1.201035	-0.584603	1.078012
C76	C	1.701035	-0.084603	1.578012
C77	C	1.162067	-0.631022	0.845913
C78	C	1.662067	-0.131022	1.345913
H79	H	1.280181	-1.212599	0.372623
H80	H	1.780181	-0.712599	0.872623
H81	H	1.250863	-0.525384	0.950599
H82	H	1.750863	-0.025384	1.450599
H83	H	1.112243	-0.690235	0.973333
H84	H	1.612243	-0.190235	1.473333
N85	N	1.121296	-1.159909	0.515940
N86	N	1.621296	-0.659909	1.015940
H87	H	1.085865	-1.210752	0.547936
H88	H	1.585865	-0.710752	1.047936
H89	H	1.084562	-1.110073	0.480067
H90	H	1.584562	-0.610073	0.980067
N91	N	1.294855	-0.989109	0.359263
N92	N	1.794855	-0.489109	0.859263
H93	H	1.286279	-0.911655	0.366954
H94	H	1.786279	-0.411655	0.866954
H95	H	1.284983	-1.003743	0.299199
H96	H	1.784983	-0.503743	0.799199
H97	H	0.670479	-0.516644	0.392400
H98	H	1.170479	-0.016644	0.892400
H99	H	0.693300	-0.699366	0.530739
H100	H	1.193300	-0.199366	1.030739
N101	N	1.121240	-1.054256	0.515905
N102	N	1.621240	-0.554256	1.015905
H103	H	1.085760	-1.002988	0.547878
H104	H	1.585760	-0.502988	1.047878
H105	H	1.153167	-1.104065	0.556111
H106	H	1.653167	-0.604065	1.056111
