data_functionalizedCrystal
_audit_creation_method	'MofGen! by Chris Wilmer'
_symmetry_space_group_name_H-M	'P1'
_symmetry_Int_Tables_number	1
_symmetry_cell_setting	triclinic
loop_
_symmetry_equiv_pos_as_xyz
  x,y,z
_cell_length_a	17.038272
_cell_length_b	10.654562
_cell_length_c	9.730223
_cell_angle_alpha	89.996961
_cell_angle_beta	89.995251
_cell_angle_gamma	92.199170
loop_
_atom_site_label
_atom_site_type_symbol
_atom_site_fract_x
_atom_site_fract_y
_atom_site_fract_z
O1	O	-0.109922	1.678031	-0.114361
O2	O	-0.120380	1.313526	-0.114342
O3	O	-0.001324	1.493612	-0.114363
O4	O	-0.228979	1.497945	-0.114339
O5	O	-0.001327	1.493610	0.114217
O6	O	-0.120383	1.313524	0.114238
O7	O	-0.109925	1.678030	0.114219
Zn8	Zn	-0.115155	1.495777	0.150521
Zn9	Zn	-0.115151	1.495779	-0.150643
O10	O	-0.228982	1.497943	0.114241
C11	C	-0.119612	1.266656	-0.000050
C12	C	-0.117308	1.127000	-0.000043
C13	C	-0.116235	1.061368	0.124545
C14	C	-0.114077	0.930145	0.124522
C15	C	-0.114068	0.930197	-0.124689
C16	C	-0.116221	1.061418	-0.124664
C17	C	-0.116244	1.061337	0.268425
C18	C	-0.114086	0.930114	0.268402
C19	C	-0.258131	1.501885	-0.000046
C20	C	-0.344990	1.513642	-0.000038
C21	C	-0.394498	1.405698	-0.000033
C22	C	-0.476110	1.416753	-0.000051
C23	C	-0.508213	1.535752	-0.000064
C24	C	-0.458699	1.643704	-0.000073
C25	C	-0.377088	1.632648	-0.000065
C26	C	-0.754190	1.574810	-0.000097
C27	C	-0.835808	1.585857	-0.000101
C28	C	-0.853214	1.358905	-0.000082
C29	C	-0.771601	1.347860	-0.000065
C30	C	-0.722093	1.455812	-0.000082
C31	C	-0.591634	1.547054	-0.000078
C32	C	-0.638674	1.444508	-0.000078
C33	C	0.027825	1.489671	-0.000079
C34	C	0.114684	1.477914	-0.000096
C35	C	-0.110694	1.724900	-0.000076
C36	C	-0.112997	1.864556	-0.000091
N37	N	-0.115157	1.495784	0.356057
N38	N	-0.115142	1.495781	-0.356179
C39	C	-0.062457	1.575550	0.427974
C40	C	-0.062447	1.575546	0.571857
C41	C	-0.167845	1.416006	0.571894
C42	C	-0.167850	1.416005	0.428014
C43	C	-0.001608	1.667663	0.427954
C44	C	-0.001599	1.667658	0.571837
H45	H	-0.516417	1.328853	-0.000051
H46	H	0.055224	1.631869	0.616448
O47	O	-0.017494	1.784367	0.618273
C48	C	0.040359	1.871653	0.569863
H49	H	0.068935	1.832953	0.473611
H50	H	0.086928	1.888628	0.652612
C51	C	-0.033052	2.043881	0.653438
C52	C	0.002041	1.996353	0.535213
H53	H	-0.056686	2.120804	0.632070
H54	H	-0.072027	1.985075	0.686058
H55	H	0.005762	2.058016	0.722384
H56	H	-0.036774	1.982203	0.466276
H57	H	0.041009	2.055159	0.502581
H58	H	-0.745469	1.250958	-0.000071
H59	H	-0.020664	1.760615	0.383325
H60	H	-0.210756	1.351042	0.369460
H61	H	0.058522	1.640636	0.388894
H62	H	-0.062181	1.102576	0.323672
H63	H	-0.368366	1.308796	-0.000007
H64	H	-0.117082	1.114851	-0.226116
H65	H	-0.893531	1.271017	-0.000070
H66	H	-0.113183	0.876784	-0.226151
H67	H	-0.617781	1.643945	-0.000042
H68	H	-0.210746	1.351051	0.630496
O69	O	-0.866864	1.701556	-0.000194
C70	C	-0.805668	1.794469	-0.000181
H71	H	-0.750040	1.753321	-0.043440
H72	H	-0.794322	1.828205	0.109471
C73	C	-0.897618	1.956508	-0.036726
C74	C	-0.829296	1.905974	-0.089867
H75	H	-0.912193	2.025293	-0.092042
H76	H	-0.938848	1.893913	-0.036729
H77	H	-0.888154	1.984612	0.054651
H78	H	-0.838764	1.877856	-0.181235
H79	H	-0.788068	1.968567	-0.089881
H80	H	-0.173299	1.096209	0.313074
H81	H	-0.484843	1.740596	-0.000081
H82	H	-0.057033	0.895228	0.313041
H83	H	-0.168152	0.888848	0.323643
H84	H	-0.713891	1.662713	-0.000102
O85	O	-0.328960	1.737467	-0.000310
C86	C	-0.281212	1.737843	-0.118674
H87	H	-0.310742	1.676780	-0.201413
H88	H	-0.221701	1.698978	-0.091904
C89	C	-0.233283	1.948239	-0.070746
C90	C	-0.269556	1.873249	-0.172371
H91	H	-0.226090	2.031764	-0.103866
H92	H	-0.265450	1.947986	0.009002
H93	H	-0.183695	1.915837	-0.048446
H94	H	-0.319147	1.905643	-0.194656
H95	H	-0.237397	1.873511	-0.252124
O96	O	-0.607400	1.328984	-0.000248
C97	C	-0.560721	1.315787	-0.118644
H98	H	-0.540942	1.412654	-0.158127
H99	H	-0.596461	1.264037	-0.201535
C100	C	-0.512465	1.121456	-0.034175
C101	C	-0.488166	1.240429	-0.082661
H102	H	-0.467711	1.074966	-0.011983
H103	H	-0.543916	1.130343	0.045588
H104	H	-0.542248	1.078346	-0.103259
H105	H	-0.458392	1.283542	-0.013572
H106	H	-0.456709	1.231547	-0.162413
