data_functionalizedCrystal
_audit_creation_method	'MofGen! by Chris Wilmer'
_symmetry_space_group_name_H-M	'P1'
_symmetry_Int_Tables_number	1
_symmetry_cell_setting	triclinic
loop_
_symmetry_equiv_pos_as_xyz
  x,y,z
_cell_length_a	19.077105
_cell_length_b	16.120484
_cell_length_c	19.076919
_cell_angle_alpha	95.046610
_cell_angle_beta	90.076224
_cell_angle_gamma	90.738523
loop_
_atom_site_label
_atom_site_type_symbol
_atom_site_fract_x
_atom_site_fract_y
_atom_site_fract_z
Zn1	Zn	1.040337	-0.403262	-0.456942
Zn2	Zn	1.039017	-0.537287	-0.344927
Zn3	Zn	0.928051	-0.392095	-0.334278
Zn4	Zn	0.916861	-0.536784	-0.457659
O5	O	0.981066	-0.467357	-0.398451
O6	O	1.138276	-0.425924	-0.446240
O7	O	1.028428	-0.513564	-0.245000
O8	O	0.948182	-0.276934	-0.345793
O9	O	1.137306	-0.524392	-0.363943
O10	O	1.030678	-0.285138	-0.435913
O11	O	0.946902	-0.406892	-0.237176
O12	O	0.828452	-0.406405	-0.346488
O13	O	0.929109	-0.523535	-0.556078
O14	O	0.820230	-0.512707	-0.437136
O15	O	1.019827	-0.425436	-0.555551
O16	O	1.017576	-0.653863	-0.364638
O17	O	0.927829	-0.653494	-0.447462
C18	C	0.798901	-0.458290	-0.390734
C19	C	0.720969	-0.454433	-0.387451
C20	C	0.971363	-0.683924	-0.407299
C21	C	0.967276	-0.776577	-0.411111
C22	C	0.680093	-0.508043	-0.433036
C23	C	0.606867	-0.504408	-0.429953
C24	C	0.574519	-0.447165	-0.381281
C25	C	0.615400	-0.393548	-0.335694
C26	C	0.688624	-0.397180	-0.338781
C27	C	0.355979	-0.430354	-0.367000
C28	C	0.282749	-0.426728	-0.363916
C29	C	0.274222	-0.537586	-0.458176
C30	C	0.347448	-0.541217	-0.461255
C31	C	0.388323	-0.487598	-0.415670
N32	N	0.499670	-0.443449	-0.378128
N33	N	0.463169	-0.491310	-0.418828
C34	C	0.959816	-0.946215	-0.418084
C35	C	1.002442	-0.987665	-0.378836
C36	C	0.998291	-1.082058	-0.382716
C37	C	0.963966	-0.851814	-0.414205
C38	C	1.163943	-0.476459	-0.406199
C39	C	1.241874	-0.480338	-0.409501
C40	C	0.973367	-0.475675	-0.582072
C41	C	0.970086	-0.479220	-0.660321
C42	C	0.990826	-0.249946	-0.389585
C43	C	0.994984	-0.157298	-0.385807
C44	C	1.015774	-0.429813	-0.696809
C45	C	1.012683	-0.433140	-0.770331
C46	C	0.963906	-0.485879	-0.807364
C47	C	0.918214	-0.535288	-0.770871
C48	C	0.921302	-0.531956	-0.697350
C49	C	0.949602	-0.501317	-1.027278
C50	C	0.946518	-0.504647	-1.100804
C51	C	1.040987	-0.402498	-1.100259
C52	C	1.044074	-0.399174	-1.026737
C53	C	0.998378	-0.448580	-0.990250
N54	N	0.960747	-0.489283	-0.882516
N55	N	1.001535	-0.445171	-0.915099
C56	C	0.988779	-0.459013	-0.215544
C57	C	0.992206	-0.455240	-0.137292
H58	H	0.706425	-0.554659	-0.472667
H59	H	1.042052	-0.952260	-0.342319
H60	H	0.373781	-0.587832	-0.500887
H61	H	0.912403	-0.541559	-0.997580
N62	N	0.910132	-0.990635	-0.463889
N63	N	0.906792	-1.068362	-0.467011
H64	H	0.871703	-1.099744	-0.499359
N65	N	0.232459	-0.592349	-0.504730
N66	N	0.167081	-0.589103	-0.501970
H67	H	0.137584	-0.627779	-0.534852
H68	H	0.884091	-0.572180	-0.667641
N69	N	1.065607	-0.375942	-0.658995
N70	N	1.106395	-0.331832	-0.691586
H71	H	1.141590	-0.293781	-0.664883
N72	N	0.868388	-0.589148	-0.808707
N73	N	0.865636	-0.592118	-0.874350
H74	H	0.830447	-0.630159	-0.901072
H75	H	0.906796	-0.547595	-1.130954
H76	H	1.049888	-0.392910	-0.800037
H77	H	1.083794	-0.356231	-0.996590
N78	N	1.087656	-0.352041	-1.137541
N79	N	1.084895	-0.355021	-1.203185
H80	H	1.117856	-0.319383	-1.229516
N81	N	0.249716	-0.368247	-0.314192
N82	N	0.286218	-0.320377	-0.273496
H83	H	0.262889	-0.279078	-0.238379
H84	H	0.573589	-0.548064	-0.467073
H85	H	0.389251	-0.386700	-0.329877
H86	H	0.721905	-0.353521	-0.301664
N87	N	0.582348	-0.335074	-0.285986
N88	N	0.516969	-0.331838	-0.283236
H89	H	0.493626	-0.290541	-0.248127
