data_functionalizedCrystal
_audit_creation_method	'MofGen! by Chris Wilmer'
_symmetry_space_group_name_H-M	'P1'
_symmetry_Int_Tables_number	1
_symmetry_cell_setting	triclinic
loop_
_symmetry_equiv_pos_as_xyz
  x,y,z
_cell_length_a	10.685980
_cell_length_b	16.625545
_cell_length_c	10.686551
_cell_angle_alpha	85.592661
_cell_angle_beta	81.591741
_cell_angle_gamma	94.392107
loop_
_atom_site_label
_atom_site_type_symbol
_atom_site_fract_x
_atom_site_fract_y
_atom_site_fract_z
Zn1	Zn	1.995734	-0.180728	-0.866688
Zn2	Zn	1.979269	-0.326801	-0.654412
Zn3	Zn	1.767155	-0.203170	-0.638151
Zn4	Zn	1.783392	-0.326723	-0.850323
O5	O	1.881388	-0.259356	-0.752394
O6	O	2.171187	-0.190746	-0.852184
O7	O	1.937445	-0.319826	-0.474623
O8	O	1.797572	-0.087354	-0.668511
O9	O	2.159089	-0.298065	-0.696226
O10	O	1.965509	-0.070866	-0.836416
O11	O	1.781606	-0.228995	-0.462675
O12	O	1.591673	-0.228919	-0.652641
O13	O	1.825246	-0.297931	-1.030127
O14	O	1.603602	-0.319692	-0.808523
O15	O	1.981253	-0.190670	-1.042150
O16	O	1.953190	-0.439630	-0.680357
O17	O	1.809280	-0.439572	-0.824291
C18	C	1.551578	-0.276733	-0.727043
C19	C	1.410487	-0.284185	-0.716227
C20	C	1.881247	-0.468856	-0.752343
C21	C	1.881306	-0.558473	-0.752373
C22	C	1.881357	-0.631251	-0.752402
C23	C	1.881433	-0.722554	-0.752436
C24	C	1.881500	-0.795326	-0.752457
C25	C	1.881575	-0.886635	-0.752488
C26	C	2.212485	-0.241911	-0.777844
C27	C	2.353579	-0.234477	-0.788690
C28	C	1.906898	-0.241789	-1.083485
C29	C	1.917769	-0.234303	-1.224576
C30	C	1.881566	-0.049034	-0.752475
C31	C	1.881642	0.040593	-0.752509
C32	C	1.856050	-0.276792	-0.422597
C33	C	1.845425	-0.284038	-0.281525
H34	H	1.351262	-0.332446	-0.645904
C35	C	1.433578	-0.169278	-0.883685
N36	N	1.493842	-0.120169	-0.955238
H37	H	1.988032	-0.185995	-1.283765
H38	H	1.775175	-0.332348	-1.222343
