data_functionalizedCrystal
_audit_creation_method	'MofGen! by Chris Wilmer'
_symmetry_space_group_name_H-M	'P1'
_symmetry_Int_Tables_number	1
_symmetry_cell_setting	triclinic
loop_
_symmetry_equiv_pos_as_xyz
  x,y,z
_cell_length_a	19.077105
_cell_length_b	19.121063
_cell_length_c	19.077174
_cell_angle_alpha	94.804191
_cell_angle_beta	85.483752
_cell_angle_gamma	90.263052
loop_
_atom_site_label
_atom_site_type_symbol
_atom_site_fract_x
_atom_site_fract_y
_atom_site_fract_z
Zn1	Zn	1.079661	-0.341255	-0.455843
Zn2	Zn	1.070214	-0.453789	-0.342572
Zn3	Zn	0.957450	-0.331437	-0.332838
Zn4	Zn	0.957110	-0.453743	-0.455688
O5	O	1.016109	-0.395056	-0.396735
O6	O	1.176888	-0.360311	-0.444956
O7	O	1.051444	-0.433469	-0.242463
O8	O	0.977757	-0.234459	-0.345146
O9	O	1.169947	-0.442989	-0.361736
O10	O	1.067545	-0.241672	-0.435517
O11	O	0.968597	-0.343578	-0.235312
O12	O	0.858924	-0.343533	-0.344996
O13	O	0.977178	-0.442911	-0.554526
O14	O	0.858675	-0.433391	-0.435253
O15	O	1.067215	-0.360267	-0.554640
O16	O	1.051115	-0.552064	-0.361586
O17	O	0.968018	-0.552030	-0.444692
C18	C	0.833265	-0.387392	-0.389052
C19	C	0.755043	-0.384131	-0.385782
C20	C	0.718177	-0.429448	-0.431170
C21	C	0.644681	-0.426375	-0.428101
C22	C	0.608051	-0.377988	-0.379640
C23	C	0.644922	-0.332666	-0.334250
C24	C	0.718417	-0.335737	-0.337323
C25	C	0.388255	-0.363778	-0.365420
C26	C	0.314753	-0.360713	-0.362349
C27	C	0.314518	-0.454421	-0.456201
C28	C	0.388015	-0.457489	-0.459267
C29	C	0.424879	-0.412166	-0.413880
N30	N	0.532925	-0.374847	-0.376500
N31	N	0.500004	-0.415304	-0.417024
C32	C	1.008524	-0.577531	-0.404195
C33	C	1.005344	-0.655599	-0.407412
C34	C	1.047151	-0.692272	-0.365694
C35	C	1.044165	-0.765625	-0.368724
C36	C	0.999368	-0.802303	-0.413469
C37	C	0.957560	-0.765624	-0.455192
C38	C	0.960550	-0.692273	-0.452165
C39	C	0.988177	-1.023777	-0.424775
C40	C	0.985189	-1.097133	-0.427797
C41	C	1.071796	-1.097129	-0.341330
C42	C	1.074779	-1.023776	-0.338303
C43	C	1.032973	-0.987104	-0.380029
C44	C	0.996314	-0.877281	-0.416566
C45	C	1.036032	-0.912127	-0.376936
C46	C	1.199666	-0.402750	-0.404449
C47	C	1.277888	-0.406029	-0.407737
C48	C	1.023212	-0.402679	-0.580922
C49	C	1.026239	-0.405927	-0.659411
C50	C	1.023743	-0.211870	-0.389263
C51	C	1.026996	-0.133807	-0.386079
C52	C	0.984529	-0.360653	-0.692562
C53	C	0.987371	-0.363710	-0.766311
C54	C	1.031926	-0.412040	-0.806908
C55	C	1.073638	-0.457319	-0.773753
C56	C	1.070792	-0.454264	-0.700005
C57	C	1.045059	-0.426198	-1.027870
C58	C	1.047903	-0.429248	-1.101623
C59	C	0.961634	-0.335640	-1.094176
C60	C	0.958795	-0.332587	-1.020427
C61	C	1.000504	-0.377868	-0.987278
N62	N	1.034833	-0.415165	-0.882292
N63	N	0.997593	-0.374746	-0.911896
C64	C	1.009075	-0.387414	-0.213265
C65	C	1.006192	-0.383974	-0.134774
H66	H	0.418261	-0.326877	-0.328457
C67	C	0.274452	-0.307481	-0.309046
C68	C	0.227397	-0.251563	-0.335386
C69	C	0.187091	-0.198337	-0.282088
C70	C	0.193841	-0.201028	-0.202450
C71	C	0.240899	-0.256949	-0.176106
C72	C	0.281204	-0.310175	-0.229404
H73	H	0.222398	-0.249569	-0.394343
H74	H	0.152257	-0.156941	-0.301590
H75	H	0.164005	-0.161627	-0.162995
H76	H	0.245897	-0.258943	-0.117149
H77	H	0.316039	-0.351571	-0.209902
H78	H	1.072509	-0.882262	-0.340507
H79	H	0.948251	-0.321294	-0.659512
C80	C	1.096913	-0.482427	-1.146270
C81	C	1.155401	-0.456430	-1.198048
C82	C	1.204409	-0.509609	-1.242689
C83	C	1.194929	-0.588785	-1.235551
C84	C	1.136438	-0.614786	-1.183770
C85	C	1.087430	-0.561607	-1.139129
H86	H	1.162421	-0.397815	-1.203334
H87	H	1.247708	-0.490361	-1.281020
H88	H	1.231207	-0.628152	-1.268596
H89	H	1.129418	-0.673401	-1.178484
H90	H	1.044131	-0.580855	-1.100798
H91	H	0.927676	-0.298775	-1.121174
H92	H	0.284494	-0.491320	-0.493154
C93	C	0.604631	-0.279440	-0.280941
C94	C	0.523788	-0.276063	-0.277554
C95	C	0.483499	-0.222837	-0.224243
C96	C	0.524053	-0.172988	-0.174317
C97	C	0.604900	-0.176363	-0.177702
C98	C	0.645189	-0.229589	-0.231014
H99	H	0.493764	-0.312966	-0.314514
H100	H	0.423650	-0.220339	-0.221737
H101	H	0.494229	-0.133587	-0.134853
H102	H	0.634925	-0.139461	-0.140743
H103	H	0.705038	-0.232088	-0.233519
H104	H	1.079013	-0.463077	-1.000889
C105	C	1.122651	-0.510482	-0.818408
C106	C	1.125787	-0.513843	-0.899528
C107	C	1.174803	-0.567005	-0.944181
C108	C	1.220682	-0.616808	-0.907714
C109	C	1.217548	-0.613450	-0.826589
C110	C	1.168532	-0.560287	-0.781936
H111	H	1.091823	-0.476974	-0.926527
H112	H	1.177123	-0.569491	-1.004234
H113	H	1.256967	-0.656162	-0.940768
H114	H	1.251512	-0.650318	-0.799590
H115	H	1.166212	-0.557801	-0.721882
H116	H	0.748433	-0.298831	-0.300367
H117	H	0.614668	-0.463277	-0.465060
H118	H	1.104763	-0.491126	-0.673015
H119	H	0.417834	-0.496893	-0.498728
H120	H	0.747996	-0.468852	-0.470630
C121	C	0.914559	-0.651928	-0.498053
C122	C	0.833922	-0.658489	-0.489282
C123	C	0.787933	-0.618145	-0.535174
C124	C	0.822581	-0.571240	-0.589836
C125	C	0.903222	-0.564677	-0.598610
C126	C	0.949212	-0.605021	-0.552718
H127	H	0.808270	-0.693213	-0.448816
H128	H	0.728236	-0.623003	-0.528679
H129	H	0.788537	-0.541375	-0.623808
H130	H	0.928875	-0.529953	-0.639076
H131	H	1.008908	-0.600163	-0.559213
C132	C	1.090158	-0.805962	-0.322833
C133	C	1.081794	-0.792357	-0.241899
C134	C	1.127792	-0.832692	-0.196008
C135	C	1.182156	-0.886631	-0.231052
C136	C	1.190523	-0.900238	-0.311991
C137	C	1.144524	-0.859904	-0.357882
H138	H	1.041548	-0.752426	-0.215953
H139	H	1.121598	-0.822619	-0.136091
H140	H	1.216207	-0.916489	-0.197081
H141	H	1.230768	-0.940169	-0.337936
H142	H	1.150718	-0.869977	-0.417798
C143	C	0.935910	-1.137481	-0.477022
C144	C	0.889925	-1.097145	-0.522919
C145	C	0.840648	-1.137493	-0.572139
C146	C	0.837356	-1.218176	-0.575461
C147	C	0.883342	-1.258516	-0.529561
C148	C	0.932620	-1.218168	-0.480342
H149	H	0.892361	-1.037415	-0.520462
H150	H	0.806605	-1.107630	-0.606116
H151	H	0.800877	-1.248044	-0.611896
H152	H	0.880907	-1.318247	-0.532019
H153	H	0.966662	-1.248031	-0.446365
H154	H	0.953403	-0.326846	-0.793298
H155	H	1.083627	-0.662414	-0.329254
H156	H	1.111256	-0.993914	-0.301868
H157	H	0.954136	-0.993924	-0.458748
C158	C	0.908285	-0.805970	-0.504415
C159	C	0.849817	-0.852875	-0.473534
C160	C	0.800540	-0.893219	-0.522757
C161	C	0.809730	-0.886658	-0.602859
C162	C	0.868201	-0.839750	-0.633744
C163	C	0.917478	-0.799406	-0.584521
H164	H	0.843011	-0.857734	-0.414234
H165	H	0.757256	-0.927943	-0.499893
H166	H	0.773253	-0.916523	-0.639297
H167	H	0.875007	-0.834892	-0.693044
H168	H	0.960762	-0.764682	-0.607385
C169	C	0.947037	-0.917632	-0.465783
C170	C	0.888578	-0.964544	-0.434898
C171	C	0.839304	-1.004899	-0.484116
C172	C	0.848490	-0.998341	-0.564220
C173	C	0.906951	-0.951426	-0.595109
C174	C	0.956225	-0.911072	-0.545890
H175	H	0.881776	-0.969401	-0.375597
H176	H	0.796027	-1.039628	-0.461250
H177	H	0.812014	-1.028214	-0.600654
H178	H	0.913753	-0.946570	-0.654410
H179	H	0.999502	-0.876343	-0.568757
C180	C	0.909778	-0.279428	-0.975772
C181	C	0.863892	-0.229629	-1.012237
C182	C	0.814874	-0.176470	-0.967581
C183	C	0.811743	-0.173109	-0.886461
C184	C	0.857631	-0.222909	-0.849992
C185	C	0.906648	-0.276069	-0.894648
H186	H	0.866208	-0.232116	-1.072290
H187	H	0.780905	-0.139604	-0.994578
H188	H	0.775458	-0.133757	-0.853405
H189	H	0.855314	-0.220423	-0.789939
H190	H	0.940617	-0.312935	-0.867651
H191	H	1.105833	-1.126995	-0.307360
