data_functionalizedCrystal
_audit_creation_method	'MofGen! by Chris Wilmer'
_symmetry_space_group_name_H-M	'P1'
_symmetry_Int_Tables_number	1
_symmetry_cell_setting	triclinic
loop_
_symmetry_equiv_pos_as_xyz
  x,y,z
_cell_length_a	18.050590
_cell_length_b	21.295417
_cell_length_c	18.050583
_cell_angle_alpha	89.959541
_cell_angle_beta	89.999666
_cell_angle_gamma	90.019674
loop_
_atom_site_label
_atom_site_type_symbol
_atom_site_fract_x
_atom_site_fract_y
_atom_site_fract_z
Zn1	Zn	1.135289	-0.250746	-0.419580
Zn2	Zn	1.468622	0.082587	-0.086247
Zn3	Zn	1.801955	0.415920	0.247087
Zn4	Zn	1.135192	-0.356033	-0.295381
Zn5	Zn	1.468525	-0.022699	0.037952
Zn6	Zn	1.801859	0.310634	0.371286
Zn7	Zn	1.011106	-0.250761	-0.295438
Zn8	Zn	1.344439	0.082572	0.037895
Zn9	Zn	1.677772	0.415905	0.371229
Zn10	Zn	1.011051	-0.355962	-0.419563
Zn11	Zn	1.344384	-0.022628	-0.086230
Zn12	Zn	1.677718	0.310705	0.247103
O13	O	1.073159	-0.303375	-0.357491
O14	O	1.406493	0.029958	-0.024157
O15	O	1.739826	0.363291	0.309176
O16	O	1.239200	-0.264736	-0.403088
O17	O	1.572534	0.068597	-0.069754
O18	O	1.905867	0.401931	0.263579
O19	O	1.118714	-0.342104	-0.191464
O20	O	1.452047	-0.008771	0.141869
O21	O	1.785381	0.324562	0.475203
O22	O	1.027642	-0.162670	-0.311937
O23	O	1.360975	0.170663	0.021397
O24	O	1.694309	0.503997	0.354730
O25	O	1.239129	-0.342090	-0.311839
O26	O	1.572463	-0.008756	0.021494
O27	O	1.905796	0.324577	0.354827
O28	O	1.118879	-0.162659	-0.403143
O29	O	1.452212	0.170675	-0.069810
O30	O	1.785545	0.504008	0.263523
O31	O	1.027548	-0.264762	-0.191506
O32	O	1.360882	0.068572	0.141827
O33	O	1.694215	0.401905	0.475161
O34	O	0.907174	-0.264693	-0.311921
O35	O	1.240507	0.068640	0.021413
O36	O	1.573840	0.401974	0.354746
O37	O	1.027549	-0.341968	-0.523490
O38	O	1.360882	-0.008635	-0.190157
O39	O	1.694216	0.324698	0.143176
O40	O	0.907134	-0.341983	-0.403115
O41	O	1.240467	-0.008650	-0.069782
O42	O	1.573800	0.324684	0.263552
O43	O	1.118826	-0.264667	-0.523502
O44	O	1.452159	0.068666	-0.190169
O45	O	1.785493	0.401999	0.143164
O46	O	1.118661	-0.444113	-0.311823
O47	O	1.451995	-0.110779	0.021510
O48	O	1.785328	0.222554	0.354843
O49	O	1.027455	-0.444060	-0.403060
O50	O	1.360789	-0.110727	-0.069726
O51	O	1.694122	0.222606	0.263607
C52	C	0.880207	-0.303332	-0.357523
C53	C	1.213541	0.030001	-0.024189
C54	C	1.546874	0.363334	0.309144
C55	C	0.797661	-0.303329	-0.357554
C56	C	1.130995	0.030004	-0.024221
C57	C	1.464328	0.363337	0.309113
C58	C	0.598210	-0.345480	-0.407028
C59	C	0.931544	-0.012147	-0.073694
C60	C	1.264877	0.321187	0.259639
C61	C	0.548820	-0.288079	-0.425308
C62	C	0.882154	0.045254	-0.091974
C63	C	1.215487	0.378587	0.241359
C64	C	0.646531	-0.303364	-0.357518
C65	C	0.979864	0.029969	-0.024184
C66	C	1.313198	0.363302	0.309149
C67	C	0.548839	-0.360798	-0.339237
C68	C	0.882173	-0.027465	-0.005903
C69	C	1.215506	0.305869	0.327430
C70	C	0.500546	-0.303403	-0.357484
C71	C	0.833879	0.029930	-0.024151
C72	C	1.167213	0.363263	0.309183
C73	C	0.598228	-0.245933	-0.375833
C74	C	0.931562	0.087400	-0.042500
C75	C	1.264895	0.420734	0.290833
C76	C	0.598252	-0.318691	-0.289731
C77	C	0.931585	0.014643	0.043603
C78	C	1.264918	0.347976	0.376936
C79	C	0.548884	-0.261250	-0.307985
C80	C	0.882217	0.072083	0.025348
C81	C	1.215550	0.405417	0.358682
C82	C	0.730629	-0.303343	-0.357539
C83	C	1.063963	0.029991	-0.024206
C84	C	1.397296	0.363324	0.309128
C85	C	0.416449	-0.303419	-0.357463
C86	C	0.749783	0.029915	-0.024129
C87	C	1.083116	0.363248	0.309204
C88	C	1.073062	-0.466927	-0.357450
C89	C	1.406395	-0.133594	-0.024116
C90	C	1.739729	0.199740	0.309217
C91	C	1.073088	-0.536895	-0.357457
C92	C	1.406422	-0.203562	-0.024123
C93	C	1.739755	0.129772	0.309210
C94	C	1.120621	-0.569768	-0.309999
C95	C	1.453955	-0.236435	0.023335
C96	C	1.787288	0.096899	0.356668
C97	C	1.120656	-0.635511	-0.310015
C98	C	1.453990	-0.302177	0.023318
C99	C	1.787323	0.031156	0.356651
C100	C	1.073145	-0.668378	-0.357482
C101	C	1.406478	-0.335044	-0.024149
C102	C	1.739811	-0.001711	0.309184
C103	C	1.025608	-0.635497	-0.404950
C104	C	1.358941	-0.302163	-0.071616
C105	C	1.692275	0.031170	0.261717
C106	C	1.025580	-0.569756	-0.404937
C107	C	1.358913	-0.236422	-0.071604
C108	C	1.692247	0.096911	0.261730
N109	N	1.008178	-0.771632	-0.363155
N110	N	1.341511	-0.438299	-0.029821
N111	N	1.674844	-0.104966	0.303512
N112	N	1.008207	-0.834084	-0.363163
N113	N	1.341540	-0.500750	-0.029829
N114	N	1.674873	-0.167417	0.303504
C115	C	1.073228	-0.866452	-0.357525
C116	C	1.406561	-0.533119	-0.024192
C117	C	1.739894	-0.199786	0.309142
N118	N	1.138220	-0.834010	-0.351865
N119	N	1.471554	-0.500677	-0.018531
N120	N	1.804887	-0.167344	0.314802
N121	N	1.138191	-0.771553	-0.351853
N122	N	1.471524	-0.438220	-0.018520
N123	N	1.804857	-0.104886	0.314814
C124	C	1.073170	-0.739663	-0.357502
C125	C	1.406504	-0.406330	-0.024169
C126	C	1.739837	-0.072996	0.309165
C127	C	1.120803	-0.970611	-0.310082
C128	C	1.454136	-0.637277	0.023251
C129	C	1.787469	-0.303944	0.356584
C130	C	1.120839	-1.036354	-0.310104
C131	C	1.454172	-0.703021	0.023229
C132	C	1.787505	-0.369688	0.356562
C133	C	1.025784	-1.036339	-0.405035
C134	C	1.359117	-0.703006	-0.071701
C135	C	1.692451	-0.369673	0.261632
C136	C	1.025755	-0.970597	-0.405017
C137	C	1.359088	-0.637264	-0.071683
C138	C	1.692421	-0.303930	0.261650
C139	C	1.073263	-0.937737	-0.357537
C140	C	1.406596	-0.604403	-0.024203
C141	C	1.739930	-0.271070	0.309130
C142	C	1.266865	-0.303419	-0.357459
C143	C	1.600198	0.029914	-0.024126
C144	C	1.933532	0.363248	0.309208
C145	C	1.349411	-0.303438	-0.357445
C146	C	1.682744	0.029896	-0.024112
C147	C	2.016077	0.363229	0.309221
C148	C	1.073192	-0.303308	-0.551196
C149	C	1.406525	0.030025	-0.217863
C150	C	1.739859	0.363358	0.115470
C151	C	1.073206	-0.303280	-0.633742
C152	C	1.406539	0.030054	-0.300409
C153	C	1.739873	0.363387	0.032925
C154	C	1.073277	-0.139185	-0.357548
C155	C	1.406611	0.194148	-0.024215
C156	C	1.739944	0.527482	0.309119
C157	C	1.073328	-0.069217	-0.357573
C158	C	1.406661	0.264116	-0.024239
C159	C	1.739994	0.597450	0.309094
C160	C	1.122892	-0.261223	-0.833200
C161	C	1.456226	0.072110	-0.499866
C162	C	1.789559	0.405444	-0.166533
C163	C	1.055159	-0.245805	-0.882614
C164	C	1.388493	0.087528	-0.549281
C165	C	1.721826	0.420861	-0.215948
C166	C	1.073236	-0.303269	-0.784873
C167	C	1.406569	0.030065	-0.451539
C168	C	1.739903	0.363398	-0.118206
C169	C	1.140996	-0.318646	-0.882540
C170	C	1.474329	0.014687	-0.549206
C171	C	1.807663	0.348020	-0.215873
C172	C	1.073271	-0.303257	-0.930858
C173	C	1.406604	0.030076	-0.597524
C174	C	1.739937	0.363410	-0.264191
C175	C	1.005467	-0.287822	-0.833200
C176	C	1.338800	0.045512	-0.499867
C177	C	1.672134	0.378845	-0.166533
C178	C	1.091349	-0.360689	-0.833121
C179	C	1.424683	-0.027356	-0.499788
C180	C	1.758016	0.305977	-0.166455
C181	C	1.023570	-0.345294	-0.882514
C182	C	1.356903	-0.011960	-0.549180
C183	C	1.690237	0.321373	-0.215847
C184	C	1.073217	-0.303274	-0.700774
C185	C	1.406550	0.030059	-0.367441
C186	C	1.739884	0.363393	-0.034108
C187	C	1.073282	-0.303252	-1.014954
C188	C	1.406615	0.030081	-0.681621
C189	C	1.739949	0.363415	-0.348288
C190	C	1.073169	-0.303397	-0.164539
C191	C	1.406503	0.029936	0.168795
C192	C	1.739836	0.363270	0.502128
C193	C	1.073299	-0.303248	-0.081993
C194	C	1.406633	0.030085	0.251340
C195	C	1.739966	0.363418	0.584674
H196	H	0.619980	-0.331658	-0.232436
H197	H	0.953314	0.001675	0.100898
H198	H	1.286647	0.335008	0.434231
H199	H	0.986925	-0.662261	-0.443599
H200	H	1.320259	-0.328928	-0.110266
H201	H	1.653592	0.004405	0.223068
H202	H	0.986872	-0.542990	-0.443584
H203	H	1.320205	-0.209656	-0.110251
H204	H	1.653539	0.123677	0.223083
H205	H	1.164816	-0.225644	-0.811544
H206	H	1.498149	0.107690	-0.478211
H207	H	1.831483	0.441023	-0.144877
H208	H	0.527362	-0.225610	-0.266102
H209	H	0.860695	0.107723	0.067231
H210	H	1.194028	0.441057	0.400565
H211	H	0.981544	-0.380846	-0.904030
H212	H	1.314877	-0.047512	-0.570697
H213	H	1.648210	0.285821	-0.237363
O214	O	1.171870	-0.534324	-0.258801
O215	O	1.505203	-0.200991	0.074532
O216	O	1.838537	0.132343	0.407866
H217	H	1.204935	-0.568232	-0.225809
H218	H	1.538268	-0.234899	0.107525
H219	H	1.871602	0.098435	0.440858
H220	H	0.619871	-0.381033	-0.448944
H221	H	0.953205	-0.047700	-0.115610
H222	H	1.286538	0.285633	0.217723
O223	O	0.519937	-0.270986	-0.501196
O224	O	0.853271	0.062347	-0.167862
O225	O	1.186604	0.395681	0.165471
H226	H	0.539644	-0.306020	-0.542202
H227	H	0.872978	0.027314	-0.208868
H228	H	1.206311	0.360647	0.124465
O229	O	1.111656	-0.424995	-0.804285
O230	O	1.444989	-0.091662	-0.470952
O231	O	1.778322	0.241672	-0.137618
H232	H	1.167941	-0.437659	-0.824005
H233	H	1.501274	-0.104325	-0.490672
H234	H	1.834608	0.229008	-0.157339
O235	O	1.216879	-0.335891	-0.911249
O236	O	1.550213	-0.002558	-0.577915
O237	O	1.883546	0.330776	-0.244582
H238	H	1.257977	-0.300925	-0.891489
H239	H	1.591310	0.032408	-0.558156
H240	H	1.924643	0.365742	-0.224823
O241	O	1.034870	-0.181481	-0.911416
O242	O	1.368204	0.151853	-0.578083
O243	O	1.701537	0.485186	-0.244749
H244	H	1.080787	-0.163096	-0.946117
H245	H	1.414120	0.170237	-0.612783
H246	H	1.747453	0.503571	-0.279450
O247	O	0.520099	-0.425109	-0.318759
O248	O	0.853432	-0.091776	0.014574
O249	O	1.186765	0.241557	0.347907
H250	H	0.540747	-0.438102	-0.262896
H251	H	0.874081	-0.104769	0.070438
H252	H	1.207414	0.228564	0.403771
O253	O	0.929562	-0.270501	-0.804613
O254	O	1.262896	0.062832	-0.471280
O255	O	1.596229	0.396165	-0.137947
H256	H	0.914502	-0.222984	-0.824928
H257	H	1.247836	0.110349	-0.491595
H258	H	1.581169	0.443683	-0.158262
H259	H	1.159551	-1.063118	-0.271460
H260	H	1.492884	-0.729785	0.061874
H261	H	1.826217	-0.396452	0.395207
H262	H	0.619832	-0.197364	-0.391346
H263	H	0.953165	0.135969	-0.058012
H264	H	1.286498	0.469302	0.275321
H265	H	1.159366	-0.662281	-0.271369
H266	H	1.492699	-0.328948	0.061964
H267	H	1.826033	0.004386	0.395297
H268	H	0.987102	-1.063099	-0.443687
H269	H	1.320436	-0.729766	-0.110353
H270	H	1.653769	-0.396432	0.222980
O271	O	1.172050	-0.935161	-0.258885
O272	O	1.505383	-0.601827	0.074448
O273	O	1.838716	-0.268494	0.407781
H274	H	1.205120	-0.969067	-0.225896
H275	H	1.538453	-0.635734	0.107437
H276	H	1.871786	-0.302401	0.440771
O277	O	0.974468	-0.935134	-0.456185
O278	O	1.307801	-0.601801	-0.122851
O279	O	1.641134	-0.268468	0.210482
H280	H	0.941426	-0.969031	-0.489187
H281	H	1.274759	-0.635698	-0.155854
H282	H	1.608093	-0.302365	0.177480
