data_functionalizedCrystal
_audit_creation_method	'MofGen! by Chris Wilmer'
_symmetry_space_group_name_H-M	'P1'
_symmetry_Int_Tables_number	1
_symmetry_cell_setting	triclinic
loop_
_symmetry_equiv_pos_as_xyz
  x,y,z
_cell_length_a	6.817900
_cell_length_b	16.305681
_cell_length_c	16.306216
_cell_angle_alpha	95.357586
_cell_angle_beta	103.467292
_cell_angle_gamma	103.457389
loop_
_atom_site_label
_atom_site_type_symbol
_atom_site_fract_x
_atom_site_fract_y
_atom_site_fract_z
V1	V	-4.026294	-0.117377	-0.263316
O2	O	-4.013944	0.004961	-0.258007
O3	O	-3.977691	-0.232086	-0.261801
O4	O	-3.977745	-0.115869	-0.378027
O5	O	-4.013889	-0.112059	-0.140976
V6	V	-4.509967	-0.102709	-0.248649
O7	O	-4.287222	-0.149553	-0.295491
O8	O	-4.699236	-0.070533	-0.216474
O9	O	-4.335364	0.012000	-0.250164
O10	O	-4.639714	-0.225047	-0.253958
O11	O	-4.639769	-0.108026	-0.370989
O12	O	-4.335309	-0.104216	-0.133938
C13	C	-3.822647	-0.260040	-0.257721
C14	C	-3.864194	-0.353817	-0.257247
C15	C	-3.822715	-0.111793	-0.405978
C16	C	-3.864304	-0.111320	-0.499756
C17	C	-3.940336	-0.525519	-0.256401
C18	C	-3.736115	-0.556036	-0.251121
C19	C	-3.779429	-0.653629	-0.250959
C20	C	-4.015299	-0.694571	-0.255567
C21	C	-4.151472	-0.674542	-0.339094
C22	C	-4.106804	-0.576944	-0.339611
C23	C	-4.026276	-0.551391	-0.178450
C24	C	-4.064880	-0.648707	-0.176811
C25	C	-4.057678	-0.790113	-0.255099
C26	C	-3.897966	-0.429979	-0.256875
C27	C	-4.015263	-0.109620	-0.840504
C28	C	-4.219676	-0.115216	-0.810070
C29	C	-4.176405	-0.115385	-0.712479
C30	C	-3.940372	-0.110464	-0.671455
C31	C	-3.804765	-0.026793	-0.691455
C32	C	-3.849393	-0.026273	-0.789052
C33	C	-3.928582	-0.187397	-0.814580
C34	C	-3.890015	-0.189048	-0.717266
C35	C	-3.898034	-0.110938	-0.575915
C36	C	-4.057592	-0.109140	-0.936043
C37	C	-4.153749	0.039950	-0.254242
C38	C	-4.091440	0.133727	-0.254721
C39	C	-4.153681	-0.108295	-0.105983
C40	C	-4.091331	-0.108764	-0.012203
H41	H	-3.673781	-0.666372	-0.190928
N42	N	-3.657663	-0.016842	-0.813210
N43	N	-3.638748	-0.073260	-0.865981
H44	H	-3.503359	-0.066603	-0.883056
H45	H	-3.776719	-0.183962	-0.833732
N46	N	-3.938282	-0.663493	-0.099334
N47	N	-3.814504	-0.601895	-0.046824
H48	H	-3.725093	-0.612343	0.007892
N49	N	-4.308393	-0.190826	-0.696486
N50	N	-4.229527	-0.242758	-0.657558
H51	H	-4.322746	-0.296039	-0.646261
N52	N	-3.576389	-0.512525	-0.176058
N53	N	-3.611190	-0.458512	-0.125575
H54	H	-3.498381	-0.427776	-0.072558
N55	N	-4.369300	-0.708942	-0.347161
N56	N	-4.479156	-0.762727	-0.410531
H57	H	-4.633005	-0.787006	-0.416227
N58	N	-3.652924	-0.534237	-0.321371
N59	N	-3.743388	-0.496325	-0.375308
H60	H	-3.684641	-0.480928	-0.424924
N61	N	-4.070555	-0.266283	-0.859716
N62	N	-4.027823	-0.335366	-0.847321
H63	H	-4.128107	-0.391077	-0.879198
H64	H	-4.346590	-0.175159	-0.844779
N65	N	-4.233848	-0.045110	-0.674218
N66	N	-4.306043	0.004218	-0.719593
H67	H	-4.346617	0.053854	-0.692572
H68	H	-3.734222	-0.684175	-0.307116
N69	N	-3.586839	-0.018466	-0.656951
N70	N	-3.528903	-0.074237	-0.617139
H71	H	-3.374992	-0.068358	-0.592770
N72	N	-4.303571	-0.045145	-0.831939
N73	N	-4.213468	0.008897	-0.869841
H74	H	-4.272725	0.058382	-0.885296
N75	N	-4.276545	-0.683022	-0.174906
N76	N	-4.394832	-0.742098	-0.231820
H77	H	-4.544332	-0.766336	-0.230480
H78	H	-4.177736	-0.531998	-0.181543
H79	H	-4.259594	-0.557675	-0.346907
H80	H	-4.051005	-0.561967	-0.398566
N81	N	-4.109772	-0.714963	-0.412467
N82	N	-3.979895	-0.758544	-0.403453
H83	H	-3.950431	-0.787090	-0.455270
H84	H	-3.838568	0.031577	-0.659273
N85	N	-3.920076	0.047538	-0.807880
N86	N	-3.936170	0.098308	-0.748988
H87	H	-3.986091	0.150439	-0.762280
N88	N	-3.883678	-0.506264	-0.099689
N89	N	-3.701619	-0.514504	-0.079663
H90	H	-3.600888	-0.482634	-0.024041
N91	N	-4.016120	-0.266649	-0.702513
N92	N	-4.210937	-0.282838	-0.726498
H93	H	-4.300005	-0.337642	-0.716074
N94	N	-3.678153	-0.190677	-0.682883
N95	N	-3.614179	-0.195455	-0.605603
H96	H	-3.464540	-0.196598	-0.581318
