data_functionalizedCrystal
_audit_creation_method	'MofGen! by Chris Wilmer'
_symmetry_space_group_name_H-M	'P1'
_symmetry_Int_Tables_number	1
_symmetry_cell_setting	triclinic
loop_
_symmetry_equiv_pos_as_xyz
  x,y,z
_cell_length_a	12.827893
_cell_length_b	19.120786
_cell_length_c	12.827885
_cell_angle_alpha	87.523932
_cell_angle_beta	89.980728
_cell_angle_gamma	92.465365
loop_
_atom_site_label
_atom_site_type_symbol
_atom_site_fract_x
_atom_site_fract_y
_atom_site_fract_z
Zn1	Zn	1.579850	-0.279595	-0.573054
Zn2	Zn	2.079850	0.220405	-0.073054
Zn3	Zn	1.572257	-0.397069	-0.390838
Zn4	Zn	2.072257	0.102931	0.109162
Zn5	Zn	1.405089	-0.279629	-0.398326
Zn6	Zn	1.905089	0.220371	0.101674
Zn7	Zn	1.397592	-0.397017	-0.565541
Zn8	Zn	1.897592	0.102983	-0.065541
O9	O	1.488697	-0.338327	-0.481940
O10	O	1.988697	0.161673	0.018060
O11	O	1.725078	-0.295185	-0.548894
O12	O	2.225078	0.204815	-0.048894
O13	O	1.550041	-0.381527	-0.245593
O14	O	2.050041	0.118473	0.254407
O15	O	1.434586	-0.181334	-0.427782
O16	O	1.934586	0.318666	0.072218
O17	O	1.719499	-0.381493	-0.415020
O18	O	2.219499	0.118507	0.084980
O19	O	1.562982	-0.181308	-0.556154
O20	O	2.062982	0.318692	-0.056154
O21	O	1.427224	-0.295244	-0.251094
O22	O	1.927224	0.204756	0.248906
O23	O	1.257859	-0.295194	-0.420497
O24	O	1.757859	0.204806	0.079503
O25	O	1.421810	-0.381405	-0.712776
O26	O	1.921810	0.118595	-0.212776
O27	O	1.252351	-0.381438	-0.543349
O28	O	1.752351	0.118562	-0.043349
O29	O	1.555713	-0.295135	-0.718296
O30	O	2.055713	0.204865	-0.218296
O31	O	1.542772	-0.495353	-0.407735
O32	O	2.042772	0.004647	0.092265
O33	O	1.414447	-0.495315	-0.536089
O34	O	1.914447	0.004685	-0.036089
C35	C	1.217188	-0.338314	-0.481921
C36	C	1.717188	0.161686	0.018079
C37	C	1.101034	-0.338326	-0.481936
C38	C	1.601034	0.161674	0.018064
C39	C	1.052005	-0.295694	-0.548275
C40	C	1.552005	0.204306	-0.048275
C41	C	0.931954	-0.295704	-0.548293
C42	C	1.431954	0.204296	-0.048293
C43	C	1.477000	-0.520820	-0.470307
C44	C	1.977000	-0.020820	0.029693
C45	C	1.472092	-0.598890	-0.465365
C46	C	1.972092	-0.098890	0.034635
C47	C	1.536585	-0.635495	-0.529935
C48	C	2.036585	-0.135495	-0.029935
C49	C	1.531969	-0.708851	-0.525293
C50	C	2.031969	-0.208851	-0.025293
C51	C	1.462865	-0.745601	-0.456077
C52	C	1.962865	-0.245601	0.043923
C53	C	1.398365	-0.708991	-0.391505
C54	C	1.898365	-0.208991	0.108495
C55	C	1.402976	-0.635637	-0.396152
C56	C	1.902976	-0.135637	0.103848
C57	C	1.445595	-0.967088	-0.438703
C58	C	1.945595	-0.467088	0.061297
C59	C	1.440990	-1.040448	-0.434058
C60	C	1.940990	-0.540448	0.065942
C61	C	1.574594	-1.040302	-0.567849
C62	C	2.074594	-0.540302	-0.067849
C63	C	1.579204	-0.966946	-0.572485
C64	C	2.079204	-0.466946	-0.072485
C65	C	1.514700	-0.930343	-0.507918
C66	C	2.014700	-0.430343	-0.007918
C67	C	1.458147	-0.820582	-0.451328
C68	C	1.958147	-0.320582	0.048672
C69	C	1.519413	-0.855362	-0.512672
C70	C	2.019413	-0.355362	-0.012672
C71	C	1.761266	-0.338341	-0.481960
C72	C	2.261266	0.161659	0.018040
C73	C	1.877419	-0.338347	-0.481968
C74	C	2.377419	0.161653	0.018032
C75	C	1.488772	-0.338260	-0.754514
C76	C	1.988772	0.161740	-0.254514
C77	C	1.488804	-0.338231	-0.870670
C78	C	1.988804	0.161769	-0.370670
C79	C	1.500468	-0.155123	-0.493641
C80	C	2.000468	0.344877	0.006359
C81	C	1.505483	-0.077052	-0.498627
C82	C	2.005483	0.422948	0.001373
C83	C	1.555072	-0.295534	-0.925186
C84	C	2.055072	0.204466	-0.425186
C85	C	1.555106	-0.295503	-1.045239
C86	C	2.055106	0.204497	-0.545239
C87	C	1.488685	-0.338344	-0.210429
C88	C	1.988685	0.161656	0.289571
C89	C	1.488868	-0.338175	-0.094287
C90	C	1.988868	0.161825	0.405713
H91	H	1.054133	-0.374831	-0.425152
H92	H	1.554133	0.125169	0.074848
H93	H	0.919586	-0.374851	-0.425175
H94	H	1.419586	0.125149	0.074825
H95	H	1.575674	-0.825438	-0.569032
H96	H	2.075674	-0.325438	-0.069032
N97	N	1.413689	-0.386621	-0.926575
N98	N	1.913689	0.113379	-0.426575
H99	H	1.426668	-0.436825	-0.904436
H100	H	1.926668	0.063175	-0.404436
H101	H	1.339732	-0.375666	-0.908310
H102	H	1.839732	0.124334	-0.408310
H103	H	1.432135	-0.374734	-1.047421
H104	H	1.932135	0.125266	-0.547421
H105	H	1.393075	-0.937292	-0.386127
H106	H	1.893075	-0.437292	0.113873
H107	H	1.592862	-0.605577	-0.586294
H108	H	2.092862	-0.105577	-0.086294
N109	N	1.323831	-0.748625	-0.316846
N110	N	1.823831	-0.248625	0.183154
H111	H	1.330699	-0.800650	-0.323693
H112	H	1.830699	-0.300650	0.176307
H113	H	1.340949	-0.735825	-0.243041
H114	H	1.840949	-0.235825	0.256959
H115	H	1.584495	-0.738650	-0.577864
H116	H	2.084495	-0.238650	-0.077864
H117	H	1.098906	-0.259184	-0.605054
H118	H	1.598906	0.240816	-0.105054
N119	N	1.383628	-0.860221	-0.376660
N120	N	1.883628	-0.360221	0.123340
H121	H	1.333263	-0.890666	-0.417152
H122	H	1.833263	-0.390666	0.082848
H123	H	1.424303	-0.890612	-0.326370
H124	H	1.924303	-0.390612	0.173630
N125	N	0.876101	-0.247358	-0.623536
N126	N	1.376101	0.252642	-0.123536
H127	H	0.798258	-0.254220	-0.612885
H128	H	1.298258	0.245780	-0.112885
H129	H	0.898324	-0.197167	-0.610607
H130	H	1.398324	0.302833	-0.110607
H131	H	1.350457	-0.605834	-0.343574
H132	H	1.850457	-0.105834	0.156426
N133	N	1.630216	-0.247155	-0.869294
N134	N	2.130216	0.252845	-0.369294
H135	H	1.619551	-0.254043	-0.791455
H136	H	2.119551	0.245957	-0.291455
H137	H	1.704158	-0.258095	-0.887639
H138	H	2.204158	0.241905	-0.387639
N139	N	1.653734	-0.927309	-0.647144
N140	N	2.153734	-0.427309	-0.147144
H141	H	1.693889	-0.961629	-0.687348
H142	H	2.193889	-0.461629	-0.187348
H143	H	1.613077	-0.896876	-0.697392
H144	H	2.113077	-0.396876	-0.197392
H145	H	1.627109	-1.070112	-0.620417
H146	H	2.127109	-0.570112	-0.120417
N147	N	1.630268	-0.247083	-1.107314
N148	N	2.130268	0.252917	-0.607314
H149	H	1.619641	-0.253925	-1.184276
H150	H	2.119641	0.246075	-0.684276
H151	H	1.617239	-0.196911	-1.091495
H152	H	2.117239	0.303089	-0.591495
H153	H	1.384712	-1.070368	-0.377693
H154	H	1.884712	-0.570368	0.122307
