data_functionalizedCrystal
_audit_creation_method	'MofGen! by Chris Wilmer'
_symmetry_space_group_name_H-M	'P1'
_symmetry_Int_Tables_number	1
_symmetry_cell_setting	triclinic
loop_
_symmetry_equiv_pos_as_xyz
  x,y,z
_cell_length_a	10.489711
_cell_length_b	8.965430
_cell_length_c	17.699083
_cell_angle_alpha	89.999531
_cell_angle_beta	96.094988
_cell_angle_gamma	90.005384
loop_
_atom_site_label
_atom_site_type_symbol
_atom_site_fract_x
_atom_site_fract_y
_atom_site_fract_z
O1	O	1.692094	0.124097	-0.106667
O2	O	1.320706	0.124088	-0.116714
O3	O	1.516893	0.124079	-0.001569
O4	O	1.495907	0.124105	-0.221812
O5	O	1.516876	-0.123999	-0.001577
O6	O	1.320690	-0.123991	-0.116722
O7	O	1.692077	-0.123982	-0.106675
Cu8	Cu	1.506382	-0.146638	-0.111699
Cu9	Cu	1.506401	0.146744	-0.111690
O10	O	1.495891	-0.123974	-0.221820
C11	C	1.273180	0.000047	-0.115964
C12	C	1.131590	0.000044	-0.113708
N13	N	1.506377	-0.352987	-0.111705
C14	C	0.947917	0.000069	-0.182952
C15	C	1.040714	0.122378	-0.148360
C16	C	1.040671	-0.122208	-0.148349
C17	C	0.972125	0.122486	-0.075058
C18	C	0.972072	-0.122211	-0.075058
C19	C	1.064842	0.000129	-0.040412
C20	C	1.415620	-0.450289	-0.164938
C21	C	1.530834	-0.549698	-0.180245
C22	C	1.391212	-0.549706	-0.096405
C23	C	1.621649	-0.450207	-0.127046
C24	C	1.481952	-0.450206	-0.043176
C25	C	1.597249	-0.549570	-0.058454
C26	C	1.739604	0.000062	-0.107425
C27	C	1.881193	0.000075	-0.109681
C28	C	1.516132	0.000040	0.026629
C29	C	1.513877	0.000039	0.110661
N30	N	1.506416	0.353093	-0.111678
C31	C	1.496651	0.000069	-0.250018
C32	C	1.498907	0.000080	-0.334050
C33	C	1.629034	0.000040	0.158536
C34	C	1.626906	0.000053	0.237493
C35	C	1.509621	0.000055	0.268574
C36	C	1.394455	0.000059	0.220693
C37	C	1.396583	0.000056	0.141737
C38	C	1.385868	0.000071	0.539111
C39	C	1.383748	0.000069	0.618073
C40	C	1.616191	0.000067	0.634868
C41	C	1.618320	0.000065	0.555912
C42	C	1.503154	0.000076	0.508038
C43	C	1.505462	0.000065	0.422424
C44	C	1.507311	0.000055	0.354187
H45	H	0.897108	0.000198	-0.243176
Br46	Br	1.784044	-0.377681	-0.148708
H47	H	1.551520	-0.593399	-0.238186
Br48	Br	1.228861	-0.622560	-0.074853
H49	H	1.713826	0.000056	0.530611
H50	H	1.674100	-0.592889	-0.013423
H51	H	1.071139	0.225785	-0.179362
H52	H	1.724541	0.000029	0.133237
Br53	Br	1.772491	0.000052	0.699844
Br54	Br	1.235279	0.000086	0.262873
H55	H	0.941898	0.226010	-0.044081
Br56	Br	1.224564	0.000069	0.660253
H57	H	1.292093	0.000080	0.500141
H58	H	1.302810	0.000056	0.102758
H59	H	1.115419	0.000183	0.019867
Br60	Br	0.921308	-0.294579	-0.023430
Br61	Br	1.091304	-0.294550	-0.200048
H62	H	1.338940	-0.406697	-0.209997
Br63	Br	1.447416	-0.377305	0.053369
H64	H	1.720679	0.000050	0.276470
