data_functionalizedCrystal
_audit_creation_method	'MofGen! by Chris Wilmer'
_symmetry_space_group_name_H-M	'P1'
_symmetry_Int_Tables_number	1
_symmetry_cell_setting	triclinic
loop_
_symmetry_equiv_pos_as_xyz
  x,y,z
_cell_length_a	10.654543
_cell_length_b	10.654542
_cell_length_c	13.330367
_cell_angle_alpha	90.005984
_cell_angle_beta	90.003044
_cell_angle_gamma	84.482097
loop_
_atom_site_label
_atom_site_type_symbol
_atom_site_fract_x
_atom_site_fract_y
_atom_site_fract_z
O1	O	-1.667848	-0.176354	-0.083325
O2	O	-1.302368	-0.193169	-0.083351
O3	O	-1.493516	-0.002022	-0.083321
O4	O	-1.476700	-0.367502	-0.083354
O5	O	-1.493486	-0.002026	0.083526
O6	O	-1.302339	-0.193173	0.083496
O7	O	-1.667819	-0.176358	0.083523
Cu8	Cu	-1.485076	-0.184766	0.098744
Cu9	Cu	-1.485111	-0.184761	-0.098572
O10	O	-1.476671	-0.367506	0.083493
C11	C	-1.255555	-0.191938	0.000069
C12	C	-1.116112	-0.188250	0.000060
C13	C	-1.492268	0.044774	0.000104
C14	C	-1.488580	0.184218	0.000110
C15	C	-1.036623	-0.300794	0.000051
C16	C	-0.905602	-0.297320	0.000066
C17	C	-0.933571	-0.068749	0.000095
C18	C	-1.064589	-0.072224	0.000087
C19	C	-0.714631	-0.177595	0.000095
C20	C	-0.854072	-0.181302	0.000083
C21	C	-1.597649	0.394736	0.000124
C22	C	-1.601124	0.263715	0.000124
C23	C	-1.372553	0.235748	0.000106
C24	C	-1.369079	0.366766	0.000113
N25	N	-1.485061	-0.184768	0.237525
C26	C	-1.477924	0.585699	0.000081
C27	C	-1.481631	0.446258	0.000117
N28	N	-1.485136	-0.184749	-0.237354
C29	C	-1.408236	-0.107890	0.290052
C30	C	-1.561900	-0.261641	0.290027
C31	C	-1.561915	-0.261640	0.395045
C32	C	-1.485091	-0.184762	0.447572
C33	C	-1.408251	-0.107884	0.395080
C34	C	-1.638763	-0.338508	0.447545
C35	C	-1.638781	-0.338509	0.552570
C36	C	-1.561949	-0.261636	0.605098
C37	C	-1.485106	-0.184756	0.552600
C38	C	-1.408281	-0.107877	0.605126
C39	C	-1.331430	-0.031003	0.552630
C40	C	-1.331419	-0.031011	0.447608
C41	C	-1.561960	-0.261628	0.710120
C42	C	-1.408296	-0.107871	0.710154
H43	H	-0.840886	-0.388965	0.000061
C44	C	-0.876891	0.058868	0.000111
H45	H	-0.787477	0.044821	0.000104
H46	H	-0.904108	0.105257	0.058297
H47	H	-0.904111	0.105253	-0.058077
C48	C	-1.323787	-0.023307	0.767930
H49	H	-1.334795	-0.034316	0.837997
H50	H	-1.346364	0.062409	0.750718
H51	H	-1.238055	-0.045868	0.750731
C52	C	-1.248757	0.148305	0.000089
H53	H	-1.267440	0.062895	0.000074
H54	H	-1.201215	0.164028	0.058267
H55	H	-1.201248	0.164035	-0.058106
C56	C	-1.093300	-0.428412	0.000030
H57	H	-1.182715	-0.414367	0.000016
H58	H	-1.066084	-0.474804	0.058209
H59	H	-1.066079	-0.474793	-0.058165
C60	C	-1.246928	0.053558	0.610416
H61	H	-1.257946	0.042543	0.680480
H62	H	-1.269503	0.139276	0.593207
H63	H	-1.161193	0.031000	0.593223
C64	C	-1.241453	0.423444	0.000102
H65	H	-1.174919	0.357340	0.000084
H66	H	-1.235337	0.473976	0.058287
H67	H	-1.235364	0.473971	-0.058087
C68	C	-1.246919	0.053567	0.389861
H69	H	-1.257932	0.042567	0.319792
H70	H	-1.161189	0.031045	0.407070
H71	H	-1.269535	0.139285	0.407084
H72	H	-1.129313	0.019429	0.000097
H73	H	-1.689296	0.459455	0.000127
H74	H	-1.695597	0.221773	0.000131
C75	C	-1.723279	-0.423052	0.389771
H76	H	-1.769063	-0.468819	0.436075
H77	H	-1.672323	-0.480386	0.348801
H78	H	-1.780620	-0.372096	0.348802
C79	C	-1.323710	-0.023331	0.232313
H80	H	-1.334704	-0.034336	0.162242
H81	H	-1.237989	-0.045870	0.249538
H82	H	-1.346313	0.062393	0.249526
H83	H	-1.624455	-0.324225	0.247253
C84	C	-1.723300	-0.423077	0.610306
H85	H	-1.769044	-0.468869	0.563981
H86	H	-1.780656	-0.372149	0.651278
H87	H	-1.672330	-0.480409	0.651272
H88	H	-1.624536	-0.324213	0.752857
