data_functionalizedCrystal
_audit_creation_method	'MofGen! by Chris Wilmer'
_symmetry_space_group_name_H-M	'P1'
_symmetry_Int_Tables_number	1
_symmetry_cell_setting	triclinic
loop_
_symmetry_equiv_pos_as_xyz
  x,y,z
_cell_length_a	19.077105
_cell_length_b	18.101390
_cell_length_c	19.077068
_cell_angle_alpha	87.736754
_cell_angle_beta	89.884684
_cell_angle_gamma	87.683335
loop_
_atom_site_label
_atom_site_type_symbol
_atom_site_fract_x
_atom_site_fract_y
_atom_site_fract_z
Zn1	Zn	1.062992	-0.477246	0.322945
Zn2	Zn	1.396325	-0.143913	0.656279
Zn3	Zn	1.729658	0.189421	0.989612
Zn4	Zn	1.058178	-0.358162	0.440463
Zn5	Zn	1.391511	-0.024828	0.773796
Zn6	Zn	1.724845	0.308505	1.107130
Zn7	Zn	0.945483	-0.348259	0.318249
Zn8	Zn	1.278817	-0.014926	0.651583
Zn9	Zn	1.612150	0.318408	0.984916
Zn10	Zn	0.940727	-0.476801	0.435687
Zn11	Zn	1.274060	-0.143468	0.769020
Zn12	Zn	1.607393	0.189865	1.102353
O13	O	1.001845	-0.415117	0.379336
O14	O	1.335178	-0.081784	0.712669
O15	O	1.668512	0.251550	1.046003
O16	O	1.160685	-0.465780	0.342498
O17	O	1.494018	-0.132446	0.675832
O18	O	1.827351	0.200887	1.009165
O19	O	1.043205	-0.253216	0.424284
O20	O	1.376538	0.080118	0.757618
O21	O	1.709872	0.413451	1.090951
O22	O	0.965076	-0.361411	0.220543
O23	O	1.298410	-0.028078	0.553876
O24	O	1.631743	0.305255	0.887209
O25	O	1.157148	-0.378289	0.428838
O26	O	1.490481	-0.044956	0.762171
O27	O	1.823815	0.288378	1.095505
O28	O	1.051409	-0.456178	0.223993
O29	O	1.384743	-0.122844	0.557326
O30	O	1.718076	0.210489	0.890659
O31	O	0.960409	-0.245940	0.334495
O32	O	1.293742	0.087393	0.667828
O33	O	1.627076	0.420726	1.001161
O34	O	0.846521	-0.360980	0.329863
O35	O	1.179854	-0.027647	0.663197
O36	O	1.513188	0.305687	0.996530
O37	O	0.956969	-0.580493	0.420698
O38	O	1.290303	-0.247159	0.754031
O39	O	1.623636	0.086174	1.087365
O40	O	0.843026	-0.455419	0.416144
O41	O	1.176360	-0.122086	0.749478
O42	O	1.509693	0.211247	1.082811
O43	O	1.046797	-0.580820	0.337867
O44	O	1.380130	-0.247486	0.671200
O45	O	1.713463	0.085847	1.004534
O46	O	1.038593	-0.377858	0.538159
O47	O	1.371926	-0.044524	0.871492
O48	O	1.705259	0.288809	1.204826
O49	O	0.952302	-0.465021	0.534650
O50	O	1.285635	-0.131688	0.867983
O51	O	1.618968	0.201645	1.201317
C52	C	0.819277	-0.407077	0.371977
C53	C	1.152611	-0.073744	0.705310
C54	C	1.485944	0.259589	1.038643
C55	C	0.741173	-0.403656	0.368845
C56	C	1.074507	-0.070323	0.702178
C57	C	1.407840	0.263010	1.035512
C58	C	0.702676	-0.451147	0.412364
C59	C	1.036010	-0.117813	0.745697
C60	C	1.369343	0.215520	1.079030
C61	C	0.629290	-0.447935	0.409412
C62	C	0.962623	-0.114602	0.742745
C63	C	1.295956	0.218731	1.076079
C64	C	0.594402	-0.397229	0.362945
C65	C	0.927735	-0.063896	0.696278
C66	C	1.261068	0.269437	1.029612
C67	C	0.632904	-0.349737	0.319422
C68	C	0.966238	-0.016403	0.652755
C69	C	1.299571	0.316930	0.986088
C70	C	0.706290	-0.352952	0.322370
C71	C	1.039623	-0.019619	0.655704
C72	C	1.372956	0.313714	0.989037
C73	C	0.375117	-0.382351	0.349299
C74	C	0.708450	-0.049018	0.682632
C75	C	1.041783	0.284316	1.015965
C76	C	0.301726	-0.379138	0.346355
C77	C	0.635059	-0.045804	0.679688
C78	C	0.968393	0.287529	1.013022
C79	C	0.298117	-0.477338	0.436345
C80	C	0.631450	-0.144004	0.769678
C81	C	0.964783	0.189329	1.103011
C82	C	0.371503	-0.480545	0.439292
C83	C	0.704837	-0.147212	0.772625
C84	C	1.038170	0.186121	1.105959
C85	C	0.410000	-0.433056	0.395766
C86	C	0.743333	-0.099722	0.729100
C87	C	1.076666	0.233611	1.062433
N88	N	0.519389	-0.393944	0.359928
N89	N	0.852722	-0.060611	0.693262
N90	N	1.186055	0.272723	1.026595
N91	N	0.485011	-0.436345	0.398780
N92	N	0.818345	-0.103012	0.732113
N93	N	1.151678	0.230322	1.065446
C94	C	1.001889	-0.608278	0.379274
C95	C	1.335223	-0.274945	0.712607
C96	C	1.668556	0.058388	1.045940
C97	C	1.001908	-0.690592	0.379247
C98	C	1.335242	-0.357259	0.712580
C99	C	1.668575	-0.023925	1.045914
C100	C	1.001948	-0.989683	0.379205
C101	C	1.335281	-0.656350	0.712538
C102	C	1.668615	-0.323016	1.045871
C103	C	1.058636	-0.958579	0.327288
C104	C	1.391970	-0.625246	0.660621
C105	C	1.725303	-0.291912	0.993955
C106	C	1.058474	-0.872945	0.327080
C107	C	1.391808	-0.539612	0.660414
C108	C	1.725141	-0.206279	0.993747
C109	C	1.001929	-0.841301	0.379226
C110	C	1.335262	-0.507967	0.712559
C111	C	1.668596	-0.174634	1.045892
C112	C	0.928710	-0.868308	0.356128
C113	C	1.262043	-0.534975	0.689462
C114	C	1.595377	-0.201641	1.022795
C115	C	0.929053	-0.953951	0.355736
C116	C	1.262386	-0.620618	0.689069
C117	C	1.595719	-0.287284	1.022403
C118	C	1.017821	-0.961936	0.454331
C119	C	1.351154	-0.628603	0.787665
C120	C	1.684488	-0.295270	1.120998
C121	C	1.019461	-0.876342	0.454018
C122	C	1.352794	-0.543009	0.787351
C123	C	1.686128	-0.209676	1.120684
C124	C	1.001913	-0.757441	0.379239
C125	C	1.335247	-0.424108	0.712572
C126	C	1.668580	-0.090774	1.045905
C127	C	1.001958	-1.073542	0.379190
C128	C	1.335292	-0.740209	0.712523
C129	C	1.668625	-0.406876	1.045857
C130	C	1.185125	-0.423189	0.386725
C131	C	1.518459	-0.089855	0.720058
C132	C	1.851792	0.243478	1.053391
C133	C	1.263229	-0.426628	0.389873
C134	C	1.596562	-0.093295	0.723207
C135	C	1.929895	0.240039	1.056540
C136	C	0.994428	-0.422483	0.561901
C137	C	1.327761	-0.089149	0.895234
C138	C	1.661094	0.244184	1.228568
C139	C	0.991319	-0.425661	0.640006
C140	C	1.324652	-0.092328	0.973339
C141	C	1.657986	0.241005	1.306672
C142	C	1.001843	-0.222707	0.379349
C143	C	1.335177	0.110626	0.712683
C144	C	1.668510	0.443960	1.046016
C145	C	1.001969	-0.140392	0.379183
C146	C	1.335302	0.192942	0.712517
C147	C	1.668635	0.526275	1.045850
C148	C	1.009310	-0.407740	0.196059
C149	C	1.342644	-0.074406	0.529392
C150	C	1.675977	0.258927	0.862726
C151	C	1.012492	-0.404596	0.117957
C152	C	1.345825	-0.071262	0.451290
C153	C	1.679158	0.262071	0.784624
C154	C	1.034820	-0.381814	0.678504
C155	C	1.368154	-0.048481	1.011838
C156	C	1.701487	0.284853	1.345171
C157	C	1.031901	-0.384808	0.751892
C158	C	1.365234	-0.051475	1.085225
C159	C	1.698567	0.281858	1.418559
C160	C	0.985475	-0.431647	0.786779
C161	C	1.318808	-0.098313	1.120113
C162	C	1.652142	0.235020	1.453446
C163	C	0.941972	-0.475499	0.748276
C164	C	1.275305	-0.142166	1.081609
C165	C	1.608639	0.191168	1.414942
C166	C	0.944896	-0.472508	0.674889
C167	C	1.278229	-0.139175	1.008223
C168	C	1.611562	0.194159	1.341556
C169	C	0.971912	-0.445457	1.006067
C170	C	1.305246	-0.112124	1.339400
C171	C	1.638579	0.221209	1.672734
C172	C	0.968990	-0.448443	1.079458
C173	C	1.302324	-0.115110	1.412792
C174	C	1.635657	0.218224	1.746125
C175	C	1.058920	-0.357753	1.083070
C176	C	1.392253	-0.024420	1.416403
C177	C	1.725587	0.308914	1.749737
C178	C	1.061837	-0.354763	1.009682
C179	C	1.395170	-0.021430	1.343015
C180	C	1.728504	0.311903	1.676349
C181	C	1.018336	-0.398618	0.971185
C182	C	1.351670	-0.065285	1.304518
C183	C	1.685003	0.268048	1.637851
N184	N	0.982488	-0.434707	0.861793
N185	N	1.315821	-0.101373	1.195127
N186	N	1.649155	0.231960	1.528460
N187	N	1.021328	-0.395562	0.896172
N188	N	1.354661	-0.062228	1.229506
N189	N	1.687994	0.271105	1.562839
H190	H	0.266765	-0.516002	0.471780
H191	H	0.600098	-0.182669	0.805113
H192	H	0.933432	0.150665	1.138446
H193	H	0.597948	-0.486606	0.444850
H194	H	0.931282	-0.153273	0.778183
H195	H	1.264615	0.180060	1.111517
H196	H	1.067324	-0.349102	0.783235
H197	H	1.400657	-0.015769	1.116568
H198	H	1.733990	0.317564	1.449901
H199	H	1.048203	-0.849692	0.271485
H200	H	1.381536	-0.516359	0.604818
H201	H	1.714870	-0.183026	0.938151
H202	H	0.399904	-0.521834	0.477132
H203	H	0.733237	-0.188501	0.810465
H204	H	1.066571	0.144833	1.143799
H205	H	1.113208	-0.982104	0.341947
H206	H	1.446542	-0.648771	0.675281
H207	H	1.779875	-0.315437	1.008614
H208	H	0.273323	-0.337851	0.308508
H209	H	0.606656	-0.004518	0.641841
H210	H	0.939989	0.328816	0.975174
H211	H	1.072622	-0.343670	0.650104
H212	H	1.405955	-0.010337	0.983437
H213	H	1.739288	0.322997	1.316771
H214	H	1.073329	-0.859039	0.471380
H215	H	1.406662	-0.525706	0.804714
H216	H	1.739995	-0.192373	1.138047
H217	H	0.915248	-0.971038	0.300730
H218	H	1.248581	-0.637704	0.634063
H219	H	1.581915	-0.304371	0.967397
H220	H	0.931193	-0.486598	1.107862
H221	H	1.264527	-0.153264	1.441195
H222	H	1.597860	0.180069	1.774529
H223	H	0.885539	-0.974342	0.391743
H224	H	1.218872	-0.641008	0.725076
H225	H	1.552206	-0.307675	1.058409
H226	H	0.731077	-0.492435	0.450204
H227	H	1.064410	-0.159101	0.783538
H228	H	1.397743	0.174232	1.116871
H229	H	1.094337	-0.322050	1.114422
H230	H	1.427670	0.011283	1.447756
H231	H	1.761003	0.344617	1.781089
H232	H	1.099640	-0.316624	0.981278
H233	H	1.432973	0.016710	1.314612
H234	H	1.766307	0.350043	1.647945
H235	H	0.976499	-0.982076	0.493052
H236	H	1.309832	-0.648743	0.826385
H237	H	1.643166	-0.315410	1.159719
H238	H	0.936491	-0.481164	0.974728
H239	H	1.269824	-0.147831	1.308061
H240	H	1.603158	0.185502	1.641395
H241	H	0.904174	-0.513639	0.776687
H242	H	1.237508	-0.180306	1.110020
H243	H	1.570841	0.153028	1.443354
H244	H	0.909473	-0.508214	0.643544
H245	H	1.242807	-0.174881	0.976878
H246	H	1.576140	0.158452	1.310211
H247	H	0.406451	-0.343676	0.313862
H248	H	0.739785	-0.010343	0.647196
H249	H	1.073118	0.322991	0.980529
H250	H	0.604493	-0.308454	0.281584
H251	H	0.937826	0.024879	0.614918
H252	H	1.271159	0.358213	0.948251
H253	H	0.737633	-0.314284	0.286929
H254	H	1.070967	0.019049	0.620263
H255	H	1.404300	0.352383	0.953596
H256	H	1.048511	-0.977356	0.272006
H257	H	1.381844	-0.644023	0.605339
H258	H	1.715177	-0.310689	0.938673
H259	H	0.885455	-0.847644	0.392647
H260	H	1.218789	-0.514311	0.725981
H261	H	1.552122	-0.180978	1.059314
H262	H	1.112861	-0.854858	0.341888
H263	H	1.446194	-0.521525	0.675221
H264	H	1.779527	-0.188192	1.008555
H265	H	0.914590	-0.843977	0.301715
H266	H	1.247924	-0.510644	0.635048
H267	H	1.581257	-0.177310	0.968382
H268	H	1.070119	-0.986652	0.474785
H269	H	1.403453	-0.653319	0.808118
H270	H	1.736786	-0.319985	1.141451
H271	H	0.980936	-0.855029	0.495019
H272	H	1.314269	-0.521696	0.828352
H273	H	1.647603	-0.188363	1.161685
