data_functionalizedCrystal
_audit_creation_method	'MofGen! by Chris Wilmer'
_symmetry_space_group_name_H-M	'P1'
_symmetry_Int_Tables_number	1
_symmetry_cell_setting	triclinic
loop_
_symmetry_equiv_pos_as_xyz
  x,y,z
_cell_length_a	19.121102
_cell_length_b	19.120786
_cell_length_c	19.121175
_cell_angle_alpha	90.075695
_cell_angle_beta	85.212968
_cell_angle_gamma	89.915559
loop_
_atom_site_label
_atom_site_type_symbol
_atom_site_fract_x
_atom_site_fract_y
_atom_site_fract_z
Zn1	Zn	1.077294	-0.343949	-0.428332
Zn2	Zn	1.577294	0.156051	0.071668
Zn3	Zn	1.067213	-0.455747	-0.305679
Zn4	Zn	1.567213	0.044253	0.194321
Zn5	Zn	0.955083	-0.333535	-0.306134
Zn6	Zn	1.455083	0.166465	0.193866
Zn7	Zn	0.954615	-0.455701	-0.418293
Zn8	Zn	1.454615	0.044299	0.081707
O9	O	1.013551	-0.397233	-0.364609
O10	O	1.513551	0.102767	0.135391
O11	O	1.174225	-0.363157	-0.416072
O12	O	1.674225	0.136843	0.083928
O13	O	1.048316	-0.435196	-0.207470
O14	O	1.548316	0.064804	0.292530
O15	O	0.975710	-0.237002	-0.326735
O16	O	1.475710	0.262998	0.173265
O17	O	1.166819	-0.445294	-0.325960
O18	O	1.666819	0.054706	0.174040
O19	O	1.065498	-0.244654	-0.416513
O20	O	1.565498	0.255346	0.083487
O21	O	0.965934	-0.345407	-0.207804
O22	O	1.465934	0.154593	0.292196
O23	O	0.856753	-0.345363	-0.317001
O24	O	1.356753	0.154637	0.182999
O25	O	0.974911	-0.445216	-0.517894
O26	O	1.474911	0.054784	-0.017894
O27	O	0.856408	-0.435117	-0.399404
O28	O	1.356408	0.064883	0.100596
O29	O	1.065044	-0.363113	-0.525269
O30	O	1.565044	0.136887	-0.025269
O31	O	1.047861	-0.553655	-0.316226
O32	O	1.547861	-0.053655	0.183774
O33	O	0.965136	-0.553621	-0.398963
O34	O	1.465136	-0.053621	0.101037
C35	C	0.831101	-0.389105	-0.357163
C36	C	1.331101	0.110895	0.142837
C37	C	0.753047	-0.385646	-0.353993
C38	C	1.253047	0.114354	0.146007
C39	C	1.005374	-0.579027	-0.356472
C40	C	1.505374	-0.079027	0.143528
C41	C	1.001940	-0.656804	-0.353017
C42	C	1.501940	-0.156804	0.146983
C43	C	0.716211	-0.430815	-0.395334
C44	C	1.216211	0.069185	0.104666
C45	C	0.642872	-0.427556	-0.392359
C46	C	1.142872	0.072444	0.107641
C47	C	0.606371	-0.379130	-0.348040
C48	C	1.106371	0.120870	0.151960
C49	C	0.643212	-0.333955	-0.306699
C50	C	1.143212	0.166045	0.193301
C51	C	0.716550	-0.337212	-0.309677
C52	C	1.216550	0.162788	0.190323
C53	C	0.384947	-0.366952	-0.336908
C54	C	0.884947	0.133048	0.163092
C55	C	0.311604	-0.363700	-0.333931
C56	C	0.811604	0.136300	0.166069
C57	C	0.311269	-0.457301	-0.419592
C58	C	0.811269	0.042699	0.080408
C59	C	0.384608	-0.460556	-0.422564
C60	C	0.884608	0.039444	0.077436
C61	C	0.421443	-0.415379	-0.381225
C62	C	0.921443	0.084621	0.118775
C63	C	0.531407	-0.375798	-0.344997
C64	C	1.031407	0.124202	0.155003
C65	C	0.496406	-0.418708	-0.384272
C66	C	0.996406	0.081292	0.115728
C67	C	1.047043	-0.697267	-0.398172
C68	C	1.547043	-0.197267	0.101828
C69	C	1.043814	-0.770346	-0.394926
C70	C	1.543814	-0.270346	0.105074
C71	C	0.995486	-0.802961	-0.346523
C72	C	1.495486	-0.302961	0.153477
C73	C	0.950378	-0.762492	-0.301366
C74	C	1.450378	-0.262492	0.198634
C75	C	0.953604	-0.689415	-0.304615
C76	C	1.453604	-0.189415	0.195385
C77	C	0.983406	-1.023412	-0.334375
C78	C	1.483406	-0.523412	0.165625
C79	C	0.980185	-1.096495	-0.331128
C80	C	1.480185	-0.596495	0.168872
C81	C	1.073620	-1.104344	-0.424690
C82	C	1.573620	-0.604344	0.075310
C83	C	1.076845	-1.031264	-0.427932
C84	C	1.576845	-0.531264	0.072068
C85	C	1.031735	-0.990802	-0.382778
C86	C	1.531735	-0.490802	0.117222
C87	C	0.992186	-0.877659	-0.343203
C88	C	1.492186	-0.377659	0.156797
C89	C	1.035032	-0.916105	-0.386101
C90	C	1.535032	-0.416105	0.113899
C91	C	1.196714	-0.405393	-0.372085
C92	C	1.696714	0.094607	0.127915
C93	C	1.274767	-0.408870	-0.375271
C94	C	1.774767	0.091130	0.124729
C95	C	1.021050	-0.405321	-0.547775
C96	C	1.521050	0.094679	-0.047775
C97	C	1.024245	-0.408768	-0.625829
C98	C	1.524245	0.091232	-0.125829
C99	C	1.021781	-0.214730	-0.372794
C100	C	1.521781	0.285270	0.127206
C101	C	1.025287	-0.136958	-0.376283
C102	C	1.525287	0.363042	0.123717
C103	C	0.982857	-0.363640	-0.662672
C104	C	1.482857	0.136360	-0.162672
C105	C	0.985857	-0.366884	-0.736012
C106	C	1.485857	0.133116	-0.236012
C107	C	1.030248	-0.415253	-0.772507
C108	C	1.530248	0.084747	-0.272507
C109	C	1.071638	-0.460386	-0.735658
C110	C	1.571638	0.039614	-0.235658
C111	C	1.068635	-0.457144	-0.662320
C112	C	1.568635	0.042856	-0.162320
C113	C	1.041460	-0.427381	-0.993934
C114	C	1.541460	0.072619	-0.493934
C115	C	1.044462	-0.430618	-1.067278
C116	C	1.544462	0.069382	-0.567278
C117	C	0.958679	-0.337117	-1.067626
C118	C	1.458679	0.162883	-0.567626
C119	C	0.955682	-0.333877	-0.994286
C120	C	1.455682	0.166123	-0.494286
C121	C	0.997069	-0.379012	-0.957444
C122	C	1.497069	0.120988	-0.457444
C123	C	1.033317	-0.418569	-0.847472
C124	C	1.533317	0.081431	-0.347472
C125	C	0.993997	-0.375699	-0.882480
C126	C	1.493997	0.124301	-0.382480
C127	C	1.006124	-0.389128	-0.182161
C128	C	1.506124	0.110872	0.317839
C129	C	1.003074	-0.385490	-0.104121
C130	C	1.503074	0.114510	0.395879
H131	H	0.745925	-0.470252	-0.431420
H132	H	1.245925	0.029748	0.068580
H133	H	1.102343	-0.493887	-0.632323
H134	H	1.602343	0.006113	-0.132323
H135	H	0.946712	-0.324248	-0.632963
H136	H	1.446712	0.175752	-0.132963
H137	H	1.080614	-0.470007	-1.096990
H138	H	1.580614	0.029993	-0.596990
H139	H	0.919532	-0.294491	-0.964576
H140	H	1.419532	0.205509	-0.464576
H141	H	0.526129	-0.458133	-0.420359
H142	H	1.026129	0.041867	0.079641
H143	H	1.086400	-0.670717	-0.437584
H144	H	1.586400	-0.170717	0.062416
H145	H	0.924983	-0.300371	-1.097631
H146	H	1.424983	0.199629	-0.597631
H147	H	1.110346	-1.137296	-0.461452
H148	H	1.610346	-0.637296	0.038548
H149	H	0.957850	-0.336319	-0.852762
H150	H	1.457850	0.163681	-0.352762
H151	H	0.916876	-0.656470	-0.267846
H152	H	1.416876	-0.156470	0.232154
H153	H	1.075152	-0.464141	-0.963945
H154	H	1.575152	0.035859	-0.463945
H155	H	0.952838	-0.904222	-0.303790
H156	H	1.452838	-0.404222	0.196210
H157	H	1.107780	-0.499772	-0.765378
H158	H	1.607780	0.000228	-0.265378
H159	H	0.613487	-0.294523	-0.270617
H160	H	1.113487	0.205477	0.229383
H161	H	0.940826	-1.123047	-0.291711
H162	H	1.440826	-0.623047	0.208289
H163	H	1.080547	-0.803288	-0.431691
H164	H	1.580547	-0.303288	0.068309
H165	H	0.414322	-0.499991	-0.458651
H166	H	0.914322	0.000009	0.041349
H167	H	1.069461	-0.457952	-0.877195
H168	H	1.569461	0.042048	-0.377195
H169	H	0.501679	-0.336371	-0.308911
H170	H	1.001679	0.163629	0.191089
H171	H	0.612883	-0.464338	-0.426022
H172	H	1.112883	0.035662	0.073978
H173	H	0.952151	-0.330138	-0.766006
H174	H	1.452151	0.169862	-0.266006
H175	H	1.116198	-1.004711	-0.467346
H176	H	1.616198	-0.504711	0.032654
H177	H	0.911025	-0.789053	-0.261957
H178	H	1.411025	-0.289053	0.238043
H179	H	0.946676	-0.990473	-0.297608
H180	H	1.446676	-0.490473	0.202392
H181	H	0.281270	-0.494080	-0.453249
H182	H	0.781270	0.005920	0.046751
H183	H	1.074379	-0.889548	-0.425514
H184	H	1.574379	-0.389548	0.074486
H185	H	0.281887	-0.324258	-0.297846
H186	H	0.781887	0.175742	0.202154
H187	H	0.746542	-0.300427	-0.276017
H188	H	1.246542	0.199573	0.223983
H189	H	0.414929	-0.330171	-0.303241
H190	H	0.914929	0.169829	0.196759
