data_functionalizedCrystal
_audit_creation_method	'MofGen! by Chris Wilmer'
_symmetry_space_group_name_H-M	'P1'
_symmetry_Int_Tables_number	1
_symmetry_cell_setting	triclinic
loop_
_symmetry_equiv_pos_as_xyz
  x,y,z
_cell_length_a	10.654550
_cell_length_b	10.540539
_cell_length_c	9.730223
_cell_angle_alpha	90.000775
_cell_angle_beta	89.996251
_cell_angle_gamma	84.505197
loop_
_atom_site_label
_atom_site_type_symbol
_atom_site_fract_x
_atom_site_fract_y
_atom_site_fract_z
O1	O	1.667897	0.178295	-0.114396
O2	O	1.302424	0.195282	-0.114373
O3	O	1.493499	0.002079	-0.114383
O4	O	1.476822	0.371498	-0.114386
O5	O	1.493496	0.002084	0.114197
O6	O	1.302422	0.195287	0.114207
O7	O	1.667895	0.178300	0.114184
Zn8	Zn	1.485158	0.186794	0.150487
Zn9	Zn	1.485161	0.186788	-0.150677
O10	O	1.476820	0.371503	0.114194
C11	C	1.255625	0.194038	-0.000080
C12	C	1.116180	0.190306	-0.000072
C13	C	1.036734	0.304061	-0.000093
C14	C	0.905712	0.300547	-0.000116
C15	C	0.933595	0.069513	-0.000104
C16	C	1.064614	0.073028	-0.000071
C17	C	1.088301	0.421338	-0.000094
C18	C	1.008854	0.535103	-0.000116
C19	C	0.877832	0.531589	-0.000140
C20	C	0.826256	0.414310	-0.000141
C21	C	1.492247	-0.045221	-0.000096
C22	C	1.488505	-0.186168	-0.000103
C23	C	1.345134	-0.369543	-0.000607
C24	C	1.348927	-0.222926	-0.000093
C25	C	1.555675	-0.247847	0.130423
C26	C	1.550912	-0.394389	0.130533
C27	C	1.553753	-0.394914	-0.129405
C28	C	1.555039	-0.247933	-0.131131
C29	C	1.714694	0.179545	-0.000112
C30	C	1.854139	0.183276	-0.000129
C31	C	1.478072	0.418803	-0.000096
C32	C	1.481813	0.559750	-0.000098
N33	N	1.485165	0.186798	0.356024
N34	N	1.485164	0.186774	-0.356213
C35	C	1.569795	0.101277	0.427945
C36	C	1.569791	0.101261	0.571828
C37	C	1.400525	0.272299	0.571855
C38	C	1.400523	0.272308	0.427975
C39	C	1.654437	0.015767	0.355994
C40	C	1.739074	-0.069760	0.427916
C41	C	1.739071	-0.069775	0.571799
C42	C	1.654430	0.015736	0.643760
H43	H	1.129301	-0.019601	-0.000058
Br44	Br	0.770013	0.685979	-0.000152
Br45	Br	1.473823	-0.178983	-0.292099
Br46	Br	1.654417	0.015696	0.839031
H47	H	1.050855	0.630586	-0.000103
Br48	Br	1.853924	-0.185821	0.330260
Br49	Br	1.726522	-0.210658	0.138510
H50	H	1.654450	0.015774	0.238837
Br51	Br	0.648439	0.409544	-0.000148
Br52	Br	1.724651	-0.207616	-0.144294
Br53	Br	1.285664	0.388346	0.669515
Br54	Br	1.477908	-0.176819	0.292334
Br55	Br	0.863599	-0.089640	-0.000110
Br56	Br	1.721786	-0.473686	-0.130882
H57	H	1.807977	-0.139423	0.630356
Br58	Br	1.718216	-0.474408	0.140410
H59	H	1.295701	-0.181149	0.093636
Br60	Br	1.260836	-0.151882	-0.156043
Br61	Br	1.253228	-0.417174	-0.156621
Br62	Br	1.478449	-0.447461	-0.294299
Br63	Br	1.468165	-0.441364	0.293165
Br64	Br	1.253338	-0.420460	0.154065
H65	H	1.194984	0.424213	-0.000081
Br66	Br	1.285657	0.388368	0.330363
