data_functionalizedCrystal
_audit_creation_method	'MofGen! by Chris Wilmer'
_symmetry_space_group_name_H-M	'P1'
_symmetry_Int_Tables_number	1
_symmetry_cell_setting	triclinic
loop_
_symmetry_equiv_pos_as_xyz
  x,y,z
_cell_length_a	8.559649
_cell_length_b	14.519731
_cell_length_c	12.996460
_cell_angle_alpha	89.998729
_cell_angle_beta	89.994340
_cell_angle_gamma	76.733759
loop_
_atom_site_label
_atom_site_type_symbol
_atom_site_fract_x
_atom_site_fract_y
_atom_site_fract_z
O1	O	2.120040	-0.031286	-0.085555
O2	O	2.620040	0.468714	0.414445
O3	O	1.654978	0.016331	-0.085560
O4	O	2.154978	0.516331	0.414440
O5	O	1.899822	-0.142598	-0.085548
O6	O	2.399822	0.357402	0.414452
O7	O	1.875196	0.127644	-0.085567
O8	O	2.375196	0.627644	0.414433
O9	O	1.899790	-0.142588	0.085586
O10	O	2.399790	0.357412	0.585586
O11	O	1.654947	0.016342	0.085573
O12	O	2.154947	0.516342	0.585573
O13	O	2.120008	-0.031275	0.085579
O14	O	2.620008	0.468725	0.585579
Cu15	Cu	1.887474	-0.007466	0.101202
Cu16	Cu	2.387474	0.492534	0.601202
Cu17	Cu	1.887512	-0.007478	-0.101184
Cu18	Cu	2.387512	0.492522	0.398816
O19	O	1.875165	0.127654	0.085567
O20	O	2.375165	0.627654	0.585567
C21	C	1.595443	0.019945	0.000006
C22	C	2.095443	0.519945	0.500006
C23	C	1.418095	0.030686	0.000004
C24	C	1.918095	0.530686	0.500004
C25	C	1.898652	-0.176870	0.000019
C26	C	2.398652	0.323130	0.500019
C27	C	1.895194	-0.279002	0.000019
C28	C	2.395194	0.220998	0.500019
C29	C	1.892385	-0.361944	0.000017
C30	C	2.392385	0.138056	0.500017
C31	C	1.888874	-0.466001	0.000009
C32	C	2.388874	0.033999	0.500009
C33	C	1.886088	-0.548940	0.000002
C34	C	2.386088	-0.048940	0.500002
C35	C	1.882578	-0.653003	-0.000003
C36	C	2.382578	-0.153003	0.499997
C37	C	2.179543	-0.034889	0.000010
C38	C	2.679543	0.465111	0.500010
C39	C	2.356891	-0.045630	0.000005
C40	C	2.856891	0.454370	0.500005
C41	C	1.876334	0.161925	-0.000003
C42	C	2.376334	0.661925	0.499997
C43	C	1.879792	0.264057	-0.000010
C44	C	2.379792	0.764057	0.499990
N45	N	1.887460	-0.007459	0.243549
N46	N	2.387460	0.492541	0.743549
N47	N	1.887539	-0.007494	-0.243531
N48	N	2.387539	0.492506	0.256469
C49	C	1.887467	-0.007457	0.336655
C50	C	2.387467	0.492543	0.836655
C51	C	1.887482	-0.007464	0.453460
C52	C	2.387482	0.492536	0.953460
C53	C	1.887502	-0.007476	0.546558
C54	C	2.387502	0.492524	1.046558
C55	C	1.887519	-0.007482	0.663371
C56	C	2.387519	0.492518	1.163371
H57	H	2.440177	-0.119191	0.000008
H58	H	2.940177	0.380809	0.500008
H59	H	2.334818	0.104242	-0.000009
H60	H	2.834818	0.604242	0.499991
