data_functionalizedCrystal
_audit_creation_method	'MofGen! by Chris Wilmer'
_symmetry_space_group_name_H-M	'P1'
_symmetry_Int_Tables_number	1
_symmetry_cell_setting	triclinic
loop_
_symmetry_equiv_pos_as_xyz
  x,y,z
_cell_length_a	17.038272
_cell_length_b	27.732048
_cell_length_c	15.500227
_cell_angle_alpha	92.799543
_cell_angle_beta	86.956295
_cell_angle_gamma	86.877106
loop_
_atom_site_label
_atom_site_type_symbol
_atom_site_fract_x
_atom_site_fract_y
_atom_site_fract_z
O1	O	1.039801	0.102821	-0.071852
O2	O	0.812191	0.101155	-0.071877
O3	O	0.933065	0.031915	-0.071847
O4	O	0.918928	0.172061	-0.071882
O5	O	0.925730	0.036099	0.072040
O6	O	0.804857	0.105339	0.072010
O7	O	1.032467	0.107005	0.072035
Cu8	Cu	0.917992	0.106554	0.085161
Cu9	Cu	0.926666	0.101606	-0.085002
O10	O	0.911593	0.176245	0.072005
C11	C	0.779413	0.101732	0.000064
C12	C	0.692674	0.097211	0.000055
C13	C	0.642076	0.138713	0.000045
C14	C	0.560575	0.134463	0.000058
C15	C	0.529672	0.088710	0.000074
C16	C	0.580276	0.047205	0.000087
C17	C	0.661776	0.051455	0.000080
C18	C	0.284088	0.073694	0.000101
C19	C	0.202582	0.069447	0.000106
C20	C	0.182886	0.156706	0.000079
C21	C	0.264388	0.160952	0.000067
C22	C	0.314985	0.119447	0.000083
C23	C	0.446365	0.084365	0.000085
C24	C	0.398290	0.123792	0.000079
C25	C	0.929100	0.015987	0.000099
C26	C	0.928206	-0.037709	0.000106
C27	C	0.994011	-0.373515	0.000069
C28	C	0.990696	-0.575327	0.000056
O29	O	1.050870	-0.603831	0.000025
N30	N	0.919023	-0.597729	0.000049
C31	C	0.848173	-0.569676	0.000039
O32	O	0.787135	-0.593361	0.000024
C33	C	0.851490	-0.367865	0.000046
C34	C	0.923167	-0.345465	0.000062
C35	C	1.065683	-0.351115	0.000084
C36	C	1.066511	-0.300665	0.000091
C37	C	0.995667	-0.272615	0.000084
C38	C	0.923995	-0.295015	0.000069
C39	C	0.780641	-0.339813	0.000030
C40	C	0.781477	-0.289357	0.000029
C41	C	0.853154	-0.266957	0.000045
C42	C	0.853979	-0.216515	0.000070
N43	N	0.925652	-0.194113	0.000077
C44	C	0.996496	-0.222163	0.000084
C45	C	0.846437	-0.675629	0.000038
C46	C	0.845608	-0.726081	0.000038
C47	C	0.988131	-0.731729	0.000053
C48	C	0.988959	-0.681276	0.000059
C49	C	0.918111	-0.653227	0.000045
C50	C	0.998229	-0.116214	0.000101
C51	C	0.999050	-0.065759	0.000113
C52	C	0.856528	-0.060116	0.000093
C53	C	0.855706	-0.110566	0.000086
C54	C	0.926563	-0.138614	0.000087
O55	O	0.793838	-0.187981	0.000092
O56	O	1.057526	-0.198468	0.000080
C57	C	0.993183	-0.423965	0.000061
C58	C	0.921512	-0.446365	0.000046
C59	C	0.850668	-0.418315	0.000039
C60	C	0.920682	-0.496818	0.000046
C61	C	0.991526	-0.524867	0.000053
C62	C	1.063200	-0.502465	0.000060
C63	C	1.064027	-0.452015	0.000068
C64	C	0.778994	-0.440718	0.000032
C65	C	0.778172	-0.491168	0.000025
C66	C	0.849016	-0.519218	0.000032
C67	C	1.065244	0.106429	0.000093
C68	C	1.151985	0.110949	0.000096
C69	C	0.915558	0.192173	0.000058
C70	C	0.916452	0.245869	0.000045
N71	N	0.911897	0.110034	0.204844
N72	N	0.932767	0.098122	-0.204686
C73	C	0.963132	0.080707	0.250133
C74	C	0.958530	0.083344	0.340705
C75	C	0.902695	0.115310	0.385986
C76	C	0.851454	0.144638	0.340690
C77	C	0.856053	0.141999	0.250120
C78	C	0.886126	0.124811	0.659449
C79	C	0.881532	0.127449	0.750025
C80	C	0.988608	0.066154	0.750034
C81	C	0.993205	0.063519	0.659462
C82	C	0.941961	0.092845	0.614174
C83	C	0.897990	0.118007	0.478565
C84	C	0.946662	0.090146	0.521597
H85	H	0.141682	0.190497	0.000067
H86	H	0.325274	0.039897	0.000116
H87	H	0.836062	0.153482	0.786888
H88	H	0.797339	-0.128804	0.000097
H89	H	0.421194	0.047113	0.000123
Cl90	Cl	1.156626	-0.272513	0.000087
H91	H	0.719799	-0.509401	0.000019
Cl92	Cl	0.496969	0.186641	0.000041
H93	H	0.667230	0.175970	0.000031
Cl94	Cl	0.163734	0.011925	0.000146
H95	H	1.055928	-0.139045	0.000099
Cl96	Cl	0.757361	-0.640374	0.000021
Cl97	Cl	0.767472	-0.024844	0.000082
H98	H	0.852530	0.144036	0.515440
H99	H	0.722274	-0.358042	0.000012
Cl100	Cl	0.437140	0.181309	0.000061
Cl101	Cl	1.089166	-0.037602	0.000131
Cl102	Cl	0.689923	-0.405462	0.000021
Cl103	Cl	1.154757	-0.386369	0.000094
H104	H	1.122395	-0.433782	0.000081
H105	H	1.047326	-0.663041	0.000071
Cl106	Cl	1.077192	-0.767001	0.000058
Cl107	Cl	0.755494	-0.754234	0.000034
Cl108	Cl	0.692404	-0.254098	0.000010
Cl109	Cl	0.541427	-0.010314	0.000113
Cl110	Cl	1.033333	0.040521	0.193218
Cl111	Cl	0.303231	0.218472	0.000040
Cl112	Cl	1.053022	0.029287	0.806970
H113	H	0.844402	0.148691	0.622582
H114	H	0.702972	0.017660	0.000087
Cl115	Cl	1.152260	-0.537737	0.000073
Cl116	Cl	1.022941	0.046475	0.397642
H117	H	1.038671	0.037490	0.622596
Cl118	Cl	0.781256	0.184823	0.397613
H119	H	0.814330	0.165879	0.213246
H120	H	0.992121	0.064117	0.484727
