data_functionalizedCrystal
_audit_creation_method	'MofGen! by Chris Wilmer'
_symmetry_space_group_name_H-M	'P1'
_symmetry_Int_Tables_number	1
_symmetry_cell_setting	triclinic
loop_
_symmetry_equiv_pos_as_xyz
  x,y,z
_cell_length_a	11.026623
_cell_length_b	10.268362
_cell_length_c	10.967971
_cell_angle_alpha	77.875219
_cell_angle_beta	83.619273
_cell_angle_gamma	89.996188
loop_
_atom_site_label
_atom_site_type_symbol
_atom_site_fract_x
_atom_site_fract_y
_atom_site_fract_z
O1	O	-1.614510	-0.009187	0.523502
O2	O	-1.260709	0.004193	0.463890
O3	O	-1.445774	0.037852	0.313886
O4	O	-1.429445	-0.042847	0.673506
O5	O	-1.445758	-0.178746	0.313875
O6	O	-1.260693	-0.212405	0.463879
O7	O	-1.614493	-0.225785	0.523490
Cu8	Cu	-1.437591	-0.238873	0.493683
Cu9	Cu	-1.437611	0.017280	0.493697
O10	O	-1.429428	-0.259445	0.673494
C11	C	-1.215399	-0.101638	0.452887
C12	C	-1.080412	-0.094280	0.420104
N13	N	-1.437587	-0.419037	0.493675
C14	C	-1.007358	-0.114592	0.510621
C15	C	-0.867843	-0.106987	0.476740
C16	C	-1.437605	-0.684711	0.493693
C17	C	-1.437591	-0.536872	0.493686
C18	C	-0.659804	-0.119952	0.534492
C19	C	-0.794791	-0.127301	0.567270
C20	C	-1.444579	-0.059953	0.267126
C21	C	-1.441028	-0.028681	0.127809
N22	N	-1.437625	0.197445	0.493698
C23	C	-1.439436	-0.126943	0.065685
C24	C	-1.435766	-0.094625	-0.078307
C25	C	-1.430623	-0.161637	0.720254
C26	C	-1.434174	-0.192900	0.859572
H27	H	-1.048102	-0.137617	0.613199
H28	H	-1.039669	-0.071228	0.317526
H29	H	-1.440797	-0.234993	0.119100
H30	H	-1.434418	0.013433	-0.131716
O31	O	-1.435741	-0.321741	-0.076536
C32	C	-1.440952	-0.471427	0.125247
C33	C	-1.439154	-0.325460	0.053044
H34	H	-1.443738	-0.474482	0.230027
H35	H	-1.355340	-0.522242	0.092008
H36	H	-1.525206	-0.525627	0.107156
H37	H	-1.354957	-0.271148	0.071101
H38	H	-1.524823	-0.274746	0.086294
O39	O	-0.819312	-0.079748	0.354337
C40	C	-0.803462	-0.147355	0.155762
C41	C	-0.858482	-0.178377	0.294359
H42	H	-0.835130	-0.227063	0.107223
H43	H	-0.699595	-0.146183	0.150166
H44	H	-0.834999	-0.045783	0.107269
H45	H	-0.827040	-0.279953	0.342939
H46	H	-0.962342	-0.179462	0.299866
H47	H	-0.835527	-0.150330	0.669855
O48	O	-1.439354	0.100154	0.063899
C49	C	-1.434296	0.249830	-0.137873
C50	C	-1.436159	0.103864	-0.065659
H51	H	-1.431739	0.252877	-0.242631
H52	H	-1.349997	0.304088	-0.119960
H53	H	-1.519871	0.300592	-0.104466
H54	H	-1.350643	0.052987	-0.099022
H55	H	-1.520515	0.049706	-0.083574
