data_functionalizedCrystal
_audit_creation_method	'MofGen! by Chris Wilmer'
_symmetry_space_group_name_H-M	'P1'
_symmetry_Int_Tables_number	1
_symmetry_cell_setting	triclinic
loop_
_symmetry_equiv_pos_as_xyz
  x,y,z
_cell_length_a	19.188905
_cell_length_b	27.731996
_cell_length_c	18.266242
_cell_angle_alpha	89.987663
_cell_angle_beta	89.983837
_cell_angle_gamma	82.877971
loop_
_atom_site_label
_atom_site_type_symbol
_atom_site_fract_x
_atom_site_fract_y
_atom_site_fract_z
O1	O	0.925760	0.060292	-0.061011
O2	O	0.722392	0.068428	-0.060987
O3	O	0.830411	-0.006019	-0.060984
O4	O	0.817741	0.134740	-0.061014
O5	O	0.830393	-0.006023	0.060778
O6	O	0.722374	0.068425	0.060775
O7	O	0.925741	0.060288	0.060751
Zn8	Zn	0.824055	0.064356	0.080095
Zn9	Zn	0.824079	0.064361	-0.080331
O10	O	0.817722	0.134736	0.060748
C11	C	0.696373	0.068165	-0.000103
C12	C	0.618873	0.067380	-0.000093
C13	C	0.582493	0.067005	-0.066468
C14	C	0.509675	0.066262	-0.066476
C15	C	0.473240	0.065885	-0.000107
C16	C	0.509628	0.066262	0.066276
C17	C	0.582444	0.067010	0.066283
N18	N	0.364403	0.037201	0.049291
N19	N	0.295231	0.036490	0.049280
C20	C	0.253848	0.063633	-0.000125
N21	N	0.284253	0.091508	-0.049528
N22	N	0.353432	0.092218	-0.049519
C23	C	0.394283	0.065074	-0.000108
C24	C	0.138511	0.062453	-0.066513
C25	C	0.065690	0.061713	-0.066519
C26	C	0.065645	0.061708	0.066235
C27	C	0.138464	0.062453	0.066239
C28	C	0.174892	0.062823	-0.000137
C29	C	0.830141	-0.024029	-0.000101
C30	C	0.829357	-0.077688	-0.000093
C31	C	0.824435	-0.410417	-0.066501
C32	C	0.821458	-0.612084	-0.066513
O33	O	0.821051	-0.638154	-0.122961
N34	N	0.821078	-0.637305	-0.000141
C35	C	0.821438	-0.612105	0.066238
O36	O	0.821040	-0.638183	0.122692
C37	C	0.824410	-0.410438	0.066250
C38	C	0.824797	-0.385221	-0.000126
C39	C	0.824821	-0.385200	-0.132871
C40	C	0.825569	-0.334786	-0.132868
C41	C	0.825931	-0.309590	-0.066493
C42	C	0.825545	-0.334807	-0.000122
C43	C	0.824765	-0.385238	0.132629
C44	C	0.825507	-0.334818	0.132626
C45	C	0.825893	-0.309601	0.066250
C46	C	0.826655	-0.259198	0.066256
N47	N	0.827035	-0.233977	-0.000116
C48	C	0.826673	-0.259174	-0.066490
C49	C	0.819880	-0.717983	0.066228
C50	C	0.819138	-0.768399	0.066225
C51	C	0.819156	-0.768375	-0.066527
C52	C	0.819903	-0.717958	-0.066524
C53	C	0.820259	-0.692762	-0.000144
C54	C	0.828244	-0.153302	-0.066477
C55	C	0.828995	-0.102884	-0.066468
C56	C	0.828973	-0.102912	0.066284
C57	C	0.828226	-0.153326	0.066275
C58	C	0.827859	-0.178519	-0.000112
O59	O	0.827054	-0.233096	0.122674
O60	O	0.827056	-0.233085	-0.122935
C61	C	0.823687	-0.460830	-0.066504
C62	C	0.823301	-0.486048	-0.000134
C63	C	0.823663	-0.460851	0.066241
C64	C	0.822559	-0.536464	-0.000136
C65	C	0.822197	-0.561660	-0.066511
C66	C	0.822577	-0.536440	-0.132883
C67	C	0.823325	-0.486027	-0.132879
C68	C	0.823284	-0.486072	0.132613
C69	C	0.822536	-0.536485	0.132604
C70	C	0.822174	-0.561681	0.066229
C71	C	0.951760	0.060551	-0.000135
C72	C	1.029260	0.061336	-0.000149
C73	C	0.817992	0.152746	-0.000137
C74	C	0.818776	0.206405	-0.000150
N75	N	0.824043	0.064352	0.189582
N76	N	0.824095	0.064361	-0.189818
C77	C	0.871890	0.031403	0.227892
C78	C	0.871894	0.031400	0.304537
C79	C	0.824059	0.064356	0.342869
C80	C	0.776204	0.097308	0.304549
C81	C	0.776196	0.097306	0.227906
N82	N	0.814699	0.107148	0.463193
N83	N	0.814710	0.107148	0.536001
C84	C	0.824078	0.064363	0.573791
N85	N	0.833448	0.021576	0.536023
N86	N	0.833440	0.021576	0.463208
C87	C	0.824062	0.064361	0.425976
C88	C	0.871932	0.031408	0.695209
C89	C	0.871932	0.031405	0.771855
C90	C	0.776245	0.097317	0.771866
C91	C	0.776242	0.097316	0.695221
C92	C	0.824089	0.064362	0.656897
H93	H	0.168171	0.062759	-0.120560
H94	H	0.827942	-0.173808	-0.120535
Cl95	Cl	0.019848	0.061239	0.149672
H96	H	0.168085	0.062755	0.120288
H97	H	0.480049	0.065958	-0.120528
Cl98	Cl	0.822054	-0.568181	0.216057
Cl99	Cl	0.628181	0.067481	0.149732
H100	H	0.822285	-0.556964	-0.186927
Cl101	Cl	0.716104	0.138743	0.820049
H102	H	0.737233	0.124138	0.196713
Cl103	Cl	0.824275	-0.416927	0.216079
H104	H	0.823579	-0.465562	0.186664
Cl105	Cl	0.932036	-0.010027	0.179714
H106	H	0.910892	0.004571	0.803048
H107	H	0.829312	-0.082355	-0.120521
H108	H	0.910858	0.004568	0.335735
H109	H	0.825881	-0.314259	-0.186918
Cl110	Cl	0.019954	0.061246	-0.149969
H111	H	0.824524	-0.405709	-0.186925
H112	H	0.825786	-0.314305	0.186682
H113	H	0.737284	0.124148	0.664027
Cl114	Cl	0.829428	-0.071228	0.149722
Cl115	Cl	0.820387	-0.686262	-0.149971
H116	H	0.479958	0.065956	0.120314
Cl117	Cl	0.818697	-0.800059	-0.149969
H118	H	0.818833	-0.788928	0.120275
H119	H	0.612149	0.067307	-0.120516
H120	H	0.820173	-0.697473	0.120285
Cl121	Cl	0.827753	-0.185029	0.149720
H122	H	0.823639	-0.465499	-0.186929
H123	H	0.737254	0.124140	0.335763
H124	H	0.910890	0.004574	0.664004
