data_functionalizedCrystal
_audit_creation_method	'MofGen! by Chris Wilmer'
_symmetry_space_group_name_H-M	'P1'
_symmetry_Int_Tables_number	1
_symmetry_cell_setting	triclinic
loop_
_symmetry_equiv_pos_as_xyz
  x,y,z
_cell_length_a	16.109301
_cell_length_b	15.186229
_cell_length_c	15.944499
_cell_angle_alpha	89.995799
_cell_angle_beta	96.530455
_cell_angle_gamma	90.000638
loop_
_atom_site_label
_atom_site_type_symbol
_atom_site_fract_x
_atom_site_fract_y
_atom_site_fract_z
O1	O	-1.103146	-0.073174	0.107969
O2	O	-0.861086	-0.073188	0.121405
O3	O	-0.988748	-0.073174	-0.007593
O4	O	-0.975483	-0.073188	0.236967
O5	O	-0.988740	0.073284	-0.007595
O6	O	-0.861077	0.073269	0.121404
O7	O	-1.103137	0.073283	0.107967
Zn8	Zn	-0.982106	0.096530	0.114685
Zn9	Zn	-0.982117	-0.096434	0.114687
O10	O	-0.975475	0.073269	0.236965
C11	C	-0.830106	0.000039	0.120860
C12	C	-0.737811	0.000034	0.119228
C13	C	-0.988201	0.000055	-0.038888
C14	C	-0.986573	0.000054	-0.132136
N15	N	-0.982104	0.228222	0.114683
C16	C	-1.134116	0.000055	0.108512
C17	C	-1.226412	0.000054	0.110144
C18	C	-0.515549	0.000040	0.191979
C19	C	-0.428828	0.000045	0.190439
C20	C	-0.448681	0.000051	0.037387
C21	C	-0.535400	0.000051	0.038928
C22	C	-0.568831	0.000041	0.116226
C23	C	-0.395392	0.000047	0.113146
C24	C	-0.301365	0.000053	0.111476
C25	C	-0.662863	0.000037	0.117897
N26	N	-0.982125	-0.228127	0.114683
C27	C	-1.038652	0.453951	0.057582
C28	C	-1.038655	0.546141	0.057580
C29	C	-0.925571	0.546138	0.171787
C30	C	-0.925565	0.453950	0.171784
C31	C	-0.982110	0.407859	0.114683
C32	C	-0.982119	0.592237	0.114683
C33	C	-0.982121	0.692193	0.114682
C34	C	-0.982107	0.307896	0.114683
C35	C	-0.976022	0.000039	0.268261
C36	C	-0.977650	0.000033	0.361509
C37	C	-0.903482	0.000038	0.653069
C38	C	-0.942032	0.072254	0.592026
C39	C	-0.983565	0.000049	0.697143
C40	C	-0.942062	-0.072142	0.592042
C41	C	-0.980655	0.000040	0.532235
C42	C	-1.022138	0.072324	0.637329
C43	C	-1.022157	-0.072136	0.637351
C44	C	-1.060766	0.000098	0.576325
C45	C	-0.985240	0.000055	0.792143
C46	C	-0.978987	0.000040	0.437237
H47	H	-0.385448	0.000046	0.252125
H48	H	-0.879534	0.583674	0.218279
H49	H	-0.908184	-0.133198	0.571989
O50	O	-1.140070	0.000085	0.536583
C51	C	-1.227595	-0.000574	0.403558
C52	C	-1.137740	-0.000571	0.448453
H53	H	-1.225741	-0.001086	0.332298
H54	H	-1.261986	-0.061575	0.422957
H55	H	-1.261582	0.061006	0.422193
H56	H	-1.103682	-0.062110	0.429841
H57	H	-1.103412	0.060470	0.429053
H58	H	-0.542765	0.000038	0.254921
H59	H	-1.055978	0.133444	0.657295
H60	H	-1.084694	0.416427	0.011085
O61	O	-1.062417	-0.145056	0.661322
C62	C	-1.065752	-0.303615	0.665659
C63	C	-1.020075	-0.221098	0.638480
H64	H	-1.031548	-0.365116	0.647186
H65	H	-1.067131	-0.302622	0.736981
H66	H	-1.132439	-0.304188	0.632875
H67	H	-0.953369	-0.220471	0.671205
H68	H	-1.018764	-0.222123	0.567150
O69	O	-0.901676	0.145053	0.567910
C70	C	-0.855490	0.226934	0.452345
C71	C	-0.901237	0.144468	0.479533
H72	H	-0.855105	0.226479	0.380893
H73	H	-0.888979	0.288508	0.471796
H74	H	-0.788460	0.226835	0.484236
H75	H	-0.968269	0.144481	0.447655
H76	H	-0.867683	0.082932	0.460097
H77	H	-0.879518	0.416419	0.218283
H78	H	-0.421450	0.000064	-0.025546
H79	H	-0.578785	0.000055	-0.022763
H80	H	-1.084696	0.583667	0.011082
H81	H	-0.837021	0.000104	0.686423
