data_functionalizedCrystal
_audit_creation_method	'MofGen! by Chris Wilmer'
_symmetry_space_group_name_H-M	'P1'
_symmetry_Int_Tables_number	1
_symmetry_cell_setting	triclinic
loop_
_symmetry_equiv_pos_as_xyz
  x,y,z
_cell_length_a	18.101395
_cell_length_b	10.686220
_cell_length_c	10.686551
_cell_angle_alpha	90.307919
_cell_angle_beta	85.593544
_cell_angle_gamma	94.413019
loop_
_atom_site_label
_atom_site_type_symbol
_atom_site_fract_x
_atom_site_fract_y
_atom_site_fract_z
Zn1	Zn	-0.180548	1.972201	-0.562388
Zn2	Zn	-0.314592	1.955907	-0.352626
Zn3	Zn	-0.199493	1.746310	-0.368704
Zn4	Zn	-0.313092	1.762338	-0.578403
O5	O	-0.251931	1.859189	-0.465530
O6	O	-0.191029	2.145585	-0.521131
O7	O	-0.307881	1.914577	-0.179213
O8	O	-0.093341	1.776387	-0.394423
O9	O	-0.289510	2.133614	-0.367020
O10	O	-0.079422	1.942348	-0.536722
O11	O	-0.223318	1.760587	-0.191026
O12	O	-0.221863	1.572891	-0.409953
O13	O	-0.286953	1.803703	-0.751825
O14	O	-0.305323	1.584666	-0.564017
O15	O	-0.189574	1.957889	-0.740058
O16	O	-0.418032	1.930118	-0.382550
O17	O	-0.416930	1.787904	-0.548427
C18	C	-0.265487	1.533262	-0.490468
C19	C	-0.271302	1.393831	-0.501167
C20	C	-0.444351	1.859018	-0.465506
C21	C	-0.526662	1.859063	-0.465529
C22	C	-0.825738	1.859344	-0.465576
C23	C	-0.793729	1.770110	-0.570165
C24	C	-0.708145	1.769627	-0.569896
C25	C	-0.677363	1.859205	-0.465554
C26	C	-0.716425	1.813256	-0.336084
C27	C	-0.802068	1.812677	-0.336714
C28	C	-0.786912	1.994649	-0.489276
C29	C	-0.701153	1.994092	-0.492235
C30	C	-0.593508	1.859128	-0.465533
C31	C	-0.909594	1.859417	-0.465588
C32	C	-0.058758	1.859397	-0.465579
C33	C	0.023561	1.859485	-0.465600
C34	C	-0.235983	1.884402	-0.792731
C35	C	-0.229186	1.895146	-0.932165
C36	C	-0.238323	2.186389	-0.440496
C37	C	-0.232525	2.325822	-0.429828
C38	C	-0.267762	1.834147	-0.139597
C39	C	-0.274339	1.823646	-0.000146
H40	H	-0.681387	1.799551	-0.666214
F41	F	-0.666892	2.039145	-0.616711
H42	H	-0.185329	1.964589	-0.980639
H43	H	-0.194878	1.374272	-0.360556
F44	F	-0.690812	1.894948	-0.232028
H45	H	-0.318198	1.754216	-0.951677
F46	F	-0.813138	1.808959	-0.696500
H47	H	-0.820461	1.670643	-0.555504
F48	F	-0.320515	1.330514	-0.591694
H49	H	-0.692906	1.669540	-0.554998
H50	H	-0.827543	1.713468	-0.315457
F51	F	-0.830237	1.893213	-0.232093
F52	F	-0.695555	1.684871	-0.307524
F53	F	-0.807285	2.046818	-0.609874
F54	F	-0.813964	2.081716	-0.389562
F55	F	-0.673198	2.086660	-0.398874
