data_functionalizedCrystal
_audit_creation_method	'MofGen! by Chris Wilmer'
_symmetry_space_group_name_H-M	'P1'
_symmetry_Int_Tables_number	1
_symmetry_cell_setting	triclinic
loop_
_symmetry_equiv_pos_as_xyz
  x,y,z
_cell_length_a	17.077404
_cell_length_b	29.839131
_cell_length_c	17.077396
_cell_angle_alpha	89.968087
_cell_angle_beta	89.980499
_cell_angle_gamma	90.041645
loop_
_atom_site_label
_atom_site_type_symbol
_atom_site_fract_x
_atom_site_fract_y
_atom_site_fract_z
Zn1	Zn	1.199954	-0.178851	-0.443824
Zn2	Zn	1.199818	-0.253981	-0.312550
Zn3	Zn	1.068685	-0.178866	-0.312572
Zn4	Zn	1.068611	-0.253955	-0.443774
O5	O	1.134267	-0.216413	-0.378180
O6	O	1.309782	-0.188821	-0.426422
O7	O	1.182398	-0.244035	-0.202706
O8	O	1.086186	-0.115997	-0.330013
O9	O	1.309683	-0.244020	-0.329976
O10	O	1.182628	-0.115986	-0.426443
O11	O	1.086055	-0.188848	-0.202722
O12	O	0.958829	-0.188822	-0.329964
O13	O	1.086059	-0.243974	-0.553627
O14	O	0.958774	-0.243989	-0.426358
O15	O	1.182556	-0.188796	-0.553664
O16	O	1.182325	-0.316845	-0.329927
O17	O	1.085928	-0.316825	-0.426336
C18	C	0.930319	-0.216405	-0.378158
C19	C	0.843069	-0.216412	-0.378168
C20	C	0.802071	-0.245181	-0.428279
C21	C	0.720091	-0.245182	-0.428292
C22	C	0.679110	-0.216416	-0.378188
C23	C	0.720114	-0.187644	-0.328074
C24	C	0.802093	-0.187641	-0.328066
C25	C	0.549244	-0.187653	-0.328093
C26	C	0.467259	-0.187657	-0.328100
C27	C	0.467242	-0.245194	-0.428319
C28	C	0.549221	-0.245191	-0.428311
C29	C	0.590219	-0.216420	-0.378196
C30	C	1.134125	-0.333136	-0.378141
C31	C	1.134136	-0.383070	-0.378151
C32	C	1.184552	-0.692711	-0.328053
C33	C	1.184649	-0.880384	-0.328083
O34	O	1.227402	-0.904647	-0.285459
N35	N	1.134430	-0.903855	-0.378239
C36	C	1.084186	-0.880405	-0.428394
O37	O	1.041479	-0.904675	-0.471061
C38	C	1.084094	-0.692733	-0.428367
C39	C	1.134311	-0.669264	-0.378203
C40	C	1.234766	-0.669242	-0.277893
C41	C	1.234738	-0.622327	-0.277883
C42	C	1.184497	-0.598880	-0.328033
C43	C	1.134283	-0.622349	-0.378193
C44	C	1.033855	-0.669284	-0.478526
C45	C	1.033837	-0.622363	-0.478516
C46	C	1.084055	-0.598894	-0.428352
C47	C	1.084014	-0.551987	-0.428332
N48	N	1.134233	-0.528516	-0.378177
C49	C	1.184475	-0.551962	-0.328027
C50	C	1.084237	-0.978936	-0.428404
C51	C	1.084259	-1.025854	-0.428410
C52	C	1.184723	-1.025829	-0.328100
C53	C	1.184697	-0.978911	-0.328090
C54	C	1.134457	-0.955465	-0.378248
C55	C	1.184412	-0.453437	-0.328009
C56	C	1.184378	-0.406517	-0.328001
C57	C	1.083917	-0.406545	-0.428314
C58	C	1.083948	-0.453461	-0.428319
C59	C	1.134202	-0.476905	-0.378164
O60	O	1.041290	-0.527695	-0.470941
O61	O	1.227188	-0.527685	-0.285378
C62	C	1.184580	-0.739627	-0.328063
C63	C	1.134366	-0.763095	-0.378223
C64	C	1.084125	-0.739649	-0.428373
C65	C	1.134388	-0.810013	-0.378229
C66	C	1.184630	-0.833460	-0.328079
C67	C	1.234849	-0.809989	-0.277923
C68	C	1.234822	-0.763073	-0.277913
C69	C	1.033905	-0.763120	-0.478529
C70	C	1.033937	-0.810035	-0.478534
C71	C	1.084178	-0.833482	-0.428384
C72	C	1.339011	-0.216422	-0.378202
C73	C	1.426261	-0.216425	-0.378212
C74	C	1.134314	-0.216380	-0.582924
C75	C	1.134335	-0.216366	-0.670174
C76	C	1.134431	-0.099235	-0.378236
C77	C	1.134500	-0.049300	-0.378260
C78	C	1.184582	-0.187632	-0.711185
C79	C	1.184592	-0.187617	-0.793165
C80	C	1.134357	-0.216339	-0.834134
C81	C	1.084104	-0.245074	-0.793117
C82	C	1.084091	-0.245086	-0.711138
C83	C	1.084135	-0.245047	-0.963987
C84	C	1.084149	-0.245035	-1.045972
C85	C	1.184636	-0.187578	-1.046014
C86	C	1.184624	-0.187590	-0.964035
C87	C	1.134371	-0.216326	-0.923025
C88	C	1.134265	-0.216414	-0.174232
C89	C	1.134397	-0.216301	-0.086983
H90	H	0.433857	-0.268619	-0.469126
C91	C	1.289537	-0.835387	-0.223522
C92	C	1.367181	-0.823907	-0.240683
C93	C	1.417585	-0.847290	-0.190585
H94	H	1.282473	-0.866698	-0.230660
H95	H	1.278130	-0.827716	-0.170752
H96	H	1.378584	-0.831581	-0.293440
H97	H	1.374270	-0.792600	-0.233540
H98	H	1.406178	-0.839619	-0.137815
H99	H	1.410514	-0.878599	-0.197728
H100	H	1.470271	-0.839501	-0.202217
H101	H	1.275713	-0.743969	-0.237065
H102	H	1.225492	-0.164245	-0.677834
H103	H	0.835472	-0.164213	-0.287265
H104	H	1.043202	-0.268440	-0.930599
H105	H	0.993037	-0.829139	-0.519383
H106	H	0.686741	-0.164221	-0.287283
H107	H	1.225552	-0.164179	-1.079409
C108	C	0.846520	-0.276358	-0.482811
C109	C	0.826638	-0.266623	-0.560510
C110	C	0.867574	-0.295329	-0.610770
H111	H	0.833078	-0.306551	-0.471334
H112	H	0.901224	-0.272233	-0.475683
H113	H	0.771947	-0.270751	-0.567634
H114	H	0.840082	-0.236435	-0.572012
H115	H	0.922278	-0.291204	-0.603643
H116	H	0.854129	-0.325521	-0.599286
H117	H	0.854096	-0.288725	-0.663495
H118	H	1.225511	-0.164220	-0.826553
C119	C	0.422707	-0.156488	-0.273638
C120	C	0.375589	-0.181877	-0.223230
C121	C	0.334537	-0.153177	-0.173056
H122	H	0.390707	-0.136940	-0.303674
H123	H	0.458826	-0.139350	-0.243748
H124	H	0.339474	-0.199008	-0.253118
H125	H	0.407568	-0.201425	-0.193177
H126	H	0.370656	-0.136038	-0.143165
H127	H	0.302542	-0.133630	-0.203098
H128	H	0.302568	-0.170399	-0.138844
H129	H	1.225534	-0.164205	-0.930681
H130	H	0.686714	-0.268609	-0.469097
H131	H	1.043199	-0.268458	-0.826480
H132	H	1.225632	-1.044928	-0.287266
H133	H	0.992994	-0.744033	-0.519368
H134	H	1.225271	-0.387410	-0.287148
H135	H	1.043059	-0.472570	-0.469170
H136	H	1.275683	-0.688328	-0.237055
H137	H	1.043242	-0.268422	-1.079326
H138	H	1.225336	-0.472520	-0.287169
C139	C	0.979465	-0.694812	-0.533046
C140	C	1.023899	-0.721707	-0.583394
C141	C	0.973821	-0.745233	-0.633628
H142	H	0.949532	-0.674172	-0.562986
H143	H	0.945291	-0.713173	-0.503026
H144	H	1.058058	-0.703347	-0.613411
H145	H	1.053830	-0.742355	-0.553476
H146	H	0.939648	-0.763594	-0.603608
H147	H	0.943890	-0.724590	-0.663562
H148	H	1.003962	-0.763487	-0.667789
C149	C	0.593616	-0.156403	-0.273590
C150	C	0.540183	-0.131222	-0.229693
C151	C	0.581030	-0.102438	-0.179466
H152	H	0.625639	-0.136807	-0.303582
H153	H	0.625540	-0.173557	-0.239291
H154	H	0.508272	-0.114069	-0.263988
H155	H	0.508158	-0.150805	-0.199685
H156	H	0.612954	-0.119592	-0.145167
H157	H	0.613052	-0.082846	-0.209464
H158	H	0.544782	-0.085352	-0.149671
C159	C	1.029517	-0.276339	-0.666751
C160	C	0.985545	-0.301501	-0.720173
C161	C	0.935272	-0.330302	-0.679313
H162	H	0.995261	-0.259212	-0.634766
H163	H	1.059504	-0.295942	-0.634787
H164	H	0.955561	-0.281901	-0.752123
H165	H	1.019781	-0.318638	-0.752160
H166	H	0.965259	-0.349905	-0.647350
H167	H	0.901022	-0.313172	-0.647330
H168	H	0.905437	-0.347381	-0.715554
C169	C	1.289357	-0.596932	-0.223397
C170	C	1.333373	-0.627515	-0.179504
C171	C	1.383710	-0.604141	-0.129312
H172	H	1.259438	-0.578656	-0.189088
H173	H	1.323576	-0.578610	-0.253439
H174	H	1.299158	-0.645829	-0.149464
H175	H	1.363308	-0.645792	-0.213792
H176	H	1.417929	-0.585819	-0.159354
H177	H	1.353785	-0.585866	-0.095008
H178	H	1.413586	-0.624888	-0.099530
C179	C	1.239308	-0.953514	-0.273599
C180	C	1.283319	-0.984095	-0.229697
C181	C	1.333645	-0.960719	-0.179497
H182	H	1.209381	-0.935238	-0.239296
H183	H	1.273530	-0.935191	-0.303636
H184	H	1.249101	-1.002410	-0.199662
H185	H	1.313261	-1.002372	-0.263979
H186	H	1.367867	-0.942396	-0.209534
H187	H	1.303712	-0.942444	-0.145200
H188	H	1.363517	-0.981465	-0.149709
C189	C	1.029828	-1.051307	-0.483001
C190	C	1.046888	-1.039861	-0.560679
C191	C	0.996771	-1.063301	-0.610996
H192	H	0.977061	-1.043670	-0.471568
H193	H	1.037038	-1.082613	-0.475881
H194	H	1.039671	-1.008562	-0.567795
H195	H	1.099645	-1.047499	-0.572137
H196	H	1.003981	-1.094607	-0.603876
H197	H	0.944007	-1.055663	-0.599556
H198	H	1.008344	-1.055542	-0.663706
C199	C	0.593575	-0.276440	-0.482792
C200	C	0.540126	-0.301629	-0.526698
C201	C	0.580956	-0.330416	-0.576903
H202	H	0.625522	-0.296030	-0.452784
H203	H	0.625573	-0.259288	-0.517087
H204	H	0.508142	-0.318781	-0.492408
H205	H	0.508177	-0.282051	-0.556722
H206	H	0.612955	-0.313263	-0.611198
H207	H	0.612903	-0.350003	-0.546889
H208	H	0.544698	-0.347507	-0.606704
C209	C	1.029810	-0.953461	-0.482958
C210	C	1.074203	-0.926491	-0.533332
C211	C	1.024090	-0.903024	-0.583602
H212	H	0.995598	-0.935153	-0.452990
H213	H	0.999922	-0.974150	-0.512869
H214	H	1.104079	-0.905804	-0.503424
H215	H	1.108413	-0.944788	-0.563318
H216	H	0.994201	-0.923713	-0.613513
H217	H	0.989880	-0.884719	-0.553627
H218	H	1.054203	-0.884725	-0.617791
C219	C	0.979205	-0.596989	-0.533008
C220	C	0.935225	-0.627588	-0.576924
C221	C	0.884883	-0.604231	-0.627121
H222	H	1.009118	-0.578655	-0.567302
H223	H	0.944962	-0.578727	-0.502969
H224	H	0.969463	-0.645842	-0.606960
H225	H	0.905296	-0.645923	-0.542650
H226	H	0.850641	-0.585970	-0.597082
H227	H	0.914803	-0.585898	-0.661410
H228	H	0.855032	-0.624989	-0.656919
H229	H	1.043008	-0.387448	-0.469143
