data_functionalizedCrystal
_audit_creation_method	'MofGen! by Chris Wilmer'
_symmetry_space_group_name_H-M	'P1'
_symmetry_Int_Tables_number	1
_symmetry_cell_setting	triclinic
loop_
_symmetry_equiv_pos_as_xyz
  x,y,z
_cell_length_a	10.723024
_cell_length_b	8.965430
_cell_length_c	10.489741
_cell_angle_alpha	89.999293
_cell_angle_beta	84.503522
_cell_angle_gamma	90.003544
loop_
_atom_site_label
_atom_site_type_symbol
_atom_site_fract_x
_atom_site_fract_y
_atom_site_fract_z
O1	O	1.657298	0.124029	0.178899
O2	O	1.294156	0.124034	0.196024
O3	O	1.483990	0.124022	0.001859
O4	O	1.467464	0.124040	0.373065
O5	O	1.483974	-0.124057	0.001872
O6	O	1.294140	-0.124045	0.196037
O7	O	1.657282	-0.124050	0.178912
Cu8	Cu	1.475709	-0.146699	0.187476
Cu9	Cu	1.475728	0.146683	0.187461
O10	O	1.467448	-0.124039	0.373078
C11	C	1.247647	-0.000005	0.194785
C12	C	1.109091	-0.000003	0.191056
C13	C	0.917263	-0.000006	0.075236
C14	C	1.060468	-0.000008	0.079087
N15	N	1.475705	-0.353048	0.187486
C16	C	1.387886	-0.450349	0.277251
C17	C	1.500876	-0.549763	0.302990
C18	C	1.362762	-0.549762	0.161758
C19	C	1.588753	-0.450273	0.213282
C20	C	1.450564	-0.450263	0.072001
C21	C	1.563636	-0.549633	0.097691
C22	C	1.703790	-0.000008	0.180152
C23	C	1.842347	0.000000	0.183881
C24	C	1.482734	-0.000016	-0.045666
C25	C	1.478999	-0.000013	-0.187293
N26	N	1.475742	0.353032	0.187441
C27	C	1.358213	-0.000001	-0.255356
C28	C	1.415264	-0.122317	-0.347508
C29	C	1.415308	0.122269	-0.347496
C30	C	1.536099	-0.122431	-0.277580
C31	C	1.536127	0.122265	-0.277558
C32	C	1.593265	-0.000081	-0.369683
C33	C	1.468704	0.000003	0.420602
C34	C	1.472438	0.000010	0.562229
H35	H	1.044723	0.000008	0.284069
Br36	Br	1.536367	-0.622606	0.465733
Br37	Br	1.167758	0.000001	-0.075944
Br38	Br	0.912136	-0.000011	0.343673
Br39	Br	1.330102	0.294612	-0.399098
H40	H	0.875382	-0.000033	-0.020630
H41	H	1.313689	-0.406756	0.353233
H42	H	1.684304	-0.406756	0.235140
Br43	Br	1.203543	-0.622609	0.125520
H44	H	1.364150	-0.225726	-0.378482
Br45	Br	1.687573	-0.621847	-0.028873
Br46	Br	1.415023	-0.377357	-0.090698
H47	H	1.587155	-0.225956	-0.246775
H48	H	1.258904	-0.000123	-0.205641
Br49	Br	1.758934	-0.000186	-0.452170
H50	H	1.587197	0.225679	-0.246551
