data_functionalizedCrystal
_audit_creation_method	'MofGen! by Chris Wilmer'
_symmetry_space_group_name_H-M	'P1'
_symmetry_Int_Tables_number	1
_symmetry_cell_setting	triclinic
loop_
_symmetry_equiv_pos_as_xyz
  x,y,z
_cell_length_a	14.628931
_cell_length_b	14.560438
_cell_length_c	14.628931
_cell_angle_alpha	90.001341
_cell_angle_beta	60.000193
_cell_angle_gamma	60.000056
loop_
_atom_site_label
_atom_site_type_symbol
_atom_site_fract_x
_atom_site_fract_y
_atom_site_fract_z
Zr1	Zr	1.000562	0.884767	-0.119930
O2	O	1.191270	0.738118	-0.265895
O3	O	0.809855	0.929723	-0.075184
O4	O	1.000560	0.929723	-0.265889
O5	O	1.000565	0.738118	0.075241
O6	O	1.000557	1.080864	-0.265884
O7	O	1.000564	0.738118	-0.075190
O8	O	0.659421	1.080864	0.075252
O9	O	1.341701	0.738118	-0.265895
O10	O	0.888293	1.061691	-0.056097
O11	O	0.888295	0.948896	0.056165
O12	O	1.112826	0.948896	-0.168366
O13	O	1.112828	0.836101	-0.056104
Zr14	Zr	1.000558	1.125819	0.119999
Zr15	Zr	1.000557	1.125820	-0.119922
Zr16	Zr	1.000562	0.884767	0.119991
Zr17	Zr	1.240483	0.884767	-0.119930
Zr18	Zr	0.760636	1.125820	0.119998
O19	O	1.191264	1.080863	0.075253
O20	O	1.191263	1.080864	-0.265884
O21	O	1.191270	0.738118	0.075242
O22	O	0.809850	1.272468	0.265964
O23	O	0.809849	1.272469	-0.075173
O24	O	0.809856	0.929723	0.265953
O25	O	1.000554	1.272468	-0.075173
O26	O	1.000559	1.080863	0.265958
O27	O	1.000562	0.929722	0.265953
O28	O	1.000555	1.272468	0.075259
O29	O	1.341698	0.929723	-0.265889
O30	O	0.659422	1.080864	0.265957
O31	O	0.659418	1.272468	0.265964
O32	O	0.659417	1.272469	0.075258
O33	O	1.341702	0.738118	-0.075190
O34	O	1.341698	0.929722	-0.075184
O35	O	0.888293	1.061691	0.168434
O36	O	0.888291	1.174485	0.056172
O37	O	1.112824	1.061691	-0.056096
O38	O	1.112827	0.948896	0.056165
C39	C	0.700454	1.005294	0.000034
C40	C	0.598601	1.005294	0.000034
C41	C	0.447926	1.061246	-0.055655
C42	C	0.553196	1.061248	-0.055656
C43	C	1.000565	0.703773	0.000024
C44	C	1.000567	0.601440	0.000021
C45	C	1.000569	0.553357	-0.082851
C46	C	1.000557	0.457211	-0.082836
C47	C	1.000546	0.457238	0.082928
C48	C	1.000549	0.553387	0.082917
C49	C	1.000587	0.601411	-0.165747
C50	C	1.000590	0.553327	-0.248626
C51	C	1.000578	0.457181	-0.248611
C52	C	1.000563	0.409120	-0.165716
C53	C	1.300665	1.005293	0.000035
C54	C	1.402518	1.005293	0.000035
C55	C	1.000559	1.005294	-0.300071
C56	C	1.000559	1.005294	-0.401923
C57	C	1.000554	1.306813	0.000044
C58	C	1.000552	1.409146	0.000047
C59	C	1.111942	0.949340	-0.503025
C60	C	1.111944	0.949339	-0.608297
C61	C	1.000561	1.005293	0.300139
C62	C	1.000561	1.005293	0.401992
C63	C	0.700449	1.306813	0.000044
C64	C	0.598594	1.409147	0.000047
C65	C	0.700455	1.005293	0.300139
C66	C	0.598603	1.005293	0.401991
C67	C	0.700450	1.306813	0.300148
C68	C	0.598595	1.409146	0.402005
C69	C	1.300670	0.703773	-0.300080
C70	C	1.402524	0.601440	-0.401936
C71	C	1.300671	0.703773	0.000025
C72	C	1.402525	0.601440	0.000022
C73	C	1.300664	1.005293	-0.300070
C74	C	1.402517	1.005293	-0.401923
C75	C	0.553185	1.398816	-0.055645
C76	C	0.447912	1.504582	-0.055643
C77	C	0.553193	1.061247	0.503094
C78	C	0.447923	1.061248	0.608365
C79	C	0.553184	1.510723	0.391726
C80	C	0.447912	1.616491	0.496998
H81	H	0.592240	1.109157	-0.103329
F82	F	0.396885	1.123855	-0.117981
F83	F	1.000592	0.604485	-0.336836
F84	F	1.000567	0.406015	-0.336809
F85	F	0.547551	1.523050	0.062365
H86	H	0.441548	1.519020	0.606727
H87	H	0.559555	0.957390	0.047716
H88	H	0.441559	0.957394	0.511348
F89	F	1.236586	0.886731	-0.514302
F90	F	1.000534	0.306799	-0.165699
F91	F	0.547563	0.942671	0.390715
H92	H	0.559542	1.400485	0.488741
H93	H	0.408870	1.109154	0.695097
H94	H	1.000536	0.418099	0.150417
F95	F	1.000543	0.604563	0.171122
H96	H	0.408855	1.703630	0.488371
F97	F	1.236591	0.886716	-0.721660
H98	H	0.441582	0.957384	0.047706
F99	F	0.604236	1.522051	0.278358
F100	F	1.000606	0.703734	-0.165771
H101	H	0.905196	1.053193	-0.511280
H102	H	0.592255	1.109145	0.511715
F103	F	0.875914	1.067916	-0.390647
H104	H	0.592249	1.311671	-0.103331
F105	F	0.396867	1.493245	-0.117959
H106	H	0.441543	1.614831	0.047742
