data_functionalizedCrystal
_audit_creation_method	'MofGen! by Chris Wilmer'
_symmetry_space_group_name_H-M	'P1'
_symmetry_Int_Tables_number	1
_symmetry_cell_setting	triclinic
loop_
_symmetry_equiv_pos_as_xyz
  x,y,z
_cell_length_a	12.759400
_cell_length_b	18.215407
_cell_length_c	18.215399
_cell_angle_alpha	90.019833
_cell_angle_beta	90.024546
_cell_angle_gamma	90.015132
loop_
_atom_site_label
_atom_site_type_symbol
_atom_site_fract_x
_atom_site_fract_y
_atom_site_fract_z
Zn1	Zn	-0.418265	1.125124	0.416133
Zn2	Zn	-0.593962	1.125054	0.293074
Zn3	Zn	-0.418299	1.002057	0.293081
Zn4	Zn	-0.593903	1.002044	0.416099
O5	O	-0.506107	1.063570	0.354597
O6	O	-0.441581	1.228099	0.399821
O7	O	-0.570699	1.108714	0.190091
O8	O	-0.271273	1.018416	0.309421
O9	O	-0.570665	1.228048	0.309410
O10	O	-0.271248	1.108833	0.399827
O11	O	-0.441640	1.018349	0.190096
O12	O	-0.441583	0.899071	0.309388
O13	O	-0.570566	1.018395	0.519088
O14	O	-0.570599	0.899062	0.399769
O15	O	-0.441525	1.108821	0.519113
O16	O	-0.740975	1.108703	0.309377
O17	O	-0.740932	1.018328	0.399763
C18	C	-0.506089	0.872364	0.354576
C19	C	-0.506107	0.790565	0.354584
C20	C	-0.573391	0.602385	0.401587
C21	C	-0.573394	0.525527	0.401596
C22	C	-0.438842	0.525506	0.307623
C23	C	-0.438835	0.602364	0.307618
C24	C	-0.506115	0.640801	0.354599
C25	C	-0.506126	0.487085	0.354613
C26	C	-0.506129	0.403752	0.354623
C27	C	-0.506111	0.724140	0.354590
C28	C	-0.779075	1.063526	0.354582
C29	C	-0.895851	1.063575	0.354600
C30	C	-0.950701	1.110685	0.307588
C31	C	-1.060425	1.110731	0.307610
C32	C	-1.060440	1.016549	0.401659
C33	C	-0.950718	1.016508	0.401639
C34	C	-0.895834	1.157753	0.260548
C35	C	-0.950683	1.204866	0.213532
C36	C	-1.060407	1.204911	0.213554
C37	C	-1.115282	1.157843	0.260593
C38	C	-0.232074	1.063634	0.354628
C39	C	-0.115297	1.063661	0.354642
C40	C	-0.506126	1.255523	0.354618
C41	C	-0.506134	1.337322	0.354628
C42	C	-0.506035	1.063615	0.546550
C43	C	-0.506004	1.063634	0.628349
C44	C	-0.506103	1.063568	0.163391
C45	C	-0.505838	1.063691	0.081592
C46	C	-0.438749	1.110736	0.816557
C47	C	-0.438719	1.110744	0.893416
C48	C	-0.573096	1.016584	0.893379
C49	C	-0.573120	1.016572	0.816521
C50	C	-0.505949	1.063652	0.778112
C51	C	-0.505894	1.063673	0.931829
C52	C	-0.505861	1.063682	1.015162
C53	C	-0.505980	1.063642	0.694773
H54	H	-0.628172	0.633679	0.439843
N55	N	-0.645594	0.965771	0.775060
H56	H	-0.720661	0.977179	0.788423
H57	H	-0.635328	0.972921	0.720556
H58	H	-0.628176	0.494252	0.439859
N59	N	-0.891541	0.965699	0.452340
H60	H	-0.910569	0.977105	0.504937
H61	H	-0.910722	0.913149	0.440806
H62	H	-0.384044	0.633643	0.269355
N63	N	-0.366248	1.161535	0.934879
H64	H	-0.376420	1.154400	0.989397
H65	H	-0.291217	1.150098	0.921451
N66	N	-0.366303	1.161511	0.775129
H67	H	-0.323727	1.191338	0.811149
H68	H	-0.317692	1.131560	0.743240
N69	N	-0.645526	0.965805	0.934817
H70	H	-0.694205	0.995703	0.966708
H71	H	-0.688030	0.935977	0.898760
N72	N	-0.366306	0.484049	0.256934
H73	H	-0.376529	0.429530	0.264058
H74	H	-0.382590	0.497471	0.204361
N75	N	-0.777490	1.157699	0.260519
H76	H	-0.751053	1.194662	0.223587
H77	H	-0.751072	1.171168	0.311034
H78	H	-0.905999	1.243192	0.175238
N79	N	-1.119576	1.255724	0.162852
H80	H	-1.100407	1.308293	0.174322
H81	H	-1.100526	1.244250	0.110276
N82	N	-1.233627	1.157897	0.260627
H83	H	-1.260051	1.194887	0.223710
H84	H	-1.260051	1.107406	0.247082
H85	H	-1.105127	0.978227	0.439955
