data_functionalizedCrystal
_audit_creation_method	'MofGen! by Chris Wilmer'
_symmetry_space_group_name_H-M	'P1'
_symmetry_Int_Tables_number	1
_symmetry_cell_setting	triclinic
loop_
_symmetry_equiv_pos_as_xyz
  x,y,z
_cell_length_a	9.065218
_cell_length_b	27.732048
_cell_length_c	26.809956
_cell_angle_alpha	90.000636
_cell_angle_beta	90.009023
_cell_angle_gamma	83.829270
loop_
_atom_site_label
_atom_site_type_symbol
_atom_site_fract_x
_atom_site_fract_y
_atom_site_fract_z
O1	O	1.955907	0.070860	0.041487
O2	O	1.526252	0.076673	0.041488
O3	O	1.754424	0.003461	0.041478
O4	O	1.727735	0.144073	0.041497
O5	O	1.754381	0.003472	-0.041481
O6	O	1.526209	0.076684	-0.041471
O7	O	1.955864	0.070872	-0.041472
Zn8	Zn	1.741030	0.073780	-0.054643
Zn9	Zn	1.741086	0.073765	0.054659
O10	O	1.727692	0.144084	-0.041462
C11	C	1.471280	0.076120	0.000009
C12	C	1.307543	0.074450	0.000009
C13	C	1.753842	-0.014544	-0.000003
C14	C	1.752155	-0.068210	-0.000007
C15	C	1.876369	-0.406178	0.000018
C16	C	1.870110	-0.607880	0.000025
O17	O	1.983695	-0.638360	0.000047
N18	N	1.734814	-0.627927	0.000025
C19	C	1.601073	-0.597545	0.000027
O20	O	1.485852	-0.619225	0.000032
C21	C	1.607334	-0.395844	0.000023
C22	C	1.742639	-0.375800	0.000018
C23	C	2.011663	-0.386133	0.000014
C24	C	2.013226	-0.335710	0.000010
C25	C	1.879496	-0.305332	0.000010
C26	C	1.744202	-0.325377	0.000014
C27	C	1.473594	-0.365463	0.000028
C28	C	1.475171	-0.315035	0.000029
C29	C	1.610476	-0.294991	0.000024
C30	C	1.612034	-0.244577	0.000009
N31	N	1.747331	-0.224529	0.000010
C32	C	1.881061	-0.254907	0.000010
C33	C	1.597796	-0.703442	0.000028
C34	C	1.596230	-0.753867	0.000028
C35	C	1.865268	-0.764198	0.000027
C36	C	1.866832	-0.713772	0.000024
C37	C	1.733092	-0.683395	0.000028
C38	C	1.884334	-0.149016	-0.000000
C39	C	1.885886	-0.098588	-0.000007
C40	C	1.616849	-0.088262	-0.000004
C41	C	1.615296	-0.138685	0.000000
C42	C	1.749051	-0.169061	0.000004
O43	O	1.498510	-0.214067	-0.000006
O44	O	1.996266	-0.233218	0.000015
C45	C	1.874806	-0.456600	0.000023
C46	C	1.739512	-0.476645	0.000027
C47	C	1.605781	-0.446267	0.000027
C48	C	1.737946	-0.527070	0.000027
C49	C	1.871677	-0.557448	0.000027
C50	C	2.006973	-0.537401	0.000027
C51	C	2.008537	-0.486978	0.000023
C52	C	1.470485	-0.466314	0.000027
C53	C	1.468933	-0.516737	0.000031
C54	C	1.602663	-0.547115	0.000031
C55	C	2.010836	0.071425	0.000009
C56	C	2.174573	0.073095	0.000012
C57	C	1.728274	0.162089	0.000020
C58	C	1.729961	0.215755	0.000028
N59	N	1.741002	0.073789	-0.129239
C60	C	1.842108	0.041355	-0.473869
C61	C	1.842143	0.041348	-0.682747
O62	O	1.928046	0.013773	-0.709755
N63	N	1.741094	0.073754	-0.708866
C64	C	1.640024	0.106163	-0.682762
O65	O	1.554067	0.133724	-0.709771
C66	C	1.639983	0.106168	-0.473886
C67	C	1.741048	0.073762	-0.447769
C68	C	1.943163	0.008952	-0.447753
C69	C	1.943158	0.008955	-0.395537
C70	C	1.842099	0.041363	-0.369437
C71	C	1.741043	0.073766	-0.395553
C72	C	1.538907	0.138574	-0.447783
C73	C	1.538903	0.138571	-0.395560
C74	C	1.639968	0.106166	-0.369444
C75	C	1.639979	0.106177	-0.317237
N76	N	1.741027	0.073770	-0.291118
C77	C	1.842087	0.041363	-0.317218
C78	C	1.640055	0.106159	-0.792426
C79	C	1.640066	0.106159	-0.844645
C80	C	1.842183	0.041342	-0.844626
C81	C	1.842178	0.041346	-0.792406
C82	C	1.741103	0.073752	-0.766307
C83	C	1.842071	0.041374	-0.207560
C84	C	1.842061	0.041382	-0.155339
C85	C	1.639940	0.106197	-0.155362
C86	C	1.639954	0.106190	-0.207579
C87	C	1.741025	0.073775	-0.233676
O88	O	1.554109	0.133734	-0.290197
O89	O	1.928009	0.013800	-0.290200
C90	C	1.842112	0.041351	-0.526086
C91	C	1.741057	0.073754	-0.552202
C92	C	1.639997	0.106162	-0.526102
C93	C	1.741068	0.073754	-0.604421
C94	C	1.842128	0.041347	-0.630521
C95	C	1.943176	0.008940	-0.604402
C96	C	1.943172	0.008944	-0.552186
C97	C	1.538949	0.138568	-0.552221
C98	C	1.538963	0.138562	-0.604437
C99	C	1.640022	0.106155	-0.630537
N100	N	1.741126	0.073752	0.129255
H101	H	1.996072	-0.082271	-0.000012
H102	H	1.557662	0.132584	-0.134103
H103	H	1.977009	-0.697456	0.000020
H104	H	2.025468	-0.017444	-0.530926
H105	H	1.456610	0.164961	-0.469039
H106	H	1.924472	0.014958	-0.771145
H107	H	1.456666	0.164955	-0.625697
H108	H	2.118716	-0.470663	0.000019
H109	H	2.115862	-0.562143	0.000025
H110	H	1.557745	0.132550	-0.771179
H111	H	1.456591	0.164960	-0.374313
H112	H	2.025458	-0.017441	-0.468999
H113	H	1.505120	-0.155005	-0.000010
H114	H	1.924473	0.014956	-0.865885
H115	H	2.025469	-0.017446	-0.625661
H116	H	1.456652	0.164958	-0.530974
H117	H	1.974157	-0.788940	0.000027
H118	H	1.993250	-0.173743	0.000004
H119	H	1.486052	-0.770182	0.000023
H120	H	1.924371	0.014978	-0.228803
H121	H	2.123406	-0.319395	0.000008
H122	H	1.488882	-0.678712	0.000031
H123	H	1.363415	-0.381774	0.000035
H124	H	1.366261	-0.290304	0.000033
H125	H	2.120569	-0.410862	0.000016
H126	H	1.557785	0.132552	-0.865905
H127	H	1.507969	-0.063519	-0.000005
H128	H	1.358743	-0.533052	0.000031
H129	H	1.557672	0.132583	-0.228843
H130	H	1.924366	0.014994	-0.134077
H131	H	2.025450	-0.017433	-0.374276
H132	H	1.361583	-0.441585	0.000028
