data_functionalizedCrystal
_audit_creation_method	'MofGen! by Chris Wilmer'
_symmetry_space_group_name_H-M	'P1'
_symmetry_Int_Tables_number	1
_symmetry_cell_setting	triclinic
loop_
_symmetry_equiv_pos_as_xyz
  x,y,z
_cell_length_a	10.723024
_cell_length_b	10.723024
_cell_length_c	9.798715
_cell_angle_alpha	89.997773
_cell_angle_beta	89.996597
_cell_angle_gamma	84.467869
loop_
_atom_site_label
_atom_site_type_symbol
_atom_site_fract_x
_atom_site_fract_y
_atom_site_fract_z
O1	O	-1.657187	-0.175025	0.113478
O2	O	-1.157187	0.324975	0.613478
O3	O	-1.294035	-0.191778	0.113483
O4	O	-0.794035	0.308222	0.613483
O5	O	-1.483988	-0.001825	0.113475
O6	O	-0.983988	0.498175	0.613475
O7	O	-1.467234	-0.364978	0.113486
O8	O	-0.967234	0.135022	0.613486
O9	O	-1.483974	-0.001824	-0.113507
O10	O	-0.983974	0.498176	0.386493
O11	O	-1.294021	-0.191777	-0.113499
O12	O	-0.794021	0.308223	0.386501
O13	O	-1.657173	-0.175024	-0.113504
O14	O	-1.157173	0.324976	0.386496
Zn15	Zn	-1.475595	-0.183400	-0.149540
Zn16	Zn	-0.975595	0.316600	0.350460
Zn17	Zn	-1.475613	-0.183402	0.149519
Zn18	Zn	-0.975613	0.316598	0.649519
O19	O	-1.467220	-0.364976	-0.113496
O20	O	-0.967220	0.135024	0.386504
C21	C	-1.247528	-0.190558	-0.000008
C22	C	-0.747528	0.309442	0.499992
C23	C	-1.108974	-0.186911	-0.000006
C24	C	-0.608974	0.313089	0.499994
C25	C	-1.482762	0.044675	-0.000014
C26	C	-0.982762	0.544675	0.499986
C27	C	-1.479114	0.183229	-0.000009
C28	C	-0.979114	0.683229	0.499991
C29	C	-1.703680	-0.176243	-0.000010
C30	C	-1.203680	0.323757	0.499990
C31	C	-1.842234	-0.179891	-0.000003
C32	C	-1.342234	0.320109	0.499997
C33	C	-1.033991	-0.293198	-0.000002
C34	C	-0.533991	0.206802	0.499998
C35	C	-0.890788	-0.289431	-0.000001
C36	C	-0.390788	0.210569	0.499999
C37	C	-1.468447	-0.411477	-0.000004
C38	C	-0.968447	0.088523	0.499996
C39	C	-1.472094	-0.550031	0.000000
C40	C	-0.972094	-0.050031	0.500000
N41	N	-1.475591	-0.183398	-0.353640
N42	N	-0.975591	0.316602	0.146360
C43	C	-1.585401	0.258212	-0.000009
C44	C	-1.085401	0.758212	0.499991
C45	C	-1.581634	0.401415	-0.000004
C46	C	-1.081634	0.901415	0.499996
C47	C	-1.548356	-0.255759	-0.421416
C48	C	-1.048356	0.244241	0.078584
C49	C	-1.548376	-0.255758	-0.578579
C50	C	-1.048376	0.244242	-0.078579
N51	N	-1.475627	-0.183394	0.353619
N52	N	-0.975627	0.316606	0.853619
H53	H	-1.075814	-0.386984	-0.000007
H54	H	-0.575814	0.113016	0.499993
H55	H	-0.826355	-0.380421	0.000008
H56	H	-0.326355	0.119579	0.500008
H57	H	-1.610666	-0.317716	-0.636865
H58	H	-1.110666	0.182284	-0.136865
F59	F	-1.394187	-0.102420	-0.570211
F60	F	-0.894187	0.397580	-0.070211
H61	H	-1.679187	0.216390	-0.000018
H62	H	-1.179187	0.716390	0.499982
H63	H	-1.672624	0.465848	-0.000009
H64	H	-1.172624	0.965848	0.499991
H65	H	-1.610643	-0.317706	-0.363090
H66	H	-1.110643	0.182294	0.136910
H67	H	-1.413312	-0.121443	-0.411966
H68	H	-0.913312	0.378557	0.088034
H69	H	-1.381099	0.385544	-0.000010
H70	H	-0.881099	0.885544	0.499990
H71	H	-0.906659	-0.088896	0.000002
H72	H	-0.406659	0.411104	0.500002
F73	F	-1.356524	0.237887	0.000005
F74	F	-0.856524	0.737887	0.500005
F75	F	-1.054316	-0.064321	-0.000019
F76	F	-0.554316	0.435679	0.499981
