data_functionalizedCrystal
_audit_creation_method	'MofGen! by Chris Wilmer'
_symmetry_space_group_name_H-M	'P1'
_symmetry_Int_Tables_number	1
_symmetry_cell_setting	triclinic
loop_
_symmetry_equiv_pos_as_xyz
  x,y,z
_cell_length_a	10.723024
_cell_length_b	14.519709
_cell_length_c	13.596369
_cell_angle_alpha	90.006934
_cell_angle_beta	90.005008
_cell_angle_gamma	84.074007
loop_
_atom_site_label
_atom_site_type_symbol
_atom_site_fract_x
_atom_site_fract_y
_atom_site_fract_z
O1	O	1.655980	0.129351	0.081787
O2	O	2.155980	0.629351	0.581787
O3	O	1.292712	0.141732	0.081791
O4	O	1.792712	0.641732	0.581791
O5	O	1.483978	0.001352	0.081780
O6	O	1.983978	0.501352	0.581780
O7	O	1.464715	0.269731	0.081798
O8	O	1.964715	0.769731	0.581798
O9	O	1.483959	0.001345	-0.081803
O10	O	1.983959	0.501345	0.418197
O11	O	1.292693	0.141724	-0.081792
O12	O	1.792693	0.641724	0.418208
O13	O	1.655961	0.129343	-0.081796
O14	O	2.155961	0.629343	0.418204
Zn15	Zn	1.474324	0.135533	-0.107766
Zn16	Zn	1.974324	0.635533	0.392234
Zn17	Zn	1.474349	0.135543	0.107761
Zn18	Zn	1.974349	0.635543	0.607761
O19	O	1.464695	0.269723	-0.081785
O20	O	1.964695	0.769723	0.418215
C21	C	1.246211	0.140827	-0.000000
C22	C	1.746211	0.640827	0.500000
C23	C	1.107682	0.138132	0.000001
C24	C	1.607682	0.638132	0.500001
C25	C	1.031965	0.216681	0.000007
C26	C	1.531965	0.716681	0.500007
C27	C	0.888788	0.213896	0.000008
C28	C	1.388788	0.713896	0.500008
C29	C	1.483070	-0.033016	-0.000011
C30	C	1.983070	0.466984	0.499989
C31	C	1.480380	-0.135411	-0.000012
C32	C	1.980380	0.364589	0.499988
C33	C	1.470476	-0.510357	0.000014
C34	C	1.970476	-0.010357	0.500014
C35	C	1.473227	-0.406035	0.000006
C36	C	1.973227	0.093965	0.500006
C37	C	1.475428	-0.322887	-0.000000
C38	C	1.975428	0.177113	0.500000
C39	C	1.478179	-0.218559	-0.000006
C40	C	1.978179	0.281441	0.499994
C41	C	1.702462	0.130248	-0.000002
C42	C	2.202462	0.630248	0.499998
C43	C	1.840991	0.132944	0.000003
C44	C	2.340991	0.632944	0.500003
C45	C	1.465603	0.304091	0.000009
C46	C	1.965603	0.804091	0.500009
C47	C	1.468293	0.406486	0.000016
C48	C	1.968293	0.906486	0.500016
N49	N	1.474316	0.135525	-0.254858
N50	N	1.974316	0.635525	0.245142
C51	C	1.474347	0.135544	-0.656149
C52	C	1.974347	0.635544	-0.156149
C53	C	1.474335	0.135542	-0.544497
C54	C	1.974335	0.635542	-0.044497
C55	C	1.474332	0.135535	-0.455507
C56	C	1.974332	0.635535	0.044493
C57	C	1.474319	0.135532	-0.343848
C58	C	1.974319	0.635532	0.156152
N59	N	1.474367	0.135543	0.254853
N60	N	1.974367	0.635543	0.754853
H61	H	1.073139	0.285991	0.000006
H62	H	1.573139	0.785991	0.500006
H63	H	0.906045	0.065696	0.000004
H64	H	1.406045	0.565696	0.500004
Br65	Br	0.780355	0.325982	0.000028
Br66	Br	1.280355	0.825982	0.500028
Br67	Br	1.039071	0.022603	-0.000018
Br68	Br	1.539071	0.522603	0.499982
