data_functionalizedCrystal
_audit_creation_method	'MofGen! by Chris Wilmer'
_symmetry_space_group_name_H-M	'P1'
_symmetry_Int_Tables_number	1
_symmetry_cell_setting	triclinic
loop_
_symmetry_equiv_pos_as_xyz
  x,y,z
_cell_length_a	9.065215
_cell_length_b	10.489741
_cell_length_c	8.140239
_cell_angle_alpha	89.996756
_cell_angle_beta	89.997810
_cell_angle_gamma	84.776936
loop_
_atom_site_label
_atom_site_type_symbol
_atom_site_fract_x
_atom_site_fract_y
_atom_site_fract_z
O1	O	1.959497	0.187025	-0.136594
O2	O	1.530137	0.202371	-0.136601
O3	O	1.754587	0.009135	-0.136587
O4	O	1.735047	0.380261	-0.136607
O5	O	1.754574	0.009133	0.136640
O6	O	1.530125	0.202369	0.136626
O7	O	1.959484	0.187023	0.136634
Zn8	Zn	1.744802	0.194695	0.180011
Zn9	Zn	1.744819	0.194699	-0.179978
O10	O	1.735034	0.380258	0.136620
C11	C	1.475151	0.200896	0.000012
C12	C	1.311330	0.196489	0.000009
C13	C	1.753105	-0.038403	0.000025
C14	C	1.748689	-0.180048	0.000022
C15	C	1.605879	-0.248703	0.000008
C16	C	1.673335	-0.340583	0.134724
C17	C	1.673381	-0.340555	-0.134656
C18	C	1.816205	-0.270063	0.134850
C19	C	1.816231	-0.270026	-0.134652
C20	C	1.883791	-0.361879	0.000097
C21	C	2.014470	0.188498	0.000017
C22	C	2.178292	0.192905	0.000009
C23	C	1.736517	0.427797	0.000004
C24	C	1.740932	0.569442	-0.000004
N25	N	1.744802	0.194693	0.425693
N26	N	1.744831	0.194691	-0.425660
H27	H	1.612903	-0.371813	0.248615
C28	C	2.064273	-0.503686	-0.140968
C29	C	2.042458	-0.427996	0.000154
H30	H	2.162235	-0.544486	-0.140939
H31	H	1.995371	-0.566691	-0.141896
H32	H	2.050031	-0.451205	-0.235779
H33	H	2.056689	-0.480479	0.094966
H34	H	2.111381	-0.364983	0.001097
C35	C	1.901032	-0.094971	0.287436
C36	C	1.897693	-0.228160	0.288782
H37	H	1.951328	-0.069102	0.382474
H38	H	1.951431	-0.070264	0.191905
H39	H	1.802596	-0.055222	0.287046
H40	H	1.996129	-0.267909	0.289160
H41	H	1.847296	-0.252880	0.384339
C42	C	1.345496	-0.274873	0.001739
C43	C	1.447373	-0.182240	0.000185
H44	H	1.247646	-0.233839	0.001865
H45	H	1.359495	-0.327364	-0.093064
H46	H	1.360242	-0.326225	0.097489
H47	H	1.432634	-0.130893	-0.095572
H48	H	1.433368	-0.129727	0.094998
C49	C	1.802465	-0.142748	-0.380247
C50	C	1.897742	-0.227803	-0.288401
H51	H	1.852785	-0.116674	-0.475168
H52	H	1.718083	-0.184016	-0.412584
H53	H	1.771934	-0.069858	-0.315279
H54	H	1.928265	-0.300697	-0.353365
H55	H	1.982152	-0.186535	-0.256066
H56	H	1.612942	-0.371736	-0.248559
