data_functionalizedCrystal
_audit_creation_method	'MofGen! by Chris Wilmer'
_symmetry_space_group_name_H-M	'P1'
_symmetry_Int_Tables_number	1
_symmetry_cell_setting	triclinic
loop_
_symmetry_equiv_pos_as_xyz
  x,y,z
_cell_length_a	12.811438
_cell_length_b	15.944551
_cell_length_c	11.295483
_cell_angle_alpha	94.094426
_cell_angle_beta	80.460799
_cell_angle_gamma	83.772108
loop_
_atom_site_label
_atom_site_type_symbol
_atom_site_fract_x
_atom_site_fract_y
_atom_site_fract_z
O1	O	1.410630	0.098844	-0.251351
O2	O	1.102672	0.113037	-0.218100
O3	O	1.265060	-0.016357	-0.235623
O4	O	1.248243	0.228237	-0.233828
O5	O	1.250797	-0.005009	-0.036033
O6	O	1.088410	0.124384	-0.018510
O7	O	1.396368	0.110191	-0.051762
Cu8	Cu	1.241086	0.118324	-0.016912
Cu9	Cu	1.257954	0.104904	-0.252950
O10	O	1.233980	0.239585	-0.034239
C11	C	1.056133	0.118263	-0.114050
C12	C	0.938709	0.116919	-0.101371
C13	C	1.257231	-0.041975	-0.135752
C14	C	1.255137	-0.135215	-0.135526
C15	C	0.765432	0.121211	0.025289
C16	C	0.875762	0.122474	0.013382
C17	C	0.891320	0.110103	-0.204223
C18	C	0.780991	0.108840	-0.192315
C19	C	0.718051	0.114393	-0.077555
C20	C	0.607721	0.113124	-0.065649
C21	C	0.623280	0.100759	-0.283253
C22	C	0.733609	0.102022	-0.295160
C23	C	1.149479	-0.349786	-0.124134
C24	C	1.191511	-0.405342	-0.031022
C25	C	1.251351	-0.305931	-0.135126
C26	C	1.205597	-0.416513	-0.227804
C27	C	1.247686	-0.470835	-0.134744
C28	C	1.293405	-0.360254	-0.041936
C29	C	1.307484	-0.371424	-0.238805
C30	C	1.349588	-0.426961	-0.145677
C31	C	1.253459	-0.210934	-0.135345
C32	C	1.245586	-0.565830	-0.134518
C33	C	1.442907	0.104965	-0.155814
C34	C	1.560331	0.106308	-0.168501
C35	C	1.241810	0.265203	-0.134112
C36	C	1.243904	0.358443	-0.134346
N37	N	1.229230	0.127762	0.149104
N38	N	1.269818	0.095459	-0.418966
C39	C	1.355164	0.027471	0.384804
C40	C	1.346212	0.034610	0.510434
C41	C	1.202369	0.149173	0.525996
C42	C	1.211322	0.142034	0.400366
C43	C	1.287722	0.081183	0.329774
C44	C	1.296679	0.074049	0.204142
C45	C	1.152832	0.188607	0.219706
C46	C	1.143880	0.195745	0.345336
H47	H	0.714185	0.125738	0.118731
H48	H	1.417380	-0.022071	0.327326
H49	H	0.914335	0.128029	0.097129
H50	H	1.401128	-0.009128	0.555235
O51	O	0.952369	0.104604	-0.315760
C52	C	0.942151	0.027794	-0.380335
H53	H	0.863833	0.004373	-0.341187
H54	H	0.942793	0.038462	-0.479166
H55	H	1.011563	-0.021562	-0.372870
H56	H	0.784869	0.097505	-0.388594
H57	H	0.584690	0.095210	-0.366996
O58	O	1.128104	0.208166	0.594723
C59	C	1.057660	0.167443	0.674427
H60	H	1.098448	0.102686	0.688670
H61	H	1.034638	0.207548	0.764589
H62	H	0.982934	0.159166	0.634474
H63	H	1.081673	0.245288	0.402826
H64	H	1.064913	-0.316243	-0.114905
O65	O	1.132856	-0.423502	0.073712
C66	C	1.027423	-0.383814	0.084767
H67	H	1.009718	-0.370946	-0.008347
H68	H	0.969581	-0.427000	0.127900
H69	H	1.017714	-0.321407	0.143688
H70	H	1.330505	-0.335645	0.036705
H71	H	1.358891	0.024502	0.146666
H72	H	1.434217	-0.460346	-0.154760
O73	O	1.365791	-0.353213	-0.343712
C74	C	1.319219	-0.381809	-0.441441
H75	H	1.231298	-0.386999	-0.408552
H76	H	1.326907	-0.334949	-0.513131
H77	H	1.361792	-0.446599	-0.481665
O78	O	1.087414	0.240907	0.166297
C79	C	1.102413	0.325761	0.195165
H80	H	1.184637	0.327936	0.220536
H81	H	1.096139	0.363256	0.113866
H82	H	1.038592	0.354705	0.274435
O83	O	0.546707	0.118413	0.045885
C84	C	0.580893	0.049743	0.107871
H85	H	0.667203	0.024652	0.067858
H86	H	0.574861	0.071806	0.207284
H87	H	0.528261	-0.002756	0.098595
O88	O	1.161128	-0.445863	-0.321457
C89	C	1.055631	-0.406160	-0.309675
H90	H	1.046444	-0.343472	-0.251515
H91	H	1.037115	-0.393822	-0.402641
H92	H	0.998026	-0.449078	-0.265344
