data_functionalizedCrystal
_audit_creation_method	'MofGen! by Chris Wilmer'
_symmetry_space_group_name_H-M	'P1'
_symmetry_Int_Tables_number	1
_symmetry_cell_setting	triclinic
loop_
_symmetry_equiv_pos_as_xyz
  x,y,z
_cell_length_a	16.109301
_cell_length_b	9.730223
_cell_length_c	16.109301
_cell_angle_alpha	90.002753
_cell_angle_beta	83.461481
_cell_angle_gamma	89.997484
loop_
_atom_site_label
_atom_site_type_symbol
_atom_site_fract_x
_atom_site_fract_y
_atom_site_fract_z
O1	O	1.103127	0.114207	0.106864
O2	O	1.603127	0.614207	0.606864
O3	O	0.861065	0.114230	0.120163
O4	O	1.361065	0.614230	0.620163
O5	O	0.988746	0.114204	-0.007518
O6	O	1.488746	0.614204	0.492482
O7	O	0.975446	0.114233	0.234544
O8	O	1.475446	0.614233	0.734544
O9	O	0.988744	-0.114376	-0.007515
O10	O	1.488744	0.385624	0.492485
O11	O	0.861064	-0.114350	0.120166
O12	O	1.361064	0.385650	0.620166
O13	O	1.103126	-0.114373	0.106867
O14	O	1.603126	0.385627	0.606867
Zn15	Zn	0.982094	-0.150653	0.113517
Zn16	Zn	1.482094	0.349347	0.613517
Zn17	Zn	0.982096	0.150511	0.113513
Zn18	Zn	1.482096	0.650511	0.613513
O19	O	0.975445	-0.114347	0.234547
O20	O	1.475445	0.385653	0.734547
C21	C	0.830090	-0.000057	0.119626
C22	C	1.330090	0.499943	0.619626
C23	C	0.737794	-0.000049	0.118011
C24	C	1.237794	0.499951	0.618011
N25	N	0.982099	-0.356190	0.113519
N26	N	1.482099	0.143810	0.613519
C27	C	0.515522	-0.000057	0.190018
C28	C	1.015522	0.499943	0.690018
C29	C	0.428801	-0.000066	0.188494
C30	C	0.928801	0.499934	0.688494
C31	C	0.448676	-0.000078	0.037006
C32	C	0.948676	0.499922	0.537006
C33	C	0.535394	-0.000079	0.038530
C34	C	1.035394	0.499921	0.538530
C35	C	0.568815	-0.000061	0.115039
C36	C	1.068815	0.499939	0.615039
C37	C	0.395376	-0.000069	0.111990
C38	C	0.895376	0.499931	0.611990
C39	C	0.301350	-0.000079	0.110337
C40	C	0.801350	0.499921	0.610337
C41	C	0.662847	-0.000054	0.116693
C42	C	1.162847	0.499946	0.616693
C43	C	1.038650	-0.428127	0.057001
C44	C	1.538650	0.071873	0.557001
C45	C	1.038648	-0.572010	0.056991
C46	C	1.538648	-0.072010	0.556991
C47	C	0.925541	-0.572006	0.170024
C48	C	1.425541	-0.072006	0.670024
C49	C	0.925540	-0.428125	0.170030
C50	C	1.425540	0.071875	0.670030
C51	C	1.095210	-0.356192	0.000491
C52	C	1.595210	0.143808	0.500491
C53	C	1.151767	-0.428129	-0.056031
C54	C	1.651767	0.071871	0.443969
C55	C	1.151764	-0.572012	-0.056041
C56	C	1.651764	-0.072012	0.443959
C57	C	1.095206	-0.643958	0.000471
C58	C	1.595206	-0.143958	0.500471
C59	C	1.134101	-0.000082	0.107404
C60	C	1.634101	0.499918	0.607404
C61	C	1.226397	-0.000081	0.109019
C62	C	1.726397	0.499919	0.609019
C63	C	0.988206	-0.000087	-0.038491
C64	C	1.488206	0.499913	0.461509
C65	C	0.986591	-0.000088	-0.130786
C66	C	1.486591	0.499912	0.369214
N67	N	0.982098	0.356047	0.113504
N68	N	1.482098	0.856047	0.613504
C69	C	1.058599	-0.000073	-0.353059
C70	C	1.558599	0.499927	0.146941
C71	C	1.057075	-0.000062	-0.439779
C72	C	1.557075	0.499938	0.060221
C73	C	0.905586	-0.000053	-0.419905
C74	C	1.405586	0.499947	0.080095
C75	C	0.907111	-0.000055	-0.333186
C76	C	1.407111	0.499945	0.166814
C77	C	0.983620	-0.000072	-0.299766
C78	C	1.483620	0.499928	0.200234
C79	C	0.980571	-0.000059	-0.473205
C80	C	1.480571	0.499941	0.026795
C81	C	0.978918	-0.000046	-0.567231
C82	C	1.478918	0.499954	-0.067231
C83	C	0.985273	-0.000082	-0.205734
C84	C	1.485273	0.499918	0.294266
C85	C	0.975984	-0.000053	0.265521
C86	C	1.475984	0.499947	0.765521
C87	C	0.977600	-0.000042	0.357816
C88	C	1.477600	0.499958	0.857816
H89	H	0.542730	-0.000053	0.252317
H90	H	1.042730	0.499947	0.752317
H91	H	1.095218	-0.239035	0.000495
H92	H	1.595218	0.260965	0.500495
H93	H	0.578788	-0.000087	-0.022530
H94	H	1.078788	0.499913	0.477470
C95	C	1.213979	-0.348996	-0.118185
C96	C	1.713979	0.151004	0.381815
H97	H	1.205889	-0.253003	-0.110080
H98	H	1.705889	0.246997	0.389920
H99	H	1.204977	-0.372564	-0.173682
H100	H	1.704977	0.127436	0.326318
H101	H	1.269460	-0.372591	-0.109126
H102	H	1.769460	0.127409	0.390874
H103	H	0.846050	-0.000050	-0.289792
H104	H	1.346050	0.499950	0.210208
C105	C	1.213971	-0.651141	-0.118212
C106	C	1.713971	-0.151141	0.381788
H107	H	1.247657	-0.587687	-0.151861
H108	H	1.747657	-0.087687	0.348139
H109	H	1.184081	-0.707265	-0.152838
H110	H	1.684081	-0.207265	0.347162
H111	H	1.248569	-0.707271	-0.088287
H112	H	1.748569	-0.207271	0.411713
H113	H	1.120897	-0.000084	-0.325851
H114	H	1.620897	0.499916	0.174149
H115	H	0.879494	-0.630593	0.216035
H116	H	1.379494	-0.130593	0.716035
C117	C	1.095198	-0.802226	0.000459
C118	C	1.595198	-0.302226	0.500459
H119	H	1.053414	-0.834766	0.042207
H120	H	1.553414	-0.334766	0.542207
H121	H	1.148328	-0.834787	0.011851
H122	H	1.648328	-0.334787	0.511851
H123	H	1.083830	-0.834763	-0.052690
H124	H	1.583830	-0.334763	0.447310
C125	C	0.370182	-0.000051	0.270971
C126	C	0.870182	0.499949	0.770971
H127	H	0.402510	-0.000030	0.316752
H128	H	0.902510	0.499970	0.816752
H129	H	0.335942	-0.079761	0.273530
H130	H	0.835942	0.420239	0.773530
H131	H	0.335940	0.079671	0.273522
H132	H	0.835940	0.579671	0.773522
H133	H	1.118130	-0.000060	-0.483168
H134	H	1.618130	0.499940	0.016832
C135	C	0.863339	-0.348989	0.232202
C136	C	1.363339	0.151011	0.732202
H137	H	0.829663	-0.412435	0.265866
H138	H	1.329663	0.087565	0.765866
H139	H	0.828743	-0.292855	0.202285
H140	H	1.328743	0.207145	0.702285
H141	H	0.893241	-0.292867	0.266825
H142	H	1.393241	0.207133	0.766825
H143	H	0.421454	-0.000101	-0.025285
H144	H	0.921454	0.499899	0.474715
C145	C	0.821433	-0.000054	-0.456671
C146	C	1.321433	0.499946	0.043329
H147	H	0.831262	-0.000068	-0.515950
H148	H	1.331262	0.499932	-0.015950
H149	H	0.790557	0.079655	-0.438375
H150	H	1.290557	0.579655	0.061625
H151	H	0.790568	-0.079777	-0.438377
H152	H	1.290568	0.420223	0.061623
