data_functionalizedCrystal
_audit_creation_method	'MofGen! by Chris Wilmer'
_symmetry_space_group_name_H-M	'P1'
_symmetry_Int_Tables_number	1
_symmetry_cell_setting	triclinic
loop_
_symmetry_equiv_pos_as_xyz
  x,y,z
_cell_length_a	21.395364
_cell_length_b	18.050590
_cell_length_c	21.395356
_cell_angle_alpha	90.027706
_cell_angle_beta	90.016491
_cell_angle_gamma	90.033504
loop_
_atom_site_label
_atom_site_type_symbol
_atom_site_fract_x
_atom_site_fract_y
_atom_site_fract_z
Zn1	Zn	0.957862	-0.295378	0.354264
Zn2	Zn	1.207862	-0.045378	0.604264
Zn3	Zn	1.457862	0.204622	0.854264
Zn4	Zn	1.707862	0.454622	1.104264
Zn5	Zn	0.957802	-0.419571	0.249487
Zn6	Zn	1.207802	-0.169571	0.499487
Zn7	Zn	1.457802	0.080429	0.749487
Zn8	Zn	1.707802	0.330429	0.999487
Zn9	Zn	0.853092	-0.295432	0.249500
Zn10	Zn	1.103092	-0.045432	0.499500
Zn11	Zn	1.353092	0.204568	0.749500
Zn12	Zn	1.603092	0.454568	0.999500
Zn13	Zn	0.853069	-0.419563	0.354227
Zn14	Zn	1.103069	-0.169563	0.604227
Zn15	Zn	1.353069	0.080437	0.854227
Zn16	Zn	1.603069	0.330437	1.104227
O17	O	0.905456	-0.357486	0.301870
O18	O	1.155456	-0.107486	0.551870
O19	O	1.405456	0.142514	0.801870
O20	O	1.655456	0.392514	1.051870
O21	O	1.045532	-0.311834	0.340374
O22	O	1.295532	-0.061834	0.590374
O23	O	1.545532	0.188166	0.840374
O24	O	1.795532	0.438166	1.090374
O25	O	0.943896	-0.403129	0.161811
O26	O	1.193896	-0.153129	0.411811
O27	O	1.443896	0.096871	0.661811
O28	O	1.693896	0.346871	0.911811
O29	O	0.867025	-0.191500	0.263418
O30	O	1.117025	0.058500	0.513418
O31	O	1.367025	0.308500	0.763418
O32	O	1.617025	0.558500	1.013418
O33	O	1.045488	-0.403077	0.263396
O34	O	1.295488	-0.153077	0.513396
O35	O	1.545488	0.096923	0.763396
O36	O	1.795488	0.346923	1.013396
O37	O	0.943999	-0.191461	0.340387
O38	O	1.193999	0.058539	0.590387
O39	O	1.443999	0.308539	0.840387
O40	O	1.693999	0.558539	1.090387
O41	O	0.866966	-0.311925	0.161821
O42	O	1.116966	-0.061925	0.411821
O43	O	1.366966	0.188075	0.661821
O44	O	1.616966	0.438075	0.911821
O45	O	0.765411	-0.311917	0.263383
O46	O	1.015411	-0.061917	0.513383
O47	O	1.265411	0.188083	0.763383
O48	O	1.515411	0.438083	1.013383
O49	O	0.866985	-0.403064	0.441910
O50	O	1.116985	-0.153064	0.691910
O51	O	1.366985	0.096936	0.941910
O52	O	1.616985	0.346936	1.191910
O53	O	0.765394	-0.403116	0.340325
O54	O	1.015394	-0.153116	0.590325
O55	O	1.265394	0.096884	0.840325
O56	O	1.515394	0.346884	1.090325
O57	O	0.943977	-0.311826	0.441937
O58	O	1.193977	-0.061826	0.691937
O59	O	1.443977	0.188174	0.941937
O60	O	1.693977	0.438174	1.191937
O61	O	0.943874	-0.523495	0.263360
O62	O	1.193874	-0.273495	0.513360
O63	O	1.443874	-0.023495	0.763360
O64	O	1.693874	0.226505	1.013360
O65	O	0.866927	-0.523489	0.340312
O66	O	1.116927	-0.273489	0.590312
O67	O	1.366927	-0.023489	0.840312
O68	O	1.616927	0.226511	1.090312
C69	C	0.742669	-0.357522	0.301852
C70	C	0.992669	-0.107522	0.551852
C71	C	1.242669	0.142478	0.801852
C72	C	1.492669	0.392478	1.051852
C73	C	0.673027	-0.357556	0.301859
C74	C	0.923027	-0.107556	0.551859
C75	C	1.173027	0.142444	0.801859
C76	C	1.423027	0.392444	1.051859
C77	C	0.640360	-0.310123	0.342004
C78	C	0.890360	-0.060123	0.592004
C79	C	1.140360	0.189877	0.842004
C80	C	1.390360	0.439877	1.092004
C81	C	0.574924	-0.310103	0.342007
C82	C	0.824924	-0.060103	0.592007
C83	C	1.074924	0.189897	0.842007
C84	C	1.324924	0.439897	1.092007
C85	C	0.542159	-0.357529	0.301871
C86	C	0.792159	-0.107529	0.551871
C87	C	1.042159	0.142471	0.801871
C88	C	1.292159	0.392471	1.051871
C89	C	0.574834	-0.404966	0.261718
C90	C	0.824834	-0.154966	0.511718
C91	C	1.074834	0.095034	0.761718
C92	C	1.324834	0.345034	1.011718
C93	C	0.640269	-0.404979	0.261712
C94	C	0.890269	-0.154979	0.511712
C95	C	1.140269	0.095021	0.761712
C96	C	1.390269	0.345021	1.011712
C97	C	0.438447	-0.424411	0.296834
C98	C	0.688447	-0.174411	0.546834
C99	C	0.938447	0.075589	0.796834
C100	C	1.188447	0.325589	1.046834
C101	C	0.373014	-0.424399	0.296844
C102	C	0.623014	-0.174399	0.546844
C103	C	0.873014	0.075601	0.796844
C104	C	1.123014	0.325601	1.046844
C105	C	0.340338	-0.357489	0.301885
C106	C	0.590338	-0.107489	0.551885
C107	C	0.840338	0.142511	0.801885
C108	C	1.090338	0.392511	1.051885
C109	C	0.373103	-0.290588	0.306929
C110	C	0.623103	-0.040588	0.556929
C111	C	0.873103	0.209412	0.806929
C112	C	1.123103	0.459412	1.056929
C113	C	0.438537	-0.290601	0.306923
C114	C	0.688537	-0.040601	0.556923
C115	C	0.938537	0.209399	0.806923
C116	C	1.188537	0.459399	1.056923
C117	C	0.471207	-0.357520	0.301872
C118	C	0.721207	-0.107520	0.551872
C119	C	0.971207	0.142480	0.801872
C120	C	1.221207	0.392480	1.051872
C121	C	0.236718	-0.310030	0.342034
C122	C	0.486718	-0.060030	0.592034
C123	C	0.736718	0.189970	0.842034
C124	C	0.986718	0.439970	1.092034
C125	C	0.171282	-0.310009	0.342032
C126	C	0.421282	-0.060009	0.592032
C127	C	0.671282	0.189991	0.842032
C128	C	0.921282	0.439991	1.092032
C129	C	0.171193	-0.404878	0.261747
C130	C	0.421193	-0.154878	0.511747
C131	C	0.671193	0.095122	0.761747
C132	C	0.921193	0.345122	1.011747
C133	C	0.236628	-0.404893	0.261746
C134	C	0.486628	-0.154893	0.511746
C135	C	0.736628	0.095107	0.761746
C136	C	0.986628	0.345107	1.011746
C137	C	0.269387	-0.357470	0.301893
C138	C	0.519387	-0.107470	0.551893
C139	C	0.769387	0.142530	0.801893
C140	C	1.019387	0.392530	1.051893
C141	C	0.905408	-0.550438	0.301845
C142	C	1.155408	-0.300438	0.551845
C143	C	1.405408	-0.050438	0.801845
C144	C	1.655408	0.199562	1.051845
C145	C	0.905445	-0.632984	0.301855
C146	C	1.155445	-0.382984	0.551855
C147	C	1.405445	-0.132984	0.801855
C148	C	1.655445	0.117016	1.051855
C149	C	0.947376	-0.832411	0.260067
C150	C	1.197376	-0.582411	0.510067
C151	C	1.447376	-0.332411	0.760067
C152	C	1.697376	-0.082411	1.010067
C153	C	0.962677	-0.881739	0.317251
C154	C	1.212677	-0.631739	0.567251
C155	C	1.462677	-0.381739	0.817251
C156	C	1.712677	-0.131739	1.067251
C157	C	0.905480	-0.784114	0.301880
C158	C	1.155480	-0.534114	0.551880
C159	C	1.405480	-0.284114	0.801880
C160	C	1.655480	-0.034114	1.051880
C161	C	0.890242	-0.881867	0.244722
C162	C	1.140242	-0.631867	0.494722
C163	C	1.390242	-0.381867	0.744722
C164	C	1.640242	-0.131867	0.994722
C165	C	0.905516	-0.930099	0.301899
C166	C	1.155516	-0.680099	0.551899
C167	C	1.405516	-0.430099	0.801899
C168	C	1.655516	-0.180099	1.051899
C169	C	0.920812	-0.832356	0.359094
C170	C	1.170812	-0.582356	0.609094
C171	C	1.420812	-0.332356	0.859094
C172	C	1.670812	-0.082356	1.109094
C173	C	0.848350	-0.832479	0.286526
C174	C	1.098350	-0.582479	0.536526
C175	C	1.348350	-0.332479	0.786526
C176	C	1.598350	-0.082479	1.036526
C177	C	0.863630	-0.881786	0.343750
C178	C	1.113630	-0.631786	0.593750
C179	C	1.363630	-0.381786	0.843750
C180	C	1.613630	-0.131786	1.093750
C181	C	0.905461	-0.700016	0.301868
C182	C	1.155461	-0.450016	0.551868
C183	C	1.405461	-0.200016	0.801868
C184	C	1.655461	0.049984	1.051868
C185	C	0.905535	-1.014196	0.301917
C186	C	1.155535	-0.764196	0.551917
C187	C	1.405535	-0.514196	0.801917
C188	C	1.655535	-0.264196	1.051917
C189	C	1.068879	-0.357450	0.301888
C190	C	1.318879	-0.107450	0.551888
C191	C	1.568879	0.142550	0.801888
C192	C	1.818879	0.392550	1.051888
C193	C	1.138521	-0.357435	0.301895
C194	C	1.388521	-0.107435	0.551895
C195	C	1.638521	0.142565	0.801895
C196	C	1.888521	0.392565	1.051895
C197	C	0.905485	-0.357438	0.465293
C198	C	1.155485	-0.107438	0.715293
C199	C	1.405485	0.142562	0.965293
C200	C	1.655485	0.392562	1.215293
C201	C	0.905498	-0.357418	0.534934
C202	C	1.155498	-0.107418	0.784934
C203	C	1.405498	0.142582	1.034934
C204	C	1.655498	0.392582	1.284934
C205	C	0.905522	-0.163781	0.301908
C206	C	1.155522	0.086219	0.551908
C207	C	1.405522	0.336219	0.801908
C208	C	1.655522	0.586219	1.051908
C209	C	0.905549	-0.081235	0.301925
C210	C	1.155549	0.168765	0.551925
C211	C	1.405549	0.418765	0.801925
C212	C	1.655549	0.668765	1.051925
C213	C	0.905463	-0.357480	0.139082
C214	C	1.155463	-0.107480	0.389082
C215	C	1.405463	0.142520	0.639082
C216	C	1.655463	0.392520	0.889082
C217	C	0.905572	-0.357291	0.069441
C218	C	1.155572	-0.107291	0.319441
C219	C	1.405572	0.142709	0.569441
C220	C	1.655572	0.392709	0.819441
C221	C	0.945646	-0.309792	1.036745
C222	C	1.195646	-0.059792	1.286745
C223	C	1.445646	0.190208	1.536745
C224	C	1.695646	0.440208	1.786745
C225	C	0.945641	-0.309810	0.971310
C226	C	1.195641	-0.059810	1.221310
C227	C	1.445641	0.190190	1.471310
C228	C	1.695641	0.440190	1.721310
C229	C	0.905551	-0.357319	0.938573
C230	C	1.155551	-0.107319	1.188573
C231	C	1.405551	0.142681	1.438573
C232	C	1.655551	0.392681	1.688573
C233	C	0.865475	-0.404828	0.971276
C234	C	1.115475	-0.154828	1.221276
C235	C	1.365475	0.095172	1.471276
C236	C	1.615475	0.345172	1.721276
C237	C	0.865485	-0.404814	1.036710
C238	C	1.115485	-0.154814	1.286710
C239	C	1.365485	0.095186	1.536710
C240	C	1.615485	0.345186	1.786710
C241	C	0.849083	-0.363218	0.834897
C242	C	1.099083	-0.113218	1.084897
C243	C	1.349083	0.136782	1.334897
C244	C	1.599083	0.386782	1.584897
C245	C	0.849072	-0.363227	0.769464
C246	C	1.099072	-0.113227	1.019464
C247	C	1.349072	0.136773	1.269464
C248	C	1.599072	0.386773	1.519464
C249	C	0.905519	-0.357367	0.736752
C250	C	1.155519	-0.107367	0.986752
C251	C	1.405519	0.142633	1.236752
C252	C	1.655519	0.392633	1.486752
C253	C	0.961980	-0.351482	0.769481
C254	C	1.211980	-0.101482	1.019481
C255	C	1.461980	0.148518	1.269481
C256	C	1.711980	0.398518	1.519481
C257	C	0.961990	-0.351468	0.834915
C258	C	1.211990	-0.101468	1.084915
C259	C	1.461990	0.148532	1.334915
C260	C	1.711990	0.398532	1.584915
C261	C	0.905536	-0.357340	0.867620
C262	C	1.155536	-0.107340	1.117620
C263	C	1.405536	0.142660	1.367620
C264	C	1.655536	0.392660	1.617620
C265	C	0.945591	-0.309884	0.633104
C266	C	1.195591	-0.059884	0.883104
C267	C	1.445591	0.190116	1.133104
C268	C	1.695591	0.440116	1.383104
C269	C	0.945587	-0.309907	0.567667
C270	C	1.195587	-0.059907	0.817667
C271	C	1.445587	0.190093	1.067667
C272	C	1.695587	0.440093	1.317667
C273	C	0.865415	-0.404921	0.567634
C274	C	1.115415	-0.154921	0.817634
C275	C	1.365415	0.095079	1.067634
C276	C	1.615415	0.345079	1.317634
C277	C	0.865425	-0.404902	0.633070
C278	C	1.115425	-0.154902	0.883070
C279	C	1.365425	0.095098	1.133070
C280	C	1.615425	0.345098	1.383070
C281	C	0.905512	-0.357380	0.665800
C282	C	1.155512	-0.107380	0.915800
C283	C	1.405512	0.142620	1.165800
C284	C	1.655512	0.392620	1.415800
H285	H	0.667028	-0.271506	0.374694
H286	H	0.917028	-0.021506	0.624694
H287	H	1.167028	0.228494	0.874694
H288	H	1.417028	0.478494	1.124694
H289	H	1.007945	-0.346708	0.742848
H290	H	1.257945	-0.096708	0.992848
H291	H	1.507945	0.153292	1.242848
H292	H	1.757945	0.403292	1.492848
Cl293	Cl	0.331831	-0.508502	0.290513
Cl294	Cl	0.581831	-0.258502	0.540513
Cl295	Cl	0.831831	-0.008502	0.790513
Cl296	Cl	1.081831	0.241498	1.040513
H297	H	0.465047	-0.478901	0.292728
H298	H	0.715047	-0.228901	0.542728
H299	H	0.965047	0.021099	0.792728
H300	H	1.215047	0.271099	1.042728
H301	H	0.548153	-0.443580	0.229039
H302	H	0.798153	-0.193580	0.479039
H303	H	1.048153	0.056420	0.729039
H304	H	1.298153	0.306420	0.979039
Cl305	Cl	0.681339	-0.464612	0.211239
Cl306	Cl	0.931339	-0.214612	0.461239
Cl307	Cl	1.181339	0.035388	0.711239
Cl308	Cl	1.431339	0.285388	0.961239
Cl309	Cl	0.773751	-0.799046	0.266434
Cl310	Cl	1.023751	-0.549046	0.516434
Cl311	Cl	1.273751	-0.299046	0.766434
Cl312	Cl	1.523751	-0.049046	1.016434
H313	H	0.982817	-0.810731	0.224743
H314	H	1.232817	-0.560731	0.474743
H315	H	1.482817	-0.310731	0.724743
H316	H	1.732817	-0.060731	0.974743
Cl317	Cl	0.808953	-0.915051	0.398416
Cl318	Cl	1.058953	-0.665051	0.648416
Cl319	Cl	1.308953	-0.415051	0.898416
Cl320	Cl	1.558953	-0.165051	1.148416
Cl321	Cl	0.995974	-0.250131	0.674254
Cl322	Cl	1.245974	-0.000131	0.924254
Cl323	Cl	1.495974	0.249869	1.174254
Cl324	Cl	1.745974	0.499869	1.424254
Cl325	Cl	1.037296	-0.915134	0.337331
Cl326	Cl	1.287296	-0.665134	0.587331
Cl327	Cl	1.537296	-0.415134	0.837331
Cl328	Cl	1.787296	-0.165134	1.087331
H329	H	0.263392	-0.271411	0.374720
H330	H	0.513392	-0.021411	0.624720
H331	H	0.763392	0.228589	0.874720
H332	H	1.013392	0.478589	1.124720
H333	H	0.144516	-0.443494	0.229067
H334	H	0.394516	-0.193494	0.479067
H335	H	0.644516	0.056506	0.729067
H336	H	0.894516	0.306506	0.979067
Cl337	Cl	0.815078	-0.464556	0.930122
Cl338	Cl	1.065078	-0.214556	1.180122
Cl339	Cl	1.315078	0.035444	1.430122
Cl340	Cl	1.565078	0.285444	1.680122
H341	H	0.933667	-0.810700	0.407481
H342	H	1.183667	-0.560700	0.657481
H343	H	1.433667	-0.310700	0.907481
H344	H	1.683667	-0.060700	1.157481
H345	H	0.263227	-0.443521	0.229058
H346	H	0.513227	-0.193521	0.479058
H347	H	0.763227	0.056479	0.729058
H348	H	1.013227	0.306479	0.979058
Cl349	Cl	0.130213	-0.250370	0.392502
Cl350	Cl	0.380213	-0.000370	0.642502
Cl351	Cl	0.630213	0.249630	0.892502
Cl352	Cl	0.880213	0.499630	1.142502
Cl353	Cl	0.533848	-0.250468	0.392478
Cl354	Cl	0.783848	-0.000468	0.642478
Cl355	Cl	1.033848	0.249532	0.892478
Cl356	Cl	1.283848	0.499532	1.142478
Cl357	Cl	0.479725	-0.206502	0.313260
Cl358	Cl	0.729725	0.043498	0.563260
Cl359	Cl	0.979725	0.293498	0.813260
Cl360	Cl	1.229725	0.543498	1.063260
Cl361	Cl	0.870320	-0.915445	0.170081
Cl362	Cl	1.120320	-0.665445	0.420081
Cl363	Cl	1.370320	-0.415445	0.670081
Cl364	Cl	1.620320	-0.165445	0.920081
H365	H	0.346500	-0.236103	0.311034
H366	H	0.596500	0.013897	0.561034
H367	H	0.846500	0.263897	0.811034
H368	H	1.096500	0.513897	1.061034
Cl369	Cl	0.995974	-0.250193	0.526563
Cl370	Cl	1.245974	-0.000193	0.776563
Cl371	Cl	1.495974	0.249807	1.026563
Cl372	Cl	1.745974	0.499807	1.276563
H373	H	0.978291	-0.271099	1.063391
H374	H	1.228291	-0.021099	1.313391
H375	H	1.478291	0.228901	1.563391
H376	H	1.728291	0.478901	1.813391
H377	H	0.978273	-0.271128	0.944684
H378	H	1.228273	-0.021128	1.194684
H379	H	1.478273	0.228872	1.444684
H380	H	1.728273	0.478872	1.694684
H381	H	1.007963	-0.346679	0.861561
H382	H	1.257963	-0.096679	1.111561
H383	H	1.507963	0.153321	1.361561
H384	H	1.757963	0.403321	1.611561
Cl385	Cl	0.815023	-0.464656	0.526485
Cl386	Cl	1.065023	-0.214656	0.776485
Cl387	Cl	1.315023	0.035344	1.026485
Cl388	Cl	1.565023	0.285344	1.276485
Cl389	Cl	0.815042	-0.464617	0.674175
Cl390	Cl	1.065042	-0.214617	0.924175
Cl391	Cl	1.315042	0.035383	1.174175
Cl392	Cl	1.565042	0.285383	1.424175
Cl393	Cl	0.778093	-0.370617	0.728325
Cl394	Cl	1.028093	-0.120617	0.978325
Cl395	Cl	1.278093	0.129383	1.228325
Cl396	Cl	1.528093	0.379383	1.478325
H397	H	0.832852	-0.443494	1.063331
H398	H	1.082852	-0.193494	1.313331
H399	H	1.332852	0.056506	1.563331
H400	H	1.582852	0.306506	1.813331
Cl401	Cl	0.778113	-0.370575	0.876013
Cl402	Cl	1.028113	-0.120575	1.126013
Cl403	Cl	1.278113	0.129425	1.376013
Cl404	Cl	1.528113	0.379425	1.626013
