data_functionalizedCrystal
_audit_creation_method	'MofGen! by Chris Wilmer'
_symmetry_space_group_name_H-M	'P1'
_symmetry_Int_Tables_number	1
_symmetry_cell_setting	triclinic
loop_
_symmetry_equiv_pos_as_xyz
  x,y,z
_cell_length_a	16.625547
_cell_length_b	16.120484
_cell_length_c	16.625539
_cell_angle_alpha	87.131385
_cell_angle_beta	90.024822
_cell_angle_gamma	92.925712
loop_
_atom_site_label
_atom_site_type_symbol
_atom_site_fract_x
_atom_site_fract_y
_atom_site_fract_z
Zn1	Zn	1.216387	-0.331907	0.472258
Zn2	Zn	1.466387	-0.081907	0.722258
Zn3	Zn	1.716387	0.168093	0.972258
Zn4	Zn	1.966387	0.418093	1.222258
Zn5	Zn	1.209446	-0.471332	0.344255
Zn6	Zn	1.459446	-0.221332	0.594255
Zn7	Zn	1.709446	0.028668	0.844255
Zn8	Zn	1.959446	0.278668	1.094255
Zn9	Zn	1.081547	-0.331936	0.337430
Zn10	Zn	1.331547	-0.081936	0.587430
Zn11	Zn	1.581547	0.168064	0.837430
Zn12	Zn	1.831547	0.418064	1.087430
Zn13	Zn	1.074677	-0.471281	0.479032
Zn14	Zn	1.324677	-0.221281	0.729032
Zn15	Zn	1.574677	0.028719	0.979032
Zn16	Zn	1.824677	0.278719	1.229032
O17	O	1.145514	-0.401614	0.408244
O18	O	1.395514	-0.151614	0.658244
O19	O	1.645514	0.098386	0.908244
O20	O	1.895514	0.348386	1.158244
O21	O	1.328298	-0.350411	0.455300
O22	O	1.578298	-0.100411	0.705300
O23	O	1.828298	0.149589	0.955300
O24	O	2.078298	0.399589	1.205300
O25	O	1.192450	-0.452874	0.230519
O26	O	1.442450	-0.202874	0.480519
O27	O	1.692450	0.047126	0.730519
O28	O	1.942450	0.297126	0.980519
O29	O	1.105214	-0.215267	0.349625
O30	O	1.355214	0.034733	0.599625
O31	O	1.605214	0.284733	0.849625
O32	O	1.855214	0.534733	1.099625
O33	O	1.323198	-0.452846	0.361256
O34	O	1.573198	-0.202846	0.611256
O35	O	1.823198	0.047154	0.861256
O36	O	2.073198	0.297154	1.111256
O37	O	1.204280	-0.215245	0.448682
O38	O	1.454280	0.034755	0.698682
O39	O	1.704280	0.284755	0.948682
O40	O	1.954280	0.534755	1.198682
O41	O	1.098483	-0.350461	0.225505
O42	O	1.348483	-0.100461	0.475505
O43	O	1.598483	0.149539	0.725505
O44	O	1.848483	0.399539	0.975505
O45	O	0.967804	-0.350412	0.356193
O46	O	1.217804	-0.100412	0.606193
O47	O	1.467804	0.149588	0.856193
O48	O	1.717804	0.399588	1.106193
O49	O	1.093505	-0.452759	0.590964
O50	O	1.343505	-0.202759	0.840964
O51	O	1.593505	0.047241	1.090964
O52	O	1.843505	0.297241	1.340964
O53	O	0.962756	-0.452787	0.460227
O54	O	1.212756	-0.202787	0.710227
O55	O	1.462756	0.047213	0.960227
O56	O	1.712756	0.297213	1.210227
O57	O	1.197618	-0.350362	0.585988
O58	O	1.447618	-0.100362	0.835988
O59	O	1.697618	0.149638	1.085988
O60	O	1.947618	0.399638	1.335988
O61	O	1.185788	-0.587991	0.367824
O62	O	1.435788	-0.337991	0.617824
O63	O	1.685788	-0.087991	0.867824
O64	O	1.935788	0.162009	1.117824
O65	O	1.086774	-0.587953	0.466845
O66	O	1.336774	-0.337953	0.716845
O67	O	1.586774	-0.087953	0.966845
O68	O	1.836774	0.162047	1.216845
C69	C	0.936024	-0.401598	0.408205
C70	C	1.186024	-0.151598	0.658205
C71	C	1.436024	0.098402	0.908205
C72	C	1.686024	0.348402	1.158205
C73	C	0.846402	-0.401611	0.408209
C74	C	1.096402	-0.151611	0.658209
C75	C	1.346402	0.098389	0.908209
C76	C	1.596402	0.348389	1.158209
C77	C	1.134804	-0.618222	0.418828
C78	C	1.384804	-0.368222	0.668828
C79	C	1.634804	-0.118222	0.918828
C80	C	1.884804	0.131778	1.168828
C81	C	1.130296	-0.710888	0.423383
C82	C	1.380296	-0.460888	0.673383
C83	C	1.630296	-0.210888	0.923383
C84	C	1.880296	0.039112	1.173383
C85	C	0.773620	-0.401613	0.408219
C86	C	1.023620	-0.151613	0.658219
C87	C	1.273620	0.098387	0.908219
C88	C	1.523620	0.348387	1.158219
C89	C	0.682311	-0.401617	0.408239
C90	C	0.932311	-0.151617	0.658239
C91	C	1.182311	0.098383	0.908239
C92	C	1.432311	0.348383	1.158239
C93	C	0.609534	-0.401625	0.408260
C94	C	0.859534	-0.151625	0.658260
C95	C	1.109534	0.098375	0.908260
C96	C	1.359534	0.348375	1.158260
C97	C	0.518220	-0.401630	0.408279
C98	C	0.768220	-0.151630	0.658279
C99	C	1.018220	0.098370	0.908279
C100	C	1.268220	0.348370	1.158279
C101	C	1.122071	-0.880550	0.431715
C102	C	1.372071	-0.630550	0.681715
C103	C	1.622071	-0.380550	0.931715
C104	C	1.872071	-0.130550	1.181715
C105	C	1.169102	-0.921838	0.384786
C106	C	1.419102	-0.671838	0.634786
C107	C	1.669102	-0.421838	0.884786
C108	C	1.919102	-0.171838	1.134786
C109	C	1.164525	-1.016243	0.389422
C110	C	1.414525	-0.766243	0.639422
C111	C	1.664525	-0.516243	0.889422
C112	C	1.914525	-0.266243	1.139422
C113	C	1.126646	-0.786136	0.427080
C114	C	1.376646	-0.536136	0.677080
C115	C	1.626646	-0.286136	0.927080
C116	C	1.876646	-0.036136	1.177080
C117	C	1.355822	-0.401631	0.408283
C118	C	1.605822	-0.151631	0.658283
C119	C	1.855822	0.098369	0.908283
C120	C	2.105822	0.348369	1.158283
C121	C	1.445443	-0.401638	0.408300
C122	C	1.695443	-0.151638	0.658300
C123	C	1.945443	0.098362	0.908300
C124	C	2.195443	0.348362	1.158300
C125	C	1.145570	-0.401552	0.618550
C126	C	1.395570	-0.151552	0.868550
C127	C	1.645570	0.098448	1.118550
C128	C	1.895570	0.348448	1.368550
C129	C	1.145593	-0.401525	0.708170
C130	C	1.395593	-0.151525	0.958170
C131	C	1.645593	0.098475	1.208170
C132	C	1.895593	0.348475	1.458170
C133	C	1.156288	-0.184160	0.397636
C134	C	1.406288	0.065840	0.647636
C135	C	1.656288	0.315840	0.897636
C136	C	1.906288	0.565840	1.147636
C137	C	1.160879	-0.091494	0.393116
C138	C	1.410879	0.158506	0.643116
C139	C	1.660879	0.408506	0.893116
C140	C	1.910879	0.658506	1.143116
C141	C	1.145508	-0.401616	0.198753
C142	C	1.395508	-0.151616	0.448753
C143	C	1.645508	0.098384	0.698753
C144	C	1.895508	0.348384	0.948753
C145	C	1.145652	-0.401407	0.109122
C146	C	1.395652	-0.151407	0.359122
C147	C	1.645652	0.098593	0.609122
C148	C	1.895652	0.348593	0.859122
C149	C	1.145635	-0.401432	1.036341
C150	C	1.395635	-0.151432	1.286341
C151	C	1.645635	0.098568	1.536341
C152	C	1.895635	0.348568	1.786341
C153	C	1.145621	-0.401461	0.945034
C154	C	1.395621	-0.151461	1.195034
C155	C	1.645621	0.098539	1.445034
C156	C	1.895621	0.348539	1.695034
C157	C	1.145615	-0.401479	0.872258
C158	C	1.395615	-0.151479	1.122258
C159	C	1.645615	0.098521	1.372258
C160	C	1.895615	0.348521	1.622258
C161	C	1.145600	-0.401507	0.780945
C162	C	1.395600	-0.151507	1.030945
C163	C	1.645600	0.098493	1.280945
C164	C	1.895600	0.348493	1.530945
H165	H	1.212804	-0.886285	0.341127
H166	H	1.462804	-0.636285	0.591127
H167	H	1.712804	-0.386285	0.841127
H168	H	1.962804	-0.136285	1.091127
H169	H	1.078372	-0.916100	0.475370
H170	H	1.328372	-0.666100	0.725370
H171	H	1.578372	-0.416100	0.975370
H172	H	1.828372	-0.166100	1.225370
