data_functionalizedCrystal
_audit_creation_method	'MofGen! by Chris Wilmer'
_symmetry_space_group_name_H-M	'P1'
_symmetry_Int_Tables_number	1
_symmetry_cell_setting	triclinic
loop_
_symmetry_equiv_pos_as_xyz
  x,y,z
_cell_length_a	14.908979
_cell_length_b	14.908520
_cell_length_c	12.759393
_cell_angle_alpha	86.736627
_cell_angle_beta	86.725084
_cell_angle_gamma	96.420994
loop_
_atom_site_label
_atom_site_type_symbol
_atom_site_fract_x
_atom_site_fract_y
_atom_site_fract_z
Zn1	Zn	1.362998	-0.280395	0.521395
Zn2	Zn	1.354155	-0.431790	0.356469
Zn3	Zn	1.211629	-0.289182	0.356475
Zn4	Zn	1.202865	-0.440460	0.542838
O5	O	1.282912	-0.360457	0.444294
O6	O	1.488489	-0.293172	0.490540
O7	O	1.335215	-0.412921	0.209454
O8	O	1.239077	-0.161346	0.369380
O9	O	1.481992	-0.404401	0.369370
O10	O	1.350287	-0.154891	0.490546
O11	O	1.230502	-0.308147	0.209458
O12	O	1.083802	-0.316555	0.390173
O13	O	1.224141	-0.419179	0.687009
O14	O	1.077364	-0.427698	0.527093
O15	O	1.341790	-0.301580	0.671255
O16	O	1.326717	-0.559610	0.390163
O17	O	1.215566	-0.565980	0.527087
C18	C	1.047741	-0.374021	0.460961
C19	C	0.947132	-0.379846	0.468118
C20	C	0.801996	-0.446011	0.549377
C21	C	0.896527	-0.440538	0.542662
C22	C	0.903201	-0.324625	0.400282
C23	C	0.808671	-0.330097	0.406997
C24	C	0.758071	-0.390791	0.481549
C25	C	0.663539	-0.396259	0.488268
C26	C	0.670215	-0.280350	0.345884
C27	C	0.764746	-0.274878	0.339169
C28	C	1.269256	-0.595637	0.460972
C29	C	1.263496	-0.696244	0.468136
C30	C	1.368535	-0.878593	0.339119
C31	C	1.363127	-0.973122	0.345847
C32	C	1.247276	-0.979831	0.488324
C33	C	1.252685	-0.885303	0.481596
C34	C	1.313315	-0.834687	0.406990
C35	C	1.318718	-0.740157	0.400258
C36	C	1.202873	-0.746868	0.542740
C37	C	1.197465	-0.841396	0.549468
C38	C	1.519001	-0.346840	0.427562
C39	C	1.619608	-0.341037	0.420432
C40	C	1.282974	-0.360366	0.718317
C41	C	1.283001	-0.360328	0.835090
C42	C	1.296646	-0.124356	0.427572
C43	C	1.302498	-0.023744	0.420446
C44	C	1.282905	-0.360479	0.171329
C45	C	1.283069	-0.360252	0.054526
C46	C	1.337572	-0.414818	0.999663
C47	C	1.337536	-0.414859	0.889944
C48	C	1.228492	-0.305759	0.889961
C49	C	1.228523	-0.305724	0.999679
C50	C	1.400531	-0.477803	0.999651
C51	C	1.400495	-0.477844	0.889932
H52	H	0.760798	-0.495422	0.610088
C53	C	1.423864	-1.021417	0.271184
H54	H	1.460740	-0.977731	0.225786
H55	H	1.461174	-1.055959	0.311237
H56	H	1.387143	-1.060347	0.230449
H57	H	1.468592	-0.448839	1.027179
H58	H	1.471680	-0.455027	0.853850
C59	C	1.361336	-0.569778	0.852726
H60	H	1.362640	-0.566667	0.778069
H61	H	1.396528	-0.615339	0.876400
H62	H	1.300667	-0.584035	0.880741
H63	H	0.805956	-0.225465	0.278469
C64	C	0.607883	-0.462988	0.570302
H65	H	0.647586	-0.495087	0.609739
H66	H	0.573043	-0.430516	0.616298
H67	H	0.568694	-0.504537	0.535481
C68	C	0.944845	-0.501284	0.617264
H69	H	1.008391	-0.489341	0.602582
H70	H	0.930143	-0.489014	0.688048
H71	H	0.925819	-0.562984	0.607167
C72	C	0.958870	-0.257873	0.318281
H73	H	1.021459	-0.262524	0.324002
H74	H	0.942590	-0.271945	0.249703
H75	H	0.946914	-0.197961	0.330565
H76	H	1.148104	-0.882620	0.610212
H77	H	1.184132	-0.261301	1.044346
C78	C	0.621897	-0.219594	0.271283
H79	H	0.558351	-0.231543	0.285959
H80	H	0.640928	-0.157899	0.281375
H81	H	0.636594	-0.231868	0.200493
H82	H	1.368084	-0.698946	0.339508
H83	H	1.157907	-0.711109	0.598002
C84	C	1.435220	-0.822914	0.257056
H85	H	1.467336	-0.862602	0.217598
H86	H	1.402725	-0.788094	0.211080
H87	H	1.476756	-0.783704	0.291868
H88	H	1.197920	-1.021058	0.549071
C89	C	1.168503	-0.245778	0.829625
H90	H	1.176292	-0.253609	0.756422
H91	H	1.106922	-0.262525	0.852861
H92	H	1.185300	-0.184185	0.842357
H93	H	1.377689	-0.548984	1.035722
