data_functionalizedCrystal
_audit_creation_method	'MofGen! by Chris Wilmer'
_symmetry_space_group_name_H-M	'P1'
_symmetry_Int_Tables_number	1
_symmetry_cell_setting	triclinic
loop_
_symmetry_equiv_pos_as_xyz
  x,y,z
_cell_length_a	17.699083
_cell_length_b	27.732048
_cell_length_c	16.776229
_cell_angle_alpha	89.988391
_cell_angle_beta	89.998886
_cell_angle_gamma	82.962835
loop_
_atom_site_label
_atom_site_type_symbol
_atom_site_fract_x
_atom_site_fract_y
_atom_site_fract_z
O1	O	1.003540	0.061127	-0.066185
O2	O	0.783091	0.069080	-0.066212
O3	O	0.900162	-0.005269	-0.066183
O4	O	0.886469	0.135475	-0.066215
O5	O	0.900147	-0.005273	0.066394
O6	O	0.783076	0.069075	0.066364
O7	O	1.003524	0.061122	0.066391
Zn8	Zn	0.893298	0.065098	0.087427
Zn9	Zn	0.893318	0.065104	-0.087248
O10	O	0.886453	0.135471	0.066362
C11	C	0.754889	0.068792	0.000073
C12	C	0.670878	0.067938	0.000063
C13	C	0.899867	-0.023279	0.000108
C14	C	0.899001	-0.076937	0.000114
C15	C	0.621873	0.111579	0.000053
C16	C	0.542936	0.110772	0.000064
C17	C	0.513007	0.066325	0.000078
C18	C	0.562019	0.022680	0.000090
C19	C	0.640954	0.023487	0.000085
C20	C	0.243685	0.019426	0.000111
C21	C	0.164744	0.018623	0.000113
C22	C	0.145667	0.106712	0.000089
C23	C	0.224602	0.107518	0.000084
C24	C	0.273607	0.063874	0.000100
C25	C	0.359199	0.064749	0.000090
C26	C	0.427418	0.065450	0.000082
C27	C	0.962734	-0.415523	0.000081
C28	C	0.959522	-0.617194	0.000070
O29	O	1.017801	-0.648240	0.000042
N30	N	0.890104	-0.636567	0.000062
C31	C	0.821484	-0.605520	0.000051
O32	O	0.762366	-0.626625	0.000036
C33	C	0.824696	-0.403849	0.000057
C34	C	0.894119	-0.384479	0.000073
C35	C	1.032151	-0.396152	0.000096
C36	C	1.032953	-0.345737	0.000103
C37	C	0.964338	-0.314693	0.000095
C38	C	0.894921	-0.334064	0.000080
C39	C	0.756076	-0.372802	0.000041
C40	C	0.756886	-0.322382	0.000041
C41	C	0.826308	-0.303012	0.000057
C42	C	0.827108	-0.252605	0.000080
N43	N	0.896526	-0.233232	0.000088
C44	C	0.965141	-0.264276	0.000095
C45	C	0.819802	-0.711400	0.000050
C46	C	0.818999	-0.761817	0.000050
C47	C	0.957038	-0.773488	0.000067
C48	C	0.957840	-0.723070	0.000072
C49	C	0.889220	-0.692026	0.000058
C50	C	0.966820	-0.158401	0.000111
C51	C	0.967616	-0.107981	0.000122
C52	C	0.829578	-0.096314	0.000101
C53	C	0.828781	-0.146730	0.000095
C54	C	0.897409	-0.177772	0.000097
O55	O	0.768860	-0.221531	0.000099
O56	O	1.024251	-0.243161	0.000093
C57	C	0.961931	-0.465938	0.000074
C58	C	0.892514	-0.485309	0.000059
C59	C	0.823899	-0.454265	0.000051
C60	C	0.891711	-0.535726	0.000059
C61	C	0.960326	-0.566770	0.000067
C62	C	1.029744	-0.547397	0.000074
C63	C	1.030546	-0.496982	0.000082
C64	C	0.754481	-0.473638	0.000043
C65	C	0.753685	-0.524053	0.000037
C66	C	0.822300	-0.555097	0.000045
C67	C	1.031726	0.061410	0.000105
C68	C	1.115737	0.062264	0.000109
C69	C	0.886748	0.153481	0.000069
C70	C	0.887614	0.207139	0.000058
N71	N	0.893289	0.065094	0.206638
N72	N	0.893332	0.065105	-0.206459
C73	C	0.945144	0.032186	0.248368
C74	C	0.945148	0.032185	0.331821
C75	C	0.893301	0.065095	0.373541
C76	C	0.841441	0.098005	0.331805
C77	C	0.841433	0.098003	0.248354
C78	C	0.841468	0.098015	0.668352
C79	C	0.841481	0.098015	0.751809
C80	C	0.945182	0.032197	0.751819
C81	C	0.945175	0.032195	0.668368
C82	C	0.893313	0.065102	0.626639
C83	C	0.893308	0.065102	0.536151
C84	C	0.893309	0.065099	0.464028
H85	H	0.646234	0.147773	0.000041
C86	C	0.990523	-0.051537	0.642871
C87	C	1.002164	-0.004024	0.622587
H88	H	1.025702	-0.073910	0.614628
H89	H	0.997905	-0.056198	0.698552
H90	H	0.940070	-0.056725	0.629177
H91	H	1.052616	0.001166	0.636287
H92	H	0.994789	0.000639	0.566894
H93	H	0.987371	0.005389	0.365797
C94	C	0.824277	0.163819	0.845630
C95	C	0.784481	0.134191	0.797669
H96	H	0.789088	0.186152	0.873937
H97	H	0.855158	0.144221	0.882421
H98	H	0.855564	0.181182	0.813053
H99	H	0.753198	0.116825	0.830246
H100	H	0.753587	0.153791	0.760873
H101	H	0.680855	-0.012050	0.000093
H102	H	0.248965	0.143712	0.000069
H103	H	0.799241	0.124810	0.634383
H104	H	0.503039	0.146309	0.000055
H105	H	0.105758	0.142249	0.000080
C106	C	0.191527	-0.068376	0.000156
C107	C	0.131845	-0.030238	0.000137
H108	H	0.171214	-0.098538	0.000175
H109	H	0.221916	-0.066233	-0.046076
H110	H	0.221918	-0.066225	0.046390
H111	H	0.101457	-0.032386	-0.046100
H112	H	0.101443	-0.032382	0.046373
C113	C	0.962393	-0.033607	0.845684
C114	C	1.002184	-0.003982	0.797690
H115	H	0.997584	-0.055942	0.873997
H116	H	0.931523	-0.014007	0.882470
H117	H	0.931096	-0.050968	0.813129
H118	H	1.033477	0.013382	0.830246
H119	H	1.033067	-0.023584	0.760900
C120	C	0.795409	0.127238	0.459723
C121	C	0.784450	0.134182	0.377663
H122	H	0.760228	0.149577	0.488030
H123	H	0.787568	0.094989	0.473412
H124	H	0.845862	0.132448	0.473380
H125	H	0.733999	0.128969	0.364004
H126	H	0.792285	0.166439	0.363968
H127	H	0.773714	-0.071029	0.000098
H128	H	1.024151	-0.092213	0.000137
H129	H	0.283576	-0.016112	0.000125
H130	H	0.762468	-0.777584	0.000051
C131	C	0.738932	0.163068	0.256721
C132	C	0.784437	0.134179	0.202481
H133	H	0.703746	0.185403	0.228400
H134	H	0.711950	0.142970	0.289280
H135	H	0.770242	0.180430	0.289260
H136	H	0.753127	0.116814	0.169946
H137	H	0.811421	0.154279	0.169909
H138	H	1.087078	-0.481215	0.000094
C139	C	0.449491	-0.017671	0.000101
C140	C	0.529123	-0.026178	0.000105
H141	H	0.429185	-0.047836	0.000103
H142	H	0.432640	0.000289	0.046327
H143	H	0.432642	0.000296	-0.046138
H144	H	0.545973	-0.044142	0.046347
H145	H	0.545982	-0.044146	-0.046126
H146	H	0.701006	-0.297108	0.000028
H147	H	1.089484	-0.329971	0.000113
C148	C	1.103347	-0.164859	0.000140
C149	C	1.042256	-0.192518	0.000121
H150	H	1.149916	-0.185922	0.000154
H151	H	1.100793	-0.144947	-0.046089
H152	H	1.100768	-0.144956	0.046376
H153	H	1.044831	-0.212418	-0.046119
H154	H	1.044811	-0.212438	0.046355
H155	H	1.088028	-0.421424	0.000099
H156	H	1.014370	-0.707302	0.000085
C157	C	1.074449	-0.798956	-0.068083
C158	C	1.032463	-0.807616	0.000069
H159	H	1.121013	-0.820024	-0.068082
H160	H	1.045957	-0.804813	-0.114306
H161	H	1.084862	-0.766156	-0.068071
H162	H	1.022045	-0.840415	0.000054
H163	H	1.060962	-0.801762	0.046304
C164	C	0.683276	-0.704939	0.000045
C165	C	0.744368	-0.677280	0.000046
H166	H	0.636707	-0.683875	0.000051
H167	H	0.685840	-0.724838	-0.046186
H168	H	0.685845	-0.724855	0.046279
H169	H	0.741802	-0.657367	-0.046192
H170	H	0.741803	-0.657373	0.046281
C171	C	0.619718	-0.356181	0.000001
C172	C	0.679763	-0.394085	0.000017
H173	H	0.572603	-0.369320	-0.000020
H174	H	0.622896	-0.336768	0.046234
H175	H	0.622926	-0.336752	-0.046231
H176	H	0.676558	-0.413512	0.046252
H177	H	0.676583	-0.413506	-0.046221
H178	H	1.085613	-0.572682	0.000084
C179	C	0.692417	-0.130126	0.000071
C180	C	0.752472	-0.168025	0.000076
H181	H	0.645307	-0.143272	0.000047
H182	H	0.695591	-0.110717	0.046308
H183	H	0.695619	-0.110693	-0.046157
H184	H	0.749274	-0.187456	0.046307
H185	H	0.749297	-0.187442	-0.046166
H186	H	0.698605	-0.448366	0.000035
C187	C	0.617317	-0.507440	0.000006
C188	C	0.677368	-0.545341	0.000017
H189	H	0.570205	-0.520582	-0.000017
H190	H	0.620493	-0.488029	0.046242
H191	H	0.620522	-0.488009	-0.046223
H192	H	0.674166	-0.564770	0.046250
H193	H	0.674190	-0.564760	-0.046224
C194	C	1.047647	-0.032878	0.256769
C195	C	1.002136	-0.003992	0.202513
H196	H	1.082827	-0.055216	0.228460
H197	H	1.074636	-0.012778	0.289303
H198	H	1.016341	-0.050237	0.289331
H199	H	1.033441	0.013370	0.169955
H200	H	0.975145	-0.024095	0.169965
