data_functionalizedCrystal
_audit_creation_method	'MofGen! by Chris Wilmer'
_symmetry_space_group_name_H-M	'P1'
_symmetry_Int_Tables_number	1
_symmetry_cell_setting	triclinic
loop_
_symmetry_equiv_pos_as_xyz
  x,y,z
_cell_length_a	21.295418
_cell_length_b	25.639239
_cell_length_c	21.295411
_cell_angle_alpha	90.019526
_cell_angle_beta	90.043738
_cell_angle_gamma	90.054499
loop_
_atom_site_label
_atom_site_type_symbol
_atom_site_fract_x
_atom_site_fract_y
_atom_site_fract_z
Zn1	Zn	0.962320	-0.207990	0.356243
Zn2	Zn	1.462320	0.292010	0.856243
Zn3	Zn	0.962207	-0.295410	0.250972
Zn4	Zn	1.462207	0.204590	0.750972
Zn5	Zn	0.857043	-0.208014	0.250953
Zn6	Zn	1.357043	0.291986	0.750953
Zn7	Zn	0.856998	-0.295420	0.356169
Zn8	Zn	1.356998	0.204580	0.856169
O9	O	0.909642	-0.251708	0.303584
O10	O	1.409642	0.248292	0.803584
O11	O	1.050395	-0.219572	0.342318
O12	O	1.550395	0.280428	0.842318
O13	O	0.948229	-0.283822	0.162880
O14	O	1.448229	0.216178	0.662880
O15	O	0.871075	-0.134846	0.264943
O16	O	1.371075	0.365154	0.764943
O17	O	1.050312	-0.283799	0.264976
O18	O	1.550312	0.216201	0.764976
O19	O	0.948421	-0.134828	0.342299
O20	O	1.448421	0.365172	0.842299
O21	O	0.870965	-0.219613	0.162866
O22	O	1.370965	0.280387	0.662866
O23	O	0.768948	-0.219623	0.264871
O24	O	1.268948	0.280377	0.764871
O25	O	0.870997	-0.283816	0.444268
O26	O	1.370997	0.216184	0.944268
O27	O	0.768914	-0.283840	0.342172
O28	O	1.268914	0.216160	0.842172
O29	O	0.948377	-0.219582	0.444322
O30	O	1.448377	0.280418	0.944322
O31	O	0.948185	-0.368576	0.264904
O32	O	1.448185	0.131424	0.764904
O33	O	0.870888	-0.368584	0.342191
O34	O	1.370888	0.131416	0.842191
C35	C	0.746090	-0.251736	0.303512
C36	C	1.246090	0.248264	0.803512
C37	C	0.676122	-0.251760	0.303496
C38	C	1.176122	0.248240	0.803496
C39	C	0.909536	-0.387551	0.303555
C40	C	1.409536	0.112449	0.803555
C41	C	0.909548	-0.445665	0.303564
C42	C	1.409548	0.054335	0.803564
C43	C	0.643255	-0.285242	0.343686
C44	C	1.143255	0.214758	0.843686
C45	C	0.577512	-0.285229	0.343715
C46	C	1.077512	0.214771	0.843715
C47	C	0.544640	-0.251740	0.303541
C48	C	1.044640	0.248260	0.803541
C49	C	0.577515	-0.218252	0.263347
C50	C	1.077515	0.281748	0.763347
C51	C	0.643257	-0.218262	0.263325
C52	C	1.143257	0.281738	0.763325
N53	N	0.441365	-0.247648	0.248483
N54	N	0.941365	0.252352	0.748483
N55	N	0.378913	-0.247641	0.248506
N56	N	0.878913	0.252359	0.748506
C57	C	0.346565	-0.251707	0.303608
C58	C	0.846565	0.248293	0.803608
N59	N	0.379028	-0.255789	0.358686
N60	N	0.879028	0.244211	0.858686
N61	N	0.441485	-0.255799	0.358662
N62	N	0.941485	0.244201	0.858662
C63	C	0.473354	-0.251725	0.303561
C64	C	0.973354	0.248275	0.803561
C65	C	0.242412	-0.285176	0.343832
C66	C	0.742412	0.214824	0.843832
C67	C	0.176668	-0.285160	0.343862
C68	C	0.676668	0.214840	0.843862
C69	C	0.176673	-0.218185	0.263489
C70	C	0.676673	0.281815	0.763489
C71	C	0.242415	-0.218199	0.263465
C72	C	0.742415	0.281801	0.763465
C73	C	0.275281	-0.251697	0.303636
C74	C	0.775281	0.248303	0.803636
C75	C	0.949996	-0.806011	0.263409
C76	C	1.449996	-0.306011	0.763409
C77	C	0.950020	-0.860616	0.263418
C78	C	1.450020	-0.360616	0.763418
O79	O	0.984300	-0.888838	0.229245
O80	O	1.484300	-0.388838	0.729245
N81	N	0.909753	-0.887947	0.303626
N82	N	1.409753	-0.387947	0.803626
C83	C	0.869463	-0.860672	0.343833
C84	C	1.369463	-0.360672	0.843833
O85	O	0.835215	-0.888934	0.378034
O86	O	1.335215	-0.388934	0.878034
C87	C	0.869442	-0.806069	0.343827
C88	C	1.369442	-0.306069	0.843827
C89	C	0.909708	-0.778740	0.303612
C90	C	1.409708	-0.278740	0.803612
C91	C	0.990259	-0.778683	0.223198
C92	C	1.490259	-0.278683	0.723198
C93	C	0.990233	-0.724082	0.223188
C94	C	1.490233	-0.224082	0.723188
C95	C	0.949945	-0.696810	0.263391
C96	C	1.449945	-0.196810	0.763391
C97	C	0.909682	-0.724139	0.303603
C98	C	1.409682	-0.224139	0.803603
C99	C	0.829156	-0.778794	0.384037
C100	C	1.329156	-0.278794	0.884037
C101	C	0.829139	-0.724187	0.384028
C102	C	1.329139	-0.224187	0.884028
C103	C	0.869404	-0.696858	0.343812
C104	C	1.369404	-0.196858	0.843812
C105	C	0.869369	-0.642267	0.343796
C106	C	1.369369	-0.142267	0.843796
N107	N	0.909636	-0.614935	0.303588
N108	N	1.409636	-0.114935	0.803588
C109	C	0.949924	-0.642207	0.263385
C110	C	1.449924	-0.142207	0.763385
C111	C	0.869510	-0.975343	0.343842
C112	C	1.369510	-0.475343	0.843842
C113	C	0.869527	-1.029945	0.343845
C114	C	1.369527	-0.529945	0.843845
C115	C	0.950086	-1.029885	0.263431
C116	C	1.450086	-0.529885	0.763431
C117	C	0.950065	-0.975282	0.263425
C118	C	1.450065	-0.475282	0.763425
C119	C	0.909778	-0.948011	0.303634
C120	C	1.409778	-0.448011	0.803634
C121	C	0.949868	-0.527542	0.263369
C122	C	1.449868	-0.027542	0.763369
C123	C	0.949837	-0.472937	0.263361
C124	C	1.449837	0.027063	0.763361
C125	C	0.869281	-0.473001	0.343778
C126	C	1.369281	0.026999	0.843778
C127	C	0.869309	-0.527602	0.343783
C128	C	1.369309	-0.027602	0.843783
C129	C	0.909607	-0.554871	0.303577
C130	C	1.409607	-0.054871	0.803577
O131	O	0.835108	-0.614010	0.377953
O132	O	1.335108	-0.114010	0.877953
O133	O	0.984172	-0.613939	0.229195
O134	O	1.484172	-0.113939	0.729195
C135	C	1.073832	-0.251681	0.303657
C136	C	1.573832	0.248319	0.803657
C137	C	1.143801	-0.251670	0.303688
C138	C	1.643801	0.248330	0.803688
C139	C	0.909694	-0.251697	0.467774
C140	C	1.409694	0.248303	0.967774
C141	C	0.909717	-0.251693	0.537743
C142	C	1.409717	0.248307	1.037743
C143	C	0.909766	-0.115335	0.303627
C144	C	1.409766	0.384665	0.803627
C145	C	0.909818	-0.057221	0.303645
C146	C	1.409818	0.442779	0.803645
C147	C	0.909626	-0.251682	0.140032
C148	C	1.409626	0.248318	0.640032
C149	C	0.909726	-0.251539	0.070065
C150	C	1.409726	0.248461	0.570065
C151	C	0.950007	-0.218244	0.570639
C152	C	1.450007	0.281756	1.070639
C153	C	0.950006	-0.218221	0.636381
C154	C	1.450006	0.281779	1.136381
C155	C	0.909721	-0.251657	0.669225
C156	C	1.409721	0.248343	1.169225
C157	C	0.869424	-0.285108	0.636321
C158	C	1.369424	0.214892	1.136321
C159	C	0.869421	-0.285126	0.570580
C160	C	1.369421	0.214874	1.070580
N161	N	0.904857	-0.297396	0.772441
N162	N	1.404857	0.202604	1.272441
N163	N	0.904863	-0.297377	0.834892
N164	N	1.404863	0.202623	1.334892
C165	C	0.909725	-0.251604	0.867300
C166	C	1.409725	0.248396	1.367300
N167	N	0.914594	-0.205848	0.834897
N168	N	1.414594	0.294152	1.334897
N169	N	0.914591	-0.205867	0.772440
N170	N	1.414591	0.294133	1.272440
C171	C	0.909719	-0.251641	0.740511
C172	C	1.409719	0.248359	1.240511
C173	C	0.950017	-0.218128	0.971482
C174	C	1.450017	0.281872	1.471482
C175	C	0.950011	-0.218104	1.037225
C176	C	1.450011	0.281896	1.537225
C177	C	0.869433	-0.284995	1.037164
C178	C	1.369433	0.215005	1.537164
C179	C	0.869435	-0.285014	0.971422
C180	C	1.369435	0.214986	1.471422
C181	C	0.909730	-0.251581	0.938584
C182	C	1.409730	0.248419	1.438584
H183	H	0.550746	-0.312494	0.376445
H184	H	1.050746	0.187506	0.876445
C185	C	0.140524	-0.181345	0.219299
C186	C	0.640524	0.318655	0.719299
H187	H	0.169518	-0.161403	0.195360
H188	H	0.669518	0.338597	0.695360
H189	H	0.114818	-0.201305	0.191837
H190	H	0.614818	0.298695	0.691837
H191	H	0.114940	-0.158587	0.243444
H192	H	0.614940	0.341413	0.743444
C193	C	0.824970	-0.442996	0.388000
C194	C	1.324970	0.057004	0.888000
H195	H	0.830731	-0.406563	0.382237
H196	H	1.330731	0.093437	0.882237
H197	H	0.782681	-0.451989	0.378744
H198	H	1.282681	0.048011	0.878744
H199	H	0.834175	-0.451917	0.430310
H200	H	1.334175	0.048083	0.930310
H201	H	0.982818	-0.191020	0.543907
H202	H	1.482818	0.308980	1.043907
H203	H	0.982824	-0.190902	0.944744
H204	H	1.482824	0.309098	1.444744
C205	C	0.825184	-0.945349	0.388068
C206	C	1.325184	-0.445349	0.888068
H207	H	0.801204	-0.969451	0.412008
H208	H	1.301204	-0.469451	0.912008
H209	H	0.849236	-0.924012	0.415527
H210	H	1.349236	-0.424012	0.915527
H211	H	0.797755	-0.924088	0.363947
H212	H	1.297755	-0.424088	0.863947
C213	C	0.994331	-0.181431	0.672575
C214	C	1.494331	0.318569	1.172575
H215	H	1.018332	-0.161525	0.643602
H216	H	1.518332	0.338475	1.143602
H217	H	0.970279	-0.158646	0.698207
H218	H	1.470279	0.341354	1.198207
H219	H	1.021740	-0.201429	0.698236
H220	H	1.521740	0.298571	1.198236
C221	C	0.784822	-0.694190	0.428257
C222	C	1.284822	-0.194190	0.928257
H223	H	0.790575	-0.657755	0.422499
H224	H	1.290575	-0.157755	0.922499
H225	H	0.742535	-0.703190	0.418996
H226	H	1.242535	-0.203190	0.918996
H227	H	0.794026	-0.703114	0.470566
H228	H	1.294026	-0.203114	0.970566
H229	H	0.836622	-0.312329	0.663067
H230	H	1.336622	0.187671	1.163067
C231	C	0.825109	-0.321928	0.534393
C232	C	1.325109	0.178072	1.034393
H233	H	0.801120	-0.341841	0.563366
H234	H	1.301120	0.158159	1.063366
H235	H	0.797699	-0.301944	0.508721
H236	H	1.297699	0.198056	1.008721
H237	H	0.849179	-0.344713	0.508771
H238	H	1.349179	0.155287	1.008771
H239	H	0.836626	-0.312213	1.063905
H240	H	1.336626	0.187787	1.563905
C241	C	0.679413	-0.181433	0.219109
C242	C	1.179413	0.318567	0.719109
H243	H	0.650422	-0.161487	0.195184
H244	H	1.150422	0.338513	0.695184
H245	H	0.705119	-0.158687	0.243229
H246	H	1.205119	0.341313	0.743229
H247	H	0.704997	-0.201409	0.191626
H248	H	1.204997	0.298591	0.691626
H249	H	0.670010	-0.312519	0.376398
H250	H	1.170010	0.187481	0.876398
H251	H	0.836630	-0.312254	0.944637
H252	H	1.336630	0.187746	1.444637
C253	C	0.140514	-0.321999	0.388065
C254	C	0.640514	0.178001	0.888065
H255	H	0.169505	-0.341955	0.411977
H256	H	0.669505	0.158045	0.911977
H257	H	0.114922	-0.302038	0.415552
H258	H	0.614922	0.197962	0.915552
H259	H	0.114814	-0.344743	0.363930
H260	H	0.614814	0.155257	0.863930
C261	C	0.541359	-0.181414	0.219157
C262	C	1.041359	0.318586	0.719157
H263	H	0.497498	-0.186207	0.224922
H264	H	0.997498	0.313793	0.724922
H265	H	0.552190	-0.146298	0.228443
H266	H	1.052190	0.353702	0.728443
H267	H	0.552076	-0.189018	0.176839
H268	H	1.052076	0.310982	0.676839
H269	H	0.796364	-0.801036	0.416781
H270	H	1.296364	-0.301036	0.916781
H271	H	0.982819	-0.190863	1.064008
H272	H	1.482819	0.309137	1.564008
H273	H	0.269176	-0.190937	0.230734
H274	H	0.769176	0.309063	0.730734
C275	C	0.278570	-0.322015	0.388024
C276	C	0.778570	0.177985	0.888024
H277	H	0.322431	-0.317230	0.382250
H278	H	0.822431	0.182770	0.882250
H279	H	0.267854	-0.314411	0.430339
H280	H	0.767854	0.185589	0.930339
H281	H	0.267736	-0.357134	0.378738
H282	H	0.767736	0.142866	0.878738
C283	C	0.994133	-0.442878	0.219126
C284	C	1.494133	0.057122	0.719126
H285	H	1.018135	-0.466944	0.195190
H286	H	1.518135	0.033056	0.695190
H287	H	0.970061	-0.421614	0.191662
H288	H	1.470061	0.078386	0.691662
H289	H	1.021543	-0.421539	0.243241
H290	H	1.521543	0.078461	0.743241
H291	H	1.023023	-0.701834	0.190444
H292	H	1.523023	-0.201834	0.690444
C293	C	0.994190	-0.557530	0.219138
C294	C	1.494190	-0.057530	0.719138
H295	H	1.018158	-0.533428	0.195187
H296	H	1.518158	-0.033428	0.695187
H297	H	1.021620	-0.578793	0.243248
H298	H	1.521620	-0.078793	0.743248
H299	H	0.970128	-0.578865	0.191679
H300	H	1.470128	-0.078865	0.691679
H301	H	1.023070	-0.800881	0.190460
H302	H	1.523070	-0.300881	0.690460
H303	H	0.982853	-0.953034	0.230679
H304	H	1.482853	-0.453034	0.730679
C305	C	0.994401	-1.059891	0.219207
C306	C	1.494401	-0.559891	0.719207
H307	H	0.988646	-1.096324	0.224976
H308	H	1.488646	-0.596324	0.724976
H309	H	0.985205	-1.050969	0.176899
H310	H	1.485205	-0.550969	0.676899
H311	H	1.036692	-1.050897	0.228472
H312	H	1.536692	-0.550897	0.728472
C313	C	0.825232	-1.060003	0.388077
C314	C	1.325232	-0.560003	0.888077
H315	H	0.831010	-1.096430	0.382326
H316	H	1.331010	-0.596430	0.882326
H317	H	0.834421	-1.051025	0.430381
H318	H	1.334421	-0.551025	0.930381
H319	H	0.782936	-1.051103	0.378805
H320	H	1.282936	-0.551103	0.878805
C321	C	0.825018	-0.557665	0.388018
C322	C	1.325018	-0.057665	0.888018
H323	H	0.801022	-0.533600	0.411961
H324	H	1.301022	-0.033600	0.911961
H325	H	0.797612	-0.579010	0.363913
H326	H	1.297612	-0.079010	0.863913
H327	H	0.849102	-0.578923	0.415483
H328	H	1.349102	-0.078923	0.915483
