data_functionalizedCrystal
_audit_creation_method	'MofGen! by Chris Wilmer'
_symmetry_space_group_name_H-M	'P1'
_symmetry_Int_Tables_number	1
_symmetry_cell_setting	triclinic
loop_
_symmetry_equiv_pos_as_xyz
  x,y,z
_cell_length_a	14.908571
_cell_length_b	12.645330
_cell_length_c	14.908858
_cell_angle_alpha	86.675335
_cell_angle_beta	89.795097
_cell_angle_gamma	86.714080
loop_
_atom_site_label
_atom_site_type_symbol
_atom_site_fract_x
_atom_site_fract_y
_atom_site_fract_z
Zn1	Zn	1.345338	-0.473528	-0.587620
Zn2	Zn	1.845338	0.026472	-0.087620
Zn3	Zn	1.353919	-0.661599	-0.437265
Zn4	Zn	1.853919	-0.161599	0.062735
Zn5	Zn	1.203647	-0.474732	-0.428614
Zn6	Zn	1.703647	0.025268	0.071386
Zn7	Zn	1.194952	-0.641127	-0.578920
Zn8	Zn	1.694952	-0.141127	-0.078920
O9	O	1.274464	-0.562747	-0.508105
O10	O	1.774464	-0.062747	-0.008105
O11	O	1.472303	-0.506540	-0.574937
O12	O	1.972303	-0.006540	-0.074937
O13	O	1.341215	-0.645882	-0.310291
O14	O	1.841215	-0.145882	0.189709
O15	O	1.222490	-0.326227	-0.449726
O16	O	1.722490	0.173773	0.050274
O17	O	1.478608	-0.644715	-0.464472
O18	O	1.978608	-0.144715	0.035528
O19	O	1.326590	-0.325342	-0.566547
O20	O	1.826590	0.174658	-0.066547
O21	O	1.230811	-0.508592	-0.303934
O22	O	1.730811	-0.008592	0.196066
O23	O	1.076667	-0.488741	-0.441290
O24	O	1.576667	0.011259	0.058710
O25	O	1.207672	-0.609823	-0.705901
O26	O	1.707672	-0.109823	-0.205901
O27	O	1.070279	-0.610991	-0.551719
O28	O	1.570279	-0.110991	-0.051719
O29	O	1.318160	-0.486689	-0.712293
O30	O	1.818160	0.013311	-0.212293
O31	O	1.332785	-0.807229	-0.456036
O32	O	1.832785	-0.307229	0.043964
O33	O	1.215992	-0.792188	-0.560109
O34	O	1.715992	-0.292188	-0.060109
C35	C	1.040848	-0.547776	-0.494622
C36	C	1.540848	-0.047776	0.005378
C37	C	0.940904	-0.541395	-0.488876
C38	C	1.440904	-0.041395	0.011124
C39	C	0.746505	-0.656926	-0.592913
C40	C	1.246505	-0.156926	-0.092913
C41	C	0.652599	-0.650934	-0.587517
C42	C	1.152599	-0.150934	-0.087517
C43	C	0.659184	-0.523414	-0.472693
C44	C	1.159184	-0.023414	0.027307
C45	C	0.753090	-0.529406	-0.478089
C46	C	1.253090	-0.029406	0.021911
C47	C	0.796747	-0.596165	-0.538200
C48	C	1.296747	-0.096165	-0.038200
C49	C	0.890655	-0.602162	-0.543591
C50	C	1.390655	-0.102162	-0.043591
C51	C	0.897238	-0.474638	-0.428772
C52	C	1.397238	0.025362	0.071228
C53	C	0.803332	-0.468646	-0.423376
C54	C	1.303332	0.031354	0.076624
C55	C	1.274399	-0.838173	-0.508088
C56	C	1.774399	-0.338173	-0.008088
C57	C	1.274452	-0.956005	-0.508116
C58	C	1.774452	-0.456005	-0.008116
C59	C	1.201252	-1.114154	-0.573819
C60	C	1.701252	-0.614154	-0.073819
C61	C	1.200911	-0.991588	-0.573574
C62	C	1.700911	-0.491588	-0.073574
C63	C	1.254270	-1.005757	-0.411878
C64	C	1.754270	-0.505757	0.088122
C65	C	1.253823	-1.128298	-0.412277
C66	C	1.753823	-0.628298	0.087723
C67	C	1.368302	-1.127446	-0.537907
C68	C	1.868302	-0.627446	-0.037907
C69	C	1.367599	-1.004653	-0.539945
C70	C	1.867599	-0.504653	-0.039945
C71	C	1.508993	-0.577776	-0.521640
C72	C	2.008993	-0.077776	-0.021640
C73	C	1.608935	-0.584181	-0.527408
C74	C	2.108935	-0.084181	-0.027408
C75	C	1.260989	-0.545838	-0.742635
C76	C	1.760989	-0.045838	-0.242635
C77	C	1.255246	-0.538633	-0.842577
C78	C	1.755246	-0.038633	-0.342577
C79	C	1.274553	-0.286245	-0.508142
C80	C	1.774553	0.213755	-0.008142
C81	C	1.274591	-0.168416	-0.508158
C82	C	1.774591	0.331584	-0.008158
C83	C	1.189677	-0.457000	-0.980132
C84	C	1.689677	0.043000	-0.480132
C85	C	1.195069	-0.463768	-0.886227
C86	C	1.695069	0.036232	-0.386227
C87	C	1.310037	-0.606732	-0.892840
C88	C	1.810037	-0.106732	-0.392840
C89	C	1.304644	-0.599964	-0.986745
C90	C	1.804644	-0.099964	-0.486745
C91	C	1.244462	-0.525097	-1.030388
C92	C	1.744462	-0.025097	-0.530388
C93	C	1.239065	-0.518335	-1.124295
C94	C	1.739065	-0.018335	-0.624295
C95	C	1.354037	-0.661293	-1.130906
C96	C	1.854037	-0.161293	-0.630906
C97	C	1.359429	-0.668061	-1.037001
C98	C	1.859429	-0.168061	-0.537001
C99	C	1.287939	-0.579516	-0.274490
C100	C	1.787939	-0.079516	0.225510
C101	C	1.293856	-0.586434	-0.174558
C102	C	1.793856	-0.086434	0.325442
H103	H	0.623622	-0.469055	-0.423759
H104	H	1.123622	0.030945	0.076241
H105	H	1.382918	-0.971736	-0.610798
H106	H	1.882918	-0.471736	-0.110798
N107	N	1.443218	-0.973159	-0.481788
N108	N	1.943218	-0.473159	0.018212
H109	H	1.487273	-0.932757	-0.520070
H110	H	1.987273	-0.432757	-0.020070
H111	H	1.417987	-0.926738	-0.433774
H112	H	1.917987	-0.426738	0.066226
H113	H	1.140670	-0.396044	-1.015667
H114	H	1.640670	0.103956	-0.515667
H115	H	1.422874	-1.163380	-0.490150
H116	H	1.922874	-0.663380	0.009850
N117	N	0.951416	-0.409091	-0.369750
N118	N	1.451416	0.090909	0.130250
H119	H	0.992758	-0.457591	-0.330256
H120	H	1.492758	0.042409	0.169744
H121	H	0.988235	-0.359879	-0.408654
H122	H	1.488235	0.140121	0.091346
N123	N	1.164733	-0.961368	-0.378902
N124	N	1.664733	-0.461368	0.121098
H125	H	1.115737	-0.978660	-0.421378
H126	H	1.615737	-0.478660	0.078622
H127	H	1.152427	-0.993880	-0.316918
H128	H	1.652427	-0.493880	0.183082
N129	N	1.135988	-0.390314	-0.832021
N130	N	1.635988	0.109686	-0.332021
H131	H	1.097049	-0.341859	-0.873921
H132	H	1.597049	0.158141	-0.373921
H133	H	1.096598	-0.433599	-0.790649
H134	H	1.596598	0.066401	-0.290649
N135	N	0.756244	-0.396668	-0.358526
N136	N	1.256244	0.103332	0.141474
H137	H	0.689131	-0.402099	-0.363402
H138	H	1.189131	0.097901	0.136598
H139	H	0.776342	-0.418764	-0.295237
H140	H	1.276342	0.081236	0.204763
N141	N	1.174154	-0.437594	-1.171371
N142	N	1.674154	0.062406	-0.671371
H143	H	1.140269	-0.395481	-1.125281
H144	H	1.640269	0.104519	-0.625281
H145	H	1.208533	-0.388074	-1.212452
H146	H	1.708533	0.111926	-0.712452
N147	N	0.598407	-0.716477	-0.646519
N148	N	1.098407	-0.216477	-0.146519
H149	H	0.557062	-0.667979	-0.686011
H150	H	1.057062	-0.167979	-0.186011
H151	H	0.640376	-0.759670	-0.685358
H152	H	1.140376	-0.259670	-0.185358
H153	H	1.408431	-0.729013	-1.001454
H154	H	1.908431	-0.229013	-0.501454
H155	H	1.359040	-0.667679	-0.857290
H156	H	1.859040	-0.167679	-0.357290
N157	N	1.108745	-0.948401	-0.546889
N158	N	1.608745	-0.448401	-0.046889
H159	H	1.068181	-1.009003	-0.535234
H160	H	1.568181	-0.509003	-0.035234
H161	H	1.113603	-0.908385	-0.490579
H162	H	1.613603	-0.408385	0.009421
H163	H	1.398651	-0.716737	-1.171835
H164	H	1.898651	-0.216737	-0.671835
N165	N	1.216785	-0.946319	-0.667872
N166	N	1.716785	-0.446319	-0.167872
H167	H	1.216589	-0.866434	-0.667893
H168	H	1.716589	-0.366434	-0.167893
H169	H	1.276810	-0.975308	-0.690160
H170	H	1.776810	-0.475308	-0.190160
H171	H	1.305218	-1.164898	-0.361392
H172	H	1.805218	-0.664898	0.138608
N173	N	0.937747	-0.674168	-0.608417
N174	N	1.437747	-0.174168	-0.108417
H175	H	0.891666	-0.711747	-0.642260
H176	H	1.391666	-0.211747	-0.142260
H177	H	0.974332	-0.630573	-0.652328
H178	H	1.474332	-0.130573	-0.152328
H179	H	1.213085	-1.139524	-0.645229
H180	H	1.713085	-0.639524	-0.145229
N181	N	1.109643	-1.150638	-0.547453
N182	N	1.609643	-0.650638	-0.047453
H183	H	1.109345	-1.230188	-0.550591
H184	H	1.609345	-0.730188	-0.050591
H185	H	1.095334	-1.130693	-0.484143
H186	H	1.595334	-0.630693	0.015857
H187	H	0.782052	-0.711290	-0.641853
H188	H	1.282052	-0.211290	-0.141853
H189	H	1.185482	-1.154015	-0.387712
H190	H	1.685482	-0.654015	0.112288
H191	H	1.306234	-0.983554	-0.361378
H192	H	1.806234	-0.483554	0.138622
H193	H	1.387782	-1.154913	-0.607180
H194	H	1.887782	-0.654913	-0.107180
