data_functionalizedCrystal
_audit_creation_method	'MofGen! by Chris Wilmer'
_symmetry_space_group_name_H-M	'P1'
_symmetry_Int_Tables_number	1
_symmetry_cell_setting	triclinic
loop_
_symmetry_equiv_pos_as_xyz
  x,y,z
_cell_length_a	25.639239
_cell_length_b	19.805407
_cell_length_c	19.805384
_cell_angle_alpha	89.930859
_cell_angle_beta	89.900224
_cell_angle_gamma	90.040626
loop_
_atom_site_label
_atom_site_type_symbol
_atom_site_fract_x
_atom_site_fract_y
_atom_site_fract_z
Zn1	Zn	-0.207769	1.035004	-0.382730
Zn2	Zn	-0.295312	1.034798	-0.269540
Zn3	Zn	-0.207895	0.921722	-0.269553
Zn4	Zn	-0.295178	0.921758	-0.382685
O5	O	-0.251538	0.978320	-0.326127
O6	O	-0.219385	1.129693	-0.367729
O7	O	-0.283824	1.019697	-0.174824
O8	O	-0.134713	0.936820	-0.284591
O9	O	-0.283702	1.129542	-0.284568
O10	O	-0.134620	1.020048	-0.367742
O11	O	-0.219599	0.936621	-0.174834
O12	O	-0.219470	0.827010	-0.284547
O13	O	-0.283475	0.936881	-0.477408
O14	O	-0.283597	0.827036	-0.367664
O15	O	-0.219256	1.020083	-0.477441
O16	O	-0.368459	1.019732	-0.284524
O17	O	-0.368361	0.936682	-0.367651
C18	C	-0.251533	0.802464	-0.326103
C19	C	-0.251543	0.727232	-0.326108
C20	C	-0.218111	0.265524	-0.369521
C21	C	-0.218112	0.336212	-0.369516
C22	C	-0.251546	0.371471	-0.326149
C23	C	-0.284986	0.336037	-0.282788
C24	C	-0.284987	0.265350	-0.282797
C25	C	-0.284982	0.621110	-0.282752
C26	C	-0.284977	0.691803	-0.282745
C27	C	-0.218107	0.691972	-0.369472
C28	C	-0.218108	0.621285	-0.369481
C29	C	-0.251549	0.585858	-0.326123
C30	C	-0.251548	0.509210	-0.326130
C31	C	-0.251545	0.448118	-0.326138
C32	C	-0.387381	0.978207	-0.326096
C33	C	-0.445495	0.978220	-0.326105
C34	C	-0.805896	1.021678	-0.282916
C35	C	-0.860501	1.021704	-0.282925
O36	O	-0.888770	1.058535	-0.246170
N37	N	-0.887777	0.978439	-0.326172
C38	C	-0.860447	0.935151	-0.369417
O39	O	-0.888662	0.898354	-0.406203
C40	C	-0.805844	0.935128	-0.369411
C41	C	-0.778570	0.978391	-0.326157
C42	C	-0.778622	1.064937	-0.239666
C43	C	-0.724022	1.064910	-0.239656
C44	C	-0.696695	1.021623	-0.282897
C45	C	-0.723969	0.978364	-0.326147
C46	C	-0.778514	0.891844	-0.412659
C47	C	-0.723907	0.891825	-0.412649
C48	C	-0.696633	0.935088	-0.369395
C49	C	-0.642042	0.935049	-0.369377
N50	N	-0.614765	0.978314	-0.326131
C51	C	-0.642092	1.021601	-0.282891
C52	C	-0.975118	0.935202	-0.369427
C53	C	-1.029720	0.935220	-0.369431
C54	C	-1.029770	1.021774	-0.282940
C55	C	-0.975167	1.021752	-0.282934
C56	C	-0.947841	0.978466	-0.326181
C57	C	-0.527427	1.021540	-0.282873
C58	C	-0.472822	1.021507	-0.282865
C59	C	-0.472777	0.934955	-0.369358
C60	C	-0.527377	0.934985	-0.369364
C61	C	-0.554701	0.978283	-0.326119
O62	O	-0.613738	0.898239	-0.406116
O63	O	-0.613870	1.058398	-0.246117
C64	C	-0.115165	0.978453	-0.326173
C65	C	-0.057051	0.978510	-0.326193
C66	C	-0.251336	0.978509	-0.502670
C67	C	-0.251250	0.978589	-0.577903
C68	C	-0.251544	1.154863	-0.326152
C69	C	-0.251547	1.230095	-0.326163
C70	C	-0.251702	0.978172	-0.150271
C71	C	-0.251641	0.978223	-0.075039
C72	C	-0.218420	0.934681	-0.039732
C73	C	-0.218362	0.934735	0.030957
C74	C	-0.251528	0.978328	0.066337
C75	C	-0.284751	1.021874	0.031024
C76	C	-0.284806	1.021823	-0.039663
C77	C	-0.284530	1.022082	0.316097
C78	C	-0.284474	1.022128	0.386789
C79	C	-0.218087	0.934993	0.386716
C80	C	-0.218142	0.934942	0.316029
C81	C	-0.251362	0.978491	0.280723
C82	C	-0.251423	0.978433	0.204075
C83	C	-0.251470	0.978383	0.142983
H84	H	-0.312210	0.592274	-0.247446
O85	O	-0.317393	0.230858	-0.240644
C86	C	-0.287626	0.189949	-0.196990
H87	H	-0.248004	0.179426	-0.220954
H88	H	-0.308925	0.140211	-0.187878
H89	H	-0.281880	0.217128	-0.146840
O90	O	-0.316765	1.064446	0.421085
C91	C	-0.368971	1.050078	0.404038
H92	H	-0.370243	1.024037	0.352767
H93	H	-0.392141	1.099125	0.401614
H94	H	-0.386746	1.015455	0.443949
H95	H	-0.701661	0.856577	-0.447869
O96	O	-0.317510	0.725949	-0.240598
C97	C	-0.347018	0.679523	-0.202320
H98	H	-0.348831	0.629169	-0.230044
H99	H	-0.388212	0.699906	-0.195009
H100	H	-0.327875	0.671955	-0.150957
H101	H	-0.190879	0.720826	-0.404778
H102	H	-0.450617	1.056736	-0.247640
O103	O	-0.186000	0.892521	0.281635
C104	C	-0.216044	0.849038	0.240927
H105	H	-0.257229	0.845224	0.262383
H106	H	-0.197427	0.796789	0.240162
H107	H	-0.217768	0.869939	0.187319
O108	O	-0.185705	0.231202	-0.411683
C109	C	-0.215477	0.190358	-0.455345
H110	H	-0.255098	0.179700	-0.431380
H111	H	-0.194181	0.140682	-0.464474
H112	H	-0.221225	0.217663	-0.505487
O113	O	-0.186176	0.892427	-0.074172
C114	C	-0.152216	0.930647	-0.115243
H115	H	-0.170377	0.982087	-0.125868
H116	H	-0.145402	0.902981	-0.164921
H117	H	-0.113408	0.937776	-0.088153
H118	H	-0.311582	1.057540	0.287359
H119	H	-0.549668	1.056798	-0.247660
H120	H	-0.952963	1.056980	-0.247713
O121	O	-0.317490	0.370361	-0.240755
C122	C	-0.351268	0.411260	-0.279208
H123	H	-0.332829	0.421933	-0.330543
H124	H	-0.358271	0.460925	-0.251615
H125	H	-0.390016	0.383995	-0.286557
H126	H	-0.311753	1.057371	0.059836
O127	O	-0.317103	1.064025	-0.074037
C128	C	-0.351128	1.025748	-0.114720
H129	H	-0.332984	0.974291	-0.125275
H130	H	-0.358016	1.053342	-0.164456
H131	H	-0.389894	1.018660	-0.087328
H132	H	-0.701819	1.100140	-0.204437
H133	H	-0.549585	0.899760	-0.404587
H134	H	-0.191035	0.899536	0.415471
H135	H	-1.052029	1.057023	-0.247733
O136	O	-0.185654	0.370550	-0.411726
C137	C	-0.197087	0.353366	-0.479163
H138	H	-0.217189	0.302028	-0.480525
H139	H	-0.159351	0.351017	-0.509595
H140	H	-0.223964	0.393157	-0.501899
O141	O	-0.185686	0.587067	-0.411706
C142	C	-0.197109	0.604433	-0.479135
H143	H	-0.238877	0.623834	-0.482450
H144	H	-0.192610	0.557995	-0.512591
H145	H	-0.169077	0.645512	-0.496889
O146	O	-0.805082	1.107009	-0.197593
C147	C	-0.769289	1.145193	-0.159438
H148	H	-0.730394	1.117446	-0.157076
H149	H	-0.785127	1.152404	-0.106113
H150	H	-0.763405	1.196604	-0.184269
O151	O	-1.056130	0.893168	-0.411506
C152	C	-1.020295	0.854947	-0.449653
H153	H	-0.981346	0.882656	-0.452011
H154	H	-1.035996	0.847745	-0.502979
H155	H	-1.014565	0.803533	-0.424815
O156	O	-0.948518	0.893110	-0.411340
C157	C	-0.917034	0.849356	-0.372760
H158	H	-0.908901	0.873213	-0.321490
H159	H	-0.878609	0.840269	-0.400321
H160	H	-0.938133	0.799208	-0.365273
O161	O	-0.804919	0.849799	-0.454743
C162	C	-0.769080	0.811586	-0.492892
H163	H	-0.730133	0.839299	-0.495243
H164	H	-0.784778	0.804390	-0.546220
H165	H	-0.763349	0.760169	-0.468060
H166	H	-0.450519	0.899709	-0.404562
O167	O	-0.186074	0.892375	0.065149
C168	C	-0.156805	0.853898	0.018764
H169	H	-0.178275	0.851697	-0.031541
H170	H	-0.151509	0.800539	0.039274
H171	H	-0.116965	0.878343	0.011053
