data_functionalizedCrystal
_audit_creation_method	'MofGen! by Chris Wilmer'
_symmetry_space_group_name_H-M	'P1'
_symmetry_Int_Tables_number	1
_symmetry_cell_setting	triclinic
loop_
_symmetry_equiv_pos_as_xyz
  x,y,z
_cell_length_a	10.723023
_cell_length_b	10.723024
_cell_length_c	15.455425
_cell_angle_alpha	87.037129
_cell_angle_beta	87.024105
_cell_angle_gamma	84.467709
loop_
_atom_site_label
_atom_site_type_symbol
_atom_site_fract_x
_atom_site_fract_y
_atom_site_fract_z
O1	O	1.662107	0.179915	-0.072119
O2	O	1.298954	0.196669	-0.072122
O3	O	1.488907	0.006716	-0.072117
O4	O	1.472154	0.369869	-0.072124
O5	O	1.479054	-0.003077	0.072143
O6	O	1.289101	0.186877	0.072138
O7	O	1.652253	0.170123	0.072141
Cu8	Cu	1.469778	0.177606	0.085312
Cu9	Cu	1.481430	0.189186	-0.085292
O10	O	1.462301	0.360076	0.072136
C11	C	1.247528	0.190554	0.000007
C12	C	1.108974	0.186907	0.000006
C13	C	1.042098	0.180208	0.074736
C14	C	0.898895	0.176439	0.074737
C15	C	1.482761	-0.044680	0.000012
C16	C	1.479114	-0.183234	0.000009
C17	C	1.585401	-0.258217	0.000009
C18	C	1.581634	-0.401420	0.000005
C19	C	1.703680	0.176238	0.000010
C20	C	1.842234	0.179886	0.000005
C21	C	1.468447	0.411472	0.000005
C22	C	1.472095	0.550027	0.000003
N23	N	1.461591	0.169460	0.205305
N24	N	1.489627	0.197322	-0.205286
C25	C	1.416394	0.124048	0.749303
C26	C	1.422578	0.130256	0.658497
C27	C	1.501988	0.209747	0.613103
C28	C	1.575229	0.283024	0.658520
C29	C	1.569051	0.276808	0.749325
C30	C	1.528654	0.236522	0.341527
C31	C	1.534824	0.242735	0.250716
C32	C	1.382173	0.089964	0.250699
C33	C	1.375997	0.083761	0.341506
C34	C	1.449243	0.157033	0.386915
N35	N	1.508307	0.216098	0.520284
N36	N	1.442929	0.150675	0.479732
H37	H	0.899718	0.185634	-0.063977
H38	H	1.322542	0.030309	0.213717
C39	C	1.649608	0.357422	0.799276
N40	N	1.710287	0.418141	0.836899
H41	H	1.679187	-0.216395	0.000015
C42	C	1.352408	-0.239727	0.000009
N43	N	1.256970	-0.282275	0.000011
C44	C	1.329035	0.036602	0.799228
N45	N	1.263238	-0.029269	0.836829
H46	H	0.841401	0.170704	0.138716
C47	C	1.622189	0.330180	0.200785
N48	N	1.687988	0.396042	0.163176
C49	C	1.662592	0.370455	0.608583
N50	N	1.728395	0.436309	0.570972
C51	C	1.107960	0.176284	0.161173
N52	N	1.157564	0.173350	0.226279
H53	H	1.060212	0.189848	-0.063973
H54	H	1.362947	0.070584	0.621527
C55	C	1.704563	-0.488463	0.000006
N56	N	1.797157	-0.554027	0.000005
C57	C	1.288631	-0.003676	0.391432
N58	N	1.222819	-0.069529	0.429037
H59	H	1.381099	-0.385548	0.000009
C60	C	1.609170	0.317182	0.391466
N61	N	1.669799	0.377959	0.429083
