data_functionalizedCrystal
_audit_creation_method	'MofGen! by Chris Wilmer'
_symmetry_space_group_name_H-M	'P1'
_symmetry_Int_Tables_number	1
_symmetry_cell_setting	triclinic
loop_
_symmetry_equiv_pos_as_xyz
  x,y,z
_cell_length_a	19.121063
_cell_length_b	12.759401
_cell_length_c	12.759393
_cell_angle_alpha	90.019553
_cell_angle_beta	92.402665
_cell_angle_gamma	87.534562
loop_
_atom_site_label
_atom_site_type_symbol
_atom_site_fract_x
_atom_site_fract_y
_atom_site_fract_z
Zn1	Zn	-0.279635	-1.588305	-0.611836
Zn2	Zn	-0.397104	-1.580667	-0.443631
Zn3	Zn	-0.279665	-1.412609	-0.436170
Zn4	Zn	-0.397042	-1.405064	-0.619262
O5	O	-0.338361	-1.496661	-0.527725
O6	O	-0.295231	-1.734312	-0.589537
O7	O	-0.381564	-1.558335	-0.295622
O8	O	-0.181377	-1.442269	-0.453243
O9	O	-0.381535	-1.728700	-0.465958
O10	O	-0.181355	-1.571353	-0.582304
O11	O	-0.295281	-1.434863	-0.290141
O12	O	-0.295221	-1.264588	-0.460443
O13	O	-0.381429	-1.429410	-0.765295
O14	O	-0.381458	-1.259045	-0.594960
O15	O	-0.295171	-1.564037	-0.759840
O16	O	-0.495379	-1.551019	-0.473158
O17	O	-0.495334	-1.422004	-0.602194
C18	C	-0.338337	-1.223695	-0.527698
C19	C	-0.338343	-1.106918	-0.527713
C20	C	-0.293390	-0.945190	-0.457792
C21	C	-0.293379	-1.054915	-0.457784
C22	C	-0.383316	-1.049192	-0.597663
C23	C	-0.383322	-0.939469	-0.597675
C24	C	-0.248428	-0.893192	-0.387850
C25	C	-0.203454	-0.950911	-0.317902
C26	C	-0.203443	-1.060636	-0.317894
C27	C	-0.248406	-1.112642	-0.387834
C28	C	-0.520840	-1.484893	-0.539314
C29	C	-0.598906	-1.479954	-0.544307
C30	C	-0.635582	-1.544857	-0.479527
C31	C	-0.708932	-1.540219	-0.484229
C32	C	-0.745606	-1.470671	-0.553707
C33	C	-0.708925	-1.405765	-0.618495
C34	C	-0.635576	-1.410410	-0.613797
C35	C	-0.967074	-1.453290	-0.571254
C36	C	-1.040428	-1.448648	-0.575945
C37	C	-1.040430	-1.583104	-0.441680
C38	C	-0.967080	-1.587737	-0.436984
C39	C	-0.930405	-1.522835	-0.501776
C40	C	-0.820582	-1.465926	-0.558513
C41	C	-0.855430	-1.527587	-0.496974
C42	C	-0.155169	-1.508504	-0.516113
C43	C	-0.077104	-1.513551	-0.511165
C44	C	-0.338290	-1.496734	-0.801754
C45	C	-0.338259	-1.496765	-0.918528
C46	C	-0.338377	-0.770693	-0.527744
C47	C	-0.338360	-0.887471	-0.527734
C48	C	-0.293324	-1.432502	-0.970542
C49	C	-0.293303	-1.432535	-1.080265
C50	C	-0.383155	-1.561103	-1.085951
C51	C	-0.383179	-1.561064	-0.976230
C52	C	-0.248404	-1.368204	-0.912840
C53	C	-0.203465	-1.303936	-0.964853
C54	C	-0.203444	-1.303970	-1.074576
C55	C	-0.248363	-1.368270	-1.132286
C56	C	-0.338382	-1.496652	-0.254759
C57	C	-0.338214	-1.496838	-0.137972
H58	H	-0.419923	-1.091543	-0.654604
H59	H	-0.738790	-1.593069	-0.431477
O60	O	-0.744517	-1.338322	-0.686136
C61	C	-0.726513	-1.362349	-0.789714
H62	H	-0.706304	-1.447558	-0.793800
H63	H	-0.774727	-1.350218	-0.844697
H64	H	-0.683950	-1.308701	-0.814403
O65	O	-0.248326	-0.786614	-0.387752
C66	C	-0.199013	-0.753092	-0.311006
H67	H	-0.157961	-0.818952	-0.293775
H68	H	-0.172393	-0.681409	-0.341084
H69	H	-0.226810	-0.731807	-0.236100
H70	H	-0.248415	-1.368172	-0.823498
H71	H	-0.166857	-1.251633	-1.116923
H72	H	-0.605715	-1.357560	-0.666549
H73	H	-0.248387	-1.201988	-0.387831
O74	O	-0.819886	-1.595084	-0.429342
C75	C	-0.837861	-1.571017	-0.325760
H76	H	-0.891141	-1.527265	-0.326955
H77	H	-0.840350	-1.646705	-0.278868
H78	H	-0.796627	-1.519622	-0.287696
H79	H	-0.166818	-1.107629	-0.260946
O80	O	-0.856287	-1.398504	-0.626051
C81	C	-0.898634	-1.455603	-0.696691
H82	H	-0.909594	-1.534555	-0.660416
H83	H	-0.950232	-1.409542	-0.714025
H84	H	-0.870321	-1.468883	-0.772752
H85	H	-0.419760	-1.613407	-0.933879
H86	H	-1.070299	-1.635944	-0.388933
O87	O	-0.159858	-1.241573	-0.908639
C88	C	-0.169523	-1.255302	-0.800643
H89	H	-0.192536	-1.334889	-0.787115
H90	H	-0.116921	-1.251565	-0.755617
H91	H	-0.206924	-1.190555	-0.771869
H92	H	-0.248344	-1.368289	-1.221629
H93	H	-0.419724	-1.613456	-1.132946
H94	H	-0.419939	-0.892473	-0.654631
H95	H	-0.166843	-0.908561	-0.260965
H96	H	-0.605727	-1.601486	-0.422946
O97	O	-1.076025	-1.381206	-0.643593
C98	C	-1.058027	-1.405240	-0.747173
H99	H	-1.037814	-1.490447	-0.751253
H100	H	-1.106245	-1.393119	-0.802149
H101	H	-1.015469	-1.351589	-0.771873
H102	H	-0.937221	-1.644369	-0.380410
H103	H	-0.937219	-1.400442	-0.624008
