data_functionalizedCrystal
_audit_creation_method	'MofGen! by Chris Wilmer'
_symmetry_space_group_name_H-M	'P1'
_symmetry_Int_Tables_number	1
_symmetry_cell_setting	triclinic
loop_
_symmetry_equiv_pos_as_xyz
  x,y,z
_cell_length_a	12.759401
_cell_length_b	13.897448
_cell_length_c	12.759393
_cell_angle_alpha	90.030759
_cell_angle_beta	89.980903
_cell_angle_gamma	89.980448
loop_
_atom_site_label
_atom_site_type_symbol
_atom_site_fract_x
_atom_site_fract_y
_atom_site_fract_z
Zn1	Zn	1.606220	0.383958	-0.594004
Zn2	Zn	1.606099	0.545288	-0.418327
Zn3	Zn	1.430522	0.384008	-0.418342
Zn4	Zn	1.430496	0.545213	-0.593966
O5	O	1.518334	0.464617	-0.506160
O6	O	1.753225	0.405369	-0.570710
O7	O	1.582769	0.523946	-0.271308
O8	O	1.453890	0.249020	-0.441666
O9	O	1.753136	0.523898	-0.441640
O10	O	1.582975	0.248983	-0.570724
O11	O	1.453773	0.405455	-0.271318
O12	O	1.283497	0.405382	-0.441629
O13	O	1.453845	0.523770	-0.740992
O14	O	1.283478	0.523819	-0.570660
O15	O	1.582949	0.405297	-0.741020
O16	O	1.582744	0.680260	-0.441604
O17	O	1.453728	0.680205	-0.570645
C18	C	1.245367	0.464598	-0.506143
C19	C	1.128590	0.464614	-0.506160
C20	C	0.964044	0.403020	-0.573479
C21	C	1.073769	0.403007	-0.573470
C22	C	1.073682	0.526245	-0.438863
C23	C	0.963960	0.526263	-0.438878
C24	C	0.909229	0.341402	-0.640786
C25	C	0.964129	0.279772	-0.708085
C26	C	1.073853	0.279758	-0.708076
C27	C	1.128677	0.341375	-0.640767
C28	C	1.518249	0.715231	-0.506142
C29	C	1.518308	0.822445	-0.506169
C30	C	1.518411	1.018740	-0.506244
C31	C	1.518351	0.909508	-0.506206
C32	C	1.792367	0.464636	-0.506177
C33	C	1.909144	0.464644	-0.506185
C34	C	1.518408	0.464520	-0.780193
C35	C	1.518439	0.464478	-0.896970
C36	C	1.518440	1.213024	-0.506213
C37	C	1.518462	1.105810	-0.506267
C38	C	1.585673	0.402783	-0.951848
C39	C	1.585698	0.402748	-1.061572
C40	C	1.451252	0.526112	-1.061530
C41	C	1.451223	0.526141	-0.951808
C42	C	1.652889	0.341121	-0.897010
C43	C	1.720129	0.279422	-0.951888
C44	C	1.720154	0.279387	-1.061612
C45	C	1.652939	0.341051	-1.116458
C46	C	1.518321	0.464644	-0.233192
C47	C	1.518493	0.464414	-0.116416
H48	H	1.118550	0.229582	-0.762881
C49	C	1.794114	0.211514	-1.121975
N50	N	1.849828	0.160394	-1.167438
C51	C	1.794056	0.211590	-0.891556
N52	N	1.849740	0.160498	-0.846115
C53	C	1.377268	0.594013	-0.891439
N54	N	1.321562	0.645136	-0.845968
C55	C	1.377323	0.593939	-1.121865
N56	N	1.321639	0.645029	-1.167309
C57	C	0.903566	0.594052	-0.364850
N58	N	0.858077	0.645114	-0.309092
C59	C	1.249377	0.341361	-0.640765
N60	N	1.340287	0.341345	-0.640760
C61	C	1.133992	0.594009	-0.364818
N62	N	1.179418	0.645046	-0.309042
C63	C	0.788530	0.341412	-0.640804
N64	N	0.697620	0.341420	-0.640815
C65	C	1.652965	0.341004	-1.237159
N66	N	1.652989	0.340971	-1.328069
H67	H	0.919485	0.229611	-0.762891
H68	H	1.652878	0.341144	-0.807667
