data_functionalizedCrystal
_audit_creation_method	'MofGen! by Chris Wilmer'
_symmetry_space_group_name_H-M	'P1'
_symmetry_Int_Tables_number	1
_symmetry_cell_setting	triclinic
loop_
_symmetry_equiv_pos_as_xyz
  x,y,z
_cell_length_a	18.050591
_cell_length_b	19.805405
_cell_length_c	19.805380
_cell_angle_alpha	90.106198
_cell_angle_beta	89.924412
_cell_angle_gamma	89.976267
loop_
_atom_site_label
_atom_site_type_symbol
_atom_site_fract_x
_atom_site_fract_y
_atom_site_fract_z
Zn1	Zn	1.135696	0.269025	-0.382813
Zn2	Zn	1.635696	0.769025	0.117187
Zn3	Zn	1.135489	0.382369	-0.269624
Zn4	Zn	1.635489	0.882369	0.230376
Zn5	Zn	1.011397	0.269191	-0.269627
Zn6	Zn	1.511397	0.769191	0.230373
Zn7	Zn	1.011464	0.382169	-0.382761
Zn8	Zn	1.511464	0.882169	0.117239
O9	O	1.073512	0.325689	-0.326206
O10	O	1.573512	0.825689	0.173794
O11	O	1.239593	0.284074	-0.367818
O12	O	1.739593	0.784074	0.132182
O13	O	1.118913	0.367509	-0.174908
O14	O	1.618913	0.867509	0.325092
O15	O	1.027944	0.174453	-0.284664
O16	O	1.527944	0.674453	0.215336
O17	O	1.239441	0.367347	-0.284659
O18	O	1.739441	0.867347	0.215341
O19	O	1.119266	0.174330	-0.367821
O20	O	1.619266	0.674330	0.132179
O21	O	1.027743	0.284358	-0.174910
O22	O	1.527743	0.784358	0.325090
O23	O	0.907481	0.284164	-0.284614
O24	O	1.407481	0.784164	0.215386
O25	O	1.028059	0.367008	-0.477485
O26	O	1.528059	0.867008	0.022515
O27	O	0.907531	0.367169	-0.367734
O28	O	1.407531	0.867169	0.132266
O29	O	1.119331	0.283881	-0.477523
O30	O	1.619331	0.783881	0.022477
O31	O	1.118979	0.477059	-0.284610
O32	O	1.618979	0.977059	0.215390
O33	O	1.027858	0.476913	-0.367731
O34	O	1.527858	0.976913	0.132269
C35	C	1.073424	0.501545	-0.326179
C36	C	1.573424	1.001545	0.173821
C37	C	1.073454	0.576777	-0.326190
C38	C	1.573454	1.076777	0.173810
C39	C	0.880559	0.325663	-0.326169
C40	C	1.380559	0.825663	0.173831
C41	C	0.798014	0.325669	-0.326169
C42	C	1.298014	0.825669	0.173831
C43	C	1.120946	0.612175	-0.282955
C44	C	1.620946	1.112175	0.217045
C45	C	1.120975	0.682863	-0.282973
C46	C	1.620975	1.182863	0.217027
C47	C	1.073509	0.718152	-0.326222
C48	C	1.573509	1.218152	0.173778
C49	C	1.026015	0.682749	-0.369461
C50	C	1.526015	1.182749	0.130539
C51	C	1.025990	0.612062	-0.369447
C52	C	1.525990	1.112062	0.130553
C53	C	1.026118	0.967823	-0.369521
C54	C	1.526118	1.467823	0.130479
C55	C	1.026145	1.038515	-0.369530
C56	C	1.526145	1.538515	0.130470
C57	C	1.121103	1.038623	-0.283046
C58	C	1.621103	1.538623	0.216954
C59	C	1.121078	0.967936	-0.283032
C60	C	1.621078	1.467936	0.216968
C61	C	1.073587	0.932539	-0.326274
C62	C	1.573587	1.432539	0.173726
C63	C	1.073556	0.855891	-0.326255
C64	C	1.573556	1.355891	0.173745
C65	C	1.073536	0.794799	-0.326237
C66	C	1.573536	1.294799	0.173763
C67	C	0.598515	0.280478	-0.281073
C68	C	1.098515	0.780478	0.218927
C69	C	0.549078	0.342237	-0.264415
C70	C	1.049078	0.842237	0.235585
C71	C	0.646883	0.325689	-0.326200
C72	C	1.146883	0.825689	0.173800
C73	C	0.549238	0.263953	-0.342856
C74	C	1.049238	0.763953	0.157144
C75	C	0.500898	0.325704	-0.326228
C76	C	1.000898	0.825704	0.173772
C77	C	0.598534	0.387480	-0.309510
C78	C	1.098534	0.887480	0.190490
C79	C	0.598698	0.309154	-0.387979
C80	C	1.098698	0.809154	0.112021
C81	C	0.549284	0.370955	-0.371345
C82	C	1.049284	0.870955	0.128655
C83	C	0.730982	0.325680	-0.326182
C84	C	1.230982	0.825680	0.173818
C85	C	0.416802	0.325720	-0.326246
C86	C	0.916802	0.825720	0.173754
C87	C	1.267217	0.325714	-0.326244
C88	C	1.767217	0.825714	0.173756
C89	C	1.349763	0.325725	-0.326261
C90	C	1.849763	0.825725	0.173739
C91	C	1.073726	0.325403	-0.502750
C92	C	1.573726	0.825403	-0.002750
C93	C	1.073817	0.325282	-0.577982
C94	C	1.573817	0.825282	-0.077982
C95	C	1.073614	1.149146	-0.326256
C96	C	1.573614	1.649146	0.173744
C97	C	1.073641	1.073914	-0.326298
C98	C	1.573641	1.573914	0.173702
C99	C	1.073341	0.325924	-0.150350
C100	C	1.573341	0.825924	0.349650
C101	C	1.073394	0.325855	-0.075118
C102	C	1.573394	0.825855	0.424882
C103	C	1.025977	0.282345	0.386639
C104	C	1.525977	0.782345	0.886639
C105	C	1.025914	0.282428	0.315951
C106	C	1.525914	0.782428	0.815951
C107	C	1.073695	0.325446	0.280643
C108	C	1.573695	0.825446	0.780643
C109	C	1.121536	0.368388	0.316027
C110	C	1.621536	0.868388	0.816027
C111	C	1.121595	0.368307	0.386714
C112	C	1.621595	0.868307	0.886714
C113	C	1.121299	0.368713	0.030954
C114	C	1.621299	0.868713	0.530954
C115	C	1.121237	0.368789	-0.039738
C116	C	1.621237	0.868789	0.460262
C117	C	1.025618	0.282834	-0.039809
C118	C	1.525618	0.782834	0.460191
C119	C	1.025677	0.282754	0.030878
C120	C	1.525677	0.782754	0.530878
C121	C	1.073515	0.325698	0.066256
C122	C	1.573515	0.825698	0.566256
C123	C	1.073582	0.325608	0.142904
C124	C	1.573582	0.825608	0.642904
C125	C	1.073632	0.325533	0.203996
C126	C	1.573632	0.825533	0.703996
H127	H	1.159595	0.583447	-0.247734
H128	H	1.659595	1.083447	0.252266
C129	C	0.627725	0.228885	-0.229463
C130	C	1.127725	0.728885	0.270537
N131	N	0.649728	0.190028	-0.190588
N132	N	1.149728	0.690028	0.309412
C133	C	0.628171	0.290218	-0.458521
C134	C	1.128171	0.790218	0.041479
N135	N	0.650373	0.275946	-0.511652
N136	N	1.150373	0.775946	-0.011652
H137	H	0.987371	0.711487	-0.404678
H138	H	1.487371	1.211487	0.095322
H139	H	1.159647	0.711681	-0.247766
H140	H	1.659647	1.211681	0.252234
H141	H	1.159727	0.939206	-0.247812
H142	H	1.659727	1.439206	0.252188
C143	C	0.973914	0.928895	-0.417122
C144	C	1.473914	1.428895	0.082878
N145	N	0.934606	0.899573	-0.452991
N146	N	1.434606	1.399573	0.047009
H147	H	0.527803	0.409239	-0.409519
H148	H	1.027803	0.909239	0.090481
H149	H	0.987318	0.583242	-0.404654
H150	H	1.487318	1.083242	0.095346
C151	C	0.973295	0.235187	0.277037
C152	C	1.473295	0.735187	0.777037
N153	N	0.933661	0.199600	0.247728
N154	N	1.433661	0.699600	0.747728
C155	C	0.519631	0.361142	-0.193852
C156	C	1.019631	0.861142	0.306148
N157	N	0.497452	0.375377	-0.140702
N158	N	0.997452	0.875377	0.359298
H159	H	0.620098	0.439712	-0.295376
H160	H	1.120098	0.939712	0.204624
H161	H	1.160436	0.403417	0.287273
H162	H	1.660436	0.903417	0.787273
H163	H	0.527545	0.211743	-0.356908
H164	H	1.027545	0.711743	0.143092
H165	H	1.159775	1.067452	-0.247839
H166	H	1.659775	1.567452	0.252161
H167	H	1.160556	0.403266	0.415518
H168	H	1.660556	0.903266	0.915518
C169	C	0.973414	0.235021	0.425471
C170	C	1.473414	0.735021	0.925471
N171	N	0.933819	0.199378	0.454718
N172	N	1.433819	0.699378	0.954718
H173	H	0.987493	1.067245	-0.404754
H174	H	1.487493	1.567245	0.095246
H175	H	0.986772	0.247722	0.059622
H176	H	1.486772	0.747722	0.559622
C177	C	1.173963	0.415916	0.069860
C178	C	1.673963	0.915916	0.569860
N179	N	1.213647	0.451458	0.099167
N180	N	1.713647	0.951458	0.599167
H181	H	0.986663	0.247869	-0.068622
H182	H	1.486663	0.747869	0.431378
H183	H	1.160148	0.403822	-0.068484
H184	H	1.660148	0.903822	0.431516
