data_functionalizedCrystal
_audit_creation_method	'MofGen! by Chris Wilmer'
_symmetry_space_group_name_H-M	'P1'
_symmetry_Int_Tables_number	1
_symmetry_cell_setting	triclinic
loop_
_symmetry_equiv_pos_as_xyz
  x,y,z
_cell_length_a	10.654550
_cell_length_b	23.532357
_cell_length_c	22.610064
_cell_angle_alpha	89.989969
_cell_angle_beta	89.981186
_cell_angle_gamma	83.656597
loop_
_atom_site_label
_atom_site_type_symbol
_atom_site_fract_x
_atom_site_fract_y
_atom_site_fract_z
O1	O	1.665295	0.079985	-0.049241
O2	O	1.299573	0.087606	-0.049232
O3	O	1.493495	0.000934	-0.049225
O4	O	1.471373	0.166657	-0.049249
O5	O	1.493438	0.000934	0.049144
O6	O	1.299516	0.087606	0.049137
O7	O	1.665239	0.079985	0.049128
Zn8	Zn	1.482368	0.083795	0.064751
Zn9	Zn	1.482443	0.083796	-0.064855
O10	O	1.471316	0.166657	0.049120
C11	C	1.252764	0.087046	-0.000047
C12	C	1.113375	0.085372	-0.000043
C13	C	1.032252	0.136403	-0.000059
C14	C	0.901282	0.134827	-0.000069
C15	C	0.932570	0.031184	-0.000049
C16	C	1.063537	0.032761	-0.000035
C17	C	1.014187	0.196241	-0.000072
C18	C	0.883217	0.194664	-0.000082
C19	C	1.492913	-0.020286	-0.000038
C20	C	1.491250	-0.083516	-0.000033
C21	C	1.480836	-0.475595	-0.053686
C22	C	1.479255	-0.535005	-0.053689
O23	O	1.478421	-0.565726	-0.099292
N24	N	1.478440	-0.564721	-0.000069
C25	C	1.479194	-0.535024	0.053559
O26	O	1.478354	-0.565755	0.099167
C27	C	1.480766	-0.475615	0.053561
C28	C	1.481594	-0.445902	-0.000063
C29	C	1.481663	-0.445882	-0.107305
C30	C	1.483246	-0.386477	-0.107302
C31	C	1.484004	-0.356784	-0.053678
C32	C	1.483177	-0.386497	-0.000059
C33	C	1.481511	-0.445919	0.107188
C34	C	1.483082	-0.386505	0.107186
C35	C	1.483910	-0.356793	0.053562
C36	C	1.485519	-0.297399	0.053568
N37	N	1.486334	-0.267682	-0.000053
C38	C	1.485576	-0.297375	-0.053676
C39	C	1.475889	-0.659787	0.053549
C40	C	1.474326	-0.719196	0.053547
C41	C	1.474385	-0.719172	-0.053701
C42	C	1.475957	-0.659763	-0.053698
C43	C	1.476704	-0.630071	-0.000072
C44	C	1.488903	-0.172619	-0.053664
C45	C	1.490492	-0.113208	-0.053656
C46	C	1.490427	-0.113237	0.053591
C47	C	1.488844	-0.172643	0.053583
C48	C	1.488078	-0.202332	-0.000049
O49	O	1.486349	-0.266639	0.099147
O50	O	1.486400	-0.266635	-0.099276
C51	C	1.712047	0.080545	-0.000059
C52	C	1.851437	0.082219	-0.000067
C53	C	1.471898	0.187877	-0.000067
C54	C	1.473562	0.251107	-0.000077
N55	N	1.482327	0.083795	0.153203
N56	N	1.482495	0.083792	-0.153307
C57	C	1.558157	0.118650	0.561837
C58	C	1.558173	0.118649	0.623757
O59	O	1.622597	0.148281	0.655770
N60	N	1.482467	0.083789	0.654740
C61	C	1.406750	0.048924	0.623800
O62	O	1.342359	0.019273	0.655839
C63	C	1.406742	0.048923	0.561881
C64	C	1.482443	0.083789	0.530902
C65	C	1.633854	0.153513	0.530858
C66	C	1.633836	0.153515	0.468942
C67	C	1.558122	0.118654	0.438006
C68	C	1.482425	0.083791	0.468986
C69	C	1.331032	0.014056	0.530942
C70	C	1.331032	0.014057	0.469019
C71	C	1.406733	0.048923	0.438039
C72	C	1.406693	0.048932	0.376134
N73	N	1.482399	0.083792	0.345151
C74	C	1.558113	0.118653	0.376087
C75	C	1.406775	0.048929	0.753834
C76	C	1.406775	0.048933	0.815751
C77	C	1.558200	0.118657	0.815704
C78	C	1.558192	0.118656	0.753785
C79	C	1.482481	0.083789	0.722851
C80	C	1.558069	0.118655	0.246060
C81	C	1.558041	0.118656	0.184139
C82	C	1.406621	0.048930	0.184191
C83	C	1.406644	0.048931	0.246107
C84	C	1.482378	0.083795	0.277040
O85	O	1.342306	0.019314	0.344082
O86	O	1.622507	0.148294	0.344041
H87	H	1.491169	-0.089019	-0.097325
H88	H	0.836941	0.212748	0.042384
Br89	Br	1.660936	0.165974	0.711748
Br90	Br	1.491458	-0.072929	0.126362
Br91	Br	1.173631	-0.036498	0.000004
Br92	Br	1.303999	0.001611	0.711857
H93	H	1.473764	-0.743358	-0.097364
Br94	Br	1.480382	-0.486228	0.179968
Br95	Br	1.072651	0.227995	-0.070862
Br96	Br	1.477080	-0.619445	-0.126476
Br97	Br	1.660853	0.165971	0.288031
Br98	Br	1.487750	-0.212970	0.126359
H99	H	0.840785	0.217210	-0.041256
H100	H	1.488274	-0.196785	-0.097337
H101	H	1.483916	-0.362289	-0.150968
Br102	Br	1.061795	0.235249	0.068535
H103	H	1.481041	-0.470051	-0.150974
H104	H	1.473671	-0.743384	0.097213
Br105	Br	1.476911	-0.619497	0.126335
Br106	Br	0.864925	-0.040214	-0.000037
Br107	Br	1.484093	-0.346212	0.179969
H108	H	1.619686	0.147050	0.158918
Br109	Br	1.736554	0.200847	0.426908
H110	H	1.695516	0.181901	0.556039
Br111	Br	1.228285	-0.033265	0.572970
H112	H	1.619849	0.147043	0.840903
Br113	Br	1.304009	0.001623	0.857787
H114	H	1.344986	0.020547	0.271332
H115	H	1.269377	-0.014337	0.443835
H116	H	1.344973	0.020548	0.158992
