data_functionalizedCrystal
_audit_creation_method	'MofGen! by Chris Wilmer'
_symmetry_space_group_name_H-M	'P1'
_symmetry_Int_Tables_number	1
_symmetry_cell_setting	triclinic
loop_
_symmetry_equiv_pos_as_xyz
  x,y,z
_cell_length_a	17.699104
_cell_length_b	17.699092
_cell_length_c	14.586319
_cell_angle_alpha	89.997896
_cell_angle_beta	89.995610
_cell_angle_gamma	83.288943
loop_
_atom_site_label
_atom_site_type_symbol
_atom_site_fract_x
_atom_site_fract_y
_atom_site_fract_z
O1	O	1.004068	0.095785	-0.076255
O2	O	1.504068	0.595785	0.423745
O3	O	0.783692	0.108221	-0.076253
O4	O	1.283692	0.608221	0.423747
O5	O	0.900103	-0.008185	-0.076252
O6	O	1.400103	0.491815	0.423748
O7	O	0.887657	0.212191	-0.076256
O8	O	1.387657	0.712191	0.423744
O9	O	0.900095	-0.008187	0.076229
O10	O	1.400095	0.491813	0.576229
O11	O	0.783684	0.108219	0.076228
O12	O	1.283684	0.608219	0.576228
O13	O	1.004060	0.095783	0.076225
O14	O	1.504060	0.595783	0.576225
Cu15	Cu	0.893871	0.102001	0.090149
Cu16	Cu	1.393871	0.602001	0.590149
Cu17	Cu	0.893881	0.102003	-0.090177
Cu18	Cu	1.393881	0.602003	0.409823
O19	O	0.887649	0.212189	0.076225
O20	O	1.387649	0.712189	0.576225
C21	C	0.755491	0.107772	-0.000012
C22	C	1.255491	0.607772	0.499988
C23	C	0.671474	0.106427	-0.000011
C24	C	1.171474	0.606427	0.499989
C25	C	0.146605	0.167170	-0.000022
C26	C	0.646605	0.667170	0.499978
C27	C	0.225548	0.168430	-0.000025
C28	C	0.725548	0.668430	0.499975
C29	C	0.274164	0.100095	-0.000023
C30	C	0.774164	0.600095	0.499977
C31	C	0.243832	0.030496	-0.000028
C32	C	0.743832	0.530496	0.499972
C33	C	0.164890	0.029238	-0.000032
C34	C	0.664890	0.529238	0.499968
C35	C	0.562198	0.035569	-0.000014
C36	C	1.062198	0.535569	0.499986
C37	C	0.641145	0.036833	-0.000007
C38	C	1.141145	0.536833	0.499993
C39	C	0.622857	0.174761	-0.000006
C40	C	1.122857	0.674761	0.499994
C41	C	0.543915	0.173503	-0.000010
C42	C	1.043915	0.673503	0.499990
C43	C	0.513590	0.103905	-0.000020
C44	C	1.013590	0.603905	0.499980
C45	C	0.427990	0.102540	-0.000019
C46	C	0.927990	0.602540	0.499981
C47	C	0.359762	0.101458	-0.000018
C48	C	0.859762	0.601458	0.499982
C49	C	0.899652	-0.036383	-0.000013
C50	C	1.399652	0.463617	0.499987
C51	C	0.898311	-0.120401	-0.000017
C52	C	1.398311	0.379599	0.499983
C53	C	0.897687	-0.159868	-0.083136
C54	C	1.397687	0.340132	0.416864
C55	C	0.896422	-0.238811	-0.083137
C56	C	1.396422	0.261189	0.416863
C57	C	0.895786	-0.278286	-0.000018
C58	C	1.395786	0.221714	0.499982
C59	C	0.896408	-0.238814	0.083106
C60	C	1.396408	0.261186	0.583106
C61	C	0.897667	-0.159872	0.083106
C62	C	1.397667	0.340128	0.583106
C63	C	0.891328	-0.557179	0.083108
C64	C	1.391328	-0.057179	0.583108
C65	C	0.890070	-0.636128	0.083101
C66	C	1.390070	-0.136128	0.583101
C67	C	0.890082	-0.636118	-0.083135
C68	C	1.390082	-0.136118	0.416865
C69	C	0.891341	-0.557176	-0.083135
C70	C	1.391341	-0.057176	0.416865
C71	C	0.891959	-0.517710	-0.000011
C72	C	1.391959	-0.017710	0.499989
C73	C	0.893329	-0.432111	-0.000011
C74	C	1.393329	0.067889	0.499989
C75	C	0.894421	-0.363885	-0.000018
C76	C	1.394421	0.136115	0.499982
C77	C	1.032260	0.096232	-0.000017
C78	C	1.532260	0.596232	0.499983
C79	C	1.116278	0.097577	-0.000024
C80	C	1.616278	0.597577	0.499976
C81	C	0.888100	0.240387	-0.000016
C82	C	1.388100	0.740387	0.499984
C83	C	0.889441	0.324405	-0.000018
C84	C	1.389441	0.824405	0.499982
N85	N	0.893870	0.101999	0.216981
N86	N	1.393870	0.601999	0.716981
N87	N	0.893888	0.101999	-0.217009
N88	N	1.393888	0.601999	0.282991
C89	C	0.945433	0.050472	0.451988
C90	C	1.445433	0.550472	0.951988
C91	C	0.945436	0.050470	0.547969
C92	C	1.445436	0.550470	1.047969
C93	C	0.842319	0.153529	0.547978
C94	C	1.342319	0.653529	1.047978
C95	C	0.842313	0.153526	0.451998
C96	C	1.342313	0.653526	0.951998
C97	C	0.893875	0.101999	0.404006
C98	C	1.393875	0.601999	0.904006
C99	C	0.893882	0.101999	0.595967
C100	C	1.393882	0.601999	1.095967
C101	C	0.893884	0.101998	0.700034
C102	C	1.393884	0.601998	1.200034
C103	C	0.893872	0.101999	0.299932
C104	C	1.393872	0.601999	0.799932
H105	H	0.504335	0.229148	-0.000007
H106	H	1.004335	0.729148	0.499993
C107	C	0.892020	-0.513778	0.174540
C108	C	1.392020	-0.013778	0.674540
H109	H	0.891472	-0.548599	0.224039
H110	H	1.391472	-0.048599	0.724039
H111	H	0.848394	-0.477133	0.178006
H112	H	1.348394	0.022867	0.678006
H113	H	0.936637	-0.488835	0.177991
H114	H	1.436637	0.011165	0.677991
C115	C	1.002148	-0.006209	0.600750
C116	C	1.502148	0.493791	1.100750
H117	H	0.994763	0.001165	0.664786
H118	H	1.494763	0.501165	1.164786
H119	H	1.052643	0.001949	0.585014
H120	H	1.552643	0.501949	1.085014
H121	H	0.994015	-0.056714	0.585021
H122	H	1.494015	0.443286	1.085021
H123	H	0.889575	-0.668261	-0.150819
H124	H	1.389575	-0.168261	0.349181
H125	H	0.800325	0.195486	0.412929
H126	H	1.300325	0.695486	0.912929
C127	C	0.785612	0.210211	0.600773
C128	C	1.285612	0.710211	1.100773
H129	H	0.793004	0.202840	0.664807
H130	H	1.293004	0.702840	1.164807
H131	H	0.735115	0.202056	0.585055
H132	H	1.235115	0.702056	1.085055
H133	H	0.793746	0.260716	0.585034
H134	H	1.293746	0.760716	1.085034
H135	H	0.891863	-0.525039	-0.150819
H136	H	1.391863	-0.025039	0.349181
C137	C	0.656216	0.251319	-0.000009
C138	C	1.156216	0.751319	0.499991
H139	H	0.710194	0.242285	-0.000018
H140	H	1.210194	0.742285	0.499982
H141	H	0.639519	0.279448	0.053164
H142	H	1.139519	0.779448	0.553164
H143	H	0.639524	0.279448	-0.053190
H144	H	1.139524	0.779448	0.446810
H145	H	0.895886	-0.270961	0.150783
H146	H	1.395886	0.229039	0.650783
H147	H	0.898165	-0.127738	0.150790
H148	H	1.398165	0.372262	0.650790
C149	C	0.093131	0.242338	-0.000023
C150	C	0.593131	0.742338	0.499977
H151	H	0.041771	0.231624	-0.000017
H152	H	0.541771	0.731624	0.499983
H153	H	0.102318	0.270882	-0.053195
H154	H	0.602318	0.770882	0.446805
H155	H	0.102309	0.270878	0.053158
H156	H	0.602309	0.770878	0.553158
C157	C	0.258905	0.244982	-0.000010
C158	C	0.758905	0.744982	0.499990
H159	H	0.218645	0.285499	0.000002
H160	H	0.718645	0.785499	0.500002
H161	H	0.289326	0.248349	-0.053180
H162	H	0.789326	0.748349	0.446820
H163	H	0.289314	0.248332	0.053173
H164	H	0.789314	0.748332	0.553173
C165	C	0.889363	-0.679552	0.174533
C166	C	1.389363	-0.179552	0.674533
H167	H	0.888532	-0.732221	0.162624
H168	H	1.388532	-0.232221	0.662624
H169	H	0.845445	-0.660770	0.208681
H170	H	1.345445	-0.160770	0.708681
H171	H	0.933688	-0.672466	0.208691
H172	H	1.433688	-0.172466	0.708691
C173	C	0.694625	-0.038337	-0.000013
C174	C	1.194625	0.461663	0.499987
H175	H	0.745983	-0.027617	0.000001
H176	H	1.245983	0.472383	0.500001
H177	H	0.685453	-0.066877	-0.053190
H178	H	1.185453	0.433123	0.446810
H179	H	0.685440	-0.066884	0.053164
H180	H	1.185440	0.433116	0.553164
C181	C	0.528850	-0.040985	-0.000009
C182	C	1.028850	0.459015	0.499991
H183	H	0.569112	-0.081500	0.000005
H184	H	1.069112	0.418500	0.500005
H185	H	0.498439	-0.044350	-0.053182
H186	H	0.998439	0.455650	0.446818
H187	H	0.498432	-0.044341	0.053171
H188	H	0.998432	0.455659	0.553171
H189	H	0.283421	-0.025143	-0.000033
H190	H	0.783421	0.474857	0.499967
H191	H	0.140199	-0.027432	-0.000036
H192	H	0.640199	0.472568	0.499964
C193	C	1.002142	-0.006213	0.399199
C194	C	1.502142	0.493787	0.899199
H195	H	1.032843	-0.036905	0.441525
H196	H	1.532843	0.463095	0.941525
H197	H	1.033596	0.020971	0.361748
H198	H	1.533596	0.520971	0.861748
H199	H	0.974966	-0.037689	0.361767
H200	H	1.474966	0.462311	0.861767
H201	H	0.895917	-0.270941	-0.150820
H202	H	1.395917	0.229059	0.349180
C203	C	0.898385	-0.116451	-0.174567
C204	C	1.398385	0.383549	0.325433
H205	H	0.897826	-0.151264	-0.224069
H206	H	1.397826	0.348736	0.275931
H207	H	0.942995	-0.091503	-0.178026
H208	H	1.442995	0.408497	0.321974
H209	H	0.854752	-0.079808	-0.178021
H210	H	1.354752	0.420192	0.321979
