data_functionalizedCrystal
_audit_creation_method	'MofGen! by Chris Wilmer'
_symmetry_space_group_name_H-M	'P1'
_symmetry_Int_Tables_number	1
_symmetry_cell_setting	triclinic
loop_
_symmetry_equiv_pos_as_xyz
  x,y,z
_cell_length_a	19.188930
_cell_length_b	23.532357
_cell_length_c	22.010155
_cell_angle_alpha	89.999114
_cell_angle_beta	89.977671
_cell_angle_gamma	82.986534
loop_
_atom_site_label
_atom_site_type_symbol
_atom_site_fract_x
_atom_site_fract_y
_atom_site_fract_z
O1	O	0.925908	0.071094	-0.050728
O2	O	1.425908	0.571094	0.449272
O3	O	0.722564	0.080666	-0.050687
O4	O	1.222564	0.580666	0.449313
O5	O	0.830386	-0.007040	-0.050696
O6	O	1.330386	0.492960	0.449304
O7	O	0.818086	0.158801	-0.050719
O8	O	1.318086	0.658801	0.449281
O9	O	0.830366	-0.007027	0.050354
O10	O	1.330366	0.492973	0.550354
O11	O	0.722544	0.080680	0.050363
O12	O	1.222544	0.580680	0.550363
O13	O	0.925888	0.071108	0.050323
O14	O	1.425888	0.571108	0.550323
Cu15	Cu	0.824214	0.075895	0.059570
Cu16	Cu	1.324214	0.575895	0.559570
Cu17	Cu	0.824237	0.075879	-0.059934
Cu18	Cu	1.324237	0.575879	0.440066
O19	O	0.818066	0.158815	0.050332
O20	O	1.318066	0.658815	0.550332
C21	C	0.696544	0.080363	-0.000156
C22	C	1.196544	0.580363	0.499844
C23	C	0.619042	0.079433	-0.000140
C24	C	1.119042	0.579433	0.499860
C25	C	0.830068	-0.028251	-0.000169
C26	C	1.330068	0.471749	0.499831
C27	C	0.829143	-0.091471	-0.000163
C28	C	1.329143	0.408529	0.499837
C29	C	0.573943	0.130896	-0.000157
C30	C	1.073943	0.630896	0.499843
C31	C	0.501122	0.130022	-0.000163
C32	C	1.001122	0.630022	0.499837
C33	C	0.473404	0.077681	-0.000166
C34	C	0.973404	0.577681	0.499834
C35	C	0.518513	0.026211	-0.000146
C36	C	1.018513	0.526211	0.499854
C37	C	0.591333	0.027087	-0.000133
C38	C	1.091333	0.527087	0.499867
N39	N	0.365567	0.037669	-0.034577
N40	N	0.865567	0.537669	0.465423
N41	N	0.296391	0.036841	-0.034590
N42	N	0.796391	0.536841	0.465410
C43	C	0.254004	0.075040	-0.000203
C44	C	0.754004	0.575040	0.499797
N45	N	0.283405	0.114108	0.034191
N46	N	0.783405	0.614108	0.534191
N47	N	0.352587	0.114938	0.034202
N48	N	0.852587	0.614938	0.534202
C49	C	0.394445	0.076726	-0.000179
C50	C	0.894445	0.576726	0.499821
C51	C	0.129944	0.125559	-0.000225
C52	C	0.629944	0.625559	0.499775
C53	C	0.057122	0.124683	-0.000228
C54	C	0.557122	0.624683	0.499772
C55	C	0.074515	0.020871	-0.000216
C56	C	0.574515	0.520871	0.499784
C57	C	0.147335	0.021749	-0.000208
C58	C	0.647335	0.521749	0.499792
C59	C	0.175045	0.074094	-0.000215
C60	C	0.675045	0.574094	0.499785
C61	C	0.823347	-0.483502	-0.055277
C62	C	1.323347	0.016498	0.444723
C63	C	0.822467	-0.542904	-0.055281
C64	C	1.322467	-0.042904	0.444719
O65	O	0.821998	-0.573627	-0.102126
O66	O	1.321998	-0.073627	0.397874
N67	N	0.822021	-0.572608	-0.000199
N68	N	1.322021	-0.072608	0.499801
C69	C	0.822446	-0.542908	0.054890
C70	C	1.322446	-0.042908	0.554890
O71	O	0.821985	-0.573628	0.101741
O72	O	1.321985	-0.073628	0.601741
C73	C	0.823320	-0.483507	0.054893
C74	C	1.323320	0.016493	0.554893
C75	C	0.823774	-0.453806	-0.000193
C76	C	1.323774	0.046194	0.499807
C77	C	0.823800	-0.453802	-0.110358
C78	C	1.323800	0.046198	0.389642
C79	C	0.824680	-0.394404	-0.110355
C80	C	1.324680	0.105596	0.389645
C81	C	0.825108	-0.364708	-0.055270
C82	C	1.325108	0.135292	0.444730
C83	C	0.824655	-0.394409	-0.000189
C84	C	1.324655	0.105591	0.499811
C85	C	0.823741	-0.453807	0.109981
C86	C	1.323741	0.046193	0.609981
C87	C	0.824615	-0.394402	0.109979
C88	C	1.324615	0.105598	0.609979
C89	C	0.825068	-0.364701	0.054893
C90	C	1.325068	0.135299	0.554893
C91	C	0.825963	-0.305316	0.054899
C92	C	1.325963	0.194684	0.554899
N93	N	0.826410	-0.275611	-0.000183
N94	N	1.326410	0.224389	0.499817
C95	C	0.825982	-0.305307	-0.055268
C96	C	1.325982	0.194693	0.444732
C97	C	0.820609	-0.667653	0.054880
C98	C	1.320609	-0.167653	0.554880
C99	C	0.819740	-0.727053	0.054878
C100	C	1.319740	-0.227053	0.554878
C101	C	0.819760	-0.727045	-0.055293
C102	C	1.319760	-0.227045	0.444707
C103	C	0.820634	-0.667644	-0.055290
C104	C	1.320634	-0.167644	0.444710
C105	C	0.821056	-0.637949	-0.000202
C106	C	1.321056	-0.137949	0.499798
C107	C	0.827832	-0.180569	-0.055256
C108	C	1.327832	0.319431	0.444744
C109	C	0.828716	-0.121167	-0.055248
C110	C	1.328716	0.378833	0.444752
C111	C	0.828692	-0.121180	0.054923
C112	C	1.328692	0.378820	0.554923
C113	C	0.827812	-0.180578	0.054915
C114	C	1.327812	0.319422	0.554915
C115	C	0.827380	-0.210270	-0.000180
C116	C	1.327380	0.289730	0.499820
O117	O	0.826430	-0.274554	0.101720
O118	O	1.326430	0.225446	0.601720
O119	O	0.826434	-0.274579	-0.102111
O120	O	1.326434	0.225421	0.397889
C121	C	0.951908	0.071411	-0.000209
C122	C	1.451908	0.571411	0.499791
C123	C	1.029409	0.072342	-0.000229
C124	C	1.529409	0.572342	0.499771
C125	C	0.818383	0.180025	-0.000197
C126	C	1.318383	0.680025	0.499803
C127	C	0.819308	0.243246	-0.000207
C128	C	1.319308	0.743246	0.499793
N129	N	0.824203	0.075907	0.143622
N130	N	1.324203	0.575907	0.643622
C131	C	0.871983	0.037052	0.563398
C132	C	1.371983	0.537052	1.063398
C133	C	0.871986	0.037049	0.627005
C134	C	1.371986	0.537049	1.127005
O135	O	0.912583	0.004019	0.659893
O136	O	1.412583	0.504019	1.159893
N137	N	0.824236	0.075872	0.658829
N138	N	1.324236	0.575872	1.158829
C139	C	0.776475	0.114697	0.627043
C140	C	1.276475	0.614697	1.127043
O141	O	0.735860	0.147719	0.659952
O142	O	1.235860	0.647719	1.159952
C143	C	0.776469	0.114698	0.563436
C144	C	1.276469	0.614698	1.063436
C145	C	0.824227	0.075876	0.531615
C146	C	1.324227	0.575876	1.031615
C147	C	0.919736	-0.001767	0.531577
C148	C	1.419736	0.498233	1.031577
C149	C	0.919734	-0.001762	0.467973
C150	C	1.419734	0.498238	0.967973
C151	C	0.871978	0.037061	0.436191
C152	C	1.371978	0.537061	0.936191
C153	C	0.824224	0.075880	0.468012
C154	C	1.324224	0.575880	0.968012
C155	C	0.728705	0.153520	0.531650
C156	C	1.228705	0.653520	1.031650
C157	C	0.728703	0.153516	0.468040
C158	C	1.228703	0.653516	0.968040
C159	C	0.776461	0.114695	0.436219
C160	C	1.276461	0.614695	0.936219
C161	C	0.776466	0.114708	0.372626
C162	C	1.276466	0.614708	0.872626
N163	N	0.824216	0.075885	0.340802
N164	N	1.324216	0.575885	0.840802
C165	C	0.871972	0.037061	0.372585
C166	C	1.371972	0.537061	0.872585
C167	C	0.776490	0.114693	0.760620
C168	C	1.276490	0.614693	1.260620
C169	C	0.776499	0.114696	0.824226
C170	C	1.276499	0.614696	1.324226
C171	C	0.872009	0.037047	0.824184
C172	C	1.372009	0.537047	1.324184
C173	C	0.872003	0.037047	0.760577
C174	C	1.372003	0.537047	1.260577
C175	C	0.824240	0.075870	0.728796
C176	C	1.324240	0.575870	1.228796
C177	C	0.871963	0.037074	0.239013
C178	C	1.371963	0.537074	0.739013
C179	C	0.871959	0.037083	0.175404
C180	C	1.371959	0.537083	0.675404
C181	C	0.776446	0.114730	0.175452
C182	C	1.276446	0.614730	0.675452
C183	C	0.776453	0.114723	0.239055
C184	C	1.276453	0.614723	0.739055
C185	C	0.824214	0.075890	0.270834
C186	C	1.324214	0.575890	0.770834
O187	O	0.735888	0.147720	0.339698
O188	O	1.235888	0.647720	0.839698
O189	O	0.912574	0.004040	0.339667
O190	O	1.412574	0.504040	0.839667
N191	N	0.824253	0.075870	0.856013
N192	N	1.324253	0.575870	1.356013
H193	H	0.596499	0.173520	-0.000164
H194	H	1.096499	0.673520	0.499836
F195	F	0.825063	-0.362801	0.168613
F196	F	1.325063	0.137199	0.668613
H197	H	0.820954	-0.643479	0.099743
H198	H	1.320954	-0.143479	0.599743
H199	H	0.464395	0.171931	-0.000175
H200	H	0.964395	0.671931	0.499825
F201	F	0.677864	0.194837	0.434220
F202	F	1.177864	0.694837	0.934220
H203	H	0.829087	-0.096988	-0.100107
H204	H	1.329087	0.403012	0.399893
F205	F	0.489013	-0.029493	-0.000145
F206	F	0.989013	0.470507	0.499855
F207	F	0.725631	0.156048	0.272920
F208	F	1.225631	0.656048	0.772920
F209	F	0.823255	-0.485403	0.168611
F210	F	1.323255	0.014597	0.668611
H211	H	0.825047	-0.370227	-0.155211
H212	H	1.325047	0.129773	0.344789
H213	H	0.827449	-0.204762	0.099770
H214	H	1.327449	0.295238	0.599770
F215	F	0.045020	-0.034834	-0.000213
F216	F	0.545020	0.465166	0.499787
H217	H	0.823449	-0.477974	-0.155217
H218	H	1.323449	0.022026	0.344783
F219	F	0.639333	-0.027690	-0.000115
F220	F	1.139333	0.472310	0.499885
H221	H	0.184056	-0.020159	-0.000197
H222	H	0.684056	0.479841	0.499803
H223	H	0.829043	-0.096991	0.099771
H224	H	1.329043	0.403009	0.599771
H225	H	0.827477	-0.204738	-0.100119
H226	H	1.327477	0.295262	0.399881
H227	H	0.819409	-0.751234	-0.100145
H228	H	1.319409	-0.251234	0.399855
H229	H	0.910851	0.005470	0.149498
H230	H	1.410851	0.505470	0.649498
H231	H	0.910854	0.005452	0.264881
H232	H	1.410854	0.505452	0.764881
F233	F	0.970560	-0.043084	0.434113
F234	F	1.470560	0.456916	0.934113
F235	F	0.159437	0.181269	-0.000228
F236	F	0.659437	0.681269	0.499772
H237	H	0.020402	0.166592	-0.000238
H238	H	0.520402	0.666592	0.499762
F239	F	0.821116	-0.636040	-0.113919
F240	F	1.321116	-0.136040	0.386081
H241	H	0.958625	-0.033384	0.557448
H242	H	1.458625	0.466616	1.057448
F243	F	0.819269	-0.758658	0.113508
F244	F	1.319269	-0.258658	0.613508
F245	F	0.922832	-0.004273	0.726717
F246	F	1.422832	0.495727	1.226717
F247	F	0.922834	-0.004274	0.858021
F248	F	1.422834	0.495726	1.358021
H249	H	0.737618	0.146314	0.850130
H250	H	1.237618	0.646314	1.350130
H251	H	0.737598	0.146312	0.734747
H252	H	1.237598	0.646312	1.234747
H253	H	0.689816	0.185132	0.557550
H254	H	1.189816	0.685132	1.057550
F255	F	0.725624	0.156048	0.141617
F256	F	1.225624	0.656048	0.641617
