data_functionalizedCrystal
_audit_creation_method	'MofGen! by Chris Wilmer'
_symmetry_space_group_name_H-M	'P1'
_symmetry_Int_Tables_number	1
_symmetry_cell_setting	triclinic
loop_
_symmetry_equiv_pos_as_xyz
  x,y,z
_cell_length_a	12.827893
_cell_length_b	12.759400
_cell_length_c	12.827885
_cell_angle_alpha	89.970623
_cell_angle_beta	89.980728
_cell_angle_gamma	90.013326
loop_
_atom_site_label
_atom_site_type_symbol
_atom_site_fract_x
_atom_site_fract_y
_atom_site_fract_z
Zn1	Zn	1.597688	-0.418211	-0.590846
Zn2	Zn	1.597588	-0.593926	-0.416108
Zn3	Zn	1.422929	-0.418263	-0.416121
Zn4	Zn	1.422921	-0.593849	-0.590808
O5	O	1.510281	-0.506062	-0.503471
O6	O	1.743911	-0.441531	-0.567677
O7	O	1.574380	-0.570678	-0.269873
O8	O	1.446156	-0.271235	-0.439319
O9	O	1.743837	-0.570628	-0.439298
O10	O	1.574550	-0.271197	-0.567690
O11	O	1.446059	-0.441619	-0.269883
O12	O	1.276692	-0.441544	-0.439283
O13	O	1.446143	-0.570496	-0.737050
O14	O	1.276686	-0.570546	-0.567625
O15	O	1.574543	-0.441456	-0.737077
O16	O	1.574373	-0.740937	-0.439261
O17	O	1.446046	-0.740880	-0.567613
C18	C	1.238771	-0.506043	-0.503452
C19	C	1.122618	-0.506060	-0.503468
C20	C	1.070809	-0.442141	-0.440073
C21	C	0.950758	-0.442157	-0.440089
C22	C	1.510227	-0.779030	-0.503454
C23	C	1.510299	-0.895806	-0.503482
C24	C	1.577120	-0.950569	-0.570379
C25	C	1.577169	-1.060293	-0.570405
C26	C	1.443571	-1.060482	-0.436627
C27	C	1.443518	-0.950760	-0.436608
C28	C	1.643901	-0.895615	-0.637254
C29	C	1.710729	-0.950377	-0.704156
C30	C	1.710778	-1.060102	-0.704181
C31	C	1.643998	-1.115063	-0.637305
C32	C	1.782851	-0.506082	-0.503490
C33	C	1.899005	-0.506091	-0.503499
C34	C	1.510353	-0.505961	-0.776041
C35	C	1.510384	-0.505918	-0.892194
C36	C	1.510365	-0.232029	-0.503510
C37	C	1.510400	-0.115252	-0.503527
C38	C	1.573919	-0.569709	-1.064019
C39	C	1.573889	-0.569755	-0.943969
C40	C	1.510270	-0.506087	-0.231961
C41	C	1.510442	-0.505834	-0.115808
H42	H	0.906203	-0.387429	-0.385818
O43	O	1.638672	-0.635063	-1.117094
C44	C	1.615838	-0.739806	-1.090461
H45	H	1.532372	-0.745144	-1.060381
H46	H	1.624778	-0.791621	-1.162281
H47	H	1.671898	-0.767352	-1.027188
O48	O	1.123868	-0.376956	-0.375153
C49	C	1.097200	-0.399760	-0.270944
H50	H	1.067109	-0.483659	-0.265509
H51	H	1.169005	-0.390714	-0.219386
H52	H	1.033925	-0.343346	-0.243670
O53	O	1.775622	-0.897156	-0.769220
C54	C	1.834626	-0.969023	-0.828256
H55	H	1.791857	-1.047264	-0.831851
H56	H	1.845711	-0.937254	-0.910596
H57	H	1.914020	-0.980664	-0.790063
H58	H	1.078098	-0.560798	-0.557752
H59	H	1.643871	-0.806272	-0.637239
O60	O	1.445397	-0.440723	-0.945195
C61	C	1.341206	-0.463684	-0.918607
H62	H	1.338938	-0.504032	-0.839328
H63	H	1.294364	-0.387855	-0.914987
H64	H	1.306064	-0.517728	-0.980005
H65	H	1.389203	-1.105240	-0.382179
H66	H	0.943553	-0.560812	-0.557782
O67	O	1.775537	-1.113346	-0.769280
C68	C	1.716040	-1.176826	-0.836724
H69	H	1.633717	-1.143814	-0.843105
H70	H	1.753799	-1.177985	-0.917177
H71	H	1.712495	-1.260009	-0.804429
O72	O	1.378572	-0.897719	-0.371530
C73	C	1.319626	-0.969748	-0.312524
H74	H	1.362469	-1.047933	-0.308943
H75	H	1.308495	-0.938103	-0.230178
H76	H	1.240250	-0.981453	-0.350735
O77	O	1.638627	-0.634965	-0.890683
C78	C	1.624198	-0.620481	-0.782682
H79	H	1.543545	-0.586057	-0.767877
H80	H	1.631213	-0.699155	-0.741117
H81	H	1.686165	-0.564521	-0.751720
O82	O	1.643868	-1.221649	-0.637423
C83	C	1.543705	-1.258348	-0.664151
H84	H	1.500455	-1.195112	-0.709659
H85	H	1.551186	-1.331713	-0.714281
H86	H	1.498480	-1.277897	-0.590131
O87	O	1.445478	-0.440598	-1.062846
C88	C	1.386482	-0.381178	-1.134309
H89	H	1.382802	-0.424108	-1.212136
H90	H	1.304170	-0.370007	-1.102687
H91	H	1.424766	-0.301373	-1.145889
