data_functionalizedCrystal
_audit_creation_method	'MofGen! by Chris Wilmer'
_symmetry_space_group_name_H-M	'P1'
_symmetry_Int_Tables_number	1
_symmetry_cell_setting	triclinic
loop_
_symmetry_equiv_pos_as_xyz
  x,y,z
_cell_length_a	15.944551
_cell_length_b	15.944493
_cell_length_c	10.868271
_cell_angle_alpha	90.000739
_cell_angle_beta	90.000173
_cell_angle_gamma	83.486891
loop_
_atom_site_label
_atom_site_type_symbol
_atom_site_fract_x
_atom_site_fract_y
_atom_site_fract_z
O1	O	1.114501	0.108335	-0.102178
O2	O	0.869949	0.121692	-0.102206
O3	O	0.998929	-0.007264	-0.102201
O4	O	0.985522	0.237292	-0.102183
O5	O	0.998918	-0.007269	0.102443
O6	O	0.869938	0.121687	0.102438
O7	O	1.114491	0.108331	0.102467
Zn8	Zn	0.992213	0.115008	0.134944
Zn9	Zn	0.992227	0.115015	-0.134684
O10	O	0.985511	0.237287	0.102462
C11	C	0.838650	0.121135	0.000112
C12	C	0.745404	0.119473	0.000100
C13	C	0.530565	0.035566	0.000118
C14	C	0.469542	0.074532	-0.100780
C15	C	0.574679	0.116465	0.000115
C16	C	0.469554	0.074546	0.100984
C17	C	0.409767	0.113555	0.000134
C18	C	0.514884	0.155454	-0.100866
C19	C	0.514902	0.155456	0.100988
C20	C	0.453897	0.194481	0.000066
C21	C	0.669681	0.118140	0.000103
C22	C	0.314766	0.111886	0.000137
C23	C	0.998375	-0.038562	0.000116
C24	C	0.996733	-0.131810	0.000100
C25	C	1.072653	-0.367570	0.000132
C26	C	1.031717	-0.418136	-0.100773
C27	C	0.993688	-0.302531	0.000114
C28	C	1.031688	-0.418117	0.100991
C29	C	0.990754	-0.467441	0.000134
C30	C	0.952774	-0.351869	-0.100873
C31	C	0.952757	-0.351846	0.100981
C32	C	0.911763	-0.402379	0.000052
C33	C	0.995381	-0.207531	0.000102
C34	C	0.989055	-0.562438	0.000138
C35	C	1.145790	0.108888	0.000146
C36	C	1.239036	0.110550	0.000150
C37	C	0.986064	0.268584	0.000142
C38	C	0.987707	0.361833	0.000150
N39	N	0.992209	0.115003	0.318959
N40	N	0.992237	0.115013	-0.318698
C41	C	0.992222	0.115013	0.569965
C42	C	0.992213	0.115010	0.430287
H43	H	0.534869	0.189647	-0.186260
O44	O	0.414352	0.274672	-0.000207
C45	C	0.437478	0.317007	-0.106711
H46	H	0.459394	0.268785	-0.180736
H47	H	0.490957	0.356117	-0.083599
C48	C	0.333973	0.434787	-0.063358
C49	C	0.360884	0.375560	-0.154280
H50	H	0.286728	0.470908	-0.092699
H51	H	0.318395	0.406267	0.008398
H52	H	0.378546	0.467370	-0.044107
H53	H	0.316315	0.342971	-0.173519
H54	H	0.376453	0.404076	-0.226042
O55	O	0.538893	0.196117	0.202885
C56	C	0.516045	0.153254	0.309061
H57	H	0.509293	0.084772	0.284881
H58	H	0.453398	0.185024	0.345881
C59	C	0.593126	0.240133	0.437667
C60	C	0.584840	0.156020	0.407971
H61	H	0.635559	0.241842	0.498682
H62	H	0.608516	0.269013	0.366135
H63	H	0.540915	0.266599	0.468343
H64	H	0.637046	0.129559	0.377281
H65	H	0.569460	0.127135	0.479500
H66	H	1.140671	-0.351942	0.000038
H67	H	0.449470	0.040312	0.186282
O68	O	1.071639	-0.452651	-0.202443
C69	C	1.156391	-0.435269	-0.202095
H70	H	1.176435	-0.422193	-0.103903
H71	H	1.162865	-0.377614	-0.261898
C72	C	1.188531	-0.527886	-0.374172
C73	C	1.213152	-0.511834	-0.253569
H74	H	1.223544	-0.575112	-0.405928
H75	H	1.131431	-0.539595	-0.374410
H76	H	1.193927	-0.479835	-0.423992
H77	H	1.207746	-0.559880	-0.203748
H78	H	1.270253	-0.500135	-0.253324
H79	H	0.919450	-0.323047	-0.186272
O80	O	0.830545	-0.420796	-0.000235
C81	C	0.789231	-0.386722	-0.106746
H82	H	0.838011	-0.377504	-0.180763
H83	H	0.752193	-0.323274	-0.083641
C84	C	0.668332	-0.458984	-0.063412
C85	C	0.728243	-0.447669	-0.154325
H86	H	0.630709	-0.496576	-0.092759
H87	H	0.696164	-0.481938	0.008349
H88	H	0.637476	-0.406106	-0.044166
H89	H	0.759105	-0.500544	-0.173558
H90	H	0.700415	-0.424725	-0.226091
H91	H	1.065048	-0.447050	0.186292
O92	O	0.570292	-0.044553	-0.000225
C93	C	0.547308	-0.086896	-0.106803
H94	H	0.525302	-0.038674	-0.180782
H95	H	0.493933	-0.126161	-0.083784
C96	C	0.651060	-0.204479	-0.063523
C97	C	0.624038	-0.145251	-0.154388
H98	H	0.698388	-0.240479	-0.092874
H99	H	0.666542	-0.175954	0.008283
H100	H	0.606573	-0.237191	-0.044348
H101	H	0.668520	-0.112534	-0.173550
H102	H	0.608564	-0.173773	-0.226199
O103	O	0.445708	0.033659	-0.202586
C104	C	0.517602	0.005924	-0.273460
H105	H	0.575970	0.000087	-0.212120
H106	H	0.525183	0.053439	-0.349908
C107	C	0.435359	-0.073506	-0.405807
C108	C	0.507048	-0.080682	-0.330466
H109	H	0.428849	-0.126926	-0.440977
H110	H	0.386922	-0.054818	-0.358062
H111	H	0.441686	-0.033907	-0.469504
H112	H	0.500716	-0.120272	-0.266763
H113	H	0.555484	-0.099379	-0.378203
H114	H	0.919433	-0.322888	0.186284
