data_functionalizedCrystal
_audit_creation_method	'MofGen! by Chris Wilmer'
_symmetry_space_group_name_H-M	'P1'
_symmetry_Int_Tables_number	1
_symmetry_cell_setting	triclinic
loop_
_symmetry_equiv_pos_as_xyz
  x,y,z
_cell_length_a	16.120484
_cell_length_b	17.077404
_cell_length_c	17.077396
_cell_angle_alpha	89.980499
_cell_angle_beta	92.868746
_cell_angle_gamma	92.925780
loop_
_atom_site_label
_atom_site_type_symbol
_atom_site_fract_x
_atom_site_fract_y
_atom_site_fract_z
Zn1	Zn	-0.331902	1.184194	-0.459673
Zn2	Zn	0.168098	1.684194	0.040327
Zn3	Zn	-0.471326	1.177439	-0.335057
Zn4	Zn	0.028674	1.677439	0.164943
Zn5	Zn	-0.331932	1.052925	-0.328422
Zn6	Zn	0.168068	1.552925	0.171578
Zn7	Zn	-0.471277	1.046234	-0.466278
Zn8	Zn	0.028723	1.546234	0.033722
O9	O	-0.401609	1.115198	-0.397358
O10	O	0.098391	1.615198	0.102642
O11	O	-0.350406	1.293145	-0.443155
O12	O	0.149594	1.793145	0.056845
O13	O	-0.452868	1.160895	-0.224331
O14	O	0.047132	1.660895	0.275669
O15	O	-0.215262	1.075965	-0.340292
O16	O	0.284738	1.575965	0.159708
O17	O	-0.452840	1.288181	-0.351600
O18	O	0.047160	1.788181	0.148400
O19	O	-0.215241	1.172408	-0.436721
O20	O	0.284759	1.672408	0.063279
O21	O	-0.350456	1.069415	-0.219457
O22	O	0.149544	1.569415	0.280543
O23	O	-0.350408	0.942191	-0.346697
O24	O	0.149592	1.442191	0.153303
O25	O	-0.452756	1.064562	-0.575247
O26	O	0.047244	1.564562	-0.075247
O27	O	-0.452784	0.937275	-0.447979
O28	O	0.047216	1.437275	0.052021
O29	O	-0.350358	1.165921	-0.570395
O30	O	0.149642	1.665921	-0.070395
O31	O	-0.587986	1.154407	-0.358004
O32	O	-0.087986	1.654407	0.141996
O33	O	-0.587949	1.058011	-0.454412
O34	O	-0.087949	1.558011	0.045588
C35	C	-0.401594	0.911251	-0.397335
C36	C	0.098406	1.411251	0.102665
C37	C	-0.401608	0.824000	-0.397345
C38	C	0.098392	1.324000	0.102655
C39	C	-0.454996	0.780467	-0.450006
C40	C	0.045004	1.280467	0.049994
C41	C	-0.454997	0.698487	-0.450019
C42	C	0.045003	1.198487	0.049981
C43	C	-0.401615	0.660041	-0.397366
C44	C	0.098385	1.160041	0.102634
C45	C	-0.348221	0.703580	-0.344703
C46	C	0.151779	1.203580	0.155297
C47	C	-0.348216	0.785559	-0.344694
C48	C	0.151784	1.285559	0.155306
C49	C	-0.348238	0.532709	-0.344722
C50	C	0.151762	1.032709	0.155278
C51	C	-0.348244	0.450724	-0.344729
C52	C	0.151756	0.950724	0.155271
C53	C	-0.455019	0.445637	-0.450047
C54	C	0.044981	0.945637	0.049953
C55	C	-0.455014	0.527616	-0.450038
C56	C	0.044986	1.027616	0.049962
C57	C	-0.401621	0.571149	-0.397374
C58	C	0.098379	1.071149	0.102626
C59	C	-0.618218	1.104771	-0.407662
C60	C	-0.118218	1.604771	0.092338
C61	C	-0.710884	1.100383	-0.412097
C62	C	-0.210884	1.600383	0.087903
C63	C	-0.880545	1.092374	-0.420209
C64	C	-0.380545	1.592374	0.079791
C65	C	-0.921833	1.138162	-0.374519
C66	C	-0.421833	1.638162	0.125481
C67	C	-1.016239	1.133706	-0.379033
C68	C	-0.516239	1.633706	0.120967
C69	C	-0.786131	1.096829	-0.415696
C70	C	-0.286131	1.596829	0.084304
C71	C	-0.184155	1.125687	-0.387030
C72	C	0.315845	1.625687	0.112970
C73	C	-0.091489	1.130156	-0.382629
C74	C	0.408511	1.630156	0.117371
C75	C	-0.401625	1.319941	-0.397381
C76	C	0.098375	1.819941	0.102619
C77	C	-0.401632	1.407191	-0.397390
C78	C	0.098368	1.907191	0.102610
C79	C	-0.401548	1.115248	-0.602099
C80	C	0.098452	1.615248	-0.102099
C81	C	-0.401522	1.115270	-0.689348
C82	C	0.098478	1.615270	-0.189348
C83	C	-0.348199	1.168049	-0.727812
C84	C	0.151801	1.668049	-0.227812
C85	C	-0.348171	1.168060	-0.809791
C86	C	0.151829	1.668060	-0.309791
C87	C	-0.401471	1.115295	-0.853305
C88	C	0.098529	1.615295	-0.353305
C89	C	-0.454796	1.062509	-0.814835
C90	C	0.045204	1.562509	-0.314835
C91	C	-0.454819	1.062495	-0.732857
C92	C	0.045181	1.562495	-0.232857
C93	C	-0.454746	1.062543	-0.985702
C94	C	0.045254	1.562543	-0.485702
C95	C	-0.454725	1.062558	-1.067686
C96	C	0.045275	1.562558	-0.567686
C97	C	-0.348098	1.168108	-1.062637
C98	C	0.151902	1.668108	-0.562637
C99	C	-0.348121	1.168094	-0.980659
C100	C	0.151879	1.668094	-0.480659
C101	C	-0.401448	1.115310	-0.942195
C102	C	0.098552	1.615310	-0.442195
C103	C	-0.401610	1.115196	-0.193410
C104	C	0.098390	1.615196	0.306590
C105	C	-0.401402	1.115338	-0.106150
C106	C	0.098598	1.615338	0.393850
H107	H	-0.498472	0.663045	-0.492900
H108	H	0.001528	1.163045	0.007100
H109	H	-0.304798	1.211020	-0.692389
H110	H	0.195202	1.711020	-0.192389
H111	H	-0.916096	1.049831	-0.462712
H112	H	-0.416096	1.549831	0.037288
H113	H	-0.304752	1.211040	-0.841105
H114	H	0.195248	1.711040	-0.341105
H115	H	-0.304724	1.211065	-0.945232
H116	H	0.195276	1.711065	-0.445232
H117	H	-0.498487	0.558916	-0.492909
H118	H	0.001513	1.058916	0.007091
H119	H	-0.304676	1.211086	-1.093958
H120	H	0.195324	1.711086	-0.593958
H121	H	-0.498191	1.019544	-0.850270
H122	H	0.001809	1.519544	-0.350270
H123	H	-0.498158	1.019549	-0.954387
H124	H	0.001842	1.519549	-0.454387
H125	H	-0.498232	1.019509	-0.701540
H126	H	0.001768	1.519509	-0.201540
H127	H	-0.498469	0.811764	-0.492880
H128	H	0.001531	1.311764	0.007120
H129	H	-0.498491	0.410188	-0.492930
H130	H	0.001509	0.910188	0.007070
H131	H	-0.304766	0.419424	-0.301864
H132	H	0.195234	0.919424	0.198136
H133	H	-0.886279	1.180708	-0.332012
H134	H	-0.386279	1.680708	0.167988
H135	H	-0.304738	0.821003	-0.301816
H136	H	0.195262	1.321003	0.198184
H137	H	-0.304753	0.672271	-0.301835
H138	H	0.195247	1.172271	0.198165
H139	H	-0.498124	1.019590	-1.103113
H140	H	0.001876	1.519590	-0.603113
H141	H	-0.304752	0.568152	-0.301844
H142	H	0.195248	1.068152	0.198156
