data_functionalizedCrystal
_audit_creation_method	'MofGen! by Chris Wilmer'
_symmetry_space_group_name_H-M	'P1'
_symmetry_Int_Tables_number	1
_symmetry_cell_setting	triclinic
loop_
_symmetry_equiv_pos_as_xyz
  x,y,z
_cell_length_a	20.919287
_cell_length_b	20.919320
_cell_length_c	19.851628
_cell_angle_alpha	62.595702
_cell_angle_beta	86.846077
_cell_angle_gamma	55.758717
loop_
_atom_site_label
_atom_site_type_symbol
_atom_site_fract_x
_atom_site_fract_y
_atom_site_fract_z
Zr1	Zr	0.589440	0.700769	-0.093865
O2	O	0.482011	0.834323	-0.189714
O3	O	0.625983	0.567207	-0.068488
O4	O	0.620781	0.700757	-0.203238
O5	O	0.487209	0.700785	0.055885
O6	O	0.726139	0.700757	-0.209349
O7	O	0.487213	0.700773	-0.054964
O8	O	0.735444	0.461860	0.031694
O9	O	0.477904	0.939681	-0.185158
O10	O	0.715833	0.622146	-0.057386
O11	O	0.637204	0.622155	0.029900
O12	O	0.631079	0.779393	-0.128750
O13	O	0.552449	0.779402	-0.041464
Zr14	Zr	0.757467	0.700788	0.073180
Zr15	Zr	0.757473	0.700769	-0.103612
Zr16	Zr	0.589434	0.700789	0.082927
Zr17	Zr	0.582890	0.868804	-0.086598
Zr18	Zr	0.764017	0.532753	0.065913
O19	O	0.720924	0.834350	0.047803
O20	O	0.720932	0.834322	-0.203573
O21	O	0.482003	0.834351	0.061662
O22	O	0.864896	0.567235	0.169029
O23	O	0.864904	0.567207	-0.082347
O24	O	0.625975	0.567235	0.182888
O25	O	0.859698	0.700772	-0.076571
O26	O	0.726126	0.700800	0.182553
O27	O	0.620768	0.700801	0.188664
O28	O	0.859694	0.700784	0.034279
O29	O	0.611468	0.939681	-0.192905
O30	O	0.735439	0.461876	0.172220
O31	O	0.869003	0.461876	0.164472
O32	O	0.869007	0.461860	0.023946
O33	O	0.477900	0.939697	-0.044631
O34	O	0.611463	0.939697	-0.052379
O35	O	0.715828	0.622164	0.108065
O36	O	0.794458	0.622155	0.020779
O37	O	0.709703	0.779402	-0.050585
O38	O	0.631074	0.779411	0.036701
C39	C	0.681647	0.490592	-0.019432
C40	C	0.684427	0.419257	-0.022517
C41	C	0.463270	0.700779	0.001849
C42	C	0.391936	0.700779	0.005987
C43	C	0.702215	0.015812	-0.042280
C44	C	0.699597	0.082840	-0.039379
C45	C	0.657249	0.116351	0.007640
C46	C	0.617509	0.082837	0.051754
C47	C	0.620122	0.015814	0.048848
C48	C	0.647301	0.318720	0.018690
C49	C	0.644692	0.385746	0.021595
C50	C	0.726780	0.385745	-0.069539
C51	C	0.729393	0.318718	-0.072438
C52	C	0.689650	0.285213	-0.028327
C53	C	0.654574	0.184863	0.010609
C54	C	0.692320	0.216707	-0.031300
C55	C	0.358425	0.700775	-0.053138
C56	C	0.291401	0.700771	-0.049247
C57	C	0.257886	0.700777	0.013768
C58	C	0.291404	0.700778	0.072899
C59	C	0.358430	0.700776	0.069010
C60	C	0.055515	0.700777	0.028569
C61	C	-0.011518	0.700782	0.032453
C62	C	-0.011515	0.700773	-0.089693
C63	C	0.055509	0.700776	-0.093579
C64	C	0.089023	0.700773	-0.034446
C65	C	0.189376	0.700775	0.017746
C66	C	0.157536	0.700768	-0.038421
C67	C	0.883637	0.700778	-0.022534
C68	C	0.954971	0.700778	-0.026672
C69	C	0.673461	0.700754	-0.231483
C70	C	0.673463	0.700746	-0.306535
C71	C	0.665260	0.910965	-0.001253
C72	C	0.662480	0.982300	0.001832
C73	C	0.719672	0.615028	-0.448990
C74	C	0.644070	0.657886	-0.510301
C75	C	0.673455	0.700769	-0.443965
C76	C	0.749041	0.657906	-0.516389
C77	C	0.673453	0.700785	-0.576714
C78	C	0.597810	0.743627	-0.504285
C79	C	0.702835	0.743635	-0.510366
C80	C	0.627187	0.786555	-0.571685
C81	C	0.673457	0.700757	-0.367491
C82	C	0.673443	0.700804	-0.653189
C83	C	0.673446	0.700803	0.210797
C84	C	0.673444	0.700812	0.285850
C85	C	0.891830	0.490592	-0.031624
C86	C	0.965945	0.419256	-0.038847
C87	C	0.681639	0.490617	0.201708
C88	C	0.684418	0.419290	0.273675
C89	C	0.891823	0.490617	0.189516
C90	C	0.965935	0.419289	0.257346
C91	C	0.455084	0.910941	-0.210201
C92	C	0.380972	0.982268	-0.278031
C93	C	0.455077	0.910965	0.010939
C94	C	0.380962	0.982301	0.018162
C95	C	0.665268	0.910940	-0.222393
C96	C	0.662489	0.982267	-0.294361
C97	C	0.959709	0.385752	-0.083048
C98	C	1.029341	0.318734	-0.089850
C99	C	1.105209	0.285217	-0.052447
C100	C	1.111443	0.318728	-0.008245
C101	C	1.041811	0.385750	-0.001447
C102	C	0.726763	0.385799	0.348281
C103	C	0.729370	0.318789	0.415910
C104	C	0.689636	0.285267	0.408931
C105	C	0.647285	0.318765	0.334318
C106	C	0.644674	0.385778	0.266691
C107	C	1.041790	0.385789	0.243636
C108	C	1.111433	0.318779	0.307363
C109	C	1.105219	0.285266	0.384798
C110	C	1.029356	0.318773	0.398507
C111	C	0.959715	0.385787	0.334781
C112	C	0.305117	1.015777	-0.264321
C113	C	0.235473	1.082808	-0.328047
C114	C	0.241687	1.116324	-0.405482
C115	C	0.317550	1.082812	-0.419191
C116	C	0.387192	1.015787	-0.355465
C117	C	0.387198	1.015813	0.062356
C118	C	0.317565	1.082849	0.069139
C119	C	0.241697	1.116368	0.031734
C120	C	0.235463	1.082854	-0.012466
C121	C	0.305095	1.015823	-0.019253
C122	C	0.702233	1.015768	-0.287357
C123	C	0.699638	1.082778	-0.354973
C124	C	0.657295	1.116291	-0.429591
C125	C	0.617551	1.082784	-0.436594
C126	C	0.620150	1.015770	-0.368979
H127	H	0.731952	0.110125	-0.075299
O128	O	0.775059	0.282583	-0.123160
H129	H	0.802242	0.317154	-0.153355
H130	H	1.024308	0.291478	0.461563
H131	H	0.610194	0.413038	0.205946
H132	H	0.264117	0.700766	-0.097391
O133	O	0.324305	1.118973	0.116825
H134	H	0.263144	1.171222	0.115260
O135	O	0.394579	0.700783	0.132779
H136	H	0.360011	0.700795	0.177248
H137	H	-0.038808	0.700774	-0.137836
H138	H	0.812967	0.621654	-0.522234
H139	H	0.759120	0.413085	0.353979
O140	O	0.153227	0.700786	0.085711
H141	H	0.089612	0.762164	0.062548
O142	O	0.469016	0.979682	0.102700
H143	H	0.504402	0.905753	0.145359
H144	H	0.300007	0.988540	-0.055238
O145	O	1.048502	0.421938	0.160120
H146	H	1.112953	0.387386	0.161307
O147	O	0.166571	1.188614	-0.474213
H148	H	0.164232	1.249687	-0.508805
O149	O	0.769636	0.421892	-0.117118
H150	H	0.799526	0.387326	-0.150297
O151	O	0.166597	1.188640	0.039083
H152	H	0.183687	1.206292	0.076114
H153	H	0.763860	0.291523	0.476656
H154	H	0.322600	1.110109	-0.482246
H155	H	0.264116	0.700778	0.124211
H156	H	0.173683	1.110155	-0.042919
H157	H	0.736713	0.988492	-0.226604
O158	O	0.692470	0.212973	0.481872
H159	H	0.728605	0.195311	0.534919
H160	H	0.614935	0.291461	0.328647
H161	H	0.300042	0.988492	-0.201275
H162	H	0.583075	1.110080	-0.497357
H163	H	0.897940	0.413040	-0.113517
O164	O	1.022609	0.282589	-0.137519
H165	H	0.958155	0.317147	-0.162370
O166	O	1.193251	0.282635	0.292569
H167	H	1.185866	0.317187	0.228016
H168	H	0.448955	0.988504	-0.366638
H169	H	1.161901	0.230643	-0.057987
H170	H	0.726797	0.189423	-0.069586
O171	O	0.742504	1.118914	-0.347411
H172	H	0.772370	1.084359	-0.284163
H173	H	1.161931	0.230699	0.436681
H174	H	0.655184	1.170858	-0.484641
H175	H	0.587783	0.988501	-0.374693
H176	H	0.736703	-0.011473	-0.080564
H177	H	1.046900	0.413020	0.034550
O178	O	0.599008	0.421901	0.072304
H179	H	0.571803	0.387350	0.102482
O180	O	0.091657	0.700771	-0.161545
H181	H	0.057096	0.700762	-0.202004
O182	O	0.394570	0.700774	-0.121106
H183	H	0.414793	0.639393	-0.121787
H184	H	0.614941	0.291446	0.054611
H185	H	1.173223	0.291429	0.022207
O186	O	0.513102	0.791582	-0.496611
H187	H	0.474713	0.862551	-0.547190
H188	H	0.897953	0.413055	0.345955
O189	O	0.608953	0.220982	0.061357
H190	H	0.560714	0.294920	0.023620
H191	H	0.173709	1.110082	-0.316870
H192	H	0.583024	0.110131	0.090034
H193	H	0.758692	0.542532	-0.396388
O194	O	-0.047662	0.700778	0.100428
H195	H	-0.067868	0.762147	0.101124
O196	O	0.577252	-0.020323	0.096413
H197	H	0.547366	0.014238	0.129597
H198	H	0.184828	0.700758	-0.089726
O199	O	0.091660	0.700771	0.092346
H200	H	0.057089	0.700783	0.136813
O201	O	0.611157	0.609881	-0.511265
H202	H	0.595305	0.585383	-0.455345
O203	O	0.575356	0.882664	-0.641226
H204	H	0.512672	0.918032	-0.636659
H205	H	0.727709	0.779841	-0.509618
