data_functionalizedCrystal
_audit_creation_method	'MofGen! by Chris Wilmer'
_symmetry_space_group_name_H-M	'P1'
_symmetry_Int_Tables_number	1
_symmetry_cell_setting	triclinic
loop_
_symmetry_equiv_pos_as_xyz
  x,y,z
_cell_length_a	25.639242
_cell_length_b	21.395361
_cell_length_c	25.639243
_cell_angle_alpha	89.983775
_cell_angle_beta	90.019739
_cell_angle_gamma	89.973766
loop_
_atom_site_label
_atom_site_type_symbol
_atom_site_fract_x
_atom_site_fract_y
_atom_site_fract_z
Zn1	Zn	0.799242	0.249619	0.295734
Zn2	Zn	1.299242	0.749619	0.795734
Zn3	Zn	0.799181	0.354369	0.208295
Zn4	Zn	1.299181	0.854369	0.708295
Zn5	Zn	0.711822	0.249601	0.208298
Zn6	Zn	1.211822	0.749601	0.708298
Zn7	Zn	0.711775	0.354354	0.295685
Zn8	Zn	1.211775	0.854354	0.795685
O9	O	0.755505	0.301986	0.252003
O10	O	1.255505	0.801986	0.752003
O11	O	0.872399	0.263527	0.284154
O12	O	1.372399	0.763527	0.784154
O13	O	0.787587	0.340470	0.135130
O14	O	1.287587	0.840470	0.635130
O15	O	0.723463	0.161925	0.219919
O16	O	1.223463	0.661925	0.719919
O17	O	0.872354	0.340487	0.219913
O18	O	1.372354	0.840487	0.719913
O19	O	0.787690	0.161938	0.284157
O20	O	1.287690	0.661938	0.784157
O21	O	0.723404	0.263497	0.135133
O22	O	1.223404	0.763497	0.635133
O23	O	0.638650	0.263483	0.219871
O24	O	1.138650	0.763483	0.719871
O25	O	0.723384	0.340462	0.368857
O26	O	1.223384	0.840462	0.868857
O27	O	0.638616	0.340445	0.284074
O28	O	1.138616	0.840445	0.784074
O29	O	0.787645	0.263513	0.368893
O30	O	1.287645	0.763513	0.868893
O31	O	0.787541	0.442045	0.219866
O32	O	1.287541	0.942045	0.719866
O33	O	0.723325	0.442034	0.284071
O34	O	1.223325	0.942034	0.784071
C35	C	0.619662	0.301961	0.251968
C36	C	1.119662	0.801961	0.751968
C37	C	0.561548	0.301965	0.251965
C38	C	1.061548	0.801965	0.751965
C39	C	0.755436	0.464773	0.251974
C40	C	1.255436	0.964773	0.751974
C41	C	0.755454	0.534414	0.251979
C42	C	1.255454	1.034414	0.751979
C43	C	0.755516	0.301988	0.388376
C44	C	1.255516	0.801988	0.888376
C45	C	0.755521	0.301989	0.446490
C46	C	1.255521	0.801989	0.946490
C47	C	0.201176	0.342127	0.285402
C48	C	0.701176	0.842127	0.785402
C49	C	0.146572	0.342130	0.285410
C50	C	0.646572	0.842130	0.785410
O51	O	0.118328	0.376246	0.313809
O52	O	0.618328	0.876246	0.813809
N53	N	0.119266	0.302003	0.252037
N54	N	0.619266	0.802003	0.752037
C55	C	0.146567	0.261864	0.218658
C56	C	0.646567	0.761864	0.718658
O57	O	0.118327	0.227733	0.190273
O58	O	0.618327	0.727733	0.690273
C59	C	0.201170	0.261858	0.218653
C60	C	0.701170	0.761858	0.718653
C61	C	0.228473	0.301992	0.252024
C62	C	0.728473	0.801992	0.752024
C63	C	0.228480	0.382257	0.318771
C64	C	0.728480	0.882257	0.818771
C65	C	0.283080	0.382254	0.318762
C66	C	0.783080	0.882254	0.818762
C67	C	0.310377	0.342120	0.285384
C68	C	0.810377	0.842120	0.785384
C69	C	0.283074	0.301989	0.252015
C70	C	0.783074	0.801989	0.752015
C71	C	0.228470	0.221717	0.185276
C72	C	0.728470	0.721717	0.685276
C73	C	0.283077	0.221713	0.185274
C74	C	0.783077	0.721713	0.685274
C75	C	0.310380	0.261848	0.218645
C76	C	0.810380	0.761848	0.718645
C77	C	0.364971	0.261852	0.218628
C78	C	0.864971	0.761852	0.718628
N79	N	0.392278	0.301980	0.252001
N80	N	0.892278	0.801980	0.752001
C81	C	0.364981	0.342114	0.285379
C82	C	0.864981	0.842114	0.785379
C83	C	0.031896	0.261880	0.218672
C84	C	0.531896	0.761880	0.718672
C85	C	-0.022706	0.261890	0.218674
C86	C	0.477294	0.761890	0.718674
C87	C	-0.022697	0.342155	0.285427
C88	C	0.477303	0.842155	0.785427
C89	C	0.031906	0.342148	0.285422
C90	C	0.531906	0.842148	0.785422
C91	C	0.059202	0.302008	0.252045
C92	C	0.559202	0.802008	0.752045
C93	C	0.479646	0.342104	0.285357
C94	C	0.979646	0.842104	0.785357
C95	C	0.534251	0.342099	0.285343
C96	C	1.034251	0.842099	0.785343
C97	C	0.534237	0.261832	0.218592
C98	C	1.034237	0.761832	0.718592
C99	C	0.479637	0.261839	0.218604
C100	C	0.979637	0.761839	0.718604
C101	C	0.452342	0.301977	0.251990
C102	C	0.952342	0.801977	0.751990
O103	O	0.393250	0.227752	0.190245
O104	O	0.893250	0.727752	0.690245
O105	O	0.393227	0.376234	0.313764
O106	O	0.893227	0.876234	0.813764
C107	C	0.891878	0.302011	0.252039
C108	C	1.391878	0.802011	0.752039
C109	C	0.949992	0.302022	0.252054
C110	C	1.449992	0.802022	0.752054
C111	C	0.755588	0.138562	0.252044
C112	C	1.255588	0.638562	0.752044
C113	C	0.755624	0.068921	0.252061
C114	C	1.255624	0.568921	0.752061
C115	C	0.788921	0.567112	0.218582
C116	C	1.288921	1.067112	0.718582
C117	C	0.788946	0.632548	0.218594
C118	C	1.288946	1.132548	0.718594
C119	C	0.755493	0.665283	0.251997
C120	C	1.255493	1.165283	0.751997
C121	C	0.722024	0.632577	0.285401
C122	C	1.222024	1.132577	0.785401
C123	C	0.722004	0.567143	0.285392
C124	C	1.222004	1.067143	0.785392
C125	C	0.708416	0.768994	0.256087
C126	C	1.208416	1.268994	0.756087
C127	C	0.708434	0.834427	0.256092
C128	C	1.208434	1.334427	0.756092
C129	C	0.755554	0.867103	0.252028
C130	C	1.255554	1.367103	0.752028
C131	C	0.802657	0.834339	0.247947
C132	C	1.302657	1.334339	0.747947
C133	C	0.802637	0.768905	0.247938
C134	C	1.302637	1.268905	0.747938
C135	C	0.755511	0.736235	0.252011
C136	C	1.255511	1.236235	0.752011
C137	C	0.789051	0.970754	0.218641
C138	C	1.289051	1.470754	0.718641
C139	C	0.789076	1.036191	0.218657
C140	C	1.289076	1.536191	0.718657
C141	C	0.722149	1.036218	0.285461
C142	C	1.222149	1.536218	0.785461
C143	C	0.722129	0.970783	0.285449
C144	C	1.222129	1.470783	0.785449
C145	C	0.755579	0.938055	0.252036
C146	C	1.255579	1.438055	0.752036
C147	C	0.788922	0.342072	0.697675
C148	C	1.288922	0.842072	1.197675
C149	C	0.788924	0.342074	0.643071
C150	C	1.288924	0.842074	1.143071
O151	O	0.817329	0.376170	0.614827
O152	O	1.317329	0.876170	1.114827
N153	N	0.755510	0.301996	0.615764
N154	N	1.255510	0.801996	1.115764
C155	C	0.722090	0.261919	0.643065
C156	C	1.222090	0.761919	1.143065
O157	O	0.693669	0.227831	0.614825
O158	O	1.193669	0.727831	1.114825
C159	C	0.722086	0.261922	0.697668
C160	C	1.222086	0.761922	1.197668
C161	C	0.755505	0.301997	0.724972
C162	C	1.255505	0.801997	1.224972
C163	C	0.822338	0.382145	0.724979
C164	C	1.322338	0.882145	1.224979
C165	C	0.822338	0.382143	0.779579
C166	C	1.322338	0.882143	1.279579
C167	C	0.788921	0.342068	0.806876
C168	C	1.288921	0.842068	1.306876
C169	C	0.755505	0.301995	0.779572
C170	C	1.255505	0.801995	1.279572
C171	C	0.688663	0.221849	0.724968
C172	C	1.188663	0.721849	1.224968
C173	C	0.688662	0.221855	0.779575
C174	C	1.188662	0.721855	1.279575
C175	C	0.722081	0.261931	0.806878
C176	C	1.222081	0.761931	1.306878
C177	C	0.722087	0.261918	0.861470
C178	C	1.222087	0.761918	1.361470
N179	N	0.755500	0.301996	0.888776
N180	N	1.255500	0.801996	1.388776
C181	C	0.788917	0.342071	0.861479
C182	C	1.288917	0.842071	1.361479
C183	C	0.722099	0.261918	0.528394
C184	C	1.222099	0.761918	1.028394
C185	C	0.722105	0.261911	0.473792
C186	C	1.222105	0.761911	0.973792
C187	C	0.788939	0.342067	0.473801
C188	C	1.288939	0.842067	0.973801
C189	C	0.788935	0.342069	0.528405
C190	C	1.288935	0.842069	1.028405
C191	C	0.755513	0.301995	0.555701
C192	C	1.255513	0.801995	1.055701
C193	C	0.788913	0.342063	0.976144
C194	C	1.288913	0.842063	1.476144
C195	C	0.788911	0.342056	1.030750
C196	C	1.288911	0.842056	1.530750
C197	C	0.722076	0.261903	1.030735
C198	C	1.222076	0.761903	1.530735
C199	C	0.722080	0.261908	0.976135
C200	C	1.222080	0.761908	1.476135
C201	C	0.755500	0.301993	0.948841
C202	C	1.255500	0.801993	1.448841
O203	O	0.693694	0.227841	0.889748
O204	O	1.193694	0.727841	1.389748
O205	O	0.817328	0.376160	0.889726
O206	O	1.317328	0.876160	1.389726
C207	C	0.755492	0.301993	1.116161
C208	C	1.255492	0.801993	1.616161
C209	C	0.755494	0.301981	1.058047
C210	C	1.255494	0.801981	1.558047
H211	H	0.556479	0.374784	0.312518
H212	H	1.056479	0.874784	0.812518
H213	H	0.457429	0.374787	0.312544
H214	H	0.957429	0.874787	0.812544
O215	O	0.825050	0.667833	0.182582
O216	O	1.325050	1.167833	0.682582
H217	H	0.801679	0.697692	0.155966
H218	H	1.301679	1.197692	0.655966
O219	O	0.686070	1.071520	0.321491
O220	O	1.186070	1.571520	0.821491
H221	H	0.662795	1.037786	0.344714
H222	H	1.162795	1.537786	0.844714
H223	H	0.694874	0.229267	0.953903
H224	H	1.194874	0.729267	1.453903
O225	O	0.686057	0.218679	0.557830
O226	O	1.186057	0.718679	1.057830
H227	H	0.709476	0.186809	0.582723
H228	H	1.209476	0.686809	1.082723
O229	O	0.825005	0.531811	0.182553
O230	O	1.325005	1.031811	0.682553
H231	H	0.848285	0.565546	0.159336
H232	H	1.348285	1.065546	0.659336
O233	O	0.824967	0.385290	0.946713
O234	O	1.324967	0.885290	1.446713
H235	H	0.815982	0.434462	0.957184
H236	H	1.315982	0.934462	1.457184
O237	O	0.853486	0.869568	0.243553
O238	O	1.353486	1.369568	0.743553
H239	H	0.879135	0.856959	0.276818
H240	H	1.379135	1.356959	0.776818
O241	O	0.824956	0.385282	1.060201
O242	O	1.324956	0.885282	1.560201
H243	H	0.801536	0.417149	1.085066
H244	H	1.301536	0.917149	1.585066
O245	O	0.858368	0.425385	0.809026
O246	O	1.358368	0.925385	1.309026
H247	H	0.881594	0.453257	0.780864
H248	H	1.381594	0.953257	1.280864
O249	O	0.853436	0.733563	0.243544
O250	O	1.353436	1.233563	0.743544
H251	H	0.886207	0.767273	0.240723
H252	H	1.386207	1.267273	0.740723
O253	O	0.686070	0.218675	0.444347
O254	O	1.186070	0.718675	0.944347
H255	H	0.645028	0.229411	0.454807
H256	H	1.145028	0.729411	0.954807
O257	O	0.061331	0.218596	0.182655
O258	O	0.561331	0.718596	0.682655
H259	H	0.050865	0.169439	0.191690
H260	H	0.550865	0.669439	0.691690
O261	O	-0.052157	0.218612	0.182676
O262	O	0.447843	0.718612	0.682676
H263	H	-0.041660	0.169453	0.191719
H264	H	0.458340	0.669453	0.691719
H265	H	0.816289	0.944105	0.191436
H266	H	1.316289	1.444105	0.691436
O267	O	0.686042	0.218679	1.060190
O268	O	1.186042	0.718679	1.560190
H269	H	0.644999	0.229410	1.049697
H270	H	1.144999	0.729410	1.549697
O271	O	0.199028	0.178423	0.149287
O272	O	0.699028	0.678423	0.649287
H273	H	0.227192	0.150512	0.126086
H274	H	0.727192	0.650512	0.626086
O275	O	0.825173	1.071463	0.182633
O276	O	1.325173	1.571463	0.682633
H277	H	0.848424	1.037709	0.159395
H278	H	1.348424	1.537709	0.659395
H279	H	0.661449	0.189216	0.702746
H280	H	1.161449	0.689216	1.202746
H281	H	0.694874	0.944159	0.312642
H282	H	1.194874	1.444159	0.812642
O283	O	0.312519	0.178426	0.149267
O284	O	0.812519	0.678426	0.649267
H285	H	0.284356	0.150528	0.126061
H286	H	0.784356	0.650528	0.626061
H287	H	0.457405	0.229159	0.191429
H288	H	0.957405	0.729159	0.691429
O289	O	0.652617	0.178627	0.809017
O290	O	1.152617	0.678627	1.309017
H291	H	0.629385	0.150759	0.780853
H292	H	1.129385	0.650759	1.280853
H293	H	0.816148	0.374703	0.550632
H294	H	1.316148	0.874703	1.050632
H295	H	0.849551	0.414782	0.702759
H296	H	1.349551	0.914782	1.202759
O297	O	0.824979	0.385299	0.444356
O298	O	1.324979	0.885299	0.944356
H299	H	0.819359	0.378567	0.401800
H300	H	1.319359	0.878567	0.901800
H301	H	0.305306	0.414935	0.345937
H302	H	0.805306	0.914935	0.845937
H303	H	0.206260	0.414940	0.345954
H304	H	0.706260	0.914940	0.845954
H305	H	0.054133	0.374829	0.312597
H306	H	0.554133	0.874829	0.812597
H307	H	0.556472	0.229158	0.191415
H308	H	1.056472	0.729158	0.691415
O309	O	0.657635	0.869765	0.260493
O310	O	1.157635	1.369765	0.760493
H311	H	0.624867	0.836052	0.263329
H312	H	1.124867	1.336052	0.763329
H313	H	-0.044932	0.374832	0.312607
H314	H	0.455068	0.874832	0.812607
H315	H	0.694788	0.659234	0.312599
H316	H	1.194788	1.159234	0.812599
H317	H	0.670042	0.742395	0.259399
H318	H	1.170042	1.242395	0.759399
O319	O	0.685896	0.531869	0.321405
O320	O	1.185896	1.031869	0.821405
H321	H	0.662634	0.565622	0.344632
H322	H	1.162634	1.065622	0.844632
