data_functionalizedCrystal
_audit_creation_method	'MofGen! by Chris Wilmer'
_symmetry_space_group_name_H-M	'P1'
_symmetry_Int_Tables_number	1
_symmetry_cell_setting	triclinic
loop_
_symmetry_equiv_pos_as_xyz
  x,y,z
_cell_length_a	18.101398
_cell_length_b	14.908520
_cell_length_c	14.908858
_cell_angle_alpha	90.221996
_cell_angle_beta	93.272135
_cell_angle_gamma	86.683700
loop_
_atom_site_label
_atom_site_type_symbol
_atom_site_fract_x
_atom_site_fract_y
_atom_site_fract_z
Zn1	Zn	1.091540	0.328709	-0.529182
Zn2	Zn	1.424873	0.662042	-0.195849
Zn3	Zn	1.758207	0.995376	0.137484
Zn4	Zn	1.090628	0.487763	-0.387495
Zn5	Zn	1.423962	0.821096	-0.054162
Zn6	Zn	1.757295	1.154430	0.279171
Zn7	Zn	0.974406	0.337411	-0.378826
Zn8	Zn	1.307739	0.670745	-0.045493
Zn9	Zn	1.641072	1.004078	0.287841
Zn10	Zn	0.960141	0.479016	-0.537788
Zn11	Zn	1.293474	0.812350	-0.204454
Zn12	Zn	1.626808	1.145683	0.128879
O13	O	1.029179	0.408225	-0.458323
O14	O	1.362512	0.741558	-0.124990
O15	O	1.695845	1.074892	0.208344
O16	O	1.195050	0.349826	-0.510414
O17	O	1.528383	0.683160	-0.177081
O18	O	1.861717	1.016493	0.156253
O19	O	1.080800	0.475121	-0.260523
O20	O	1.414133	0.808454	0.072810
O21	O	1.747466	1.141788	0.406144
O22	O	0.996295	0.210430	-0.391541
O23	O	1.329628	0.543764	-0.058208
O24	O	1.662962	0.877097	0.275125
O25	O	1.194380	0.466683	-0.406317
O26	O	1.527713	0.800016	-0.072984
O27	O	1.861047	1.133349	0.260349
O28	O	1.082353	0.204037	-0.502008
O29	O	1.415687	0.537370	-0.168674
O30	O	1.749020	0.870703	0.164659
O31	O	0.995411	0.364658	-0.254154
O32	O	1.328744	0.697992	0.079180
O33	O	1.662078	1.031325	0.412513
O34	O	0.868883	0.356177	-0.399886
O35	O	1.202216	0.689510	-0.066553
O36	O	1.535549	1.022844	0.266781
O37	O	0.971983	0.451775	-0.662469
O38	O	1.305316	0.785109	-0.329135
O39	O	1.638650	1.118442	0.004198
O40	O	0.858402	0.460214	-0.516674
O41	O	1.191736	0.793547	-0.183341
O42	O	1.525069	1.126880	0.149992
O43	O	1.068522	0.341345	-0.656146
O44	O	1.401855	0.674679	-0.322813
O45	O	1.735188	1.008012	0.010520
O46	O	1.066968	0.612429	-0.414662
O47	O	1.400301	0.945763	-0.081328
O48	O	1.733634	1.279096	0.252005
O49	O	0.971099	0.606003	-0.525081
O50	O	1.304432	0.939337	-0.191747
O51	O	1.637766	1.272670	0.141586
C52	C	0.836772	0.408191	-0.458274
C53	C	1.170105	0.741524	-0.124941
C54	C	1.503439	1.074858	0.208393
C55	C	0.754458	0.408197	-0.458275
C56	C	1.087791	0.741530	-0.124942
C57	C	1.421124	1.074864	0.208391
C58	C	1.017406	0.641841	-0.471765
C59	C	1.350739	0.975174	-0.138432
C60	C	1.684073	1.308507	0.194901
C61	C	1.012436	0.741781	-0.477546
C62	C	1.345769	1.075114	-0.144213
C63	C	1.679102	1.408447	0.189120
C64	C	1.018763	0.394614	-0.692844
C65	C	1.352096	0.727947	-0.359511
C66	C	1.685429	1.061281	-0.026177
C67	C	1.014324	0.388814	-0.792783
C68	C	1.347657	0.722147	-0.459450
C69	C	1.680991	1.055480	-0.126116
C70	C	0.455361	0.408249	-0.458354
C71	C	0.788694	0.741582	-0.125021
C72	C	1.122027	1.074916	0.208312
C73	C	0.493257	0.342425	-0.385193
C74	C	0.826590	0.675758	-0.051860
C75	C	1.159924	1.009092	0.281474
C76	C	0.578879	0.342629	-0.384909
C77	C	0.912212	0.675963	-0.051575
C78	C	1.245546	1.009296	0.281758
C79	C	0.603746	0.408222	-0.458315
C80	C	0.937080	0.741556	-0.124982
C81	C	1.270413	1.074889	0.208352
C82	C	0.569049	0.504435	-0.437888
C83	C	0.902383	0.837769	-0.104554
C84	C	1.235716	1.171102	0.228779
C85	C	0.483445	0.504075	-0.437385
C86	C	0.816778	0.837408	-0.104051
C87	C	1.150112	1.170742	0.229282
C88	C	0.483932	0.378674	-0.552153
C89	C	0.817266	0.712007	-0.218820
C90	C	1.150599	1.045341	0.114514
C91	C	0.569712	0.376595	-0.551512
C92	C	0.903045	0.709928	-0.218178
C93	C	1.236378	1.043261	0.115155
C94	C	0.687607	0.408213	-0.458295
C95	C	1.020940	0.741547	-0.124961
C96	C	1.354274	1.074880	0.208372
C97	C	0.371499	0.408265	-0.458373
C98	C	0.704833	0.741598	-0.125039
C99	C	1.038166	1.074931	0.208294
C100	C	1.222337	0.408259	-0.458373
C101	C	1.555670	0.741593	-0.125039
C102	C	1.889003	1.074926	0.208294
C103	C	1.304649	0.408274	-0.458394
C104	C	1.637982	0.741608	-0.125061
C105	C	1.971316	1.074941	0.208273
C106	C	1.041017	0.173696	-0.444848
C107	C	1.374350	0.507029	-0.111514
C108	C	1.707684	0.840362	0.221819
C109	C	1.046062	0.073753	-0.439105
C110	C	1.379395	0.407087	-0.105772
C111	C	1.712728	0.740420	0.227562
C112	C	1.103018	0.936204	-0.373522
C113	C	1.436351	1.269537	-0.040189
C114	C	1.769684	1.602870	0.293144
C115	C	1.098350	1.030107	-0.378951
C116	C	1.431684	1.363440	-0.045618
C117	C	1.765017	1.696773	0.287716
C118	C	0.998438	1.023491	-0.493836
C119	C	1.331771	1.356824	-0.160503
C120	C	1.665105	1.690157	0.172830
C121	C	1.003105	0.929588	-0.488408
C122	C	1.336439	1.262921	-0.155074
C123	C	1.669772	1.596254	0.178259
C124	C	1.055396	0.885948	-0.428248
C125	C	1.388729	1.219281	-0.094914
C126	C	1.722063	1.552615	0.238419
C127	C	1.060059	0.792044	-0.422815
C128	C	1.393393	1.125377	-0.089482
C129	C	1.726726	1.458710	0.243852
C130	C	0.960151	0.785429	-0.537704
C131	C	1.293484	1.118762	-0.204371
C132	C	1.626818	1.452096	0.128962
C133	C	0.955484	0.879332	-0.543133
C134	C	1.288817	1.212665	-0.209800
C135	C	1.622150	1.545999	0.123534
C136	C	0.963616	0.323129	-0.930326
C137	C	1.296949	0.656462	-0.596992
C138	C	1.630283	0.989796	-0.263659
C139	C	0.967784	0.328577	-0.836424
C140	C	1.301117	0.661910	-0.503091
C141	C	1.634451	0.995244	-0.169757
C142	C	1.056702	0.443604	-0.843050
C143	C	1.390035	0.776938	-0.509717
C144	C	1.723368	1.110271	-0.176384
C145	C	1.052534	0.438156	-0.936952
C146	C	1.385867	0.771490	-0.603619
C147	C	1.719201	1.104823	-0.270285
C148	C	1.005989	0.377917	-0.980586
C149	C	1.339322	0.711251	-0.647253
C150	C	1.672655	1.044584	-0.313920
C151	C	1.001817	0.372474	-1.074490
C152	C	1.335151	0.705808	-0.741157
C153	C	1.668484	1.039141	-0.407823
C154	C	1.090739	0.487497	-1.081114
C155	C	1.424072	0.820830	-0.747781
C156	C	1.757405	1.154163	-0.414448
C157	C	1.094906	0.492945	-0.987213
C158	C	1.428240	0.826278	-0.653879
C159	C	1.761573	1.159611	-0.320546
C160	C	1.039600	0.421718	-0.224710
C161	C	1.372933	0.755051	0.108623
C162	C	1.706267	1.088385	0.441956
C163	C	1.044195	0.427265	-0.124757
C164	C	1.377528	0.760598	0.208576
C165	C	1.710862	1.093932	0.541909
H166	H	0.602706	0.271455	-0.397086
H167	H	0.936039	0.604788	-0.063753
H168	H	1.269373	0.938122	0.269581
O169	O	0.609090	0.369113	-0.292697
O170	O	0.942424	0.702446	0.040636
O171	O	1.275757	1.035780	0.373969
H172	H	0.670421	0.369342	-0.292169
H173	H	1.003754	0.702676	0.041164
H174	H	1.337087	1.036009	0.374498
H175	H	0.955870	1.059038	-0.542821
H176	H	1.289204	1.392372	-0.209488
H177	H	1.622537	1.725705	0.123845
O178	O	1.145104	0.557912	-0.940140
O179	O	1.478437	0.891246	-0.606807
O180	O	1.811771	1.224579	-0.273474
H181	H	1.203205	0.541453	-0.957285
H182	H	1.536538	0.874786	-0.623952
H183	H	1.869871	1.208119	-0.290618
O184	O	0.899086	0.926414	-0.608008
O185	O	1.232419	1.259747	-0.274675
O186	O	1.565752	1.593081	0.058659
H187	H	0.909496	0.904266	-0.677552
H188	H	1.242829	1.237600	-0.344219
H189	H	1.576163	1.570933	-0.010885
H190	H	0.457887	0.555074	-0.488645
H191	H	0.791220	0.888407	-0.155312
H192	H	1.124554	1.221741	0.178021
O193	O	0.908784	0.731227	-0.596739
O194	O	1.242117	1.064560	-0.263406
O195	O	1.575451	1.397893	0.069928
H196	H	0.920815	0.658598	-0.582863
H197	H	1.254148	0.991931	-0.249530
H198	H	1.587482	1.325264	0.083804
O199	O	0.951623	0.307501	-1.121559
O200	O	1.284957	0.640834	-0.788226
O201	O	1.618290	0.974167	-0.454892
H202	H	0.922867	0.270311	-1.070829
H203	H	1.256200	0.603644	-0.737496
H204	H	1.589534	0.936977	-0.404163
H205	H	0.592497	0.529184	-0.370251
H206	H	0.925830	0.862517	-0.036917
H207	H	1.259163	1.195850	0.296416
H208	H	0.465517	0.528513	-0.368976
H209	H	0.798850	0.861846	-0.035642
H210	H	1.132184	1.195180	0.297691
O211	O	0.458470	0.286974	-0.578154
O212	O	0.791803	0.620307	-0.244821
O213	O	1.125136	0.953641	0.088512
H214	H	0.425162	0.261453	-0.524505
H215	H	0.758495	0.594786	-0.191172
H216	H	1.091829	0.928119	0.142162
H217	H	0.584568	0.555031	-0.489747
H218	H	0.917902	0.888364	-0.156413
H219	H	1.251235	1.221697	0.176920
H220	H	1.145590	0.900672	-0.324531
H221	H	1.478923	1.234005	0.008802
H222	H	1.812257	1.567339	0.342135
H223	H	0.458836	0.426551	-0.606598
H224	H	0.792170	0.759884	-0.273264
H225	H	1.125503	1.093217	0.060069
H226	H	1.137130	1.071022	-0.334390
H227	H	1.470464	1.404355	-0.001056
H228	H	1.803797	1.737688	0.332277
H229	H	0.933281	0.283961	-0.795505
H230	H	1.266615	0.617294	-0.462172
H231	H	1.599948	0.950627	-0.128838
O232	O	0.913417	0.258163	-0.977399
O233	O	1.246751	0.591496	-0.644065
O234	O	1.580084	0.924829	-0.310732
H235	H	0.884654	0.220976	-0.926672
H236	H	1.217988	0.554310	-0.593339
H237	H	1.551321	0.887643	-0.260006
O238	O	0.600118	0.282775	-0.572060
O239	O	0.933451	0.616109	-0.238726
O240	O	1.266785	0.949442	0.094607
H241	H	0.639311	0.258764	-0.516138
H242	H	0.972644	0.592098	-0.182804
H243	H	1.305978	0.925431	0.150529
O244	O	1.136448	0.546594	-1.135321
O245	O	1.469782	0.879927	-0.801988
O246	O	1.803115	1.213261	-0.468655
H247	H	1.125735	0.532684	-1.207948
H248	H	1.459069	0.866018	-0.874615
H249	H	1.792402	1.199351	-0.541282
O250	O	0.467823	0.368613	-0.293500
O251	O	0.801156	0.701947	0.039833
O252	O	1.134490	1.035280	0.373166
H253	H	0.516466	0.384863	-0.248941
H254	H	0.849800	0.718196	0.084392
H255	H	1.183133	1.051530	0.417725
O256	O	1.106907	0.508565	-0.795980
O257	O	1.440240	0.841898	-0.462646
O258	O	1.773573	1.175231	-0.129313
H259	H	1.073354	0.556790	-0.755818
H260	H	1.406687	0.890123	-0.422485
H261	H	1.740020	1.223457	-0.089152
O262	O	0.469675	0.247893	-0.401051
O263	O	0.803008	0.581226	-0.067718
O264	O	1.136341	0.914559	0.265616
H265	H	0.485995	0.224648	-0.468304
H266	H	0.819328	0.557981	-0.134971
H267	H	1.152662	0.891315	0.198363
O268	O	1.116460	0.744968	-0.357938
O269	O	1.449793	1.078301	-0.024605
O270	O	1.783126	1.411634	0.308729
H271	H	1.148796	0.795694	-0.320805
H272	H	1.482129	1.129027	0.012528
H273	H	1.815462	1.462360	0.345862
H274	H	0.586340	0.420605	-0.608502
H275	H	0.919673	0.753939	-0.275168
H276	H	1.253006	1.087272	0.058165
