data_functionalizedCrystal
_audit_creation_method	'MofGen! by Chris Wilmer'
_symmetry_space_group_name_H-M	'P1'
_symmetry_Int_Tables_number	1
_symmetry_cell_setting	triclinic
loop_
_symmetry_equiv_pos_as_xyz
  x,y,z
_cell_length_a	13.897448
_cell_length_b	13.897449
_cell_length_c	11.169409
_cell_angle_alpha	89.972648
_cell_angle_beta	90.035576
_cell_angle_gamma	89.982380
loop_
_atom_site_label
_atom_site_type_symbol
_atom_site_fract_x
_atom_site_fract_y
_atom_site_fract_z
Zn1	Zn	-0.383939	-1.474715	0.678757
Zn2	Zn	-0.050605	-1.141382	1.012090
Zn3	Zn	0.282728	-0.808048	1.345423
Zn4	Zn	-0.545274	-1.474605	0.478062
Zn5	Zn	-0.211941	-1.141272	0.811396
Zn6	Zn	0.121392	-0.807939	1.144729
Zn7	Zn	-0.383995	-1.313400	0.478065
Zn8	Zn	-0.050661	-0.980067	0.811398
Zn9	Zn	0.282672	-0.646734	1.144731
Zn10	Zn	-0.545193	-1.313386	0.678681
Zn11	Zn	-0.211860	-0.980052	1.012014
Zn12	Zn	0.121474	-0.646719	1.345347
O13	O	-0.464600	-1.394027	0.578391
O14	O	-0.131267	-1.060693	0.911725
O15	O	0.202067	-0.727360	1.245058
O16	O	-0.405351	-1.609682	0.652165
O17	O	-0.072017	-1.276349	0.985498
O18	O	0.261316	-0.943015	1.318832
O19	O	-0.523938	-1.453181	0.310113
O20	O	-0.190604	-1.119848	0.643446
O21	O	0.142729	-0.786515	0.976779
O22	O	-0.249006	-1.334851	0.504720
O23	O	0.084328	-1.001518	0.838053
O24	O	0.417661	-0.668184	1.171386
O25	O	-0.523883	-1.609601	0.504716
O26	O	-0.190550	-1.276268	0.838049
O27	O	0.142783	-0.942935	1.171382
O28	O	-0.248964	-1.453368	0.652167
O29	O	0.084369	-1.120035	0.985501
O30	O	0.417702	-0.786702	1.318834
O31	O	-0.405446	-1.334745	0.310115
O32	O	-0.072113	-1.001412	0.643448
O33	O	0.261220	-0.668078	0.976781
O34	O	-0.405368	-1.178417	0.504646
O35	O	-0.072034	-0.845084	0.837980
O36	O	0.261299	-0.511750	1.171313
O37	O	-0.523745	-1.334826	0.846641
O38	O	-0.190412	-1.001493	1.179974
O39	O	0.142922	-0.668159	1.513307
O40	O	-0.523799	-1.178406	0.652038
O41	O	-0.190466	-0.845073	0.985371
O42	O	0.142867	-0.511739	1.318705
O43	O	-0.405272	-1.453354	0.846697
O44	O	-0.071938	-1.120021	1.180030
O45	O	0.261395	-0.786687	1.513363
O46	O	-0.680245	-1.453167	0.504642
O47	O	-0.346912	-1.119834	0.837975
O48	O	-0.013578	-0.786500	1.171309
O49	O	-0.680185	-1.334720	0.652036
O50	O	-0.346852	-1.001387	0.985369
O51	O	-0.013519	-0.668053	1.318702
C52	C	-0.464581	-1.143412	0.578335
C53	C	-0.131248	-0.810079	0.911668
C54	C	0.202085	-0.476746	1.245001
C55	C	-0.464597	-1.036198	0.578339
C56	C	-0.131263	-0.702865	0.911672
C57	C	0.202070	-0.369532	1.245006
C58	C	-0.464598	-0.949129	0.578354
C59	C	-0.131265	-0.615795	0.911687
C60	C	0.202068	-0.282462	1.245021
C61	C	-0.464603	-0.839896	0.578384
C62	C	-0.131270	-0.506563	0.911718
C63	C	0.202063	-0.173229	1.245051
C64	C	-0.715215	-1.393956	0.578356
C65	C	-0.381881	-1.060623	0.911690
C66	C	-0.048548	-0.727290	1.245023
C67	C	-0.822428	-1.394014	0.578382
C68	C	-0.489095	-1.060681	0.911715
C69	C	-0.155762	-0.727348	1.245048
C70	C	-1.018723	-1.394116	0.578457
C71	C	-0.685390	-1.060782	0.911790
C72	C	-0.352057	-0.727449	1.245124
C73	C	-0.909491	-1.394057	0.578419
C74	C	-0.576158	-1.060723	0.911752
C75	C	-0.242824	-0.727390	1.245085
C76	C	-0.213007	-1.394124	0.578452
C77	C	0.120326	-1.060790	0.911786
C78	C	0.453660	-0.727457	1.245119
C79	C	-0.105793	-1.394165	0.578478
C80	C	0.227540	-1.060832	0.911812
C81	C	0.560873	-0.727498	1.245145
C82	C	-0.464493	-1.394101	0.891434
C83	C	-0.131160	-1.060767	1.224767
C84	C	0.202174	-0.727434	1.558100
C85	C	-0.464447	-1.394132	1.024834
C86	C	-0.131114	-1.060799	1.358167
C87	C	0.202219	-0.727466	1.691501
C88	C	-0.464616	-0.645620	0.578434
C89	C	-0.131282	-0.312286	0.911767
C90	C	0.202051	0.021047	1.245101
C91	C	-0.464612	-0.752833	0.578415
C92	C	-0.131279	-0.419500	0.911748
C93	C	0.202054	-0.086167	1.245081
C94	C	-0.464637	-1.394008	0.266566
C95	C	-0.131304	-1.060675	0.599900
C96	C	0.202029	-0.727342	0.933233
C97	C	-0.464411	-1.394164	0.133167
C98	C	-0.131078	-1.060830	0.466500
C99	C	0.202256	-0.727497	0.799834
