data_functionalizedCrystal
_audit_creation_method	'MofGen! by Chris Wilmer'
_symmetry_space_group_name_H-M	'P1'
_symmetry_Int_Tables_number	1
_symmetry_cell_setting	triclinic
loop_
_symmetry_equiv_pos_as_xyz
  x,y,z
_cell_length_a	19.851628
_cell_length_b	17.052862
_cell_length_c	17.052862
_cell_angle_alpha	61.493325
_cell_angle_beta	90.004039
_cell_angle_gamma	70.263327
loop_
_atom_site_label
_atom_site_type_symbol
_atom_site_fract_x
_atom_site_fract_y
_atom_site_fract_z
Zr1	Zr	0.780734	0.816609	-0.200356
O2	O	0.706341	0.944510	-0.328494
O3	O	0.787160	0.665887	-0.146164
O4	O	0.823258	0.783686	-0.306972
O5	O	0.660401	0.860639	-0.057800
O6	O	0.934116	0.783675	-0.306956
O7	O	0.670243	0.826711	-0.167686
O8	O	0.869545	0.572954	-0.019301
O9	O	0.724973	1.071361	-0.345455
O10	O	0.892423	0.736325	-0.141055
O11	O	0.802345	0.761653	-0.059060
O12	O	0.844845	0.900347	-0.248390
O13	O	0.754767	0.925675	-0.166395
Zr14	Zr	0.941843	0.870703	-0.025075
Zr15	Zr	0.957541	0.816592	-0.200331
Zr16	Zr	0.765037	0.870720	-0.025100
Zr17	Zr	0.810450	1.018920	-0.227408
Zr18	Zr	0.912127	0.668391	0.001976
O19	O	0.935417	1.021425	-0.079267
O20	O	0.957736	0.944486	-0.328459
O21	O	0.684021	1.021449	-0.079302
O22	O	1.016237	0.742801	0.103063
O23	O	1.038556	0.665862	-0.146129
O24	O	0.764841	0.742826	0.103028
O25	O	1.062176	0.826673	-0.167632
O26	O	0.899319	0.903625	0.081541
O27	O	0.788461	0.903636	0.081525
O28	O	1.052334	0.860601	-0.057745
O29	O	0.865510	1.071347	-0.345436
O30	O	0.857067	0.615965	0.120005
O31	O	0.997605	0.615951	0.120024
O32	O	1.010082	0.572940	-0.019281
O33	O	0.712495	1.114372	-0.206150
O34	O	0.853033	1.114358	-0.206131
O35	O	0.877732	0.786965	0.022959
O36	O	0.967810	0.761637	-0.059037
O37	O	0.920232	0.925659	-0.166372
O38	O	0.830155	0.950987	-0.084376
C39	C	0.824119	0.590595	-0.078878
C40	C	0.811503	0.504709	-0.067394
C41	C	0.964021	0.209730	-0.206238
C42	C	0.975872	0.290427	-0.217034
C43	C	0.934781	0.344001	-0.179624
C44	C	0.881837	0.316871	-0.131418
C45	C	0.869980	0.236170	-0.120627
C46	C	0.840741	0.370441	-0.094014
C47	C	0.787796	0.343310	-0.045807
C48	C	0.775942	0.262617	-0.035017
C49	C	0.817033	0.209043	-0.072427
C50	C	0.852597	0.451142	-0.104805
C51	C	0.758556	0.477582	-0.019194
C52	C	0.746705	0.396884	-0.008398
C53	C	0.640131	0.843677	-0.112746
C54	C	0.565072	0.843685	-0.112757
C55	C	0.357780	0.933100	-0.171250
C56	C	0.330741	0.871490	-0.196752
C57	C	0.427659	0.843664	-0.112729
C58	C	0.320960	0.905276	-0.087243
C59	C	0.294922	0.843651	-0.112705
C60	C	0.401613	0.782039	-0.138277
C61	C	0.391828	0.815853	-0.028727
C62	C	0.364829	0.754173	-0.054200
C63	C	0.504125	0.843673	-0.112746
C64	C	0.218460	0.843633	-0.112688
C65	C	1.082446	0.843634	-0.112685
C66	C	1.157505	0.843627	-0.112675
C67	C	0.880924	0.775971	-0.331934
C68	C	0.887588	0.753000	-0.406335
C69	C	0.898459	1.096716	-0.146553
C70	C	0.911074	1.182603	-0.158037
C71	C	0.807021	1.030726	-0.840175
C72	C	0.800756	1.052312	-0.770274
C73	C	0.822463	0.977486	-0.679287
C74	C	0.850437	0.881070	-0.658206
C75	C	0.856698	0.859482	-0.728114
C76	C	0.872140	0.806242	-0.567225
C77	C	0.900114	0.709826	-0.546145
C78	C	0.906374	0.688242	-0.616047
C79	C	0.884666	0.763068	-0.707035
C80	C	0.865879	0.827830	-0.497317
C81	C	0.915556	0.656586	-0.385256
C82	C	0.921821	0.635000	-0.455157
C83	C	0.841654	0.911340	0.106503
C84	C	0.834990	0.934312	0.180904
C85	C	1.045276	0.590574	-0.078847
C86	C	1.107720	0.504680	-0.067353
C87	C	0.804484	0.658280	0.140341
C88	C	0.785204	0.595365	0.226226
C89	C	1.025641	0.658258	0.140371
C90	C	1.081421	0.595336	0.226267
C91	C	0.696936	1.029053	-0.365803
C92	C	0.641156	1.091976	-0.451698
C93	C	0.677301	1.096738	-0.146584
C94	C	0.614857	1.182632	-0.158078
C95	C	0.918094	1.029032	-0.365772
C96	C	0.937373	1.091947	-0.451657
C97	C	1.097694	0.451128	-0.104775
C98	C	1.156363	0.370428	-0.093992
C99	C	1.225056	0.343277	-0.045782
C100	C	1.235082	0.396837	-0.008360
C101	C	1.176415	0.477540	-0.019148
C102	C	0.815501	0.579034	0.309378
C103	C	0.797385	0.519932	0.390082
C104	C	0.748975	0.477156	0.387631
C105	C	0.718674	0.493492	0.304469
C106	C	0.736787	0.552599	0.223767
C107	C	1.154643	0.552566	0.223803
C108	C	1.207063	0.493453	0.304503
C109	C	1.186259	0.477106	0.387666
C110	C	1.113030	0.519883	0.390127
C111	C	1.060612	0.579000	0.309427
C112	C	0.567936	1.134755	-0.449236
C113	C	0.515519	1.193893	-0.529939
C114	C	0.536324	1.210245	-0.613102
C115	C	0.609552	1.167462	-0.615562
C116	C	0.661968	1.108331	-0.534861
C117	C	0.624885	1.236189	-0.120665
C118	C	0.566221	1.316906	-0.131469
C119	C	0.497529	1.344059	-0.179683
C120	C	0.487502	1.290496	-0.217101
C121	C	0.546166	1.209786	-0.206302
C122	C	0.985785	1.134705	-0.449177
C123	C	1.003914	1.193812	-0.529867
C124	C	0.973625	1.210164	-0.613037
C125	C	0.925211	1.167399	-0.615514
C126	C	0.907087	1.108288	-0.534825
H127	H	0.732825	0.240536	0.004228
C128	C	0.427725	0.784141	0.067198
H129	H	0.470561	0.727229	0.088632
H130	H	0.440217	0.834185	0.064902
H131	H	0.394542	0.771432	0.107246
H132	H	1.228948	0.428967	0.453370
H133	H	0.537990	1.166180	-0.236767
C134	C	0.433001	1.432837	-0.191554
H135	H	0.390651	1.441347	-0.225631
H136	H	0.424235	1.423221	-0.133475
H137	H	0.444307	1.488721	-0.222896
H138	H	0.550981	1.121445	-0.381527
H139	H	0.988389	1.258299	-0.678733
C140	C	0.830722	0.501965	0.481550
H141	H	0.812998	0.460648	0.529267
H142	H	0.882364	0.472368	0.491894
H143	H	0.817356	0.561804	0.479920
H144	H	1.018979	0.312515	-0.256284
H145	H	0.455897	1.228718	-0.527918
H146	H	0.574399	1.360505	-0.100993
H147	H	1.148185	0.326828	-0.124468
C148	C	0.411937	1.320368	-0.270125
H149	H	0.378438	1.376100	-0.271184
H150	H	0.415403	1.334466	-0.330657
H151	H	0.395342	1.268964	-0.241228
H152	H	0.944597	0.556497	-0.438005
C153	C	0.783147	1.113021	-0.940253
H154	H	0.790886	1.086353	-0.978863
H155	H	0.732845	1.151743	-0.951825
H156	H	0.810993	1.151734	-0.951817
H157	H	0.712116	0.565885	0.156065
H158	H	0.929145	0.609733	-0.598877
H159	H	0.703596	0.374783	0.030852
C160	C	0.729061	0.412136	0.476409
H161	H	0.754047	0.408533	0.526280
H162	H	0.677926	0.438585	0.472881
H163	H	0.742943	0.349163	0.484844
C164	C	0.835115	0.933877	-0.520505
H165	H	0.834489	0.936023	-0.465845
H166	H	0.865006	0.965517	-0.554982
H167	H	0.786861	0.965518	-0.554986
H168	H	0.493636	1.258395	-0.678808
H169	H	0.997469	0.166110	-0.236698
H170	H	0.436362	0.729958	-0.159903
C171	C	0.947823	0.432760	-0.191491
H172	H	0.985244	0.441240	-0.225550
H173	H	0.904104	0.488656	-0.222829
H174	H	0.962184	0.423130	-0.133404
C175	C	0.354768	1.035230	-0.238166
H176	H	0.374608	1.057624	-0.206030
H177	H	0.382319	1.033268	-0.283204
H178	H	0.305511	1.077809	-0.266536
H179	H	1.010453	1.121403	-0.381464
H180	H	1.043334	1.228628	-0.527832
H181	H	0.367215	0.678480	-0.004703
C182	C	0.891545	0.739320	-0.783925
H183	H	0.911310	0.671183	-0.758342
H184	H	0.844714	0.766067	-0.820432
H185	H	0.922864	0.766051	-0.820433
H186	H	1.272820	0.277561	-0.037003
C187	C	0.632426	1.185447	-0.707044
H188	H	0.590716	1.226781	-0.754746
H189	H	0.666905	1.215031	-0.717398
H190	H	0.653758	1.125614	-0.705430
H191	H	0.304179	0.894996	-0.267781
H192	H	0.679257	0.458656	0.302487
H193	H	0.725095	0.521204	0.011265
H194	H	0.854919	0.613858	0.311391
H195	H	0.900554	1.180722	-0.683242
C196	C	0.853823	1.061272	-0.537566
H197	H	0.838378	1.079490	-0.598659
H198	H	0.877610	0.992949	-0.501886
H199	H	0.812609	1.082391	-0.513861
H200	H	0.895705	0.473224	-0.144055
H201	H	0.721586	1.073497	-0.536876
H202	H	0.807390	0.143327	-0.063634
H203	H	0.286118	0.957385	-0.065698
H204	H	0.817360	0.995067	-0.622373
H205	H	0.777980	1.130814	-0.787444
H206	H	0.933229	0.595656	-0.311170
C207	C	1.022140	0.480983	-0.157814
H208	H	1.024583	0.437531	-0.178561
H209	H	0.987576	0.479166	-0.119106
H210	H	1.007657	0.544672	-0.208516
H211	H	1.096101	0.506564	0.457849
C212	C	1.310644	0.366955	0.044678
H213	H	1.344140	0.311215	0.045748
H214	H	1.327247	0.418349	0.015807
H215	H	1.307162	0.352844	0.105214
H216	H	0.680813	1.214091	-0.081400
C217	C	1.287605	0.446398	0.301781
H218	H	1.292480	0.464590	0.240695
H219	H	1.316582	0.467492	0.325494
H220	H	1.303438	0.378072	0.337465
C221	C	1.187450	0.536429	0.022033
H222	H	1.236763	0.508688	0.052297
H223	H	1.176236	0.601217	-0.025091
H224	H	1.156167	0.535694	0.064320
H225	H	1.000992	0.613817	0.311446
H226	H	1.171596	0.565865	0.156096
