data_functionalizedCrystal
_audit_creation_method	'MofGen! by Chris Wilmer'
_symmetry_space_group_name_H-M	'P1'
_symmetry_Int_Tables_number	1
_symmetry_cell_setting	triclinic
loop_
_symmetry_equiv_pos_as_xyz
  x,y,z
_cell_length_a	10.723022
_cell_length_b	17.766277
_cell_length_c	19.288865
_cell_angle_alpha	90.010454
_cell_angle_beta	83.801737
_cell_angle_gamma	90.009093
loop_
_atom_site_label
_atom_site_type_symbol
_atom_site_fract_x
_atom_site_fract_y
_atom_site_fract_z
O1	O	1.655153	0.062599	0.097412
O2	O	1.291804	0.062602	0.106737
O3	O	1.483978	0.062586	0.001013
O4	O	1.462980	0.062616	0.203137
O5	O	1.483943	-0.062603	0.001009
O6	O	1.291770	-0.062586	0.106734
O7	O	1.655119	-0.062590	0.097408
Cu8	Cu	1.473441	-0.074018	0.102071
Cu9	Cu	1.473482	0.074031	0.102075
O10	O	1.462945	-0.062573	0.203133
C11	C	1.245302	0.000008	0.106057
C12	C	1.106790	0.000009	0.104028
N13	N	1.473422	-0.178149	0.102068
C14	C	1.059509	0.000000	0.043060
C15	C	0.916351	0.000001	0.040960
C16	C	1.548849	-0.217524	0.144582
C17	C	1.548869	-0.296325	0.144580
C18	C	1.473438	-0.335749	0.102072
C19	C	1.398005	-0.296365	0.059549
C20	C	1.397997	-0.217565	0.059547
C21	C	1.360959	-0.460608	0.099584
C22	C	1.360964	-0.539407	0.099591
C23	C	1.473464	-0.578796	0.102074
C24	C	1.585960	-0.539376	0.104566
C25	C	1.585952	-0.460575	0.104564
C26	C	1.473439	-0.421195	0.102069
C27	C	1.548919	-0.703616	0.144589
C28	C	1.548942	-0.782420	0.144582
C29	C	1.398066	-0.782458	0.059555
C30	C	1.398056	-0.703656	0.059558
C31	C	1.473480	-0.664240	0.102079
C32	C	1.701621	0.000006	0.098089
C33	C	1.840133	0.000010	0.100118
C34	C	1.483285	-0.000011	-0.024870
C35	C	1.481257	-0.000017	-0.101987
N36	N	1.473511	0.178162	0.102073
C37	C	1.594015	-0.000022	-0.145950
C38	C	1.592110	-0.000010	-0.218409
C39	C	1.477439	-0.000009	-0.246902
C40	C	1.364666	0.000000	-0.202930
C41	C	1.366575	-0.000004	-0.130472
C42	C	1.387283	-0.043859	-0.355777
C43	C	1.385379	-0.043859	-0.428234
C44	C	1.471548	0.000008	-0.470386
C45	C	1.559641	0.043866	-0.440074
C46	C	1.561550	0.043862	-0.367616
C47	C	1.475357	-0.000003	-0.325470
C48	C	1.582248	0.000018	-0.592919
C49	C	1.580338	0.000034	-0.665379
C50	C	1.352891	0.000037	-0.649898
C51	C	1.354804	0.000028	-0.577439
C52	C	1.469486	0.000015	-0.548954
C53	C	1.463638	0.000025	0.229016
C54	C	1.465666	0.000037	0.306133
H55	H	0.875635	0.000013	-0.011240
H56	H	1.269362	-0.571497	0.097566
H57	H	1.677550	-0.428483	0.106590
O58	O	1.229204	0.000035	-0.680618
H59	H	1.246818	0.000033	-0.738389
H60	H	0.880840	0.000014	0.152321
H61	H	1.677567	-0.571444	0.106592
H62	H	1.629808	0.079587	-0.474394
O63	O	1.717711	-0.000024	-0.115234
H64	H	1.724022	-0.051052	-0.082607
H65	H	1.269340	-0.428545	0.097566
H66	H	1.274750	-0.000000	-0.094676
O67	O	1.713737	-0.000026	-0.265835
H68	H	1.693140	-0.000019	-0.321005
H69	H	1.672163	0.000034	-0.701174
H70	H	1.336573	-0.185506	0.024926
O71	O	1.233186	0.000015	-0.530014
H72	H	1.153125	0.000009	-0.561998
H73	H	1.313642	-0.079566	-0.452908
H74	H	1.041284	0.000020	0.154670
H75	H	1.633277	0.079573	-0.342939
O76	O	1.705932	0.000018	-0.562186
H77	H	1.784023	0.000031	-0.604933
O78	O	1.630221	-0.338813	0.190436
H79	H	1.602736	-0.323689	0.245813
O80	O	1.630199	-0.175009	0.190440
H81	H	1.682658	-0.215633	0.220000
O82	O	1.316709	-0.824954	0.013693
H83	H	1.249443	-0.860856	0.046639
H84	H	1.610335	-0.671522	0.179211
H85	H	1.125015	-0.000004	-0.007583
H86	H	1.317111	-0.079585	-0.321462
H87	H	1.610373	-0.814477	0.179200
O88	O	1.316684	-0.661179	0.013712
H89	H	1.264224	-0.701829	-0.015843
O90	O	1.240981	-0.000006	-0.233655
H91	H	1.258596	-0.000015	-0.291426
H92	H	1.336590	-0.328469	0.024938
