data_functionalizedCrystal
_audit_creation_method	'MofGen! by Chris Wilmer'
_symmetry_space_group_name_H-M	'P1'
_symmetry_Int_Tables_number	1
_symmetry_cell_setting	triclinic
loop_
_symmetry_equiv_pos_as_xyz
  x,y,z
_cell_length_a	19.188933
_cell_length_b	19.188930
_cell_length_c	18.266242
_cell_angle_alpha	89.988525
_cell_angle_beta	89.992377
_cell_angle_gamma	83.145175
loop_
_atom_site_label
_atom_site_type_symbol
_atom_site_fract_x
_atom_site_fract_y
_atom_site_fract_z
O1	O	0.926148	0.087175	-0.060865
O2	O	0.722837	0.098908	-0.060873
O3	O	0.830360	-0.008614	-0.060854
O4	O	0.818626	0.194697	-0.060883
O5	O	0.830342	-0.008620	0.060908
O6	O	0.722819	0.098902	0.060889
O7	O	0.926130	0.087170	0.060897
Zn8	Zn	0.824472	0.093035	0.080226
Zn9	Zn	0.824496	0.093042	-0.080201
O10	O	0.818608	0.194692	0.060879
C11	C	0.696817	0.098525	0.000008
C12	C	0.619313	0.097384	0.000005
C13	C	0.066067	0.089242	-0.066358
C14	C	0.138892	0.090310	-0.066361
C15	C	0.175299	0.090844	0.000011
C16	C	0.138878	0.090292	0.066391
C17	C	0.066056	0.089217	0.066392
N18	N	0.284311	0.132260	0.049409
N19	N	0.353489	0.133283	0.049403
C20	C	0.394707	0.094082	0.000012
N21	N	0.364134	0.053828	-0.049385
N22	N	0.294949	0.052808	-0.049382
C23	C	0.254262	0.092009	0.000017
C24	C	0.510084	0.095787	-0.066367
C25	C	0.582911	0.096851	-0.066368
C26	C	0.582894	0.096840	0.066386
C27	C	0.510071	0.095769	0.066385
C28	C	0.473669	0.095246	0.000006
C29	C	0.829971	-0.034628	0.000029
C30	C	0.828830	-0.112132	0.000035
C31	C	0.891921	-0.157056	0.000041
C32	C	0.890849	-0.229880	0.000029
C33	C	0.826683	-0.257777	0.000026
C34	C	0.763584	-0.212843	0.000016
C35	C	0.764658	-0.140021	0.000021
N36	N	0.777630	-0.365784	0.041462
N37	N	0.776614	-0.434962	0.041460
C38	C	0.823445	-0.477185	0.000011
N39	N	0.871340	-0.447618	-0.041425
N40	N	0.872358	-0.378433	-0.041419
C41	C	0.825512	-0.336739	0.000021
C42	C	0.885378	-0.601073	0.000004
C43	C	0.884304	-0.673898	-0.000013
C44	C	0.757037	-0.656860	-0.000019
C45	C	0.758113	-0.584037	-0.000010
C46	C	0.822286	-0.556148	0.000005
C47	C	0.952150	0.087553	0.000015
C48	C	1.029655	0.088694	0.000013
C49	C	0.818997	0.220705	-0.000006
C50	C	0.820137	0.298210	-0.000017
N51	N	0.824461	0.093030	0.189713
N52	N	0.824512	0.093042	-0.189688
C53	C	0.872087	0.045442	0.228030
C54	C	0.872092	0.045439	0.304675
C55	C	0.824476	0.093035	0.342999
C56	C	0.776841	0.140626	0.304673
C57	C	0.776833	0.140624	0.228030
N58	N	0.815400	0.154843	0.463323
N59	N	0.815412	0.154843	0.536131
C60	C	0.824496	0.093045	0.573922
N61	N	0.833581	0.031245	0.536154
N62	N	0.833573	0.031245	0.463339
C63	C	0.824479	0.093043	0.426106
C64	C	0.872130	0.045450	0.695346
C65	C	0.872129	0.045446	0.771992
C66	C	0.776882	0.140640	0.771990
C67	C	0.776879	0.140638	0.695345
C68	C	0.824506	0.093044	0.657028
H69	H	0.612557	0.097291	-0.120417
H70	H	0.711340	-0.235562	0.000012
O71	O	0.918424	-0.000687	0.809298
C72	C	0.961389	0.036605	0.853601
H73	H	0.933408	0.091307	0.865075
H74	H	1.012971	0.041226	0.824052
C75	C	1.010806	-0.069982	0.912318
C76	C	0.976437	-0.002797	0.926416
H77	H	1.020092	-0.094287	0.957233
H78	H	0.981863	-0.095107	0.882469
H79	H	1.053788	-0.066121	0.887692
H80	H	0.933453	-0.006659	0.951033
H81	H	1.005374	0.022327	0.956272
H82	H	0.713280	-0.103444	0.000016
H83	H	0.738109	0.179391	0.803193
O84	O	0.174338	0.090942	-0.130789
C85	C	0.208350	0.152031	-0.134761
H86	H	0.216548	0.172334	-0.077130
H87	H	0.174621	0.193956	-0.167517
C88	C	0.269921	0.109764	-0.243486
C89	C	0.279995	0.134698	-0.172702
H90	H	0.314114	0.099074	-0.266893
H91	H	0.247005	0.068609	-0.240813
H92	H	0.241811	0.144706	-0.270773
H93	H	0.308097	0.099754	-0.145414
H94	H	0.302918	0.175848	-0.175372
O95	O	0.952184	-0.273459	-0.000059
C96	C	0.991167	-0.260851	-0.063122
H97	H	0.973865	-0.205551	-0.084149
H98	H	0.981750	-0.300647	-0.107283
C99	C	1.091097	-0.335944	-0.018126
C100	C	1.069849	-0.268021	-0.043948
H101	H	1.139631	-0.340369	-0.006301
H102	H	1.064832	-0.344440	0.024359
H103	H	1.083243	-0.369099	-0.054931
H104	H	1.077695	-0.234868	-0.007140
H105	H	1.096117	-0.259519	-0.086428
H106	H	0.168525	0.090726	0.120432
O107	O	0.954237	-0.129930	0.000176
C108	C	0.958650	-0.088314	0.063228
H109	H	0.922212	-0.105434	0.107304
H110	H	0.942369	-0.030832	0.048970
C111	C	1.079438	-0.076348	0.037690
C112	C	1.034689	-0.097379	0.091826
H113	H	1.126342	-0.081936	0.055329
H114	H	1.076464	-0.104383	-0.004792
H115	H	1.065862	-0.028448	0.025813
H116	H	1.048259	-0.145280	0.103695
H117	H	1.037666	-0.069352	0.134311
H118	H	0.910867	0.006687	0.196834
H119	H	0.036409	0.088774	0.120441
O120	O	0.618340	0.097264	0.130815
C121	C	0.668541	0.037419	0.134800
H122	H	0.682156	0.017432	0.077173
H123	H	0.646137	-0.005330	0.167557
C124	C	0.718531	0.081346	0.243528
C125	C	0.735257	0.056800	0.172748
H126	H	0.759683	0.093298	0.266939
H127	H	0.684708	0.121663	0.240845
H128	H	0.699860	0.045716	0.270816
H129	H	0.753920	0.092432	0.145459
H130	H	0.769085	0.016488	0.175427
H131	H	0.937631	-0.578365	0.000012
O132	O	0.730559	0.186766	0.341980
C133	C	0.687600	0.149480	0.386323
H134	H	0.715579	0.094776	0.397811
H135	H	0.636012	0.144860	0.356802
C136	C	0.638200	0.256072	0.445010
C137	C	0.672567	0.188887	0.459126
H138	H	0.628924	0.280381	0.489917
H139	H	0.667140	0.281194	0.415134
H140	H	0.595213	0.252213	0.420408
H141	H	0.715557	0.192747	0.483719
H142	H	0.643634	0.163766	0.489008
O143	O	0.730593	0.186938	0.658233
C144	C	0.688554	0.228937	0.708491
H145	H	0.717180	0.229657	0.763118
H146	H	0.636761	0.206394	0.716661
C147	C	0.638768	0.303409	0.611469
C148	C	0.673930	0.304298	0.678561
H149	H	0.629744	0.349894	0.593006
H150	H	0.667088	0.275112	0.577608
H151	H	0.595611	0.284619	0.618286
H152	H	0.717090	0.323078	0.671742
H153	H	0.645616	0.332599	0.712420
H154	H	0.036434	0.088813	-0.120409
O155	O	0.918318	-0.000861	0.658128
C156	C	0.907222	-0.069965	0.676852
H157	H	0.851336	-0.070196	0.697949
H158	H	0.946004	-0.090583	0.721315
C159	C	0.986844	-0.117007	0.582835
C160	C	0.918202	-0.117291	0.608741
H161	H	0.993620	-0.146201	0.540822
H162	H	0.994322	-0.070450	0.570221
H163	H	1.019155	-0.134186	0.619893
H164	H	0.885892	-0.100104	0.571686
H165	H	0.910718	-0.163846	0.621347
O166	O	0.696890	-0.540295	-0.000040
C167	C	0.711596	-0.470039	-0.000017
H168	H	0.766433	-0.467408	-0.023065
H169	H	0.708875	-0.448983	0.058399
C170	C	0.589911	-0.428523	-0.019461
C171	C	0.657259	-0.425291	-0.047775
H172	H	0.556392	-0.400919	-0.048918
H173	H	0.580002	-0.475855	-0.019474
H174	H	0.587653	-0.410977	0.029219
H175	H	0.659519	-0.442845	-0.096450
H176	H	0.667167	-0.377960	-0.047771
O177	O	0.730543	0.186923	0.190918
C178	C	0.688501	0.228920	0.241176
H179	H	0.717124	0.229639	0.295804
H180	H	0.636708	0.206376	0.249341
C181	C	0.638718	0.303393	0.144152
C182	C	0.673877	0.304281	0.211247
H183	H	0.629694	0.349879	0.125691
H184	H	0.667041	0.275098	0.110292
H185	H	0.595561	0.284603	0.150967
H186	H	0.717036	0.323063	0.204430
H187	H	0.645561	0.332582	0.245105
H188	H	0.704792	-0.679573	-0.000025
O189	O	0.474782	0.095368	-0.130890
C190	C	0.484476	0.156097	-0.171267
H191	H	0.534653	0.177026	-0.152400
H192	H	0.437826	0.197828	-0.162066
C193	C	0.428674	0.112085	-0.276463
C194	C	0.490305	0.137787	-0.253294
H195	H	0.432267	0.100793	-0.327061
H196	H	0.422141	0.071172	-0.249260
H197	H	0.389806	0.146865	-0.268790
H198	H	0.529171	0.103005	-0.260959
H199	H	0.496846	0.178695	-0.280501
O200	O	0.474786	0.095152	0.130907
C201	C	0.500660	0.034948	0.171283
H202	H	0.556233	0.015574	0.152408
H203	H	0.465343	-0.007989	0.162089
C204	C	0.433306	0.077149	0.276487
C205	C	0.501564	0.053358	0.253309
H206	H	0.433862	0.088504	0.327085
H207	H	0.415872	0.117709	0.249284
H208	H	0.403883	0.041364	0.268819
H209	H	0.530985	0.089146	0.260968
H210	H	0.519004	0.012804	0.280515
O211	O	0.945658	-0.717440	0.000025
C212	C	1.002524	-0.677205	0.000021
H213	H	0.984629	-0.622803	0.023077
H214	H	1.022218	-0.672063	-0.058390
C215	C	1.084189	-0.780502	0.019461
C216	C	1.062212	-0.713687	0.047784
H217	H	1.121009	-0.803007	0.048921
H218	H	1.045878	-0.807610	0.019461
H219	H	1.100596	-0.776208	-0.029214
H220	H	1.045797	-0.717982	0.096455
H221	H	1.100522	-0.686580	0.047794
H222	H	0.910876	0.006686	0.335878
