data_functionalizedCrystal
_audit_creation_method	'MofGen! by Chris Wilmer'
_symmetry_space_group_name_H-M	'P1'
_symmetry_Int_Tables_number	1
_symmetry_cell_setting	triclinic
loop_
_symmetry_equiv_pos_as_xyz
  x,y,z
_cell_length_a	15.995292
_cell_length_b	15.944493
_cell_length_c	14.472310
_cell_angle_alpha	90.004804
_cell_angle_beta	89.985801
_cell_angle_gamma	83.471830
loop_
_atom_site_label
_atom_site_type_symbol
_atom_site_fract_x
_atom_site_fract_y
_atom_site_fract_z
O1	O	1.111010	0.108034	-0.076854
O2	O	1.611010	0.608034	0.423146
O3	O	0.867227	0.121456	-0.076849
O4	O	1.367227	0.621456	0.423151
O5	O	0.995801	-0.007535	-0.076859
O6	O	1.495801	0.492465	0.423141
O7	O	0.982436	0.237025	-0.076843
O8	O	1.482436	0.737025	0.423157
O9	O	0.995768	-0.007527	0.076823
O10	O	1.495768	0.492473	0.576823
O11	O	0.867193	0.121463	0.076833
O12	O	1.367193	0.621463	0.576833
O13	O	1.110977	0.108042	0.076828
O14	O	1.610977	0.608042	0.576828
Cu15	Cu	0.989082	0.114753	0.090863
Cu16	Cu	1.489082	0.614753	0.590863
Cu17	Cu	0.989122	0.114744	-0.090884
Cu18	Cu	1.489122	0.614744	0.409116
O19	O	0.982403	0.237032	0.076839
O20	O	1.482403	0.737032	0.576839
C21	C	0.836014	0.120913	-0.000007
C22	C	1.336014	0.620913	0.499993
C23	C	0.743062	0.119276	-0.000006
C24	C	1.243062	0.619276	0.499994
C25	C	0.405324	0.113255	-0.000017
C26	C	0.905324	0.613255	0.499983
C27	C	0.428623	0.206357	-0.000354
C28	C	0.928623	0.706357	0.499646
C29	C	0.525298	0.208127	-0.000003
C30	C	1.025298	0.708127	0.499997
C31	C	0.572880	0.116242	-0.000012
C32	C	1.072880	0.616242	0.499988
C33	C	0.543766	0.069700	0.087742
C34	C	1.043766	0.569700	0.587742
C35	C	0.446976	0.068579	0.087812
C36	C	0.946976	0.568579	0.587812
C37	C	0.447158	0.066670	-0.086954
C38	C	0.947158	0.566670	0.413046
C39	C	0.543650	0.070120	-0.088109
C40	C	1.043650	0.570120	0.411891
C41	C	0.667576	0.117926	-0.000006
C42	C	1.167576	0.617926	0.499994
C43	C	0.310629	0.111569	-0.000016
C44	C	0.810629	0.611569	0.499984
C45	C	0.995238	-0.038826	-0.000022
C46	C	1.495238	0.461174	0.499978
C47	C	0.993600	-0.132074	-0.000034
C48	C	1.493600	0.367926	0.499966
C49	C	1.069282	-0.367854	-0.000018
C50	C	1.569282	0.132146	0.499982
C51	C	1.028486	-0.418415	-0.075790
C52	C	1.528486	0.081585	0.424210
C53	C	0.990566	-0.302794	-0.000022
C54	C	1.490566	0.197206	0.499978
C55	C	1.028435	-0.418384	0.075729
C56	C	1.528435	0.081616	0.575729
C57	C	0.987641	-0.467703	-0.000007
C58	C	1.487641	0.032297	0.499993
C59	C	0.949791	-0.352127	-0.075857
C60	C	1.449791	0.147873	0.424143
C61	C	0.949752	-0.352092	0.075730
C62	C	1.449752	0.147908	0.575730
C63	C	0.908898	-0.402620	-0.000061
C64	C	1.408898	0.097380	0.499939
C65	C	0.992253	-0.207795	-0.000032
C66	C	1.492253	0.292205	0.499968
C67	C	0.985947	-0.562700	-0.000004
C68	C	1.485947	-0.062700	0.499996
C69	C	1.142189	0.108584	-0.000015
C70	C	1.642189	0.608584	0.499985
C71	C	1.235142	0.110222	-0.000023
C72	C	1.735142	0.610222	0.499977
C73	C	0.982966	0.268323	-0.000000
C74	C	1.482966	0.768323	0.500000
C75	C	0.984603	0.361572	0.000005
C76	C	1.484603	0.861572	0.500005
N77	N	0.989061	0.114759	0.218694
N78	N	1.489061	0.614759	0.718694
N79	N	0.989150	0.114732	-0.218714
N80	N	1.489150	0.614732	0.281286
C81	C	0.989120	0.114741	0.592785
C82	C	1.489120	0.614741	1.092785
C83	C	0.920092	0.183530	0.553625
C84	C	1.420092	0.683530	1.053625
C85	C	0.920251	0.183781	0.446537
C86	C	1.420251	0.683781	0.946537
C87	C	0.989090	0.114750	0.407194
C88	C	1.489090	0.614750	0.907194
C89	C	1.076454	0.133875	0.446031
C90	C	1.576454	0.633875	0.946031
C91	C	1.076066	0.134364	0.553153
C92	C	1.576066	0.634364	1.053153
C93	C	0.971564	0.026623	0.553309
C94	C	1.471564	0.526623	1.053309
C95	C	0.969560	0.027211	0.446182
C96	C	1.469560	0.527211	0.946182
C97	C	0.989079	0.114753	0.302306
C98	C	1.489079	0.614753	0.802306
C99	C	0.989138	0.114739	0.697673
C100	C	1.489138	0.614739	1.197673
H101	H	0.433176	-0.001860	-0.087553
H102	H	0.933176	0.498140	0.412447
H103	H	1.092297	0.197405	0.419197
H104	H	1.592297	0.697405	0.919197
F105	F	1.145199	0.070128	0.412722
F106	F	1.645199	0.570128	0.912722
F107	F	1.037360	-0.040287	0.586407
F108	F	1.537360	0.459713	1.086407
F109	F	0.390668	0.253009	0.081445
F110	F	0.890668	0.753009	0.581445
H111	H	1.061743	-0.447373	-0.139851
H112	H	1.561743	0.052627	0.360149
H113	H	1.129036	0.086236	0.579055
H114	H	1.629036	0.586236	1.079055
H115	H	0.420140	0.100819	0.153415
H116	H	0.920140	0.600819	0.653415
H117	H	0.909242	0.008229	0.580377
H118	H	1.409242	0.508229	1.080377
F119	F	1.096290	0.218360	0.585805
F120	F	1.596290	0.718360	1.085805
H121	H	0.432435	0.000317	0.091792
H122	H	0.932435	0.500317	0.591792
H123	H	0.841041	-0.418068	-0.000101
H124	H	1.341041	0.081932	0.499899
F125	F	1.157906	-0.347448	-0.000116
F126	F	1.657906	0.152552	0.499884
H127	H	1.061681	-0.447320	0.139784
H128	H	1.561681	0.052680	0.639784
H129	H	0.931461	0.249172	0.420907
H130	H	1.431461	0.749172	0.920907
F131	F	0.906385	-0.314454	-0.159679
F132	F	1.406385	0.185546	0.340321
H133	H	0.543682	0.244803	0.063014
H134	H	1.043682	0.744803	0.563014
F135	F	0.585425	-0.018680	0.091998
F136	F	1.085425	0.481320	0.591998
F137	F	0.885560	0.008238	0.413008
F138	F	1.385560	0.508238	0.913008
F139	F	0.906333	-0.314206	0.159467
F140	F	1.406333	0.185794	0.659467
F141	F	1.031014	-0.042831	0.411191
F142	F	1.531014	0.457169	0.911191
F143	F	0.569957	0.111952	0.173112
F144	F	1.069957	0.611952	0.673112
H145	H	0.544332	0.244572	-0.062911
H146	H	1.044332	0.744572	0.437089
H147	H	0.418841	0.095767	-0.153467
H148	H	0.918841	0.595767	0.346533
F149	F	0.586754	-0.017544	-0.095045
F150	F	1.086754	0.482456	0.404955
F151	F	0.835358	0.168934	0.412216
F152	F	1.335358	0.668934	0.912216
F153	F	0.834931	0.168876	0.587314
F154	F	1.334931	0.668876	1.087314
H155	H	0.562229	0.104007	-0.153029
H156	H	1.062229	0.604007	0.346971
F157	F	0.392041	0.253262	-0.082611
F158	F	0.892041	0.753262	0.417389
H159	H	0.931147	0.248553	0.580538
H160	H	1.431147	0.748553	1.080538
