data_functionalizedCrystal
_audit_creation_method	'MofGen! by Chris Wilmer'
_symmetry_space_group_name_H-M	'P1'
_symmetry_Int_Tables_number	1
_symmetry_cell_setting	triclinic
loop_
_symmetry_equiv_pos_as_xyz
  x,y,z
_cell_length_a	19.188925
_cell_length_b	27.731996
_cell_length_c	18.266242
_cell_angle_alpha	89.987663
_cell_angle_beta	89.990012
_cell_angle_gamma	82.881968
loop_
_atom_site_label
_atom_site_type_symbol
_atom_site_fract_x
_atom_site_fract_y
_atom_site_fract_z
O1	O	0.925751	0.060337	-0.060906
O2	O	1.259084	0.393670	0.272427
O3	O	1.592417	0.727004	0.605760
O4	O	0.722385	0.068464	-0.060905
O5	O	1.055718	0.401797	0.272428
O6	O	1.389051	0.735130	0.605761
O7	O	0.830403	-0.005979	-0.060890
O8	O	1.163736	0.327354	0.272443
O9	O	1.497069	0.660688	0.605777
O10	O	0.817733	0.134780	-0.060922
O11	O	1.151066	0.468113	0.272412
O12	O	1.484399	0.801446	0.605745
O13	O	0.830385	-0.005983	0.060872
O14	O	1.163718	0.327351	0.394205
O15	O	1.497051	0.660684	0.727539
O16	O	0.722367	0.068460	0.060856
O17	O	1.055700	0.401793	0.394190
O18	O	1.389033	0.735126	0.727523
O19	O	0.925732	0.060333	0.060856
O20	O	1.259066	0.393666	0.394189
O21	O	1.592399	0.727000	0.727522
Zn22	Zn	0.824047	0.064396	0.080188
Zn23	Zn	1.157380	0.397729	0.413522
Zn24	Zn	1.490713	0.731063	0.746855
Zn25	Zn	0.824070	0.064401	-0.080238
Zn26	Zn	1.157404	0.397734	0.253095
Zn27	Zn	1.490737	0.731068	0.586428
O28	O	0.817714	0.134776	0.060840
O29	O	1.151048	0.468109	0.394174
O30	O	1.484381	0.801442	0.727507
C31	C	0.696366	0.068199	-0.000024
C32	C	1.029700	0.401532	0.333309
C33	C	1.363033	0.734866	0.666642
C34	C	0.618867	0.067410	-0.000023
C35	C	0.952200	0.400744	0.333310
C36	C	1.285533	0.734077	0.666643
C37	C	0.056841	0.105810	-0.000034
C38	C	0.390175	0.439143	0.333300
C39	C	0.723508	0.772476	0.666633
C40	C	0.129660	0.106555	-0.000038
C41	C	0.462993	0.439888	0.333296
C42	C	0.796326	0.773222	0.666629
C43	C	0.174884	0.062874	-0.000026
C44	C	0.508218	0.396208	0.333307
C45	C	0.841551	0.729541	0.666640
C46	C	0.147286	0.018445	-0.000030
C47	C	0.480619	0.351779	0.333303
C48	C	0.813952	0.685112	0.666637
C49	C	0.074469	0.017701	-0.000033
C50	C	0.407802	0.351035	0.333300
C51	C	0.741135	0.684368	0.666633
N52	N	0.295766	0.031250	0.041429
N53	N	0.629099	0.364583	0.374763
N54	N	0.962432	0.697917	0.708096
N55	N	0.364938	0.031960	0.041434
N56	N	0.698272	0.365293	0.374767
N57	N	1.031605	0.698627	0.708101
C58	C	0.394279	0.065113	-0.000018
C59	C	0.727612	0.398447	0.333315
C60	C	1.060945	0.731780	0.666648
N61	N	0.351832	0.097538	-0.041466
N62	N	0.685165	0.430871	0.291867
N63	N	1.018499	0.764204	0.625200
N64	N	0.282653	0.096829	-0.041468
N65	N	0.615986	0.430163	0.291866
N66	N	0.949319	0.763496	0.625199
C67	C	0.253843	0.063676	-0.000023
C68	C	0.587177	0.397010	0.333310
C69	C	0.920510	0.730343	0.666643
C70	C	0.500827	0.110348	-0.000024
C71	C	0.834160	0.443681	0.333309
C72	C	1.167494	0.777014	0.666642
C73	C	0.573647	0.111091	-0.000033
C74	C	0.906980	0.444425	0.333300
C75	C	1.240314	0.777758	0.666634
C76	C	0.591272	0.022980	-0.000018
C77	C	0.924605	0.356314	0.333315
C78	C	1.257939	0.689647	0.666649
C79	C	0.518453	0.022238	-0.000017
C80	C	0.851786	0.355571	0.333316
C81	C	1.185120	0.688905	0.666650
C82	C	0.473235	0.065923	-0.000017
C83	C	0.806568	0.399257	0.333317
C84	C	1.139901	0.732590	0.666650
C85	C	0.830133	-0.023989	-0.000007
C86	C	1.163467	0.309344	0.333327
C87	C	1.496800	0.642678	0.666660
C88	C	0.829349	-0.077648	0.000001
C89	C	1.162683	0.255686	0.333334
C90	C	1.496016	0.589019	0.666668
C91	C	0.824427	-0.410377	-0.066407
C92	C	1.157760	-0.077044	0.266926
C93	C	1.491094	0.256290	0.600259
C94	C	0.821450	-0.612044	-0.066420
C95	C	1.154783	-0.278711	0.266913
C96	C	1.488117	0.054622	0.600247
O97	O	0.821043	-0.638114	-0.122868
O98	O	1.154377	-0.304781	0.210466
O99	O	1.487710	0.028552	0.543799
N100	N	0.821070	-0.637265	-0.000048
N101	N	1.154404	-0.303931	0.333285
N102	N	1.487737	0.029402	0.666618
C103	C	0.821430	-0.612065	0.066331
C104	C	1.154764	-0.278731	0.399665
C105	C	1.488097	0.054602	0.732998
O106	O	0.821032	-0.638143	0.122784
O107	O	1.154365	-0.304809	0.456118
O108	O	1.487699	0.028524	0.789451
C109	C	0.824402	-0.410398	0.066344
C110	C	1.157736	-0.077064	0.399677
C111	C	1.491069	0.256269	0.733010
C112	C	0.824789	-0.385181	-0.000033
C113	C	1.158122	-0.051847	0.333301
C114	C	1.491456	0.281486	0.666634
C115	C	0.824813	-0.385160	-0.132778
C116	C	1.158146	-0.051826	0.200555
C117	C	1.491480	0.281507	0.533889
C118	C	0.825561	-0.334746	-0.132774
C119	C	1.158894	-0.001413	0.200559
C120	C	1.492228	0.331920	0.533893
C121	C	0.825923	-0.309550	-0.066400
C122	C	1.159256	0.023783	0.266934
C123	C	1.492590	0.357117	0.600267
C124	C	0.825537	-0.334767	-0.000029
C125	C	1.158870	-0.001434	0.333305
C126	C	1.492204	0.331899	0.666638
C127	C	0.824757	-0.385198	0.132723
C128	C	1.158091	-0.051865	0.466056
C129	C	1.491424	0.281468	0.799389
C130	C	0.825499	-0.334778	0.132720
C131	C	1.158832	-0.001445	0.466053
C132	C	1.492165	0.331889	0.799386
C133	C	0.825885	-0.309561	0.066344
C134	C	1.159219	0.023772	0.399677
C135	C	1.492552	0.357106	0.733010
C136	C	0.826647	-0.259158	0.066350
C137	C	1.159981	0.074176	0.399683
C138	C	1.493314	0.407509	0.733016
N139	N	0.827027	-0.233937	-0.000022
N140	N	1.160360	0.099396	0.333311
N141	N	1.493693	0.432729	0.666645
C142	C	0.826665	-0.259133	-0.066397
C143	C	1.159998	0.074200	0.266937
C144	C	1.493331	0.407533	0.600270
C145	C	0.819872	-0.717943	0.066320
C146	C	1.153205	-0.384609	0.399654
C147	C	1.486538	-0.051276	0.732987
C148	C	0.819130	-0.768359	0.066318
C149	C	1.152463	-0.435026	0.399651
C150	C	1.485796	-0.101693	0.732984
C151	C	0.819148	-0.768335	-0.066434
C152	C	1.152481	-0.435002	0.266899
C153	C	1.485815	-0.101669	0.600232
C154	C	0.819895	-0.717918	-0.066431
C155	C	1.153228	-0.384585	0.266903
C156	C	1.486562	-0.051252	0.600236
C157	C	0.820251	-0.692722	-0.000051
C158	C	1.153584	-0.359389	0.333282
C159	C	1.486918	-0.026056	0.666615
C160	C	0.828236	-0.153262	-0.066384
C161	C	1.161570	0.180072	0.266950
C162	C	1.494903	0.513405	0.600283
C163	C	0.828987	-0.102844	-0.066374
C164	C	1.162321	0.230489	0.266960
C165	C	1.495654	0.563823	0.600293
C166	C	0.828965	-0.102872	0.066378
C167	C	1.162299	0.230461	0.399711
C168	C	1.495632	0.563795	0.733044
C169	C	0.828218	-0.153286	0.066368
C170	C	1.161551	0.180048	0.399702
C171	C	1.494885	0.513381	0.733035
C172	C	0.827851	-0.178479	-0.000018
C173	C	1.161184	0.154854	0.333315
C174	C	1.494518	0.488188	0.666649
O175	O	0.827046	-0.233056	0.122768
O176	O	1.160380	0.100278	0.456101
O177	O	1.493713	0.433611	0.789435
O178	O	0.827048	-0.233045	-0.122841
O179	O	1.160381	0.100288	0.210492
O180	O	1.493714	0.433621	0.543825
C181	C	0.823679	-0.460790	-0.066411
C182	C	1.157012	-0.127457	0.266922
C183	C	1.490346	0.205876	0.600255
C184	C	0.823293	-0.486008	-0.000040
C185	C	1.156626	-0.152674	0.333293
C186	C	1.489960	0.180659	0.666626
C187	C	0.823655	-0.460811	0.066334
C188	C	1.156988	-0.127478	0.399668
C189	C	1.490322	0.205855	0.733001
C190	C	0.822551	-0.536424	-0.000043
C191	C	1.155885	-0.203091	0.333290
C192	C	1.489218	0.130242	0.666623
C193	C	0.822189	-0.561620	-0.066418
C194	C	1.155523	-0.228287	0.266915
C195	C	1.488856	0.105046	0.600249
C196	C	0.822569	-0.536400	-0.132790
C197	C	1.155902	-0.203067	0.200544
C198	C	1.489235	0.130267	0.533877
C199	C	0.823317	-0.485987	-0.132786
C200	C	1.156650	-0.152653	0.200548
C201	C	1.489984	0.180680	0.533881
C202	C	0.823275	-0.486032	0.132706
C203	C	1.156609	-0.152698	0.466039
C204	C	1.489942	0.180635	0.799373
C205	C	0.822528	-0.536445	0.132697
C206	C	1.155862	-0.203112	0.466030
C207	C	1.489195	0.130221	0.799363
C208	C	0.822166	-0.561641	0.066322
C209	C	1.155499	-0.228308	0.399655
C210	C	1.488833	0.105025	0.732989
C211	C	0.951751	0.060598	-0.000027
C212	C	1.285084	0.393931	0.333306
C213	C	1.618417	0.727264	0.666640
C214	C	1.029250	0.061386	-0.000033
C215	C	1.362584	0.394720	0.333300
C216	C	1.695917	0.728053	0.666634
C217	C	0.817984	0.152786	-0.000045
C218	C	1.151317	0.486119	0.333289
C219	C	1.484650	0.819452	0.666622
C220	C	0.818768	0.206444	-0.000057
C221	C	1.152101	0.539778	0.333276
C222	C	1.485434	0.873111	0.666610
N223	N	0.824035	0.064392	0.189675
N224	N	1.157369	0.397725	0.523009
N225	N	1.490702	0.731059	0.856342
N226	N	0.824087	0.064401	-0.189725
N227	N	1.157421	0.397734	0.143608
N228	N	1.490754	0.731067	0.476942
C229	C	0.871881	0.031445	0.227991
C230	C	1.205214	0.364778	0.561324
C231	C	1.538548	0.698112	0.894658
C232	C	0.871886	0.031443	0.304636
C233	C	1.205219	0.364776	0.637969
C234	C	1.538552	0.698109	0.971303
C235	C	0.824051	0.064396	0.342962
C236	C	1.157384	0.397729	0.676296
C237	C	1.490718	0.731063	1.009629
C238	C	0.776196	0.097346	0.304637
C239	C	1.109529	0.430679	0.637971
C240	C	1.442863	0.764012	0.971304
C241	C	0.776188	0.097344	0.227994
C242	C	1.109522	0.430677	0.561327
C243	C	1.442855	0.764010	0.894661
N244	N	0.814691	0.107187	0.463285
N245	N	1.148024	0.440521	0.796618
N246	N	1.481357	0.773854	1.129952
N247	N	0.814702	0.107187	0.536093
N248	N	1.148036	0.440521	0.869427
N249	N	1.481369	0.773854	1.202760
C250	C	0.824070	0.064403	0.573885
C251	C	1.157404	0.397736	0.907218
C252	C	1.490737	0.731070	1.240551
N253	N	0.833440	0.021617	0.536118
N254	N	1.166774	0.354950	0.869451
N255	N	1.500107	0.688283	1.202784
N256	N	0.833432	0.021617	0.463303
N257	N	1.166766	0.354950	0.796636
N258	N	1.500099	0.688283	1.129970
C259	C	0.824054	0.064401	0.426069
C260	C	1.157387	0.397735	0.759403
C261	C	1.490720	0.731068	1.092736
C262	C	0.871924	0.031451	0.695308
C263	C	1.205257	0.364784	1.028641
C264	C	1.538590	0.698117	1.361974
C265	C	0.871923	0.031448	0.771954
C266	C	1.205257	0.364781	1.105287
C267	C	1.538590	0.698114	1.438621
C268	C	0.776237	0.097355	0.771954
C269	C	1.109570	0.430688	1.105287
C270	C	1.442904	0.764021	1.438620
C271	C	0.776234	0.097353	0.695309
C272	C	1.109568	0.430687	1.028642
C273	C	1.442901	0.764020	1.361976
C274	C	0.824081	0.064402	0.656990
C275	C	1.157414	0.397735	0.990324
C276	C	1.490748	0.731069	1.323657
H277	H	0.184112	-0.017120	-0.000023
H278	H	0.517446	0.316214	0.333310
H279	H	0.850779	0.649547	0.666644
H280	H	0.464008	0.145919	-0.000026
H281	H	0.797341	0.479252	0.333308
H282	H	1.130675	0.812586	0.666641
H283	H	0.737286	0.124184	0.803158
H284	H	1.070620	0.457517	1.136492
H285	H	1.403953	0.790851	1.469825
H286	H	0.818825	-0.788888	0.120368
H287	H	1.152159	-0.455554	0.453701
H288	H	1.485492	-0.122221	0.787034
C289	C	0.880759	-0.666762	-0.143455
C290	C	1.214092	-0.333428	0.189878
C291	C	1.547426	-0.000095	0.523211
C292	C	0.820297	-0.690195	-0.139388
C293	C	1.153631	-0.356861	0.193946
C294	C	1.486964	-0.023528	0.527279
H295	H	0.881001	-0.649649	-0.188499
H296	H	1.214335	-0.316315	0.144834
H297	H	1.547668	0.017018	0.478168
H298	H	0.881078	-0.644543	-0.103928
H299	H	1.214412	-0.311209	0.229406
H300	H	1.547745	0.022124	0.562739
H301	H	0.921202	-0.690205	-0.140710
H302	H	1.254535	-0.356871	0.192624
H303	H	1.587869	-0.023538	0.525957
H304	H	0.779854	-0.666751	-0.142128
H305	H	1.113187	-0.333418	0.191205
H306	H	1.446521	-0.000085	0.524539
H307	H	0.819971	-0.712416	-0.178926
H308	H	1.153305	-0.379082	0.154407
H309	H	1.486638	-0.045749	0.487740
C310	C	0.655020	0.125935	0.328267
C311	C	0.988354	0.459269	0.661601
C312	C	1.321687	0.792602	0.994934
C313	C	0.723614	0.133567	0.346765
C314	C	1.056947	0.466900	0.680098
C315	C	1.390281	0.800233	1.013431
H316	H	0.622557	0.148295	0.354279
H317	H	0.955890	0.481628	0.687612
H318	H	1.289223	0.814961	1.020946
H319	H	0.648171	0.130652	0.277144
H320	H	0.981504	0.463985	0.610477
H321	H	1.314837	0.797319	0.943811
H322	H	0.647812	0.093685	0.340847
H323	H	0.981145	0.427018	0.674180
H324	H	1.314478	0.760351	1.007514
H325	H	0.730824	0.165816	0.334180
H326	H	1.064158	0.499150	0.667513
H327	H	1.397491	0.832483	1.000847
H328	H	0.730466	0.128854	0.397900
H329	H	1.063800	0.462187	0.731233
H330	H	1.397133	0.795521	1.064566
H331	H	0.737276	0.124184	0.664110
H332	H	1.070610	0.457517	0.997443
H333	H	1.403943	0.790851	1.330777
C334	C	0.760301	0.163155	0.141784
C335	C	1.093634	0.496488	0.475117
C336	C	1.426967	0.829822	0.808450
C337	C	0.723598	0.133565	0.185872
C338	C	1.056931	0.466898	0.519205
C339	C	1.390265	0.800232	0.852538
H340	H	0.727833	0.185515	0.115776
H341	H	1.061166	0.518849	0.449109
H342	H	1.394500	0.852182	0.782443
H343	H	0.789163	0.180492	0.171672
H344	H	1.122497	0.513825	0.505005
H345	H	1.455830	0.847158	0.838339
H346	H	0.788788	0.143525	0.107995
H347	H	1.122122	0.476858	0.441328
H348	H	1.455455	0.810191	0.774661
H349	H	0.695114	0.153195	0.219664
H350	H	1.028447	0.486529	0.552998
H351	H	1.361781	0.819862	0.886331
H352	H	0.694723	0.116227	0.155981
H353	H	1.028056	0.449560	0.489314
H354	H	1.361390	0.782894	0.822648
C355	C	0.548907	0.198109	-0.000029
C356	C	0.882240	0.531442	0.333305
C357	C	1.215573	0.864776	0.666638
C358	C	0.603977	0.159926	-0.000032
C359	C	0.937311	0.493259	0.333301
C360	C	1.270644	0.826592	0.666634
H361	H	0.567634	0.228257	-0.000023
H362	H	0.900967	0.561590	0.333310
H363	H	1.234300	0.894924	0.666644
H364	H	0.520880	0.195993	-0.042487
H365	H	0.854213	0.529326	0.290846
H366	H	1.187546	0.862659	0.624180
H367	H	0.520866	0.195977	0.042436
H368	H	0.854199	0.529310	0.375769
H369	H	1.187532	0.862643	0.709102
H370	H	0.632016	0.162056	-0.042499
H371	H	0.965349	0.495389	0.290834
H372	H	1.298682	0.828723	0.624167
H373	H	0.632016	0.162043	0.042430
H374	H	0.965349	0.495376	0.375764
H375	H	1.298683	0.828710	0.709097
C376	C	0.710717	-0.015002	-0.000007
C377	C	1.044050	0.318331	0.333327
C378	C	1.377384	0.651665	0.666660
C379	C	0.640975	-0.025035	-0.000008
C380	C	0.974308	0.308298	0.333326
C381	C	1.307642	0.641632	0.666659
H382	H	0.741403	-0.044646	0.000001
H383	H	1.074736	0.288687	0.333335
H384	H	1.408069	0.622020	0.666668
H385	H	0.719032	0.003220	-0.042467
H386	H	1.052366	0.336554	0.290866
H387	H	1.385699	0.669887	0.624199
H388	H	0.719016	0.003218	0.042455
H389	H	1.052349	0.336551	0.375789
H390	H	1.385682	0.669884	0.709122
H391	H	0.632675	-0.043252	-0.042473
H392	H	0.966008	0.290081	0.290861
H393	H	1.299341	0.623415	0.624194
H394	H	0.632656	-0.043265	0.042457
H395	H	0.965990	0.290068	0.375791
H396	H	1.299323	0.623401	0.709124
C397	C	0.825385	-0.339868	0.263941
C398	C	1.158718	-0.006535	0.597274
C399	C	1.492052	0.326799	0.930607
C400	C	0.825884	-0.307083	0.205688
C401	C	1.159217	0.026250	0.539021
C402	C	1.492551	0.359584	0.872355
H403	H	0.825626	-0.322770	0.308986
H404	H	1.158959	0.010563	0.642320
H405	H	1.492292	0.343897	0.975653
H406	H	0.784368	-0.355756	0.261167
H407	H	1.117702	-0.022423	0.594501
H408	H	1.451035	0.310910	0.927834
H409	H	0.865831	-0.363307	0.261179
H410	H	1.199164	-0.029974	0.594512
H411	H	1.532498	0.303359	0.927846
H412	H	0.785435	-0.283646	0.208446
H413	H	1.118768	0.049688	0.541780
H414	H	1.452102	0.383021	0.875113
H415	H	0.866905	-0.291187	0.208463
H416	H	1.200239	0.042147	0.541796
H417	H	1.533572	0.375480	0.875129
C418	C	0.826546	-0.257441	-0.191733
C419	C	1.159879	0.075892	0.141601
C420	C	1.493213	0.409226	0.474934
C421	C	0.825866	-0.307020	-0.205737
C422	C	1.159199	0.026313	0.127596
C423	C	1.492533	0.359646	0.460930
H424	H	0.826703	-0.240325	-0.236780
H425	H	1.160037	0.093009	0.096553
H426	H	1.493370	0.426342	0.429886
H427	H	0.785971	-0.245440	-0.164389
H428	H	1.119304	0.087893	0.168944
H429	H	1.452637	0.421227	0.502278
H430	H	0.867434	-0.252934	-0.164540
H431	H	1.200767	0.080399	0.168794
H432	H	1.534101	0.413733	0.502127
H433	H	0.784975	-0.311528	-0.232925
H434	H	1.118308	0.021806	0.100408
H435	H	1.451642	0.355139	0.433741
H436	H	0.866446	-0.319025	-0.233092
H437	H	1.199779	0.014309	0.100241
H438	H	1.533112	0.347642	0.433575
C439	C	0.818007	-0.845613	-0.125372
C440	C	1.151340	-0.512280	0.207961
C441	C	1.484673	-0.178946	0.541295
C442	C	0.818743	-0.796037	-0.139395
C443	C	1.152076	-0.462704	0.193938
C444	C	1.485409	-0.129370	0.527271
H445	H	0.817748	-0.862714	-0.170413
H446	H	1.151081	-0.529381	0.162920
H447	H	1.484415	-0.196048	0.496253
H448	H	0.858614	-0.857650	-0.098111
H449	H	1.191947	-0.524317	0.235222
H450	H	1.525281	-0.190984	0.568556
H451	H	0.777151	-0.850096	-0.098090
H452	H	1.110484	-0.516762	0.235243
H453	H	1.443818	-0.183429	0.568576
H454	H	0.859601	-0.791554	-0.166673
H455	H	1.192934	-0.458220	0.166661
H456	H	1.526268	-0.124887	0.499994
H457	H	0.778131	-0.783996	-0.166668
H458	H	1.111465	-0.450662	0.166665
H459	H	1.444798	-0.117329	0.499999
H460	H	0.495989	-0.013936	-0.000012
H461	H	0.829322	0.319397	0.333321
H462	H	1.162656	0.652731	0.666655
H463	H	0.829304	-0.082315	-0.120428
H464	H	1.162637	0.251019	0.212906
H465	H	1.495970	0.584352	0.546239
C466	C	0.913875	-0.052298	0.671658
C467	C	1.247208	0.281035	1.004991
C468	C	1.580541	0.614368	1.338325
C469	C	0.924507	-0.004756	0.653151
C470	C	1.257841	0.328577	0.986484
C471	C	1.591174	0.661911	1.319817
H472	H	0.946335	-0.074645	0.645620
H473	H	1.279669	0.258688	0.978954
H474	H	1.613002	0.592022	1.312287
H475	H	0.920746	-0.057029	0.722776
H476	H	1.254079	0.276304	1.056109
H477	H	1.587413	0.609637	1.389442
H478	H	0.867334	-0.057465	0.659116
H479	H	1.200667	0.275868	0.992449
H480	H	1.534000	0.609201	1.325783
H481	H	0.971047	0.000412	0.665697
H482	H	1.304381	0.333745	0.999031
H483	H	1.637714	0.667079	1.332364
H484	H	0.917642	-0.000023	0.602021
H485	H	1.250975	0.333310	0.935355
H486	H	1.584309	0.666644	1.268688
C487	C	0.019420	0.180684	-0.062642
C488	C	0.352753	0.514018	0.270692
C489	C	0.686086	0.847351	0.604025
C490	C	0.007139	0.153828	-0.000044
C491	C	0.340473	0.487162	0.333289
C492	C	0.673806	0.820495	0.666622
H493	H	-0.011268	0.210328	-0.062650
H494	H	0.322065	0.543661	0.270683
H495	H	0.655398	0.876994	0.604016
H496	H	0.066731	0.187482	-0.062633
H497	H	0.400065	0.520815	0.270701
H498	H	0.733398	0.854149	0.604034
H499	H	0.011113	0.162459	-0.105095
H500	H	0.344446	0.495792	0.228238
H501	H	0.677779	0.829126	0.561571
H502	H	0.015451	0.172052	0.042410
H503	H	0.348785	0.505385	0.375743
H504	H	0.682118	0.838719	0.709076
H505	H	-0.040184	0.147032	-0.000047
H506	H	0.293150	0.480365	0.333287
H507	H	0.626483	0.813699	0.666620
C508	C	0.823255	-0.491042	-0.264001
C509	C	1.156588	-0.157709	0.069332
C510	C	1.489921	0.175624	0.402666
C511	C	0.823734	-0.458272	-0.205749
C512	C	1.157067	-0.124938	0.127584
C513	C	1.490401	0.208395	0.460917
H514	H	0.823507	-0.473933	-0.309047
H515	H	1.156840	-0.140600	0.024286
H516	H	1.490173	0.192734	0.357619
H517	H	0.863694	-0.514480	-0.261238
H518	H	1.197027	-0.181147	0.072095
H519	H	1.530360	0.152187	0.405429
H520	H	0.782231	-0.506933	-0.261229
H521	H	1.115564	-0.173599	0.072105
H522	H	1.448897	0.159734	0.405438
H523	H	0.864761	-0.442384	-0.208519
H524	H	1.198094	-0.109051	0.124815
H525	H	1.531428	0.224283	0.458148
H526	H	0.783291	-0.434825	-0.208514
H527	H	1.116624	-0.101492	0.124819
H528	H	1.449958	0.231841	0.458153
H529	H	0.827934	-0.173768	-0.120442
H530	H	1.161267	0.159566	0.212892
H531	H	1.494601	0.492899	0.546225
H532	H	0.910883	0.004616	0.803151
H533	H	1.244216	0.337949	1.136484
H534	H	1.577550	0.671282	1.469818
C535	C	0.819795	-0.723043	0.197539
C536	C	1.153128	-0.389710	0.530873
C537	C	1.486462	-0.056376	0.864206
C538	C	0.820278	-0.690253	0.139292
C539	C	1.153611	-0.356919	0.472625
C540	C	1.486944	-0.023586	0.805958
H541	H	0.820055	-0.705950	0.242588
H542	H	1.153388	-0.372616	0.575921
H543	H	1.486721	-0.039283	0.909254
H544	H	0.778775	-0.738928	0.194779
H545	H	1.112108	-0.405595	0.528113
H546	H	1.445441	-0.072262	0.861446
H547	H	0.860237	-0.746484	0.194759
H548	H	1.193571	-0.413151	0.528092
H549	H	1.526904	-0.079818	0.861425
H550	H	0.779832	-0.666813	0.142069
H551	H	1.113166	-0.333480	0.475402
H552	H	1.446499	-0.000147	0.808736
H553	H	0.861302	-0.674360	0.142053
H554	H	1.194636	-0.341026	0.475386
H555	H	1.527969	-0.007693	0.808720
C556	C	0.099206	-0.069317	-0.000018
C557	C	0.432539	0.264016	0.333316
C558	C	0.765872	0.597350	0.666649
C559	C	0.044137	-0.031132	-0.000025
C560	C	0.377470	0.302201	0.333308
C561	C	0.710803	0.635534	0.666641
H562	H	0.080478	-0.099464	-0.000007
H563	H	0.413811	0.233869	0.333326
H564	H	0.747144	0.567202	0.666660
H565	H	0.127244	-0.067193	-0.042477
H566	H	0.460578	0.266141	0.290856
H567	H	0.793911	0.599474	0.624189
H568	H	0.127236	-0.067193	0.042445
H569	H	0.460569	0.266140	0.375779
H570	H	0.793903	0.599473	0.709112
H571	H	0.016109	-0.033254	-0.042491
H572	H	0.349443	0.300079	0.290842
H573	H	0.682776	0.633413	0.624176
H574	H	0.016087	-0.033258	0.042439
H575	H	0.349420	0.300076	0.375772
H576	H	0.682753	0.633409	0.709106
H577	H	0.824515	-0.405669	-0.186831
H578	H	1.157849	-0.072336	0.146502
H579	H	1.491182	0.260998	0.479835
C580	C	0.201343	0.158515	-0.062620
C581	C	0.534677	0.491849	0.270713
C582	C	0.868010	0.825182	0.604047
C583	C	0.159999	0.155388	-0.000031
C584	C	0.493333	0.488721	0.333302
C585	C	0.826666	0.822055	0.666635
H586	H	0.220069	0.188664	-0.062615
H587	H	0.553402	0.521997	0.270719
H588	H	0.886735	0.855331	0.604052
H589	H	0.238690	0.132608	-0.062614
H590	H	0.572024	0.465942	0.270720
H591	H	0.905357	0.799275	0.604053
H592	H	0.173305	0.156403	-0.105079
H593	H	0.506638	0.489736	0.228254
H594	H	0.839972	0.823070	0.561587
H595	H	0.188039	0.157497	0.042429
H596	H	0.521373	0.490830	0.375762
H597	H	0.854706	0.824163	0.709095
H598	H	0.122647	0.181302	-0.000031
H599	H	0.455981	0.514636	0.333302
H600	H	0.789314	0.847969	0.666636
C601	C	0.763819	-0.436309	0.209729
C602	C	1.097152	-0.102976	0.543063
C603	C	1.430486	0.230357	0.876396
C604	C	0.824303	-0.412898	0.205693
C605	C	1.157636	-0.079565	0.539026
C606	C	1.490969	0.253768	0.872359
H607	H	0.763534	-0.453409	0.254782
H608	H	1.096867	-0.120075	0.588115
H609	H	1.430201	0.213258	0.921448
H610	H	0.723396	-0.412860	0.206939
H611	H	1.056729	-0.079527	0.540272
H612	H	1.390063	0.253807	0.873605
H613	H	0.763516	-0.458543	0.170210
H614	H	1.096849	-0.125210	0.503543
H615	H	1.430183	0.208123	0.836877
H616	H	0.824603	-0.390662	0.245209
H617	H	1.157937	-0.057328	0.578543
H618	H	1.491270	0.276005	0.911876
H619	H	0.864737	-0.436351	0.208491
H620	H	1.198070	-0.103017	0.541824
H621	H	1.531403	0.230316	0.875157
H622	H	0.827910	-0.173819	0.120417
H623	H	1.161243	0.159514	0.453751
H624	H	1.494576	0.492848	0.787084
C625	C	0.830089	-0.025592	0.125312
C626	C	1.163423	0.307741	0.458646
C627	C	1.496756	0.641074	0.791979
C628	C	0.829358	-0.075169	0.139335
C629	C	1.162692	0.258164	0.472668
C630	C	1.496025	0.591498	0.806001
H631	H	0.830324	-0.008489	0.170354
H632	H	1.163657	0.324844	0.503688
H633	H	1.496990	0.658177	0.837021
H634	H	0.870947	-0.021106	0.098051
H635	H	1.204281	0.312228	0.431384
H636	H	1.537614	0.645561	0.764717
H637	H	0.789484	-0.013559	0.098032
H638	H	1.122818	0.319775	0.431365
H639	H	1.456151	0.653108	0.764699
H640	H	0.869966	-0.087204	0.166611
H641	H	1.203299	0.246130	0.499944
H642	H	1.536633	0.579463	0.833277
H643	H	0.788496	-0.079659	0.166608
H644	H	1.121829	0.253675	0.499941
H645	H	1.455163	0.587008	0.833275
H646	H	0.910849	0.004612	0.335838
H647	H	1.244182	0.337946	0.669172
H648	H	1.577515	0.671279	1.002505
H649	H	0.822277	-0.556924	-0.186834
H650	H	1.155610	-0.223591	0.146499
H651	H	1.488944	0.109743	0.479832
H652	H	0.822219	-0.556973	0.186752
H653	H	1.155552	-0.223640	0.520086
H654	H	1.488885	0.109694	0.853419
H655	H	0.823571	-0.465522	0.186758
H656	H	1.156905	-0.132189	0.520091
H657	H	1.490238	0.201145	0.853424
C658	C	0.966461	-0.033701	0.235696
C659	C	1.299795	0.299632	0.569029
C660	C	1.633128	0.632965	0.902362
C661	C	0.924467	-0.004780	0.185873
C662	C	1.257800	0.328553	0.519206
C663	C	1.591133	0.661887	0.852539
H664	H	0.998921	-0.056067	0.209691
H665	H	1.332254	0.277266	0.543024
H666	H	1.665588	0.610600	0.876357
H667	H	0.991354	-0.013621	0.265570
H668	H	1.324687	0.319712	0.598903
H669	H	1.658020	0.653045	0.932236
H670	H	0.937588	-0.051036	0.265609
H671	H	1.270922	0.282298	0.598942
H672	H	1.604255	0.615631	0.932276
H673	H	0.953339	0.012557	0.155963
H674	H	1.286673	0.345891	0.489296
H675	H	1.620006	0.679224	0.822629
H676	H	0.899572	-0.024863	0.155986
H677	H	1.232906	0.308471	0.489319
H678	H	1.566239	0.641804	0.822653
