data_functionalizedCrystal
_audit_creation_method	'MofGen! by Chris Wilmer'
_symmetry_space_group_name_H-M	'P1'
_symmetry_Int_Tables_number	1
_symmetry_cell_setting	triclinic
loop_
_symmetry_equiv_pos_as_xyz
  x,y,z
_cell_length_a	16.109304
_cell_length_b	16.109301
_cell_length_c	15.186229
_cell_angle_alpha	89.999362
_cell_angle_beta	89.999066
_cell_angle_gamma	83.462059
loop_
_atom_site_label
_atom_site_type_symbol
_atom_site_fract_x
_atom_site_fract_y
_atom_site_fract_z
O1	O	0.106866	1.103132	-0.073167
O2	O	0.120165	0.861070	-0.073181
O3	O	-0.007515	0.988749	-0.073174
O4	O	0.234546	0.975452	-0.073174
O5	O	-0.007517	0.988741	0.073283
O6	O	0.120163	0.861061	0.073277
O7	O	0.106864	1.103123	0.073290
Zn8	Zn	0.113513	0.982091	0.096537
Zn9	Zn	0.113516	0.982102	-0.096427
O10	O	0.234545	0.975444	0.073283
C11	C	0.119626	0.830091	0.000046
C12	C	0.118010	0.737795	0.000041
C13	C	-0.038491	0.988206	0.000052
C14	C	-0.130786	0.986590	0.000046
C15	C	0.190018	0.515524	0.000051
C16	C	0.188494	0.428803	0.000057
C17	C	0.037005	0.448676	0.000053
C18	C	0.038530	0.535395	0.000054
C19	C	0.115039	0.568816	0.000048
C20	C	0.111990	0.395377	0.000053
C21	C	0.110337	0.301351	0.000059
C22	C	0.116693	0.662848	0.000044
C23	C	-0.343123	0.982861	-0.079784
C24	C	-0.429843	0.981335	-0.079784
C25	C	-0.429842	0.981330	0.079892
C26	C	-0.343122	0.982850	0.079890
C27	C	-0.299766	0.983620	0.000050
C28	C	-0.473205	0.980573	0.000052
C29	C	-0.567231	0.978919	0.000053
C30	C	-0.205734	0.985273	0.000048
C31	C	0.265520	0.975987	0.000055
C32	C	0.357816	0.977603	0.000055
C33	C	0.107404	1.134102	0.000061
C34	C	0.109019	1.226398	0.000061
N35	N	0.113511	0.982089	0.228229
N36	N	0.113511	0.982110	-0.228120
C37	C	0.056993	1.038645	0.453955
C38	C	0.056991	1.038648	0.546145
C39	C	0.170032	0.925549	0.546148
C40	C	0.170029	0.925543	0.453960
C41	C	0.113511	0.982096	0.407866
C42	C	0.113512	0.982104	0.592243
C43	C	0.113510	0.982107	0.692200
C44	C	0.113511	0.982092	0.307903
H45	H	0.252316	0.542732	0.000053
C46	C	0.270972	0.370181	0.000056
C47	C	0.290757	0.307834	0.076110
C48	C	0.373238	0.249210	0.076111
C49	C	0.435935	0.252934	0.000058
C50	C	0.416151	0.315283	-0.076002
C51	C	0.333670	0.373906	-0.076003
H52	H	0.244344	0.305075	0.132415
H53	H	0.387883	0.203055	0.132416
H54	H	0.496992	0.209537	0.000058
H55	H	0.462564	0.318042	-0.132307
H56	H	0.319025	0.420061	-0.132308
C57	C	-0.047150	0.411908	0.000049
C58	C	-0.069033	0.355019	0.076095
C59	C	-0.153190	0.318252	0.076088
C60	C	-0.215464	0.338376	0.000035
C61	C	-0.193582	0.395268	-0.076017
C62	C	-0.109425	0.432035	-0.076010
H63	H	-0.022933	0.340119	0.132400
H64	H	-0.169388	0.276136	0.132387
H65	H	-0.277762	0.311159	0.000029
H66	H	-0.239682	0.410167	-0.132322
H67	H	-0.093227	0.474150	-0.132309
H68	H	0.216053	0.879489	0.416432
C69	C	-0.477535	0.980504	-0.167604
C70	C	-0.475074	1.052871	-0.233462
C71	C	-0.522765	1.052040	-0.321286
C72	C	-0.572916	0.978841	-0.343252
C73	C	-0.575378	0.906469	-0.277392
C74	C	-0.527687	0.907300	-0.189568
H75	H	-0.437948	1.107062	-0.217203
H76	H	-0.520942	1.105615	-0.370040
H77	H	-0.608220	0.978226	-0.408265
H78	H	-0.612505	0.852278	-0.293652
H79	H	-0.529510	0.853725	-0.140814
C80	C	-0.005176	1.100855	0.596844
C81	C	-0.067335	1.163066	0.546140
C82	C	-0.129506	1.225275	0.596839
C83	C	-0.129519	1.225274	0.698242
C84	C	-0.067358	1.163061	0.748952
C85	C	-0.005187	1.100852	0.698253
H86	H	-0.067327	1.163069	0.471070
H87	H	-0.175521	1.271329	0.559300
H88	H	-0.175542	1.271325	0.735773
H89	H	-0.067365	1.163058	0.824022
H90	H	0.040829	1.054797	0.735792
H91	H	-0.022530	0.578788	0.000054
C92	C	-0.005181	1.100845	0.403251
C93	C	0.027316	1.164418	0.339869
C94	C	-0.034863	1.226618	0.289168
C95	C	-0.129539	1.225245	0.301849
C96	C	-0.162041	1.161670	0.365234
C97	C	-0.099862	1.099470	0.415935
H98	H	0.097406	1.165436	0.330479
H99	H	-0.010802	1.273680	0.242246
H100	H	-0.175567	1.271289	0.264318
H101	H	-0.232131	1.160652	0.374624
H102	H	-0.123923	1.052408	0.462857
C103	C	-0.477538	0.980493	0.167714
C104	C	-0.572926	0.978826	0.167721
C105	C	-0.620620	0.977992	0.255544
C106	C	-0.572926	0.978825	0.343361
C107	C	-0.477532	0.980491	0.343358
C108	C	-0.429838	0.981325	0.255534
H109	H	-0.608237	0.978210	0.102710
H110	H	-0.691237	0.976758	0.255547
H111	H	-0.608232	0.978208	0.408374
H112	H	-0.442221	0.981108	0.408368
H113	H	-0.359221	0.982559	0.255532
H114	H	0.216049	0.879506	0.583687
C115	C	-0.295428	0.983699	-0.167607
C116	C	-0.343123	0.982860	-0.255422
C117	C	-0.295431	0.983696	-0.343247
C118	C	-0.200044	0.985371	-0.343256
C119	C	-0.152343	0.986210	-0.255437
C120	C	-0.200035	0.985374	-0.167613
H121	H	-0.413740	0.981620	-0.255418
H122	H	-0.330743	0.983074	-0.408257
H123	H	-0.164739	0.985989	-0.408270
H124	H	-0.081727	0.987450	-0.255441
H125	H	-0.164723	0.985996	-0.102603
C126	C	-0.295424	0.983687	0.167714
C127	C	-0.297886	0.911326	0.233580
C128	C	-0.250187	0.912161	0.321400
C129	C	-0.200028	0.985356	0.343354
C130	C	-0.197564	1.057722	0.277486
C131	C	-0.245263	1.056888	0.189667
H132	H	-0.335019	0.857138	0.217330
H133	H	-0.252011	0.858590	0.370159
H134	H	-0.164718	0.985973	0.408363
H135	H	-0.160431	1.111910	0.293736
H136	H	-0.243439	1.110458	0.140907
