data_functionalizedCrystal
_audit_creation_method	'MofGen! by Chris Wilmer'
_symmetry_space_group_name_H-M	'P1'
_symmetry_Int_Tables_number	1
_symmetry_cell_setting	triclinic
loop_
_symmetry_equiv_pos_as_xyz
  x,y,z
_cell_length_a	12.837943
_cell_length_b	16.109301
_cell_length_c	14.586319
_cell_angle_alpha	90.013784
_cell_angle_beta	90.006323
_cell_angle_gamma	89.145210
loop_
_atom_site_label
_atom_site_type_symbol
_atom_site_fract_x
_atom_site_fract_y
_atom_site_fract_z
O1	O	-1.375385	-0.216139	-0.076230
O2	O	-1.073583	-0.205463	-0.076235
O3	O	-1.232775	-0.090429	-0.076223
O4	O	-1.216193	-0.331174	-0.076242
O5	O	-1.232752	-0.090406	0.076257
O6	O	-1.073561	-0.205440	0.076245
O7	O	-1.375363	-0.216116	0.076251
Cu8	Cu	-1.224460	-0.210776	0.090171
Cu9	Cu	-1.224486	-0.210803	-0.090156
O10	O	-1.216171	-0.331150	0.076239
C11	C	-1.034953	-0.201845	0.000005
C12	C	-0.919879	-0.191088	0.000003
C13	C	-1.232092	-0.059389	0.000018
C14	C	-1.230078	0.033066	0.000019
C15	C	-1.413993	-0.219735	0.000009
C16	C	-1.529067	-0.230491	0.000004
C17	C	-0.678877	-0.320405	0.000006
C18	C	-0.570755	-0.310302	0.000005
C19	C	-0.595510	-0.160779	0.000007
C20	C	-0.703632	-0.170882	0.000008
C21	C	-0.745312	-0.250698	0.000006
C22	C	-0.853436	-0.260800	0.000000
C23	C	-0.878189	-0.111278	0.000009
C24	C	-0.770067	-0.101175	0.000008
C25	C	-1.216854	-0.362190	-0.000004
C26	C	-1.218868	-0.454645	-0.000012
N27	N	-1.224448	-0.210757	0.217002
C28	C	-1.319857	0.248206	0.000006
C29	C	-1.317957	0.335078	-0.000002
C30	C	-1.129081	0.330208	-0.000001
C31	C	-1.130983	0.243338	-0.000000
C32	C	-1.226374	0.202340	0.000008
C33	C	-1.222572	0.376081	-0.000001
C34	C	-1.220511	0.470271	-0.000009
C35	C	-1.228435	0.108144	0.000014
N36	N	-1.224506	-0.210817	-0.216987
C37	C	-1.161632	-0.155362	0.548034
C38	C	-1.161623	-0.155349	0.452053
C39	C	-1.287330	-0.266214	0.451987
C40	C	-1.287343	-0.266222	0.547967
C41	C	-1.224488	-0.210796	0.595988
C42	C	-1.224466	-0.210777	0.404027
C43	C	-1.224458	-0.210764	0.299960
C44	C	-1.224497	-0.210808	0.700062
H45	H	-0.887369	-0.325790	0.000000
H46	H	-0.712813	-0.385393	0.000003
O47	O	-1.040236	0.198688	0.000123
C48	C	-1.035665	0.148323	0.079104
H49	H	-1.117939	0.137433	0.105435
H50	H	-0.988317	0.180608	0.134403
C51	C	-0.882440	0.077781	0.022772
C52	C	-0.983492	0.064400	0.055107
H53	H	-0.850253	0.026015	0.007972
H54	H	-0.885516	0.111715	-0.030438
H55	H	-0.842997	0.104688	0.068859
H56	H	-1.022937	0.037504	0.009016
H57	H	-0.980421	0.030460	0.108309
H58	H	-0.932293	-0.054518	0.000003
H59	H	-1.338533	-0.311365	0.587012
H60	H	-0.736116	-0.036192	0.000020
H61	H	-0.561555	-0.095797	0.000084
H62	H	-1.110452	-0.110230	0.587130
O63	O	-1.408836	0.379541	-0.000123
C64	C	-1.466750	0.359787	-0.079103
H65	H	-1.441279	0.296016	-0.105428
H66	H	-1.452600	0.408327	-0.134405
C67	C	-1.614820	0.437109	-0.022779
C68	C	-1.583542	0.358781	-0.055107
H69	H	-1.686863	0.436492	-0.007980
H70	H	-1.575802	0.450421	0.030430
H71	H	-1.603020	0.477551	-0.068869
H72	H	-1.595330	0.318343	-0.009013
H73	H	-1.622565	0.345462	-0.108308
O74	O	-1.100466	-0.101472	0.405614
C75	C	-1.045017	-0.052542	0.468584
H76	H	-1.038966	-0.086486	0.536988
H77	H	-1.087738	0.009316	0.478809
C78	C	-0.942342	0.004888	0.347137
C79	C	-0.934903	-0.036806	0.431151
H80	H	-0.874420	0.014599	0.324046
H81	H	-0.979701	-0.028074	0.304712
H82	H	-0.977948	0.056432	0.355670
H83	H	-0.899310	-0.088353	0.422615
H84	H	-0.897535	-0.003852	0.473574
H85	H	-0.516666	-0.367065	0.000007
O86	O	-1.412451	0.208286	-0.000118
C87	C	-1.419217	0.158181	-0.079101
H88	H	-1.337510	0.143046	-0.105424
H89	H	-1.465089	0.192849	-0.134403
C90	C	-1.575368	0.095649	-0.022784
C91	C	-1.475014	0.077055	-0.055110
H92	H	-1.609790	0.045608	-0.007988
H93	H	-1.570812	0.129408	0.030427
H94	H	-1.613581	0.124541	-0.068875
H95	H	-1.436798	0.048173	-0.009016
H96	H	-1.479564	0.043289	-0.108313
H97	H	-1.051417	0.363600	-0.000006
H98	H	-1.338502	-0.311341	0.412877
