data_functionalizedCrystal
_audit_creation_method	'MofGen! by Chris Wilmer'
_symmetry_space_group_name_H-M	'P1'
_symmetry_Int_Tables_number	1
_symmetry_cell_setting	triclinic
loop_
_symmetry_equiv_pos_as_xyz
  x,y,z
_cell_length_a	14.519709
_cell_length_b	17.038272
_cell_length_c	13.596369
_cell_angle_alpha	89.993837
_cell_angle_beta	90.000291
_cell_angle_gamma	87.395851
loop_
_atom_site_label
_atom_site_type_symbol
_atom_site_fract_x
_atom_site_fract_y
_atom_site_fract_z
O1	O	1.231711	0.102502	-0.081664
O2	O	0.964158	0.114573	-0.081694
O3	O	1.096344	-0.005280	-0.081671
O4	O	1.099525	0.222356	-0.081686
O5	O	1.096330	-0.005286	0.081912
O6	O	0.964143	0.114567	0.081889
O7	O	1.231696	0.102496	0.081919
Zn8	Zn	1.097918	0.108530	0.107877
Zn9	Zn	1.097937	0.108539	-0.107651
O10	O	1.099510	0.222349	0.081897
C11	C	0.929748	0.114008	0.000094
C12	C	0.827237	0.112322	0.000083
C13	C	0.451867	0.106116	0.000128
C14	C	0.556307	0.107839	0.000115
C15	C	0.639549	0.109219	0.000104
C16	C	0.743995	0.110942	0.000093
C17	C	1.093444	-0.034416	0.000120
C18	C	1.084814	-0.121223	0.000119
C19	C	1.164047	-0.171209	0.000129
C20	C	1.155933	-0.252773	0.000118
C21	C	1.068585	-0.284349	0.000105
C22	C	0.989347	-0.234357	0.000092
C23	C	0.997462	-0.152795	0.000096
C24	C	1.039916	-0.530153	0.000089
C25	C	1.031807	-0.611722	0.000088
C26	C	1.198394	-0.630132	0.000112
C27	C	1.206502	-0.548568	0.000122
C28	C	1.127263	-0.498583	0.000104
C29	C	1.060289	-0.367720	0.000098
C30	C	1.135560	-0.415213	0.000104
C31	C	1.266107	0.103062	0.000129
C32	C	1.368617	0.104748	0.000134
C33	C	1.102410	0.251486	0.000103
C34	C	1.111040	0.338292	0.000098
N35	N	1.097911	0.108524	0.254968
N36	N	1.097950	0.108539	-0.254743
C37	C	1.097936	0.108540	0.656259
C38	C	1.097926	0.108538	0.544608
C39	C	1.097924	0.108533	0.455617
C40	C	1.097913	0.108530	0.343959
H41	H	1.220453	-0.293468	0.000129
C42	C	0.893260	-0.269085	0.000076
C43	C	0.825672	-0.250266	-0.084878
C44	C	0.729583	-0.284990	-0.084892
C45	C	0.701082	-0.338533	0.000050
C46	C	0.768671	-0.357355	0.085011
C47	C	0.864760	-0.322631	0.085024
H48	H	0.846770	-0.210627	-0.147763
H49	H	0.679549	-0.271057	-0.147786
H50	H	0.629951	-0.364238	0.000040
H51	H	0.747574	-0.396993	0.147896
H52	H	0.914794	-0.336564	0.147919
H53	H	1.235175	-0.145506	0.000145
H54	H	0.932942	-0.112096	0.000087
H55	H	1.277629	-0.522865	0.000132
H56	H	1.206678	-0.389500	0.000093
C57	C	1.285552	-0.685117	0.000121
C58	C	1.302878	-0.743732	0.085062
C59	C	1.390039	-0.798717	0.085065
C60	C	1.459876	-0.795087	0.000127
C61	C	1.442552	-0.736469	-0.084820
C62	C	1.355390	-0.681484	-0.084823
H63	H	1.251179	-0.746422	0.147943
H64	H	1.402863	-0.842110	0.147949
H65	H	1.524398	-0.835790	0.000130
H66	H	1.494251	-0.733779	-0.147702
H67	H	1.342566	-0.638091	-0.147707
C68	C	0.964210	-0.402461	0.000083
C69	C	0.935723	-0.456019	0.085015
C70	C	0.839646	-0.490766	0.084993
C71	C	0.772056	-0.471955	0.000038
C72	C	0.800541	-0.418394	-0.084901
C73	C	0.896619	-0.383647	-0.084879
H74	H	0.985759	-0.469947	0.147910
H75	H	0.818559	-0.530415	0.147871
H76	H	0.700934	-0.497676	0.000021
H77	H	0.750506	-0.404466	-0.147796
H78	H	0.917705	-0.343998	-0.147757
C79	C	0.935722	-0.646464	0.000065
C80	C	0.868100	-0.627669	0.084991
C81	C	0.772023	-0.662416	0.084968
C82	C	0.743568	-0.715958	0.000020
C83	C	0.811191	-0.734755	-0.084913
C84	C	0.907268	-0.700008	-0.084890
H85	H	0.889163	-0.588032	0.147880
H86	H	0.721964	-0.648501	0.147841
H87	H	0.672446	-0.741679	0.000003
H88	H	0.790128	-0.774392	-0.147802
H89	H	0.957327	-0.713924	-0.147763
H90	H	0.975394	-0.489465	0.000074
