data_functionalizedCrystal
_audit_creation_method	'MofGen! by Chris Wilmer'
_symmetry_space_group_name_H-M	'P1'
_symmetry_Int_Tables_number	1
_symmetry_cell_setting	triclinic
loop_
_symmetry_equiv_pos_as_xyz
  x,y,z
_cell_length_a	15.944551
_cell_length_b	14.971486
_cell_length_c	14.048226
_cell_angle_alpha	89.998499
_cell_angle_beta	90.001543
_cell_angle_gamma	96.443567
loop_
_atom_site_label
_atom_site_type_symbol
_atom_site_fract_x
_atom_site_fract_y
_atom_site_fract_z
O1	O	-0.109463	1.186829	-0.079041
O2	O	0.390537	1.686829	0.420959
O3	O	-0.122572	0.926415	-0.079065
O4	O	0.377428	1.426415	0.420935
O5	O	0.006251	1.063733	-0.079058
O6	O	0.506251	1.563733	0.420942
O7	O	-0.238286	1.049510	-0.079048
O8	O	0.261714	1.549510	0.420952
O9	O	0.006258	1.063717	0.079264
O10	O	0.506258	1.563717	0.579264
O11	O	-0.122564	0.926398	0.079256
O12	O	0.377436	1.426398	0.579256
O13	O	-0.109456	1.186812	0.079281
O14	O	0.390544	1.686812	0.579281
Zn15	Zn	-0.116009	1.056603	0.104405
Zn16	Zn	0.383991	1.556603	0.604405
Zn17	Zn	-0.116019	1.056624	-0.104190
Zn18	Zn	0.383981	1.556624	0.395810
O19	O	-0.238278	1.049494	0.079273
O20	O	0.261722	1.549494	0.579273
C21	C	-0.121982	0.893082	0.000092
C22	C	0.378018	1.393082	0.500092
C23	C	-0.120225	0.793787	0.000082
C24	C	0.379775	1.293787	0.500082
C25	C	-0.195904	0.736480	0.000087
C26	C	0.304096	1.236480	0.500087
C27	C	-0.194249	0.643182	0.000101
C28	C	0.305751	1.143182	0.500101
C29	C	-0.116913	0.607194	0.000104
C30	C	0.383087	1.107194	0.500104
C31	C	-0.041227	0.664508	0.000102
C32	C	0.458773	1.164508	0.500102
C33	C	-0.042884	0.757804	0.000095
C34	C	0.457116	1.257804	0.500095
C35	C	-0.037780	0.470049	0.000115
C36	C	0.462220	0.970049	0.500115
C37	C	-0.036123	0.376747	0.000121
C38	C	0.463877	0.876747	0.500121
C39	C	-0.189145	0.355428	0.000121
C40	C	0.310855	0.855428	0.500121
C41	C	-0.190801	0.448724	0.000114
C42	C	0.309199	0.948724	0.500114
C43	C	-0.115116	0.506032	0.000110
C44	C	0.384884	1.006032	0.500110
C45	C	-0.269576	1.050093	0.000114
C46	C	0.230424	1.550093	0.500114
C47	C	-0.362824	1.051863	0.000118
C48	C	0.137176	1.551863	0.500118
C49	C	-0.577766	1.141210	0.000112
C50	C	-0.077766	1.641210	0.500112
C51	C	-0.638739	1.099712	0.078170
C52	C	-0.138739	1.599712	0.578170
C53	C	-0.533553	1.055065	0.000110
C54	C	-0.033553	1.555065	0.500110
C55	C	-0.638732	1.099708	-0.077922
C56	C	-0.138732	1.599708	0.422078
C57	C	-0.698469	1.058165	0.000098
C58	C	-0.198469	1.558165	0.500098
C59	C	-0.593298	1.013543	0.078232
C60	C	-0.093298	1.513543	0.578232
C61	C	-0.593284	1.013551	-0.077930
C62	C	-0.093284	1.513551	0.422070
C63	C	-0.654240	0.971991	0.000146
C64	C	-0.154240	1.471991	0.500146
C65	C	-0.438549	1.053282	0.000118
C66	C	0.061451	1.553282	0.500118
C67	C	-0.793471	1.059941	0.000097
C68	C	-0.293471	1.559941	0.500097
C69	C	0.037549	1.063134	0.000099
C70	C	0.537549	1.563134	0.500099
C71	C	0.130797	1.061364	0.000089
C72	C	0.630797	1.561364	0.500089
C73	C	-0.110046	1.220145	0.000121
C74	C	0.389954	1.720145	0.500121
C75	C	-0.111802	1.319440	0.000125
C76	C	0.388198	1.819440	0.500125
N77	N	-0.116001	1.056594	0.246766
N78	N	0.383999	1.556594	0.746766
N79	N	-0.116019	1.056640	-0.246550
N80	N	0.383981	1.556640	0.253450
C81	C	-0.058982	1.117418	0.296587
C82	C	0.441018	1.617418	0.796587
C83	C	-0.058982	1.117424	0.396245
C84	C	0.441018	1.617424	0.896245
C85	C	-0.116005	1.056610	0.446080
C86	C	0.383995	1.556610	0.946080
C87	C	-0.173027	0.995780	0.396251
C88	C	0.326973	1.495780	0.896251
C89	C	-0.173022	0.995770	0.296595
C90	C	0.326978	1.495770	0.796595
C91	C	-0.173033	0.995806	0.603965
C92	C	0.326967	1.495806	1.103965
C93	C	-0.173038	0.995816	0.703628
C94	C	0.326962	1.495816	1.203628
C95	C	-0.058992	1.117459	0.703615
C96	C	0.441008	1.617459	1.203615
C97	C	-0.058988	1.117450	0.603959
C98	C	0.441012	1.617450	1.103959
C99	C	-0.116011	1.056621	0.554138
C100	C	0.383989	1.556621	1.054138
H101	H	-0.258881	0.765774	0.000083
H102	H	0.241119	1.265774	0.500083
H103	H	-0.255875	0.596526	0.000103
H104	H	0.244125	1.096526	0.500103
Br105	Br	0.064938	0.547824	0.000115
Br106	Br	0.564938	1.047824	0.500115
H107	H	-0.219453	0.946259	0.436832
H108	H	0.280547	1.446259	0.936832
H109	H	0.018742	0.804463	0.000091
H110	H	0.518742	1.304463	0.500091
Br111	Br	0.063731	0.615667	0.000116
Br112	Br	0.563731	1.115667	0.500116
H113	H	0.026851	0.347448	0.000124
H114	H	0.526851	0.847448	0.500124
Br115	Br	-0.295759	0.497566	0.000095
Br116	Br	0.204241	0.997566	0.500095
H117	H	-0.219472	0.946294	0.744198
H118	H	0.280528	1.446294	1.244198
H119	H	-0.012552	1.166951	0.436809
H120	H	0.487448	1.666951	0.936809
H121	H	-0.544528	1.212715	0.000196
H122	H	-0.044528	1.712715	0.500196
H123	H	-0.658859	1.136167	-0.143910
H124	H	-0.158859	1.636167	0.356090
H125	H	-0.658877	1.136141	0.144169
H126	H	-0.158877	1.636141	0.644169
Br127	Br	-0.709385	0.852704	0.000194
Br128	Br	-0.209385	1.352704	0.500194
H129	H	-0.573124	0.977153	-0.143932
H130	H	-0.073124	1.477153	0.356068
H131	H	-0.012551	1.166943	0.256019
H132	H	0.487449	1.666943	0.756019
H133	H	-0.012560	1.166973	0.563384
H134	H	0.487440	1.666973	1.063384
H135	H	-0.012562	1.166988	0.744186
H136	H	0.487438	1.666988	1.244186
H137	H	-0.219464	0.946269	0.563404
H138	H	0.280536	1.446269	1.063404
H139	H	-0.219452	0.946240	0.256032
H140	H	0.280548	1.446240	0.756032
H141	H	-0.250771	0.308763	0.000128
H142	H	0.249229	0.808763	0.500128
Br143	Br	-0.559921	0.952852	0.188345
Br144	Br	-0.059921	1.452852	0.688345
