data_functionalizedCrystal
_audit_creation_method	'MofGen! by Chris Wilmer'
_symmetry_space_group_name_H-M	'P1'
_symmetry_Int_Tables_number	1
_symmetry_cell_setting	triclinic
loop_
_symmetry_equiv_pos_as_xyz
  x,y,z
_cell_length_a	10.540539
_cell_length_b	10.489741
_cell_length_c	9.016244
_cell_angle_alpha	89.998079
_cell_angle_beta	89.994699
_cell_angle_gamma	84.532333
loop_
_atom_site_label
_atom_site_type_symbol
_atom_site_fract_x
_atom_site_fract_y
_atom_site_fract_z
O1	O	1.685915	0.179759	-0.123270
O2	O	1.316504	0.196697	-0.123288
O3	O	1.509615	0.002629	-0.123269
O4	O	1.492803	0.373827	-0.123288
O5	O	1.509586	0.002634	0.123411
O6	O	1.316475	0.196701	0.123393
O7	O	1.685886	0.179764	0.123411
Cu8	Cu	1.501178	0.188233	0.145926
Cu9	Cu	1.501212	0.188228	-0.145803
O10	O	1.492775	0.373831	0.123393
C11	C	1.269186	0.195429	0.000050
C12	C	1.128238	0.191629	0.000044
C13	C	0.944793	0.046011	0.000627
C14	C	1.091412	0.049864	0.000055
C15	C	1.066589	0.259849	-0.140821
C16	C	0.920044	0.255011	-0.140924
C17	C	0.919524	0.257900	0.139598
C18	C	1.066506	0.259206	0.141445
C19	C	1.508331	-0.044900	0.000070
C20	C	1.504532	-0.186529	0.000067
C21	C	1.381661	-0.254654	0.000050
C22	C	1.439690	-0.346782	0.121680
C23	C	1.439747	-0.346761	-0.121528
C24	C	1.562612	-0.276791	0.121797
C25	C	1.562652	-0.276760	-0.121520
C26	C	1.620770	-0.368860	0.000139
C27	C	1.733203	0.181032	0.000070
C28	C	1.874152	0.184832	0.000067
C29	C	1.494059	0.421361	0.000050
C30	C	1.497858	0.562990	0.000043
N31	N	1.501164	0.188236	0.351112
N32	N	1.501236	0.188215	-0.350989
C33	C	1.397545	0.291701	0.586135
C34	C	1.397774	0.292088	0.414244
C35	C	1.633890	0.218515	0.413455
C36	C	1.633325	0.219248	0.585400
C37	C	1.473374	0.054153	0.585661
C38	C	1.470329	0.055022	0.413706
H39	H	1.088955	0.363958	-0.146067
H40	H	1.280637	-0.204991	0.000168
H41	H	1.548976	-0.022872	0.626320
H42	H	1.387689	-0.377785	0.224503
H43	H	1.540846	-0.025687	0.370738
H44	H	1.721885	-0.418297	0.000211
H45	H	1.134008	-0.003815	0.101034
H46	H	1.658800	0.315217	0.370374
F47	F	0.905311	-0.026892	-0.130665
H48	H	1.415685	0.391551	0.373093
H49	H	1.614609	-0.245724	-0.224349
H50	H	0.887960	0.212023	0.246373
F51	F	1.268855	0.268340	0.359149
H52	H	1.133163	-0.004197	-0.101092
F53	F	0.857358	0.388271	-0.149288
F54	F	1.371781	-0.387255	-0.255925
H55	H	1.298617	0.273762	0.627525
H56	H	1.415223	0.390600	0.629324
F57	F	1.342704	0.025020	0.360453
F58	F	1.349519	0.016505	0.642403
F59	F	1.630496	-0.236503	0.256350
H60	H	0.916190	-0.009992	0.101649
H61	H	1.107450	0.209368	0.245656
H62	H	1.657690	0.317055	0.625486
H63	H	1.712958	0.146910	0.626990
H64	H	0.891840	0.204586	-0.246216
H65	H	1.712937	0.145199	0.372558
H66	H	1.090743	0.362562	0.149945
F67	F	1.122260	0.197904	-0.277845
H68	H	0.872309	0.360296	0.140545
