data_functionalizedCrystal
_audit_creation_method	'MofGen! by Chris Wilmer'
_symmetry_space_group_name_H-M	'P1'
_symmetry_Int_Tables_number	1
_symmetry_cell_setting	triclinic
loop_
_symmetry_equiv_pos_as_xyz
  x,y,z
_cell_length_a	9.616153
_cell_length_b	10.540539
_cell_length_c	10.540539
_cell_angle_alpha	84.525492
_cell_angle_beta	89.999906
_cell_angle_gamma	89.995174
loop_
_atom_site_label
_atom_site_type_symbol
_atom_site_fract_x
_atom_site_fract_y
_atom_site_fract_z
O1	O	0.115573	-1.685892	-0.178895
O2	O	0.115589	-1.316479	-0.195751
O3	O	0.115579	-1.509614	-0.002617
O4	O	0.115583	-1.492758	-0.372030
O5	O	-0.115712	-1.509587	-0.002621
O6	O	-0.115702	-1.316452	-0.195755
O7	O	-0.115718	-1.685865	-0.178899
Zn8	Zn	-0.152433	-1.501155	-0.187328
Zn9	Zn	0.152304	-1.501190	-0.187323
O10	O	-0.115708	-1.492731	-0.372034
C11	C	-0.000064	-1.508336	0.044684
C12	C	-0.000056	-1.504554	0.185632
C13	C	-0.000054	-1.269163	-0.194489
C14	C	-0.000048	-1.128215	-0.190707
N15	N	-0.360407	-1.501140	-0.187331
C16	C	-0.580772	-1.397510	-0.290298
C17	C	-0.419604	-1.397739	-0.290684
C18	C	-0.418862	-1.633864	-0.217464
C19	C	-0.580080	-1.633299	-0.218193
C20	C	-0.580319	-1.473368	-0.053892
C21	C	-0.419092	-1.470321	-0.054757
N22	N	0.360278	-1.501215	-0.187310
C23	C	-0.000072	-1.733182	-0.180161
C24	C	-0.000069	-1.874130	-0.183943
C25	C	-0.000589	-0.944788	-0.045790
C26	C	-0.000054	-1.091406	-0.049624
C27	C	0.132027	-1.066557	-0.258600
C28	C	0.132123	-0.920013	-0.253785
C29	C	-0.130899	-0.919494	-0.256660
C30	C	-0.132630	-1.066476	-0.257959
C31	C	-0.000062	-1.494008	-0.419335
C32	C	-0.000060	-1.497790	-0.560283
C33	C	0.000469	-1.359637	0.369059
C34	C	-0.000052	-1.363471	0.222441
C35	C	-0.132138	-1.572435	0.247288
C36	C	-0.132249	-1.567620	0.393832
C37	C	0.130772	-1.570519	0.394355
C38	C	0.132518	-1.571819	0.247373
H39	H	-0.380085	-1.299122	-0.272553
H40	H	0.095187	-1.303917	0.397661
C41	C	0.140259	-0.855205	-0.390846
H42	H	0.143501	-0.918473	-0.449220
H43	H	0.060621	-0.803024	-0.407899
H44	H	0.221712	-0.804155	-0.399979
C45	C	0.264818	-1.124093	-0.194893
H46	H	0.344189	-1.086175	-0.236657
H47	H	0.266005	-1.108191	-0.107696
H48	H	0.266190	-1.213419	-0.201042
C49	C	-0.264633	-1.121765	-0.190949
H50	H	-0.344481	-1.084039	-0.232062
H51	H	-0.267070	-1.211360	-0.195161
H52	H	-0.263791	-1.103986	-0.104275
H53	H	-0.618439	-1.548980	0.022762
H54	H	-0.094731	-1.134009	0.003797
C55	C	-0.128540	-0.906151	0.029506
H56	H	-0.182789	-0.846574	-0.022630
H57	H	-0.182919	-0.979572	0.054359
H58	H	-0.098845	-0.868439	0.103237
H59	H	-0.378801	-1.540848	0.025564
H60	H	-0.140603	-1.090701	-0.360819
H61	H	-0.131790	-0.872267	-0.358563
C62	C	0.138684	-1.096760	-0.398561
H63	H	0.060791	-1.147367	-0.416874
H64	H	0.137455	-1.019501	-0.452900
H65	H	0.221909	-1.142072	-0.412245
H66	H	0.094630	-1.310058	0.179839
C67	C	0.126641	-0.903994	0.029198
H68	H	0.180079	-0.844093	-0.023325
H69	H	0.096264	-0.866118	0.102607
H70	H	0.182091	-0.976611	0.054551
H71	H	-0.380514	-1.712918	-0.144501
H72	H	-0.231010	-0.887936	-0.211004
H73	H	-0.093714	-1.304122	0.399265
H74	H	-0.094886	-1.309662	0.180683
H75	H	-0.619578	-1.298585	-0.272445
C76	C	-0.265610	-1.499804	0.431930
H77	H	-0.319205	-1.475445	0.357877
H78	H	-0.318422	-1.555987	0.488984
H79	H	-0.241470	-1.426117	0.472413
H80	H	-0.138246	-1.669084	0.441801
H81	H	-0.621270	-1.415178	-0.388722
H82	H	-0.137054	-1.676042	0.224933
C83	C	-0.264918	-1.508697	0.189760
H84	H	-0.240145	-1.440730	0.128184
H85	H	-0.318363	-1.569669	0.150186
H86	H	-0.318151	-1.476341	0.255430
H87	H	0.230881	-1.524869	0.425910
H88	H	-0.617668	-1.657654	-0.315531
H89	H	0.230229	-1.522152	0.206516
C90	C	-0.364314	-1.667501	-0.347474
H91	H	-0.305933	-1.600842	-0.383558
H92	H	-0.312788	-1.744649	-0.336215
H93	H	-0.440581	-1.677735	-0.402873
C94	C	-0.367476	-1.421925	-0.424398
H95	H	-0.444830	-1.431661	-0.478690
H96	H	-0.312648	-1.351733	-0.458248
H97	H	-0.312805	-1.497327	-0.418749
H98	H	0.140490	-1.674680	0.223152
H99	H	0.094786	-1.133162	0.004177
C100	C	0.131981	-1.708180	0.458150
H101	H	0.211267	-1.751648	0.430360
H102	H	0.135373	-1.706885	0.548086
H103	H	0.050043	-1.750938	0.435340
C104	C	-0.632764	-1.740753	-0.120800
H105	H	-0.555634	-1.784565	-0.080973
H106	H	-0.687669	-1.705291	-0.058099
H107	H	-0.687473	-1.798714	-0.163257
H108	H	-0.380887	-1.372683	-0.031917
C109	C	-0.635285	-1.345358	-0.015174
H110	H	-0.694982	-1.307696	-0.080024
H111	H	-0.685496	-1.359489	0.062499
H112	H	-0.559275	-1.289900	-0.004146
H113	H	0.230849	-0.891814	-0.203603
