data_functionalizedCrystal
_audit_creation_method	'MofGen! by Chris Wilmer'
_symmetry_space_group_name_H-M	'P1'
_symmetry_Int_Tables_number	1
_symmetry_cell_setting	triclinic
loop_
_symmetry_equiv_pos_as_xyz
  x,y,z
_cell_length_a	19.121102
_cell_length_b	19.121063
_cell_length_c	19.120904
_cell_angle_alpha	94.741613
_cell_angle_beta	89.911827
_cell_angle_gamma	89.873098
loop_
_atom_site_label
_atom_site_type_symbol
_atom_site_fract_x
_atom_site_fract_y
_atom_site_fract_z
Zn1	Zn	1.039579	0.343506	0.456040
Zn2	Zn	1.289579	0.593506	0.706040
Zn3	Zn	1.539579	0.843506	0.956040
Zn4	Zn	1.789579	1.093506	1.206040
Zn5	Zn	1.039493	0.456149	0.343386
Zn6	Zn	1.289493	0.706149	0.593386
Zn7	Zn	1.539493	0.956149	0.843386
Zn8	Zn	1.789493	1.206149	1.093386
Zn9	Zn	0.927792	0.333518	0.333417
Zn10	Zn	1.177792	0.583518	0.583417
Zn11	Zn	1.427792	0.833518	0.833417
Zn12	Zn	1.677792	1.083518	1.083417
Zn13	Zn	0.917325	0.455677	0.455570
Zn14	Zn	1.167325	0.705677	0.705570
Zn15	Zn	1.417325	0.955677	0.955570
Zn16	Zn	1.667325	1.205677	1.205570
O17	O	0.981047	0.397212	0.397103
O18	O	1.231047	0.647212	0.647103
O19	O	1.481047	0.897212	0.897103
O20	O	1.731047	1.147212	1.147103
O21	O	1.137479	0.362826	0.445465
O22	O	1.387479	0.612826	0.695465
O23	O	1.637479	0.862826	0.945465
O24	O	1.887479	1.112826	1.195465
O25	O	1.029020	0.435899	0.243797
O26	O	1.279020	0.685899	0.493797
O27	O	1.529020	0.935899	0.743797
O28	O	1.779020	1.185899	0.993797
O29	O	0.947038	0.236577	0.345708
O30	O	1.197038	0.486577	0.595708
O31	O	1.447038	0.736577	0.845708
O32	O	1.697038	0.986577	1.095708
O33	O	1.137415	0.445584	0.362699
O34	O	1.387415	0.695584	0.612699
O35	O	1.637415	0.945584	0.862699
O36	O	1.887415	1.195584	1.112699
O37	O	1.029167	0.243915	0.435798
O38	O	1.279167	0.493915	0.685798
O39	O	1.529167	0.743915	0.935798
O40	O	1.779167	0.993915	1.185798
O41	O	0.946954	0.345802	0.236473
O42	O	1.196954	0.595802	0.486473
O43	O	1.446954	0.845802	0.736473
O44	O	1.696954	1.095802	0.986473
O45	O	0.828493	0.345345	0.345252
O46	O	1.078493	0.595345	0.595252
O47	O	1.328493	0.845345	0.845252
O48	O	1.578493	1.095345	1.095252
O49	O	0.929198	0.444780	0.553899
O50	O	1.179198	0.694780	0.803899
O51	O	1.429198	0.944780	1.053899
O52	O	1.679198	1.194780	1.303899
O53	O	0.820803	0.435094	0.434997
O54	O	1.070803	0.685094	0.684997
O55	O	1.320803	0.935094	0.934997
O56	O	1.570803	1.185094	1.184997
O57	O	1.019018	0.362368	0.554244
O58	O	1.269018	0.612368	0.804244
O59	O	1.519018	0.862368	1.054244
O60	O	1.769018	1.112368	1.304244
O61	O	1.018870	0.554352	0.362243
O62	O	1.268870	0.804352	0.612243
O63	O	1.518870	1.054352	0.862243
O64	O	1.768870	1.304352	1.112243
O65	O	0.929114	0.554005	0.444664
O66	O	1.179114	0.804005	0.694664
O67	O	1.429114	1.054005	0.944664
O68	O	1.679114	1.304005	1.194664
C69	C	0.799261	0.389085	0.388992
C70	C	1.049261	0.639085	0.638992
C71	C	1.299261	0.889085	0.888992
C72	C	1.549261	1.139085	1.138992
C73	C	0.721490	0.385626	0.385539
C74	C	0.971490	0.635626	0.635539
C75	C	1.221490	0.885626	0.885539
C76	C	1.471490	1.135626	1.135539
C77	C	0.972865	0.579659	0.404501
C78	C	1.222865	0.829659	0.654501
C79	C	1.472865	1.079659	0.904501
C80	C	1.722865	1.329659	1.154501
C81	C	0.969428	0.657714	0.407691
C82	C	1.219428	0.907714	0.657691
C83	C	1.469428	1.157714	0.907691
C84	C	1.719428	1.407714	1.157691
C85	C	0.972950	0.404635	0.580263
C86	C	1.222950	0.654635	0.830263
C87	C	1.472950	0.904635	1.080263
C88	C	1.722950	1.154635	1.330263
C89	C	0.969500	0.407799	0.658315
C90	C	1.219500	0.657799	0.908315
C91	C	1.469500	0.907799	1.158315
C92	C	1.719500	1.157799	1.408315
C93	C	0.680968	0.430793	0.430575
C94	C	0.930968	0.680793	0.680575
C95	C	1.180968	0.930793	0.930575
C96	C	1.430968	1.180793	1.180575
C97	C	0.607894	0.427534	0.427334
C98	C	0.857894	0.677534	0.677334
C99	C	1.107894	0.927534	0.927334
C100	C	1.357894	1.177534	1.177334
C101	C	0.575344	0.379110	0.379053
C102	C	0.825344	0.629110	0.629053
C103	C	1.075344	0.879110	0.879053
C104	C	1.325344	1.129110	1.129053
C105	C	0.615872	0.333937	0.334016
C106	C	0.865872	0.583937	0.584016
C107	C	1.115872	0.833937	0.834016
C108	C	1.365872	1.083937	1.084016
C109	C	0.688944	0.337194	0.337261
C110	C	0.938944	0.587194	0.587261
C111	C	1.188944	0.837194	0.837261
C112	C	1.438944	1.087194	1.087261
C113	C	0.354913	0.366933	0.366924
C114	C	0.604913	0.616933	0.616924
C115	C	0.854913	0.866933	0.866924
C116	C	1.104913	1.116933	1.116924
C117	C	0.281835	0.363681	0.363681
C118	C	0.531835	0.613681	0.613681
C119	C	0.781835	0.863681	0.863681
C120	C	1.031835	1.113681	1.113681
C121	C	0.273863	0.457277	0.457000
C122	C	0.523863	0.707277	0.707000
C123	C	0.773863	0.957277	0.957000
C124	C	1.023863	1.207277	1.207000
C125	C	0.346937	0.460532	0.460238
C126	C	0.596937	0.710532	0.710238
C127	C	0.846937	0.960532	0.960238
C128	C	1.096937	1.210532	1.210238
C129	C	0.387458	0.415357	0.415203
C130	C	0.637458	0.665357	0.665203
C131	C	0.887458	0.915357	0.915203
C132	C	1.137458	1.165357	1.165203
C133	C	0.500651	0.375778	0.375738
C134	C	0.750651	0.625778	0.625738
C135	C	1.000651	0.875778	0.875738
C136	C	1.250651	1.125778	1.125738
C137	C	0.462149	0.418686	0.418523
C138	C	0.712149	0.668686	0.668523
C139	C	0.962149	0.918686	0.918523
C140	C	1.212149	1.168686	1.168523
C141	C	1.163544	0.405372	0.405246
C142	C	1.413544	0.655372	0.655246
C143	C	1.663544	0.905372	0.905246
C144	C	1.913544	1.155372	1.155246
C145	C	1.241313	0.408849	0.408717
C146	C	1.491313	0.658849	0.658717
C147	C	1.741313	0.908849	0.908717
C148	C	1.991313	1.158849	1.158717
C149	C	0.989280	0.214054	0.389693
C150	C	1.239280	0.464054	0.639693
C151	C	1.489280	0.714054	0.889693
C152	C	1.739280	0.964054	1.139693
C153	C	0.992788	0.136003	0.386535
C154	C	1.242788	0.386003	0.636535
C155	C	1.492788	0.636003	0.886535
C156	C	1.742788	0.886003	1.136535
C157	C	1.014577	0.694545	0.366317
C158	C	1.264577	0.944545	0.616317
C159	C	1.514577	1.194545	0.866317
C160	C	1.764577	1.444545	1.116317
C161	C	1.011348	0.767887	0.369323
C162	C	1.261348	1.017887	0.619323
C163	C	1.511348	1.267887	0.869323
C164	C	1.761348	1.517887	1.119323
C165	C	0.962966	0.804396	0.413699
C166	C	1.212966	1.054396	0.663699
C167	C	1.462966	1.304396	0.913699
C168	C	1.712966	1.554396	1.163699
C169	C	0.917815	0.767560	0.455078
C170	C	1.167815	1.017560	0.705078
C171	C	1.417815	1.267560	0.955078
C172	C	1.667815	1.517560	1.205078
C173	C	0.921048	0.694220	0.452076
C174	C	1.171048	0.944220	0.702076
C175	C	1.421048	1.194220	0.952076
C176	C	1.671048	1.444220	1.202076
C177	C	0.950869	1.025828	0.424912
C178	C	1.200869	1.275828	0.674912
C179	C	1.450869	1.525828	0.924912
C180	C	1.700869	1.775828	1.174912
C181	C	0.947638	1.099173	0.427909
C182	C	1.197638	1.349173	0.677909
C183	C	1.447638	1.599173	0.927909
C184	C	1.697638	1.849173	1.177909
C185	C	1.041173	1.099494	0.342155
C186	C	1.291173	1.349494	0.592155
C187	C	1.541173	1.599494	0.842155
C188	C	1.791173	1.849494	1.092155
C189	C	1.044399	1.026153	0.339154
C190	C	1.294399	1.276153	0.589154
C191	C	1.544399	1.526153	0.839154
C192	C	1.794399	1.776153	1.089154
C193	C	0.999250	0.989323	0.380535
C194	C	1.249250	1.239323	0.630535
C195	C	1.499250	1.489323	0.880535
C196	C	1.749250	1.739323	1.130535
C197	C	0.959663	0.879363	0.416770
C198	C	1.209663	1.129363	0.666770
C199	C	1.459663	1.379363	0.916770
C200	C	1.709663	1.629363	1.166770
C201	C	1.002557	0.914358	0.377467
C202	C	1.252557	1.164358	0.627467
C203	C	1.502557	1.414358	0.877467
C204	C	1.752557	1.664358	1.127467
C205	C	0.989156	0.389769	0.214655
C206	C	1.239156	0.639769	0.464655
C207	C	1.489156	0.889769	0.714655
C208	C	1.739156	1.139769	0.964655
C209	C	0.992751	0.386414	0.136602
C210	C	1.242751	0.636414	0.386602
C211	C	1.492751	0.886414	0.636602
C212	C	1.742751	1.136414	0.886602
C213	C	1.014640	0.366379	0.695165
C214	C	1.264640	0.616379	0.945165
C215	C	1.514640	0.866379	1.195165
C216	C	1.764640	1.116379	1.445165
C217	C	1.011390	0.369348	0.768503
C218	C	1.261390	0.619348	1.018503
C219	C	1.511390	0.869348	1.268503
C220	C	1.761390	1.119348	1.518503
C221	C	0.963001	0.413741	0.804990
C222	C	1.213001	0.663741	1.054990
C223	C	1.463001	0.913741	1.304990
C224	C	1.713001	1.163741	1.554990
C225	C	0.917856	0.455162	0.768135
C226	C	1.167856	0.705162	1.018135
C227	C	1.417856	0.955162	1.268135
C228	C	1.667856	1.205162	1.518135
C229	C	0.921103	0.452188	0.694798
C230	C	1.171103	0.702188	0.944798
C231	C	1.421103	0.952188	1.194798
C232	C	1.671103	1.202188	1.444798
C233	C	0.950853	0.424862	1.026410
C234	C	1.200853	0.674862	1.276410
C235	C	1.450853	0.924862	1.526410
C236	C	1.700853	1.174862	1.776410
C237	C	0.947610	0.427833	1.099752
C238	C	1.197610	0.677833	1.349752
C239	C	1.447610	0.927833	1.599752
C240	C	1.697610	1.177833	1.849752
C241	C	1.041143	0.342019	1.100115
C242	C	1.291143	0.592019	1.350115
C243	C	1.541143	0.842019	1.600115
C244	C	1.791143	1.092019	1.850115
C245	C	1.044390	0.339052	1.026777
C246	C	1.294390	0.589052	1.276777
C247	C	1.544390	0.839052	1.526777
C248	C	1.794390	1.089052	1.776777
C249	C	0.999242	0.380470	0.989928
C250	C	1.249242	0.630470	1.239928
C251	C	1.499242	0.880470	1.489928
C252	C	1.749242	1.130470	1.739928
C253	C	0.959679	0.416779	0.879953
C254	C	1.209679	0.666779	1.129953
C255	C	1.459679	0.916779	1.379953
C256	C	1.709679	1.166779	1.629953
C257	C	1.002561	0.377429	0.914966
C258	C	1.252561	0.627429	1.164966
C259	C	1.502561	0.877429	1.414966
C260	C	1.752561	1.127429	1.664966
H261	H	0.707464	0.470228	0.469888
H262	H	0.957464	0.720228	0.719888
H263	H	1.207464	0.970228	0.969888
H264	H	1.457464	1.220228	1.219888
F265	F	0.866327	0.806418	0.502311
F266	F	1.116327	1.056418	0.752311
F267	F	1.366327	1.306418	1.002311
F268	F	1.616327	1.556418	1.252311
H269	H	1.041956	0.341281	0.885255
H270	H	1.291956	0.591281	1.135255
H271	H	1.541956	0.841281	1.385255
H272	H	1.791956	1.091281	1.635255
H273	H	1.054046	0.330232	0.665463
H274	H	1.304046	0.580232	0.915463
H275	H	1.554046	0.830232	1.165463
H276	H	1.804046	1.080232	1.415463
F277	F	1.095892	0.291804	0.987950
F278	F	1.345892	0.541804	1.237950
F279	F	1.595892	0.791804	1.487950
F280	F	1.845892	1.041804	1.737950
H281	H	0.884338	0.485909	0.664795
H282	H	1.134338	0.735909	0.914795
H283	H	1.384338	0.985909	1.164795
H284	H	1.634338	1.235909	1.414795
F285	F	0.908184	0.464026	0.918791
F286	F	1.158184	0.714026	1.168791
F287	F	1.408184	0.964026	1.418791
F288	F	1.658184	1.214026	1.668791
H289	H	1.048150	0.335622	0.798503
H290	H	1.298150	0.585622	1.048503
H291	H	1.548150	0.835622	1.298503
H292	H	1.798150	1.085622	1.548503
H293	H	0.488655	0.458110	0.457836
H294	H	0.738655	0.708110	0.707836
H295	H	0.988655	0.958110	0.957836
H296	H	1.238655	1.208110	1.207836
F297	F	0.908172	0.918225	0.463997
F298	F	1.158172	1.168225	0.713997
F299	F	1.408172	1.418225	0.963997
F300	F	1.658172	1.668225	1.213997
H301	H	0.884283	0.664233	0.485768
H302	H	1.134283	0.914233	0.735768
H303	H	1.384283	1.164233	0.985768
H304	H	1.634283	1.414233	1.235768
F305	F	1.089188	0.297940	1.139337
F306	F	1.339188	0.547940	1.389337
F307	F	1.589188	0.797940	1.639337
F308	F	1.839188	1.047940	1.889337
F309	F	0.896103	0.475081	1.138582
F310	F	1.146103	0.725081	1.388582
F311	F	1.396103	0.975081	1.638582
F312	F	1.646103	1.225081	1.888582
F313	F	1.054050	0.875502	0.330243
F314	F	1.304050	1.125502	0.580243
F315	F	1.554050	1.375502	0.830243
F316	F	1.804050	1.625502	1.080243
H317	H	0.914100	0.458598	0.996417
H318	H	1.164100	0.708598	1.246417
H319	H	1.414100	0.958598	1.496417
H320	H	1.664100	1.208598	1.746417
H321	H	0.240863	0.494055	0.493666
H322	H	0.490863	0.744055	0.743666
H323	H	0.740863	0.994055	0.993666
H324	H	0.990863	1.244055	1.243666
H325	H	0.914106	0.995847	0.458605
H326	H	1.164106	1.245847	0.708605
H327	H	1.414106	1.495847	0.958605
H328	H	1.664106	1.745847	1.208605
H329	H	0.474141	0.336353	0.336426
H330	H	0.724141	0.586353	0.586426
H331	H	0.974141	0.836353	0.836426
H332	H	1.224141	1.086353	1.086426
H333	H	1.053972	0.664824	0.330178
H334	H	1.303972	0.914824	0.580178
H335	H	1.553972	1.164824	0.830178
H336	H	1.803972	1.414824	1.080178
F337	F	0.866354	0.502405	0.806968
F338	F	1.116354	0.752405	1.056968
F339	F	1.366354	1.002405	1.306968
F340	F	1.616354	1.252405	1.556968
H341	H	0.574904	0.464315	0.464006
H342	H	0.824904	0.714315	0.714006
H343	H	1.074904	0.964315	0.964006
H344	H	1.324904	1.214315	1.214006
H345	H	0.908248	1.128897	0.464059
H346	H	1.158248	1.378897	0.714059
H347	H	1.408248	1.628897	0.964059
H348	H	1.658248	1.878897	1.214059
H349	H	0.255336	0.324240	0.324369
H350	H	0.505336	0.574240	0.574369
H351	H	0.755336	0.824240	0.824369
H352	H	1.005336	1.074240	1.074369
F353	F	0.398029	0.318851	0.318995
F354	F	0.648029	0.568851	0.568995
F355	F	0.898029	0.818851	0.818995
F356	F	1.148029	1.068851	1.068995
F357	F	0.581228	0.282396	0.282636
F358	F	0.831228	0.532396	0.532636
F359	F	1.081228	0.782396	0.782636
F360	F	1.331228	1.032396	1.032636
F361	F	0.381573	0.512074	0.511624
F362	F	0.631573	0.762074	0.761624
F363	F	0.881573	1.012074	1.011624
F364	F	1.131573	1.262074	1.261624
H365	H	1.048113	0.797871	0.335631
H366	H	1.298113	1.047871	0.585631
H367	H	1.548113	1.297871	0.835631
H368	H	1.798113	1.547871	1.085631
H369	H	0.721937	0.300410	0.300591
H370	H	0.971937	0.550410	0.550591
H371	H	1.221937	0.800410	0.800591
H372	H	1.471937	1.050410	1.050591
F373	F	1.095901	0.987303	0.291931
F374	F	1.345901	1.237303	0.541931
F375	F	1.595901	1.487303	0.791931
F376	F	1.845901	1.737303	1.041931
H377	H	1.077932	1.129489	0.308466
H378	H	1.327932	1.379489	0.558466
H379	H	1.577932	1.629489	0.808466
H380	H	1.827932	1.879489	1.058466
