data_functionalizedCrystal
_audit_creation_method	'MofGen! by Chris Wilmer'
_symmetry_space_group_name_H-M	'P1'
_symmetry_Int_Tables_number	1
_symmetry_cell_setting	triclinic
loop_
_symmetry_equiv_pos_as_xyz
  x,y,z
_cell_length_a	16.994747
_cell_length_b	12.759395
_cell_length_c	12.759387
_cell_angle_alpha	90.020509
_cell_angle_beta	90.026306
_cell_angle_gamma	90.004001
loop_
_atom_site_label
_atom_site_type_symbol
_atom_site_fract_x
_atom_site_fract_y
_atom_site_fract_z
Zn1	Zn	-0.313954	1.606358	0.594038
Zn2	Zn	-0.445880	1.606286	0.418372
Zn3	Zn	-0.313997	1.430656	0.418375
Zn4	Zn	-0.445824	1.430686	0.594011
O5	O	-0.379914	1.518497	0.506199
O6	O	-0.331460	1.753370	0.570746
O7	O	-0.428427	1.582946	0.271351
O8	O	-0.203610	1.453981	0.441689
O9	O	-0.428385	1.753317	0.441685
O10	O	-0.203579	1.583068	0.570748
O11	O	-0.331533	1.453911	0.271353
O12	O	-0.331479	1.283639	0.441663
O13	O	-0.428289	1.454032	0.741036
O14	O	-0.428331	1.283661	0.570703
O15	O	-0.331405	1.583097	0.741056
O16	O	-0.556253	1.582975	0.441659
O17	O	-0.556212	1.453962	0.570700
C18	C	-0.379904	1.245529	0.506181
C19	C	-0.379919	1.128752	0.506198
C20	C	-0.084853	1.518549	0.506218
C21	C	-0.174176	1.518537	0.506217
C22	C	-0.584853	1.518477	0.506173
C23	C	-0.674176	1.518502	0.506138
C24	C	-0.480934	1.128814	0.640349
C25	C	-0.531448	1.073984	0.707428
C26	C	-0.531458	0.964262	0.707441
C27	C	-0.480946	0.909368	0.640370
C28	C	-0.430432	0.964198	0.573292
C29	C	-0.430430	1.073922	0.573284
C30	C	-0.329414	0.964137	0.439147
C31	C	-0.329407	1.073858	0.439127
C32	C	-0.278903	0.909243	0.372076
C33	C	-0.228392	0.964073	0.304991
C34	C	-0.228385	1.073801	0.304980
C35	C	-0.278893	1.128688	0.372049
Zn36	Zn	0.185990	1.606128	0.418138
Zn37	Zn	0.186059	1.430913	0.594161
Zn38	Zn	0.054203	1.606578	0.593826
Zn39	Zn	0.054094	1.430492	0.418548
O40	O	0.120086	1.518528	0.506168
O41	O	0.296380	1.582874	0.441457
O42	O	0.168642	1.454580	0.741138
O43	O	0.071701	1.753539	0.570209
O44	O	0.296431	1.454144	0.570780
O45	O	0.168525	1.753209	0.441132
O46	O	0.071768	1.583640	0.740891
O47	O	-0.056193	1.583232	0.570606
O48	O	0.071516	1.453427	0.271473
O49	O	-0.056273	1.453863	0.441830
O50	O	0.168420	1.582466	0.271172
O51	O	0.168537	1.283837	0.571177
O52	O	0.071583	1.283528	0.442155
C53	C	-0.379836	1.518576	0.780233
C54	C	-0.379803	1.518610	0.897009
C55	C	-0.379924	1.792530	0.506218
C56	C	-0.379928	1.909307	0.506226
C57	C	-0.379934	1.518478	0.233232
C58	C	-0.379744	1.518648	0.116455
C59	C	-0.278925	1.653015	0.897050
C60	C	-0.228474	1.720232	0.951930
C61	C	-0.228445	1.720257	1.061652
C62	C	-0.278871	1.653056	1.116495
C63	C	-0.329322	1.585839	1.061615
C64	C	-0.329347	1.585823	0.951890
C65	C	-0.430196	1.451431	1.061574
C66	C	-0.430229	1.451409	0.951853
C67	C	-0.480622	1.384230	1.116418
C68	C	-0.531078	1.317016	1.061537
C69	C	-0.531105	1.316994	0.951808
C70	C	-0.480681	1.384192	0.896972
C71	C	0.120058	1.245561	0.506750
C72	C	0.120068	1.128785	0.507029
C73	C	0.119948	1.517849	0.232135
C74	C	0.119889	1.517559	0.115359
C75	C	0.120117	1.792561	0.505587
C76	C	0.120131	1.909337	0.505340
C77	C	0.120268	1.519278	0.779135
C78	C	0.120475	1.519857	0.895910
C79	C	0.221102	1.129160	0.641280
C80	C	0.271620	1.074487	0.708534
C81	C	0.271629	0.964766	0.708790
C82	C	0.221115	0.909715	0.641781
C83	C	0.170596	0.964388	0.574527
C84	C	0.170592	1.074112	0.574280
C85	C	0.069568	0.964013	0.440273
C86	C	0.069554	1.073734	0.440021
C87	C	0.019054	0.908963	0.373264
C88	C	-0.031470	0.963636	0.306013
C89	C	-0.031477	1.073364	0.305761
C90	C	0.019036	1.128408	0.372766
C91	C	0.220801	1.651919	0.115026
C92	C	0.271229	1.718957	0.059998
C93	C	0.271169	1.718682	-0.049723
C94	C	0.220675	1.651363	-0.104420
C95	C	0.170247	1.584325	-0.049393
C96	C	0.170314	1.584605	0.060331
C97	C	0.069332	1.449972	-0.049059
C98	C	0.069395	1.450241	0.060662
C99	C	0.018838	1.382653	-0.103756
C100	C	-0.031587	1.315608	-0.048728
C101	C	-0.031525	1.315885	0.061000
C102	C	0.018967	1.383202	0.115690
H103	H	-0.572572	1.118691	0.762037
N104	N	0.221140	0.791374	0.642047
H105	H	0.206724	0.765124	0.714197
H106	H	0.181485	0.764874	0.589350
H107	H	-0.187244	1.118437	0.250363
N108	N	0.326117	0.905800	0.781331
H109	H	0.294113	0.860400	0.830162
H110	H	0.362618	0.860230	0.738619
H111	H	-0.278836	1.653074	1.205837
N112	N	-0.480573	1.384250	1.234760
H113	H	-0.495071	1.456321	1.261205
H114	H	-0.520159	1.331433	1.261099
N115	N	-0.585942	0.905113	0.779780
H116	H	-0.553936	0.859608	0.828543
H117	H	-0.617929	0.956595	0.822198
H118	H	-0.480952	0.820027	0.640396
H119	H	-0.072591	0.918805	0.251456
H120	H	-0.278911	0.819902	0.372096
N121	N	-0.173927	0.904869	0.232644
H122	H	-0.181599	0.827042	0.242830
H123	H	-0.186148	0.924017	0.157585
H124	H	0.019039	1.217748	0.372562
N125	N	0.220865	1.652209	0.233367
H126	H	0.235364	1.580197	0.259941
H127	H	0.260496	1.705068	0.259586
N128	N	-0.585454	1.244547	1.120703
H129	H	-0.641822	1.260841	1.101616
H130	H	-0.573134	1.169508	1.101576
N131	N	0.326085	1.133861	0.780827
H132	H	0.318410	1.211665	0.770474
H133	H	0.313867	1.114863	0.855911
H134	H	-0.072612	1.117872	0.250990
N135	N	-0.480926	1.247156	0.640328
H136	H	-0.495354	1.273545	0.568217
H137	H	-0.520582	1.273527	0.693037
N138	N	0.019067	0.790621	0.373547
H139	H	-0.035022	0.764233	0.392984
H140	H	0.033529	0.764083	0.301505
N141	N	0.325548	1.790994	-0.109086
H142	H	0.381919	1.774722	-0.089991
H143	H	0.317771	1.780562	-0.186871
N144	N	0.325695	1.791558	0.118987
H145	H	0.313449	1.866580	0.099735
H146	H	0.318063	1.781474	0.196827
H147	H	-0.278895	1.218030	0.372043
N148	N	-0.585510	1.244480	0.892618
H149	H	-0.617443	1.201913	0.944013
H150	H	-0.622036	1.287213	0.847090
H151	H	0.220624	1.651154	-0.193761
H152	H	0.018789	1.382438	-0.193097
H153	H	-0.072592	1.261298	0.105796
N154	N	-0.278967	1.653000	0.778708
H155	H	-0.239371	1.705771	0.752293
H156	H	-0.264490	1.580894	0.752345
N157	N	-0.174107	1.792737	0.892780
H158	H	-0.181786	1.782536	0.814944
H159	H	-0.186411	1.867759	0.911987
N160	N	-0.174025	1.792744	1.120853
H161	H	-0.142082	1.835309	1.069466
H162	H	-0.206127	1.841364	1.166381
N163	N	-0.086049	1.243014	-0.107719
H164	H	-0.078439	1.253018	-0.185576
H165	H	-0.073775	1.168023	-0.088391
H166	H	0.019028	1.383427	0.205031
N167	N	0.221087	1.247501	0.641002
H168	H	0.166992	1.273964	0.660317
H169	H	0.260783	1.274000	0.693645
N170	N	-0.480717	1.384151	0.778630
H171	H	-0.495232	1.456209	0.752198
H172	H	-0.426599	1.364803	0.752293
