data_functionalizedCrystal
_audit_creation_method	'MofGen! by Chris Wilmer'
_symmetry_space_group_name_H-M	'P1'
_symmetry_Int_Tables_number	1
_symmetry_cell_setting	triclinic
loop_
_symmetry_equiv_pos_as_xyz
  x,y,z
_cell_length_a	20.016444
_cell_length_b	15.698487
_cell_length_c	20.016444
_cell_angle_alpha	59.998821
_cell_angle_beta	89.999461
_cell_angle_gamma	60.001889
loop_
_atom_site_label
_atom_site_type_symbol
_atom_site_fract_x
_atom_site_fract_y
_atom_site_fract_z
Zr1	Zr	0.643580	0.932441	-0.087659
O2	O	0.536909	1.110151	-0.194332
O3	O	0.676281	0.754731	-0.054960
O4	O	0.676283	0.932449	-0.194336
O5	O	0.536906	0.932428	0.054988
O6	O	0.786222	0.932455	-0.194336
O7	O	0.536908	0.932433	-0.054956
O8	O	0.786220	0.614551	0.054982
O9	O	0.536909	1.250332	-0.194330
O10	O	0.772274	0.827831	-0.041011
O11	O	0.690226	0.827822	0.041039
O12	O	0.690228	1.037062	-0.123058
O13	O	0.608180	1.037053	-0.041007
Zr14	Zr	0.818920	0.932443	0.087690
Zr15	Zr	0.818922	0.932452	-0.087659
Zr16	Zr	0.643578	0.932433	0.087690
Zr17	Zr	0.643580	1.156014	-0.087655
Zr18	Zr	0.818920	0.708870	0.087686
O19	O	0.786219	1.110154	0.054991
O20	O	0.786222	1.110166	-0.194333
O21	O	0.536906	1.110139	0.054991
O22	O	0.925591	0.754734	0.194364
O23	O	0.925594	0.754746	-0.054960
O24	O	0.676278	0.754719	0.194364
O25	O	0.925594	0.932457	-0.054957
O26	O	0.786217	0.932436	0.194367
O27	O	0.676278	0.932430	0.194367
O28	O	0.925592	0.932452	0.054988
O29	O	0.676282	1.250341	-0.194330
O30	O	0.786218	0.614544	0.194361
O31	O	0.925591	0.614553	0.194361
O32	O	0.925593	0.614560	0.054982
O33	O	0.536907	1.250325	-0.054951
O34	O	0.676280	1.250334	-0.054951
O35	O	0.772272	0.827823	0.123089
O36	O	0.854320	0.827832	0.041039
O37	O	0.772274	1.037063	-0.041008
O38	O	0.690226	1.037054	0.041043
C39	C	0.511925	0.932429	0.000016
C40	C	0.437488	0.932425	0.000016
C41	C	0.731250	0.652787	0.000011
C42	C	0.731250	0.557874	0.000009
C43	C	0.309048	0.823222	0.042845
C44	C	0.239103	0.823227	0.042847
C45	C	0.153454	1.041671	-0.042815
C46	C	0.223398	1.041665	-0.042812
C47	C	0.301195	0.932437	0.000016
C48	C	0.161305	0.932448	0.000015
C49	C	0.085467	0.932454	0.000017
C50	C	0.377038	0.932430	0.000016
C51	C	0.731248	0.384091	0.000023
C52	C	0.731248	0.480796	0.000018
C53	C	0.950575	0.932456	0.000015
C54	C	1.025012	0.932460	0.000015
C55	C	0.731253	0.932453	-0.219319
C56	C	0.731254	0.932457	-0.293759
C57	C	0.731250	1.212098	0.000021
C58	C	0.731250	1.307011	0.000022
C59	C	0.791820	0.932445	-0.465015
C60	C	0.791820	0.932437	-0.534955
C61	C	0.670677	0.932436	-0.534947
C62	C	0.670680	0.932435	-0.465005
C63	C	0.731252	0.932446	-0.430043
C64	C	0.731249	0.932439	-0.569925
C65	C	0.731249	0.932430	-0.645757
C66	C	0.731253	0.932453	-0.354205
C67	C	0.731247	0.932432	0.219351
C68	C	0.731246	0.932428	0.293791
C69	C	0.950576	0.652800	0.000010
C70	C	1.025013	0.557892	0.000009
C71	C	0.731247	0.652776	0.219346
C72	C	0.731247	0.557860	0.293784
C73	C	0.950573	0.652789	0.219345
C74	C	1.025009	0.557878	0.293784
C75	C	0.511927	1.212096	-0.219314
C76	C	0.437491	1.307007	-0.293752
C77	C	0.511924	1.212085	0.000021
C78	C	0.437487	1.306993	0.000023
C79	C	0.731253	1.212109	-0.219314
C80	C	0.731253	1.307025	-0.293753
C81	C	1.017142	0.513322	-0.042829
C82	C	1.087077	0.424158	-0.042847
C83	C	1.164882	0.379560	-0.000022
C84	C	1.172751	0.424139	0.042817
C85	C	1.102817	0.513307	0.042829
C86	C	0.774073	0.513287	0.371578
C87	C	0.774069	0.424115	0.441528
C88	C	0.731243	0.379512	0.433681
C89	C	0.688411	0.424094	0.355879
C90	C	0.688411	0.513270	0.285932
C91	C	1.102801	0.513311	0.285911
C92	C	1.172748	0.424144	0.355847
C93	C	1.164902	0.379539	0.433655
C94	C	1.087102	0.424114	0.441526
C95	C	1.017157	0.513286	0.371591
C96	C	0.359699	1.351585	-0.285880
C97	C	0.289752	1.440780	-0.355816
C98	C	0.297598	1.485389	-0.433624
C99	C	0.375398	1.440808	-0.441495
C100	C	0.445343	1.351621	-0.371559
C101	C	0.445358	1.351572	0.042853
C102	C	0.375423	1.440761	0.042852
C103	C	0.297618	1.485362	0.000025
C104	C	0.289749	1.440779	-0.042811
C105	C	0.359683	1.351598	-0.042814
C106	C	0.774088	1.351600	-0.285880
C107	C	0.774105	1.440772	-0.355817
C108	C	0.731282	1.485374	-0.433624
C109	C	0.688446	1.440790	-0.441495
C110	C	0.688434	1.351614	-0.371560
H111	H	0.372390	0.734282	0.077728
H112	H	0.653580	1.477119	-0.504855
H113	H	1.109204	0.549615	0.222562
Cl114	Cl	1.112726	0.569320	0.096695
H115	H	1.236089	0.387859	0.349424
Cl116	Cl	0.248980	0.685923	0.096696
H117	H	0.226411	1.477063	-0.349391
Cl118	Cl	0.867968	0.932433	-0.578916
H119	H	0.653550	1.315331	-0.377981
Cl120	Cl	0.731301	1.597487	-0.521536
Cl121	Cl	1.252843	0.267433	0.521567
H122	H	1.080654	0.387872	-0.077731
H123	H	0.090105	1.130600	-0.077685
H124	H	0.653543	0.387766	0.349503
H125	H	0.841141	0.932452	-0.436550
Cl126	Cl	0.385247	1.496897	-0.539317
H127	H	0.808960	1.315298	-0.222532
Cl128	Cl	0.213525	1.178974	-0.096654
Cl129	Cl	0.594531	0.932429	-0.578905
Cl130	Cl	0.349774	1.295558	-0.096657
H131	H	0.621358	0.932432	-0.436528
Cl132	Cl	1.077253	0.368025	0.539348
Cl133	Cl	0.919339	0.569374	-0.096677
Cl134	Cl	0.827954	1.496808	-0.345903
Cl135	Cl	0.919364	0.569295	0.381502
Cl136	Cl	0.543136	1.295583	-0.381471
Cl137	Cl	1.270569	0.368055	0.096654
H138	H	0.731250	0.306900	0.490644
H139	H	1.221820	0.306952	-0.000039
H140	H	0.808951	0.387827	0.504870
H141	H	0.808948	0.549592	0.377982
H142	H	0.653539	0.549550	0.222591
H143	H	0.353295	1.315269	-0.222531
H144	H	0.240637	1.558011	-0.490563
H145	H	0.508704	1.315265	0.077734
Cl146	Cl	0.385334	1.496785	0.096711
Cl147	Cl	0.209708	1.597474	0.000039
Cl148	Cl	0.191931	1.496856	-0.096643
