data_functionalizedCrystal
_audit_creation_method	'MofGen! by Chris Wilmer'
_symmetry_space_group_name_H-M	'P1'
_symmetry_Int_Tables_number	1
_symmetry_cell_setting	triclinic
loop_
_symmetry_equiv_pos_as_xyz
  x,y,z
_cell_length_a	10.723024
_cell_length_b	17.699083
_cell_length_c	16.176319
_cell_angle_alpha	90.000050
_cell_angle_beta	90.002257
_cell_angle_gamma	96.124558
loop_
_atom_site_label
_atom_site_type_symbol
_atom_site_fract_x
_atom_site_fract_y
_atom_site_fract_z
O1	O	0.157791	-1.005073	0.068628
O2	O	0.657791	-0.505073	0.568628
O3	O	0.178321	-0.784824	0.068655
O4	O	0.678321	-0.284824	0.568655
O5	O	-0.013607	-0.900029	0.068638
O6	O	0.486393	-0.400029	0.568638
O7	O	0.349720	-0.889868	0.068646
O8	O	0.849720	-0.389868	0.568646
O9	O	-0.013607	-0.900015	-0.068855
O10	O	0.486393	-0.400015	0.431145
O11	O	0.178321	-0.784810	-0.068838
O12	O	0.678321	-0.284810	0.431162
O13	O	0.157791	-1.005059	-0.068865
O14	O	0.657791	-0.505059	0.431135
Cu15	Cu	0.168056	-0.894934	-0.081406
Cu16	Cu	0.668056	-0.394934	0.418594
Cu17	Cu	0.168056	-0.894950	0.081196
Cu18	Cu	0.668056	-0.394950	0.581196
O19	O	0.349719	-0.889854	-0.068848
O20	O	0.849719	-0.389854	0.431152
C21	C	0.177585	-0.756616	-0.000088
C22	C	0.677585	-0.256616	0.499912
C23	C	0.175378	-0.672584	-0.000078
C24	C	0.675378	-0.172584	0.499922
N25	N	0.168055	-0.894928	-0.195771
N26	N	0.668055	-0.394928	0.304229
C27	C	-0.060094	-0.899283	-0.000107
C28	C	0.439906	-0.399283	0.499893
C29	C	-0.198610	-0.897070	-0.000104
C30	C	0.301390	-0.397070	0.499896
C31	C	-0.274698	-0.961533	-0.000111
C32	C	0.225302	-0.461533	0.499889
C33	C	-0.417863	-0.959248	-0.000108
C34	C	0.082137	-0.459248	0.499892
C35	C	0.396206	-0.890601	-0.000100
C36	C	0.896206	-0.390601	0.499900
C37	C	0.534723	-0.892813	-0.000098
C38	C	1.034723	-0.392813	0.499902
C39	C	0.158527	-1.033268	-0.000120
C40	C	0.658527	-0.533268	0.499880
C41	C	0.160734	-1.117300	-0.000125
C42	C	0.660734	-0.617300	0.499875
C43	C	0.288036	-0.624673	-0.000076
C44	C	0.788036	-0.124673	0.499924
C45	C	0.285955	-0.545717	-0.000086
C46	C	0.785955	-0.045717	0.499914
C47	C	0.171215	-0.514672	-0.000093
C48	C	0.671215	-0.014672	0.499907
C49	C	0.058549	-0.562589	-0.000098
C50	C	0.558549	-0.062589	0.499902
C51	C	0.060631	-0.641544	-0.000093
C52	C	0.560631	-0.141544	0.499907
C53	C	0.050148	-0.244173	-0.000118
C54	C	0.550148	0.255827	0.499882
C55	C	0.048075	-0.165212	-0.000121
C56	C	0.548075	0.334788	0.499879
C57	C	0.275473	-0.148346	-0.000112
C58	C	0.775473	0.351654	0.499888
C59	C	0.277555	-0.227301	-0.000107
C60	C	0.777555	0.272699	0.499893
C61	C	0.164889	-0.275210	-0.000116
C62	C	0.664889	0.224790	0.499884
C63	C	0.167147	-0.360824	-0.000106
C64	C	0.667147	0.139176	0.499894
C65	C	0.168956	-0.429060	-0.000097
C66	C	0.668956	0.070940	0.499903
C67	C	0.243643	-0.941219	-0.239036
C68	C	0.743643	-0.441219	0.260964
C69	C	0.243638	-0.941227	-0.325583
C70	C	0.743638	-0.441227	0.174417
C71	C	0.168051	-0.894939	-0.368863
C72	C	0.668051	-0.394939	0.131137
C73	C	0.092454	-0.848646	-0.325592
C74	C	0.592454	-0.348646	0.174408
C75	C	0.092453	-0.848642	-0.239047
C76	C	0.592453	-0.348642	0.260953
C77	C	0.092455	-0.848660	-0.674621
C78	C	0.592455	-0.348660	-0.174621
C79	C	0.092465	-0.848665	-0.761172
C80	C	0.592465	-0.348665	-0.261172
C81	C	0.243641	-0.941245	-0.761156
C82	C	0.743641	-0.441245	-0.261156
C83	C	0.243640	-0.941241	-0.674611
C84	C	0.743640	-0.441241	-0.174611
C85	C	0.168038	-0.894951	-0.631348
C86	C	0.668038	-0.394951	-0.131348
C87	C	0.168043	-0.894944	-0.537503
C88	C	0.668043	-0.394944	-0.037503
C89	C	0.168052	-0.894942	-0.462706
C90	C	0.668052	-0.394942	0.037294
N91	N	0.168048	-0.894961	0.195561
N92	N	0.668048	-0.394961	0.695561
H93	H	-0.233851	-1.018413	-0.000123
H94	H	0.266149	-0.518413	0.499877
H95	H	-0.483241	-1.014433	-0.000117
H96	H	0.016759	-0.514433	0.499883
F97	F	0.012010	-0.799397	-0.807233
F98	F	0.512010	-0.299397	-0.307233
F99	F	0.324100	-0.990514	-0.807207
F100	F	0.824100	-0.490514	-0.307207
H101	H	0.370988	-0.252572	-0.000098
H102	H	0.870988	0.247428	0.499902
F103	F	-0.063567	-0.529547	-0.000110
F104	F	0.436433	-0.029547	0.499890
H105	H	0.305195	-0.978931	-0.639376
H106	H	0.805195	-0.478931	-0.139376
H107	H	-0.399906	-0.837625	-0.000098
H108	H	0.100094	-0.337625	0.499902
H109	H	-0.239457	-0.840190	-0.000092
H110	H	0.260543	-0.340190	0.499908
F111	F	0.410160	-0.657705	-0.000063
F112	F	0.910160	-0.157705	0.499937
H113	H	0.030901	-0.810947	-0.203822
H114	H	0.530901	-0.310947	0.296178
F115	F	-0.074054	-0.132174	-0.000128
F116	F	0.425946	0.367826	0.499872
F117	F	-0.059275	-0.692534	-0.000098
F118	F	0.440725	-0.192534	0.499902
H119	H	0.377693	-0.506711	-0.000084
H120	H	0.877693	-0.006711	0.499916
H121	H	0.367210	-0.109328	-0.000109
H122	H	0.867210	0.390672	0.499891
H123	H	-0.041591	-0.283172	-0.000126
H124	H	0.458409	0.216828	0.499874
F125	F	0.012005	-0.799384	-0.371657
F126	F	0.512005	-0.299384	0.128343
H127	H	0.305203	-0.978908	-0.203803
H128	H	0.805203	-0.478908	0.296197
F129	F	0.324091	-0.990496	-0.371625
F130	F	0.824091	-0.490496	0.128375
F131	F	0.012032	-0.799371	-0.628588
F132	F	0.512032	-0.299371	-0.128588
