data_functionalizedCrystal
_audit_creation_method	'MofGen! by Chris Wilmer'
_symmetry_space_group_name_H-M	'P1'
_symmetry_Int_Tables_number	1
_symmetry_cell_setting	triclinic
loop_
_symmetry_equiv_pos_as_xyz
  x,y,z
_cell_length_a	16.992701
_cell_length_b	19.188930
_cell_length_c	15.455313
_cell_angle_alpha	92.650876
_cell_angle_beta	87.136501
_cell_angle_gamma	86.905976
loop_
_atom_site_label
_atom_site_type_symbol
_atom_site_fract_x
_atom_site_fract_y
_atom_site_fract_z
O1	O	1.043332	0.145147	-0.072153
O2	O	1.543332	0.645147	0.427847
O3	O	0.815052	0.143525	-0.072154
O4	O	1.315052	0.643525	0.427846
O5	O	0.935779	0.043066	-0.072136
O6	O	1.435779	0.543066	0.427864
O7	O	0.922605	0.245606	-0.072170
O8	O	1.422605	0.745606	0.427830
O9	O	0.928875	0.048786	0.072125
O10	O	1.428875	0.548786	0.572125
O11	O	0.808148	0.149244	0.072108
O12	O	1.308148	0.649244	0.572108
O13	O	1.036428	0.150866	0.072108
O14	O	1.536428	0.650866	0.572108
Cu15	Cu	0.921658	0.150578	0.085280
Cu16	Cu	1.421658	0.650578	0.585280
Cu17	Cu	0.929822	0.143814	-0.085326
Cu18	Cu	1.429822	0.643814	0.414674
O19	O	0.915701	0.251325	0.072091
O20	O	1.415701	0.751325	0.572091
C21	C	0.782395	0.144296	-0.000023
C22	C	1.282395	0.644296	0.499977
C23	C	0.695372	0.138064	-0.000022
C24	C	1.195372	0.638064	0.499978
C25	C	0.206556	0.096189	-0.000018
C26	C	0.706556	0.596189	0.499982
C27	C	0.288322	0.102050	-0.000014
C28	C	0.788322	0.602050	0.499986
C29	C	0.319639	0.168051	-0.000029
C30	C	0.819639	0.668051	0.499971
C31	C	0.269185	0.228194	-0.000039
C32	C	0.769185	0.728194	0.499961
C33	C	0.187421	0.222332	-0.000037
C34	C	0.687421	0.722332	0.499963
C35	C	0.563153	0.192345	-0.000031
C36	C	1.063153	0.692345	0.499969
C37	C	0.644925	0.198202	-0.000035
C38	C	1.144925	0.698202	0.499965
C39	C	0.664055	0.072058	-0.000008
C40	C	1.164055	0.572058	0.499992
C41	C	0.582288	0.066202	-0.000011
C42	C	1.082288	0.566202	0.499989
C43	C	0.531841	0.126345	-0.000017
C44	C	1.031841	0.626345	0.499983
N45	N	0.403217	0.174043	-0.000027
N46	N	0.903217	0.674043	0.499973
N47	N	0.448264	0.120352	-0.000013
N48	N	0.948264	0.620352	0.499987
C49	C	0.931900	0.019890	-0.000003
C50	C	1.431900	0.519890	0.499997
C51	C	0.930619	-0.057689	0.000004
C52	C	1.430619	0.442311	0.500004
C53	C	1.001458	-0.098468	0.000008
C54	C	1.501458	0.401532	0.500008
C55	C	1.000255	-0.171363	-0.000006
C56	C	1.500255	0.328637	0.499994
C57	C	0.928209	-0.203475	-0.000006
C58	C	1.428209	0.296525	0.499994
C59	C	0.857361	-0.162686	-0.000015
C60	C	1.357361	0.337314	0.499985
C61	C	0.858566	-0.089793	-0.000010
C62	C	1.358566	0.410207	0.499990
N63	N	0.870788	-0.312755	0.049088
N64	N	1.370788	0.187245	0.549088
N65	N	0.869648	-0.382001	0.049085
N66	N	1.369648	0.117999	0.549085
C67	C	0.924574	-0.423097	-0.000024
C68	C	1.424574	0.076903	0.499976
N69	N	0.980693	-0.392332	-0.049119
N70	N	1.480693	0.107668	0.450881
N71	N	0.981836	-0.323080	-0.049112
N72	N	1.481836	0.176920	0.450888
C73	C	0.926894	-0.282514	-0.000013
C74	C	1.426894	0.217486	0.499987
C75	C	0.994113	-0.542917	-0.000036
C76	C	1.494113	-0.042917	0.499964
C77	C	0.992908	-0.615813	-0.000055
C78	C	1.492908	-0.115813	0.499945
C79	C	0.850012	-0.607135	-0.000056
C80	C	1.350012	-0.107135	0.499944
C81	C	0.851219	-0.534241	-0.000046
C82	C	1.351219	-0.034241	0.499954
C83	C	0.923272	-0.502136	-0.000031
C84	C	1.423272	-0.002136	0.499969
C85	C	1.069085	0.150095	-0.000025
C86	C	1.569085	0.650095	0.499975
C87	C	1.156108	0.156327	-0.000031
C88	C	1.656108	0.656327	0.499969
C89	C	0.919580	0.274501	-0.000044
C90	C	1.419580	0.774501	0.499956
C91	C	0.920861	0.352080	-0.000057
C92	C	1.420861	0.852080	0.499943
N93	N	0.915921	0.155335	0.205275
N94	N	1.415921	0.655335	0.705275
N95	N	0.935565	0.139051	-0.205320
N96	N	1.435565	0.639051	0.294680
C97	C	0.967228	0.112674	0.250676
C98	C	1.467228	0.612674	0.750676
C99	C	0.962897	0.116279	0.341483
C100	C	1.462897	0.616279	0.841483
C101	C	0.907262	0.162548	0.386888
C102	C	1.407262	0.662548	0.886888
C103	C	0.855950	0.205210	0.341480
C104	C	1.355950	0.705210	0.841480
C105	C	0.860278	0.201602	0.250674
C106	C	1.360278	0.701602	0.750674
C107	C	0.888581	0.178105	0.658466
C108	C	1.388581	0.678105	1.158466
C109	C	0.884258	0.181712	0.749278
C110	C	1.384258	0.681712	1.249278
C111	C	0.991204	0.092779	0.749275
C112	C	1.491204	0.592779	1.249275
C113	C	0.995531	0.089178	0.658468
C114	C	1.495531	0.589178	1.158468
C115	C	0.944216	0.131837	0.613068
C116	C	1.444216	0.631837	1.113068
N117	N	0.902835	0.166235	0.479707
N118	N	1.402835	0.666235	0.979707
N119	N	0.948640	0.128146	0.520250
N120	N	1.448640	0.628146	1.020250
H121	H	0.705137	0.023093	-0.000002
H122	H	1.205137	0.523093	0.499998
H123	H	1.057942	-0.204572	-0.000006
H124	H	1.557942	0.295428	0.499994
H125	H	1.032982	0.058047	0.786248
H126	H	1.532982	0.558047	1.286248
C127	C	0.780573	-0.005716	-0.074167
C128	C	1.280573	0.494284	0.425833
C129	C	0.780693	-0.044965	-0.000011
C130	C	1.280693	0.455035	0.499989
H131	H	0.732495	0.021956	-0.074167
H132	H	1.232495	0.521956	0.425833
H133	H	0.823649	0.023836	-0.074153
H134	H	1.323649	0.523836	0.425847
H135	H	0.785483	-0.036325	-0.124471
H136	H	1.285483	0.463675	0.375529
H137	H	0.775790	-0.014356	0.050293
H138	H	1.275790	0.485644	0.550293
H139	H	0.737606	-0.074520	-0.000017
H140	H	1.237606	0.425480	0.499983
C141	C	0.747066	0.216154	0.777282
C142	C	1.247066	0.716154	1.277282
C143	C	0.823094	0.232564	0.799196
C144	C	1.323094	0.732564	1.299196
H145	H	0.709309	0.247544	0.808106
H146	H	1.209309	0.747544	1.308106
H147	H	0.742297	0.220119	0.716713
H148	H	1.242297	0.720119	1.216713
H149	H	0.738028	0.169673	0.792179
H150	H	1.238028	0.669673	1.292179
H151	H	0.832134	0.279045	0.784292
H152	H	1.332134	0.779045	1.284292
H153	H	0.827865	0.228606	0.859778
H154	H	1.327865	0.728606	1.359778
C155	C	0.808150	0.324572	0.369402
C156	C	1.308150	0.824572	0.869402
C157	C	0.794789	0.256069	0.391381
C158	C	1.294789	0.756069	0.891381
H159	H	0.770387	0.355970	0.400203
H160	H	1.270387	0.855970	0.900203
H161	H	0.859724	0.335690	0.384275
H162	H	1.359724	0.835690	0.884275
H163	H	0.803386	0.328517	0.308821
H164	H	1.303386	0.828517	0.808821
H165	H	0.799559	0.252123	0.451961
H166	H	1.299559	0.752123	0.951961
H167	H	0.743203	0.244949	0.376514
H168	H	1.243203	0.744949	0.876514
H169	H	0.670419	0.251951	-0.000035
H170	H	1.170419	0.751951	0.499965
H171	H	0.522089	0.241319	-0.000040
H172	H	1.022089	0.741319	0.499960
H173	H	0.294690	0.281933	-0.000046
H174	H	0.794690	0.781933	0.499954
C175	C	1.069062	0.028032	0.332360
C176	C	1.569062	0.528032	0.832360
C177	C	1.019307	0.069396	0.391388
C178	C	1.519307	0.569396	0.891388
H179	H	1.103894	-0.000907	0.363171
H180	H	1.603894	0.499093	0.863171
H181	H	1.038213	-0.000330	0.296965
H182	H	1.538213	0.499670	0.796965
H183	H	1.098833	0.057283	0.296920
H184	H	1.598833	0.557283	0.796920
H185	H	0.989531	0.040145	0.426824
H186	H	1.489531	0.540145	0.926824
H187	H	1.050160	0.097761	0.426798
H188	H	1.550160	0.597761	0.926798
C189	C	1.081907	-0.468894	-0.074185
C190	C	1.581907	0.031106	0.425815
C191	C	1.073309	-0.507617	-0.000033
C192	C	1.573309	-0.007617	0.499967
H193	H	1.130796	-0.447099	-0.074179
H194	H	1.630796	0.052901	0.425821
H195	H	1.080877	-0.499135	-0.124486
H196	H	1.580877	0.000865	0.375514
H197	H	1.039881	-0.434176	-0.074169
H198	H	1.539881	0.065824	0.425831
H199	H	1.115332	-0.542339	-0.000052
H200	H	1.615332	-0.042339	0.499948
H201	H	1.074345	-0.477374	0.050281
H202	H	1.574345	0.022626	0.550281
H203	H	0.146346	0.271304	-0.000045
H204	H	0.646346	0.771304	0.499955
C205	C	0.738751	-0.180670	-0.074181
C206	C	1.238751	0.319330	0.425819
C207	C	0.778167	-0.197982	-0.000018
C208	C	1.278167	0.302018	0.499982
H209	H	0.689861	-0.202465	-0.074187
H210	H	1.189861	0.297535	0.425813
H211	H	0.729330	-0.131427	-0.074173
H212	H	1.229330	0.368573	0.425827
H213	H	0.770328	-0.196390	-0.124480
H214	H	1.270328	0.303610	0.375520
H215	H	0.746592	-0.182258	0.050281
H216	H	1.246592	0.317742	0.550281
H217	H	0.787585	-0.247236	-0.000018
H218	H	1.287585	0.252764	0.499982
H219	H	0.791350	-0.633280	-0.000061
H220	H	1.291350	-0.133280	0.499939
C221	C	0.709856	-0.532987	-0.000035
C222	C	1.209856	-0.032987	0.499965
C223	C	0.773349	-0.489411	-0.000035
C224	C	1.273349	0.010589	0.499965
H225	H	0.661780	-0.505309	-0.000024
H226	H	1.161780	-0.005309	0.499976
H227	H	0.714762	-0.563581	-0.050342
H228	H	1.214762	-0.063581	0.449658
H229	H	0.709958	-0.559615	0.050272
H230	H	1.209958	-0.059615	0.550272
H231	H	0.773250	-0.462786	-0.050346
H232	H	1.273250	0.037214	0.449654
H233	H	0.768441	-0.458804	0.050278
H234	H	1.268441	0.041196	0.550278
H235	H	1.040833	0.051502	0.621502
H236	H	1.540833	0.551502	1.121502
C237	C	1.134273	-0.617064	-0.000030
C238	C	1.634273	-0.117064	0.499970
C239	C	1.070781	-0.660641	-0.000048
C240	C	1.570781	-0.160641	0.499952
H241	H	1.182347	-0.644740	-0.000019
H242	H	1.682347	-0.144740	0.499981
H243	H	1.134185	-0.590439	-0.050331
H244	H	1.634185	-0.090439	0.449669
H245	H	1.129351	-0.586465	0.050284
H246	H	1.629351	-0.086465	0.550284
H247	H	1.075699	-0.691236	-0.050366
H248	H	1.575699	-0.191236	0.449634
H249	H	1.070870	-0.687277	0.050258
H250	H	1.570870	-0.187277	0.550258
C251	C	1.082166	-0.018602	0.074174
C252	C	1.582166	0.481398	0.574174
C253	C	1.080657	-0.063178	0.000013
C254	C	1.580657	0.436822	0.500013
H255	H	1.131062	0.003182	0.074176
H256	H	1.631062	0.503182	0.574176
H257	H	1.040153	0.016116	0.074168
H258	H	1.540153	0.516116	0.574168
H259	H	1.076318	-0.044877	0.124474
H260	H	1.576318	0.455123	0.624474
H261	H	1.086499	-0.036902	-0.050288
H262	H	1.586499	0.463098	0.449712
H263	H	1.122681	-0.097901	0.000011
H264	H	1.622681	0.402099	0.500011
H265	H	0.818498	0.236340	0.213709
H266	H	1.318498	0.736340	0.713709
H267	H	0.846799	0.212842	0.621509
H268	H	1.346799	0.712842	1.121509
C269	C	0.201246	-0.016080	-0.074150
C270	C	0.701246	0.483920	0.425850
C271	C	0.172137	0.023637	-0.000003
C272	C	0.672137	0.523637	0.499997
H273	H	0.180002	-0.060872	-0.074134
H274	H	0.680002	0.439128	0.425866
H275	H	0.186317	0.006875	-0.124454
H276	H	0.686317	0.506875	0.375546
H277	H	0.257163	-0.021188	-0.074139
H278	H	0.757163	0.478812	0.425861
H279	H	0.116220	0.028750	-0.000017
H280	H	0.616220	0.528750	0.499983
H281	H	0.187061	0.000677	0.050314
H282	H	0.687061	0.500677	0.550314
H283	H	0.329393	0.053079	0.000000
H284	H	0.829393	0.553079	0.500000
H285	H	0.556796	0.012457	0.000001
H286	H	1.056796	0.512457	0.500001
H287	H	1.012535	0.075000	0.213714
H288	H	1.512535	0.575000	0.713714
