data_functionalizedCrystal
_audit_creation_method	'MofGen! by Chris Wilmer'
_symmetry_space_group_name_H-M	'P1'
_symmetry_Int_Tables_number	1
_symmetry_cell_setting	triclinic
loop_
_symmetry_equiv_pos_as_xyz
  x,y,z
_cell_length_a	20.919309
_cell_length_b	20.919099
_cell_length_c	20.919292
_cell_angle_alpha	119.787622
_cell_angle_beta	93.152155
_cell_angle_gamma	59.198870
loop_
_atom_site_label
_atom_site_type_symbol
_atom_site_fract_x
_atom_site_fract_y
_atom_site_fract_z
Zr1	Zr	0.678348	0.613979	0.023595
O2	O	0.585284	0.747424	0.122056
O3	O	0.702149	0.485650	-0.001564
O4	O	0.716584	0.611153	0.124487
O5	O	0.564841	0.622366	-0.109142
O6	O	0.825534	0.603106	0.120688
O7	O	0.570849	0.621920	-0.003995
O8	O	0.799713	0.378603	-0.104794
O9	O	0.590662	0.846868	0.116340
O10	O	0.799320	0.530533	-0.021200
O11	O	0.713529	0.536872	-0.096835
O12	O	0.730523	0.684636	0.051574
O13	O	0.644731	0.690974	-0.024062
Zr14	Zr	0.842528	0.601855	-0.150161
Zr15	Zr	0.852110	0.601144	0.017536
Zr16	Zr	0.668766	0.614690	-0.144103
Zr17	Zr	0.686925	0.772582	0.014479
Zr18	Zr	0.833951	0.443252	-0.141045
O19	O	0.818727	0.730184	-0.125002
O20	O	0.832351	0.729174	0.113442
O21	O	0.571659	0.748434	-0.116388
O22	O	0.935593	0.468411	-0.248622
O23	O	0.949217	0.467400	-0.010178
O24	O	0.688525	0.486660	-0.240008
O25	O	0.956035	0.593469	-0.017424
O26	O	0.804293	0.604681	-0.251053
O27	O	0.695343	0.612728	-0.247255
O28	O	0.950027	0.593914	-0.122571
O29	O	0.728780	0.836666	0.111525
O30	O	0.792097	0.379168	-0.238091
O31	O	0.930215	0.368966	-0.242907
O32	O	0.937831	0.368401	-0.109610
O33	O	0.583045	0.847433	-0.016957
O34	O	0.721163	0.837231	-0.021772
O35	O	0.790353	0.531198	-0.178140
O36	O	0.876145	0.524860	-0.102505
O37	O	0.807348	0.678962	-0.029731
O38	O	0.721556	0.685301	-0.105366
C39	C	0.749709	0.409529	-0.051880
C40	C	0.746068	0.342198	-0.048010
C41	C	0.722768	-0.035766	-0.023486
C42	C	0.726190	0.027516	-0.027090
C43	C	0.781656	0.000197	-0.085762
C44	C	0.833698	-0.090409	-0.140837
C45	C	0.830272	-0.153689	-0.137235
C46	C	0.794685	0.188311	-0.099484
C47	C	0.798108	0.251600	-0.103080
C48	C	0.690598	0.369521	0.010666
C49	C	0.687181	0.306235	0.014265
C50	C	0.739220	0.215634	-0.040812
C51	C	0.785156	0.064880	-0.089446
C52	C	0.735716	0.150954	-0.037131
C53	C	0.543088	0.623972	-0.055705
C54	C	0.469321	0.629420	-0.053133
C55	C	0.470575	0.551542	-0.089908
C56	C	0.401261	0.556667	-0.087490
C57	C	0.330694	0.639671	-0.048292
C58	C	0.329442	0.717555	-0.011517
C59	C	0.398755	0.712429	-0.013940
C60	C	0.119616	0.659172	-0.039080
C61	C	0.050301	0.664292	-0.036658
C62	C	0.122125	0.503404	-0.112633
C63	C	0.191436	0.498285	-0.115049
C64	C	0.190178	0.576169	-0.078277
C65	C	0.259843	0.644912	-0.045818
C66	C	0.261028	0.570928	-0.080756
C67	C	0.977789	0.591863	-0.070861
C68	C	1.051555	0.586414	-0.073433
C69	C	0.772424	0.607028	0.146481
C70	C	0.776492	0.606727	0.217673
C71	C	0.771167	0.806305	-0.074686
C72	C	0.774808	0.873636	-0.078556
C73	C	0.802503	0.604811	0.620221
C74	C	0.798678	0.605097	0.553330
C75	C	0.736746	0.609667	0.521974
C76	C	0.678630	0.613960	0.557517
C77	C	0.682453	0.613681	0.624410
C78	C	0.722199	0.610740	0.320108
C79	C	0.718382	0.611017	0.253209
C80	C	0.838430	0.602155	0.249028
C81	C	0.842249	0.601871	0.315920
C82	C	0.784132	0.606168	0.351459
C83	C	0.732836	0.609957	0.453600
C84	C	0.788039	0.605885	0.419835
C85	C	0.748454	0.608804	0.726952
C86	C	0.744393	0.609101	0.655758
C87	C	0.967059	0.393475	-0.059458
C88	C	1.037185	0.320695	-0.058160
C89	C	0.737723	0.410418	-0.261644
C90	C	0.730014	0.343388	-0.328966
C91	C	0.955074	0.394363	-0.269222
C92	C	1.021131	0.321885	-0.339116
C93	C	0.565802	0.821471	0.142656
C94	C	0.499745	0.893949	0.212550
C95	C	0.553817	0.822360	-0.067108
C96	C	0.483691	0.895139	-0.068406
C97	C	0.783153	0.805416	0.135078
C98	C	0.790862	0.872446	0.202400
C99	C	1.030015	0.289478	-0.015103
C100	C	1.095900	0.221103	-0.013868
C101	C	1.168954	0.183941	-0.055695
C102	C	1.176122	0.215164	-0.098753
C103	C	1.110238	0.283543	-0.099984
C104	C	0.766495	0.308949	-0.403029
C105	C	0.759248	0.245977	-0.466292
C106	C	0.715525	0.217440	-0.455490
C107	C	0.679040	0.251886	-0.381420
C108	C	0.686282	0.314862	-0.318159
C109	C	1.096942	0.284539	-0.332458
C110	C	1.159018	0.216447	-0.398125
C111	C	1.145280	0.185697	-0.470449
C112	C	1.069462	0.223049	-0.477105
C113	C	1.007388	0.291145	-0.411439
C114	C	0.423934	0.931302	0.205891
C115	C	0.361860	0.999415	0.271557
C116	C	0.375597	1.030168	0.343881
C117	C	0.451416	0.992812	0.350537
C118	C	0.513489	0.924705	0.284872
C119	C	0.490862	0.926363	-0.111457
C120	C	0.424979	0.994755	-0.112674
C121	C	0.351926	1.031919	-0.070845
C122	C	0.344757	1.000693	-0.027790
C123	C	0.410640	0.932306	-0.026568
C124	C	0.834591	0.900962	0.191574
C125	C	0.841850	0.963934	0.254824
C126	C	0.805374	0.998393	0.328898
C127	C	0.761644	0.969871	0.339723
C128	C	0.754390	0.906896	0.276474
H129	H	0.837061	0.114548	-0.144331
H130	H	0.402288	0.493251	-0.117437
C131	C	0.814588	0.340334	-0.414921
H132	H	0.813688	0.382769	-0.366642
H133	H	0.793370	0.366684	-0.443398
H134	H	0.866385	0.290906	-0.442055
C135	C	0.889944	0.995307	0.242904
H136	H	0.910613	0.965774	0.189728
H137	H	0.930950	0.981865	0.266478
H138	H	0.857928	1.057642	0.265141
C139	C	1.054357	0.189220	-0.556662
H140	H	1.000316	0.221215	-0.551230
H141	H	1.074822	0.127741	-0.581904
H142	H	1.078606	0.197848	-0.585929
H143	H	0.878856	-0.112648	-0.188611
C144	C	1.118133	0.317864	-0.147359
H145	H	1.171077	0.285928	-0.172097
H146	H	1.098113	0.379309	-0.114570
H147	H	1.090091	0.309508	-0.184653
H148	H	0.298286	1.087604	-0.071847
C149	C	1.088005	0.186760	0.033489
H150	H	1.137703	0.140720	0.028243
H151	H	1.056718	0.164291	0.015675
H152	H	1.064732	0.234085	0.085773
H153	H	0.788963	0.217938	-0.526597
H154	H	0.843275	0.229346	-0.150862
C155	C	0.338645	0.479627	-0.123875
H156	H	0.329469	0.433974	-0.145436
H157	H	0.369297	0.474131	-0.089341
H158	H	0.365052	0.474445	-0.163462
C159	C	1.256482	0.174274	-0.144765
H160	H	1.294686	0.129073	-0.137868
H161	H	1.266189	0.219142	-0.127372
H162	H	1.258150	0.149358	-0.197453
H163	H	0.709634	0.166161	-0.507008
C164	C	0.661754	-0.005709	0.041051
H165	H	0.631246	0.057314	0.073328
H166	H	0.686824	-0.030068	0.070084
H167	H	0.629534	-0.025815	0.019553
C168	C	0.630951	0.220489	-0.369545
H169	H	0.610253	0.250019	-0.316376
H170	H	0.662968	0.158157	-0.391791
H171	H	0.589953	0.233934	-0.393134
C172	C	1.213564	0.110794	-0.542677
H173	H	1.194530	0.097829	-0.586708
H174	H	1.242253	0.059121	-0.540933
H175	H	1.246032	0.129233	-0.544954
H176	H	0.945661	0.321543	-0.416871
C177	C	0.408809	0.897495	0.126344
H178	H	0.354765	0.929512	0.131794
H179	H	0.429256	0.836020	0.101091
H180	H	0.433060	0.906121	0.097076
H181	H	1.222594	0.128263	-0.054687
H182	H	0.864295	0.872915	0.131265
H183	H	0.300130	1.029819	0.266123
H184	H	0.811287	1.049671	0.380393
C185	C	0.646156	0.352732	-0.236694
H186	H	0.619087	0.326707	-0.239329
H187	H	0.610808	0.415310	-0.210918
H188	H	0.683822	0.339525	-0.209581
C189	C	0.432877	1.029084	-0.160045
H190	H	0.485820	0.997141	-0.184790
H191	H	0.412865	1.090526	-0.127251
H192	H	0.404826	1.020742	-0.197332
H193	H	1.108142	0.309566	-0.273575
C194	C	0.674705	0.181007	0.027404
H195	H	0.644196	0.244029	0.059688
H196	H	0.699783	0.156638	0.056429
H197	H	0.642485	0.160901	0.005906
C198	C	0.870630	0.599783	0.654706
H199	H	0.904687	0.597276	0.623963
H200	H	0.897595	0.548029	0.656414
H201	H	0.851637	0.650957	0.705017
H202	H	0.325046	1.085625	0.397344
H203	H	0.838463	0.602169	0.445370
C204	C	1.242409	0.175363	-0.390789
H205	H	1.241693	0.203422	-0.338309
H206	H	1.270387	0.183711	-0.416769
H207	H	1.266587	0.113607	-0.412753
H208	H	0.397729	0.775846	0.015997
C209	C	0.466517	1.026640	0.430096
H210	H	0.418686	1.072543	0.468244
H211	H	0.496986	1.049171	0.433556
H212	H	0.493183	0.979071	0.437575
H213	H	0.575216	0.894292	0.290302
C214	C	0.721518	1.007789	0.421206
H215	H	0.732097	1.049386	0.457318
H216	H	0.740345	0.960813	0.428970
H217	H	0.667345	1.036584	0.427604
C218	C	0.571211	0.885494	-0.157473
H219	H	0.566035	0.913898	-0.183278
H220	H	0.594568	0.823804	-0.193809
H221	H	0.602596	0.893587	-0.123714
C222	C	0.633352	0.469177	0.071242
H223	H	0.599832	0.476382	0.106702
H224	H	0.603808	0.498441	0.046941
H225	H	0.661102	0.494187	0.097467
H226	H	0.285268	1.030962	0.006266
C227	C	0.402746	0.897955	0.020779
H228	H	0.452442	0.851906	0.015524
H229	H	0.371450	0.875498	0.002968
H230	H	0.379482	0.945275	0.073065
C231	C	0.706276	0.875546	0.288391
H232	H	0.685588	0.905099	0.341567
H233	H	0.738271	0.813216	0.266160
H234	H	0.665271	0.889002	0.264812
H235	H	0.642014	0.328489	0.062041
C236	C	0.887515	-0.253348	-0.197810
H237	H	0.877526	-0.287122	-0.187267
H238	H	0.938811	-0.269337	-0.196511
H239	H	0.881508	-0.265070	-0.247029
C240	C	0.846168	0.034831	-0.153980
H241	H	0.876673	-0.028191	-0.186268
H242	H	0.878381	0.054943	-0.132488
H243	H	0.821084	0.059194	-0.183011
H244	H	0.528029	0.483952	-0.121831
C245	C	0.269055	0.406981	-0.158167
H246	H	0.259874	0.361332	-0.179727
H247	H	0.299705	0.401484	-0.123631
H248	H	0.295468	0.401794	-0.197754
H249	H	0.683822	0.101283	0.017761
H250	H	0.123140	0.439995	-0.142571
C251	C	-0.027323	0.755600	0.006452
H252	H	-0.018147	0.801251	0.027998
H253	H	-0.053740	0.760793	0.046037
H254	H	-0.057968	0.761087	-0.028094
H255	H	0.202380	0.712493	-0.013903
H256	H	0.118583	0.722590	-0.009124
H257	H	0.271980	0.785138	0.020395
H258	H	0.635133	0.617176	0.653344
H259	H	0.845996	0.601605	0.524397
C260	C	0.910368	0.596858	0.350414
H261	H	0.944425	0.594354	0.319673
H262	H	0.937334	0.545107	0.352126
H263	H	0.891367	0.648036	0.400723
H264	H	0.885746	0.598658	0.220086
C265	C	0.664715	0.614979	0.419106
H266	H	0.630648	0.617497	0.449850
H267	H	0.683707	0.563813	0.368796
H268	H	0.637751	0.666742	0.417405
C269	C	0.650249	0.616052	0.218723
H270	H	0.616179	0.618581	0.249473
H271	H	0.669236	0.564885	0.168415
H272	H	0.623291	0.667813	0.217018
C273	C	0.610503	0.618990	0.523032
H274	H	0.576438	0.621514	0.553783
H275	H	0.629490	0.567824	0.472723
H276	H	0.583539	0.670751	0.521328
C277	C	0.949666	0.330348	0.030915
H278	H	0.954844	0.301963	0.056738
H279	H	0.918278	0.322256	-0.002835
H280	H	0.926313	0.392043	0.067248
H281	H	0.674878	0.614237	0.349038
