data_functionalizedCrystal
_audit_creation_method	'MofGen! by Chris Wilmer'
_symmetry_space_group_name_H-M	'P1'
_symmetry_Int_Tables_number	1
_symmetry_cell_setting	triclinic
loop_
_symmetry_equiv_pos_as_xyz
  x,y,z
_cell_length_a	10.654556
_cell_length_b	10.540539
_cell_length_c	9.730223
_cell_angle_alpha	90.000775
_cell_angle_beta	89.999363
_cell_angle_gamma	84.506450
loop_
_atom_site_label
_atom_site_type_symbol
_atom_site_fract_x
_atom_site_fract_y
_atom_site_fract_z
O1	O	1.667892	0.178332	-0.114297
O2	O	1.302421	0.195311	-0.114296
O3	O	1.493495	0.002112	-0.114295
O4	O	1.476818	0.371531	-0.114298
O5	O	1.493492	0.002117	0.114285
O6	O	1.302419	0.195316	0.114284
O7	O	1.667890	0.178337	0.114283
Zn8	Zn	1.485154	0.186827	0.150576
Zn9	Zn	1.485157	0.186821	-0.150588
O10	O	1.476816	0.371536	0.114282
C11	C	1.255621	0.194065	-0.000006
C12	C	1.116177	0.190331	-0.000006
C13	C	0.919646	0.185072	-0.124616
C14	C	1.050670	0.188574	-0.124610
C15	C	1.050656	0.188572	0.124601
C16	C	0.919636	0.185061	0.124593
C17	C	0.919655	0.185079	-0.268496
C18	C	1.050678	0.188581	-0.268490
C19	C	1.492243	-0.045188	-0.000007
C20	C	1.488501	-0.186135	-0.000014
C21	C	1.345130	-0.369513	-0.000527
C22	C	1.348923	-0.222896	-0.000013
C23	C	1.555671	-0.247812	0.130516
C24	C	1.550908	-0.394355	0.130626
C25	C	1.553749	-0.394880	-0.129312
C26	C	1.555034	-0.247898	-0.131038
C27	C	1.714689	0.179583	-0.000010
C28	C	1.854134	0.183318	-0.000019
C29	C	1.478068	0.418836	-0.000009
C30	C	1.481809	0.559783	-0.000010
N31	N	1.485161	0.186831	0.356112
N32	N	1.485160	0.186807	-0.356125
C33	C	1.569791	0.101312	0.428039
C34	C	1.569787	0.101296	0.571922
C35	C	1.400521	0.272331	0.571939
C36	C	1.400519	0.272339	0.428058
C37	C	1.667519	0.002570	0.428030
C38	C	1.667516	0.002555	0.571913
H39	H	1.296070	-0.180277	-0.093582
H40	H	1.501264	-0.422536	0.228200
H41	H	0.866303	0.183607	0.226052
O42	O	1.279690	-0.405738	0.110475
C43	C	1.197460	-0.579254	0.231512
C44	C	1.271608	-0.538405	0.105755
H45	H	1.190879	-0.686513	0.227724
H46	H	1.247994	-0.554051	0.329650
H47	H	1.098525	-0.527408	0.230214
H48	H	1.370549	-0.590228	0.106921
H49	H	1.220976	-0.563582	0.007674
H50	H	1.651290	-0.442357	0.136547
O51	O	1.114445	0.190106	0.245555
C52	C	1.275547	0.084236	0.390228
C53	C	1.203428	0.082358	0.253183
H54	H	1.347488	-0.002882	0.396453
H55	H	1.326287	0.174502	0.396484
H56	H	1.206183	0.082442	0.479258
H57	H	1.272708	0.084104	0.164075
H58	H	1.152669	-0.007901	0.247047
O59	O	1.285447	-0.173263	0.111909
C60	C	1.166574	-0.215921	0.314641
C61	C	1.238444	-0.272299	0.187950
H62	H	1.128530	-0.295961	0.376140
H63	H	1.233132	-0.164337	0.381826
H64	H	1.084772	-0.145700	0.279686
H65	H	1.320246	-0.342571	0.222782
H66	H	1.171803	-0.323803	0.120794
H67	H	1.658173	-0.225493	0.135369
H68	H	1.758713	0.033490	0.383403
H69	H	1.636970	-0.089652	0.616529
H70	H	1.646042	-0.095004	0.388977
O71	O	1.500185	-0.197079	0.246543
C72	C	1.498505	-0.195988	0.494183
C73	C	1.561488	-0.253524	0.362899
H74	H	1.548026	-0.241619	0.588290
H75	H	1.505821	-0.088801	0.495921
H76	H	1.394968	-0.215009	0.495519
H77	H	1.665046	-0.234598	0.361476
H78	H	1.554072	-0.360694	0.361213
O79	O	1.782713	0.028567	0.618281
C80	C	1.992661	0.075805	0.558208
C81	C	1.862256	0.046394	0.505511
H82	H	2.057016	0.090200	0.467061
H83	H	1.982076	0.166151	0.623262
H84	H	2.035457	-0.007262	0.623331
H85	H	1.819386	0.129382	0.440331
H86	H	1.872922	-0.043995	0.440531
H87	H	1.289995	-0.398097	-0.094132
H88	H	1.508575	-0.426420	-0.228246
H89	H	1.656797	-0.223711	-0.138921
H90	H	1.331597	0.341964	0.369497
O91	O	1.080284	0.295646	-0.334167
C92	C	1.056551	0.525230	-0.340354
C93	C	1.022946	0.404088	-0.265838
H94	H	1.010188	0.612936	-0.285157
H95	H	1.163232	0.528184	-0.340309
H96	H	1.021041	0.524244	-0.450834
H97	H	1.058373	0.404992	-0.155327
H98	H	0.916260	0.401180	-0.265994
H99	H	0.894800	0.095447	-0.323743
O100	O	0.858070	0.292861	-0.321988
C101	C	0.827418	0.430539	-0.519262
C102	C	0.897227	0.308427	-0.458872
H103	H	0.859069	0.443178	-0.629930
H104	H	0.721464	0.422679	-0.516920
H105	H	0.850103	0.516221	-0.455593
H106	H	0.874645	0.222683	-0.522491
H107	H	1.003162	0.316398	-0.461189
H108	H	1.505887	-0.207025	-0.227601
H109	H	1.102353	0.098168	-0.313135
O110	O	1.674098	-0.451058	-0.130304
C111	C	1.895285	-0.420259	-0.127318
C112	C	1.759063	-0.356466	-0.126171
H113	H	1.964017	-0.343810	-0.124007
H114	H	1.911001	-0.485047	-0.033848
H115	H	1.911683	-0.479160	-0.225058
H116	H	1.742571	-0.297500	-0.028495
H117	H	1.743414	-0.291752	-0.219708
H118	H	1.331607	0.341948	0.630533
