data_functionalizedCrystal
_audit_creation_method	'MofGen! by Chris Wilmer'
_symmetry_space_group_name_H-M	'P1'
_symmetry_Int_Tables_number	1
_symmetry_cell_setting	triclinic
loop_
_symmetry_equiv_pos_as_xyz
  x,y,z
_cell_length_a	27.732048
_cell_length_b	27.732048
_cell_length_c	26.210047
_cell_angle_alpha	90.011237
_cell_angle_beta	90.018945
_cell_angle_gamma	82.642655
loop_
_atom_site_label
_atom_site_type_symbol
_atom_site_fract_x
_atom_site_fract_y
_atom_site_fract_z
O1	O	0.640941	0.057516	0.042369
O2	O	1.140941	0.557516	0.542369
O3	O	0.500148	0.066262	0.042385
O4	O	1.000148	0.566262	0.542385
O5	O	0.574917	-0.008508	0.042367
O6	O	1.074917	0.491492	0.542367
O7	O	0.566172	0.132286	0.042387
O8	O	1.066172	0.632286	0.542387
O9	O	0.574883	-0.008509	-0.042491
O10	O	1.074883	0.491491	0.457509
O11	O	0.500113	0.066261	-0.042473
O12	O	1.000113	0.566261	0.457527
O13	O	0.640907	0.057515	-0.042489
O14	O	1.140907	0.557515	0.457511
Cu15	Cu	0.570507	0.061888	-0.050229
Cu16	Cu	1.070507	0.561888	0.449771
Cu17	Cu	0.570548	0.061889	0.050125
Cu18	Cu	1.070548	0.561889	0.550125
O19	O	0.566137	0.132285	-0.042471
O20	O	1.066137	0.632285	0.457529
C21	C	0.482124	0.066078	-0.000042
C22	C	0.982124	0.566078	0.499958
C23	C	0.428469	0.065525	-0.000036
C24	C	0.928469	0.565525	0.499964
C25	C	0.574716	-0.026515	-0.000064
C26	C	1.074716	0.473485	0.499936
C27	C	0.574164	-0.080170	-0.000068
C28	C	1.074164	0.419830	0.499932
C29	C	0.089654	0.106229	-0.000053
C30	C	0.589654	0.606229	0.499947
C31	C	-0.112006	0.104178	-0.000057
C32	C	0.387994	0.604178	0.499943
O33	O	-0.143262	0.141398	-0.000074
O34	O	0.356738	0.641398	0.499926
N35	N	-0.131130	0.059843	-0.000063
N36	N	0.368870	0.559843	0.499937
C37	C	-0.099835	0.016017	-0.000071
C38	C	0.400165	0.516017	0.499929
O39	O	-0.120728	-0.021740	-0.000081
O40	O	0.379272	0.478260	0.499919
C41	C	0.101824	0.018068	-0.000069
C42	C	0.601824	0.518068	0.499931
C43	C	0.120944	0.062407	-0.000059
C44	C	0.620944	0.562407	0.499941
C45	C	0.108775	0.150563	-0.000043
C46	C	0.608775	0.650563	0.499957
C47	C	0.159187	0.151075	-0.000039
C48	C	0.659187	0.651075	0.499961
C49	C	0.190477	0.107253	-0.000045
C50	C	0.690477	0.607253	0.499955
C51	C	0.171356	0.062919	-0.000055
C52	C	0.671356	0.562919	0.499945
C53	C	0.133117	-0.025757	-0.000081
C54	C	0.633117	0.474243	0.499919
C55	C	0.183534	-0.025240	-0.000082
C56	C	0.683534	0.474760	0.499918
C57	C	0.202655	0.019098	-0.000071
C58	C	0.702655	0.519098	0.499929
C59	C	0.253059	0.019609	-0.000057
C60	C	0.753059	0.519609	0.499943
N61	N	0.272183	0.063944	-0.000051
N62	N	0.772183	0.563944	0.499949
C63	C	0.240892	0.107766	-0.000045
C64	C	0.740892	0.607766	0.499955
C65	C	-0.205709	0.014943	-0.000070
C66	C	0.294291	0.514943	0.499930
C67	C	-0.256124	0.014430	-0.000070
C68	C	0.243876	0.514430	0.499930
C69	C	-0.268291	0.102591	-0.000057
C70	C	0.231709	0.602591	0.499943
C71	C	-0.217876	0.103104	-0.000054
C72	C	0.282124	0.603104	0.499946
C73	C	-0.186585	0.059278	-0.000065
C74	C	0.313415	0.559278	0.499935
C75	C	0.346761	0.108839	-0.000036
C76	C	0.846761	0.608839	0.499964
C77	C	0.397178	0.109347	-0.000030
C78	C	0.897178	0.609347	0.499970
C79	C	0.409341	0.021186	-0.000045
C80	C	0.909341	0.521186	0.499955
C81	C	0.358929	0.020678	-0.000049
C82	C	0.858929	0.520678	0.499951
C83	C	0.327639	0.064508	-0.000046
C84	C	0.827639	0.564508	0.499954
O85	O	0.284343	-0.017592	-0.000046
O86	O	0.784343	0.482408	0.499954
O87	O	0.261794	0.145518	-0.000047
O88	O	0.761794	0.645518	0.499953
C89	C	0.039242	0.105716	-0.000057
C90	C	0.539242	0.605716	0.499943
C91	C	0.020120	0.061382	-0.000067
C92	C	0.520120	0.561382	0.499933
C93	C	0.051411	0.017560	-0.000073
C94	C	0.551411	0.517560	0.499927
C95	C	-0.030294	0.060869	-0.000066
C96	C	0.469706	0.560869	0.499934
C97	C	-0.061585	0.104691	-0.000060
C98	C	0.438415	0.604691	0.499940
C99	C	-0.042461	0.149026	-0.000054
C100	C	0.457539	0.649026	0.499946
C101	C	0.007951	0.149539	-0.000050
C102	C	0.507951	0.649539	0.499950
C103	C	0.032287	-0.026775	-0.000078
C104	C	0.532287	0.473225	0.499922
C105	C	-0.018125	-0.027284	-0.000082
C106	C	0.481875	0.472716	0.499918
C107	C	-0.049416	0.016538	-0.000076
C108	C	0.450584	0.516538	0.499924
C109	C	0.614867	-0.418985	-0.000046
C110	C	1.114867	0.081015	0.499954
C111	C	0.612816	-0.620645	-0.000039
C112	C	1.112816	-0.120645	0.499961
O113	O	0.650037	-0.651900	-0.000021
O114	O	1.150037	-0.151900	0.499979
N115	N	0.568481	-0.639768	-0.000034
N116	N	1.068481	-0.139768	0.499966
C117	C	0.524656	-0.608474	-0.000028
C118	C	1.024656	-0.108474	0.499972
O119	O	0.486899	-0.629367	-0.000019
O120	O	0.986899	-0.129367	0.499981
C121	C	0.526707	-0.406815	-0.000032
C122	C	1.026707	0.093185	0.499968
C123	C	0.571045	-0.387694	-0.000042
C124	C	1.071045	0.112306	0.499958
C125	C	0.659202	-0.399864	-0.000056
C126	C	1.159202	0.100136	0.499944
C127	C	0.659714	-0.349452	-0.000060
C128	C	1.159714	0.150548	0.499940
C129	C	0.615892	-0.318161	-0.000056
C130	C	1.115892	0.181839	0.499944
C131	C	0.571557	-0.337282	-0.000046
C132	C	1.071557	0.162718	0.499954
C133	C	0.482882	-0.375521	-0.000022
C134	C	0.982882	0.124479	0.499978
C135	C	0.483399	-0.325104	-0.000022
C136	C	0.983399	0.174896	0.499978
C137	C	0.527737	-0.305983	-0.000032
C138	C	1.027737	0.194017	0.499968
C139	C	0.528247	-0.255580	-0.000046
C140	C	1.028247	0.244420	0.499954
N141	N	0.572583	-0.236456	-0.000051
N142	N	1.072583	0.263544	0.499949
C143	C	0.616405	-0.267747	-0.000056
C144	C	1.116405	0.232253	0.499944
C145	C	0.523582	-0.714348	-0.000027
C146	C	1.023582	-0.214348	0.499973
C147	C	0.523069	-0.764762	-0.000027
C148	C	1.023069	-0.264762	0.499973
C149	C	0.611230	-0.776930	-0.000037
C150	C	1.111230	-0.276930	0.499963
C151	C	0.611742	-0.726514	-0.000041
C152	C	1.111742	-0.226514	0.499959
C153	C	0.567917	-0.695224	-0.000032
C154	C	1.067917	-0.195224	0.499968
C155	C	0.617477	-0.161878	-0.000066
C156	C	1.117477	0.338122	0.499934
C157	C	0.617986	-0.111461	-0.000073
C158	C	1.117986	0.388539	0.499927
C159	C	0.529825	-0.099298	-0.000060
C160	C	1.029825	0.400702	0.499940
C161	C	0.529316	-0.149710	-0.000056
C162	C	1.029316	0.350290	0.499944
C163	C	0.573146	-0.180999	-0.000057
C164	C	1.073146	0.319001	0.499943
O165	O	0.491047	-0.224296	-0.000059
O166	O	0.991047	0.275704	0.499941
O167	O	0.654156	-0.246844	-0.000054
O168	O	1.154156	0.253156	0.499946
C169	C	0.614355	-0.469397	-0.000042
C170	C	1.114355	0.030603	0.499958
C171	C	0.570021	-0.488518	-0.000033
C172	C	1.070021	0.011482	0.499967
C173	C	0.526198	-0.457228	-0.000028
C174	C	1.026198	0.042772	0.499972
C175	C	0.569508	-0.538933	-0.000033
C176	C	1.069508	-0.038933	0.499967
C177	C	0.613330	-0.570223	-0.000037
C178	C	1.113330	-0.070223	0.499963
C179	C	0.657665	-0.551100	-0.000042
C180	C	1.157665	-0.051100	0.499958
C181	C	0.658177	-0.500688	-0.000046
C182	C	1.158177	-0.000688	0.499954
C183	C	0.481863	-0.476351	-0.000023
C184	C	0.981863	0.023649	0.499977
C185	C	0.481355	-0.526764	-0.000019
C186	C	0.981355	-0.026764	0.499981
C187	C	0.525177	-0.558054	-0.000024
C188	C	1.025177	-0.058054	0.499976
C189	C	0.658931	0.057699	-0.000061
C190	C	1.158931	0.557699	0.499939
C191	C	0.712586	0.058252	-0.000064
C192	C	1.212586	0.558252	0.499936
C193	C	0.566338	0.150292	-0.000040
C194	C	1.066338	0.650292	0.499960
C195	C	0.566891	0.203947	-0.000032
C196	C	1.066891	0.703947	0.499968
N197	N	0.570482	0.061887	-0.120813
N198	N	1.070482	0.561887	0.379187
C199	C	0.537408	0.094981	-0.526773
C200	C	1.037408	0.594981	-0.026773
C201	C	0.537385	0.094982	-0.313114
C202	C	1.037385	0.594982	0.186886
O203	O	0.509207	0.123115	-0.285489
O204	O	1.009207	0.623115	0.214511
N205	N	0.570497	0.061885	-0.286397
N206	N	1.070497	0.561885	0.213603
C207	C	0.603615	0.028785	-0.313098
C208	C	1.103615	0.528785	0.186902
O209	O	0.631775	0.000631	-0.285471
O210	O	1.131775	0.500631	0.214529
C211	C	0.603636	0.028783	-0.526756
C212	C	1.103636	0.528783	-0.026756
C213	C	0.570525	0.061884	-0.553470
C214	C	1.070525	0.561884	-0.053470
C215	C	0.504299	0.128080	-0.553487
C216	C	1.004299	0.628080	-0.053487
C217	C	0.504307	0.128081	-0.606898
C218	C	1.004307	0.628081	-0.106898
C219	C	0.537424	0.094984	-0.633596
C220	C	1.037424	0.594984	-0.133596
C221	C	0.570533	0.061886	-0.606881
C222	C	1.070533	0.561886	-0.106881
C223	C	0.636752	-0.004320	-0.553456
C224	C	1.136752	0.495680	-0.053456
C225	C	0.636753	-0.004319	-0.606873
C226	C	1.136753	0.495681	-0.106873
C227	C	0.603642	0.028783	-0.633588
C228	C	1.103642	0.528783	-0.133588
C229	C	0.603657	0.028790	-0.686990
C230	C	1.103657	0.528790	-0.186990
N231	N	0.570545	0.061886	-0.713707
N232	N	1.070545	0.561886	-0.213707
C233	C	0.537428	0.094983	-0.687010
C234	C	1.037428	0.594983	-0.187010
C235	C	0.603603	0.028789	-0.200925
C236	C	1.103603	0.528789	0.299075
C237	C	0.603598	0.028790	-0.147511
C238	C	1.103598	0.528790	0.352489
C239	C	0.537367	0.094986	-0.147530
C240	C	1.037367	0.594986	0.352470
C241	C	0.537374	0.094987	-0.200945
C242	C	1.037374	0.594987	0.299055
C243	C	0.570491	0.061885	-0.227642
C244	C	1.070491	0.561885	0.272358
C245	C	0.537448	0.094984	-0.799178
C246	C	1.037448	0.594984	-0.299178
C247	C	0.537460	0.094983	-0.852594
C248	C	1.037460	0.594983	-0.352594
C249	C	0.603689	0.028786	-0.852569
C250	C	1.103689	0.528786	-0.352569
C251	C	0.603679	0.028787	-0.799158
C252	C	1.103679	0.528787	-0.299158
C253	C	0.570554	0.061888	-0.772463
C254	C	1.070554	0.561888	-0.272463
O255	O	0.631817	0.000667	-0.714649
O256	O	1.131817	0.500667	-0.214649
O257	O	0.509265	0.123125	-0.714646
O258	O	1.009265	0.623125	-0.214646
C259	C	0.537400	0.094980	-0.473361
C260	C	1.037400	0.594980	0.026639
C261	C	0.570509	0.061881	-0.446647
C262	C	1.070509	0.561881	0.053353
C263	C	0.603626	0.028784	-0.473344
C264	C	1.103626	0.528784	0.026656
C265	C	0.570504	0.061883	-0.393233
C266	C	1.070504	0.561883	0.106767
C267	C	0.537388	0.094980	-0.366536
C268	C	1.037388	0.594980	0.133464
C269	C	0.504276	0.128076	-0.393253
C270	C	1.004276	0.628076	0.106747
C271	C	0.504283	0.128077	-0.446664
C272	C	1.004283	0.628077	0.053336
C273	C	0.636738	-0.004312	-0.446627
C274	C	1.136738	0.495688	0.053373
C275	C	0.636728	-0.004310	-0.393216
C276	C	1.136728	0.495690	0.106784
C277	C	0.603611	0.028787	-0.366519
C278	C	1.103611	0.528787	0.133481
N279	N	0.570577	0.061886	0.120709
N280	N	1.070577	0.561886	0.620709
H281	H	0.412743	0.145454	-0.000021
H282	H	0.912743	0.645454	0.499979
Cl283	Cl	0.462662	0.169694	-0.519934
Cl284	Cl	0.962662	0.669694	-0.019934
Cl285	Cl	-0.193844	0.158845	-0.000043
Cl286	Cl	0.306156	0.658845	0.499957
Cl287	Cl	0.428300	-0.285770	-0.000010
Cl288	Cl	0.928300	0.214230	0.499990
Cl289	Cl	0.462677	0.169693	-0.640476
Cl290	Cl	0.962677	0.669693	-0.140476
H291	H	0.510403	0.121936	-0.125785
H292	H	1.010403	0.621936	0.374215
Cl293	Cl	0.672579	-0.201205	-0.000068
Cl294	Cl	1.172579	0.298795	0.499932
H295	H	-0.180236	-0.020747	-0.000079
H296	H	0.319764	0.479253	0.499921
H297	H	0.695819	-0.333889	-0.000066
H298	H	1.195819	0.166111	0.499934
H299	H	0.209009	-0.060929	-0.000091
H300	H	0.709009	0.439071	0.499909
H301	H	0.630646	0.001838	-0.777407
H302	H	1.130646	0.501838	-0.277407
Cl303	Cl	0.334890	-0.035062	-0.000065
Cl304	Cl	0.834890	0.464938	0.499935
H305	H	0.510412	0.121941	-0.222693
H306	H	1.010412	0.621941	0.277307
Cl307	Cl	0.678359	-0.045926	-0.359638
Cl308	Cl	1.178359	0.454074	0.140362
Cl309	Cl	0.069446	0.205662	-0.000033
Cl310	Cl	0.569446	0.705662	0.499967
Cl311	Cl	0.426766	-0.437021	-0.000017
Cl312	Cl	0.926766	0.062979	0.499983
H313	H	0.487892	-0.688875	-0.000020
H314	H	0.987892	-0.188875	0.499980
Cl315	Cl	-0.042156	-0.083029	-0.000089
Cl316	Cl	0.457844	0.416971	0.499911
H317	H	0.646911	-0.802415	-0.000041
H318	H	1.146911	-0.302415	0.499959
Cl319	Cl	0.645232	-0.012819	-0.113933
Cl320	Cl	1.145232	0.487181	0.386067
Cl321	Cl	0.473577	-0.173748	-0.000053
Cl322	Cl	0.973577	0.326252	0.499947
H323	H	0.477321	0.155032	-0.468411
H324	H	0.977321	0.655032	0.031589
Cl325	Cl	0.467327	-0.788793	-0.000025
Cl326	Cl	0.967327	-0.288793	0.499975
Cl327	Cl	0.462645	0.169685	-0.359680
Cl328	Cl	0.962645	0.669685	0.140320
H329	H	0.174750	0.187180	-0.000030
H330	H	0.674750	0.687180	0.499970
Cl331	Cl	0.714300	-0.439193	-0.000062
Cl332	Cl	1.214300	0.060807	0.499938
H333	H	0.023514	0.185643	-0.000042
H334	H	0.523514	0.685643	0.499958
Cl335	Cl	0.678375	-0.045923	-0.480183
Cl336	Cl	1.178375	0.454077	0.019817
Cl337	Cl	-0.081807	0.204116	-0.000045
Cl338	Cl	0.418193	0.704116	0.499955
Cl339	Cl	0.071617	-0.081872	-0.000086
Cl340	Cl	0.571617	0.418128	0.499914
H341	H	0.434827	-0.014492	-0.000048
H342	H	0.934827	0.485508	0.499952
H343	H	0.510497	0.121940	-0.874343
H344	H	1.010497	0.621940	-0.374343
H345	H	0.654093	-0.095896	-0.000082
H346	H	1.154093	0.404104	0.499918
H347	H	0.117558	-0.061861	-0.000090
H348	H	0.617558	0.438139	0.499910
H349	H	0.630571	0.001832	-0.222657
H350	H	1.130571	0.501832	0.277343
H351	H	0.630654	0.001839	-0.874315
H352	H	1.130654	0.501839	-0.374315
H353	H	0.663713	-0.031275	-0.531712
H354	H	1.163713	0.468725	-0.031712
Cl355	Cl	0.474737	-0.059952	-0.000053
Cl356	Cl	0.974737	0.440048	0.499947
Cl357	Cl	0.667483	-0.702482	-0.000053
Cl358	Cl	1.167483	-0.202482	0.499947
H359	H	0.446777	-0.391080	-0.000011
H360	H	0.946777	0.108920	0.499989
H361	H	0.663720	-0.031276	-0.628607
H362	H	1.163720	0.468724	-0.128607
H363	H	0.321291	0.144530	-0.000036
H364	H	0.821291	0.644530	0.499964
H365	H	0.510474	0.121937	-0.777449
H366	H	1.010474	0.621937	-0.277449
Cl367	Cl	0.712755	-0.590446	-0.000050
Cl368	Cl	1.212755	-0.090446	0.499950
Cl369	Cl	-0.307637	0.157681	-0.000052
Cl370	Cl	0.192363	0.657681	0.499948
H371	H	0.694282	-0.485125	-0.000054
H372	H	1.194282	0.014875	0.499946
Cl373	Cl	-0.280155	-0.041312	-0.000070
Cl374	Cl	0.219845	0.458688	0.499930
H375	H	0.445246	-0.542327	-0.000016
H376	H	0.945246	-0.042327	0.499984
