data_functionalizedCrystal
_audit_creation_method	'MofGen! by Chris Wilmer'
_symmetry_space_group_name_H-M	'P1'
_symmetry_Int_Tables_number	1
_symmetry_cell_setting	triclinic
loop_
_symmetry_equiv_pos_as_xyz
  x,y,z
_cell_length_a	29.839134
_cell_length_b	29.839131
_cell_length_c	29.839125
_cell_angle_alpha	89.982291
_cell_angle_beta	90.024313
_cell_angle_gamma	89.965835
loop_
_atom_site_label
_atom_site_type_symbol
_atom_site_fract_x
_atom_site_fract_y
_atom_site_fract_z
Zn1	Zn	0.686720	0.179003	0.254153
Zn2	Zn	1.186720	0.679003	0.754153
Zn3	Zn	0.686652	0.254115	0.179023
Zn4	Zn	1.186652	0.754115	0.679023
Zn5	Zn	0.611602	0.178991	0.179019
Zn6	Zn	1.111602	0.678991	0.679019
Zn7	Zn	0.611550	0.254097	0.254108
Zn8	Zn	1.111550	0.754097	0.754108
O9	O	0.649131	0.216552	0.216576
O10	O	1.149131	0.716552	0.716576
O11	O	0.749578	0.188980	0.244207
O12	O	1.249578	0.688980	0.744207
O13	O	0.676690	0.244152	0.116155
O14	O	1.176690	0.744152	0.616155
O15	O	0.621617	0.116125	0.189003
O16	O	1.121617	0.616125	0.689003
O17	O	0.749528	0.244164	0.189009
O18	O	1.249528	0.744164	0.689009
O19	O	0.676805	0.116134	0.244204
O20	O	1.176805	0.616134	0.744204
O21	O	0.621551	0.188958	0.116153
O22	O	1.121551	0.688958	0.616153
O23	O	0.548728	0.188941	0.188960
O24	O	1.048728	0.688941	0.688960
O25	O	0.621528	0.244134	0.316981
O26	O	1.121528	0.744134	0.816981
O27	O	0.548690	0.244122	0.244127
O28	O	1.048690	0.744122	0.744127
O29	O	0.676755	0.188962	0.317014
O30	O	1.176755	0.688962	0.817014
O31	O	0.676639	0.316980	0.188966
O32	O	1.176639	0.816980	0.688966
O33	O	0.621462	0.316967	0.244131
O34	O	1.121462	0.816967	0.744131
C35	C	0.532408	0.216528	0.216539
C36	C	1.032408	0.716528	0.716539
C37	C	0.482474	0.216529	0.216534
C38	C	0.982474	0.716529	0.716534
C39	C	0.125894	0.187777	0.187909
C40	C	0.625894	0.687777	0.687909
C41	C	0.313567	0.187764	0.187882
C42	C	0.813567	0.687764	0.687882
O43	O	0.337838	0.163279	0.163502
O44	O	0.837838	0.663279	0.663502
N45	N	0.337029	0.216536	0.216556
N46	N	0.837029	0.716536	0.716556
C47	C	0.313569	0.245312	0.245242
C48	C	0.813569	0.745312	0.745242
O49	O	0.337831	0.269781	0.269634
O50	O	0.837831	0.769781	0.769634
C51	C	0.125897	0.245322	0.245271
C52	C	0.625897	0.745322	0.745271
C53	C	0.102438	0.216551	0.216591
C54	C	0.602438	0.716551	0.716591
C55	C	0.102435	0.159007	0.159232
C56	C	0.602435	0.659007	0.659232
C57	C	0.055520	0.159013	0.159237
C58	C	0.555520	0.659013	0.659237
C59	C	0.032063	0.187787	0.187920
C60	C	0.532063	0.687787	0.687920
C61	C	0.055522	0.216556	0.216597
C62	C	0.555522	0.716556	0.716597
C63	C	0.102438	0.274095	0.273958
C64	C	0.602438	0.774095	0.773958
C65	C	0.055517	0.274094	0.273964
C66	C	0.555517	0.774094	0.773964
C67	C	0.032058	0.245323	0.245284
C68	C	0.532058	0.745323	0.745284
C69	C	-0.014849	0.245336	0.245284
C70	C	0.485151	0.745336	0.745284
N71	N	-0.038311	0.216563	0.216610
N72	N	0.461689	0.716563	0.716610
C73	C	-0.014854	0.187789	0.187927
C74	C	0.485146	0.687789	0.687927
C75	C	0.412100	0.245305	0.245224
C76	C	0.912100	0.745305	0.745224
C77	C	0.459018	0.245303	0.245216
C78	C	0.959018	0.745303	0.745216
C79	C	0.459013	0.187755	0.187856
C80	C	0.959013	0.687755	0.687856
C81	C	0.412094	0.187759	0.187862
C82	C	0.912094	0.687759	0.687862
C83	C	0.388638	0.216533	0.216549
C84	C	0.888638	0.716533	0.716549
C85	C	-0.113380	0.187802	0.187941
C86	C	0.386620	0.687802	0.687941
C87	C	-0.160300	0.187811	0.187947
C88	C	0.339700	0.687811	0.687947
C89	C	-0.160291	0.245358	0.245308
C90	C	0.339709	0.745358	0.745308
C91	C	-0.113375	0.245351	0.245300
C92	C	0.386625	0.745351	0.745300
C93	C	-0.089921	0.216569	0.216615
C94	C	0.410079	0.716569	0.716615
O95	O	-0.039149	0.269804	0.269654
O96	O	0.460851	0.769804	0.769654
O97	O	-0.039124	0.163316	0.163546
O98	O	0.460876	0.663316	0.663546
C99	C	0.172810	0.187771	0.187904
C100	C	0.672810	0.687771	0.687904
C101	C	0.196269	0.216541	0.216580
C102	C	0.696269	0.716541	0.716580
C103	C	0.172812	0.245315	0.245263
C104	C	0.672812	0.745315	0.745263
C105	C	0.243187	0.216539	0.216573
C106	C	0.743187	0.716539	0.716573
C107	C	0.266643	0.187764	0.187890
C108	C	0.766643	0.687764	0.687890
C109	C	0.243182	0.158992	0.159216
C110	C	0.743182	0.658992	0.659216
C111	C	0.196266	0.158997	0.159221
C112	C	0.696266	0.658997	0.659221
C113	C	0.196274	0.274087	0.273937
C114	C	0.696274	0.774087	0.773937
C115	C	0.243189	0.274080	0.273929
C116	C	0.743189	0.774080	0.773929
C117	C	0.266646	0.245306	0.245247
C118	C	0.766646	0.745306	0.745247
C119	C	0.649050	0.333274	0.216554
C120	C	1.149050	0.833274	0.716554
C121	C	0.649056	0.383209	0.216559
C122	C	1.149056	0.883209	0.716559
C123	C	0.649143	0.216548	0.333754
C124	C	1.149143	0.716548	0.833754
C125	C	0.649148	0.216546	0.383689
C126	C	1.149148	0.716546	0.883689
C127	C	0.766309	0.216575	0.216613
C128	C	1.266309	0.716575	0.716613
C129	C	0.816244	0.216586	0.216629
C130	C	1.316244	0.716586	0.716629
C131	C	0.649225	0.099373	0.216608
C132	C	1.149225	0.599373	0.716608
C133	C	0.649265	0.049439	0.216622
C134	C	1.149265	0.549439	0.716622
C135	C	0.677914	0.692846	0.187894
C136	C	1.177914	1.192846	0.687894
C137	C	0.677969	0.880519	0.187911
C138	C	1.177969	1.380519	0.687911
O139	O	0.702441	0.904779	0.163521
O140	O	1.202441	1.404779	0.663521
N141	N	0.649224	0.903994	0.216610
N142	N	1.149224	1.403994	0.716610
C143	C	0.620465	0.880547	0.245308
C144	C	1.120465	1.380547	0.745308
O145	O	0.596020	0.904820	0.269722
O146	O	1.096020	1.404820	0.769722
C147	C	0.620412	0.692875	0.245293
C148	C	1.120412	1.192875	0.745293
C149	C	0.649156	0.669403	0.216589
C150	C	1.149156	1.169403	0.716589
C151	C	0.706656	0.669374	0.159192
C152	C	1.206656	1.169374	0.659192
C153	C	0.706640	0.622459	0.159187
C154	C	1.206640	1.122459	0.659187
C155	C	0.677882	0.599015	0.187882
C156	C	1.177882	1.099015	0.687882
C157	C	0.649140	0.622487	0.216583
C158	C	1.149140	1.122487	0.716583
C159	C	0.591656	0.669429	0.273993
C160	C	1.091656	1.169429	0.773993
C161	C	0.591646	0.622508	0.273988
C162	C	1.091646	1.122508	0.773988
C163	C	0.620390	0.599036	0.245284
C164	C	1.120390	1.099036	0.745284
C165	C	0.620367	0.552128	0.245273
C166	C	1.120367	1.052128	0.745273
N167	N	0.649112	0.528654	0.216574
N168	N	1.149112	1.028654	0.716574
C169	C	0.677869	0.552097	0.187879
C170	C	1.177869	1.052097	0.687879
C171	C	0.620494	0.979078	0.245314
C172	C	1.120494	1.479078	0.745314
C173	C	0.620507	1.025995	0.245317
C174	C	1.120507	1.525995	0.745317
C175	C	0.678012	1.025964	0.187920
C176	C	1.178012	1.525964	0.687920
C177	C	0.677996	0.979046	0.187915
C178	C	1.177996	1.479046	0.687915
C179	C	0.649239	0.955603	0.216615
C180	C	1.149239	1.455603	0.716615
C181	C	0.677834	0.453572	0.187868
C182	C	1.177834	0.953572	0.687868
C183	C	0.677814	0.406652	0.187864
C184	C	1.177814	0.906652	0.687864
C185	C	0.620311	0.406687	0.245262
C186	C	1.120311	0.906687	0.745262
C187	C	0.620329	0.453603	0.245265
C188	C	1.120329	0.953603	0.745265
C189	C	0.649094	0.477044	0.216567
C190	C	1.149094	0.977044	0.716567
O191	O	0.595912	0.527840	0.269653
O192	O	1.095912	1.027840	0.769653
O193	O	0.702318	0.527817	0.163475
O194	O	1.202318	1.027817	0.663475
C195	C	0.677930	0.739762	0.187899
C196	C	1.177930	1.239762	0.687899
C197	C	0.649188	0.763234	0.216601
C198	C	1.149188	1.263234	0.716601
C199	C	0.620430	0.739790	0.245296
C200	C	1.120430	1.239790	0.745296
C201	C	0.649200	0.810152	0.216604
C202	C	1.149200	1.310152	0.716604
C203	C	0.677958	0.833595	0.187909
C204	C	1.177958	1.333595	0.687909
C205	C	0.706703	0.810120	0.159210
C206	C	1.206703	1.310120	0.659210
C207	C	0.706687	0.763205	0.159204
C208	C	1.206687	1.263205	0.659204
C209	C	0.591685	0.763265	0.273995
C210	C	1.091685	1.263265	0.773995
C211	C	0.591703	0.810180	0.273998
C212	C	1.091703	1.310180	0.773998
C213	C	0.620461	0.833624	0.245302
C214	C	1.120461	1.333624	0.745302
C215	C	0.649145	0.216523	0.099853
C216	C	1.149145	0.716523	0.599853
C217	C	0.649227	0.216398	0.049919
C218	C	1.149227	0.716398	0.549919
C219	C	0.677935	0.187743	0.693352
C220	C	1.177935	0.687743	1.193352
C221	C	0.677957	0.187705	0.881026
C222	C	1.177957	0.687705	1.381026
O223	O	0.702399	0.163258	0.905307
O224	O	1.202399	0.663258	1.405307
N225	N	0.649208	0.216426	0.904474
N226	N	1.149208	0.716426	1.404474
C227	C	0.620449	0.245156	0.881001
C228	C	1.120449	0.745156	1.381001
O229	O	0.595993	0.269581	0.905252
O230	O	1.095993	0.769581	1.405252
C231	C	0.620424	0.245192	0.693329
C232	C	1.120424	0.745192	1.193329
C233	C	0.649179	0.216472	0.669883
C234	C	1.149179	0.716472	1.169883
C235	C	0.706687	0.159025	0.669906
C236	C	1.206687	0.659025	1.169906
C237	C	0.706683	0.159037	0.622991
C238	C	1.206683	0.659037	1.122991
C239	C	0.677927	0.187766	0.599521
C240	C	1.177927	0.687766	1.099521
C241	C	0.649175	0.216484	0.622968
C242	C	1.149175	0.716484	1.122968
C243	C	0.591663	0.273920	0.669857
C244	C	1.091663	0.773920	1.169857
C245	C	0.591659	0.273925	0.622936
C246	C	1.091659	0.773925	1.122936
C247	C	0.620414	0.245206	0.599490
C248	C	1.120414	0.745206	1.099490
C249	C	0.620415	0.245225	0.552583
C250	C	1.120415	0.745225	1.052583
N251	N	0.649164	0.216504	0.529134
N252	N	1.149164	0.716504	1.029134
C253	C	0.677920	0.187774	0.552604
C254	C	1.177920	0.687774	1.052604
C255	C	0.620464	0.245136	0.979532
C256	C	1.120464	0.745136	1.479532
C257	C	0.620471	0.245128	1.026450
C258	C	1.120471	0.745128	1.526450
C259	C	0.677979	0.187675	1.026471
C260	C	1.177979	0.687675	1.526471
C261	C	0.677974	0.187686	0.979552
C262	C	1.177974	0.687686	1.479552
C263	C	0.649214	0.216415	0.956084
C264	C	1.149214	0.716415	1.456084
C265	C	0.677910	0.187801	0.454078
C266	C	1.177910	0.687801	0.954078
C267	C	0.677904	0.187817	0.407158
C268	C	1.177904	0.687817	0.907158
C269	C	0.620395	0.245267	0.407141
C270	C	1.120395	0.745267	0.907141
C271	C	0.620401	0.245253	0.454057
C272	C	1.120401	0.745253	0.954057
C273	C	0.649161	0.216517	0.477524
C274	C	1.149161	0.716517	0.977524
O275	O	0.595982	0.269655	0.528272
O276	O	1.095982	0.769655	1.028272
O277	O	0.702366	0.163346	0.528345
O278	O	1.202366	0.663346	1.028345
C279	C	0.677939	0.187731	0.740268
C280	C	1.177939	0.687731	1.240268
C281	C	0.649187	0.216449	0.763714
C282	C	1.149187	0.716449	1.263714
C283	C	0.620431	0.245178	0.740245
C284	C	1.120431	0.745178	1.240245
C285	C	0.649194	0.216441	0.810632
C286	C	1.149194	0.716441	1.310632
C287	C	0.677950	0.187711	0.834101
C288	C	1.177950	0.687711	1.334101
C289	C	0.706699	0.158990	0.810653
C290	C	1.206699	0.658990	1.310653
C291	C	0.706695	0.159002	0.763737
C292	C	1.206695	0.659002	1.263737
C293	C	0.591682	0.273899	0.763693
C294	C	1.091682	0.773899	1.263693
C295	C	0.591689	0.273886	0.810609
C296	C	1.091689	0.773886	1.310609
C297	C	0.620445	0.245156	0.834078
C298	C	1.120445	0.745156	1.334078
H299	H	0.262286	0.297513	0.297283
H300	H	0.762286	0.797513	0.797283
H301	H	0.568265	0.297295	0.744589
H302	H	1.068265	0.797295	1.244589
H303	H	0.121528	0.135573	0.135875
H304	H	0.621528	0.635573	0.635875
H305	H	0.701258	0.472652	0.164500
H306	H	1.201258	0.972652	0.664500
Br307	Br	-0.192134	0.148763	0.149021
Br308	Br	0.307866	0.648763	0.649021
H309	H	0.730093	0.744097	0.135831
H310	H	1.230093	1.244097	0.635831
Br311	Br	0.745658	0.590611	0.120236
Br312	Br	1.245658	1.090611	0.620236
Br313	Br	0.581463	0.947269	0.284268
Br314	Br	1.081463	1.447269	0.784268
Br315	Br	0.717005	0.148686	1.058331
Br316	Br	1.217005	0.648686	1.558331
Br317	Br	0.581489	1.057844	0.284267
Br318	Br	1.081489	1.557844	0.784267
Br319	Br	0.552618	0.590696	0.312942
Br320	Br	1.052618	1.090696	0.812942
Br321	Br	0.745722	0.120024	0.731925
Br322	Br	1.245722	0.620024	1.231925
Br323	Br	0.275025	0.119943	0.120288
Br324	Br	0.775025	0.619943	0.620288
H325	H	0.701388	0.164300	0.960465
H326	H	1.201388	0.664300	1.460465
H327	H	0.597044	0.268533	0.960428
H328	H	1.097044	0.768533	1.460428
Br329	Br	0.490849	0.284359	0.284132
Br330	Br	0.990849	0.784359	0.784132
H331	H	0.596895	0.387592	0.268624
H332	H	1.096895	0.887592	0.768624
Br333	Br	-0.081557	0.148741	0.149010
Br334	Br	0.418443	0.648741	0.649010
Br335	Br	0.552665	0.312870	0.842423
Br336	Br	1.052665	0.812870	1.342423
Br337	Br	0.164448	0.313142	0.312867
Br338	Br	0.664448	0.813142	0.812867
H339	H	0.568248	0.297306	0.688939
H340	H	1.068248	0.797306	1.188939
Br341	Br	0.745690	0.701181	0.120244
Br342	Br	1.245690	1.201181	0.620244
H343	H	0.121530	0.297524	0.297312
H344	H	0.621530	0.797524	0.797312
Br345	Br	0.717038	1.057789	0.148975
Br346	Br	1.217038	1.557789	0.648975
Br347	Br	0.581453	0.284114	1.058264
Br348	Br	1.081453	0.784114	1.558264
Br349	Br	0.552623	0.312915	0.591089
Br350	Br	1.052623	0.812915	1.091089
Br351	Br	0.717007	0.947196	0.148958
Br352	Br	1.217007	1.447196	0.648958
Br353	Br	0.023690	0.119959	0.120318
Br354	Br	0.523690	0.619959	0.620318
H355	H	0.392997	0.164329	0.164510
H356	H	0.892997	0.664329	0.664510
H357	H	0.568248	0.688532	0.297365
H358	H	1.068248	1.188532	0.797365
H359	H	0.730115	0.135600	0.829770
H360	H	1.230115	0.635600	1.329770
H361	H	0.036422	0.297524	0.297326
H362	H	0.536422	0.797524	0.797326
H363	H	0.478119	0.164326	0.164502
H364	H	0.978119	0.664326	0.664502
H365	H	0.393007	0.268738	0.268585
H366	H	0.893007	0.768738	0.768585
Br367	Br	0.745729	0.841946	0.120264
Br368	Br	1.245729	1.341946	0.620264
H369	H	0.701220	0.387543	0.164488
H370	H	1.201220	0.887543	0.664488
Br371	Br	0.581308	0.485459	0.284210
Br372	Br	1.081308	0.985459	0.784210
Br373	Br	0.552688	0.842029	0.312956
Br374	Br	1.052688	1.342029	0.812956
H375	H	-0.094274	0.268782	0.268650
H376	H	0.405726	0.768782	0.768650
Br377	Br	0.552654	0.731456	0.312944
Br378	Br	1.052654	1.231456	0.812944
Br379	Br	0.164436	0.119948	0.120297
Br380	Br	0.664436	0.619948	0.620297
Br381	Br	0.716933	0.148839	0.375341
Br382	Br	1.216933	0.648839	0.875341
Br383	Br	0.716937	0.148798	0.485919
Br384	Br	1.216937	0.648798	0.985919
H385	H	-0.179397	0.268787	0.268659
H386	H	0.320603	0.768787	0.768659
Br387	Br	0.581381	0.284233	0.485878
Br388	Br	1.081381	0.784233	0.985878
H389	H	0.730097	0.135650	0.603905
H390	H	1.230097	0.635650	1.103905
Br391	Br	0.581370	0.284254	0.375281
Br392	Br	1.081370	0.784254	0.875281
H393	H	0.730104	0.135628	0.689010
H394	H	1.230104	0.635628	1.189010
