data_functionalizedCrystal
_audit_creation_method	'MofGen! by Chris Wilmer'
_symmetry_space_group_name_H-M	'P1'
_symmetry_Int_Tables_number	1
_symmetry_cell_setting	triclinic
loop_
_symmetry_equiv_pos_as_xyz
  x,y,z
_cell_length_a	13.897449
_cell_length_b	25.639239
_cell_length_c	13.897441
_cell_angle_alpha	90.033334
_cell_angle_beta	90.018596
_cell_angle_gamma	90.039966
loop_
_atom_site_label
_atom_site_type_symbol
_atom_site_fract_x
_atom_site_fract_y
_atom_site_fract_z
Zn1	Zn	1.474542	-0.208121	0.545356
Zn2	Zn	1.807875	0.125212	0.878690
Zn3	Zn	2.141208	0.458545	1.212023
Zn4	Zn	1.474382	-0.295562	0.384047
Zn5	Zn	1.807716	0.037771	0.717381
Zn6	Zn	2.141049	0.371104	1.050714
Zn7	Zn	1.313237	-0.208145	0.384075
Zn8	Zn	1.646570	0.125189	0.717408
Zn9	Zn	1.979903	0.458522	1.050741
Zn10	Zn	1.313153	-0.295529	0.545300
Zn11	Zn	1.646487	0.037804	0.878633
Zn12	Zn	1.979820	0.371137	1.211967
O13	O	1.393829	-0.251839	0.464694
O14	O	1.727162	0.081494	0.798028
O15	O	2.060495	0.414827	1.131361
O16	O	1.609502	-0.219725	0.523970
O17	O	1.942835	0.113609	0.857304
O18	O	2.276169	0.446942	1.190637
O19	O	1.452974	-0.283990	0.249069
O20	O	1.786308	0.049344	0.582402
O21	O	2.119641	0.382677	0.915736
O22	O	1.334736	-0.134976	0.405504
O23	O	1.668069	0.198357	0.738837
O24	O	2.001402	0.531690	1.072171
O25	O	1.609385	-0.283967	0.405457
O26	O	1.942719	0.049366	0.738791
O27	O	2.276052	0.382700	1.072124
O28	O	1.453246	-0.134959	0.523997
O29	O	1.786579	0.198374	0.857330
O30	O	2.119912	0.531707	1.190664
O31	O	1.334581	-0.219764	0.249089
O32	O	1.667915	0.113569	0.582423
O33	O	2.001248	0.446902	0.915756
O34	O	1.178244	-0.219733	0.405449
O35	O	1.511577	0.113601	0.738783
O36	O	1.844911	0.446934	1.072116
O37	O	1.334594	-0.283911	0.680289
O38	O	1.667927	0.049422	1.013622
O39	O	2.001260	0.382756	1.346956
O40	O	1.178183	-0.283934	0.523901
O41	O	1.511516	0.049400	0.857234
O42	O	1.844849	0.382733	1.190567
O43	O	1.453165	-0.219693	0.680331
O44	O	1.786498	0.113641	1.013664
O45	O	2.119831	0.446974	1.346997
O46	O	1.452894	-0.368723	0.405403
O47	O	1.786227	-0.035390	0.738736
O48	O	2.119560	0.297943	1.072069
O49	O	1.334439	-0.368699	0.523874
O50	O	1.667773	-0.035366	0.857208
O51	O	2.001106	0.297968	1.190541
C52	C	1.143214	-0.251832	0.464673
C53	C	1.476548	0.081501	0.798006
C54	C	1.809881	0.414834	1.131339
C55	C	1.036000	-0.251842	0.464686
C56	C	1.369334	0.081491	0.798019
C57	C	1.702667	0.414825	1.131353
C58	C	0.839705	-0.251844	0.464711
C59	C	1.173038	0.081489	0.798045
C60	C	1.506372	0.414823	1.131378
C61	C	0.948938	-0.251841	0.464695
C62	C	1.282271	0.081492	0.798028
C63	C	1.615604	0.414825	1.131361
C64	C	1.393666	-0.387682	0.464650
C65	C	1.727000	-0.054349	0.797984
C66	C	2.060333	0.278985	1.131317
C67	C	1.393685	-0.445796	0.464664
C68	C	1.727018	-0.112463	0.797997
C69	C	2.060352	0.220871	1.131330
C70	C	1.455669	-0.806159	0.403111
C71	C	1.789002	-0.472826	0.736445
C72	C	2.122335	-0.139492	1.069778
C73	C	1.455706	-0.860763	0.403124
C74	C	1.789039	-0.527430	0.736458
C75	C	2.122373	-0.194097	1.069791
O76	O	1.508238	-0.889000	0.350742
O77	O	1.841572	-0.555667	0.684075
O78	O	2.174905	-0.222333	1.017409
N79	N	1.393998	-0.888078	0.464758
N80	N	1.727331	-0.554745	0.798092
N81	N	2.060665	-0.221412	1.131425
C82	C	1.332256	-0.860786	0.526391
C83	C	1.665589	-0.527453	0.859724
C84	C	1.998922	-0.194120	1.193057
O85	O	1.279772	-0.889034	0.578817
O86	O	1.613106	-0.555701	0.912150
O87	O	1.946439	-0.222367	1.245484
C88	C	1.332224	-0.806183	0.526382
C89	C	1.665557	-0.472850	0.859715
C90	C	1.998890	-0.139516	1.193048
C91	C	1.393929	-0.778871	0.464737
C92	C	1.727262	-0.445538	0.798070
C93	C	2.060596	-0.112204	1.131403
C94	C	1.517369	-0.778847	0.341472
C95	C	1.850703	-0.445513	0.674806
C96	C	2.184036	-0.112180	1.008139
C97	C	1.517331	-0.724246	0.341458
C98	C	1.850664	-0.390913	0.674792
C99	C	2.183997	-0.057580	1.008125
C100	C	1.455591	-0.696958	0.403084
C101	C	1.788924	-0.363625	0.736417
C102	C	2.122258	-0.030291	1.069750
C103	C	1.393890	-0.724270	0.464723
C104	C	1.727223	-0.390937	0.798056
C105	C	2.060557	-0.057604	1.131389
C106	C	1.270487	-0.778892	0.588018
C107	C	1.603820	-0.445559	0.921351
C108	C	1.937154	-0.112225	1.254685
C109	C	1.270461	-0.724285	0.588004
C110	C	1.603794	-0.390952	0.921338
C111	C	1.937128	-0.057618	1.254671
C112	C	1.332166	-0.696973	0.526359
C113	C	1.665499	-0.363639	0.859693
C114	C	1.998833	-0.030306	1.193026
C115	C	1.332111	-0.642382	0.526334
C116	C	1.665445	-0.309048	0.859668
C117	C	1.998778	0.024285	1.193001
N118	N	1.393819	-0.615066	0.464700
N119	N	1.727153	-0.281733	0.798033
N120	N	2.060486	0.051600	1.131367
C121	C	1.455559	-0.642355	0.403075
C122	C	1.788892	-0.309021	0.736408
C123	C	2.122226	0.024312	1.069742
C124	C	1.332328	-0.975457	0.526405
C125	C	1.665662	-0.642124	0.859739
C126	C	1.998995	-0.308790	1.193072
C127	C	1.332354	-1.030059	0.526410
C128	C	1.665688	-0.696726	0.859743
C129	C	1.999021	-0.363393	1.193077
C130	C	1.455806	-1.030033	0.403145
C131	C	1.789140	-0.696699	0.736478
C132	C	2.122473	-0.363366	1.069812
C133	C	1.455775	-0.975429	0.403136
C134	C	1.789108	-0.642096	0.736469
C135	C	2.122441	-0.308763	1.069803
C136	C	1.394036	-0.948142	0.464771
C137	C	1.727370	-0.614809	0.798105
C138	C	2.060703	-0.281475	1.131438
C139	C	1.455472	-0.527690	0.403050
C140	C	1.788805	-0.194356	0.736383
C141	C	2.122139	0.138977	1.069716
C142	C	1.455425	-0.473084	0.403038
C143	C	1.788758	-0.139751	0.736372
C144	C	2.122092	0.193582	1.069705
C145	C	1.331977	-0.473116	0.526307
C146	C	1.665310	-0.139783	0.859640
C147	C	1.998644	0.193551	1.192973
C148	C	1.332020	-0.527716	0.526315
C149	C	1.665353	-0.194383	0.859648
C150	C	1.998687	0.138950	1.192981
C151	C	1.393776	-0.555002	0.464683
C152	C	1.727109	-0.221669	0.798016
C153	C	2.060442	0.111665	1.131350
O154	O	1.279609	-0.614110	0.578693
O155	O	1.612942	-0.280777	0.912026
O156	O	1.946275	0.052556	1.245359
O157	O	1.508043	-0.614100	0.350666
O158	O	1.841376	-0.280767	0.684000
O159	O	2.174709	0.052566	1.017333
C160	C	1.645421	-0.251847	0.464717
C161	C	1.978755	0.081486	0.798050
C162	C	2.312088	0.414820	1.131384
C163	C	1.752635	-0.251850	0.464727
C164	C	2.085969	0.081483	0.798060
C165	C	2.419302	0.414817	1.131393
C166	C	1.393888	-0.251796	0.716288
C167	C	1.727221	0.081538	1.049621
C168	C	2.060554	0.414871	1.382954
C169	C	1.393913	-0.251777	0.823502
C170	C	1.727246	0.081556	1.156835
C171	C	2.060579	0.414890	1.490168
C172	C	1.394018	-0.115466	0.464760
C173	C	1.727351	0.217867	0.798093
C174	C	2.060684	0.551200	1.131427
C175	C	1.394098	-0.057352	0.464788
C176	C	1.727432	0.275981	0.798121
C177	C	2.060765	0.609314	1.131455
C178	C	1.393825	-0.251845	0.214080
C179	C	1.727159	0.081488	0.547413
C180	C	2.060492	0.414821	0.880747
C181	C	1.393987	-0.251717	0.106867
C182	C	1.727320	0.081616	0.440200
C183	C	2.060654	0.414950	0.773533
C184	C	1.393933	-0.251762	0.910571
C185	C	1.727266	0.081571	1.243905
C186	C	2.060599	0.414905	1.577238
C187	C	1.393960	-0.251739	1.019804
C188	C	1.727294	0.081595	1.353137
C189	C	2.060627	0.414928	1.686471
H190	H	1.505672	-0.450848	0.352836
H191	H	1.839006	-0.117515	0.686170
H192	H	2.172339	0.215818	1.019503
H193	H	1.281778	-0.549955	0.576514
H194	H	1.615111	-0.216622	0.909848
H195	H	1.948444	0.116711	1.243181
N196	N	1.265382	-0.443678	0.592765
N197	N	1.598716	-0.110345	0.926099
N198	N	1.932049	0.222988	1.259432
H199	H	1.274729	-0.404944	0.583399
H200	H	1.608062	-0.071611	0.916732
H201	H	1.941395	0.261723	1.250066
H202	H	1.280363	-0.453185	0.661672
H203	H	1.613696	-0.119852	0.995005
H204	H	1.947030	0.213482	1.328339
H205	H	1.506021	-0.953195	0.352940
H206	H	1.839354	-0.619861	0.686273
H207	H	2.172687	-0.286528	1.019607
H208	H	1.505761	-0.549899	0.352865
H209	H	1.839095	-0.216566	0.686199
H210	H	2.172428	0.116768	1.019532
H211	H	1.567579	-0.702012	0.291265
H212	H	1.900912	-0.368678	0.624598
H213	H	2.234246	-0.035345	0.957931
N214	N	1.583967	-0.808274	0.275001
N215	N	1.917300	-0.474940	0.608334
N216	N	2.250634	-0.141607	0.941667
H217	H	1.623043	-0.782678	0.235958
H218	H	1.956376	-0.449345	0.569291
H219	H	2.289709	-0.116012	0.902624
H220	H	1.544743	-0.830965	0.230325
H221	H	1.878076	-0.497632	0.563659
H222	H	2.211409	-0.164298	0.896992
H223	H	1.506082	-1.052261	0.352969
H224	H	1.839415	-0.718927	0.686303
H225	H	2.172748	-0.385594	1.019636
N226	N	1.265784	-1.059510	0.592887
N227	N	1.599117	-0.726177	0.926220
N228	N	1.932451	-0.392843	1.259554
H229	H	1.280718	-1.049970	0.661817
H230	H	1.614051	-0.716636	0.995150
H231	H	1.947384	-0.383303	1.328483
H232	H	1.275195	-1.098234	0.583471
H233	H	1.608528	-0.764901	0.916805
H234	H	1.941861	-0.431567	1.250138
N235	N	1.265727	-0.946027	0.592879
N236	N	1.599060	-0.612694	0.926213
N237	N	1.932394	-0.279361	1.259546
H238	H	1.226643	-0.971621	0.631919
H239	H	1.559976	-0.638287	0.965253
H240	H	1.893310	-0.304954	1.298586
H241	H	1.221095	-0.923413	0.553571
H242	H	1.554428	-0.590079	0.886904
H243	H	1.887762	-0.256746	1.220237
N244	N	1.203927	-0.808336	0.654510
N245	N	1.537260	-0.475002	0.987844
N246	N	1.870593	-0.141669	1.321177
H247	H	1.218872	-0.798793	0.723436
H248	H	1.552205	-0.465459	1.056769
H249	H	1.885539	-0.132126	1.390103
H250	H	1.213330	-0.847060	0.645100
H251	H	1.546663	-0.513727	0.978433
H252	H	1.879996	-0.180394	1.311767
N253	N	1.203873	-0.694854	0.654486
N254	N	1.537206	-0.361521	0.987820
N255	N	1.870539	-0.028187	1.321153
H256	H	1.164792	-0.720445	0.693535
H257	H	1.498126	-0.387112	1.026868
H258	H	1.831459	-0.053779	1.360201
H259	H	1.159237	-0.672240	0.615181
H260	H	1.492570	-0.338906	0.948514
H261	H	1.825903	-0.005573	1.281848
