data_functionalizedCrystal
_audit_creation_method	'MofGen! by Chris Wilmer'
_symmetry_space_group_name_H-M	'P1'
_symmetry_Int_Tables_number	1
_symmetry_cell_setting	triclinic
loop_
_symmetry_equiv_pos_as_xyz
  x,y,z
_cell_length_a	15.455313
_cell_length_b	17.699083
_cell_length_c	17.699083
_cell_angle_alpha	83.283015
_cell_angle_beta	92.658725
_cell_angle_gamma	87.330194
loop_
_atom_site_label
_atom_site_type_symbol
_atom_site_fract_x
_atom_site_fract_y
_atom_site_fract_z
O1	O	0.072010	-1.007394	-0.092400
O2	O	0.072039	-0.787017	-0.104851
O3	O	0.072016	-0.903431	0.011563
O4	O	0.072033	-0.890979	-0.208814
O5	O	-0.072244	-0.896774	0.004933
O6	O	-0.072222	-0.780360	-0.111481
O7	O	-0.072250	-1.000737	-0.099030
Cu8	Cu	-0.085408	-0.889940	-0.105861
Cu9	Cu	0.085197	-0.897813	-0.098020
O10	O	-0.072228	-0.884322	-0.215444
C11	C	-0.000088	-0.755491	-0.107720
C12	C	-0.000077	-0.671474	-0.106381
N13	N	-0.205403	-0.884409	-0.111375
C14	C	-0.000114	-0.899656	0.036445
C15	C	-0.000114	-0.898318	0.120463
C16	C	-0.250806	-0.933883	-0.061936
C17	C	-0.341613	-0.929706	-0.066113
C18	C	-0.387015	-0.876059	-0.119733
C19	C	-0.341605	-0.826580	-0.169174
C20	C	-0.250800	-0.830753	-0.164993
C21	C	-0.658593	-0.858045	-0.137760
C22	C	-0.749405	-0.853877	-0.141939
C23	C	-0.749407	-0.957003	-0.038877
C24	C	-0.658600	-0.961175	-0.034703
C25	C	-0.613198	-0.911693	-0.084142
N26	N	-0.479835	-0.871790	-0.124005
N27	N	-0.520380	-0.915958	-0.079865
N28	N	0.205191	-0.903351	-0.092500
C29	C	-0.000122	-1.032262	-0.096161
C30	C	-0.000127	-1.116280	-0.097500
C31	C	-0.000072	-0.622853	-0.174714
C32	C	-0.000083	-0.543909	-0.173452
C33	C	-0.000093	-0.513588	-0.103856
C34	C	-0.000101	-0.562215	-0.035518
C35	C	-0.000096	-0.641157	-0.036781
C36	C	-0.000123	-0.243851	-0.030423
C37	C	-0.000125	-0.164903	-0.029166
C38	C	-0.000110	-0.146603	-0.167095
C39	C	-0.000105	-0.225545	-0.168358
C40	C	-0.000117	-0.274165	-0.100020
C41	C	-0.000107	-0.359764	-0.101389
C42	C	-0.000098	-0.427990	-0.102486
C43	C	-0.000095	-0.888097	-0.240326
C44	C	-0.000089	-0.889436	-0.324344
C45	C	-0.000124	-0.966651	0.169084
C46	C	-0.000117	-0.965389	0.248028
C47	C	-0.000105	-0.895793	0.278349
C48	C	-0.000092	-0.827455	0.229722
C49	C	-0.000094	-0.828718	0.150780
C50	C	-0.000084	-0.822360	0.548086
C51	C	-0.000085	-0.821102	0.627034
C52	C	-0.000107	-0.959031	0.645333
C53	C	-0.000109	-0.960294	0.566391
C54	C	-0.000092	-0.891956	0.517772
C55	C	-0.000098	-0.893326	0.432172
C56	C	-0.000104	-0.894423	0.363947
H57	H	-0.213846	-0.977571	-0.018276
Br58	Br	-0.000049	-0.663995	-0.269170
H59	H	-0.000139	-1.023324	0.144403
Br60	Br	-0.000124	-1.054749	0.525245
Br61	Br	-0.000110	-0.707143	0.055961
Br62	Br	-0.189180	-0.763601	-0.232087
Br63	Br	-0.000137	-0.123753	0.065293
Br64	Br	-0.403236	-0.996848	0.000986
Br65	Br	-0.000130	-1.058131	0.314011
H66	H	-0.621636	-1.004859	0.008958
H67	H	-0.000117	-1.014675	0.684929
H68	H	-0.000078	-0.764425	0.651717
Br69	Br	-0.403218	-0.753765	-0.241940
Br70	Br	-0.000055	-0.729616	0.482112
H71	H	-0.621634	-0.817756	-0.178016
Br72	Br	-0.000062	-0.733002	0.270872
Br73	Br	-0.000074	-0.477926	-0.266194
H74	H	-0.000085	-0.773074	0.111194
Br75	Br	-0.811027	-1.024152	0.028216
H76	H	-0.786367	-0.810188	-0.185606
Br77	Br	-0.000083	-0.266692	-0.262812
H78	H	-0.000105	-0.107007	-0.222739
H79	H	-0.000122	-0.537520	0.021148
Br80	Br	-0.000142	-0.309825	0.062321
