data_functionalizedCrystal
_audit_creation_method	'MofGen! by Chris Wilmer'
_symmetry_space_group_name_H-M	'P1'
_symmetry_Int_Tables_number	1
_symmetry_cell_setting	triclinic
loop_
_symmetry_equiv_pos_as_xyz
  x,y,z
_cell_length_a	9.130313
_cell_length_b	10.654543
_cell_length_c	10.654550
_cell_angle_alpha	95.516449
_cell_angle_beta	89.998405
_cell_angle_gamma	89.998857
loop_
_atom_site_label
_atom_site_type_symbol
_atom_site_fract_x
_atom_site_fract_y
_atom_site_fract_z
O1	O	-0.121631	-1.667844	0.176358
O2	O	-0.121668	-1.302365	0.193173
O3	O	-0.121650	-1.493508	0.002026
O4	O	-0.121649	-1.476702	0.367505
O5	O	0.121949	-1.493494	0.002021
O6	O	0.121931	-1.302352	0.193168
O7	O	0.121967	-1.667831	0.176353
Cu8	Cu	0.144192	-1.485090	0.184760
Cu9	Cu	-0.143892	-1.485106	0.184766
O10	O	0.121949	-1.476688	0.367500
C11	C	0.000127	-1.255560	0.191938
C12	C	0.000112	-1.116116	0.188249
N13	N	0.346814	-1.485088	0.184754
N14	N	-0.346515	-1.485117	0.184762
C15	C	0.000146	-1.492267	-0.044774
C16	C	0.000135	-1.488575	-0.184217
C17	C	0.423474	-1.569755	0.100150
C18	C	0.576811	-1.569767	0.100151
C19	C	0.576815	-1.400442	0.269370
C20	C	0.423481	-1.400424	0.269363
C21	C	0.000115	-1.036631	0.300793
C22	C	0.000136	-0.905609	0.297319
C23	C	0.000148	-0.933573	0.068749
C24	C	0.000136	-1.064591	0.072224
C25	C	0.000162	-0.714635	0.177595
C26	C	0.000145	-0.854077	0.181301
C27	C	-0.132640	-1.483366	-0.380755
C28	C	-0.132648	-1.486847	-0.249735
C29	C	0.132937	-1.486834	-0.249729
C30	C	0.132944	-1.483361	-0.380748
C31	C	0.000150	-1.477929	0.414300
C32	C	0.000151	-1.481621	0.553744
H33	H	0.361056	-1.638692	0.031256
H34	H	0.241051	-1.488249	-0.196375
F35	F	0.274286	-1.481511	-0.450464
H36	H	0.000176	-0.891604	-0.025715
F37	F	0.658418	-1.310343	0.359415
F38	F	-0.273969	-1.481518	-0.450470
F39	F	-0.273983	-1.488708	-0.180029
H40	H	0.361060	-1.331472	0.338258
F41	F	0.658393	-1.659878	0.010102
H42	H	0.000141	-0.840896	0.388964
F43	F	0.000095	-1.091463	0.424277
H44	H	0.000139	-1.129313	-0.019428
