data_functionalizedCrystal
_audit_creation_method	'MofGen! by Chris Wilmer'
_symmetry_space_group_name_H-M	'P1'
_symmetry_Int_Tables_number	1
_symmetry_cell_setting	triclinic
loop_
_symmetry_equiv_pos_as_xyz
  x,y,z
_cell_length_a	15.297475
_cell_length_b	15.297327
_cell_length_c	11.169409
_cell_angle_alpha	80.360209
_cell_angle_beta	99.689503
_cell_angle_gamma	91.625546
loop_
_atom_site_label
_atom_site_type_symbol
_atom_site_fract_x
_atom_site_fract_y
_atom_site_fract_z
Zn1	Zn	1.278746	-0.580686	1.106120
Zn2	Zn	1.253272	-0.727163	0.933271
Zn3	Zn	1.132254	-0.555352	0.865945
Zn4	Zn	1.106888	-0.701720	1.094407
O5	O	1.192790	-0.641230	0.999936
O6	O	1.397936	-0.621367	1.116269
O7	O	1.237174	-0.704418	0.756391
O8	O	1.172963	-0.436156	0.874531
O9	O	1.379221	-0.728983	0.989278
O10	O	1.280590	-0.454768	1.050986
O11	O	1.148262	-0.578189	0.706927
O12	O	1.006319	-0.553517	0.863173
O13	O	1.129730	-0.685618	1.263910
O14	O	0.987683	-0.661053	1.031023
O15	O	1.255994	-0.596695	1.272516
O16	O	1.212577	-0.846345	0.977920
O17	O	1.105029	-0.827652	1.096306
C18	C	0.965220	-0.601776	0.938522
C19	C	0.867861	-0.584918	0.912281
C20	C	0.554646	-0.761721	1.187486
C21	C	0.646119	-0.777566	1.212138
C22	C	0.701559	-0.729405	1.137177
C23	C	0.665517	-0.665397	1.037558
C24	C	0.574035	-0.649555	1.012897
C25	C	0.720947	-0.617240	0.962588
C26	C	0.684906	-0.553231	0.862969
C27	C	0.593432	-0.537392	0.838313
C28	C	0.537992	-0.585553	0.913275
C29	C	0.812430	-0.633081	0.987248
C30	C	0.831818	-0.520916	0.812659
C31	C	0.740346	-0.505071	0.788007
C32	C	1.153310	-0.868780	1.043180
C33	C	1.136501	-0.966141	1.061742
C34	C	1.313290	-1.279423	0.867777
C35	C	1.329083	-1.187948	0.850331
C36	C	1.280939	-1.132492	0.903183
C37	C	1.216999	-1.168520	0.973483
C38	C	1.201200	-1.260003	0.990923
C39	C	1.168849	-1.113072	1.026328
C40	C	1.104909	-1.149100	1.096628
C41	C	1.089113	-1.240574	1.114066
C42	C	1.137257	-1.296031	1.061214
C43	C	1.184648	-1.021588	1.008888
C44	C	1.072558	-1.002168	1.132034
C45	C	1.056765	-1.093644	1.149480
C46	C	1.421248	-0.680839	1.061590
C47	C	1.518604	-0.697718	1.087864
C48	C	1.192874	-0.641145	1.312978
C49	C	1.192910	-0.641108	1.446378
C50	C	1.232447	-0.412796	0.956555
C51	C	1.249347	-0.315451	0.938069
C52	C	1.192767	-0.641261	0.688113
C53	C	1.192944	-0.641080	0.554713
H54	H	0.463507	-0.572653	0.893210
H55	H	1.037039	-1.269903	1.171292
C56	C	1.254982	-0.981969	0.931561
N57	N	1.307962	-0.952129	0.873316
C58	C	0.685757	-0.847974	1.321714
N59	N	0.715613	-0.901010	1.404252
C60	C	1.399400	-1.148322	0.772979
N61	N	1.452361	-1.118474	0.714705
H62	H	1.124404	-1.370519	1.075419
C63	C	0.802178	-0.746852	1.164281
N64	N	0.877968	-0.760000	1.184696
C65	C	0.493657	-0.814692	1.269928
N66	N	0.447718	-0.854595	1.332029
C67	C	1.366231	-1.340428	0.809634
N68	N	1.406107	-1.386378	0.765833
H69	H	1.293801	-1.058009	0.888972
H70	H	1.004704	-1.122991	1.206719
H71	H	0.876958	-0.481701	0.751617
H72	H	0.564089	-0.485281	0.757186
H73	H	1.033353	-0.957016	1.175068
C74	C	0.700687	-0.434667	0.678424
N75	N	0.670815	-0.381639	0.595886
H76	H	0.841765	-0.685197	1.068360
