data_functionalizedCrystal
_audit_creation_method	'MofGen! by Chris Wilmer'
_symmetry_space_group_name_H-M	'P1'
_symmetry_Int_Tables_number	1
_symmetry_cell_setting	triclinic
loop_
_symmetry_equiv_pos_as_xyz
  x,y,z
_cell_length_a	17.038272
_cell_length_b	17.019372
_cell_length_c	16.098687
_cell_angle_alpha	96.590091
_cell_angle_beta	87.071094
_cell_angle_gamma	87.242864
loop_
_atom_site_label
_atom_site_type_symbol
_atom_site_fract_x
_atom_site_fract_y
_atom_site_fract_z
O1	O	0.099258	1.053645	0.006242
O2	O	0.112796	0.824054	-0.010211
O3	O	-0.007783	0.937485	-0.002075
O4	O	0.219836	0.940214	-0.001893
O5	O	-0.014802	0.944075	0.136907
O6	O	0.105776	0.830644	0.128772
O7	O	0.092239	1.060235	0.145225
Zn8	Zn	0.097893	0.946486	0.159065
Zn9	Zn	0.107141	0.937803	-0.024051
O10	O	0.212817	0.946804	0.137090
C11	C	0.108912	0.797828	0.057165
C12	C	0.107788	0.709862	0.050861
C13	C	0.101600	0.212167	0.011353
C14	C	0.102656	0.294820	0.017287
C15	C	0.099363	0.339731	0.096014
C16	C	0.095006	0.301985	0.168812
C17	C	0.093945	0.219334	0.162877
C18	C	0.102370	0.589465	0.117724
C19	C	0.103434	0.672122	0.123654
C20	C	0.111082	0.664951	-0.027872
C21	C	0.110025	0.582298	-0.033800
C22	C	0.105665	0.544560	0.038998
C23	C	0.100444	0.424216	0.102082
C24	C	0.104578	0.460077	0.032929
C25	C	-0.040410	0.938298	0.067238
C26	C	-0.127169	0.930893	0.066707
C27	C	-0.177589	0.998883	0.071580
C28	C	-0.259108	0.991920	0.071073
C29	C	-0.290205	0.916966	0.065699
C30	C	-0.239779	0.848970	0.060823
C31	C	-0.158261	0.855934	0.061324
C32	C	-0.535852	0.892364	0.063925
C33	C	-0.617376	0.885405	0.063427
C34	C	-0.636700	1.028356	0.073675
C35	C	-0.555180	1.035314	0.074181
C36	C	-0.504760	0.967318	0.069300
C37	C	-0.373531	0.909846	0.065183
C38	C	-0.421436	0.974437	0.069810
C39	C	0.245444	0.945991	0.067774
C40	C	0.332204	0.953396	0.068300
C41	C	0.096122	1.086461	0.077847
C42	C	0.097247	1.174426	0.084145
N43	N	0.091580	0.952418	0.284037
N44	N	0.113447	0.931877	-0.149022
C45	C	0.062288	0.980033	0.810825
C46	C	0.066714	0.975866	0.723339
C47	C	0.122296	0.923538	0.676007
C48	C	0.173460	0.875380	0.716166
C49	C	0.169038	0.879552	0.803651
C50	C	0.138322	0.908432	0.411680
C51	C	0.142740	0.904262	0.324190
C52	C	0.035994	1.004749	0.331369
C53	C	0.031573	1.008913	0.418854
C54	C	0.082740	0.960758	0.459006
C55	C	0.126819	0.919275	0.586582
C56	C	0.078220	0.965025	0.548430
H57	H	0.097765	0.460791	0.166182
H58	H	0.107256	0.423507	-0.031170
H59	H	0.090408	0.188606	0.222153
Br60	Br	-0.033442	1.070100	0.276874
Br61	Br	-0.281981	0.747244	0.053515
Br62	Br	0.238476	0.814200	0.858144
Br63	Br	-0.135395	1.100613	0.078886
Br64	Br	0.108558	0.346038	-0.081507
Br65	Br	0.090533	0.362934	0.275658
Br66	Br	0.218175	0.833235	0.259958
Br67	Br	0.002794	1.036044	0.612666
H68	H	0.218720	0.832777	0.677624
Br69	Br	0.098967	0.733072	0.230505
H70	H	0.172074	0.876667	0.548037
H71	H	0.104287	0.175606	-0.052755
H72	H	0.179983	0.869221	0.444365
H73	H	-0.529867	1.096349	0.078557
Br74	Br	0.116995	0.716173	-0.126663
Br75	Br	0.114498	0.521353	-0.140648
Br76	Br	-0.089832	0.763657	0.054703
Br77	Br	-0.327533	1.084198	0.077687
Br78	Br	-0.415741	0.808125	0.057882
H79	H	-0.677760	1.083714	0.077647
Br80	Br	-0.013153	1.051047	0.875051
H81	H	0.098808	0.558749	0.177002
Br82	Br	-0.659579	0.783675	0.056141
H83	H	-0.494810	0.836996	0.059951
Br84	Br	-0.043862	1.079926	0.483092
H85	H	-0.396112	1.035464	0.074167
H86	H	0.025057	1.015079	0.690647
