data_functionalizedCrystal
_audit_creation_method	'MofGen! by Chris Wilmer'
_symmetry_space_group_name_H-M	'P1'
_symmetry_Int_Tables_number	1
_symmetry_cell_setting	triclinic
loop_
_symmetry_equiv_pos_as_xyz
  x,y,z
_cell_length_a	12.759401
_cell_length_b	12.759400
_cell_length_c	12.759393
_cell_angle_alpha	89.969553
_cell_angle_beta	89.980387
_cell_angle_gamma	90.013397
loop_
_atom_site_label
_atom_site_type_symbol
_atom_site_fract_x
_atom_site_fract_y
_atom_site_fract_z
Zn1	Zn	1.606267	-0.418198	-0.594021
Zn2	Zn	1.606166	-0.593917	-0.418344
Zn3	Zn	1.430569	-0.418253	-0.418357
Zn4	Zn	1.430562	-0.593836	-0.593982
O5	O	1.518391	-0.506051	-0.506176
O6	O	1.753274	-0.441518	-0.570728
O7	O	1.582833	-0.570671	-0.271325
O8	O	1.453920	-0.271225	-0.441680
O9	O	1.753200	-0.570618	-0.441659
O10	O	1.583005	-0.271184	-0.570740
O11	O	1.453822	-0.441612	-0.271334
O12	O	1.283547	-0.441534	-0.441643
O13	O	1.453909	-0.570480	-0.741009
O14	O	1.283542	-0.570534	-0.570674
O15	O	1.582998	-0.441440	-0.741037
O16	O	1.582826	-0.740927	-0.441622
O17	O	1.453811	-0.740868	-0.570662
C18	C	1.245423	-0.506032	-0.506157
C19	C	1.128647	-0.506049	-0.506173
C20	C	1.073750	-0.573164	-0.438875
C21	C	0.964026	-0.573182	-0.438893
C22	C	0.964105	-0.438962	-0.573510
C23	C	1.073827	-0.438950	-0.573497
C24	C	1.128569	-0.640263	-0.371552
C25	C	1.073672	-0.707382	-0.304248
C26	C	0.963948	-0.707400	-0.304266
C27	C	0.909121	-0.640299	-0.371588
C28	C	1.518336	-0.779018	-0.506160
C29	C	1.518408	-0.895795	-0.506188
C30	C	1.585589	-0.950556	-0.573444
C31	C	1.585638	-1.060280	-0.573469
C32	C	1.451322	-1.060472	-0.438973
C33	C	1.451269	-0.950750	-0.438954
C34	C	1.652728	-0.895601	-0.640678
C35	C	1.719915	-0.950362	-0.707939
C36	C	1.719964	-1.060086	-0.707964
C37	C	1.652826	-1.115049	-0.640729
C38	C	1.792424	-0.506071	-0.506196
C39	C	1.909201	-0.506079	-0.506205
C40	C	1.518464	-0.505945	-0.780210
C41	C	1.518496	-0.505900	-0.896986
C42	C	1.518475	-0.232018	-0.506216
C43	C	1.518510	-0.115241	-0.506233
C44	C	1.585722	-0.438702	-0.951865
C45	C	1.585747	-0.438664	-1.061589
C46	C	1.451316	-0.573031	-1.061546
C47	C	1.451287	-0.573063	-0.951824
C48	C	1.652930	-0.371539	-0.897027
C49	C	1.720163	-0.304337	-0.951905
C50	C	1.720188	-0.304299	-1.061629
C51	C	1.652980	-0.371463	-1.116475
C52	C	1.518378	-0.506081	-0.233209
C53	C	1.518550	-0.505830	-0.116433
H54	H	0.919456	-0.384330	-0.628320
H55	H	1.774571	-0.905606	-0.762686
H56	H	1.652920	-0.371565	-0.807684
Cl57	Cl	1.653000	-0.371398	-1.254415
H58	H	0.919253	-0.762059	-0.249471
Cl59	Cl	1.366815	-0.881902	-0.354398
H60	H	1.396599	-0.627712	-1.106211
H61	H	1.217912	-0.640254	-0.371527
Cl62	Cl	1.142595	-0.791742	-0.219628
H63	H	1.118526	-0.384297	-0.628294
Cl64	Cl	1.804631	-0.219890	-0.882959
H65	H	1.774924	-0.249572	-1.106309
Cl66	Cl	0.771181	-0.640329	-0.371613
Cl67	Cl	1.804414	-1.128926	-0.792531
Cl68	Cl	1.652645	-0.757663	-0.640677
Cl69	Cl	1.653049	-1.252989	-0.640605
Cl70	Cl	1.366928	-1.129569	-0.354454
H71	H	1.396529	-0.627765	-0.907141
