data_functionalizedCrystal
_audit_creation_method	'MofGen! by Chris Wilmer'
_symmetry_space_group_name_H-M	'P1'
_symmetry_Int_Tables_number	1
_symmetry_cell_setting	triclinic
loop_
_symmetry_equiv_pos_as_xyz
  x,y,z
_cell_length_a	15.297327
_cell_length_b	19.077105
_cell_length_c	19.077258
_cell_angle_alpha	90.096589
_cell_angle_beta	82.999945
_cell_angle_gamma	97.818066
loop_
_atom_site_label
_atom_site_type_symbol
_atom_site_fract_x
_atom_site_fract_y
_atom_site_fract_z
Zn1	Zn	-0.385911	1.004070	0.490322
Zn2	Zn	-0.540883	0.986992	0.392853
Zn3	Zn	-0.386362	0.891244	0.368172
Zn4	Zn	-0.528932	0.866472	0.504061
O5	O	-0.460522	0.937194	0.438852
O6	O	-0.411281	1.099460	0.481971
O7	O	-0.525575	0.977511	0.291918
O8	O	-0.261779	0.923725	0.368297
O9	O	-0.525138	1.086913	0.410361
O10	O	-0.261448	1.006618	0.458040
O11	O	-0.412049	0.907166	0.273785
O12	O	-0.400461	0.790302	0.381619
O13	O	-0.504770	0.881504	0.599899
O14	O	-0.505207	0.772102	0.481456
O15	O	-0.399693	0.982597	0.589805
O16	O	-0.663820	0.953490	0.423683
O17	O	-0.655040	0.864944	0.505388
C18	C	-0.451587	0.755881	0.430351
C19	C	-0.447785	0.678310	0.426734
C20	C	-0.500624	0.632400	0.476955
C21	C	-0.497039	0.559516	0.473557
C22	C	-0.440620	0.532543	0.419936
C23	C	-0.387775	0.578459	0.369712
C24	C	-0.391356	0.651342	0.373113
C25	C	-0.424051	0.315582	0.404201
C26	C	-0.420476	0.242693	0.400802
C27	C	-0.529740	0.223755	0.504649
C28	C	-0.533319	0.296640	0.508042
C29	C	-0.480470	0.342550	0.457821
N30	N	-0.436957	0.458044	0.416461
N31	N	-0.484129	0.417048	0.461299
C32	C	-0.691717	0.904694	0.468721
C33	C	-0.790626	0.890854	0.481525
C34	C	-1.087593	1.036395	0.347590
C35	C	-0.994664	1.049398	0.335556
C36	C	-0.943650	1.009764	0.372047
C37	C	-0.985574	0.957122	0.420574
C38	C	-1.078512	0.944114	0.432605
C39	C	-0.934569	0.917483	0.457063
C40	C	-0.976493	0.864842	0.505589
C41	C	-1.069422	0.851836	0.517619
C42	C	-1.120436	0.891470	0.481127
C43	C	-0.841631	0.930491	0.445032
C44	C	-0.832550	0.838210	0.530047
C45	C	-0.925479	0.825207	0.542081
C46	C	-0.228424	0.969840	0.408883
C47	C	-0.129517	0.983751	0.396112
C48	C	-0.450848	0.931192	0.620883
C49	C	-0.446726	0.928634	0.698453
C50	C	-0.469493	1.119216	0.447387
C51	C	-0.473315	1.196783	0.451024
C52	C	-0.503893	0.964054	0.744339
C53	C	-0.500008	0.961653	0.817224
C54	C	-0.438961	0.923826	0.844221
C55	C	-0.381787	0.888404	0.798330
C56	C	-0.385668	0.890811	0.725446
C57	C	-0.421013	0.912705	1.061186
C58	C	-0.417138	0.910300	1.134076
C59	C	-0.535358	0.983549	1.152964
C60	C	-0.539237	0.985949	1.080079
C61	C	-0.482061	0.950531	1.034193
N62	N	-0.434991	0.921368	0.918721
N63	N	-0.486027	0.952993	0.959695
C64	C	-0.470179	0.943165	1.257532
C65	C	-0.474305	0.945720	1.179961
H66	H	-0.374523	0.220736	0.357140
C67	C	-0.971608	0.767297	0.595454
N68	N	-1.006353	0.723679	0.635652
C69	C	-0.358122	0.873738	1.010722
N70	N	-0.310751	0.844385	0.972709
C71	C	-0.587862	0.173250	0.559893
N72	N	-0.631639	0.135209	0.601507
H73	H	-0.588962	1.016738	1.058105
H74	H	-1.129137	1.068656	0.317879
C75	C	-0.314632	0.846796	0.828030
N76	N	-0.264052	0.815454	0.850399
H77	H	-1.103554	0.808964	0.557124
C78	C	-0.365921	0.366073	0.348951
N79	N	-0.322137	0.404106	0.307334
C80	C	-0.349977	0.868686	1.163770
N81	N	-0.299396	0.837343	1.186137
H82	H	-0.341834	0.556492	0.326055
H83	H	-1.196107	0.880887	0.490924
C84	C	-0.333231	0.701843	0.317864
N85	N	-0.289447	0.739880	0.276250
C86	C	-0.598380	1.022379	1.203456
N87	N	-0.645897	1.051582	1.241492
H88	H	-0.791014	0.805935	0.559760
C89	C	-0.322782	0.851844	0.674972
N90	N	-0.275412	0.822494	0.636955
C91	C	-0.795525	0.988396	0.391654
N92	N	-0.760800	1.032015	0.351447
H93	H	-0.546569	0.654355	0.520617
H94	H	-0.867983	1.020354	0.362245
H95	H	-0.960533	1.092258	0.296045
C96	C	-0.562901	1.000615	0.867696
N97	N	-0.610275	1.029962	0.905712
C98	C	-0.555184	0.509016	0.528794
N99	N	-0.598988	0.470978	0.570397
C100	C	-0.595388	0.326304	0.567028
N101	N	-0.642144	0.348646	0.611454
H102	H	-0.553602	0.994860	0.722364
