data_functionalizedCrystal
_audit_creation_method	'MofGen! by Chris Wilmer'
_symmetry_space_group_name_H-M	'P1'
_symmetry_Int_Tables_number	1
_symmetry_cell_setting	triclinic
loop_
_symmetry_equiv_pos_as_xyz
  x,y,z
_cell_length_a	14.908520
_cell_length_b	12.759401
_cell_length_c	14.908308
_cell_angle_alpha	93.279723
_cell_angle_beta	96.360765
_cell_angle_gamma	93.322137
loop_
_atom_site_label
_atom_site_type_symbol
_atom_site_fract_x
_atom_site_fract_y
_atom_site_fract_z
Zn1	Zn	-0.389838	1.544174	-0.532530
Zn2	Zn	-0.532484	1.544055	-0.389900
Zn3	Zn	-0.381145	1.379242	-0.381192
Zn4	Zn	-0.541161	1.357688	-0.541214
O5	O	-0.461157	1.456290	-0.461209
O6	O	-0.408767	1.691178	-0.513620
O7	O	-0.505138	1.531163	-0.262084
O8	O	-0.255633	1.410191	-0.393988
O9	O	-0.513568	1.691090	-0.408831
O10	O	-0.262020	1.531366	-0.505176
O11	O	-0.393950	1.410075	-0.255686
O12	O	-0.402364	1.229363	-0.402409
O13	O	-0.528357	1.373455	-0.666722
O14	O	-0.519927	1.213527	-0.519976
O15	O	-0.417181	1.510466	-0.660343
O16	O	-0.660300	1.510262	-0.417251
O17	O	-0.666675	1.373339	-0.528420
C18	C	-0.461145	1.183324	-0.461190
C19	C	-0.461163	1.066546	-0.461205
C20	C	-0.522461	1.003466	-0.522336
C21	C	-0.522465	0.893740	-0.522354
C22	C	-0.399871	0.910185	-0.400102
C23	C	-0.399863	1.019908	-0.400089
C24	C	-0.696331	1.439476	-0.474743
C25	C	-0.796941	1.432377	-0.480563
C26	C	-0.979305	1.561747	-0.375832
C27	C	-1.073837	1.555081	-0.381298
C28	C	-1.080540	1.412384	-0.496964
C29	C	-0.986008	1.419050	-0.491498
C30	C	-0.935393	1.493733	-0.430929
C31	C	-0.840859	1.500394	-0.425460
C32	C	-0.847564	1.357703	-0.541130
C33	C	-0.942096	1.351037	-0.546595
C34	C	-0.225065	1.473196	-0.447642
C35	C	-0.124457	1.480401	-0.441860
C36	C	-0.474707	1.439569	-0.697293
C37	C	-0.480481	1.432444	-0.797897
C38	C	-0.461170	1.730321	-0.461228
C39	C	-0.461175	1.847096	-0.461236
C40	C	-0.375543	1.561723	-0.980301
C41	C	-0.380966	1.555032	-1.074828
C42	C	-0.496743	1.412366	-1.081480
C43	C	-0.491321	1.419057	-0.986953
C44	C	-0.430720	1.493739	-0.936367
C45	C	-0.425303	1.500435	-0.841838
C46	C	-0.541075	1.357765	-0.848491
C47	C	-0.546498	1.351074	-0.943018
C48	C	-0.447594	1.473010	-0.226040
C49	C	-0.441565	1.480357	-0.125421
H50	H	-0.349964	0.872199	-0.350342
H51	H	-0.811801	1.302318	-0.585991
Br52	Br	-0.615976	1.265510	-0.788862
H53	H	-0.983319	1.290235	-0.595911
Br54	Br	-0.293315	1.663087	-0.911646
Br55	Br	-0.605651	1.066756	-0.605281
Br56	Br	-1.149246	1.311054	-0.579172
Br57	Br	-0.605655	0.808135	-0.605326
H58	H	-0.336033	1.610388	-1.110596
Br59	Br	-0.316658	1.105525	-0.317127
H60	H	-0.546081	1.351564	-1.122683
Br61	Br	-0.343064	1.601792	-0.773187
Br62	Br	-0.910608	1.663080	-0.293618
Br63	Br	-0.772168	1.601741	-0.343255
Br64	Br	-1.133429	1.647394	-0.306525
H65	H	-0.595835	1.290268	-0.984218
