data_functionalizedCrystal
_audit_creation_method	'MofGen! by Chris Wilmer'
_symmetry_space_group_name_H-M	'P1'
_symmetry_Int_Tables_number	1
_symmetry_cell_setting	triclinic
loop_
_symmetry_equiv_pos_as_xyz
  x,y,z
_cell_length_a	19.805407
_cell_length_b	13.031981
_cell_length_c	19.805398
_cell_angle_alpha	82.791306
_cell_angle_beta	89.979507
_cell_angle_gamma	97.190128
loop_
_atom_site_label
_atom_site_type_symbol
_atom_site_fract_x
_atom_site_fract_y
_atom_site_fract_z
Zn1	Zn	1.000545	-0.416170	-0.348550
Zn2	Zn	0.986118	-0.590951	-0.220977
Zn3	Zn	0.887365	-0.416191	-0.235364
Zn4	Zn	0.872978	-0.590899	-0.334119
O5	O	0.936752	-0.503553	-0.284752
O6	O	1.093347	-0.439368	-0.331646
O7	O	0.973002	-0.567800	-0.128166
O8	O	0.914437	-0.269926	-0.262439
O9	O	1.082747	-0.567779	-0.237918
O10	O	0.997590	-0.269910	-0.345597
O11	O	0.900448	-0.439405	-0.138736
O12	O	0.790741	-0.439353	-0.248445
O13	O	0.889917	-0.567689	-0.430752
O14	O	0.780171	-0.567710	-0.321000
O15	O	0.983640	-0.439317	-0.441355
O16	O	0.959051	-0.737207	-0.223924
O17	O	0.875928	-0.737168	-0.307049
C18	C	0.760898	-0.503529	-0.284718
C19	C	0.685664	-0.503544	-0.284718
C20	C	0.914382	-0.775111	-0.262374
C21	C	0.904873	-0.891285	-0.252824
C22	C	0.218376	-0.570514	-0.322497
C23	C	0.289065	-0.570512	-0.322482
C24	C	0.329900	-0.503578	-0.284777
C25	C	0.300042	-0.436649	-0.247077
C26	C	0.229354	-0.436657	-0.247088
C27	C	0.585118	-0.436617	-0.247032
C28	C	0.655811	-0.436612	-0.247026
C29	C	0.644829	-0.570472	-0.322427
C30	C	0.574141	-0.570480	-0.322438
C31	C	0.544289	-0.503555	-0.284736
C32	C	0.467640	-0.503559	-0.284750
C33	C	0.406548	-0.503568	-0.284765
C34	C	0.941750	-0.942988	-0.289751
C35	C	0.931924	-1.063060	-0.279880
C36	C	1.113292	-0.503577	-0.284787
C37	C	1.188523	-0.503588	-0.284802
C38	C	0.936783	-0.503495	-0.461300
C39	C	0.936796	-0.503470	-0.536534
C40	C	0.959228	-0.230934	-0.307233
C41	C	0.968805	-0.114760	-0.316812
C42	C	0.985694	-0.436442	-1.003863
C43	C	0.985681	-0.436474	-0.933171
C44	C	0.936878	-0.503325	-0.892308
C45	C	0.888088	-0.570156	-0.922138
C46	C	0.888105	-0.570128	-0.992828
C47	C	0.888020	-0.570269	-0.637055
C48	C	0.888006	-0.570289	-0.566362
C49	C	0.985596	-0.436615	-0.577399
C50	C	0.985613	-0.436587	-0.648089
C51	C	0.936826	-0.503421	-0.677913
C52	C	0.936842	-0.503387	-0.754564
C53	C	0.936858	-0.503354	-0.815658
C54	C	0.936766	-0.503535	-0.108898
C55	C	0.936908	-0.503265	-0.033689
H56	H	0.185133	-0.625014	-0.353205
H57	H	1.007652	-1.070137	-0.355740
O58	O	0.853415	-0.950393	-0.201267
H59	H	0.827893	-0.894255	-0.175722
O60	O	0.530129	-0.642791	-0.363053
H61	H	0.545177	-0.625069	-0.417667
O62	O	0.835357	-0.642397	-0.522294
H63	H	0.861254	-0.695585	-0.485700
H64	H	0.560821	-0.382127	-0.216330
H65	H	0.848354	-0.624592	-0.888861
O66	O	0.677025	-0.642651	-0.363101
H67	H	0.733038	-0.631407	-0.356760
H68	H	0.848379	-0.624544	-1.017111
O69	O	0.993208	-0.883883	-0.341309
H70	H	1.044643	-0.904724	-0.328054
O71	O	0.321267	-0.642687	-0.363145
H72	H	0.280997	-0.689219	-0.389375
H73	H	1.025410	-0.382062	-0.908891
H74	H	1.025432	-0.381997	-1.037130
H75	H	0.689058	-0.382102	-0.216321
H76	H	1.025352	-0.382146	-0.681357
H77	H	1.025322	-0.382198	-0.553108
O78	O	0.835394	-0.642335	-0.669221
H79	H	0.801450	-0.688811	-0.628929
H80	H	0.205050	-0.382156	-0.216395
O81	O	0.344081	-0.364450	-0.206409
H82	H	0.398251	-0.375678	-0.212739
H83	H	0.893072	-1.107684	-0.240959
