data_functionalizedCrystal
_audit_creation_method	'MofGen! by Chris Wilmer'
_symmetry_space_group_name_H-M	'P1'
_symmetry_Int_Tables_number	1
_symmetry_cell_setting	triclinic
loop_
_symmetry_equiv_pos_as_xyz
  x,y,z
_cell_length_a	21.295417
_cell_length_b	19.077300
_cell_length_c	21.295411
_cell_angle_alpha	87.718692
_cell_angle_beta	89.971282
_cell_angle_gamma	92.264088
loop_
_atom_site_label
_atom_site_type_symbol
_atom_site_fract_x
_atom_site_fract_y
_atom_site_fract_z
Zn1	Zn	-0.289245	-1.075886	-0.317250
Zn2	Zn	-0.394507	-1.075794	-0.211979
Zn3	Zn	-0.285035	-0.958200	-0.216224
Zn4	Zn	-0.390255	-0.958149	-0.321438
O5	O	-0.339761	-1.017007	-0.266723
O6	O	-0.306749	-1.174360	-0.299756
O7	O	-0.380002	-1.060177	-0.124453
O8	O	-0.197507	-0.973871	-0.229649
O9	O	-0.384084	-1.174293	-0.222414
O10	O	-0.200599	-1.060335	-0.303873
O11	O	-0.299574	-0.973782	-0.127572
O12	O	-0.295452	-0.859707	-0.233710
O13	O	-0.376839	-0.973785	-0.408971
O14	O	-0.372757	-0.859669	-0.311010
O15	O	-0.302627	-1.060286	-0.405894
O16	O	-0.482030	-1.060128	-0.226475
O17	O	-0.478907	-0.973695	-0.306894
C18	C	-0.333187	-0.834152	-0.273276
C19	C	-0.330390	-0.755925	-0.276094
C20	C	-0.310279	-0.315598	-0.296318
C21	C	-0.312919	-0.389100	-0.293666
C22	C	-0.354437	-0.425806	-0.252007
C23	C	-0.393322	-0.389007	-0.213002
C24	C	-0.390685	-0.315506	-0.215657
C25	C	-0.366638	-0.645625	-0.239744
C26	C	-0.369271	-0.719131	-0.237090
C27	C	-0.288868	-0.719219	-0.317756
C28	C	-0.286232	-0.645717	-0.320405
C29	C	-0.325119	-0.608924	-0.281402
N30	N	-0.357135	-0.500937	-0.249294
N31	N	-0.322424	-0.533794	-0.284118
C32	C	-0.503309	-1.016915	-0.266691
C33	C	-0.573278	-1.016940	-0.266696
C34	C	-0.607751	-1.061986	-0.224862
C35	C	-0.673495	-1.062019	-0.224875
C36	C	-0.704762	-1.016993	-0.266716
C37	C	-0.670281	-0.971945	-0.308559
C38	C	-0.604539	-0.971918	-0.308549
N39	N	-0.805819	-0.955426	-0.273722
N40	N	-0.868271	-0.955453	-0.273727
C41	C	-0.902840	-1.017072	-0.266749
N42	N	-0.872597	-1.078664	-0.259754
N43	N	-0.810138	-1.078636	-0.259745
C44	C	-0.776049	-1.017018	-0.266732
C45	C	-1.008600	-1.062157	-0.224927
C46	C	-1.074345	-1.062192	-0.224944
C47	C	-1.071129	-0.972111	-0.308625
C48	C	-1.005386	-0.972084	-0.308610
C49	C	-0.974125	-1.017106	-0.266758
C50	C	-0.175574	-1.017119	-0.266768
C51	C	-0.105608	-1.017167	-0.266787
C52	C	-0.339728	-1.017040	-0.430912
C53	C	-0.339714	-1.017054	-0.500880
C54	C	-0.346357	-0.200577	-0.260138
C55	C	-0.349160	-0.278803	-0.257314
C56	C	-0.381466	-1.062118	-0.998711
C57	C	-0.381485	-1.062106	-0.932969
C58	C	-0.339619	-1.017120	-0.901717
C59	C	-0.297740	-0.972131	-0.936212
C60	C	-0.297726	-0.972140	-1.001953
N61	N	-0.284346	-1.011744	-0.798705
N62	N	-0.284362	-1.011740	-0.736253
C63	C	-0.339660	-1.017089	-0.703643
N64	N	-0.394944	-1.022457	-0.735843
N65	N	-0.394928	-1.022465	-0.798300
C66	C	-0.339630	-1.017105	-0.830432
C67	C	-0.381560	-1.062058	-0.597871
C68	C	-0.381581	-1.062040	-0.532127
C69	C	-0.297830	-0.972070	-0.535372
C70	C	-0.297815	-0.972084	-0.601114
C71	C	-0.339679	-1.017082	-0.632359
C72	C	-0.339749	-1.017016	-0.103171
C73	C	-0.339590	-1.017138	-0.033199
H74	H	-0.403082	-0.749016	-0.203165
C75	C	-1.112266	-1.111747	-0.178920
N76	N	-1.140829	-1.149072	-0.144252
H77	H	-0.427129	-0.418899	-0.179085
H78	H	-0.252426	-0.615835	-0.354331
C79	C	-0.974212	-1.111692	-0.178898
N80	N	-0.948312	-1.149005	-0.144231
H81	H	-0.422347	-0.285550	-0.183897
H82	H	-0.398301	-0.615677	-0.207983
C83	C	-0.573368	-1.111504	-0.178817
N84	N	-0.547470	-1.148798	-0.144132
C85	C	-0.967464	-0.922543	-0.354645
N86	N	-0.938902	-0.885236	-0.389327
H87	H	-0.701569	-1.098703	-0.190808
C88	C	-0.566617	-0.922371	-0.354580
N89	N	-0.538053	-0.885054	-0.389253
C90	C	-0.251653	-0.922662	-1.039891
N91	N	-0.216948	-0.885397	-1.068466
C92	C	-0.427617	-1.111549	-0.632243
N93	N	-0.462309	-1.148825	-0.658130
C94	C	-0.427554	-1.111588	-0.895026
N95	N	-0.462253	-1.148858	-0.866449
H96	H	-0.695743	-0.935286	-0.342627
H97	H	-0.415686	-1.098665	-0.504049
H98	H	-0.281260	-0.419054	-0.325430
H99	H	-0.263653	-0.935503	-0.910762
C100	C	-0.427523	-1.111611	-1.033078
N101	N	-0.462216	-1.148887	-1.058963
H102	H	-0.257209	-0.749183	-0.349511
C103	C	-1.105520	-0.922584	-0.354652
N104	N	-1.131425	-0.885280	-0.389322
H105	H	-0.263743	-0.935440	-0.509927
H106	H	-0.276467	-0.285716	-0.330238
C107	C	-0.251740	-0.922611	-0.639051
N108	N	-0.217034	-0.885346	-0.667625
