data_functionalizedCrystal
_audit_creation_method	'MofGen! by Chris Wilmer'
_symmetry_space_group_name_H-M	'P1'
_symmetry_Int_Tables_number	1
_symmetry_cell_setting	triclinic
loop_
_symmetry_equiv_pos_as_xyz
  x,y,z
_cell_length_a	8.559649
_cell_length_b	14.044220
_cell_length_c	7.681481
_cell_angle_alpha	83.732834
_cell_angle_beta	85.090457
_cell_angle_gamma	98.516229
loop_
_atom_site_label
_atom_site_type_symbol
_atom_site_fract_x
_atom_site_fract_y
_atom_site_fract_z
O1	O	-2.101893	-0.021847	-0.146553
O2	O	-1.643597	0.026601	-0.146532
O3	O	-1.865868	-0.135108	-0.146525
O4	O	-1.879623	0.139862	-0.146560
O5	O	-1.893220	-0.155052	0.146334
O6	O	-1.670949	0.006657	0.146327
O7	O	-2.129245	-0.041791	0.146305
Zn8	Zn	-1.904440	-0.020733	0.192814
Zn9	Zn	-1.868402	0.005543	-0.193040
O10	O	-1.906975	0.119918	0.146298
C11	C	-1.598267	0.020301	-0.000099
C12	C	-1.422445	0.031229	-0.000090
C13	C	-1.873522	-0.179956	-0.000094
C14	C	-1.855558	-0.283875	-0.000091
C15	C	-1.822714	-0.474144	-0.000115
C16	C	-1.950120	-0.541051	-0.000127
C17	C	-1.931845	-0.646923	-0.000140
C18	C	-1.840987	-0.368261	-0.000102
C19	C	-1.174577	-0.035491	-0.000115
C20	C	-1.350402	-0.046422	-0.000088
C21	C	-1.899321	0.164766	-0.000136
C22	C	-1.917283	0.268685	-0.000150
N23	N	-1.929046	-0.038668	0.456149
N24	N	-1.843808	0.023470	-0.456375
H25	H	-1.349614	0.106072	-0.000113
O26	O	-2.096521	-0.514405	-0.000348
C27	C	-2.266573	-0.418829	-0.152087
C28	C	-2.100704	-0.448910	-0.152043
H29	H	-2.270019	-0.365888	-0.274738
H30	H	-2.292941	-0.382467	-0.029599
H31	H	-2.359599	-0.485929	-0.152004
H32	H	-2.007571	-0.381860	-0.152188
H33	H	-2.074472	-0.485308	-0.274520
O34	O	-2.032761	-0.114448	0.545667
C35	C	-2.107008	-0.288151	0.602504
C36	C	-1.989467	-0.202421	0.500984
H37	H	-2.072028	-0.359298	0.566443
H38	H	-2.232112	-0.282853	0.566292
H39	H	-2.103841	-0.285763	0.750048
H40	H	-1.992493	-0.204755	0.353416
H41	H	-1.864416	-0.207750	0.537342
H42	H	-1.423240	-0.121270	-0.000084
O43	O	-1.740176	0.099247	0.454004
C44	C	-1.665801	0.272946	0.397336
C45	C	-1.783300	0.187217	0.498922
H46	H	-1.700605	0.344090	0.433642
H47	H	-1.669004	0.270690	0.249761
H48	H	-1.540723	0.267515	0.433491
H49	H	-1.908433	0.192592	0.462914
H50	H	-1.779958	0.189502	0.646472
O51	O	-1.676346	-0.500830	-0.000023
C52	C	-1.524445	-0.632223	-0.000113
C53	C	-1.690298	-0.602122	-0.000186
H54	H	-1.535665	-0.714116	-0.000282
H55	H	-1.468868	-0.610824	0.122490
H56	H	-1.445994	-0.593992	-0.122632
H57	H	-1.768872	-0.640337	0.122250
H58	H	-1.745746	-0.623502	-0.122870
