data_functionalizedCrystal
_audit_creation_method	'MofGen! by Chris Wilmer'
_symmetry_space_group_name_H-M	'P1'
_symmetry_Int_Tables_number	1
_symmetry_cell_setting	triclinic
loop_
_symmetry_equiv_pos_as_xyz
  x,y,z
_cell_length_a	16.120490
_cell_length_b	16.120444
_cell_length_c	10.686551
_cell_angle_alpha	88.708632
_cell_angle_beta	82.497748
_cell_angle_gamma	90.165174
loop_
_atom_site_label
_atom_site_type_symbol
_atom_site_fract_x
_atom_site_fract_y
_atom_site_fract_z
Zn1	Zn	1.299161	-0.355281	-0.840282
Zn2	Zn	1.632494	-0.021948	-0.506948
Zn3	Zn	1.965828	0.311385	-0.173615
Zn4	Zn	1.281312	-0.504003	-0.639306
Zn5	Zn	1.614645	-0.170670	-0.305972
Zn6	Zn	1.947979	0.162664	0.027361
Zn7	Zn	1.148278	-0.358926	-0.618009
Zn8	Zn	1.481611	-0.025593	-0.284675
Zn9	Zn	1.814945	0.307740	0.048658
Zn10	Zn	1.152949	-0.487282	-0.839134
Zn11	Zn	1.486283	-0.153949	-0.505801
Zn12	Zn	1.819616	0.179385	-0.172467
O13	O	1.220425	-0.426373	-0.734183
O14	O	1.553758	-0.093040	-0.400849
O15	O	1.887092	0.240294	-0.067516
O16	O	1.413658	-0.380482	-0.823015
O17	O	1.746992	-0.047149	-0.489682
O18	O	2.080325	0.286185	-0.156348
O19	O	1.254240	-0.493281	-0.459830
O20	O	1.587573	-0.159948	-0.126496
O21	O	1.920907	0.173385	0.206837
O22	O	1.173808	-0.242485	-0.639061
O23	O	1.507141	0.090848	-0.305728
O24	O	1.840475	0.424182	0.027605
O25	O	1.400545	-0.489747	-0.675359
O26	O	1.733878	-0.156414	-0.342026
O27	O	2.067212	0.176920	-0.008692
O28	O	1.284661	-0.239807	-0.802364
O29	O	1.617994	0.093526	-0.469031
O30	O	1.951327	0.426860	-0.135698
O31	O	1.156501	-0.386694	-0.444183
O32	O	1.489834	-0.053361	-0.110850
O33	O	1.823167	0.279972	0.222484
O34	O	1.032033	-0.370481	-0.637948
O35	O	1.365366	-0.037147	-0.304615
O36	O	1.698699	0.296186	0.028718
O37	O	1.181769	-0.461249	-1.015937
O38	O	1.515103	-0.127915	-0.682604
O39	O	1.848436	0.205418	-0.349270
O40	O	1.035465	-0.464783	-0.800408
O41	O	1.368798	-0.131450	-0.467075
O42	O	1.702131	0.201884	-0.133741
O43	O	1.289190	-0.364268	-1.016780
O44	O	1.622524	-0.030935	-0.683447
O45	O	1.955857	0.302398	-0.350114
O46	O	1.258770	-0.617743	-0.674246
O47	O	1.592103	-0.284409	-0.340913
O48	O	1.925436	0.048924	-0.007579
O49	O	1.164462	-0.605458	-0.821059
O50	O	1.497795	-0.272125	-0.487725
O51	O	1.831129	0.061209	-0.154392
C52	C	1.003447	-0.416213	-0.716743
C53	C	1.336780	-0.082880	-0.383410
C54	C	1.670113	0.250453	-0.050077
C55	C	0.910623	-0.411886	-0.709314
C56	C	1.243957	-0.078552	-0.375981
C57	C	1.577290	0.254781	-0.042647
C58	C	1.210210	-0.641667	-0.749868
C59	C	1.543543	-0.308333	-0.416535
C60	C	1.876877	0.025000	-0.083201
C61	C	1.205919	-0.733772	-0.756627
C62	C	1.539252	-0.400438	-0.423293
C63	C	1.872585	-0.067105	-0.089960
C64	C	0.701025	-0.448816	-0.772721
C65	C	1.034358	-0.115482	-0.439387
C66	C	1.367692	0.217851	-0.106054
C67	C	0.740678	-0.403992	-0.695749
C68	C	1.074012	-0.070658	-0.362416
C69	C	1.407345	0.262675	-0.029083
C70	C	0.835245	-0.408385	-0.703299
C71	C	1.168578	-0.075052	-0.369966
C72	C	1.501911	0.258281	-0.036632
C73	C	0.606451	-0.444423	-0.765172
C74	C	0.939784	-0.111090	-0.431839
C75	C	1.273117	0.222243	-0.098506
C76	C	1.242906	-0.949498	-0.699409
C77	C	1.576239	-0.616164	-0.366076
C78	C	1.909572	-0.282831	-0.032743
C79	C	1.198100	-0.902404	-0.768981
C80	C	1.531433	-0.569070	-0.435648
C81	C	1.864766	-0.235737	-0.102314
C82	C	1.202452	-0.808568	-0.762105
C83	C	1.535785	-0.475235	-0.428772
C84	C	1.869118	-0.141902	-0.095438
C85	C	1.238555	-1.043342	-0.706284
C86	C	1.571888	-0.710009	-0.372951
C87	C	1.905222	-0.376675	-0.039617
C88	C	1.438251	-0.436573	-0.751691
C89	C	1.771584	-0.103240	-0.418357
C90	C	2.104917	0.230094	-0.085024
C91	C	1.531075	-0.440920	-0.759152
C92	C	1.864408	-0.107586	-0.425818
C93	C	2.197742	0.225747	-0.092485
C94	C	1.237992	-0.410487	-1.063443
C95	C	1.571325	-0.077153	-0.730110
C96	C	1.904659	0.256180	-0.396776
C97	C	1.245478	-0.403717	-1.203754
C98	C	1.578811	-0.070383	-0.870421
C99	C	1.912145	0.262950	-0.537088
C100	C	1.230704	-0.210239	-0.718465
C101	C	1.564038	0.123095	-0.385132
C102	C	1.897371	0.456428	-0.051799
C103	C	1.235085	-0.118135	-0.711767
C104	C	1.568418	0.215198	-0.378434
C105	C	1.901751	0.548532	-0.045101
C106	C	1.202977	-0.442140	-0.406202
C107	C	1.536311	-0.108807	-0.072869
C108	C	1.869644	0.224526	0.260464
C109	C	1.195664	-0.448684	-0.265888
C110	C	1.528998	-0.115351	0.067445
C111	C	1.862331	0.217982	0.400779
H112	H	0.703605	-0.362317	-0.624182
H113	H	1.036939	-0.028984	-0.290848
H114	H	1.370272	0.304349	0.042485
H115	H	1.147292	-0.492365	-1.211741
H116	H	1.480626	-0.159031	-0.878408
H117	H	1.813959	0.174302	-0.545075
N118	N	1.298045	-0.909564	-0.613676
N119	N	1.631378	-0.576231	-0.280343
N120	N	1.964712	-0.242897	0.052990
H121	H	1.293373	-0.847220	-0.620859
H122	H	1.626706	-0.513886	-0.287526
H123	H	1.960040	-0.180553	0.045808
H124	H	1.279594	-0.928422	-0.523549
H125	H	1.612928	-0.595089	-0.190216
H126	H	1.946261	-0.261755	0.143118
H127	H	1.156472	-0.932558	-0.833707
H128	H	1.489805	-0.599225	-0.500374
H129	H	1.823138	-0.265891	-0.167040
N130	N	1.309567	-0.345861	-1.275472
N131	N	1.642901	-0.012527	-0.942139
N132	N	1.976234	0.320806	-0.608806
H133	H	1.306015	-0.349063	-1.368903
H134	H	1.639348	-0.015729	-1.035570
H135	H	1.972682	0.317604	-0.702236
H136	H	1.298172	-0.287167	-1.247145
H137	H	1.631505	0.046167	-0.913811
H138	H	1.964839	0.379500	-0.580478
H139	H	0.738096	-0.490488	-0.844281
H140	H	1.071429	-0.157154	-0.510948
H141	H	1.404763	0.176179	-0.177615
