data_functionalizedCrystal
_audit_creation_method	'MofGen! by Chris Wilmer'
_symmetry_space_group_name_H-M	'P1'
_symmetry_Int_Tables_number	1
_symmetry_cell_setting	triclinic
loop_
_symmetry_equiv_pos_as_xyz
  x,y,z
_cell_length_a	12.759401
_cell_length_b	13.897448
_cell_length_c	12.759393
_cell_angle_alpha	89.967728
_cell_angle_beta	89.979062
_cell_angle_gamma	90.019217
loop_
_atom_site_label
_atom_site_type_symbol
_atom_site_fract_x
_atom_site_fract_y
_atom_site_fract_z
Zn1	Zn	1.606245	-0.383929	-0.594007
Zn2	Zn	1.606126	-0.545255	-0.418322
Zn3	Zn	1.430543	-0.383980	-0.418342
Zn4	Zn	1.430526	-0.545188	-0.593959
O5	O	1.518360	-0.464588	-0.506158
O6	O	1.753250	-0.405336	-0.570714
O7	O	1.582793	-0.523912	-0.271303
O8	O	1.453907	-0.248992	-0.441673
O9	O	1.753163	-0.523862	-0.441638
O10	O	1.582994	-0.248954	-0.570734
O11	O	1.453793	-0.405423	-0.271318
O12	O	1.283520	-0.405358	-0.441627
O13	O	1.453878	-0.523747	-0.740987
O14	O	1.283507	-0.523797	-0.570652
O15	O	1.582977	-0.405271	-0.741022
O16	O	1.582776	-0.680228	-0.441592
O17	O	1.453763	-0.680179	-0.570632
C18	C	1.245393	-0.464576	-0.506137
C19	C	1.128616	-0.464595	-0.506153
C20	C	1.073775	-0.526359	-0.573230
C21	C	0.964051	-0.526363	-0.573251
C22	C	0.964019	-0.402834	-0.439108
C23	C	1.073741	-0.402827	-0.439093
C24	C	1.518283	-0.715203	-0.506127
C25	C	1.518347	-0.822416	-0.506149
C26	C	1.518457	-1.018711	-0.506215
C27	C	1.518393	-0.909479	-0.506182
C28	C	1.792393	-0.464601	-0.506179
C29	C	1.909170	-0.464606	-0.506188
C30	C	1.518439	-0.464496	-0.780191
C31	C	1.518472	-0.464456	-0.896968
C32	C	1.518466	-0.212995	-0.506211
C33	C	1.518511	-0.105781	-0.506234
C34	C	1.585699	-0.402756	-0.951850
C35	C	1.585717	-0.402714	-1.061574
C36	C	1.451278	-0.526082	-1.061524
C37	C	1.451255	-0.526118	-0.951802
C38	C	1.518342	-0.464611	-0.233190
C39	C	1.518512	-0.464379	-0.116414
H40	H	0.919326	-0.352547	-0.384509
H41	H	1.640459	-0.352470	-1.106254
O42	O	1.126858	-0.342795	-0.373830
C43	C	1.054898	-0.288267	-0.314656
H44	H	0.976670	-0.327776	-0.310947
H45	H	1.043269	-0.215053	-0.353273
C46	C	1.193756	-0.225713	-0.207418
C47	C	1.097678	-0.274241	-0.202855
H48	H	1.220145	-0.217056	-0.138455
H49	H	1.242238	-0.262445	-0.247286
H50	H	1.184052	-0.164705	-0.239603
H51	H	1.107385	-0.335251	-0.170682
H52	H	1.049198	-0.237518	-0.162979
H53	H	1.396554	-0.576287	-1.106184
H54	H	1.640429	-0.352544	-0.907207
O55	O	1.385915	-0.586150	-0.898645
C56	C	1.326581	-0.640556	-0.970569
H57	H	1.369626	-0.643877	-1.048790
H58	H	1.246806	-0.605224	-0.982232
C59	C	1.258517	-0.739149	-0.831642
C60	C	1.311390	-0.743235	-0.927712
H61	H	1.249141	-0.802485	-0.805205
H62	H	1.298488	-0.702493	-0.783184
H63	H	1.192044	-0.709701	-0.841374
H64	H	1.377866	-0.772671	-0.917976
H65	H	1.271429	-0.779898	-0.976167
O66	O	0.910663	-0.586411	-0.638262
C67	C	0.847163	-0.648663	-0.578335
H68	H	0.830692	-0.614553	-0.498785
H69	H	0.889422	-0.720130	-0.566643
C70	C	0.763196	-0.708094	-0.733830
C71	C	0.742958	-0.666196	-0.636129
H72	H	0.698919	-0.718913	-0.769481
H73	H	0.805979	-0.666156	-0.774205
H74	H	0.798414	-0.767645	-0.724073
H75	H	0.707753	-0.606641	-0.645888
H76	H	0.700166	-0.708124	-0.595757
H77	H	1.118451	-0.576652	-0.627837
