data_functionalizedCrystal
_audit_creation_method	'MofGen! by Chris Wilmer'
_symmetry_space_group_name_H-M	'P1'
_symmetry_Int_Tables_number	1
_symmetry_cell_setting	triclinic
loop_
_symmetry_equiv_pos_as_xyz
  x,y,z
_cell_length_a	19.121102
_cell_length_b	21.295417
_cell_length_c	21.295411
_cell_angle_alpha	89.978356
_cell_angle_beta	87.537204
_cell_angle_gamma	87.584620
loop_
_atom_site_label
_atom_site_type_symbol
_atom_site_fract_x
_atom_site_fract_y
_atom_site_fract_z
Zn1	Zn	1.073733	-0.291809	-0.396911
Zn2	Zn	1.323733	-0.041809	-0.146911
Zn3	Zn	1.573733	0.208191	0.103089
Zn4	Zn	1.823733	0.458191	0.353089
Zn5	Zn	1.073624	-0.397056	-0.291633
Zn6	Zn	1.323624	-0.147056	-0.041633
Zn7	Zn	1.573624	0.102944	0.208367
Zn8	Zn	1.823624	0.352944	0.458367
Zn9	Zn	0.956272	-0.287310	-0.287171
Zn10	Zn	1.206272	-0.037310	-0.037171
Zn11	Zn	1.456272	0.212690	0.212829
Zn12	Zn	1.706272	0.462690	0.462829
Zn13	Zn	0.956238	-0.392544	-0.392382
Zn14	Zn	1.206238	-0.142544	-0.142382
Zn15	Zn	1.456238	0.107456	0.107618
Zn16	Zn	1.706238	0.357456	0.357618
O17	O	1.014967	-0.342180	-0.342024
O18	O	1.264967	-0.092180	-0.092024
O19	O	1.514967	0.157820	0.157976
O20	O	1.764967	0.407820	0.407976
O21	O	1.172003	-0.309542	-0.386709
O22	O	1.422003	-0.059542	-0.136709
O23	O	1.672003	0.190458	0.113291
O24	O	1.922003	0.440458	0.363291
O25	O	1.058026	-0.382504	-0.202950
O26	O	1.308026	-0.132504	0.047050
O27	O	1.558026	0.117496	0.297050
O28	O	1.808026	0.367496	0.547050
O29	O	0.971914	-0.199820	-0.301757
O30	O	1.221914	0.050180	-0.051757
O31	O	1.471914	0.300180	0.198243
O32	O	1.721914	0.550180	0.448243
O33	O	1.171923	-0.386867	-0.309361
O34	O	1.421923	-0.136867	-0.059361
O35	O	1.671923	0.113133	0.190639
O36	O	1.921923	0.363133	0.440639
O37	O	1.058212	-0.203125	-0.382383
O38	O	1.308212	0.046875	-0.132383
O39	O	1.558212	0.296875	0.117617
O40	O	1.808212	0.546875	0.367617
O41	O	0.971808	-0.301874	-0.199673
O42	O	1.221808	-0.051874	0.050327
O43	O	1.471808	0.198126	0.300327
O44	O	1.721808	0.448126	0.550327
O45	O	0.857983	-0.297498	-0.297365
O46	O	1.107983	-0.047498	-0.047365
O47	O	1.357983	0.202502	0.202635
O48	O	1.607983	0.452502	0.452635
O49	O	0.971855	-0.379175	-0.481074
O50	O	1.221855	-0.129175	-0.231074
O51	O	1.471855	0.120825	0.018926
O52	O	1.721855	0.370825	0.268926
O53	O	0.857958	-0.374813	-0.374663
O54	O	1.107958	-0.124813	-0.124663
O55	O	1.357958	0.125187	0.125337
O56	O	1.607958	0.375187	0.375337
O57	O	1.058179	-0.305166	-0.484401
O58	O	1.308179	-0.055166	-0.234401
O59	O	1.558179	0.194834	0.015599
O60	O	1.808179	0.444834	0.265599
O61	O	1.057993	-0.484545	-0.304969
O62	O	1.307993	-0.234545	-0.054969
O63	O	1.557993	0.015455	0.195031
O64	O	1.807993	0.265455	0.445031
O65	O	0.971750	-0.481229	-0.378989
O66	O	1.221750	-0.231229	-0.128989
O67	O	1.471750	0.018771	0.121011
O68	O	1.721750	0.268771	0.371011
C69	C	0.832487	-0.335178	-0.335039
C70	C	1.082487	-0.085178	-0.085039
C71	C	1.332487	0.164822	0.164961
C72	C	1.582487	0.414822	0.414961
C73	C	0.754421	-0.332198	-0.332065
C74	C	1.004421	-0.082198	-0.082065
C75	C	1.254421	0.167802	0.167935
C76	C	1.504421	0.417802	0.417935
C77	C	0.717751	-0.371112	-0.370850
C78	C	0.967751	-0.121112	-0.120850
C79	C	1.217751	0.128888	0.129150
C80	C	1.467751	0.378888	0.379150
C81	C	0.644400	-0.368304	-0.368059
C82	C	0.894400	-0.118304	-0.118059
C83	C	1.144400	0.131696	0.131941
C84	C	1.394400	0.381696	0.381941
C85	C	0.607720	-0.326584	-0.326480
C86	C	0.857720	-0.076584	-0.076480
C87	C	1.107720	0.173416	0.173520
C88	C	1.357720	0.423416	0.423520
C89	C	0.644395	-0.287665	-0.287693
C90	C	0.894395	-0.037665	-0.037693
C91	C	1.144395	0.212335	0.212307
C92	C	1.394395	0.462335	0.462307
C93	C	0.717745	-0.290471	-0.290488
C94	C	0.967745	-0.040471	-0.040488
C95	C	1.217745	0.209529	0.209512
C96	C	1.467745	0.459529	0.459512
C97	C	0.386251	-0.316092	-0.316035
C98	C	0.636251	-0.066092	-0.066035
C99	C	0.886251	0.183908	0.183965
C100	C	1.136251	0.433908	0.433965
C101	C	0.312896	-0.313291	-0.313242
C102	C	0.562896	-0.063291	-0.063242
C103	C	0.812896	0.186709	0.186758
C104	C	1.062896	0.436709	0.436758
C105	C	0.312905	-0.393929	-0.393608
C106	C	0.562905	-0.143929	-0.143608
C107	C	0.812905	0.106071	0.106392
C108	C	1.062905	0.356071	0.356392
C109	C	0.386256	-0.396733	-0.396396
C110	C	0.636256	-0.146733	-0.146396
C111	C	0.886256	0.103267	0.103604
C112	C	1.136256	0.353267	0.353604
C113	C	0.422925	-0.357813	-0.357613
C114	C	0.672925	-0.107813	-0.107613
C115	C	0.922925	0.142187	0.142387
C116	C	1.172925	0.392187	0.392387
C117	C	0.532743	-0.323713	-0.323625
C118	C	0.782743	-0.073713	-0.073625
C119	C	1.032743	0.176287	0.176375
C120	C	1.282743	0.426287	0.426375
C121	C	0.497901	-0.360680	-0.360471
C122	C	0.747901	-0.110680	-0.110471
C123	C	0.997901	0.139320	0.139529
C124	C	1.247901	0.389320	0.389529
C125	C	1.014875	-0.505728	-0.341986
C126	C	1.264875	-0.255728	-0.091986
C127	C	1.514875	-0.005728	0.158014
C128	C	1.764875	0.244272	0.408014
C129	C	1.014900	-0.575697	-0.341993
C130	C	1.264900	-0.325697	-0.091993
C131	C	1.514900	-0.075697	0.158007
C132	C	1.764900	0.174303	0.408007
C133	C	1.059847	-0.610271	-0.303494
C134	C	1.309847	-0.360271	-0.053494
C135	C	1.559847	-0.110271	0.196506
C136	C	1.809847	0.139729	0.446506
C137	C	1.059879	-0.676014	-0.303509
C138	C	1.309879	-0.426014	-0.053509
C139	C	1.559879	-0.176014	0.196491
C140	C	1.809879	0.073986	0.446491
C141	C	1.014953	-0.707181	-0.342017
C142	C	1.264953	-0.457181	-0.092017
C143	C	1.514953	-0.207181	0.157983
C144	C	1.764953	0.042819	0.407983
C145	C	0.970003	-0.672600	-0.380524
C146	C	1.220003	-0.422600	-0.130524
C147	C	1.470003	-0.172600	0.119476
C148	C	1.720003	0.077400	0.369476
C149	C	0.969977	-0.606857	-0.380512
C150	C	1.219977	-0.356857	-0.130512
C151	C	1.469977	-0.106857	0.119488
C152	C	1.719977	0.143143	0.369488
N153	N	0.953513	-0.808095	-0.344464
N154	N	1.203513	-0.558095	-0.094464
N155	N	1.453513	-0.308095	0.155536
N156	N	1.703513	-0.058095	0.405536
N157	N	0.953540	-0.870547	-0.344471
N158	N	1.203540	-0.620547	-0.094471
N159	N	1.453540	-0.370547	0.155529
N160	N	1.703540	-0.120547	0.405529
C161	C	1.015032	-0.905259	-0.342056
C162	C	1.265032	-0.655259	-0.092056
C163	C	1.515032	-0.405259	0.157944
C164	C	1.765032	-0.155259	0.407944
N165	N	1.076496	-0.875159	-0.339620
N166	N	1.326496	-0.625159	-0.089620
N167	N	1.576496	-0.375159	0.160380
N168	N	1.826496	-0.125159	0.410380
N169	N	1.076468	-0.812701	-0.339609
N170	N	1.326468	-0.562701	-0.089609
N171	N	1.576468	-0.312701	0.160391
N172	N	1.826468	-0.062701	0.410391
C173	C	1.014977	-0.778468	-0.342034
C174	C	1.264977	-0.528468	-0.092034
C175	C	1.514977	-0.278468	0.157966
C176	C	1.764977	-0.028468	0.407966
C177	C	1.060018	-1.011120	-0.303571
C178	C	1.310018	-0.761120	-0.053571
C179	C	1.560018	-0.511120	0.196429
C180	C	1.810018	-0.261120	0.446429
C181	C	1.060052	-1.076865	-0.303591
C182	C	1.310052	-0.826865	-0.053591
C183	C	1.560052	-0.576865	0.196409
C184	C	1.810052	-0.326865	0.446409
C185	C	0.970170	-1.073449	-0.380603
C186	C	1.220170	-0.823449	-0.130603
C187	C	1.470170	-0.573449	0.119397
C188	C	1.720170	-0.323449	0.369397
C189	C	0.970142	-1.007705	-0.380586
C190	C	1.220142	-0.757705	-0.130586
C191	C	1.470142	-0.507705	0.119414
C192	C	1.720142	-0.257705	0.369414
C193	C	1.015065	-0.976545	-0.342067
C194	C	1.265065	-0.726545	-0.092067
C195	C	1.515065	-0.476545	0.157933
C196	C	1.765065	-0.226545	0.407933
C197	C	1.198160	-0.349209	-0.349038
C198	C	1.448160	-0.099209	-0.099038
C199	C	1.698160	0.150791	0.150962
C200	C	1.948160	0.400791	0.400962
C201	C	1.276226	-0.352205	-0.352026
C202	C	1.526226	-0.102205	-0.102026
C203	C	1.776226	0.147795	0.147974
C204	C	2.026226	0.397795	0.397974
C205	C	1.015025	-0.342169	-0.506217
C206	C	1.265025	-0.092169	-0.256217
C207	C	1.515025	0.157831	-0.006217
C208	C	1.765025	0.407831	0.243783
C209	C	1.015050	-0.342164	-0.576186
C210	C	1.265050	-0.092164	-0.326186
C211	C	1.515050	0.157836	-0.076186
C212	C	1.765050	0.407836	0.173814
C213	C	1.015079	-0.177994	-0.342077
C214	C	1.265079	0.072006	-0.092077
C215	C	1.515079	0.322006	0.157923
C216	C	1.765079	0.572006	0.407923
C217	C	1.015126	-0.108027	-0.342100
C218	C	1.265126	0.141973	-0.092100
C219	C	1.515126	0.391973	0.157900
C220	C	1.765126	0.641973	0.407900
C221	C	1.059997	-0.303625	-0.610786
C222	C	1.309997	-0.053625	-0.360786
C223	C	1.559997	0.196375	-0.110786
C224	C	1.809997	0.446375	0.139214
C225	C	1.059996	-0.303598	-0.676529
C226	C	1.309996	-0.053598	-0.426529
C227	C	1.559996	0.196402	-0.176529
C228	C	1.809996	0.446402	0.073471
C229	C	1.015056	-0.342121	-0.707669
C230	C	1.265056	-0.092121	-0.457669
C231	C	1.515056	0.157879	-0.207669
C232	C	1.765056	0.407879	0.042331
C233	C	0.970100	-0.380662	-0.673060
C234	C	1.220100	-0.130662	-0.423060
C235	C	1.470100	0.119338	-0.173060
C236	C	1.720100	0.369338	0.076940
C237	C	0.970098	-0.380683	-0.607319
C238	C	1.220098	-0.130683	-0.357319
C239	C	1.470098	0.119317	-0.107319
C240	C	1.720098	0.369317	0.142681
N241	N	1.009637	-0.396981	-0.810677
N242	N	1.259637	-0.146981	-0.560677
N243	N	1.509637	0.103019	-0.310677
N244	N	1.759637	0.353019	-0.060677
N245	N	1.009644	-0.396959	-0.873129
N246	N	1.259644	-0.146959	-0.623129
N247	N	1.509644	0.103041	-0.373129
N248	N	1.759644	0.353041	-0.123129
C249	C	1.015060	-0.342057	-0.905744
C250	C	1.265060	-0.092057	-0.655744
C251	C	1.515060	0.157943	-0.405744
C252	C	1.765060	0.407943	-0.155744
N253	N	1.020483	-0.287178	-0.873548
N254	N	1.270483	-0.037178	-0.623548
N255	N	1.520483	0.212822	-0.373548
N256	N	1.770483	0.462822	-0.123548
N257	N	1.020480	-0.287201	-0.811091
N258	N	1.270480	-0.037201	-0.561091
N259	N	1.520480	0.212799	-0.311091
N260	N	1.770480	0.462799	-0.061091
C261	C	1.015053	-0.342101	-0.778954
C262	C	1.265053	-0.092101	-0.528954
C263	C	1.515053	0.157899	-0.278954
C264	C	1.765053	0.407899	-0.028954
C265	C	1.060008	-0.303486	-1.011630
C266	C	1.310008	-0.053486	-0.761630
C267	C	1.560008	0.196514	-0.511630
C268	C	1.810008	0.446514	-0.261630
C269	C	1.060002	-0.303457	-1.077373
C270	C	1.310002	-0.053457	-0.827373
C271	C	1.560002	0.196543	-0.577373
C272	C	1.810002	0.446543	-0.327373
C273	C	0.970110	-0.380527	-1.073904
C274	C	1.220110	-0.130527	-0.823904
C275	C	1.470110	0.119473	-0.573904
C276	C	1.720110	0.369473	-0.323904
C277	C	0.970113	-0.380550	-1.008161
C278	C	1.220113	-0.130550	-0.758161
C279	C	1.470113	0.119450	-0.508161
C280	C	1.720113	0.369450	-0.258161
C281	C	1.015065	-0.342030	-0.977028
C282	C	1.265065	-0.092030	-0.727028
C283	C	1.515065	0.157970	-0.477028
C284	C	1.765065	0.407970	-0.227028
C285	C	1.014949	-0.342147	-0.178472
C286	C	1.264949	-0.092147	0.071528
C287	C	1.514949	0.157853	0.321528
C288	C	1.764949	0.407853	0.571528
C289	C	1.015061	-0.341979	-0.108509
C290	C	1.265061	-0.091979	0.141491
C291	C	1.515061	0.158021	0.391491
C292	C	1.765061	0.408021	0.641491
H293	H	0.416098	-0.284405	-0.284449
H294	H	0.666098	-0.034405	-0.034449
H295	H	0.916098	0.215595	0.215551
H296	H	1.166098	0.465595	0.465551
H297	H	0.933512	-0.411886	-1.099257
H298	H	1.183512	-0.161886	-0.849257
H299	H	1.433512	0.088114	-0.599257
H300	H	1.683512	0.338114	-0.349257
Br301	Br	1.120981	-0.968827	-0.251295
Br302	Br	1.370981	-0.718827	-0.001295
Br303	Br	1.620981	-0.468827	0.248705
Br304	Br	1.870981	-0.218827	0.498705
Br305	Br	1.120883	-0.722946	-0.251256
Br306	Br	1.370883	-0.472946	-0.001256
Br307	Br	1.620883	-0.222946	0.248744
Br308	Br	1.870883	0.027054	0.498744
Br309	Br	0.767513	-0.237653	-0.237853
Br310	Br	1.017513	0.012347	0.012147
Br311	Br	1.267513	0.262347	0.262147
Br312	Br	1.517513	0.512347	0.512147
H313	H	1.096427	-0.584902	-0.272131
H314	H	1.346427	-0.334902	-0.022131
H315	H	1.596427	-0.084902	0.227869
H316	H	1.846427	0.165098	0.477869
Br317	Br	1.121017	-0.251160	-1.124333
Br318	Br	1.371017	-0.001160	-0.874333
Br319	Br	1.621017	0.248840	-0.624333
Br320	Br	1.871017	0.498840	-0.374333
H321	H	0.614546	-0.399992	-0.399641
H322	H	0.864546	-0.149992	-0.149641
H323	H	1.114546	0.100008	0.100359
H324	H	1.364546	0.350008	0.350359
H325	H	0.283041	-0.425615	-0.425185
H326	H	0.533041	-0.175615	-0.175185
H327	H	0.783041	0.074385	0.074815
H328	H	1.033041	0.324385	0.324815
Br329	Br	0.908974	-0.559932	-0.432767
Br330	Br	1.158974	-0.309932	-0.182767
Br331	Br	1.408974	-0.059932	0.067233
Br332	Br	1.658974	0.190068	0.317233
Br333	Br	0.909093	-0.432989	-0.560358
Br334	Br	1.159093	-0.182989	-0.310358
Br335	Br	1.409093	0.067011	-0.060358
Br336	Br	1.659093	0.317011	0.189642
Br337	Br	0.909111	-0.432856	-0.961200
Br338	Br	1.159111	-0.182856	-0.711200
Br339	Br	1.409111	0.067144	-0.461200
Br340	Br	1.659111	0.317144	-0.211200
Br341	Br	1.121011	-0.251209	-0.969374
Br342	Br	1.371011	-0.001209	-0.719374
Br343	Br	1.621011	0.248791	-0.469374
Br344	Br	1.871011	0.498791	-0.219374
H345	H	1.096658	-1.105014	-0.272241
H346	H	1.346658	-0.855014	-0.022241
H347	H	1.596658	-0.605014	0.227759
H348	H	1.846658	-0.355014	0.477759
H349	H	0.747610	-0.405087	-0.404706
H350	H	0.997610	-0.155087	-0.154706
H351	H	1.247610	0.094913	0.095294
H352	H	1.497610	0.344913	0.345294
Br353	Br	0.909037	-0.714896	-0.432790
Br354	Br	1.159037	-0.464896	-0.182790
Br355	Br	1.409037	-0.214896	0.067210
Br356	Br	1.659037	0.035104	0.317210
H357	H	0.933593	-1.098824	-0.411959
H358	H	1.183593	-0.848824	-0.161959
H359	H	1.433593	-0.598824	0.088041
H360	H	1.683593	-0.348824	0.338041
Br361	Br	0.482958	-0.267093	-0.267199
Br362	Br	0.732958	-0.017093	-0.017199
Br363	Br	0.982958	0.232907	0.232801
Br364	Br	1.232958	0.482907	0.482801
Br365	Br	0.263116	-0.256674	-0.256802
Br366	Br	0.513116	-0.006674	-0.006802
Br367	Br	0.763116	0.243326	0.243198
Br368	Br	1.013116	0.493326	0.493198
Br369	Br	0.436031	-0.453359	-0.452824
Br370	Br	0.686031	-0.203359	-0.202824
Br371	Br	0.936031	0.046641	0.047176
Br372	Br	1.186031	0.296641	0.297176
Br373	Br	0.909137	-0.960780	-0.432837
Br374	Br	1.159137	-0.710780	-0.182837
Br375	Br	1.409137	-0.460780	0.067163
Br376	Br	1.659137	-0.210780	0.317163
H377	H	1.096600	-0.272259	-0.585442
H378	H	1.346600	-0.022259	-0.335442
H379	H	1.596600	0.227741	-0.085442
H380	H	1.846600	0.477741	0.164558
H381	H	1.096595	-0.272212	-0.704706
H382	H	1.346595	-0.022212	-0.454706
H383	H	1.596595	0.227788	-0.204706
H384	H	1.846595	0.477788	0.045294
H385	H	0.614525	-0.253693	-0.253842
H386	H	0.864525	-0.003693	-0.003842
H387	H	1.114525	0.246307	0.246158
H388	H	1.364525	0.496307	0.496158
H389	H	0.527768	-0.394646	-0.394328
H390	H	0.777768	-0.144646	-0.144328
H391	H	1.027768	0.105354	0.105672
H392	H	1.277768	0.355354	0.355672
Br393	Br	0.909105	-0.432939	-0.715319
Br394	Br	1.159105	-0.182939	-0.465319
Br395	Br	1.409105	0.067061	-0.215319
Br396	Br	1.659105	0.317061	0.034681
