data_functionalizedCrystal
_audit_creation_method	'MofGen! by Chris Wilmer'
_symmetry_space_group_name_H-M	'P1'
_symmetry_Int_Tables_number	1
_symmetry_cell_setting	triclinic
loop_
_symmetry_equiv_pos_as_xyz
  x,y,z
_cell_length_a	10.686220
_cell_length_b	19.121063
_cell_length_c	10.685880
_cell_angle_alpha	96.950877
_cell_angle_beta	89.641569
_cell_angle_gamma	96.652836
loop_
_atom_site_label
_atom_site_type_symbol
_atom_site_fract_x
_atom_site_fract_y
_atom_site_fract_z
Zn1	Zn	1.956641	-0.220680	-0.580432
Zn2	Zn	2.456641	0.279320	-0.080432
Zn3	Zn	1.932645	-0.330611	-0.379675
Zn4	Zn	2.432645	0.169389	0.120325
Zn5	Zn	1.730668	-0.222121	-0.386872
Zn6	Zn	2.230668	0.277879	0.113128
Zn7	Zn	1.737791	-0.348580	-0.606918
Zn8	Zn	2.237791	0.151420	-0.106918
O9	O	1.839436	-0.280498	-0.488474
O10	O	2.339436	0.219502	0.011526
O11	O	2.129575	-0.227140	-0.539705
O12	O	2.629575	0.272860	-0.039705
O13	O	1.892829	-0.309303	-0.204523
O14	O	2.392829	0.190697	0.295477
O15	O	1.767706	-0.122999	-0.404476
O16	O	2.267706	0.377001	0.095524
O17	O	2.111945	-0.307906	-0.392210
O18	O	2.611945	0.192094	0.107790
O19	O	1.933727	-0.121941	-0.546683
O20	O	2.433727	0.378059	-0.046683
O21	O	1.744438	-0.229595	-0.209810
O22	O	2.244438	0.270405	0.290190
O23	O	1.555496	-0.247019	-0.430158
O24	O	2.055496	0.252981	0.069842
O25	O	1.779845	-0.338531	-0.779511
O26	O	2.279845	0.161469	-0.279511
O27	O	1.560729	-0.339928	-0.591825
O28	O	2.060729	0.160072	-0.091825
O29	O	1.940633	-0.244563	-0.760052
O30	O	2.440633	0.255437	-0.260052
O31	O	1.899736	-0.431925	-0.417892
O32	O	2.399736	0.068075	0.082108
O33	O	1.756577	-0.445127	-0.584846
O34	O	2.256577	0.054873	-0.084846
C35	C	1.512447	-0.295580	-0.514647
C36	C	2.012447	0.204420	-0.014647
C37	C	1.372560	-0.302051	-0.525875
C38	C	1.872560	0.197949	-0.025875
C39	C	1.826362	-0.464177	-0.503487
C40	C	2.326362	0.035823	-0.003487
C41	C	1.820886	-0.542752	-0.509942
C42	C	2.320886	-0.042752	-0.009942
C43	C	1.892917	-0.572770	-0.426113
C44	C	2.392917	-0.072770	0.073887
C45	C	1.887775	-0.646600	-0.432191
C46	C	2.387775	-0.146600	0.067809
C47	C	1.810596	-0.690411	-0.522093
C48	C	2.310596	-0.190411	-0.022093
C49	C	1.738563	-0.660389	-0.605932
C50	C	2.238563	-0.160389	-0.105932
C51	C	1.743712	-0.586560	-0.599859
C52	C	2.243712	-0.086560	-0.099859
C53	C	1.791323	-0.913671	-0.544781
C54	C	2.291323	-0.413671	-0.044781
C55	C	1.786177	-0.987505	-0.550846
C56	C	2.286177	-0.487505	-0.050846
C57	C	1.935391	-0.973711	-0.377105
C58	C	2.435391	-0.473711	0.122895
C59	C	1.940528	-0.899881	-0.371035
C60	C	2.440528	-0.399881	0.128965
C61	C	1.868500	-0.869865	-0.454878
C62	C	2.368500	-0.369865	0.045122
C63	C	1.805336	-0.765877	-0.528306
C64	C	2.305336	-0.265877	-0.028306
C65	C	1.873768	-0.794400	-0.448670
C66	C	2.373768	-0.294400	0.051330
C67	C	2.167702	-0.265357	-0.462200
C68	C	2.667702	0.234643	0.037800
C69	C	2.307590	-0.258905	-0.451004
C70	C	2.807590	0.241095	0.048996
C71	C	1.863710	-0.293391	-0.816721
C72	C	2.363710	0.206609	-0.316721
C73	C	1.874054	-0.298885	-0.956601
C74	C	2.374054	0.201115	-0.456601
C75	C	1.852598	-0.096101	-0.473428
C76	C	2.352598	0.403899	0.026572
C77	C	1.858207	-0.017522	-0.467016
C78	C	2.358207	0.482478	0.032984
C79	C	1.815333	-0.267601	-0.161494
C80	C	2.315333	0.232399	0.338506
C81	C	1.805247	-0.261896	-0.021580
C82	C	2.305247	0.238104	0.478420
H83	H	1.955758	-0.537103	-0.352899
H84	H	2.455758	-0.037103	0.147101
C85	C	1.714966	-0.213435	-0.952178
C86	C	2.214966	0.286565	-0.452178
H87	H	1.719624	-0.215971	-0.864115
H88	H	2.219624	0.284029	-0.364115
H89	H	1.631238	-0.228513	-0.981276
H90	H	2.131238	0.271487	-0.481276
H91	H	1.738359	-0.165916	-0.968306
H92	H	2.238359	0.334084	-0.468306
H93	H	1.946429	-0.671036	-0.363927
H94	H	2.446429	-0.171036	0.136073
H95	H	2.003373	-0.864211	-0.297829
H96	H	2.503373	-0.364211	0.202171
C97	C	1.377005	-0.202311	-0.352806
C98	C	1.877005	0.297689	0.147194
H99	H	1.317489	-0.176114	-0.307335
H100	H	1.817489	0.323886	0.192665
H101	H	1.434045	-0.171101	-0.394456
H102	H	1.934045	0.328899	0.105544
H103	H	1.422296	-0.224808	-0.296028
H104	H	1.922296	0.275192	0.203972
C105	C	1.964344	-0.347346	-1.026007
C106	C	2.464344	0.152654	-0.526007
H107	H	1.959701	-0.344804	-1.114069
H108	H	2.459701	0.155196	-0.614069
H109	H	1.940969	-0.394862	-1.009875
H110	H	2.440969	0.105138	-0.509875
H111	H	2.048075	-0.332258	-0.996907
H112	H	2.548075	0.167742	-0.496907
H113	H	1.732673	-0.889238	-0.613047
H114	H	2.232673	-0.389238	-0.113047
C115	C	1.303135	-0.358645	-0.624080
C116	C	1.803135	0.141355	-0.124080
H117	H	1.215069	-0.355716	-0.619004
H118	H	1.715069	0.144284	-0.119004
H119	H	1.319876	-0.404418	-0.607706
H120	H	1.819876	0.095582	-0.107706
H121	H	1.331618	-0.350704	-0.706124
H122	H	1.831618	0.149296	-0.206124
C123	C	1.720438	-0.814069	-0.627192
C124	C	2.220438	-0.314069	-0.127192
H125	H	1.678275	-0.785620	-0.676258
H126	H	2.178275	-0.285620	-0.176258
H127	H	1.660073	-0.843547	-0.585764
H128	H	2.160073	-0.343547	-0.085764
H129	H	1.770603	-0.842764	-0.680583
H130	H	2.270603	-0.342764	-0.180583
H131	H	1.675728	-0.696066	-0.679138
H132	H	2.175728	-0.196066	-0.179138
H133	H	1.994034	-0.998158	-0.308847
H134	H	2.494034	-0.498158	0.191153
H135	H	1.723345	-1.023175	-0.624076
H136	H	2.223345	-0.523175	-0.124076
H137	H	1.936612	-0.758727	-0.375476
H138	H	2.436612	-0.258727	0.124524
C139	C	1.664482	-0.553540	-0.692073
C140	C	2.164482	-0.053540	-0.192073
H141	H	1.617772	-0.590205	-0.746480
H142	H	2.117772	-0.090205	-0.246480
H143	H	1.718655	-0.524640	-0.740720
H144	H	2.218655	-0.024640	-0.240720
H145	H	1.608120	-0.525413	-0.645907
H146	H	2.108120	-0.025413	-0.145907
