data_functionalizedCrystal
_audit_creation_method	'MofGen! by Chris Wilmer'
_symmetry_space_group_name_H-M	'P1'
_symmetry_Int_Tables_number	1
_symmetry_cell_setting	triclinic
loop_
_symmetry_equiv_pos_as_xyz
  x,y,z
_cell_length_a	10.654551
_cell_length_b	10.654550
_cell_length_c	8.140239
_cell_angle_alpha	89.997641
_cell_angle_beta	89.997850
_cell_angle_gamma	84.485087
loop_
_atom_site_label
_atom_site_type_symbol
_atom_site_fract_x
_atom_site_fract_y
_atom_site_fract_z
O1	O	1.667838	0.176402	-0.136588
O2	O	1.302359	0.193207	-0.136595
O3	O	1.493501	0.002065	-0.136585
O4	O	1.476695	0.367544	-0.136598
O5	O	1.493491	0.002063	0.136642
O6	O	1.302349	0.193205	0.136632
O7	O	1.667827	0.176400	0.136639
Zn8	Zn	1.485086	0.184802	0.180016
Zn9	Zn	1.485100	0.184805	-0.179972
O10	O	1.476685	0.367542	0.136629
C11	C	1.255556	0.191972	0.000017
C12	C	1.116113	0.188279	0.000014
C13	C	1.492262	-0.044734	0.000026
C14	C	1.488570	-0.184177	0.000020
C15	C	0.919575	0.183060	0.148952
C16	C	1.050595	0.186541	0.148953
C17	C	1.050601	0.186550	-0.148934
C18	C	0.919582	0.183079	-0.148933
C19	C	0.854066	0.181309	0.297901
C20	C	0.919568	0.183041	0.446850
C21	C	1.050589	0.186521	0.446850
C22	C	1.116107	0.188270	0.297902
C23	C	1.601112	-0.263662	0.000028
C24	C	1.597635	-0.394683	0.000016
C25	C	1.369066	-0.366720	-0.000003
C26	C	1.372544	-0.235702	-0.000003
C27	C	1.717138	-0.212137	0.000051
C28	C	1.829689	-0.291624	0.000060
C29	C	1.826212	-0.422645	0.000049
C30	C	1.710185	-0.474179	0.000028
C31	C	1.714630	0.177635	0.000023
C32	C	1.854073	0.181327	0.000015
C33	C	1.477924	0.414341	0.000014
C34	C	1.481616	0.553784	0.000009
N35	N	1.485086	0.184799	0.425699
N36	N	1.485110	0.184798	-0.425655
H37	H	0.747383	0.178473	0.297917
C38	C	1.720973	-0.068013	0.000064
N39	N	1.723860	0.040541	0.000076
H40	H	1.103957	0.187973	-0.270201
H41	H	0.866213	0.181627	0.568118
H42	H	1.103915	0.187944	0.568132
C43	C	1.957312	-0.234933	0.000081
N44	N	2.053440	-0.192235	0.000100
C45	C	1.260233	0.192105	0.297911
N46	N	1.368789	0.194986	0.297920
H47	H	1.917857	-0.487360	0.000039
C48	C	1.706368	-0.618307	0.000006
N49	N	1.703494	-0.726864	-0.000003
C50	C	1.241445	-0.423414	0.000000
N51	N	1.145318	-0.466116	0.000014
H52	H	1.280902	-0.170983	-0.000007
H53	H	0.866249	0.181671	-0.270211
