data_functionalizedCrystal
_audit_creation_method	'MofGen! by Chris Wilmer'
_symmetry_space_group_name_H-M	'P1'
_symmetry_Int_Tables_number	1
_symmetry_cell_setting	triclinic
loop_
_symmetry_equiv_pos_as_xyz
  x,y,z
_cell_length_a	6.817900
_cell_length_b	17.982783
_cell_length_c	14.858572
_cell_angle_alpha	95.362850
_cell_angle_beta	104.524003
_cell_angle_gamma	102.448572
loop_
_atom_site_label
_atom_site_type_symbol
_atom_site_fract_x
_atom_site_fract_y
_atom_site_fract_z
V1	V	-4.033194	-0.105892	-0.290348
O2	O	-4.025835	0.004595	-0.284424
O3	O	-3.979617	-0.209492	-0.288744
O4	O	-3.989902	-0.104480	-0.416804
O5	O	-4.015479	-0.101144	-0.155477
V6	V	-4.516830	-0.092651	-0.274170
O7	O	-4.294202	-0.134938	-0.325836
O8	O	-4.706019	-0.063605	-0.238682
O9	O	-4.347200	0.010949	-0.275774
O10	O	-4.641586	-0.203138	-0.280094
O11	O	-4.651942	-0.097399	-0.409041
O12	O	-4.336916	-0.094063	-0.147713
C13	C	-3.823193	-0.234740	-0.284262
C14	C	-3.860709	-0.319436	-0.283794
C15	C	-3.835225	-0.348204	-0.198369
C16	C	-3.870495	-0.427785	-0.197933
C17	C	-3.931234	-0.478596	-0.282921
C18	C	-3.956725	-0.449823	-0.368353
C19	C	-3.921470	-0.370243	-0.368789
C20	C	-4.098909	-0.770758	-0.366596
C21	C	-4.134158	-0.850342	-0.366153
C22	C	-4.047935	-0.828300	-0.195739
C23	C	-4.012680	-0.748720	-0.196175
C24	C	-4.038184	-0.719954	-0.281607
C25	C	-3.999943	-0.633663	-0.282079
C26	C	-3.969460	-0.564885	-0.282449
C27	C	-3.836312	-0.100786	-0.447615
C28	C	-3.882165	-0.100317	-0.550996
C29	C	-4.049990	-0.098602	-0.929558
C30	C	-4.003288	-0.099079	-0.824230
C31	C	-3.966079	-0.099460	-0.740280
C32	C	-3.919374	-0.099936	-0.634946
C33	C	-4.166966	0.036193	-0.280253
C34	C	-4.108689	0.120888	-0.280727
C35	C	-4.153848	-0.097759	-0.116898
C36	C	-4.087233	-0.098225	-0.013516
H37	H	-4.027179	-0.851730	-0.126177
O38	O	-4.193260	-0.899597	-0.448803
C39	C	-4.208168	-0.857143	-0.524300
H40	H	-4.233646	-0.798534	-0.501251
H41	H	-4.057410	-0.848649	-0.546460
C42	C	-4.362396	-0.973396	-0.636282
C43	C	-4.393706	-0.901415	-0.607974
H44	H	-4.476836	-1.000706	-0.687898
H45	H	-4.352345	-1.001999	-0.585419
H46	H	-4.236757	-0.966308	-0.654742
H47	H	-4.519327	-0.908504	-0.589504
H48	H	-4.403782	-0.872814	-0.658837
O49	O	-3.946547	-0.342265	-0.451756
C50	C	-4.101724	-0.300570	-0.461516
H51	H	-4.208815	-0.320881	-0.416121
H52	H	-4.024308	-0.236463	-0.437955
C53	C	-4.099616	-0.289239	-0.621082
C54	C	-4.231158	-0.314191	-0.565333
H55	H	-4.179451	-0.297637	-0.685122
H56	H	-3.995064	-0.317327	-0.614506
H57	H	-4.035111	-0.235818	-0.601437
H58	H	-4.295639	-0.367612	-0.584971
H59	H	-4.335724	-0.286112	-0.571915
O60	O	-3.953943	-0.699294	-0.113685
C61	C	-4.104027	-0.656310	-0.113256
H62	H	-4.193854	-0.655188	-0.188778
H63	H	-4.217502	-0.684128	-0.074137
C64	C	-3.883015	-0.574674	0.029146
C65	C	-3.993330	-0.573290	-0.063612
H66	H	-3.814736	-0.523465	0.059771
H67	H	-3.781903	-0.603635	0.028859
H68	H	-3.977597	-0.597860	0.061732
H69	H	-3.898745	-0.550115	-0.096200
H70	H	-4.094424	-0.544324	-0.063330
H71	H	-4.119653	-0.747346	-0.436158
H72	H	-3.785751	-0.306838	-0.129161
O73	O	-4.016003	-0.499261	-0.450857
C74	C	-4.212020	-0.549634	-0.460136
H75	H	-4.237557	-0.553219	-0.387564
H76	H	-4.340869	-0.526990	-0.505451
C77	C	-4.186225	-0.626001	-0.596226
C78	C	-4.217582	-0.630409	-0.507090
H79	H	-4.189662	-0.675826	-0.625193
H80	H	-4.054167	-0.592063	-0.589977
H81	H	-4.293604	-0.607128	-0.633977
H82	H	-4.110189	-0.649273	-0.469337
H83	H	-4.349622	-0.664353	-0.513334
H84	H	-3.849746	-0.451204	-0.128371
