data_functionalizedCrystal
_audit_creation_method	'MofGen! by Chris Wilmer'
_symmetry_space_group_name_H-M	'P1'
_symmetry_Int_Tables_number	1
_symmetry_cell_setting	triclinic
loop_
_symmetry_equiv_pos_as_xyz
  x,y,z
_cell_length_a	10.723024
_cell_length_b	14.519731
_cell_length_c	9.198806
_cell_angle_alpha	89.995832
_cell_angle_beta	89.996352
_cell_angle_gamma	84.078361
loop_
_atom_site_label
_atom_site_type_symbol
_atom_site_fract_x
_atom_site_fract_y
_atom_site_fract_z
O1	O	1.655992	0.129346	-0.120887
O2	O	1.989325	0.462680	0.212447
O3	O	2.322658	0.796013	0.545780
O4	O	1.292725	0.141727	-0.120892
O5	O	1.626058	0.475061	0.212441
O6	O	1.959391	0.808394	0.545775
O7	O	1.483976	0.001349	-0.120876
O8	O	1.817309	0.334682	0.212457
O9	O	2.150642	0.668015	0.545791
O10	O	1.464740	0.269725	-0.120903
O11	O	1.798074	0.603058	0.212431
O12	O	2.131407	0.936391	0.545764
O13	O	1.483961	0.001348	0.120909
O14	O	1.817294	0.334682	0.454242
O15	O	2.150627	0.668015	0.787576
O16	O	1.292710	0.141727	0.120893
O17	O	1.626043	0.475060	0.454226
O18	O	1.959376	0.808393	0.787560
O19	O	1.655976	0.129346	0.120898
O20	O	1.989310	0.462679	0.454232
O21	O	2.322643	0.796012	0.787565
Cu22	Cu	1.474342	0.135536	0.142973
Cu23	Cu	1.807675	0.468870	0.476306
Cu24	Cu	2.141008	0.802203	0.809639
Cu25	Cu	1.474360	0.135537	-0.142966
Cu26	Cu	1.807693	0.468870	0.190367
Cu27	Cu	2.141026	0.802203	0.523700
O28	O	1.464725	0.269724	0.120882
O29	O	1.798059	0.603058	0.454216
O30	O	2.131392	0.936391	0.787549
C31	C	1.246226	0.140826	0.000000
C32	C	1.579559	0.474159	0.333333
C33	C	1.912892	0.807493	0.666667
C34	C	1.107697	0.138130	-0.000002
C35	C	1.441030	0.471464	0.333332
C36	C	1.774363	0.804797	0.666665
C37	C	0.916714	0.054394	0.000004
C38	C	1.250047	0.387728	0.333337
C39	C	1.583380	0.721061	0.666671
C40	C	1.059891	0.057179	0.000006
C41	C	1.393225	0.390512	0.333339
C42	C	1.726558	0.723845	0.666672
C43	C	1.483067	-0.033016	0.000017
C44	C	1.816400	0.300318	0.333350
C45	C	2.149734	0.633651	0.666684
C46	C	1.480366	-0.135410	0.000018
C47	C	1.813699	0.197924	0.333351
C48	C	2.147033	0.531257	0.666684
C49	C	1.478172	-0.218565	0.000014
C50	C	1.811505	0.114768	0.333348
C51	C	2.144838	0.448102	0.666681
C52	C	1.475429	-0.322888	0.000003
C53	C	1.808763	0.010446	0.333337
C54	C	2.142096	0.343779	0.666670
C55	C	1.473253	-0.406038	-0.000006
C56	C	1.806586	-0.072705	0.333327
C57	C	2.139920	0.260629	0.666660
C58	C	1.470511	-0.510367	-0.000015
C59	C	1.803845	-0.177034	0.333319
C60	C	2.137178	0.156299	0.666652
C61	C	1.702475	0.130247	0.000003
C62	C	2.035809	0.463580	0.333337
C63	C	2.369142	0.796914	0.666670
C64	C	1.841005	0.132943	-0.000005
C65	C	2.174338	0.466276	0.333329
C66	C	2.507671	0.799609	0.666662
C67	C	1.465634	0.304089	-0.000014
C68	C	1.798968	0.637422	0.333320
C69	C	2.132301	0.970755	0.666653
C70	C	1.468335	0.406483	-0.000024
C71	C	1.801668	0.739816	0.333309
C72	C	2.135002	1.073149	0.666643
N73	N	1.474338	0.135535	0.344087
N74	N	1.807671	0.468869	0.677420
N75	N	2.141005	0.802202	1.010753
N76	N	1.474373	0.135530	-0.344080
N77	N	1.807706	0.468864	-0.010747
N78	N	2.141040	0.802197	0.322587
C79	C	1.554641	0.076335	0.416290
C80	C	1.887975	0.409668	0.749624
C81	C	2.221308	0.743001	1.082957
C82	C	1.554661	0.076331	0.583703
C83	C	1.887994	0.409665	0.917036
C84	C	2.221327	0.742998	1.250369
H85	H	0.882186	0.202252	-0.000003
H86	H	1.215519	0.535585	0.333331
H87	H	1.548852	0.868919	0.666664
H88	H	1.124946	-0.010065	0.000004
H89	H	1.458279	0.323268	0.333337
H90	H	1.791612	0.656602	0.666671
H91	H	1.405597	0.186214	0.406209
H92	H	1.738930	0.519547	0.739542
H93	H	2.072264	0.852881	1.072876
Cl94	Cl	0.853145	-0.052620	0.000024
Cl95	Cl	1.186478	0.280714	0.333357
Cl96	Cl	1.519811	0.614047	0.666691
Cl97	Cl	1.368224	0.213794	0.560070
Cl98	Cl	1.701558	0.547128	0.893403
Cl99	Cl	2.034891	0.880461	1.226737
Cl100	Cl	1.660488	-0.002126	0.320389
Cl101	Cl	1.993822	0.331207	0.653722
Cl102	Cl	2.327155	0.664541	0.987056
H103	H	1.623416	0.025650	0.645795
H104	H	1.956750	0.358984	0.979128
H105	H	2.290083	0.692317	1.312461
Cl106	Cl	1.007271	0.241959	-0.000024
Cl107	Cl	1.340604	0.575292	0.333309
Cl108	Cl	1.673938	0.908626	0.666642
