data_functionalizedCrystal
_audit_creation_method	'MofGen! by Chris Wilmer'
_symmetry_space_group_name_H-M	'P1'
_symmetry_Int_Tables_number	1
_symmetry_cell_setting	triclinic
loop_
_symmetry_equiv_pos_as_xyz
  x,y,z
_cell_length_a	12.759401
_cell_length_b	12.759400
_cell_length_c	17.077396
_cell_angle_alpha	90.025586
_cell_angle_beta	90.016478
_cell_angle_gamma	90.013728
loop_
_atom_site_label
_atom_site_type_symbol
_atom_site_fract_x
_atom_site_fract_y
_atom_site_fract_z
Zn1	Zn	1.606234	-0.418293	0.443795
Zn2	Zn	1.606135	-0.593994	0.312536
Zn3	Zn	1.430542	-0.418326	0.312550
Zn4	Zn	1.430524	-0.593928	0.443766
O5	O	1.518359	-0.506135	0.378162
O6	O	1.753242	-0.441614	0.426389
O7	O	1.582808	-0.570733	0.202691
O8	O	1.453897	-0.271301	0.329978
O9	O	1.753169	-0.570700	0.329954
O10	O	1.582977	-0.271277	0.426403
O11	O	1.453801	-0.441671	0.202701
O12	O	1.283519	-0.441607	0.329950
O13	O	1.453867	-0.570588	0.553617
O14	O	1.283506	-0.570620	0.426354
O15	O	1.582960	-0.441550	0.553638
O16	O	1.582791	-0.741006	0.329926
O17	O	1.453771	-0.740957	0.426340
C18	C	1.245391	-0.506111	0.378151
C19	C	1.128615	-0.506125	0.378165
C20	C	1.073784	-0.439037	0.428457
C21	C	0.964060	-0.439057	0.428462
C22	C	0.964007	-0.573263	0.327881
C23	C	1.073729	-0.573237	0.327872
C24	C	1.128669	-0.371925	0.478749
C25	C	1.073838	-0.304832	0.529046
C26	C	0.964114	-0.304852	0.529051
C27	C	0.909221	-0.371966	0.478759
C28	C	1.518296	-0.779103	0.378145
C29	C	1.518366	-0.895879	0.378165
C30	C	1.585621	-0.950732	0.328017
C31	C	1.585686	-1.060456	0.328041
C32	C	1.451231	-1.060465	0.428363
C33	C	1.451172	-0.950743	0.428342
C34	C	1.652815	-0.895868	0.277840
C35	C	1.720075	-0.950720	0.227688
C36	C	1.720139	-1.060444	0.227712
C37	C	1.652944	-1.115316	0.277888
C38	C	1.792392	-0.506161	0.378173
C39	C	1.909169	-0.506172	0.378178
C40	C	1.518422	-0.506058	0.582906
C41	C	1.518449	-0.506025	0.670156
C42	C	1.518450	-0.232102	0.378195
C43	C	1.518489	-0.115325	0.378210
C44	C	1.518356	-0.506137	0.174214
C45	C	1.518532	-0.505874	0.086965
C46	C	1.585671	-0.438829	0.711159
C47	C	1.585683	-0.438794	0.793139
C48	C	1.518479	-0.505961	0.834116
C49	C	1.451251	-0.573160	0.793107
C50	C	1.451234	-0.573188	0.711128
C51	C	1.451293	-0.573096	0.963977
C52	C	1.451311	-0.573069	1.045962
C53	C	1.585743	-0.438702	1.045988
C54	C	1.585725	-0.438731	0.964009
C55	C	1.518498	-0.505931	0.923007
H56	H	1.118374	-0.627866	0.286920
O57	O	0.802634	-0.371889	0.478636
C58	C	0.765941	-0.344813	0.403435
H59	H	0.829158	-0.298944	0.371038
H60	H	0.692542	-0.294459	0.409124
H61	H	0.746451	-0.419140	0.369334
O62	O	0.910850	-0.638494	0.278963
C63	C	0.982775	-0.697725	0.234586
H64	H	1.060987	-0.654668	0.231912
H65	H	0.951036	-0.708839	0.172728
H66	H	0.994462	-0.777562	0.263230
H67	H	1.774789	-0.906038	0.186840
O68	O	1.785648	-1.113581	0.179040
C69	C	1.890314	-1.086642	0.196291
H70	H	1.892375	-1.006956	0.226469
H71	H	1.937479	-1.082858	0.139676
H72	H	1.925726	-1.148325	0.236676
O73	O	1.385927	-0.638343	1.085647
C74	C	1.326598	-0.697674	1.031880
H75	H	1.322960	-0.654663	0.973447
H76	H	1.243824	-0.708855	1.055563
H77	H	1.365034	-0.777478	1.023154
O78	O	1.653111	-1.221902	0.277793
C79	C	1.726907	-1.258554	0.222790
H80	H	1.741617	-1.195359	0.176922
H81	H	1.695271	-1.332017	0.193001
H82	H	1.803502	-1.277926	0.253970
O83	O	1.386068	-1.113718	0.477209
C84	C	1.408936	-1.086800	0.555454
H85	H	1.492849	-1.056567	0.559467
H86	H	1.399896	-1.158930	0.594241
H87	H	1.352558	-1.023137	0.575926
H88	H	1.396408	-0.906082	0.469178
O89	O	1.652920	-0.789283	0.277742
C90	C	1.726626	-0.752618	0.222688
H91	H	1.788054	-0.815807	0.211744
H92	H	1.766433	-0.679156	0.246382
H93	H	1.684992	-0.733241	0.165422
O94	O	1.650988	-0.373483	0.671479
C95	C	1.710338	-0.314185	0.725252
H96	H	1.667317	-0.310525	0.783686
H97	H	1.721567	-0.231416	0.701580
H98	H	1.790120	-0.352662	0.733974
H99	H	1.640424	-0.384079	0.826520
H100	H	1.640455	-0.384044	0.930648
O101	O	1.386144	-0.638428	0.924054
C102	C	1.445945	-0.706313	0.876648
H103	H	1.525573	-0.669260	0.864391
H104	H	1.403148	-0.720409	0.818989
H105	H	1.457472	-0.784163	0.908230
H106	H	1.640480	-0.383983	1.079376
H107	H	1.396485	-0.627895	0.677745
O108	O	1.235254	-0.371738	0.478819
C109	C	1.271943	-0.298141	0.534006
H110	H	1.208722	-0.236788	0.545085
H111	H	1.345339	-0.258218	0.510370
H112	H	1.291435	-0.339901	0.591186
O113	O	1.126993	-0.239543	0.577922
C114	C	1.055065	-0.180351	0.622325
H115	H	0.976838	-0.176669	0.590180
H116	H	1.086776	-0.097583	0.630809
H117	H	1.043419	-0.218935	0.681891
O118	O	0.910735	-0.239826	0.577943
C119	C	0.847311	-0.299748	0.628580
H120	H	0.830854	-0.379319	0.600788
H121	H	0.770162	-0.256987	0.639164
H122	H	0.889627	-0.311390	0.686732
O123	O	1.385870	-0.638441	0.832788
C124	C	1.326553	-0.697774	0.779016
H125	H	1.322914	-0.654759	0.720585
H126	H	1.243778	-0.708968	0.802694
H127	H	1.364999	-0.777572	0.770287
