data_functionalizedCrystal
_audit_creation_method	'MofGen! by Chris Wilmer'
_symmetry_space_group_name_H-M	'P1'
_symmetry_Int_Tables_number	1
_symmetry_cell_setting	triclinic
loop_
_symmetry_equiv_pos_as_xyz
  x,y,z
_cell_length_a	15.299816
_cell_length_b	18.050591
_cell_length_c	15.296720
_cell_angle_alpha	99.654681
_cell_angle_beta	110.757046
_cell_angle_gamma	80.345724
loop_
_atom_site_label
_atom_site_type_symbol
_atom_site_fract_x
_atom_site_fract_y
_atom_site_fract_z
Zn1	Zn	0.461305	-1.116933	0.590176
Zn2	Zn	0.589901	-1.153491	0.461611
Zn3	Zn	0.434421	-1.011081	0.434665
Zn4	Zn	0.616712	-1.011020	0.617034
O5	O	0.525585	-1.073131	0.525872
O6	O	0.478394	-1.225706	0.573158
O7	O	0.546805	-1.149925	0.327910
O8	O	0.307880	-1.009849	0.432777
O9	O	0.572873	-1.252565	0.478702
O10	O	0.327631	-1.087617	0.547029
O11	O	0.432574	-1.045298	0.308113
O12	O	0.458572	-0.907149	0.458820
O13	O	0.618568	-1.009744	0.743598
O14	O	0.592500	-0.907104	0.592806
O15	O	0.504391	-1.087558	0.723865
O16	O	0.723565	-1.149866	0.504746
O17	O	0.743263	-1.045193	0.618935
C18	C	0.525529	-0.880181	0.525805
C19	C	0.525531	-0.797636	0.525802
C20	C	0.767153	-1.101508	0.567699
C21	C	0.870502	-1.113712	0.585624
C22	C	0.452643	-0.548788	0.453057
C23	C	0.444679	-0.585550	0.534005
C24	C	0.525569	-0.500512	0.525863
C25	C	0.533471	-0.610828	0.444883
C26	C	0.525547	-0.646499	0.525828
C27	C	0.517569	-0.536176	0.606849
C28	C	0.606391	-0.561461	0.517676
C29	C	0.598470	-0.598197	0.598688
C30	C	0.525579	-0.416412	0.525882
C31	C	0.525539	-0.730596	0.525819
C32	C	0.283077	-1.044662	0.483901
C33	C	0.179734	-1.032530	0.466016
C34	C	1.120968	-0.986358	0.398075
C35	C	1.023867	-0.974887	0.381235
C36	C	0.985521	-1.009593	0.432331
C37	C	1.044286	-1.055770	0.500269
C38	C	1.141398	-1.067236	0.517115
C39	C	1.005950	-1.090471	0.551371
C40	C	1.064716	-1.136649	0.619309
C41	C	1.161818	-1.148114	0.636152
C42	C	1.200164	-1.113408	0.585056
C43	C	0.908838	-1.079005	0.534525
C44	C	0.929268	-1.159884	0.653565
C45	C	1.026370	-1.171354	0.670404
C46	C	0.567469	-1.044566	0.768416
C47	C	0.585318	-1.032393	0.871774
C48	C	0.525622	-0.266835	0.525920
C49	C	0.525588	-0.349380	0.525892
C50	C	0.483796	-1.101620	0.284259
C51	C	0.465685	-1.113906	0.180857
C52	C	0.397854	-1.160141	1.122028
C53	C	0.381086	-1.171582	1.024918
C54	C	0.432142	-1.136786	0.986627
C55	C	0.499970	-1.090546	1.045455
C56	C	0.516745	-1.079108	1.142575
C57	C	0.551033	-1.055753	1.007175
C58	C	0.618861	-1.009513	1.066003
C59	C	0.635633	-0.998077	1.163113
C60	C	0.584577	-1.032873	1.201404
C61	C	0.534258	-1.067191	0.910055
C62	C	0.653149	-0.986159	0.930602
C63	C	0.669918	-0.974717	1.027712
H64	H	0.390952	-0.527080	0.391560
H65	H	0.376320	-0.596533	0.540934
Cl66	Cl	0.720918	-0.939961	1.237069
Cl67	Cl	0.543809	-0.660807	0.339173
H68	H	0.479031	-1.104840	0.862166
H69	H	1.152200	-0.958102	0.356484
Cl70	Cl	0.411058	-1.151168	0.864544
Cl71	Cl	1.100256	-1.229402	0.755811
Cl72	Cl	0.295820	-1.229710	0.950970
Cl73	Cl	1.322205	-1.128004	0.606029
H74	H	0.598226	-1.023560	1.280478
Cl75	Cl	0.950000	-0.916830	0.295841
Cl76	Cl	0.834974	-1.020957	0.449119
Cl77	Cl	0.333686	-1.203886	1.170172
Cl78	Cl	0.881070	-1.203514	0.717805
H79	H	1.209663	-1.185711	0.691475
Cl80	Cl	0.755186	-0.916590	1.101678
H81	H	0.660143	-0.619750	0.660304
H82	H	0.674723	-0.550448	0.510729
H83	H	0.694725	-0.957826	0.899427
Cl84	Cl	0.863506	-0.994874	0.411485
Cl85	Cl	0.507107	-0.486325	0.712570
