data_functionalizedCrystal
_audit_creation_method	'MofGen! by Chris Wilmer'
_symmetry_space_group_name_H-M	'P1'
_symmetry_Int_Tables_number	1
_symmetry_cell_setting	triclinic
loop_
_symmetry_equiv_pos_as_xyz
  x,y,z
_cell_length_a	19.805407
_cell_length_b	17.637651
_cell_length_c	19.805399
_cell_angle_alpha	78.755479
_cell_angle_beta	89.983114
_cell_angle_gamma	101.218564
loop_
_atom_site_label
_atom_site_type_symbol
_atom_site_fract_x
_atom_site_fract_y
_atom_site_fract_z
Zn1	Zn	0.980290	-0.314769	-0.328179
Zn2	Zn	0.957347	-0.446988	-0.192081
Zn3	Zn	0.867105	-0.314794	-0.214999
Zn4	Zn	0.844213	-0.446943	-0.305236
O5	O	0.912239	-0.380874	-0.260124
O6	O	1.071961	-0.332317	-0.310136
O7	O	0.945355	-0.429482	-0.100399
O8	O	0.901301	-0.204152	-0.249206
O9	O	1.055106	-0.429458	-0.210145
O10	O	0.984457	-0.204133	-0.332359
O11	O	0.879055	-0.332359	-0.117237
O12	O	0.769353	-0.332316	-0.226959
O13	O	0.862285	-0.429381	-0.403001
O14	O	0.752535	-0.429405	-0.293255
O15	O	0.962260	-0.332273	-0.419857
O16	O	0.923158	-0.557622	-0.187898
O17	O	0.840038	-0.557588	-0.271032
C18	C	0.736385	-0.380859	-0.260105
C19	C	0.661151	-0.380871	-0.260109
C20	C	0.876643	-0.586292	-0.224503
C21	C	0.861477	-0.674171	-0.209287
C22	C	0.617054	-0.431502	-0.294546
C23	C	0.546365	-0.431503	-0.294555
C24	C	0.519775	-0.380877	-0.260123
C25	C	0.563878	-0.330241	-0.225685
C26	C	0.634566	-0.330236	-0.225680
C27	C	0.278801	-0.330259	-0.225704
C28	C	0.208107	-0.330269	-0.225710
C29	C	0.190601	-0.431525	-0.294580
C30	C	0.261289	-0.431521	-0.294575
C31	C	0.305386	-0.380882	-0.260140
C32	C	0.382035	-0.380880	-0.260131
C33	C	0.443126	-0.380883	-0.260127
C34	C	1.027894	-0.962852	-0.375932
C35	C	1.013622	-1.045428	-0.361622
C36	C	0.927089	-1.045554	-0.274952
C37	C	0.941357	-0.962977	-0.289251
C38	C	0.991760	-0.921632	-0.339743
C39	C	0.905222	-0.921757	-0.253063
C40	C	0.919486	-0.839187	-0.267364
C41	C	0.969885	-0.797836	-0.317855
C42	C	1.006024	-0.839062	-0.354044
C43	C	0.854816	-0.963103	-0.202575
C44	C	0.818681	-0.921883	-0.166386
C45	C	0.832948	-0.839312	-0.180684
C46	C	0.883347	-0.797961	-0.231174
C47	C	0.796810	-0.798086	-0.144494
C48	C	0.811074	-0.715516	-0.158796
C49	C	0.897611	-0.715391	-0.245476
C50	C	1.088779	-0.380890	-0.260143
C51	C	1.164010	-0.380896	-0.260152
C52	C	0.912278	-0.380819	-0.436676
C53	C	0.912295	-0.380796	-0.511912
C54	C	0.947992	-0.174653	-0.295898
C55	C	0.963228	-0.086774	-0.311143
C56	C	0.877785	-0.330219	-0.556024
C57	C	0.877797	-0.330204	-0.626715
C58	C	0.912323	-0.380761	-0.653294
C59	C	0.946833	-0.431343	-0.609176
C60	C	0.946817	-0.431362	-0.538485
C61	C	0.946900	-0.431269	-0.894262
C62	C	0.946915	-0.431245	-0.964958
C63	C	0.877880	-0.330111	-0.982492
C64	C	0.877864	-0.330130	-0.911802
C65	C	0.912371	-0.380714	-0.867689
C66	C	0.912356	-0.380731	-0.791038
C67	C	0.912342	-0.380741	-0.729944
C68	C	0.912249	-0.380871	-0.084268
C69	C	0.912402	-0.380672	-0.009071
H70	H	0.638698	-0.472730	-0.322582
H71	H	0.510464	-0.472732	-0.322597
Br72	Br	1.096310	-0.906733	-0.444446
H73	H	1.043042	-1.078986	-0.391105
H74	H	0.314696	-0.289032	-0.197659
H75	H	0.282934	-0.472748	-0.322610
H76	H	1.047072	-0.805398	-0.395154
H77	H	0.542223	-0.289018	-0.197653
Br78	Br	0.993647	-0.500010	-0.478616
Br79	Br	0.993683	-0.499966	-0.645244
H80	H	0.975032	-0.472418	-0.986595
H81	H	0.849675	-0.289044	-0.534391
H82	H	0.886050	-1.079228	-0.233843
H83	H	0.843197	-1.030337	-0.190939
Br84	Br	0.750273	-0.978001	-0.097872
H85	H	0.670470	-0.289004	-0.197642
H86	H	0.981498	-0.730603	-0.329498
Br87	Br	0.728396	-0.854206	-0.075986
H88	H	0.154689	-0.472755	-0.322621
Br89	Br	0.993736	-0.499915	-0.834405
Br90	Br	0.762034	-0.659570	-0.109682
Br91	Br	0.831010	-0.261509	-0.875735
Br92	Br	0.172021	-0.261559	-0.178977
Br93	Br	0.966027	-0.659273	-0.313990
Br94	Br	0.830917	-0.261604	-0.686572
Br95	Br	0.831047	-0.261460	-1.042362
