data_functionalizedCrystal
_audit_creation_method	'MofGen! by Chris Wilmer'
_symmetry_space_group_name_H-M	'P1'
_symmetry_Int_Tables_number	1
_symmetry_cell_setting	triclinic
loop_
_symmetry_equiv_pos_as_xyz
  x,y,z
_cell_length_a	10.654550
_cell_length_b	15.944551
_cell_length_c	9.730223
_cell_angle_alpha	89.994648
_cell_angle_beta	89.999957
_cell_angle_gamma	83.991834
loop_
_atom_site_label
_atom_site_type_symbol
_atom_site_fract_x
_atom_site_fract_y
_atom_site_fract_z
O1	O	1.666313	0.117976	-0.114191
O2	O	1.300689	0.129216	-0.114216
O3	O	1.493485	0.001379	-0.114190
O4	O	1.473516	0.245813	-0.114216
O5	O	1.493473	0.001376	0.114390
O6	O	1.300676	0.129213	0.114364
O7	O	1.666300	0.117973	0.114389
Zn8	Zn	1.483486	0.123592	0.150669
Zn9	Zn	1.483503	0.123597	-0.150495
O10	O	1.473504	0.245810	0.114363
C11	C	1.253895	0.128389	0.000071
C12	C	1.114484	0.125920	0.000061
C13	C	1.034024	0.201189	0.000057
C14	C	0.903034	0.198863	0.000081
C15	C	0.932975	0.045995	0.000108
C16	C	1.063963	0.048321	0.000094
C17	C	1.492650	-0.029921	0.000100
C18	C	1.490165	-0.123182	0.000100
C19	C	1.364720	-0.338764	0.000073
C20	C	1.422966	-0.399446	0.112781
C21	C	1.485668	-0.293933	0.000090
C22	C	1.423007	-0.399426	-0.112581
C23	C	1.481317	-0.458871	0.000073
C24	C	1.543948	-0.353387	0.112890
C25	C	1.543972	-0.353360	-0.112573
C26	C	1.602306	-0.414024	0.000163
C27	C	1.488172	-0.198917	0.000100
C28	C	1.478822	-0.553887	0.000072
C29	C	1.713094	0.118800	0.000099
C30	C	1.852505	0.121269	0.000100
C31	C	1.474339	0.277110	0.000070
C32	C	1.476824	0.370371	0.000061
N33	N	1.483484	0.123589	0.356205
N34	N	1.483514	0.123594	-0.356032
C35	C	1.568883	0.067007	0.428142
C36	C	1.568896	0.067007	0.572025
C37	C	1.398106	0.180179	0.572021
C38	C	1.398089	0.180174	0.428140
H39	H	1.075154	0.264375	0.000041
H40	H	1.638416	0.020930	0.369576
H41	H	1.638434	0.020932	0.630593
N42	N	0.816282	0.280059	0.000132
H43	H	0.832515	0.313894	-0.084596
H44	H	0.725660	0.266766	0.000222
N45	N	1.355232	-0.426433	-0.238789
H46	H	1.265502	-0.398787	-0.238689
H47	H	1.400106	-0.408860	-0.323843
H48	H	0.891824	-0.017184	0.000143
N49	N	1.305982	0.241211	0.350543
H50	H	1.318928	0.232618	0.248481
H51	H	1.216900	0.230954	0.375707
N52	N	1.306012	0.241206	0.649620
H53	H	1.354007	0.278700	0.709296
H54	H	1.251926	0.276993	0.582129
N55	N	1.150746	-0.032870	0.000109
H56	H	1.134495	-0.066693	-0.084616
H57	H	1.241357	-0.019554	0.000156
N58	N	1.231742	-0.295413	0.000195
H59	H	1.186213	-0.312056	0.085407
H60	H	1.234457	-0.232289	-0.000730
N61	N	1.355215	-0.426471	0.239000
H62	H	1.265483	-0.398827	0.238917
H63	H	1.354850	-0.489786	0.238460
N64	N	1.735392	-0.457192	0.000247
H65	H	1.781454	-0.439693	-0.084049
H66	H	1.780793	-0.440444	0.085470
N67	N	1.611653	-0.326528	0.239245
H68	H	1.612877	-0.263276	0.238493
H69	H	1.566271	-0.343737	0.324193
H70	H	1.595089	-0.332933	-0.207856
