data_functionalizedCrystal
_audit_creation_method	'MofGen! by Chris Wilmer'
_symmetry_space_group_name_H-M	'P1'
_symmetry_Int_Tables_number	1
_symmetry_cell_setting	triclinic
loop_
_symmetry_equiv_pos_as_xyz
  x,y,z
_cell_length_a	23.532407
_cell_length_b	13.339070
_cell_length_c	11.804365
_cell_angle_alpha	105.112168
_cell_angle_beta	78.232653
_cell_angle_gamma	99.238986
loop_
_atom_site_label
_atom_site_type_symbol
_atom_site_fract_x
_atom_site_fract_y
_atom_site_fract_z
O1	O	0.783276	0.102131	-0.098870
O2	O	0.620275	0.119864	-0.098904
O3	O	0.683068	-0.036078	-0.098887
O4	O	0.720483	0.258073	-0.098886
O5	O	0.666531	0.004935	0.099165
O6	O	0.603738	0.160877	0.099148
O7	O	0.766738	0.143144	0.099182
Cu8	Cu	0.683728	0.155755	0.117249
Cu9	Cu	0.703285	0.107253	-0.116970
O10	O	0.703946	0.299086	0.099165
C11	C	0.668479	-0.053198	0.000136
C12	C	0.649641	-0.165312	0.000127
C13	C	0.590718	0.139918	0.000118
C14	C	0.527283	0.138557	0.000105
C15	C	0.796119	-0.531571	0.000158
C16	C	0.813820	-0.426233	0.000173
C17	C	0.772777	-0.360998	0.000161
C18	C	0.714030	-0.401110	0.000135
C19	C	0.696327	-0.506457	0.000130
C20	C	0.672984	-0.335884	0.000133
C21	C	0.614238	-0.375996	0.000107
C22	C	0.596537	-0.481333	0.000100
C23	C	0.637581	-0.546568	0.000112
C24	C	0.690687	-0.230537	0.000138
C25	C	0.590895	-0.205424	0.000110
C26	C	0.573194	-0.310761	0.000095
C27	C	0.141679	0.222335	0.000159
C28	C	0.082075	0.221074	0.000166
O29	O	0.057844	0.298736	0.000209
N30	N	0.044503	0.128364	0.000164
C31	C	0.066538	0.036911	0.000166
O32	O	0.029108	-0.042062	0.000166
C33	C	0.126141	0.038174	0.000168
C34	C	0.163710	0.130888	0.000158
C35	C	0.179248	0.315041	0.000150
C36	C	0.238848	0.316300	0.000141
C37	C	0.260879	0.224853	0.000140
C38	C	0.223311	0.132147	0.000148
C39	C	0.148174	-0.053277	0.000179
C40	C	0.207781	-0.052005	0.000181
C41	C	0.245350	0.040708	0.000171
C42	C	0.304942	0.041959	0.000138
N43	N	0.342513	0.134669	0.000140
C44	C	0.320482	0.226116	0.000141
C45	C	-0.058631	0.034266	0.000166
C46	C	-0.118232	0.033000	0.000156
C47	C	-0.102691	0.217164	0.000158
C48	C	-0.043089	0.218427	0.000159
C49	C	-0.021060	0.126976	0.000168
C50	C	0.445646	0.228754	0.000120
C51	C	0.505252	0.230004	0.000105
C52	C	0.489706	0.045841	0.000110
C53	C	0.430106	0.044589	0.000118
C54	C	0.408078	0.136055	0.000127
O55	O	0.329213	-0.035660	0.000099
O56	O	0.357917	0.305079	0.000157
C57	C	0.796296	0.123089	0.000158
C58	C	0.859731	0.124449	0.000163
C59	C	0.718534	0.316205	0.000140
C60	C	0.737373	0.428318	0.000141
N61	N	0.669976	0.189868	0.281986
N62	N	0.717040	0.073132	-0.281707
C63	C	0.750060	-0.008806	0.655955
C64	C	0.760462	-0.034616	0.531297
C65	C	0.737841	0.021502	0.468963
C66	C	0.704817	0.103437	0.531300
C67	C	0.694418	0.129255	0.655971
C68	C	0.682199	0.159563	0.468978
C69	C	0.649176	0.241497	0.531316
C70	C	0.638778	0.267311	0.655975
C71	C	0.661399	0.211193	0.718308
C72	C	0.692598	0.133745	0.344307
C73	C	0.636957	0.271805	0.344323
C74	C	0.626555	0.297616	0.468982
H75	H	0.738519	-0.197888	0.000160
O76	O	-0.154793	-0.056969	0.000309
C77	C	-0.198284	-0.041985	0.102900
H78	H	-0.203327	0.044852	0.137101
H79	H	-0.241558	-0.086628	0.079834
H80	H	-0.185136	-0.072064	0.174721
O81	O	-0.006551	0.308458	0.000313
C82	C	0.019818	0.335964	0.102901
H83	H	0.019152	0.263292	0.137105
H84	H	0.066943	0.371051	0.079831
H85	H	-0.005315	0.395790	0.174722
O86	O	0.594423	0.377098	0.529676
C87	C	0.544775	0.338242	0.601770
H88	H	0.553383	0.262867	0.620433
H89	H	0.535127	0.398629	0.689441
H90	H	0.505668	0.321813	0.553738
O91	O	0.790029	-0.258660	0.000328
C92	C	0.814729	-0.209111	0.102928
H93	H	0.830802	-0.270070	0.137137
H94	H	0.853030	-0.149592	0.079871
H95	H	0.780330	-0.167605	0.174740
O96	O	0.511030	-0.043021	0.000267
C97	C	0.483195	-0.078086	0.102861
H98	H	0.439273	-0.045745	0.137058
H99	H	0.475978	-0.167144	0.079799
H100	H	0.511824	-0.049728	0.174682
H101	H	0.861651	-0.393580	0.000196
H102	H	0.618538	0.317504	0.293571
O103	O	0.747838	-0.003561	0.347870
C104	C	0.694089	-0.032260	0.306232
H105	H	0.657861	0.003613	0.378080
H106	H	0.696805	-0.002572	0.222832
H107	H	0.684139	-0.121026	0.284113
H108	H	0.117594	-0.128774	0.000188
O109	O	0.551101	-0.141934	0.000041
C110	C	0.579320	-0.040352	0.000075
H111	H	0.627750	-0.044525	-0.037407
H112	H	0.558986	-0.004201	-0.057433
H113	H	0.574044	0.009813	0.095091
H114	H	0.623172	-0.632345	0.000096
O115	O	0.835912	-0.595091	0.000124
C116	C	0.807685	-0.696658	0.000151
H117	H	0.765520	-0.708012	-0.037362
H118	H	0.837623	-0.756626	-0.057334
H119	H	0.797087	-0.707467	0.095168
O120	O	0.275376	0.406297	-0.000087
C121	C	0.318881	0.391297	-0.102653
H122	H	0.302497	0.323801	-0.174333
H123	H	0.329284	0.465614	-0.137097
H124	H	0.360039	0.372347	-0.079469
O125	O	0.229088	-0.140950	0.000130
C126	C	0.183140	-0.223035	0.000168
H127	H	0.146059	-0.204698	-0.037320
H128	H	0.199721	-0.298982	-0.057333
H129	H	0.166486	-0.231804	0.095186
H130	H	0.548701	-0.513987	0.000088
H131	H	0.161317	0.389513	0.000155
O132	O	-0.037324	-0.054684	0.000103
C133	C	-0.083274	-0.136768	0.000128
H134	H	-0.120352	-0.118423	-0.037362
H135	H	-0.066693	-0.212713	-0.057378
H136	H	-0.099931	-0.145544	0.095142
H137	H	0.525362	-0.343436	0.000074
H138	H	0.399516	-0.030909	0.000109
O139	O	0.424355	0.317682	0.000068
C140	C	0.470302	0.399772	0.000085
H141	H	0.513636	0.365896	-0.037409
H142	H	0.463319	0.451900	-0.057422
H143	H	0.471105	0.447900	0.095097
O144	O	0.541786	0.320002	-0.000120
C145	C	0.585290	0.304994	-0.102688
H146	H	0.568901	0.237507	-0.174370
H147	H	0.595702	0.379314	-0.137126
H148	H	0.626444	0.286025	-0.079507
H149	H	0.719487	0.067034	0.293563
O150	O	0.792526	-0.114263	0.470931
C151	C	0.810274	-0.158244	0.552675
H152	H	0.779365	-0.140774	0.641544
H153	H	0.809212	-0.246443	0.516655
H154	H	0.856593	-0.123081	0.565926
H155	H	-0.120640	0.291627	0.000164
H156	H	0.768478	-0.054485	0.706716
H157	H	0.652928	0.232205	0.819816
H158	H	0.611894	0.334034	0.706730
