data_functionalizedCrystal
_audit_creation_method	'MofGen! by Chris Wilmer'
_symmetry_space_group_name_H-M	'P1'
_symmetry_Int_Tables_number	1
_symmetry_cell_setting	triclinic
loop_
_symmetry_equiv_pos_as_xyz
  x,y,z
_cell_length_a	16.992694
_cell_length_b	19.188924
_cell_length_c	15.455301
_cell_angle_alpha	86.989818
_cell_angle_beta	87.178730
_cell_angle_gamma	86.905094
loop_
_atom_site_label
_atom_site_type_symbol
_atom_site_fract_x
_atom_site_fract_y
_atom_site_fract_z
O1	O	1.042929	0.150912	-0.072029
O2	O	0.814650	0.149289	-0.072055
O3	O	0.935380	0.048830	-0.072031
O4	O	0.922200	0.251372	-0.072053
O5	O	0.929262	0.043030	0.072231
O6	O	0.808532	0.143490	0.072208
O7	O	1.036811	0.145112	0.072233
Cu8	Cu	0.922113	0.143771	0.085393
Cu9	Cu	0.929348	0.150630	-0.085214
O10	O	0.916082	0.245572	0.072209
C11	C	0.782386	0.144301	0.000073
C12	C	0.695364	0.138068	0.000064
C13	C	0.644916	0.198208	0.000058
C14	C	0.563149	0.192347	0.000071
C15	C	0.531832	0.126345	0.000083
C16	C	0.582287	0.066201	0.000091
C17	C	0.664052	0.072062	0.000085
C18	C	0.288317	0.102051	0.000109
C19	C	0.206546	0.096194	0.000113
C20	C	0.187414	0.222341	0.000093
C21	C	0.269182	0.228197	0.000082
C22	C	0.319629	0.168052	0.000095
N23	N	0.448254	0.120353	0.000093
N24	N	0.403205	0.174045	0.000091
C25	C	0.931895	0.019894	0.000101
C26	C	0.930616	-0.057686	0.000103
C27	C	0.933354	-0.090958	-0.078535
C28	C	0.932142	-0.163851	-0.078542
C29	C	0.928207	-0.203471	0.000094
C30	C	0.925464	-0.170190	0.078742
C31	C	0.926669	-0.097297	0.078747
N32	N	0.968445	-0.322987	0.058625
N33	N	0.967303	-0.392232	0.058616
C34	C	0.924576	-0.423092	0.000085
N35	N	0.883045	-0.382091	-0.058449
N36	N	0.884192	-0.312840	-0.058441
C37	C	0.926900	-0.282511	0.000098
C38	C	0.925999	-0.535403	-0.078565
C39	C	0.924782	-0.608298	-0.078569
C40	C	0.918112	-0.614636	0.078717
C41	C	0.919321	-0.541742	0.078718
C42	C	0.923269	-0.502130	0.000075
C43	C	1.069075	0.150101	0.000103
C44	C	1.156098	0.156334	0.000107
C45	C	0.919567	0.274508	0.000075
C46	C	0.920846	0.352088	0.000068
N47	N	0.917030	0.138947	0.205389
N48	N	0.934438	0.155449	-0.205210
C49	C	0.962505	0.182140	0.250780
C50	C	0.958671	0.178488	0.341588
C51	C	0.909358	0.131646	0.387003
C52	C	0.863881	0.088448	0.341605
C53	C	0.867720	0.092097	0.250799
C54	C	0.892800	0.115901	0.658586
C55	C	0.888963	0.112257	0.749398
C56	C	0.983754	0.202296	0.749375
C57	C	0.987585	0.205944	0.658566
C58	C	0.942111	0.162744	0.613177
N59	N	0.905436	0.127913	0.479824
N60	N	0.946038	0.166473	0.520358
H61	H	0.181052	0.042445	0.000122
H62	H	0.556782	0.012460	0.000114
O63	O	0.913875	-0.657361	0.163533
H64	H	0.859750	-0.687483	0.167286
O65	O	0.930238	-0.492672	-0.163383
H66	H	0.985019	-0.508391	-0.201096
O67	O	0.835777	0.061728	0.798385
H68	H	0.773806	0.074080	0.780952
H69	H	0.670407	0.251953	0.000047
H70	H	0.146331	0.271307	0.000085
H71	H	0.924436	-0.070208	0.142785
H72	H	0.705126	0.023090	0.000089
O73	O	0.916377	-0.505854	0.163539
H74	H	0.917869	-0.448512	0.150332
H75	H	1.027743	0.244085	0.621595
O76	O	0.843747	0.069317	0.609634
H77	H	0.808805	0.036141	0.656472
O78	O	0.937592	-0.048231	-0.163353
H79	H	0.939281	-0.083618	-0.218037
O80	O	0.302949	0.299387	0.000088
H81	H	0.285146	0.330877	-0.058705
H82	H	0.823734	0.050305	0.378590
H83	H	1.020776	0.237466	0.786341
O84	O	0.935093	-0.199748	-0.163363
H85	H	0.988121	-0.236054	-0.167111
O86	O	0.342724	0.037184	0.000122
H87	H	0.307208	-0.009693	0.000124
O88	O	0.921234	-0.212917	0.163559
H89	H	0.920870	-0.269195	0.150346
O90	O	0.927705	-0.644189	-0.163389
H91	H	0.930648	-0.604395	-0.218069
O92	O	0.508734	0.257211	0.000065
H93	H	0.544248	0.304090	0.000045
O94	O	1.015689	0.232666	0.201796
H95	H	1.077661	0.220302	0.219215
O96	O	1.007715	0.225076	0.390549
H97	H	1.042642	0.258267	0.343713
O98	O	0.818669	0.045516	0.201834
H99	H	0.783726	0.012335	0.248668
