data_functionalizedCrystal
_audit_creation_method	'MofGen! by Chris Wilmer'
_symmetry_space_group_name_H-M	'P1'
_symmetry_Int_Tables_number	1
_symmetry_cell_setting	triclinic
loop_
_symmetry_equiv_pos_as_xyz
  x,y,z
_cell_length_a	18.050591
_cell_length_b	19.077068
_cell_length_c	19.077569
_cell_angle_alpha	89.935763
_cell_angle_beta	87.679079
_cell_angle_gamma	87.676702
loop_
_atom_site_label
_atom_site_type_symbol
_atom_site_fract_x
_atom_site_fract_y
_atom_site_fract_z
Zn1	Zn	1.141450	0.263877	-0.408659
Zn2	Zn	1.131394	0.386107	-0.295864
Zn3	Zn	1.012082	0.268609	-0.291152
Zn4	Zn	1.012436	0.381343	-0.413319
O5	O	1.074340	0.324984	-0.352248
O6	O	1.244041	0.280105	-0.393718
O7	O	1.111210	0.374494	-0.196906
O8	O	1.033303	0.169648	-0.302817
O9	O	1.236653	0.369906	-0.310848
O10	O	1.128349	0.166172	-0.389149
O11	O	1.023553	0.288169	-0.193444
O12	O	0.908204	0.283550	-0.307336
O13	O	1.033907	0.361788	-0.511034
O14	O	0.908464	0.366375	-0.397092
O15	O	1.128692	0.275486	-0.507610
O16	O	1.111554	0.483808	-0.315366
O17	O	1.024156	0.480309	-0.401660
C18	C	1.066823	0.507555	-0.359546
C19	C	1.063676	0.585658	-0.362691
C20	C	0.881388	0.324960	-0.352208
C21	C	0.798842	0.324965	-0.352209
C22	C	1.082461	0.317578	-0.535531
C23	C	1.085921	0.314422	-0.613635
C24	C	0.599235	0.279866	-0.303505
C25	C	0.546445	0.344653	-0.288783
C26	C	0.647712	0.324985	-0.352241
C27	C	0.553419	0.260221	-0.366962
C28	C	0.501727	0.324999	-0.352271
C29	C	0.596006	0.389807	-0.337487
C30	C	0.602988	0.305331	-0.415694
C31	C	0.550219	0.370161	-0.400998
C32	C	0.731810	0.324976	-0.352222
C33	C	0.417631	0.325015	-0.352291
C34	C	1.268047	0.325009	-0.352289
C35	C	1.350593	0.325020	-0.352306
C36	C	1.081908	0.141700	-0.344938
C37	C	1.085133	0.063595	-0.341822
C38	C	1.107739	0.624149	-0.319278
C39	C	1.104784	0.697535	-0.322240
C40	C	1.057760	0.732430	-0.368613
C41	C	1.013696	0.693934	-0.412032
C42	C	1.016655	0.620549	-0.409072
C43	C	1.044028	0.951714	-0.382281
C44	C	1.041070	1.025105	-0.385236
C45	C	1.132160	1.028701	-0.295445
C46	C	1.135112	0.955314	-0.292487
C47	C	1.091050	0.916825	-0.335908
N48	N	1.054737	0.807442	-0.371641
N49	N	1.094078	0.841814	-0.332883
C50	C	1.038198	0.357868	-0.652112
C51	C	1.041456	0.354903	-0.725500
C52	C	1.092433	0.308486	-0.760408
C53	C	1.140161	0.265038	-0.721926
C54	C	1.136907	0.268008	-0.648540
C55	C	1.107462	0.294790	-0.979697
C56	C	1.110711	0.291823	-1.053088
C57	C	1.012006	0.381688	-1.056656
C58	C	1.008753	0.384651	-0.983269
C59	C	1.056484	0.341205	-0.944793
N60	N	1.095763	0.305453	-0.835422
N61	N	1.053157	0.344243	-0.869781
C62	C	1.066297	0.332311	-0.169677
C63	C	1.062988	0.335269	-0.091565
H64	H	0.620757	0.241754	-0.262250
H65	H	1.146328	0.259414	-0.948379
C66	C	1.180088	0.844419	-0.248078
C67	C	1.186799	0.916960	-0.241511
H68	H	1.211992	0.820742	-0.216601
H69	H	1.193499	0.830459	-0.294809
H70	H	1.130220	0.832860	-0.237265
H71	H	1.236667	0.928519	-0.252329
H72	H	1.173393	0.930925	-0.194769
C73	C	1.168084	1.142791	-0.260123
C74	C	1.180604	1.071010	-0.247731
H75	H	1.198001	1.168908	-0.230671
H76	H	1.117259	1.155276	-0.250268
H77	H	1.180515	1.152870	-0.307835
H78	H	1.168168	1.060929	-0.200020
H79	H	1.231440	1.058520	-0.257582
C80	C	0.951341	1.014182	-0.473712
C81	C	0.989386	1.063462	-0.436220
H82	H	0.919439	1.037864	-0.505188
H83	H	0.922749	0.986832	-0.441922
H84	H	0.986033	0.984436	-0.499462
H85	H	0.954694	1.093205	-0.410466
H86	H	1.017979	1.090824	-0.468015
H87	H	1.008150	0.920382	-0.417635
C88	C	0.968706	0.804830	-0.456432
C89	C	0.962004	0.732288	-0.463004
H90	H	0.936788	0.828506	-0.487897
H91	H	1.018563	0.816397	-0.467250
H92	H	0.955299	0.818784	-0.409690
H93	H	0.975416	0.718334	-0.509744
H94	H	0.912136	0.720716	-0.452191
C95	C	1.268333	0.229914	-0.743180
C96	C	1.196198	0.214017	-0.760296
H97	H	1.302926	0.198416	-0.766871
H98	H	1.273220	0.225464	-0.693973
H99	H	1.277776	0.276644	-0.757100
H100	H	1.186753	0.167289	-0.746371
H101	H	1.191308	0.218461	-0.809513
H102	H	1.140664	0.728871	-0.286887
H103	H	0.980775	0.589210	-0.444425
H104	H	1.146027	0.595743	-0.281513
C105	C	0.940978	0.446414	-0.663019
C106	C	0.982171	0.408900	-0.613745
H107	H	0.906396	0.477926	-0.639333
H108	H	0.915096	0.414640	-0.690408
H109	H	0.973508	0.472128	-0.692727
H110	H	0.949641	0.383182	-0.584040
H111	H	1.008054	0.440679	-0.586344
H112	H	1.175768	0.232629	-0.617213
C113	C	1.001447	0.472873	-1.142950
C114	C	0.959549	0.429450	-1.098949
H115	H	0.969061	0.502364	-1.169056
H116	H	1.032263	0.444804	-1.174241
H117	H	1.031424	0.500909	-1.115392
H118	H	0.929576	0.401410	-1.126508
H119	H	0.928721	0.457522	-1.067655
H120	H	0.967253	0.422459	-0.954852
H121	H	1.002595	0.390282	-0.756825
H122	H	1.152221	0.254019	-1.081508
H123	H	0.614732	0.444602	-0.324989
C124	C	0.537801	0.319783	-0.165390
C125	C	0.513066	0.367109	-0.216364
H126	H	0.517192	0.333642	-0.120682
H127	H	0.590399	0.319530	-0.164733
H128	H	0.522576	0.274083	-0.176179
H129	H	0.528297	0.412808	-0.205577
H130	H	0.460457	0.367369	-0.217019
C131	C	0.542836	0.489494	-0.441084
C132	C	0.521331	0.421736	-0.456654
H133	H	0.524995	0.521335	-0.475439
H134	H	0.595430	0.490044	-0.441115
H135	H	0.522654	0.503060	-0.396140
H136	H	0.541518	0.408168	-0.501596
H137	H	0.468726	0.421185	-0.456630
H138	H	0.534560	0.205452	-0.379377
C139	C	0.615061	0.214971	-0.503388
C140	C	0.636390	0.282851	-0.488093
H141	H	0.635689	0.201087	-0.548082
H142	H	0.562489	0.214397	-0.503807
H143	H	0.632553	0.183391	-0.468652
H144	H	0.618894	0.314432	-0.522826
H145	H	0.688973	0.283430	-0.487679
