data_functionalizedCrystal
_audit_creation_method	'MofGen! by Chris Wilmer'
_symmetry_space_group_name_H-M	'P1'
_symmetry_Int_Tables_number	1
_symmetry_cell_setting	triclinic
loop_
_symmetry_equiv_pos_as_xyz
  x,y,z
_cell_length_a	18.215407
_cell_length_b	19.121063
_cell_length_c	18.215399
_cell_angle_alpha	92.409843
_cell_angle_beta	89.980167
_cell_angle_gamma	92.469446
loop_
_atom_site_label
_atom_site_type_symbol
_atom_site_fract_x
_atom_site_fract_y
_atom_site_fract_z
Zn1	Zn	1.112559	-0.279613	-0.428596
Zn2	Zn	1.445893	0.053720	-0.095263
Zn3	Zn	1.779226	0.387054	0.238071
Zn4	Zn	1.107212	-0.397068	-0.310772
Zn5	Zn	1.440545	-0.063735	0.022561
Zn6	Zn	1.773878	0.269599	0.355895
Zn7	Zn	0.989491	-0.279636	-0.305544
Zn8	Zn	1.322824	0.053697	0.027789
Zn9	Zn	1.656157	0.387031	0.361122
Zn10	Zn	0.984203	-0.397029	-0.433795
Zn11	Zn	1.317537	-0.063696	-0.100462
Zn12	Zn	1.650870	0.269638	0.232871
O13	O	1.048366	-0.338336	-0.369677
O14	O	1.381700	-0.005003	-0.036344
O15	O	1.715033	0.328330	0.296990
O16	O	1.214834	-0.295200	-0.412978
O17	O	1.548167	0.038133	-0.079645
O18	O	1.881500	0.371466	0.253688
O19	O	1.091570	-0.381516	-0.207095
O20	O	1.424904	-0.048183	0.126238
O21	O	1.758237	0.285150	0.459571
O22	O	1.010267	-0.181348	-0.317504
O23	O	1.343600	0.151985	0.015830
O24	O	1.676934	0.485318	0.349163
O25	O	1.210905	-0.381494	-0.326414
O26	O	1.544238	-0.048161	0.006920
O27	O	1.877572	0.285173	0.340253
O28	O	1.100685	-0.181331	-0.407909
O29	O	1.434018	0.152002	-0.074576
O30	O	1.767351	0.485335	0.258758
O31	O	1.005081	-0.295240	-0.203255
O32	O	1.338415	0.038094	0.130079
O33	O	1.671748	0.371427	0.463412
O34	O	0.885805	-0.295202	-0.322545
O35	O	1.219139	0.038132	0.010788
O36	O	1.552472	0.371465	0.344121
O37	O	1.001255	-0.381427	-0.536089
O38	O	1.334589	-0.048094	-0.202755
O39	O	1.667922	0.285239	0.130578
O40	O	0.881921	-0.381450	-0.416771
O41	O	1.215254	-0.048116	-0.083437
O42	O	1.548587	0.285217	0.249896
O43	O	1.095558	-0.295162	-0.532269
O44	O	1.428891	0.038171	-0.198935
O45	O	1.762224	0.371504	0.134398
O46	O	1.086443	-0.495348	-0.331455
O47	O	1.419777	-0.162014	0.001878
O48	O	1.753110	0.171319	0.335212
O49	O	0.996070	-0.495319	-0.421840
O50	O	1.329403	-0.161985	-0.088506
O51	O	1.662736	0.171348	0.244827
C52	C	0.857160	-0.338324	-0.369655
C53	C	1.190494	-0.004991	-0.036322
C54	C	1.523827	0.328342	0.297011
C55	C	0.775361	-0.338336	-0.369664
C56	C	1.108694	-0.005003	-0.036331
C57	C	1.442028	0.328330	0.297002
C58	C	1.040122	-0.520817	-0.377795
C59	C	1.373456	-0.187484	-0.044462
C60	C	1.706789	0.145849	0.288872
C61	C	1.036663	-0.598883	-0.381293
C62	C	1.369996	-0.265550	-0.047959
C63	C	1.703330	0.067783	0.285374
C64	C	0.585160	-0.383316	-0.418671
C65	C	0.918494	-0.049983	-0.085338
C66	C	1.251827	0.283350	0.247995
C67	C	0.508302	-0.383318	-0.418681
C68	C	0.841635	-0.049985	-0.085347
C69	C	1.174968	0.283348	0.247986
C70	C	0.512323	-0.293369	-0.320699
C71	C	0.845657	0.039964	0.012634
C72	C	1.178990	0.373297	0.345968
C73	C	0.589181	-0.293364	-0.320694
C74	C	0.922514	0.039969	0.012639
C75	C	1.255848	0.373302	0.345973
C76	C	0.625597	-0.338342	-0.369679
C77	C	0.958931	-0.005008	-0.036346
C78	C	1.292264	0.328325	0.296987
C79	C	0.471881	-0.338349	-0.369694
C80	C	0.805214	-0.005016	-0.036360
C81	C	1.138548	0.328318	0.296973
C82	C	0.388547	-0.338351	-0.369703
C83	C	0.721881	-0.005018	-0.036370
C84	C	1.055214	0.328316	0.296963
C85	C	0.708936	-0.338339	-0.369671
C86	C	1.042270	-0.005005	-0.036337
C87	C	1.375603	0.328328	0.296996
C88	C	1.082127	-0.635551	-0.335916
C89	C	1.415460	-0.302217	-0.002583
C90	C	1.748794	0.031116	0.330750
C91	C	1.078878	-0.708902	-0.339210
C92	C	1.412211	-0.375569	-0.005877
C93	C	1.745545	-0.042235	0.327457
C94	C	1.030161	-0.745585	-0.387877
C95	C	1.363494	-0.412251	-0.054543
C96	C	1.696827	-0.078918	0.278790
C97	C	0.984695	-0.708912	-0.433258
C98	C	1.318028	-0.375579	-0.099925
C99	C	1.651361	-0.042246	0.233409
C100	C	0.987948	-0.635562	-0.429968
C101	C	1.321281	-0.302229	-0.096634
C102	C	1.654615	0.031104	0.236699
C103	C	1.017985	-0.967055	-0.400168
C104	C	1.351318	-0.633721	-0.066835
C105	C	1.684652	-0.300388	0.266499
C106	C	1.014733	-1.040410	-0.403454
C107	C	1.348067	-0.707076	-0.070120
C108	C	1.681400	-0.373743	0.263213
C109	C	1.108918	-1.040394	-0.309406
C110	C	1.442251	-0.707061	0.023927
C111	C	1.775585	-0.373728	0.357261
C112	C	1.112164	-0.967043	-0.306117
C113	C	1.445497	-0.633710	0.027217
C114	C	1.778831	-0.300376	0.360550
C115	C	1.066701	-0.930377	-0.351501
C116	C	1.400034	-0.597044	-0.018167
C117	C	1.733368	-0.263710	0.315166
C118	C	1.026837	-0.820561	-0.391243
C119	C	1.360170	-0.487228	-0.057910
C120	C	1.693503	-0.153895	0.275424
C121	C	1.070029	-0.855401	-0.348138
C122	C	1.403362	-0.522068	-0.014804
C123	C	1.736696	-0.188735	0.318529
C124	C	1.240319	-0.338349	-0.369699
C125	C	1.573652	-0.005016	-0.036366
C126	C	1.906985	0.328318	0.296968
C127	C	1.322117	-0.338354	-0.369709
C128	C	1.655451	-0.005021	-0.036375
C129	C	1.988784	0.328312	0.296958
C130	C	1.048413	-0.338288	-0.561628
C131	C	1.381747	-0.004955	-0.228294
C132	C	1.715080	0.328379	0.105039
C133	C	1.048433	-0.338267	-0.643426
C134	C	1.381767	-0.004934	-0.310092
C135	C	1.715100	0.328399	0.023241
C136	C	1.056662	-0.155143	-0.361543
C137	C	1.389996	0.178190	-0.028210
C138	C	1.723329	0.511524	0.305123
C139	C	1.060197	-0.077077	-0.358077
C140	C	1.393531	0.256256	-0.024744
C141	C	1.726864	0.589590	0.308589
C142	C	1.097555	-0.293307	-0.829630
C143	C	1.430889	0.040026	-0.496297
C144	C	1.764222	0.373359	-0.162963
C145	C	1.097565	-0.293287	-0.906488
C146	C	1.430898	0.040047	-0.573155
C147	C	1.764232	0.373380	-0.239821
C148	C	0.999368	-0.383119	-0.910455
C149	C	1.332701	-0.049786	-0.577121
C150	C	1.666035	0.283548	-0.243788
C151	C	0.999355	-0.383135	-0.833598
C152	C	1.332689	-0.049802	-0.500265
C153	C	1.666022	0.283531	-0.166931
C154	C	1.048453	-0.338231	-0.793188
C155	C	1.381786	-0.004897	-0.459854
C156	C	1.715120	0.328436	-0.126521
C157	C	1.048476	-0.338194	-0.946902
C158	C	1.381809	-0.004860	-0.613569
C159	C	1.715142	0.328473	-0.280236
C160	C	1.048486	-0.338172	-1.030235
C161	C	1.381819	-0.004838	-0.696902
C162	C	1.715152	0.328495	-0.363568
C163	C	1.048442	-0.338251	-0.709850
C164	C	1.381776	-0.004918	-0.376516
C165	C	1.715109	0.328415	-0.043183
C166	C	1.048364	-0.338334	-0.178471
C167	C	1.381697	-0.005001	0.154863
C168	C	1.715031	0.328333	0.488196
C169	C	1.048495	-0.338157	-0.096664
C170	C	1.381829	-0.004823	0.236669
C171	C	1.715162	0.328510	0.570002
H172	H	0.614808	-0.419938	-0.458560
H173	H	0.948142	-0.086605	-0.125227
H174	H	1.281475	0.246729	0.208106
H175	H	0.622106	-0.256736	-0.280798
H176	H	0.955439	0.076597	0.052535
H177	H	1.288773	0.409931	0.385868
H178	H	1.137532	-0.256741	-0.796730
H179	H	1.470865	0.076592	-0.463397
H180	H	1.804199	0.409926	-0.130064
H181	H	0.950927	-0.605708	-0.466919
H182	H	1.284261	-0.272375	-0.133585
H183	H	1.617594	0.060958	0.199748
H184	H	0.959396	-0.419680	-0.943366
H185	H	1.292729	-0.086347	-0.610033
H186	H	1.626063	0.246986	-0.276699
H187	H	1.109698	-0.825532	-0.308516
H188	H	1.443031	-0.492199	0.024818
H189	H	1.776364	-0.158866	0.358151
C190	C	1.151583	-0.243869	-0.946571
C191	C	1.484916	0.089464	-0.613238
C192	C	1.818250	0.422798	-0.279904
N193	N	1.192272	-0.206646	-0.976761
N194	N	1.525605	0.126688	-0.643428
N195	N	1.858939	0.460021	-0.310094
C196	C	0.945334	-0.432555	-0.793509
C197	C	1.278667	-0.099222	-0.460176
C198	C	1.612001	0.234112	-0.126842
N199	N	0.904645	-0.469774	-0.763314
N200	N	1.237978	-0.136441	-0.429980
N201	N	1.571312	0.196892	-0.096647
C202	C	0.463824	-0.432801	-0.472570
C203	C	0.797157	-0.099467	-0.139236
C204	C	1.130491	0.233866	0.194097
N205	N	0.430324	-0.470075	-0.513159
N206	N	0.763657	-0.136741	-0.179826
N207	N	1.096991	0.196592	0.153507
C208	C	0.961143	-1.080759	-0.456998
C209	C	1.294476	-0.747426	-0.123665
C210	C	1.627810	-0.414093	0.209669
N211	N	0.920781	-1.111151	-0.497326
N212	N	1.254114	-0.777817	-0.163993
N213	N	1.587448	-0.444484	0.169341
H214	H	1.121795	-0.605688	-0.296283
H215	H	1.455128	-0.272355	0.037050
H216	H	1.788461	0.060978	0.370383
H217	H	1.115899	-0.738753	-0.302259
H218	H	1.449232	-0.405420	0.031074
H219	H	1.782566	-0.072086	0.364407
C220	C	0.973240	-0.860920	-0.444767
C221	C	1.306574	-0.527587	-0.111434
C222	C	1.639907	-0.194253	0.221899
N223	N	0.932870	-0.891320	-0.485080
N224	N	1.266204	-0.557987	-0.151747
N225	N	1.599537	-0.224654	0.181586
H226	H	0.482664	-0.256752	-0.280816
H227	H	0.815997	0.076582	0.052517
H228	H	1.149330	0.409915	0.385851
C229	C	1.158926	-1.080733	-0.259489
C230	C	1.492260	-0.747399	0.073844
C231	C	1.825593	-0.414066	0.407177
N232	N	1.196596	-1.111116	-0.221892
N233	N	1.529930	-0.777783	0.111442
N234	N	1.863263	-0.444449	0.444775
C235	C	1.165738	-0.926697	-0.252560
C236	C	1.499071	-0.593364	0.080773
C237	C	1.832405	-0.260031	0.414106
N238	N	1.206082	-0.896309	-0.212212
N239	N	1.539416	-0.562976	0.121121
N240	N	1.872749	-0.229642	0.454454
H241	H	0.980966	-0.937207	-0.437120
H242	H	1.314299	-0.603874	-0.103787
H243	H	1.647632	-0.270540	0.229547
C244	C	0.931102	-0.749266	-0.486790
C245	C	1.264436	-0.415933	-0.153456
C246	C	1.597769	-0.082599	0.179877
N247	N	0.890732	-0.779660	-0.527108
N248	N	1.224066	-0.446326	-0.193775
N249	N	1.557399	-0.112993	0.139559
