data_functionalizedCrystal
_audit_creation_method	'MofGen! by Chris Wilmer'
_symmetry_space_group_name_H-M	'P1'
_symmetry_Int_Tables_number	1
_symmetry_cell_setting	triclinic
loop_
_symmetry_equiv_pos_as_xyz
  x,y,z
_cell_length_a	18.050591
_cell_length_b	18.050590
_cell_length_c	18.050582
_cell_angle_alpha	90.023337
_cell_angle_beta	90.020922
_cell_angle_gamma	90.014558
loop_
_atom_site_label
_atom_site_type_symbol
_atom_site_fract_x
_atom_site_fract_y
_atom_site_fract_z
Zn1	Zn	1.135342	-0.295786	0.420027
Zn2	Zn	1.385342	-0.045786	0.670027
Zn3	Zn	1.635342	0.204214	0.920027
Zn4	Zn	1.885342	0.454214	1.170027
Zn5	Zn	1.135274	-0.419969	0.295836
Zn6	Zn	1.385274	-0.169969	0.545836
Zn7	Zn	1.635274	0.080031	0.795836
Zn8	Zn	1.885274	0.330031	1.045836
Zn9	Zn	1.011162	-0.295789	0.295839
Zn10	Zn	1.261162	-0.045789	0.545839
Zn11	Zn	1.511162	0.204211	0.795839
Zn12	Zn	1.761162	0.454211	1.045839
Zn13	Zn	1.011131	-0.419930	0.419971
Zn14	Zn	1.261131	-0.169930	0.669971
Zn15	Zn	1.511131	0.080070	0.919971
Zn16	Zn	1.761131	0.330070	1.169971
O17	O	1.073227	-0.357868	0.357918
O18	O	1.323227	-0.107868	0.607918
O19	O	1.573227	0.142132	0.857918
O20	O	1.823227	0.392132	1.107918
O21	O	1.239258	-0.312274	0.403576
O22	O	1.489258	-0.062274	0.653576
O23	O	1.739258	0.187726	0.903576
O24	O	1.989258	0.437726	1.153576
O25	O	1.118795	-0.403514	0.191912
O26	O	1.368795	-0.153514	0.441912
O27	O	1.618795	0.096486	0.691912
O28	O	1.868795	0.346486	0.941912
O29	O	1.027676	-0.191864	0.312337
O30	O	1.277676	0.058136	0.562337
O31	O	1.527676	0.308136	0.812337
O32	O	1.777676	0.558136	1.062337
O33	O	1.239208	-0.403511	0.312332
O34	O	1.489208	-0.153511	0.562332
O35	O	1.739208	0.096489	0.812332
O36	O	1.989208	0.346489	1.062332
O37	O	1.118911	-0.191862	0.403578
O38	O	1.368911	0.058138	0.653578
O39	O	1.618911	0.308138	0.903578
O40	O	1.868911	0.558138	1.153578
O41	O	1.027610	-0.312279	0.191914
O42	O	1.277610	-0.062279	0.441914
O43	O	1.527610	0.187721	0.691914
O44	O	1.777610	0.437721	0.941914
O45	O	0.907233	-0.312241	0.312283
O46	O	1.157233	-0.062241	0.562283
O47	O	1.407233	0.187759	0.812283
O48	O	1.657233	0.437759	1.062283
O49	O	1.027623	-0.403444	0.523903
O50	O	1.277623	-0.153444	0.773903
O51	O	1.527623	0.096556	1.023903
O52	O	1.777623	0.346556	1.273903
O53	O	0.907210	-0.403447	0.403482
O54	O	1.157210	-0.153447	0.653482
O55	O	1.407210	0.096553	0.903482
O56	O	1.657210	0.346553	1.153482
O57	O	1.118881	-0.312236	0.523945
O58	O	1.368881	-0.062236	0.773945
O59	O	1.618881	0.187764	1.023945
O60	O	1.868881	0.437764	1.273945
O61	O	1.118765	-0.523888	0.312278
O62	O	1.368765	-0.273888	0.562278
O63	O	1.618765	-0.023888	0.812278
O64	O	1.868765	0.226112	1.062278
O65	O	1.027557	-0.523860	0.403480
O66	O	1.277557	-0.273860	0.653480
O67	O	1.527557	-0.023860	0.903480
O68	O	1.777557	0.226140	1.153480
C69	C	0.880275	-0.357841	0.357877
C70	C	1.130275	-0.107841	0.607877
C71	C	1.380275	0.142159	0.857877
C72	C	1.630275	0.392159	1.107877
C73	C	0.797729	-0.357847	0.357877
C74	C	1.047729	-0.107847	0.607877
C75	C	1.297729	0.142153	0.857877
C76	C	1.547729	0.392153	1.107877
C77	C	0.598269	-0.308191	0.308397
C78	C	0.848269	-0.058191	0.558397
C79	C	1.098269	0.191809	0.808397
C80	C	1.348269	0.441809	1.058397
C81	C	0.548861	-0.375927	0.290120
C82	C	0.798861	-0.125927	0.540120
C83	C	1.048861	0.124073	0.790120
C84	C	1.298861	0.374073	1.040120
C85	C	0.646599	-0.357869	0.357911
C86	C	0.896599	-0.107869	0.607911
C87	C	1.146599	0.142131	0.857911
C88	C	1.396599	0.392131	1.107911
C89	C	0.548925	-0.290157	0.376186
C90	C	0.798925	-0.040157	0.626186
C91	C	1.048925	0.209843	0.876186
C92	C	1.298925	0.459843	1.126186
C93	C	0.500614	-0.357885	0.357942
C94	C	0.750614	-0.107885	0.607942
C95	C	1.000614	0.142115	0.857942
C96	C	1.250614	0.392115	1.107942
C97	C	0.598278	-0.425641	0.339598
C98	C	0.848278	-0.175641	0.589598
C99	C	1.098278	0.074359	0.839598
C100	C	1.348278	0.324359	1.089598
C101	C	0.598346	-0.339825	0.425696
C102	C	0.848346	-0.089825	0.675696
C103	C	1.098346	0.160175	0.925696
C104	C	1.348346	0.410175	1.175696
C105	C	0.548961	-0.407607	0.407445
C106	C	0.798961	-0.157607	0.657445
C107	C	1.048961	0.092393	0.907445
C108	C	1.298961	0.342393	1.157445
C109	C	0.730697	-0.357859	0.357891
C110	C	0.980697	-0.107859	0.607891
C111	C	1.230697	0.142141	0.857891
C112	C	1.480697	0.392141	1.107891
C113	C	0.416517	-0.357903	0.357962
C114	C	0.666517	-0.107903	0.607962
C115	C	0.916517	0.142097	0.857962
C116	C	1.166517	0.392097	1.107962
C117	C	1.073170	-0.550820	0.357889
C118	C	1.323170	-0.300820	0.607889
C119	C	1.573170	-0.050820	0.857889
C120	C	1.823170	0.199180	1.107889
C121	C	1.073214	-0.633366	0.357901
C122	C	1.323214	-0.383366	0.607901
C123	C	1.573214	-0.133366	0.857901
C124	C	1.823214	0.116634	1.107901
C125	C	1.122916	-0.832806	0.308375
C126	C	1.372916	-0.582806	0.558375
C127	C	1.622916	-0.332806	0.808375
C128	C	1.872916	-0.082806	1.058375
C129	C	1.141051	-0.882145	0.376157
C130	C	1.391051	-0.632145	0.626157
C131	C	1.641051	-0.382145	0.876157
C132	C	1.891051	-0.132145	1.126157
C133	C	1.073256	-0.784497	0.357930
C134	C	1.323256	-0.534497	0.607930
C135	C	1.573256	-0.284497	0.857930
C136	C	1.823256	-0.034497	1.107930
C137	C	1.055196	-0.882238	0.290179
C138	C	1.305196	-0.632238	0.540179
C139	C	1.555196	-0.382238	0.790179
C140	C	1.805196	-0.132238	1.040179
C141	C	1.073298	-0.930482	0.357953
C142	C	1.323298	-0.680482	0.607953
C143	C	1.573298	-0.430482	0.857953
C144	C	1.823298	-0.180482	1.107953
C145	C	1.091426	-0.832749	0.425748
C146	C	1.341426	-0.582749	0.675748
C147	C	1.591426	-0.332749	0.925748
C148	C	1.841426	-0.082749	1.175748
C149	C	1.005539	-0.832838	0.339725
C150	C	1.255539	-0.582838	0.589725
C151	C	1.505539	-0.332838	0.839725
C152	C	1.755539	-0.082838	1.089725
C153	C	1.023649	-0.882155	0.407554
C154	C	1.273649	-0.632155	0.657554
C155	C	1.523649	-0.382155	0.907554
C156	C	1.773649	-0.132155	1.157554
C157	C	1.073233	-0.700398	0.357916
C158	C	1.323233	-0.450398	0.607916
C159	C	1.573233	-0.200398	0.857916
C160	C	1.823233	0.049602	1.107916
C161	C	1.073320	-1.014578	0.357975
C162	C	1.323320	-0.764578	0.607975
C163	C	1.573320	-0.514578	0.857975
C164	C	1.823320	-0.264578	1.107975
C165	C	1.266933	-0.357897	0.357960
C166	C	1.516933	-0.107897	0.607960
C167	C	1.766933	0.142103	0.857960
C168	C	2.016933	0.392103	1.107960
C169	C	1.349479	-0.357909	0.357978
C170	C	1.599479	-0.107909	0.607978
C171	C	1.849479	0.142091	0.857978
C172	C	2.099479	0.392091	1.107978
C173	C	1.073256	-0.357835	0.551624
C174	C	1.323256	-0.107835	0.801624
C175	C	1.573256	0.142165	1.051624
C176	C	1.823256	0.392165	1.301624
C177	C	1.073269	-0.357821	0.634170
C178	C	1.323269	-0.107821	0.884170
C179	C	1.573269	0.142179	1.134170
C180	C	1.823269	0.392179	1.384170
C181	C	1.073305	-0.164163	0.357964
C182	C	1.323305	0.085837	0.607964
C183	C	1.573305	0.335837	0.857964
C184	C	1.823305	0.585837	1.107964
C185	C	1.073338	-0.081617	0.357984
C186	C	1.323338	0.168383	0.607984
C187	C	1.573338	0.418383	0.857984
C188	C	1.823338	0.668383	1.107984
C189	C	1.073241	-0.357848	0.164966
C190	C	1.323241	-0.107848	0.414966
C191	C	1.573241	0.142152	0.664966
C192	C	1.823241	0.392152	0.914966
C193	C	1.073372	-0.357652	0.082421
C194	C	1.323372	-0.107652	0.332421
C195	C	1.573372	0.142348	0.582421
C196	C	1.823372	0.392348	0.832421
C197	C	1.023681	-0.407353	0.833598
C198	C	1.273681	-0.157353	1.083598
C199	C	1.523681	0.092647	1.333598
C200	C	1.773681	0.342647	1.583598
C201	C	1.091439	-0.425511	0.882996
C202	C	1.341439	-0.175511	1.132996
C203	C	1.591439	0.074489	1.382996
C204	C	1.841439	0.324489	1.632996
C205	C	1.073305	-0.357765	0.785300
C206	C	1.323305	-0.107765	1.035300
C207	C	1.573305	0.142235	1.285300
C208	C	1.823305	0.392235	1.535300
C209	C	1.005584	-0.339586	0.882984
C210	C	1.255584	-0.089586	1.132984
C211	C	1.505584	0.160414	1.382984
C212	C	1.755584	0.410414	1.632984
C213	C	1.073335	-0.357711	0.931285
C214	C	1.323335	-0.107711	1.181285
C215	C	1.573335	0.142289	1.431285
C216	C	1.823335	0.392289	1.681285
C217	C	1.141099	-0.375958	0.833611
C218	C	1.391099	-0.125958	1.083611
C219	C	1.641099	0.124042	1.333611
C220	C	1.891099	0.374042	1.583611
C221	C	1.055199	-0.290002	0.833594
C222	C	1.305199	-0.040002	1.083594
C223	C	1.555199	0.209998	1.333594
C224	C	1.805199	0.459998	1.583594
C225	C	1.123004	-0.308134	0.882970
C226	C	1.373004	-0.058134	1.132970
C227	C	1.623004	0.191866	1.382970
C228	C	1.873004	0.441866	1.632970
C229	C	1.073287	-0.357797	0.701202
C230	C	1.323287	-0.107797	0.951202
C231	C	1.573287	0.142203	1.201202
C232	C	1.823287	0.392203	1.451202
C233	C	1.073360	-0.357679	1.015382
C234	C	1.323360	-0.107679	1.265382
C235	C	1.573360	0.142321	1.515382
C236	C	1.823360	0.392321	1.765382
H237	H	0.527446	-0.449673	0.449330
H238	H	0.777446	-0.199673	0.699330
H239	H	1.027446	0.050327	0.949330
H240	H	1.277446	0.300327	1.199330
H241	H	1.164925	-0.811136	0.266510
H242	H	1.414925	-0.561136	0.516510
H243	H	1.664925	-0.311136	0.766510
H244	H	1.914925	-0.061136	1.016510
H245	H	1.198335	-0.903806	0.391570
H246	H	1.448335	-0.653806	0.641570
H247	H	1.698335	-0.403806	0.891570
H248	H	1.948335	-0.153806	1.141570
H249	H	0.527208	-0.232894	0.391604
H250	H	0.777208	0.017106	0.641604
H251	H	1.027208	0.267106	0.891604
H252	H	1.277208	0.517106	1.141604
H253	H	0.948301	-0.324232	0.904672
H254	H	1.198301	-0.074232	1.154672
H255	H	1.448301	0.175768	1.404672
H256	H	1.698301	0.425768	1.654672
H257	H	1.165031	-0.266177	0.904511
H258	H	1.415031	-0.016177	1.154511
H259	H	1.665031	0.233823	1.404511
H260	H	1.915031	0.483823	1.654511
H261	H	0.981754	-0.449342	0.811921
H262	H	1.231754	-0.199342	1.061921
H263	H	1.481754	0.050658	1.311921
H264	H	1.731754	0.300658	1.561921
H265	H	1.039846	-0.232736	0.811878
H266	H	1.289846	0.017264	1.061878
H267	H	1.539846	0.267264	1.311878
H268	H	1.789846	0.517264	1.561878
H269	H	0.619920	-0.266226	0.266480
H270	H	0.869920	-0.016226	0.516480
H271	H	1.119920	0.233774	0.766480
H272	H	1.369920	0.483774	1.016480
H273	H	1.039904	-0.903976	0.232873
H274	H	1.289904	-0.653976	0.482873
H275	H	1.539904	-0.403976	0.732873
H276	H	1.789904	-0.153976	0.982873
H277	H	0.527126	-0.391201	0.232809
H278	H	0.777126	-0.141201	0.482809
H279	H	1.027126	0.108799	0.732809
H280	H	1.277126	0.358799	0.982809
H281	H	1.106771	-0.482794	0.904696
H282	H	1.356771	-0.232794	1.154696
H283	H	1.606771	0.017206	1.404696
H284	H	1.856771	0.267206	1.654696
H285	H	0.619866	-0.482928	0.324091
H286	H	0.869866	-0.232928	0.574091
H287	H	1.119866	0.017072	0.824091
H288	H	1.369866	0.267072	1.074091
H289	H	0.620100	-0.324530	0.482990
H290	H	0.870100	-0.074530	0.732990
H291	H	1.120100	0.175470	0.982990
H292	H	1.370100	0.425470	1.232990
H293	H	1.106662	-0.811103	0.483104
H294	H	1.356662	-0.561103	0.733104
H295	H	1.606662	-0.311103	0.983104
H296	H	1.856662	-0.061103	1.233104
H297	H	0.948271	-0.811161	0.324291
H298	H	1.198271	-0.561161	0.574291
H299	H	1.448271	-0.311161	0.824291
H300	H	1.698271	-0.061161	1.074291
H301	H	0.981672	-0.903687	0.449520
H302	H	1.231672	-0.653687	0.699520
H303	H	1.481672	-0.403687	0.949520
H304	H	1.731672	-0.153687	1.199520
H305	H	1.198399	-0.391377	0.812015
H306	H	1.448399	-0.141377	1.062015
H307	H	1.698399	0.108623	1.312015
H308	H	1.948399	0.358623	1.562015
