data_functionalizedCrystal
_audit_creation_method	'MofGen! by Chris Wilmer'
_symmetry_space_group_name_H-M	'P1'
_symmetry_Int_Tables_number	1
_symmetry_cell_setting	triclinic
loop_
_symmetry_equiv_pos_as_xyz
  x,y,z
_cell_length_a	12.759395
_cell_length_b	18.101397
_cell_length_c	12.759387
_cell_angle_alpha	89.965678
_cell_angle_beta	89.979491
_cell_angle_gamma	90.021303
loop_
_atom_site_label
_atom_site_type_symbol
_atom_site_fract_x
_atom_site_fract_y
_atom_site_fract_z
Zn1	Zn	1.606232	-0.294760	-0.593979
Zn2	Zn	1.606107	-0.418620	-0.418289
Zn3	Zn	1.430530	-0.294801	-0.418316
Zn4	Zn	1.430507	-0.418568	-0.593928
O5	O	1.518344	-0.356687	-0.506128
O6	O	1.753236	-0.311196	-0.570684
O7	O	1.582774	-0.402234	-0.271271
O8	O	1.453899	-0.191162	-0.441651
O9	O	1.753144	-0.402195	-0.441605
O10	O	1.582986	-0.191133	-0.570710
O11	O	1.453778	-0.311264	-0.271291
O12	O	1.283506	-0.311213	-0.441601
O13	O	1.453860	-0.402105	-0.740956
O14	O	1.283489	-0.402145	-0.570623
O15	O	1.582964	-0.311145	-0.740994
O16	O	1.582751	-0.522246	-0.441555
O17	O	1.453738	-0.522208	-0.570596
C18	C	1.245376	-0.356678	-0.506110
C19	C	1.128600	-0.356692	-0.506127
C20	C	1.518257	-0.549098	-0.506090
C21	C	1.518316	-0.631412	-0.506109
C22	C	1.128620	-0.451532	-0.640260
C23	C	1.073770	-0.498958	-0.707329
C24	C	0.964048	-0.498967	-0.707342
C25	C	0.909175	-0.451543	-0.640281
C26	C	0.964025	-0.404118	-0.573211
C27	C	1.073749	-0.404115	-0.573203
C28	C	0.964004	-0.309275	-0.439086
C29	C	1.073726	-0.309269	-0.439066
C30	C	0.909130	-0.261852	-0.372024
C31	C	0.963981	-0.214429	-0.304948
C32	C	1.073709	-0.214422	-0.304937
C33	C	1.128576	-0.261843	-0.371997
C34	C	1.518380	-0.782120	-0.506145
C35	C	1.599632	-0.813467	-0.425034
C36	C	1.599429	-0.899086	-0.424736
C37	C	1.518445	-0.930503	-0.506180
C38	C	1.407642	-0.899491	-0.476382
C39	C	1.408075	-0.813846	-0.475773
C40	C	1.546977	-0.813606	-0.617264
C41	C	1.549457	-0.899255	-0.616692
C42	C	1.518474	-1.014362	-0.506201
C43	C	1.518343	-0.698261	-0.506120
C44	C	1.792377	-0.356697	-0.506147
C45	C	1.909154	-0.356701	-0.506155
C46	C	1.518423	-0.356615	-0.780162
C47	C	1.518457	-0.356584	-0.896939
C48	C	1.518459	-0.163525	-0.506189
C49	C	1.518509	-0.081211	-0.506215
C50	C	1.652902	-0.261872	-0.896998
C51	C	1.720140	-0.214506	-0.951888
C52	C	1.720165	-0.214479	-1.061610
C53	C	1.652944	-0.261822	-1.116443
C54	C	1.585707	-0.309189	-1.061553
C55	C	1.585691	-0.309212	-0.951829
C56	C	1.451258	-0.403895	-1.061494
C57	C	1.451236	-0.403927	-0.951772
C58	C	1.384036	-0.451238	-1.116328
C59	C	1.316802	-0.498610	-1.061438
C60	C	1.316781	-0.498636	-0.951709
C61	C	1.383998	-0.451294	-0.896882
C62	C	1.518325	-0.356706	-0.233161
C63	C	1.518495	-0.356528	-0.116385
H64	H	1.118460	-0.537568	-0.761931
O65	O	1.384064	-0.451350	-1.222911
C66	C	1.411024	-0.522317	-1.259540
H67	H	1.393025	-0.564985	-1.196289
H68	H	1.498201	-0.523894	-1.279018
C69	C	1.369129	-0.487667	-1.436370
C70	C	1.347014	-0.540073	-1.358686
H71	H	1.329649	-0.498619	-1.497530
H72	H	1.350969	-0.439854	-1.411693
H73	H	1.441778	-0.488987	-1.452589
H74	H	1.274369	-0.538746	-1.342459
H75	H	1.365160	-0.587886	-1.383362
H76	H	0.819789	-0.261859	-0.372044
H77	H	0.919294	-0.175817	-0.250357
O78	O	1.785326	-0.168415	-0.898666
C79	C	1.762448	-0.094596	-0.925518
H80	H	1.678525	-0.090837	-0.955669
H81	H	1.818804	-0.075229	-0.989222
C82	C	1.877769	-0.049815	-0.791035
C83	C	1.774691	-0.045197	-0.828059
H84	H	1.885325	-0.019342	-0.730919
H85	H	1.893186	-0.099548	-0.772946
H86	H	1.924721	-0.033677	-0.844131
H87	H	1.727742	-0.061343	-0.774968
H88	H	1.759266	0.004535	-0.846136
H89	H	1.383878	-0.793931	-0.394555
O90	O	1.785327	-0.168389	-1.114982
C91	C	1.725558	-0.120552	-1.178481
H92	H	1.642809	-0.115975	-1.145401
H93	H	1.721935	-0.143435	-1.261626
C94	C	1.878576	-0.049192	-1.220845
C95	C	1.776945	-0.043565	-1.180210
H96	H	1.910275	-0.001703	-1.221917
H97	H	1.918845	-0.081421	-1.178068
H98	H	1.875543	-0.068263	-1.290128
H99	H	1.779980	-0.024503	-1.110924
H100	H	1.736677	-0.011330	-1.222976
H101	H	1.626379	-0.791947	-0.644424
H102	H	1.262016	-0.537200	-0.907024
O103	O	0.910599	-0.544965	-0.772457
C104	C	0.801991	-0.534814	-0.758062
H105	H	0.787019	-0.477632	-0.723805
H106	H	0.770813	-0.578692	-0.701997
C107	C	0.764084	-0.611930	-0.906421
C108	C	0.745694	-0.541695	-0.864355
H109	H	0.729355	-0.616178	-0.971986
H110	H	0.837255	-0.618772	-0.916118
H111	H	0.738102	-0.648487	-0.859690
H112	H	0.771688	-0.505140	-0.911079
H113	H	0.672526	-0.534848	-0.854668
O114	O	1.333448	-0.788979	-0.543187
C115	C	1.333103	-0.711088	-0.543257
H116	H	1.412642	-0.689902	-0.515837
H117	H	1.269405	-0.690244	-0.488025
C118	C	1.213636	-0.708802	-0.688658
C119	C	1.311331	-0.682781	-0.654989
H120	H	1.200201	-0.691340	-0.757579
H121	H	1.213865	-0.761279	-0.688610
H122	H	1.160566	-0.691430	-0.642623
H123	H	1.364400	-0.700162	-0.701017
H124	H	1.311110	-0.630307	-0.655048
O125	O	1.646733	-0.923347	-0.643663
C126	C	1.673734	-0.894982	-0.743010
H127	H	1.626049	-0.842976	-0.759240
H128	H	1.656168	-0.938109	-0.805674
C129	C	1.849943	-0.939866	-0.725026
C130	C	1.791381	-0.875988	-0.744955
H131	H	1.922513	-0.928153	-0.726229
H132	H	1.831751	-0.958979	-0.658095
H133	H	1.835292	-0.975800	-0.777249
H134	H	1.806022	-0.840060	-0.692726
H135	H	1.809578	-0.856869	-0.811877
H136	H	1.682024	-0.792825	-0.443430
H137	H	1.345471	-0.919842	-0.533653
H138	H	1.262071	-0.537149	-1.106092
O139	O	1.483932	-0.924797	-0.692506
C140	C	1.408287	-0.971737	-0.647077
H141	H	1.399761	-0.958061	-0.560291
H142	H	1.434138	-1.031674	-0.656142
C143	C	1.312724	-0.977315	-0.809033
C144	C	1.302246	-0.960514	-0.702443
H145	H	1.247314	-0.970396	-0.843188
H146	H	1.363689	-0.945694	-0.839641
H147	H	1.334270	-1.027263	-0.816573
H148	H	1.280714	-0.910565	-0.694905
H149	H	1.251274	-0.992128	-0.671835
O150	O	1.126825	-0.168330	-0.239683
C151	C	1.054860	-0.126466	-0.180522
H152	H	0.976631	-0.156800	-0.176819
H153	H	1.043235	-0.070256	-0.219146
C154	C	1.193707	-0.078434	-0.073272
C155	C	1.097627	-0.115694	-0.068717
H156	H	1.220089	-0.071785	-0.004307
H157	H	1.242192	-0.106636	-0.113132
H158	H	1.184007	-0.031596	-0.105464
H159	H	1.107331	-0.162534	-0.036538
H160	H	1.049144	-0.087499	-0.028849
H161	H	1.217917	-0.261844	-0.371991
H162	H	1.652962	-0.261789	-1.205785
H163	H	1.383991	-0.451313	-0.807541
H164	H	1.217962	-0.451535	-0.640248
O165	O	1.378346	-0.925271	-0.380615
C166	C	1.374099	-1.003086	-0.382988
H167	H	1.426208	-1.024468	-0.448911
H168	H	1.289873	-1.021625	-0.397059
C169	C	1.348841	-1.007899	-0.196555
C170	C	1.412850	-1.034161	-0.277517
H171	H	1.372740	-1.027069	-0.131495
H172	H	1.351699	-0.955473	-0.194956
H173	H	1.278658	-1.023350	-0.208295
H174	H	1.483029	-1.018703	-0.265784
H175	H	1.410005	-1.086586	-0.279112
O176	O	1.577008	-0.923647	-0.326509
C177	C	1.660952	-0.966882	-0.289111
H178	H	1.735745	-0.951255	-0.332720
H179	H	1.643031	-1.027835	-0.302686
C180	C	1.583962	-0.972077	-0.117454
C181	C	1.675825	-0.952879	-0.171009
H182	H	1.593134	-0.963443	-0.044602
H183	H	1.527405	-0.942951	-0.142650
H184	H	1.569037	-1.022871	-0.128777
H185	H	1.690741	-0.902084	-0.159696
H186	H	1.732385	-0.981996	-0.145808
O187	O	1.577453	-0.787788	-0.327372
C188	C	1.663763	-0.747366	-0.289015
H189	H	1.713031	-0.726777	-0.357629
H190	H	1.713621	-0.784461	-0.236789
C191	C	1.563630	-0.706202	-0.140706
C192	C	1.624137	-0.680909	-0.224980
H193	H	1.539188	-0.665209	-0.101202
H194	H	1.505481	-0.733437	-0.166545
H195	H	1.605187	-0.737114	-0.097196
H196	H	1.582576	-0.650005	-0.268495
H197	H	1.682277	-0.653666	-0.199146
O198	O	1.476460	-0.789505	-0.689491
C199	C	1.502875	-0.818052	-0.788834
H200	H	1.552086	-0.870120	-0.778719
H201	H	1.549682	-0.775062	-0.834437
C202	C	1.341580	-0.773025	-0.861839
C203	C	1.402015	-0.836979	-0.849414
H204	H	1.279366	-0.784697	-0.899210
H205	H	1.323785	-0.753790	-0.794911
H206	H	1.380598	-0.737205	-0.899837
H207	H	1.363001	-0.872793	-0.811406
H208	H	1.419801	-0.856221	-0.916338
H209	H	1.681583	-0.920051	-0.443348
H210	H	0.819834	-0.451548	-0.640306
H211	H	1.652898	-0.261897	-0.807656
