data_functionalizedCrystal
_audit_creation_method	'MofGen! by Chris Wilmer'
_symmetry_space_group_name_H-M	'P1'
_symmetry_Int_Tables_number	1
_symmetry_cell_setting	triclinic
loop_
_symmetry_equiv_pos_as_xyz
  x,y,z
_cell_length_a	9.065218
_cell_length_b	14.971482
_cell_length_c	13.448316
_cell_angle_alpha	89.993798
_cell_angle_beta	90.005065
_cell_angle_gamma	95.685753
loop_
_atom_site_label
_atom_site_type_symbol
_atom_site_fract_x
_atom_site_fract_y
_atom_site_fract_z
O1	O	-0.192235	1.188382	-0.082676
O2	O	-0.215265	0.928153	-0.082680
O3	O	0.011002	1.063647	-0.082675
O4	O	-0.418502	1.052889	-0.082681
O5	O	0.011016	1.063629	0.082709
O6	O	-0.215251	0.928136	0.082704
O7	O	-0.192221	1.188365	0.082708
Cu8	Cu	-0.203735	1.058249	0.097807
Cu9	Cu	-0.203751	1.058269	-0.097779
O10	O	-0.418488	1.052871	0.082703
C11	C	-0.214229	0.894812	0.000011
C12	C	-0.211145	0.795492	0.000009
C13	C	-0.209686	0.748827	0.090161
C14	C	-0.206765	0.655507	0.090162
C15	C	-0.205314	0.608852	0.000011
C16	C	-0.206770	0.655524	-0.090148
C17	C	-0.209680	0.748843	-0.090148
C18	C	-0.200708	0.461017	-0.090142
C19	C	-0.197800	0.367691	-0.090142
C20	C	-0.197793	0.367680	0.090169
C21	C	-0.200703	0.461000	0.090169
C22	C	-0.202161	0.507665	0.000010
C23	C	-0.473460	1.053914	0.000010
C24	C	-0.637240	1.057005	0.000008
C25	C	0.065974	1.062604	0.000016
C26	C	0.229754	1.059513	0.000011
C27	C	-0.193257	1.221706	0.000015
C28	C	-0.196341	1.321026	0.000010
N29	N	-0.203722	1.058241	0.235371
N30	N	-0.203752	1.058284	-0.235343
C31	C	-0.103573	1.118256	0.287414
C32	C	-0.103572	1.118262	0.391517
C33	C	-0.203728	1.058256	0.443576
C34	C	-0.303882	0.998234	0.391526
C35	C	-0.303875	0.998224	0.287424
C36	C	-0.303892	0.998258	0.608506
C37	C	-0.303902	0.998269	0.712614
C38	C	-0.103589	1.118296	0.712598
C39	C	-0.103582	1.118287	0.608497
C40	C	-0.203738	1.058266	0.556454
H41	H	-0.210872	0.786837	-0.163559
O42	O	-0.196337	0.322512	-0.177802
C43	C	-0.198280	0.383705	-0.257380
H44	H	-0.153667	0.453551	-0.230957
H45	H	-0.125882	0.361840	-0.320430
H46	H	-0.316859	0.385208	-0.285100
H47	H	-0.205551	0.617518	0.163573
O48	O	-0.400970	0.939904	0.442204
C49	C	-0.321811	0.884080	0.502426
H50	H	-0.206463	0.918775	0.518022
H51	H	-0.383356	0.870437	0.575628
H52	H	-0.311605	0.817890	0.462325
O53	O	-0.196091	0.322340	0.177729
C54	C	-0.066741	0.277453	0.183117
H55	H	0.021605	0.311942	0.131952
H56	H	-0.023840	0.279454	0.262852
H57	H	-0.093392	0.204669	0.158906
H58	H	-0.201893	0.498982	0.163578
H59	H	-0.201896	0.499009	-0.163559
O60	O	-0.006095	1.176533	0.441956
C61	C	0.139999	1.160814	0.416551
H62	H	0.139920	1.126325	0.340979
H63	H	0.212452	1.227467	0.412970
H64	H	0.185762	1.115942	0.475159
H65	H	-0.205579	0.617531	-0.163551
O66	O	-0.006090	1.176564	0.763034
C67	C	0.140001	1.160839	0.737628
H68	H	0.139917	1.126354	0.662053
H69	H	0.212461	1.227489	0.734051
H70	H	0.185757	1.115962	0.796233
O71	O	-0.401024	0.939847	0.763147
C72	C	-0.376791	0.851114	0.737720
H73	H	-0.258672	0.849737	0.709102
H74	H	-0.393608	0.806374	0.806196
H75	H	-0.458497	0.825480	0.677303
H76	H	-0.385446	0.949380	0.566136
O77	O	-0.401307	0.939895	0.237021
C78	C	-0.489687	0.886919	0.305289
H79	H	-0.491462	0.923610	0.379487
H80	H	-0.607469	0.874219	0.275201
H81	H	-0.441601	0.820090	0.316382
O82	O	-0.006159	1.176406	0.236761
C83	C	0.085012	1.127733	0.176616
H84	H	0.026388	1.058235	0.161007
H85	H	0.108352	1.164870	0.103415
H86	H	0.194017	1.120736	0.216788
H87	H	-0.022034	1.167153	0.566111
H88	H	-0.210879	0.786805	0.163573
