data_functionalizedCrystal
_audit_creation_method	'MofGen! by Chris Wilmer'
_symmetry_space_group_name_H-M	'P1'
_symmetry_Int_Tables_number	1
_symmetry_cell_setting	triclinic
loop_
_symmetry_equiv_pos_as_xyz
  x,y,z
_cell_length_a	16.959455
_cell_length_b	13.897441
_cell_length_c	13.897448
_cell_angle_alpha	89.970373
_cell_angle_beta	90.014712
_cell_angle_gamma	89.975321
loop_
_atom_site_label
_atom_site_type_symbol
_atom_site_fract_x
_atom_site_fract_y
_atom_site_fract_z
Zn1	Zn	1.208431	-0.545538	-0.384070
Zn2	Zn	1.208349	-0.384239	-0.545389
Zn3	Zn	1.076249	-0.384239	-0.384101
Zn4	Zn	1.076229	-0.545475	-0.545316
O5	O	1.142314	-0.464873	-0.464719
O6	O	1.319031	-0.524168	-0.405487
O7	O	1.190799	-0.249257	-0.524037
O8	O	1.093826	-0.405662	-0.249115
O9	O	1.318970	-0.405662	-0.524007
O10	O	1.190939	-0.524167	-0.249093
O11	O	1.093746	-0.249257	-0.405540
O12	O	0.965636	-0.405601	-0.405469
O13	O	1.093792	-0.680465	-0.523883
O14	O	0.965621	-0.524060	-0.523913
O15	O	1.190920	-0.680511	-0.405416
O16	O	1.190780	-0.405601	-0.680361
O17	O	1.093712	-0.524060	-0.680308
C18	C	0.936948	-0.464824	-0.464688
C19	C	0.849091	-0.464826	-0.464697
C20	C	0.477574	-0.403135	-0.526372
C21	C	0.477658	-0.526727	-0.403147
C22	C	0.560204	-0.526704	-0.403131
C23	C	0.601438	-0.464896	-0.464737
C24	C	0.560127	-0.403112	-0.526360
C25	C	0.601521	-0.588494	-0.341517
C26	C	0.684072	-0.588473	-0.341499
C27	C	0.725308	-0.526660	-0.403101
C28	C	0.683992	-0.464873	-0.464725
C29	C	0.725227	-0.403065	-0.526332
C30	C	0.683912	-0.341272	-0.587952
C31	C	0.601364	-0.341299	-0.587962
C32	C	0.807857	-0.526634	-0.403091
C33	C	0.807780	-0.403042	-0.526320
C34	C	1.142363	-0.716466	-0.464638
C35	C	1.142383	-0.823680	-0.464604
C36	C	1.142400	-0.910750	-0.464576
C37	C	1.142422	-1.019982	-0.464533
C38	C	1.348482	-0.464922	-0.464751
C39	C	1.436339	-0.464943	-0.464765
C40	C	1.142257	-0.464845	-0.715334
C41	C	1.142304	-0.464865	-0.822547
C42	C	1.142312	-0.214258	-0.464730
C43	C	1.142444	-0.107045	-0.464493
C44	C	1.142387	-0.464925	-1.018842
C45	C	1.142339	-0.464895	-0.909610
C46	C	1.142394	-0.464922	-0.213126
C47	C	1.142428	-0.464943	-0.105912
H48	H	0.841491	-0.576946	-0.352923
N49	N	0.726256	-0.651584	-0.278540
N50	N	0.717034	-0.645342	-0.189528
H51	H	0.746826	-0.689913	-0.145060
H52	H	0.443932	-0.352822	-0.576538
N53	N	0.435529	-0.589861	-0.340236
N54	N	0.361825	-0.589878	-0.340262
H55	H	0.332067	-0.634469	-0.295828
N56	N	0.726048	-0.278154	-0.650882
N57	N	0.799752	-0.278156	-0.650863
H58	H	0.829515	-0.233581	-0.695307
N59	N	0.559161	-0.278177	-0.650892
N60	N	0.513065	-0.216787	-0.616885
H61	H	0.483256	-0.172208	-0.661330
N62	N	0.849898	-0.339890	-0.589235
N63	N	0.840634	-0.250898	-0.582720
H64	H	0.870380	-0.206295	-0.627153
N65	N	0.559390	-0.651627	-0.278607
N66	N	0.485687	-0.651634	-0.278627
H67	H	0.455927	-0.696224	-0.234195
