data_functionalizedCrystal
_audit_creation_method	'MofGen! by Chris Wilmer'
_symmetry_space_group_name_H-M	'P1'
_symmetry_Int_Tables_number	1
_symmetry_cell_setting	triclinic
loop_
_symmetry_equiv_pos_as_xyz
  x,y,z
_cell_length_a	20.919287
_cell_length_b	14.809374
_cell_length_c	20.919292
_cell_angle_alpha	57.358159
_cell_angle_beta	89.999828
_cell_angle_gamma	52.963964
loop_
_atom_site_label
_atom_site_type_symbol
_atom_site_fract_x
_atom_site_fract_y
_atom_site_fract_z
Zr1	Zr	0.472425	1.187679	-0.241099
O2	O	0.338618	1.414046	-0.360924
O3	O	0.531662	0.961314	-0.188053
O4	O	0.498048	1.187683	-0.344739
O5	O	0.378024	1.187674	-0.099198
O6	O	0.603085	1.187683	-0.350530
O7	O	0.372232	1.187677	-0.204237
O8	O	0.663215	0.782751	-0.070247
O9	O	0.317894	1.592606	-0.379482
O10	O	0.613304	1.054421	-0.189461
O11	O	0.539238	1.054418	-0.106750
O12	O	0.499661	1.320938	-0.291228
O13	O	0.425595	1.320935	-0.208516
Zr14	Zr	0.649185	1.187676	-0.082810
Zr15	Zr	0.639948	1.187681	-0.250336
Zr16	Zr	0.481662	1.187674	-0.073574
Zr17	Zr	0.439373	1.472462	-0.270697
Zr18	Zr	0.682237	0.902892	-0.053212
O19	O	0.589948	1.414041	-0.135857
O20	O	0.576814	1.414048	-0.374057
O21	O	0.351752	1.414039	-0.122724
O22	O	0.782992	0.961309	0.037014
O23	O	0.769858	0.961316	-0.201185
O24	O	0.544796	0.961307	0.050147
O25	O	0.743586	1.187681	-0.224712
O26	O	0.623562	1.187672	0.020830
O27	O	0.518524	1.187671	0.026621
O28	O	0.749378	1.187677	-0.119672
O29	O	0.451053	1.592608	-0.386823
O30	O	0.670557	0.782747	0.062914
O31	O	0.803716	0.782748	0.055572
O32	O	0.796373	0.782752	-0.077588
O33	O	0.325237	1.592602	-0.246322
O34	O	0.458395	1.592604	-0.253663
O35	O	0.621948	1.054417	-0.032682
O36	O	0.696015	1.054420	-0.115393
O37	O	0.582372	1.320936	-0.217160
O38	O	0.508306	1.320933	-0.134449
C39	C	0.602147	0.831457	-0.124933
C40	C	0.616179	0.710559	-0.112367
C41	C	0.553559	0.750147	-0.168444
C42	C	0.568059	0.625194	-0.155458
C43	C	0.351259	1.187676	-0.150402
C44	C	0.280141	1.187675	-0.146481
C45	C	0.243538	1.187681	-0.202508
C46	C	0.176719	1.187672	-0.198819
C47	C	0.146499	1.187669	-0.139107
C48	C	0.183109	1.187659	-0.083074
C49	C	0.249932	1.187656	-0.086759
C50	C	-0.055099	1.187667	-0.125081
C51	C	-0.121928	1.187674	-0.121402
C52	C	-0.128313	1.187685	-0.237146
C53	C	-0.061492	1.187691	-0.240830
C54	C	-0.024885	1.187673	-0.184794
C55	C	0.078197	1.187665	-0.135337
C56	C	0.043421	1.187666	-0.188560
C57	C	0.770351	1.187679	-0.173508
C58	C	0.841469	1.187680	-0.177429
C59	C	0.549251	1.187684	-0.371504
C60	C	0.545329	1.187686	-0.442623
C61	C	0.519462	1.543898	-0.198977
C62	C	0.505431	1.664796	-0.211542
C63	C	0.601352	1.187689	-0.479225
C64	C	0.597671	1.187677	-0.546043
C65	C	0.537962	1.187674	-0.576263
C66	C	0.481937	1.187666	-0.539654
C67	C	0.485623	1.187667	-0.472832
C68	C	0.523942	1.187662	-0.777857
C69	C	0.520258	1.187666	-0.844685
C70	C	0.635994	1.187674	-0.851069
C71	C	0.639671	1.187684	-0.784249
C72	C	0.583649	1.187668	-0.747643
C73	C	0.534196	1.187667	-0.644564
C74	C	0.587420	1.187664	-0.679339
C75	C	0.572359	1.187671	0.047594
C76	C	0.576281	1.187669	0.118713
C77	C	0.811693	0.831459	-0.136486
C78	C	0.896842	0.710561	-0.127842
C79	C	0.613702	0.831451	0.084616
C80	C	0.631655	0.710551	0.168300
C81	C	0.823248	0.831453	0.073063
C82	C	0.912318	0.710553	0.152826
C83	C	0.298362	1.543902	-0.396973
C84	C	0.209292	1.664802	-0.476736
C85	C	0.309917	1.543896	-0.187424
C86	C	0.224768	1.664793	-0.196068
C87	C	0.507908	1.543904	-0.408526
C88	C	0.489955	1.664804	-0.492210
C89	C	0.893655	0.653788	-0.162452
C90	C	0.973652	0.540207	-0.154347
C91	C	1.056838	0.483395	-0.111626
C92	C	1.060023	0.540180	-0.077015
C93	C	0.980025	0.653766	-0.085126
C94	C	0.683260	0.653774	0.246269
C95	C	0.700124	0.540191	0.324904
C96	C	0.665387	0.483380	0.325569
C97	C	0.613775	0.540168	0.247591
C98	C	0.596907	0.653756	0.168958
C99	C	0.992816	0.653779	0.147109
C100	C	1.076511	0.540197	0.222046
C101	C	1.079708	0.483383	0.302701
C102	C	0.999202	0.540169	0.308416
C103	C	0.915507	0.653756	0.233479
C104	C	0.128793	1.721590	-0.471020
C105	C	0.045093	1.835207	-0.545961
C106	C	0.041895	1.892027	-0.626616
C107	C	0.122403	1.835234	-0.632331
C108	C	0.206099	1.721626	-0.557391
C109	C	0.227953	1.721579	-0.161466
C110	C	0.147951	1.835191	-0.169593
C111	C	0.064765	1.892007	-0.212317
C112	C	0.061581	1.835216	-0.246923
C113	C	0.141581	1.721614	-0.238802
C114	C	0.524705	1.721579	-0.492847
C115	C	0.507854	1.835163	-0.571469
C116	C	0.456247	1.891976	-0.649455
C117	C	0.421497	1.835190	-0.648816
C118	C	0.438354	1.721601	-0.570193
H119	H	0.489215	0.876544	-0.226068
H120	H	0.971042	0.493987	-0.182532
H121	H	0.982633	0.699977	-0.056936
H122	H	0.680526	0.584161	-0.054747
H123	H	0.632411	0.498794	-0.097833
H124	H	0.158504	1.187647	-0.034451
H125	H	0.442528	1.984469	-0.713469
H126	H	0.410050	1.675387	-0.569687
H127	H	0.295681	1.675328	-0.126671
H128	H	0.441082	0.791196	-0.269171
H129	H	0.279735	1.187649	-0.041135
H130	H	0.742153	0.493968	0.388387
H131	H	0.681606	1.187685	-0.880879
H132	H	0.150562	1.881410	-0.141407
H133	H	0.068031	1.187660	-0.237175
H134	H	0.536154	1.881387	-0.571974
H135	H	0.268134	1.187693	-0.251135
H136	H	1.121971	0.390905	-0.105027
H137	H	0.711550	0.700017	0.245743
H138	H	0.131380	1.675333	-0.405352
H139	H	0.566726	1.675339	-0.429355
H140	H	-0.000369	1.984508	-0.218924
H141	H	1.142054	0.493974	0.217378
H142	H	1.127763	0.493908	-0.042232
H143	H	0.053585	1.187667	-0.086720
H144	H	0.649970	1.187701	-0.454629
H145	H	0.643290	1.187678	-0.575844
H146	H	0.379477	1.881465	-0.712322
H147	H	-0.006160	1.881493	-0.281709
H148	H	0.146917	1.187676	-0.244440
H149	H	-0.036889	1.187694	-0.289452
H150	H	-0.158124	1.187697	-0.282767
H151	H	-0.146530	1.187673	-0.072775
H152	H	0.554889	0.699969	0.105477
H153	H	0.271642	1.675391	-0.562055
H154	H	0.679130	0.390889	0.389603
H155	H	0.138976	1.675383	-0.266977
H156	H	-0.025300	1.187656	-0.079456
H157	H	0.585496	0.493895	0.248146
H158	H	0.471631	1.187664	-0.869286
H159	H	0.688291	1.187687	-0.759647
H160	H	0.478324	1.187653	-0.748059
H161	H	0.433323	1.187654	-0.564258
H162	H	0.636039	1.187659	-0.654730
H163	H	0.440004	1.187661	-0.443030
H164	H	0.849968	0.699967	0.238146
H165	H	0.485578	1.187668	-0.669175
H166	H	0.825927	0.700043	-0.197250
H167	H	0.990229	0.700020	0.081443
H168	H	1.147864	0.390893	0.363713
H169	H	1.001819	0.493894	0.374095
H170	H	-0.020449	1.881428	-0.541291
H171	H	-0.026262	1.984533	-0.687630
H172	H	0.119788	1.881511	-0.698009
