data_functionalizedCrystal
_audit_creation_method	'MofGen! by Chris Wilmer'
_symmetry_space_group_name_H-M	'P1'
_symmetry_Int_Tables_number	1
_symmetry_cell_setting	triclinic
loop_
_symmetry_equiv_pos_as_xyz
  x,y,z
_cell_length_a	10.723022
_cell_length_b	10.967829
_cell_length_c	9.198806
_cell_angle_alpha	77.868939
_cell_angle_beta	89.996352
_cell_angle_gamma	84.591424
loop_
_atom_site_label
_atom_site_type_symbol
_atom_site_fract_x
_atom_site_fract_y
_atom_site_fract_z
O1	O	1.657191	0.175017	-0.164724
O2	O	1.294039	0.191772	-0.168927
O3	O	1.483989	0.001817	-0.121331
O4	O	1.467241	0.364972	-0.212320
O5	O	1.483974	0.001816	0.120454
O6	O	1.294024	0.191772	0.072859
O7	O	1.657176	0.175016	0.077061
Cu8	Cu	1.475598	0.183394	0.097037
Cu9	Cu	1.475616	0.183395	-0.188902
O10	O	1.467226	0.364972	0.029465
C11	C	1.247532	0.190553	-0.047729
C12	C	1.108977	0.186906	-0.046817
C13	C	1.060415	0.077365	-0.019373
C14	C	0.917212	0.073593	-0.018429
C15	C	1.482762	-0.044684	0.011209
C16	C	1.479112	-0.183239	0.045915
C17	C	1.477493	-0.245005	-0.063865
C18	C	1.473721	-0.388210	-0.027998
C19	C	1.703683	0.176235	-0.044140
C20	C	1.842238	0.179882	-0.045061
C21	C	1.468453	0.411472	-0.103078
C22	C	1.472102	0.550028	-0.137794
N23	N	1.475595	0.183393	0.298151
N24	N	1.475630	0.183386	-0.390014
C25	C	1.555350	0.103284	0.390420
C26	C	1.555369	0.103280	0.557833
H27	H	1.478894	-0.191866	-0.184406
C28	C	1.471822	-0.459977	0.134860
C29	C	1.580456	-0.455448	0.242490
C30	C	1.578557	-0.527216	0.405343
C31	C	1.468023	-0.603514	0.460567
C32	C	1.359381	-0.608047	0.352935
C33	C	1.361280	-0.536278	0.190081
H34	H	1.662287	-0.398964	0.201612
H35	H	1.658981	-0.523861	0.485019
H36	H	1.466617	-0.656642	0.581121
H37	H	1.277550	-0.664530	0.393813
H38	H	1.280856	-0.539634	0.110405
H39	H	1.407323	0.251969	0.343096
C40	C	1.647581	0.010629	0.329722
C41	C	1.647314	0.010644	0.162313
C42	C	1.739550	-0.082015	0.101622
C43	C	1.832051	-0.174690	0.208340
C44	C	1.832321	-0.174709	0.375760
C45	C	1.740086	-0.082050	0.436451
H46	H	1.578836	0.079250	0.083305
H47	H	1.739349	-0.082001	-0.022313
H48	H	1.900329	-0.243282	0.163413
H49	H	1.900799	-0.243316	0.454768
H50	H	1.740286	-0.082064	0.560386
H51	H	0.884042	0.273675	-0.068552
C52	C	1.647619	0.010621	0.664913
C53	C	1.789796	0.013558	0.643307
C54	C	1.882049	-0.079104	0.750391
C55	C	1.832125	-0.174704	0.879081
C56	C	1.689940	-0.177644	0.900692
C57	C	1.597687	-0.084982	0.793608
H58	H	1.826760	0.084329	0.548039
H59	H	1.987304	-0.076927	0.734392
H60	H	1.900416	-0.243298	0.958351
H61	H	1.652976	-0.248416	0.995961
H62	H	1.492432	-0.087159	0.809607
C63	C	1.147460	-0.045563	0.011426
C64	C	1.240801	-0.074321	0.144184
C65	C	1.327844	-0.197254	0.174983
C66	C	1.321546	-0.291428	0.073024
C67	C	1.228201	-0.262673	-0.059742
C68	C	1.141158	-0.139740	-0.090541
H69	H	1.245467	-0.004606	0.219667
H70	H	1.396944	-0.218540	0.273265
H71	H	1.385980	-0.382430	0.095823
H72	H	1.223535	-0.332388	-0.135226
H73	H	1.072058	-0.118454	-0.188824
C74	C	1.021934	0.309836	-0.077619
C75	C	0.928595	0.338595	-0.210378
C76	C	0.841555	0.461530	-0.241181
C77	C	0.847855	0.555705	-0.139224
C78	C	0.941198	0.526949	-0.006456
C79	C	1.028238	0.404014	0.024347
H80	H	0.923928	0.268878	-0.285860
H81	H	0.772456	0.482816	-0.339465
H82	H	0.783423	0.646709	-0.162026
H83	H	0.945865	0.596666	0.069026
H84	H	1.097336	0.382728	0.122631
H85	H	1.477698	-0.236376	0.166456
H86	H	0.875399	-0.020195	0.005032
C87	C	1.474002	-0.378210	-0.300654
C88	C	1.584535	-0.301914	-0.355883
C89	C	1.586434	-0.230153	-0.518740
C90	C	1.477800	-0.234689	-0.626368
C91	C	1.367258	-0.310988	-0.571140
C92	C	1.365359	-0.382749	-0.408283
H93	H	1.664960	-0.298554	-0.276210
H94	H	1.668265	-0.173672	-0.559623
H95	H	1.479206	-0.181567	-0.746924
H96	H	1.286834	-0.314348	-0.650814
H97	H	1.283528	-0.439230	-0.367400
H98	H	1.407349	0.251978	0.530722
