data_functionalizedCrystal
_audit_creation_method	'MofGen! by Chris Wilmer'
_symmetry_space_group_name_H-M	'P1'
_symmetry_Int_Tables_number	1
_symmetry_cell_setting	triclinic
loop_
_symmetry_equiv_pos_as_xyz
  x,y,z
_cell_length_a	17.077404
_cell_length_b	15.296363
_cell_length_c	17.077396
_cell_angle_alpha	80.286989
_cell_angle_beta	89.982940
_cell_angle_gamma	99.690401
loop_
_atom_site_label
_atom_site_type_symbol
_atom_site_fract_x
_atom_site_fract_y
_atom_site_fract_z
Zn1	Zn	1.145985	-0.359230	-0.389705
Zn2	Zn	1.645985	0.140770	0.110295
Zn3	Zn	1.123191	-0.510143	-0.235695
Zn4	Zn	1.623191	-0.010143	0.264305
Zn5	Zn	1.014717	-0.359266	-0.258447
Zn6	Zn	1.514717	0.140734	0.241553
Zn7	Zn	0.991986	-0.510086	-0.366927
Zn8	Zn	1.491986	-0.010086	0.133073
O9	O	1.068970	-0.434681	-0.312694
O10	O	1.568970	0.065319	0.187306
O11	O	1.252807	-0.379258	-0.369286
O12	O	1.752807	0.120742	0.130714
O13	O	1.108775	-0.490168	-0.128860
O14	O	1.608775	0.009832	0.371140
O15	O	1.051182	-0.232984	-0.294913
O16	O	1.551182	0.267016	0.205087
O17	O	1.236060	-0.490134	-0.256135
O18	O	1.736060	0.009866	0.243865
O19	O	1.147624	-0.232958	-0.391347
O20	O	1.647624	0.267042	0.108653
O21	O	1.029079	-0.379319	-0.145576
O22	O	1.529079	0.120681	0.354424
O23	O	0.901856	-0.379263	-0.272827
O24	O	1.401856	0.120737	0.227173
O25	O	1.012441	-0.490035	-0.479802
O26	O	1.512441	0.009965	0.020198
O27	O	0.885156	-0.490070	-0.352527
O28	O	1.385156	0.009930	0.147473
O29	O	1.125583	-0.379202	-0.496536
O30	O	1.625583	0.120798	0.003464
O31	O	1.086734	-0.636412	-0.234049
O32	O	1.586734	-0.136412	0.265951
O33	O	0.990339	-0.636370	-0.330465
O34	O	1.490339	-0.136370	0.169535
C35	C	0.865024	-0.434665	-0.312674
C36	C	1.365024	0.065335	0.187326
C37	C	0.777772	-0.434680	-0.312682
C38	C	1.277772	0.065320	0.187318
C39	C	0.728094	-0.492464	-0.354088
C40	C	1.228094	0.007536	0.145912
C41	C	0.646113	-0.492466	-0.354100
C42	C	1.146113	0.007534	0.145900
C43	C	0.613812	-0.434687	-0.312701
C44	C	1.113812	0.065313	0.187299
C45	C	0.663497	-0.376897	-0.271294
C46	C	1.163497	0.123103	0.228706
C47	C	0.745477	-0.376891	-0.271286
C48	C	1.245477	0.123109	0.228714
C49	C	0.492624	-0.376915	-0.271310
C50	C	0.992624	0.123085	0.228690
C51	C	0.410638	-0.376921	-0.271315
C52	C	0.910638	0.123079	0.228685
C53	C	0.393261	-0.492489	-0.354123
C54	C	0.893261	0.007511	0.145877
C55	C	0.475240	-0.492483	-0.354116
C56	C	0.975240	0.007517	0.145884
C57	C	0.524920	-0.434694	-0.312707
C58	C	1.024920	0.065306	0.187293
C59	C	1.033617	-0.669133	-0.277334
C60	C	1.533617	-0.169133	0.222666
C61	C	1.018565	-0.769433	-0.262233
C62	C	1.518565	-0.269433	0.237767
C63	C	1.176871	-1.051807	-0.420699
C64	C	1.676871	-0.551807	0.079301
C65	C	1.191019	-0.957571	-0.434886
C66	C	1.691019	-0.457571	0.065114
C67	C	1.147906	-0.910532	-0.391724
C68	C	1.647906	-0.410532	0.108276
C69	C	1.090644	-0.957738	-0.334372
C70	C	1.590644	-0.457738	0.165628
C71	C	1.076500	-1.051984	-0.320178
C72	C	1.576500	-0.551984	0.179822
C73	C	1.047535	-0.910708	-0.291204
C74	C	1.547535	-0.410708	0.208796
C75	C	0.990273	-0.957915	-0.233852
C76	C	1.490273	-0.457915	0.266148
C77	C	0.976131	-1.052151	-0.219661
C78	C	1.476131	-0.552151	0.280339
C79	C	1.019243	-1.099191	-0.262823
C80	C	1.519243	-0.599191	0.237177
C81	C	1.061680	-0.816463	-0.305398
C82	C	1.561680	-0.316463	0.194602
C83	C	0.961309	-0.816639	-0.204877
C84	C	1.461309	-0.316639	0.295123
C85	C	0.947161	-0.910876	-0.190690
C86	C	1.447161	-0.410876	0.309310
C87	C	1.273711	-0.434698	-0.312713
C88	C	1.773711	0.065302	0.187287
C89	C	1.360960	-0.434706	-0.312722
C90	C	1.860960	0.065294	0.187278
C91	C	1.069019	-0.434608	-0.517449
C92	C	1.569019	0.065392	-0.017449
C93	C	1.069041	-0.434577	-0.604704
C94	C	1.569041	0.065423	-0.104704
C95	C	1.104481	-0.199314	-0.348209
C96	C	1.604481	0.300686	0.151791
C97	C	1.119614	-0.099014	-0.363343
C98	C	1.619614	0.400986	0.136657
C99	C	1.110625	-0.492191	-0.971832
C100	C	1.610625	0.007809	-0.471832
C101	C	1.110601	-0.492217	-0.889848
C102	C	1.610601	0.007783	-0.389848
C103	C	1.069101	-0.434513	-0.857562
C104	C	1.569101	0.065487	-0.357562
C105	C	1.027615	-0.376785	-0.907265
C106	C	1.527615	0.123215	-0.407265
C107	C	1.027634	-0.376764	-0.989247
C108	C	1.527634	0.123236	-0.489247
C109	C	1.027578	-0.376832	-0.736388
C110	C	1.527578	0.123168	-0.236388
C111	C	1.027560	-0.376852	-0.654400
C112	C	1.527560	0.123148	-0.154400
C113	C	1.110545	-0.492285	-0.636989
C114	C	1.610545	0.007715	-0.136989
C115	C	1.110565	-0.492264	-0.718971
C116	C	1.610565	0.007736	-0.218971
C117	C	1.069080	-0.434535	-0.768668
C118	C	1.569080	0.065465	-0.268668
C119	C	1.068975	-0.434689	-0.108745
C120	C	1.568975	0.065311	0.391255
C121	C	1.069144	-0.434466	-0.021529
C122	C	1.569144	0.065534	0.478471
H123	H	0.785925	-0.329832	-0.237574
H124	H	1.285925	0.170168	0.262426
C125	C	1.156279	-0.555672	-1.007338
C126	C	1.656279	-0.055672	-0.507338
N127	N	1.190664	-0.603490	-1.034078
N128	N	1.690664	-0.103490	-0.534078
C129	C	1.124665	-0.764547	-0.368486
C130	C	1.624665	-0.264547	0.131514
N131	N	1.172108	-0.725444	-0.416009
N132	N	1.672108	-0.225444	0.083991
C133	C	1.156218	-0.555741	-0.754483
C134	C	1.656218	-0.055741	-0.254483
N135	N	1.190602	-0.603555	-0.781230
N136	N	1.690602	-0.103555	-0.281230
H137	H	0.993797	-0.329823	-0.776849
H138	H	1.493797	0.170177	-0.276849
C139	C	1.156175	-0.555792	-0.582320
C140	C	1.656175	-0.055792	-0.082320
N141	N	1.190544	-0.603622	-0.541140
N142	N	1.690544	-0.103622	-0.041140
C143	C	0.338612	-0.556054	-0.399678
C144	C	0.838612	-0.056054	0.100322
N145	N	0.297448	-0.603931	-0.433987
N146	N	0.797448	-0.103931	0.066013
H147	H	0.993857	-0.329758	-1.029710
H148	H	1.493857	0.170242	-0.529710
H149	H	0.993820	-0.329806	-0.880971
H150	H	1.493820	0.170194	-0.380971
C151	C	0.981899	-0.313382	-0.618886
C152	C	1.481899	0.186618	-0.118886
N153	N	0.947505	-0.265577	-0.592138
N154	N	1.447505	0.234423	-0.092138
H155	H	0.605668	-0.539520	-0.387816
H156	H	1.105668	-0.039520	0.112184
C157	C	1.003699	-1.202857	-0.247204
C158	C	1.503699	-0.702857	0.252796
N159	N	0.991999	-1.280940	-0.235436
N160	N	1.491999	-0.780940	0.264564
C161	C	0.763617	-0.556026	-0.399630
C162	C	1.263617	-0.056026	0.100370
N163	N	0.790371	-0.603900	-0.433937
N164	N	1.290371	-0.103900	0.066063
H165	H	0.501536	-0.539537	-0.387822
H166	H	1.001536	-0.039537	0.112178
H167	H	0.384343	-0.329862	-0.237616
H168	H	0.884343	0.170138	0.262384
C169	C	0.913880	-0.764900	-0.157398
C170	C	1.413880	-0.264900	0.342602
N171	N	0.878161	-0.725925	-0.121638
N172	N	1.378161	-0.225925	0.378362
H173	H	0.533073	-0.329848	-0.237599
H174	H	1.033073	0.170152	0.262401
H175	H	1.159429	-0.833800	-0.403279
H176	H	1.659429	-0.333800	0.096721
C177	C	1.254014	-0.905651	-0.497963
C178	C	1.754014	-0.405651	0.002037
N179	N	1.301469	-0.866544	-0.545473
N180	N	1.801469	-0.366544	-0.045473
H181	H	1.211971	-1.090115	-0.455830
H182	H	1.711971	-0.590115	0.044170
H183	H	0.637191	-0.329849	-0.237590
H184	H	1.137191	0.170151	0.262410
H185	H	0.929511	-1.090584	-0.172954
H186	H	1.429511	-0.590584	0.327046
H187	H	1.144368	-0.539234	-0.849386
H188	H	1.644368	-0.039234	-0.349386
C189	C	0.884214	-0.962815	-0.127563
C190	C	1.384214	-0.462815	0.372437
N191	N	0.836816	-1.001937	-0.080003
N192	N	1.336816	-0.501937	0.419997
