data_functionalizedCrystal
_audit_creation_method	'MofGen! by Chris Wilmer'
_symmetry_space_group_name_H-M	'P1'
_symmetry_Int_Tables_number	1
_symmetry_cell_setting	triclinic
loop_
_symmetry_equiv_pos_as_xyz
  x,y,z
_cell_length_a	12.759401
_cell_length_b	11.169416
_cell_length_c	12.759393
_cell_angle_alpha	89.971356
_cell_angle_beta	89.981504
_cell_angle_gamma	90.010501
loop_
_atom_site_label
_atom_site_type_symbol
_atom_site_fract_x
_atom_site_fract_y
_atom_site_fract_z
Zn1	Zn	1.606287	-0.477731	-0.594003
Zn2	Zn	1.606195	-0.678464	-0.418332
Zn3	Zn	1.430589	-0.477794	-0.418342
Zn4	Zn	1.430591	-0.678372	-0.593973
O5	O	1.518416	-0.578090	-0.506162
O6	O	1.753296	-0.504371	-0.570708
O7	O	1.582861	-0.651910	-0.271312
O8	O	1.453934	-0.309836	-0.441660
O9	O	1.753228	-0.651849	-0.441643
O10	O	1.583018	-0.309790	-0.570718
O11	O	1.453844	-0.504478	-0.271320
O12	O	1.283568	-0.504389	-0.441632
O13	O	1.453937	-0.651691	-0.740998
O14	O	1.283570	-0.651752	-0.570667
O15	O	1.583020	-0.504282	-0.741020
O16	O	1.582863	-0.846401	-0.441614
O17	O	1.453848	-0.846333	-0.570657
C18	C	1.245448	-0.578068	-0.506148
C19	C	1.128672	-0.578088	-0.506167
C20	C	1.073838	-0.654943	-0.573245
C21	C	0.964114	-0.654958	-0.573256
C22	C	0.964067	-0.501260	-0.439103
C23	C	1.073789	-0.501239	-0.439098
C24	C	1.073864	-0.743683	-0.650694
C25	C	0.964140	-0.743698	-0.650705
C26	C	1.518374	-0.889915	-0.506154
C27	C	1.518452	-1.023315	-0.506186
C28	C	1.792449	-0.578113	-0.506177
C29	C	1.909226	-0.578123	-0.506184
C30	C	1.518489	-0.577969	-0.780196
C31	C	1.518521	-0.577917	-0.896973
C32	C	1.518486	-0.265048	-0.506193
C33	C	1.518516	-0.131648	-0.506207
C34	C	1.585743	-0.501154	-0.951848
C35	C	1.585768	-0.501111	-1.061572
C36	C	1.451345	-0.654605	-1.061536
C37	C	1.451315	-0.654641	-0.951814
C38	C	1.663355	-0.412539	-0.951869
C39	C	1.663380	-0.412496	-1.061593
C40	C	1.518403	-0.578124	-0.233195
C41	C	1.518575	-0.577838	-0.116419
H42	H	1.396572	-0.717145	-0.907139
O43	O	0.923448	-0.704291	-0.742983
C44	C	0.861326	-0.795216	-0.787845
H45	H	0.834088	-0.859383	-0.723886
H46	H	0.909467	-0.846389	-0.848321
C47	C	0.798685	-0.659923	-0.920108
C48	C	0.765223	-0.738728	-0.841552
H49	H	0.739406	-0.625080	-0.953242
H50	H	0.840540	-0.598666	-0.889887
H51	H	0.838803	-0.702579	-0.970495
H52	H	0.725117	-0.696069	-0.791160
H53	H	0.723358	-0.799977	-0.871766
H54	H	0.934351	-0.836628	-0.628777
H55	H	1.744752	-0.437390	-1.091373
H56	H	1.634261	-0.324182	-1.095637
H57	H	0.919368	-0.438691	-0.384499
O58	O	1.126893	-0.426532	-0.373851
C59	C	1.054920	-0.358690	-0.314679
H60	H	0.976706	-0.407861	-0.310962
H61	H	1.043262	-0.267602	-0.353302
C62	C	1.193768	-0.280812	-0.207454
C63	C	1.097706	-0.341211	-0.202881
H64	H	1.220161	-0.270025	-0.138494
H65	H	1.242258	-0.326515	-0.247321
H66	H	1.184040	-0.204912	-0.239645
H67	H	1.107437	-0.417114	-0.170703
H68	H	1.049218	-0.295520	-0.163006
O69	O	1.109304	-0.714249	-0.747884
C70	C	1.072426	-0.798638	-0.821282
H71	H	0.999024	-0.843971	-0.789286
H72	H	1.135548	-0.868898	-0.835922
C73	C	1.136181	-0.678994	-0.964202
C74	C	1.046022	-0.734665	-0.924907
H75	H	1.119898	-0.639535	-1.028124
H76	H	1.161030	-0.622141	-0.914752
H77	H	1.188774	-0.737554	-0.976392
H78	H	0.993436	-0.676104	-0.912705
H79	H	1.021163	-0.791507	-0.974357
H80	H	1.396626	-0.717067	-1.106201
H81	H	1.107884	-0.831932	-0.621413
H82	H	1.641580	-0.319593	-0.922109
H83	H	1.740629	-0.445860	-0.917835
