data_functionalizedCrystal
_audit_creation_method	'MofGen! by Chris Wilmer'
_symmetry_space_group_name_H-M	'P1'
_symmetry_Int_Tables_number	1
_symmetry_cell_setting	triclinic
loop_
_symmetry_equiv_pos_as_xyz
  x,y,z
_cell_length_a	10.723023
_cell_length_b	10.723024
_cell_length_c	9.198806
_cell_angle_alpha	89.997735
_cell_angle_beta	90.003236
_cell_angle_gamma	95.532291
loop_
_atom_site_label
_atom_site_type_symbol
_atom_site_fract_x
_atom_site_fract_y
_atom_site_fract_z
O1	O	1.657188	-0.175020	0.120874
O2	O	2.157188	0.324980	0.620874
O3	O	1.294035	-0.191775	0.120879
O4	O	1.794035	0.308225	0.620879
O5	O	1.483988	-0.001821	0.120871
O6	O	1.983988	0.498179	0.620871
O7	O	1.467235	-0.364974	0.120882
O8	O	1.967235	0.135026	0.620882
O9	O	1.483974	-0.001820	-0.120914
O10	O	1.983974	0.498180	0.379086
O11	O	1.294021	-0.191773	-0.120906
O12	O	1.794021	0.308227	0.379094
O13	O	1.657174	-0.175019	-0.120911
O14	O	2.157174	0.324981	0.379089
Cu15	Cu	1.475596	-0.183396	-0.142985
Cu16	Cu	1.975596	0.316604	0.357015
Cu17	Cu	1.475613	-0.183398	0.142953
Cu18	Cu	1.975613	0.316602	0.642953
O19	O	1.467221	-0.364972	-0.120903
O20	O	1.967221	0.135028	0.379097
C21	C	1.247529	-0.190555	-0.000012
C22	C	1.747529	0.309445	0.499988
C23	C	1.108974	-0.186908	-0.000010
C24	C	1.608974	0.313092	0.499990
C25	C	1.047195	-0.185281	-0.125261
C26	C	1.547195	0.314719	0.374739
C27	C	0.903992	-0.181511	-0.125262
C28	C	1.403992	0.318489	0.374738
C29	C	1.482762	0.044679	-0.000020
C30	C	1.982762	0.544679	0.499980
C31	C	1.479114	0.183233	-0.000015
C32	C	1.979114	0.683233	0.499985
C33	C	1.703680	-0.176239	-0.000016
C34	C	2.203680	0.323761	0.499984
C35	C	1.842235	-0.179886	-0.000009
C36	C	2.342235	0.320114	0.499991
N37	N	1.475593	-0.183394	-0.344099
N38	N	1.975593	0.316606	0.155901
C39	C	1.468447	-0.411473	-0.000009
C40	C	1.968447	0.088527	0.499991
C41	C	1.472095	-0.550027	-0.000005
C42	C	1.972095	-0.050027	0.499995
C43	C	1.585402	0.258216	-0.000014
C44	C	2.085402	0.758216	0.499986
C45	C	1.581634	0.401420	-0.000009
C46	C	2.081634	0.901420	0.499991
C47	C	1.395853	-0.263499	-0.416328
C48	C	1.895853	0.236501	0.083672
C49	C	1.395870	-0.263497	-0.583740
C50	C	1.895870	0.236503	-0.083740
N51	N	1.475625	-0.183390	0.344067
N52	N	1.975625	0.316610	0.844067
H53	H	1.055849	-0.185506	0.107221
H54	H	1.555849	0.314494	0.607221
H55	H	1.679188	0.216394	-0.000025
H56	H	2.179188	0.716394	0.499975
N57	N	1.702174	0.486751	-0.000003
N58	N	2.202174	0.986751	0.499997
H59	H	1.752436	0.470241	-0.089635
H60	H	2.252436	0.970241	0.410365
H61	H	1.682298	0.576919	0.000055
H62	H	2.182298	1.076919	0.500055
H63	H	1.381099	0.385548	-0.000015
H64	H	1.881099	0.885548	0.499985
H65	H	1.543879	-0.114816	-0.406200
H66	H	2.043879	0.385184	0.093800
H67	H	1.385328	0.225055	-0.000004
H68	H	1.885328	0.725055	0.499996
N69	N	1.305405	-0.354354	-0.334086
N70	N	1.805405	0.145646	0.165914
H71	H	1.318215	-0.341477	-0.226149
H72	H	1.818215	0.158523	0.273851
H73	H	1.216675	-0.339400	-0.360632
H74	H	1.716675	0.160600	0.139368
N75	N	1.305425	-0.354339	-0.666002
N76	N	1.805425	0.145661	-0.166002
H77	H	1.318255	-0.341459	-0.773935
H78	H	1.818255	0.158541	-0.273935
H79	H	1.320820	-0.442957	-0.639469
H80	H	1.820820	0.057043	-0.139469
H81	H	1.543893	-0.114800	-0.593828
H82	H	2.043893	0.385200	-0.093828
N83	N	0.912594	-0.181724	0.142044
N84	N	1.412594	0.318276	0.642044
H85	H	0.851699	-0.180118	0.225630
H86	H	1.351699	0.319882	0.725630
H87	H	0.957162	-0.260370	0.147714
H88	H	1.457162	0.239630	0.647714
N89	N	1.117550	-0.187128	-0.267311
N90	N	1.617550	0.312872	0.232689
H91	H	1.209877	-0.189559	-0.247175
H92	H	1.709877	0.310441	0.252825
H93	H	1.085400	-0.263758	-0.324894
H94	H	1.585400	0.236242	0.175106
H95	H	0.850862	-0.180119	-0.232493
H96	H	1.350862	0.319881	0.267507
