data_functionalizedCrystal
_audit_creation_method	'MofGen! by Chris Wilmer'
_symmetry_space_group_name_H-M	'P1'
_symmetry_Int_Tables_number	1
_symmetry_cell_setting	triclinic
loop_
_symmetry_equiv_pos_as_xyz
  x,y,z
_cell_length_a	21.295417
_cell_length_b	21.295420
_cell_length_c	21.295411
_cell_angle_alpha	90.025759
_cell_angle_beta	89.978356
_cell_angle_gamma	89.975452
loop_
_atom_site_label
_atom_site_type_symbol
_atom_site_fract_x
_atom_site_fract_y
_atom_site_fract_z
Zn1	Zn	-0.250781	-0.962355	-0.355931
Zn2	Zn	0.249219	-0.462355	0.144069
Zn3	Zn	-0.356033	-0.962258	-0.250657
Zn4	Zn	0.143967	-0.462258	0.249343
Zn5	Zn	-0.250771	-0.857079	-0.250674
Zn6	Zn	0.249229	-0.357079	0.249326
Zn7	Zn	-0.356005	-0.857048	-0.355886
Zn8	Zn	0.143995	-0.357048	0.144114
O9	O	-0.303397	-0.909685	-0.303287
O10	O	0.196603	-0.409685	0.196713
O11	O	-0.264759	-1.050432	-0.341978
O12	O	0.235241	-0.550432	0.158022
O13	O	-0.342077	-0.948277	-0.162570
O14	O	0.157923	-0.448277	0.337430
O15	O	-0.162683	-0.871097	-0.264663
O16	O	0.337317	-0.371097	0.235337
O17	O	-0.342087	-1.050360	-0.264633
O18	O	0.157913	-0.550360	0.235367
O19	O	-0.162690	-0.948444	-0.341995
O20	O	0.337310	-0.448444	0.158005
O21	O	-0.264741	-0.871003	-0.162583
O22	O	0.235259	-0.371003	0.337417
O23	O	-0.264714	-0.768985	-0.264619
O24	O	0.235286	-0.268985	0.235381
O25	O	-0.342040	-0.871045	-0.443982
O26	O	0.157960	-0.371045	0.056018
O27	O	-0.342030	-0.768963	-0.341918
O28	O	0.157970	-0.268963	0.158082
O29	O	-0.264732	-0.948414	-0.444015
O30	O	0.235268	-0.448414	0.055985
O31	O	-0.444119	-0.948248	-0.264590
O32	O	0.055881	-0.448248	0.235410
O33	O	-0.444098	-0.870951	-0.341901
O34	O	0.055902	-0.370951	0.158099
C35	C	-0.303368	-0.746133	-0.303266
C36	C	0.196632	-0.246133	0.196734
C37	C	-0.303371	-0.676165	-0.303272
C38	C	0.196629	-0.176165	0.196728
C39	C	-0.263205	-0.176744	-0.343621
C40	C	0.236795	0.323256	0.156379
C41	C	-0.263203	-0.242486	-0.343622
C42	C	0.236797	0.257514	0.156378
C43	C	-0.303397	-0.275326	-0.303289
C44	C	0.196603	0.224674	0.196711
C45	C	-0.343609	-0.242417	-0.262963
C46	C	0.156391	0.257583	0.237037
C47	C	-0.343615	-0.176676	-0.262968
C48	C	0.156385	0.323324	0.237032
N49	N	-0.308136	-0.378516	-0.248171
N50	N	0.191864	0.121484	0.251829
N51	N	-0.308127	-0.440967	-0.248169
N52	N	0.191873	0.059033	0.251831
C53	C	-0.303383	-0.473400	-0.303275
C54	C	0.196617	0.026600	0.196725
N55	N	-0.298636	-0.441023	-0.358384
N56	N	0.201364	0.058977	0.141616
N57	N	-0.298642	-0.378566	-0.358385
N58	N	0.201358	0.121434	0.141615
C59	C	-0.303396	-0.346611	-0.303280
C60	C	0.196604	0.153389	0.196720
C61	C	-0.263174	-0.577587	-0.343602
C62	C	0.236826	-0.077587	0.156398
C63	C	-0.263175	-0.643330	-0.343605
C64	C	0.236825	-0.143330	0.156395
C65	C	-0.343578	-0.643260	-0.262940
C66	C	0.156422	-0.143260	0.237060
C67	C	-0.343580	-0.577517	-0.262944
C68	C	0.156420	-0.077517	0.237056
C69	C	-0.303374	-0.544685	-0.303274
C70	C	0.196626	-0.044685	0.196726
C71	C	-0.466949	-0.909602	-0.303252
C72	C	0.033051	-0.409602	0.196748
C73	C	-0.536917	-0.909625	-0.303259
C74	C	-0.036917	-0.409625	0.196741
C75	C	-0.569773	-0.949909	-0.263044
C76	C	-0.069773	-0.449909	0.236956
C77	C	-0.635516	-0.949939	-0.263058
C78	C	-0.135516	-0.449939	0.236942
C79	C	-0.668400	-0.909672	-0.303280
C80	C	-0.168400	-0.409672	0.196720
C81	C	-0.635535	-0.869385	-0.343503
C82	C	-0.135535	-0.369385	0.156497
C83	C	-0.569794	-0.869361	-0.343492
C84	C	-0.069794	-0.369361	0.156508
N85	N	-0.771661	-0.854605	-0.308072
N86	N	-0.271661	-0.354605	0.191928
N87	N	-0.834112	-0.854630	-0.308079
N88	N	-0.334112	-0.354630	0.191921
C89	C	-0.866474	-0.909743	-0.303316
C90	C	-0.366474	-0.409743	0.196684
N91	N	-0.834026	-0.964832	-0.298535
N92	N	-0.334026	-0.464832	0.201465
N93	N	-0.771569	-0.964807	-0.298525
N94	N	-0.271569	-0.464807	0.201475
C95	C	-0.739685	-0.909694	-0.303297
C96	C	-0.239685	-0.409694	0.196703
C97	C	-0.970616	-0.950063	-0.263115
C98	C	-0.470616	-0.450063	0.236885
C99	C	-1.036360	-0.950093	-0.263133
C100	C	-0.536360	-0.450093	0.236867
C101	C	-1.036378	-0.869534	-0.343575
C102	C	-0.536378	-0.369534	0.156425
C103	C	-0.970636	-0.869509	-0.343560
C104	C	-0.470636	-0.369509	0.156440
C105	C	-0.937759	-0.909773	-0.303326
C106	C	-0.437759	-0.409773	0.196674
C107	C	-0.139207	-0.909785	-0.303336
C108	C	0.360793	-0.409785	0.196664
C109	C	-0.069239	-0.909827	-0.303357
C110	C	0.430761	-0.409827	0.196643
C111	C	-0.303384	-0.909737	-0.467478
C112	C	0.196616	-0.409737	0.032522
C113	C	-0.303378	-0.909759	-0.537446
C114	C	0.196622	-0.409759	-0.037446
C115	C	-0.303419	-0.073875	-0.303304
C116	C	0.196581	0.426125	0.196696
C117	C	-0.303409	-0.143843	-0.303298
C118	C	0.196591	0.356157	0.196702
C119	C	-0.263122	-0.950044	-0.570331
C120	C	0.236878	-0.450044	-0.070331
C121	C	-0.263095	-0.950043	-0.636073
C122	C	0.236905	-0.450043	-0.136073
C123	C	-0.303335	-0.909764	-0.668928
C124	C	0.196665	-0.409764	-0.168928
C125	C	-0.343594	-0.869472	-0.636035
C126	C	0.156406	-0.369472	-0.136035
C127	C	-0.343616	-0.869470	-0.570294
C128	C	0.156384	-0.369470	-0.070294
N129	N	-0.358402	-0.904908	-0.772144
N130	N	0.141598	-0.404908	-0.272144
N131	N	-0.358380	-0.904914	-0.834595
N132	N	0.141620	-0.404914	-0.334595
C133	C	-0.303271	-0.909768	-0.867003
C134	C	0.196729	-0.409768	-0.367003
N135	N	-0.248185	-0.914629	-0.834600
N136	N	0.251815	-0.414629	-0.334600
N137	N	-0.248208	-0.914626	-0.772143
N138	N	0.251792	-0.414626	-0.272143
C139	C	-0.303316	-0.909762	-0.740214
C140	C	0.196684	-0.409762	-0.240214
C141	C	-0.262982	-0.950054	-0.971174
C142	C	0.237018	-0.450054	-0.471174
C143	C	-0.262954	-0.950048	-1.036917
C144	C	0.237046	-0.450048	-0.536917
C145	C	-0.343458	-0.869481	-1.036878
C146	C	0.156542	-0.369481	-0.536878
C147	C	-0.343481	-0.869483	-0.971136
C148	C	0.156519	-0.369483	-0.471136
C149	C	-0.303244	-0.909773	-0.938287
C150	C	0.196756	-0.409773	-0.438287
C151	C	-0.303365	-0.909669	-0.139736
C152	C	0.196635	-0.409669	0.360264
C153	C	-0.303194	-0.909769	-0.069768
C154	C	0.196806	-0.409769	0.430232
H155	H	-0.230461	-0.269279	-0.376457
H156	H	0.269539	0.230721	0.123543
C157	C	-0.219482	-0.993737	-0.534554
C158	C	0.280518	-0.493737	-0.034554
C159	C	-0.228116	-0.985117	-0.469941
C160	C	0.271884	-0.485117	0.030059
C161	C	-0.187922	-1.025352	-0.436962
C162	C	0.312078	-0.525352	0.063038
H163	H	-0.177163	-0.984573	-0.545263
H164	H	0.322837	-0.484573	-0.045263
H165	H	-0.228687	-1.036047	-0.545298
H166	H	0.271313	-0.536047	-0.045298
H167	H	-0.218906	-0.942816	-0.459201
H168	H	0.281094	-0.442816	0.040799
H169	H	-0.270427	-0.994286	-0.459213
H170	H	0.229573	-0.494286	0.040787
H171	H	-0.197127	-1.067662	-0.447706
H172	H	0.302873	-0.567662	0.052294
H173	H	-0.145605	-1.016184	-0.447676
H174	H	0.354395	-0.516184	0.052324
H175	H	-0.193779	-1.019512	-0.393119
H176	H	0.306221	-0.519512	0.106881
C177	C	-0.387131	-0.825823	-1.072655
C178	C	0.112869	-0.325823	-0.572655
C179	C	-0.378509	-0.834459	-1.137268
C180	C	0.121491	-0.334459	-0.637268
C181	C	-0.418737	-0.794258	-1.170248
C182	C	0.081263	-0.294258	-0.670248
H183	H	-0.377960	-0.783506	-1.061942
H184	H	0.122040	-0.283506	-0.561942
H185	H	-0.429443	-0.835023	-1.061916
H186	H	0.070557	-0.335023	-0.561916
H187	H	-0.336206	-0.825255	-1.148002
H188	H	0.163794	-0.325255	-0.648002
H189	H	-0.387684	-0.876768	-1.148000
H190	H	0.112316	-0.376768	-0.648000
H191	H	-0.461049	-0.803458	-1.159509
H192	H	0.038951	-0.303458	-0.659509
H193	H	-0.409563	-0.751943	-1.159530
H194	H	0.090437	-0.251943	-0.659530
H195	H	-0.412897	-0.800116	-1.214091
H196	H	0.087103	-0.300116	-0.714091
C197	C	-1.071959	-0.825792	-0.387316
C198	C	-0.571959	-0.325792	0.112684
C199	C	-1.029109	-0.790514	-0.422542
C200	C	-0.529109	-0.290514	0.077458
C201	C	-1.061865	-0.750219	-0.462851
C202	C	-0.561865	-0.250219	0.037149
H203	H	-1.097643	-0.798330	-0.363285
H204	H	-0.597643	-0.298330	0.136715
H205	H	-1.097555	-0.849855	-0.414805
H206	H	-0.597555	-0.349855	0.085195
H207	H	-1.003523	-0.766453	-0.395056
H208	H	-0.503523	-0.266453	0.104944
H209	H	-1.003423	-0.817960	-0.446585
H210	H	-0.503423	-0.317960	0.053415
H211	H	-1.087462	-0.774282	-0.490340
H212	H	-0.587462	-0.274282	0.009660
H213	H	-1.087549	-0.722762	-0.438815
H214	H	-0.587549	-0.222762	0.061185
H215	H	-1.032797	-0.726283	-0.486761
H216	H	-0.532797	-0.226283	0.013239
C217	C	-0.671312	-0.993635	-0.219443
C218	C	-0.171312	-0.493635	0.280557
C219	C	-0.735922	-0.985039	-0.228068
C220	C	-0.235922	-0.485039	0.271932
C221	C	-0.768915	-1.025279	-0.187899
C222	C	-0.268915	-0.525279	0.312101
H223	H	-0.660636	-0.984460	-0.177118
H224	H	-0.160636	-0.484460	0.322882
H225	H	-0.660548	-1.035943	-0.228679
H226	H	-0.160548	-0.535943	0.271321
H227	H	-0.746682	-0.942741	-0.218827
H228	H	-0.246682	-0.442741	0.281173
H229	H	-0.746617	-0.994219	-0.270384
H230	H	-0.246617	-0.494219	0.229616
H231	H	-0.758150	-1.067587	-0.197136
H232	H	-0.258150	-0.567587	0.302864
H233	H	-0.758234	-1.016101	-0.145577
H234	H	-0.258234	-0.516101	0.354423
H235	H	-0.812756	-1.019457	-0.193750
H236	H	-0.312756	-0.519457	0.306250
H237	H	-0.662314	-0.836601	-0.376254
H238	H	-0.162314	-0.336601	0.123746
H239	H	-0.230169	-0.982852	-1.063691
H240	H	0.269831	-0.482852	-0.563691
C241	C	-1.071922	-0.993858	-0.219400
C242	C	-0.571922	-0.493858	0.280600
C243	C	-1.029055	-1.029099	-0.184153
C244	C	-0.529055	-0.529099	0.315847
C245	C	-1.061792	-1.069416	-0.143853
C246	C	-0.561792	-0.569416	0.356147
H247	H	-1.097533	-1.021343	-0.243438
H248	H	-0.597533	-0.521343	0.256562
H249	H	-1.097590	-0.969813	-0.191923
H250	H	-0.597590	-0.469813	0.308077
H251	H	-1.003398	-1.053142	-0.211627
H252	H	-0.503398	-0.553142	0.288373
H253	H	-1.003442	-1.001631	-0.160102
H254	H	-0.503442	-0.501631	0.339898
H255	H	-1.087460	-1.045370	-0.116377
H256	H	-0.587460	-0.545370	0.383623
H257	H	-1.087402	-1.096896	-0.167897
H258	H	-0.587402	-0.596896	0.332103
H259	H	-1.032712	-1.093327	-0.119930
H260	H	-0.532712	-0.593327	0.380070
C261	C	-0.387261	-0.825724	-0.935541
C262	C	0.112739	-0.325724	-0.435541
C263	C	-0.422507	-0.790459	-0.978383
C264	C	0.077493	-0.290459	-0.478383
C265	C	-0.462849	-0.750144	-0.945617
C266	C	0.037151	-0.250144	-0.445617
H267	H	-0.363253	-0.798255	-0.909884
H268	H	0.136747	-0.298255	-0.409884
H269	H	-0.414736	-0.849772	-0.909917
H270	H	0.085264	-0.349772	-0.409917
H271	H	-0.395036	-0.766413	-1.003996
H272	H	0.104964	-0.266413	-0.503996
H273	H	-0.446528	-0.817911	-1.004042
H274	H	0.053472	-0.317911	-0.504042
H275	H	-0.490324	-0.774191	-0.919993
H276	H	0.009676	-0.274191	-0.419993
H277	H	-0.438836	-0.722679	-0.919960
H278	H	0.061164	-0.222679	-0.419960
H279	H	-0.486773	-0.726215	-0.974679
H280	H	0.013227	-0.226215	-0.474679
H281	H	-0.376337	-0.269159	-0.230126
H282	H	0.123663	0.230841	0.269874
C283	C	-0.387289	-0.678792	-0.219125
C284	C	0.112711	-0.178792	0.280875
C285	C	-0.422508	-0.635904	-0.183820
C286	C	0.077492	-0.135904	0.316180
C287	C	-0.462790	-0.668616	-0.143458
C288	C	0.037210	-0.168616	0.356542
H289	H	-0.363238	-0.704435	-0.191684
H290	H	0.136762	-0.204435	0.308316
H291	H	-0.414783	-0.704426	-0.243141
H292	H	0.085217	-0.204426	0.256859
H293	H	-0.395018	-0.610280	-0.159806
H294	H	0.104982	-0.110280	0.340194
H295	H	-0.446572	-0.610259	-0.211244
H296	H	0.053428	-0.110259	0.288756
H297	H	-0.490284	-0.694250	-0.167473
H298	H	0.009716	-0.194250	0.332527
H299	H	-0.438734	-0.694258	-0.116021
H300	H	0.061266	-0.194258	0.383979
H301	H	-0.486695	-0.639521	-0.119502
H302	H	0.013305	-0.139521	0.380498
H303	H	-0.376355	-0.149888	-0.230131
H304	H	0.123645	0.350112	0.269869
H305	H	-0.230310	-0.982846	-0.662853
H306	H	0.269690	-0.482846	-0.162853
C307	C	-0.387224	-0.825656	-0.534554
C308	C	0.112776	-0.325656	-0.034554
C309	C	-0.351589	-0.785320	-0.496806
C310	C	0.148411	-0.285320	0.003194
C311	C	-0.391741	-0.744946	-0.463879
C312	C	0.108259	-0.244946	0.036121
H313	H	-0.414678	-0.849647	-0.508868
H314	H	0.085322	-0.349647	-0.008868
H315	H	-0.411175	-0.801629	-0.563516
H316	H	0.088825	-0.301629	-0.063516
H317	H	-0.327649	-0.809344	-0.467848
H318	H	0.172351	-0.309344	0.032152
H319	H	-0.324136	-0.761315	-0.522476
H320	H	0.175864	-0.261315	-0.022476
H321	H	-0.415691	-0.720918	-0.492841
H322	H	0.084309	-0.220918	0.007159
H323	H	-0.419193	-0.768941	-0.438197
H324	H	0.080807	-0.268941	0.061803
H325	H	-0.367568	-0.717569	-0.438267
H326	H	0.132432	-0.217569	0.061733
H327	H	-0.230438	-0.670117	-0.376445
H328	H	0.269562	-0.170117	0.123555
C329	C	-0.387305	-0.541761	-0.219263
C330	C	0.112695	-0.041761	0.280737
C331	C	-0.427718	-0.504036	-0.254836
C332	C	0.072282	-0.004036	0.245164
C333	C	-0.468016	-0.471095	-0.214619
C334	C	0.031984	0.028905	0.285381
H335	H	-0.363263	-0.516057	-0.191867
H336	H	0.136737	-0.016057	0.308133
H337	H	-0.411281	-0.570714	-0.195253
H338	H	0.088719	-0.070714	0.304747
H339	H	-0.403745	-0.475086	-0.278835
H340	H	0.096255	0.024914	0.221165
H341	H	-0.451774	-0.529724	-0.282230
H342	H	0.048226	-0.029724	0.217770
H343	H	-0.491991	-0.500048	-0.190609
H344	H	0.008009	-0.000048	0.309391
H345	H	-0.443968	-0.445395	-0.187225
H346	H	0.056032	0.054605	0.312775
H347	H	-0.495444	-0.445500	-0.238750
H348	H	0.004556	0.054500	0.261250
H349	H	-0.230469	-0.150016	-0.376463
H350	H	0.269531	0.349984	0.123537
C351	C	-0.219508	-0.542048	-0.387464
C352	C	0.280492	-0.042048	0.112536
C353	C	-0.184314	-0.584936	-0.422796
C354	C	0.315686	-0.084936	0.077204
C355	C	-0.144091	-0.552223	-0.463215
C356	C	0.355909	-0.052223	0.036785
H357	H	-0.191990	-0.516398	-0.363508
H358	H	0.308010	-0.016398	0.136492
H359	H	-0.243618	-0.516421	-0.414881
H360	H	0.256382	-0.016421	0.085119
H361	H	-0.160206	-0.610552	-0.395383
H362	H	0.339794	-0.110552	0.104617
H363	H	-0.211816	-0.610588	-0.446765
H364	H	0.288184	-0.110588	0.053235
H365	H	-0.168201	-0.526597	-0.490632
H366	H	0.331799	-0.026597	0.009368
H367	H	-0.116577	-0.526574	-0.439254
H368	H	0.383423	-0.026574	0.060746
H369	H	-0.120211	-0.581318	-0.487197
H370	H	0.379789	-0.081318	0.012803
H371	H	-0.543007	-0.982695	-0.230285
H372	H	-0.043007	-0.482695	0.269715
C373	C	-0.934926	-0.825869	-0.387295
C374	C	-0.434926	-0.325869	0.112705
C375	C	-0.897146	-0.861477	-0.427682
C376	C	-0.397146	-0.361477	0.072318
C377	C	-0.864249	-0.821297	-0.467988
C378	C	-0.364249	-0.321297	0.032012
H379	H	-0.909265	-0.798431	-0.363258
H380	H	-0.409265	-0.298431	0.136742
H381	H	-0.963906	-0.801903	-0.411290
H382	H	-0.463906	-0.301903	0.088710
H383	H	-0.868170	-0.885433	-0.403690
H384	H	-0.368170	-0.385433	0.096310
H385	H	-0.922792	-0.888913	-0.451733
H386	H	-0.422792	-0.388913	0.048267
H387	H	-0.893228	-0.797331	-0.491982
H388	H	-0.393228	-0.297331	0.008018
H389	H	-0.838590	-0.793862	-0.443946
H390	H	-0.338590	-0.293862	0.056054
H391	H	-0.838615	-0.845452	-0.495399
H392	H	-0.338615	-0.345452	0.004601
C393	C	-0.387262	-0.825811	-0.671817
C394	C	0.112738	-0.325811	-0.171817
C395	C	-0.378641	-0.834449	-0.736430
C396	C	0.121359	-0.334449	-0.236430
C397	C	-0.418863	-0.794243	-0.769410
C398	C	0.081137	-0.294243	-0.269410
H399	H	-0.378086	-0.783495	-0.661104
H400	H	0.121914	-0.283495	-0.161104
H401	H	-0.429576	-0.835005	-0.661079
H402	H	0.070424	-0.335005	-0.161079
H403	H	-0.336337	-0.825251	-0.747164
H404	H	0.163663	-0.325251	-0.247164
H405	H	-0.387822	-0.876757	-0.747161
H406	H	0.112178	-0.376757	-0.247161
H407	H	-0.461176	-0.803436	-0.758672
H408	H	0.038824	-0.303436	-0.258672
H409	H	-0.409683	-0.751929	-0.758693
H410	H	0.090317	-0.251929	-0.258693
H411	H	-0.413023	-0.800102	-0.813253
H412	H	0.086977	-0.300102	-0.313253
C413	C	-0.534231	-0.825550	-0.387178
C414	C	-0.034231	-0.325550	0.112822
C415	C	-0.577097	-0.790282	-0.422399
C416	C	-0.077097	-0.290282	0.077601
C417	C	-0.544358	-0.749910	-0.462643
C418	C	-0.044358	-0.249910	0.037357
H419	H	-0.508547	-0.849537	-0.414678
H420	H	-0.008547	-0.349537	0.085322
H421	H	-0.508636	-0.798090	-0.363081
H422	H	-0.008636	-0.298090	0.136919
H423	H	-0.602681	-0.817739	-0.446495
H424	H	-0.102681	-0.317739	0.053505
H425	H	-0.602782	-0.766282	-0.394916
H426	H	-0.102782	-0.266282	0.105084
H427	H	-0.518763	-0.722450	-0.438545
H428	H	-0.018763	-0.222450	0.061455
H429	H	-0.518675	-0.773903	-0.490138
H430	H	-0.018675	-0.273903	0.009862
H431	H	-0.573437	-0.725972	-0.486541
H432	H	-0.073437	-0.225972	0.013459
C433	C	-0.219223	-0.993812	-0.935618
C434	C	0.280777	-0.493812	-0.435618
C435	C	-0.183945	-1.029076	-0.978492
C436	C	0.316055	-0.529076	-0.478492
C437	C	-0.143622	-1.069387	-0.945764
C438	C	0.356378	-0.569387	-0.445764
H439	H	-0.243246	-1.021282	-0.909982
H440	H	0.256754	-0.521282	-0.409982
H441	H	-0.191768	-0.969761	-0.909975
H442	H	0.308232	-0.469761	-0.409975
H443	H	-0.211397	-1.053126	-1.004124
H444	H	0.288603	-0.553126	-0.504124
H445	H	-0.159909	-1.001623	-1.004130
H446	H	0.340091	-0.501623	-0.504130
H447	H	-0.116166	-1.045335	-0.920121
H448	H	0.383834	-0.545335	-0.420121
H449	H	-0.167649	-1.096852	-0.920128
H450	H	0.332351	-0.596852	-0.420128
H451	H	-0.119676	-1.093314	-0.974849
H452	H	0.380324	-0.593314	-0.474849
H453	H	-0.943847	-0.982850	-0.230356
H454	H	-0.443847	-0.482850	0.269644
