data_functionalizedCrystal
_audit_creation_method	'MofGen! by Chris Wilmer'
_symmetry_space_group_name_H-M	'P1'
_symmetry_Int_Tables_number	1
_symmetry_cell_setting	triclinic
loop_
_symmetry_equiv_pos_as_xyz
  x,y,z
_cell_length_a	14.044220
_cell_length_b	14.472310
_cell_length_c	14.044220
_cell_angle_alpha	90.001238
_cell_angle_beta	93.188878
_cell_angle_gamma	90.008418
loop_
_atom_site_label
_atom_site_type_symbol
_atom_site_fract_x
_atom_site_fract_y
_atom_site_fract_z
O1	O	1.277180	0.076746	0.230162
O2	O	1.000508	0.076770	0.221856
O3	O	1.134691	0.076749	0.087673
O4	O	1.142997	0.076767	0.364345
O5	O	1.134654	-0.076933	0.087679
O6	O	1.000471	-0.076912	0.221862
O7	O	1.277143	-0.076936	0.230167
Cu8	Cu	1.138804	-0.090956	0.226015
Cu9	Cu	1.138848	0.090790	0.226009
O10	O	1.142960	-0.076915	0.364350
C11	C	0.964868	-0.000069	0.218223
C12	C	0.858725	-0.000060	0.207379
N13	N	1.138780	-0.218787	0.226019
C14	C	0.664388	-0.000079	0.187553
C15	C	0.613258	-0.000078	0.264467
C16	C	0.505122	-0.000089	0.253435
C17	C	0.772534	-0.000069	0.198583
C18	C	1.138846	-0.592879	0.226005
C19	C	1.066762	-0.553702	0.297518
C20	C	1.066968	-0.446614	0.297819
C21	C	1.138812	-0.407287	0.226012
C22	C	1.240266	-0.446131	0.256192
C23	C	1.239871	-0.553253	0.256710
C24	C	1.110345	-0.553412	0.124155
C25	C	1.108117	-0.446285	0.124630
C26	C	1.138800	-0.302399	0.226015
C27	C	1.138866	-0.697767	0.226005
C28	C	1.312783	-0.000096	0.233800
C29	C	1.418926	-0.000098	0.244645
C30	C	1.131037	-0.000092	0.052054
C31	C	1.120193	-0.000092	-0.054088
N32	N	1.138878	0.218621	0.225997
C33	C	1.100366	-0.000077	-0.248426
C34	C	1.177281	-0.000081	-0.299556
C35	C	1.166249	-0.000072	-0.407692
C36	C	1.111397	-0.000085	-0.140280
C37	C	1.146614	-0.000072	0.399969
C38	C	1.157459	-0.000066	0.506112
H39	H	0.626951	-0.000089	0.113425
H40	H	0.991826	-0.420352	0.278595
H41	H	0.650697	-0.000069	0.338600
N42	N	1.014442	-0.414446	0.096120
N43	N	0.976628	-0.437846	0.017107
H44	H	0.910468	-0.415358	-0.003027
N45	N	1.270283	-0.000121	-0.252598
N46	N	1.326733	-0.064916	-0.266353
H47	H	1.392414	-0.064950	-0.233186
H48	H	1.026239	-0.000069	-0.285863
H49	H	0.991399	-0.579484	0.278487
H50	H	1.085627	-0.580608	0.372490
N51	N	1.168889	-0.412695	0.053928
N52	N	1.236117	-0.359234	0.077214
H53	H	1.279045	-0.335511	0.027284
N54	N	1.090848	-0.414458	0.392427
N55	N	1.107424	-0.471131	0.458438
H56	H	1.124275	-0.448423	0.525264
N57	N	1.269769	-0.584573	0.350216
N58	N	1.290779	-0.527318	0.414638
H59	H	1.311894	-0.549433	0.480679
N60	N	1.176169	-0.585200	0.057276
N61	N	1.243801	-0.636695	0.084376
H62	H	1.290292	-0.659151	0.037150
N63	N	1.309727	-0.585754	0.194399
N64	N	1.358620	-0.529321	0.150673
H65	H	1.407958	-0.552270	0.106669
H66	H	1.295538	-0.420656	0.205843
N67	N	1.270585	-0.412469	0.348703
N68	N	1.222637	-0.430131	0.418827
H69	H	1.244043	-0.406358	0.484166
N70	N	1.018958	-0.587330	0.090400
N71	N	0.973721	-0.641011	0.141007
H72	H	0.909173	-0.664963	0.117180
