data_functionalizedCrystal
_audit_creation_method	'MofGen! by Chris Wilmer'
_symmetry_space_group_name_H-M	'P1'
_symmetry_Int_Tables_number	1
_symmetry_cell_setting	triclinic
loop_
_symmetry_equiv_pos_as_xyz
  x,y,z
_cell_length_a	15.995350
_cell_length_b	27.732048
_cell_length_c	14.472310
_cell_angle_alpha	89.993924
_cell_angle_beta	89.990621
_cell_angle_gamma	83.067515
loop_
_atom_site_label
_atom_site_type_symbol
_atom_site_fract_x
_atom_site_fract_y
_atom_site_fract_z
O1	O	1.110190	0.062301	-0.076773
O2	O	0.866316	0.069995	-0.076793
O3	O	0.995827	-0.004216	-0.076765
O4	O	0.980679	0.136512	-0.076801
O5	O	0.995794	-0.004212	0.076917
O6	O	0.866282	0.069999	0.076889
O7	O	1.110157	0.062306	0.076909
Cu8	Cu	0.988217	0.066153	0.090931
Cu9	Cu	0.988256	0.066148	-0.090815
O10	O	0.980646	0.136517	0.076881
C11	C	0.835108	0.069679	0.000045
C12	C	0.742170	0.068726	0.000038
C13	C	0.404467	0.065301	0.000059
C14	C	0.452585	0.012449	0.000415
C15	C	0.549263	0.013403	0.000062
C16	C	0.572006	0.067000	0.000049
C17	C	0.530600	0.093065	-0.087714
C18	C	0.433982	0.091738	-0.087781
C19	C	0.433591	0.092835	0.086984
C20	C	0.530536	0.092822	0.088138
C21	C	0.666691	0.067962	0.000041
C22	C	0.309782	0.064340	0.000061
C23	C	0.995493	-0.022222	0.000079
C24	C	0.994535	-0.075881	0.000086
C25	C	1.065040	-0.414392	0.000045
C26	C	1.061487	-0.616067	0.000031
O27	O	1.125959	-0.647045	-0.000004
N28	N	0.984692	-0.635522	0.000026
C29	C	0.908780	-0.604555	0.000018
O30	O	0.843380	-0.625730	0.000003
C31	C	0.912334	-0.402881	0.000024
C32	C	0.989134	-0.383429	0.000039
C33	C	1.141834	-0.394940	0.000058
C34	C	1.142721	-0.344524	0.000067
C35	C	1.066815	-0.313561	0.000061
C36	C	0.990021	-0.333013	0.000047
C37	C	0.836422	-0.371914	0.000009
C38	C	0.837317	-0.321493	0.000009
C39	C	0.914117	-0.302041	0.000023
C40	C	0.915002	-0.251634	0.000050
N41	N	0.991797	-0.232179	0.000056
C42	C	1.067703	-0.263142	0.000061
C43	C	0.906920	-0.710437	0.000016
C44	C	0.906031	-0.760855	0.000016
C45	C	1.058739	-0.772364	0.000028
C46	C	1.059627	-0.721945	0.000035
C47	C	0.983715	-0.690982	0.000021
C48	C	1.069561	-0.157265	0.000080
C49	C	1.070442	-0.106844	0.000092
C50	C	0.917734	-0.095340	0.000075
C51	C	0.916853	-0.145756	0.000067
C52	C	0.992773	-0.176718	0.000067
O53	O	0.850565	-0.220628	0.000075
O54	O	1.133094	-0.241958	0.000055
C55	C	1.064153	-0.464808	0.000036
C56	C	0.987359	-0.484260	0.000022
C57	C	0.911452	-0.453297	0.000017
C58	C	0.986470	-0.534679	0.000022
C59	C	1.062377	-0.565642	0.000028
C60	C	1.139172	-0.546187	0.000033
C61	C	1.140059	-0.495771	0.000042
C62	C	0.834657	-0.472752	0.000011
C63	C	0.833776	-0.523168	0.000004
C64	C	0.909683	-0.554132	0.000010
C65	C	1.141364	0.062621	0.000068
C66	C	1.234302	0.063575	0.000069
C67	C	0.980980	0.154523	0.000035
C68	C	0.981938	0.208182	0.000022
N69	N	0.988195	0.066156	0.218762
N70	N	0.988284	0.066141	-0.218646
C71	C	0.988255	0.066146	0.592853
C72	C	0.918727	0.105721	0.553672
C73	C	0.918884	0.105866	0.446584
C74	C	0.988225	0.066151	0.407262
C75	C	1.075447	0.077167	0.446103
C76	C	1.075055	0.077448	0.553225
C77	C	0.971342	0.015437	0.553394
C78	C	0.969334	0.015775	0.446267
C79	C	0.988213	0.066153	0.302374
C80	C	0.988272	0.066145	0.697742
H81	H	0.434323	-0.008675	0.063354
H82	H	0.413265	0.075558	0.153506
H83	H	1.120545	-0.797583	0.000033
C84	C	0.426920	-0.015686	-0.082944
C85	C	0.470284	-0.062660	-0.081621
C86	C	0.446654	-0.088592	-0.158392
H87	H	0.440376	0.000391	-0.137969
H88	H	0.368014	-0.017497	-0.080883
H89	H	0.529177	-0.060848	-0.083691
H90	H	0.456833	-0.078750	-0.026614
H91	H	0.387748	-0.090403	-0.156330
H92	H	0.460112	-0.072512	-0.213411
H93	H	0.476067	-0.120468	-0.157500
H94	H	0.929617	0.143496	0.420941
C95	C	1.096005	0.125942	0.410503
C96	C	1.105043	0.156877	0.485348
C97	C	1.123987	0.201812	0.452592
H98	H	1.051693	0.139976	0.371725
H99	H	1.147052	0.121405	0.376301
H100	H	1.054003	0.161415	0.519535
H101	H	1.149358	0.142860	0.524133
H102	H	1.175034	0.197275	0.418390
H103	H	1.079672	0.215841	0.413814
H104	H	1.130130	0.222806	0.503369
H105	H	0.558085	0.073794	0.153064
C106	C	0.831925	0.097223	0.588093
C107	C	0.796554	0.137857	0.638124
C108	C	0.716585	0.130048	0.669838
H109	H	0.836717	0.069398	0.626895
H110	H	0.796873	0.092195	0.536859
H111	H	0.831597	0.142879	0.689351
H112	H	0.791741	0.165687	0.599341
H113	H	0.681533	0.125020	0.618604
H114	H	0.721385	0.102222	0.708636
H115	H	0.692572	0.157618	0.703780
C116	C	0.390350	0.143478	-0.093311
C117	C	0.414661	0.165303	-0.174667
C118	C	0.374479	0.212962	-0.179808
H119	H	0.405894	0.161439	-0.041496
H120	H	0.331051	0.143039	-0.093444
H121	H	0.473947	0.165744	-0.174526
H122	H	0.399116	0.147356	-0.226496
H123	H	0.315180	0.212523	-0.179940
H124	H	0.390026	0.230919	-0.127989
H125	H	0.390962	0.227775	-0.235011
C126	C	1.146127	0.040463	0.587609
C127	C	1.189230	0.017963	0.511928
C128	C	1.254708	-0.016107	0.543562
H129	H	1.123501	0.016670	0.624069
H130	H	1.183942	0.056412	0.623934
H131	H	1.151421	0.002014	0.475618
H132	H	1.211875	0.041743	0.475460
H133	H	1.292524	-0.000158	0.579887
H134	H	1.232075	-0.039896	0.580023
H135	H	1.283966	-0.031374	0.492219
H136	H	0.905176	0.007416	0.420881
H137	H	1.132984	-0.091010	0.000106
H138	H	0.415933	0.072726	-0.153376
C139	C	0.548883	0.145549	-0.091950
C140	C	0.597790	0.155443	-0.015600
C141	C	0.614659	0.203783	-0.019476
H142	H	0.497385	0.166558	-0.091097
H143	H	0.578667	0.150617	-0.147223
H144	H	0.568006	0.150380	0.039659
H145	H	0.649298	0.134446	-0.016438
H146	H	0.644443	0.208851	-0.074749
H147	H	0.563157	0.224788	-0.018625
H148	H	0.647850	0.210501	0.032321
H149	H	0.843493	-0.776688	0.000020
C150	C	1.226192	-0.323503	0.000027
C151	C	1.292468	-0.361418	0.000004
C152	C	1.369378	-0.342076	-0.000048
H153	H	1.229830	-0.304084	0.053605
H154	H	1.229773	-0.304086	-0.053587
H155	H	1.288889	-0.380827	0.053612
H156	H	1.288858	-0.380840	-0.053570
H157	H	1.372959	-0.322659	-0.053661
H158	H	1.373007	-0.322658	0.053531
H159	H	1.414355	-0.367798	-0.000072
H160	H	1.128394	0.049108	0.420631
C161	C	0.390735	0.144829	0.087727
C162	C	0.451916	0.176897	0.084853
C163	C	0.412470	0.224797	0.085519
H164	H	0.358236	0.150343	0.142484
H165	H	0.354983	0.150057	0.035357
H166	H	0.487654	0.171671	0.137218
H167	H	0.484418	0.171399	0.030100
H168	H	0.376718	0.230025	0.033149
H169	H	0.379972	0.230305	0.140277
H170	H	0.453975	0.246561	0.083561
H171	H	0.929307	0.143140	0.580573
H172	H	1.202598	-0.479938	0.000054
C173	C	0.888362	0.001293	0.589262
C174	C	0.834802	-0.004601	0.514665
C175	C	0.758355	-0.017631	0.547670
H176	H	0.862701	0.026087	0.628904
H177	H	0.898499	-0.028349	0.622601
H178	H	0.824663	0.025037	0.481342
H179	H	0.860437	-0.029397	0.475016
H180	H	0.768492	-0.047274	0.581009
H181	H	0.732702	0.007165	0.587313
H182	H	0.722008	-0.021637	0.497062
C183	C	0.753096	-0.393089	-0.000162
C184	C	0.748153	-0.421700	-0.079224
C185	C	0.671405	-0.441217	-0.079411
H186	H	0.707954	-0.367471	-0.000220
H187	H	0.749538	-0.412549	0.053397
H188	H	0.751703	-0.402241	-0.132769
H189	H	0.793277	-0.447326	-0.079183
H190	H	0.667846	-0.460677	-0.025852
H191	H	0.626269	-0.415595	-0.079466
H192	H	0.668044	-0.460635	-0.133049
H193	H	1.016736	-0.015055	0.419504
C194	C	1.038897	-0.023902	0.587050
C195	C	1.023164	-0.068874	0.551439
C196	C	1.085385	-0.105118	0.582419
H197	H	1.038148	-0.025068	0.652639
H198	H	1.092531	-0.016818	0.566615
H199	H	0.969544	-0.075956	0.571879
H200	H	1.023920	-0.067724	0.485853
H201	H	1.139018	-0.098035	0.561984
H202	H	1.084631	-0.106280	0.648007
H203	H	1.074722	-0.135635	0.558255
H204	H	0.577943	-0.007086	0.062975
H205	H	1.090059	0.114429	0.578192
C206	C	0.824519	-0.676801	-0.000182
C207	C	0.820561	-0.647524	-0.079260
C208	C	0.744661	-0.616541	-0.079475
H209	H	0.821594	-0.656850	0.053348
H210	H	0.778639	-0.695597	-0.000233
H211	H	0.866428	-0.628730	-0.079200
H212	H	0.823472	-0.667462	-0.132802
H213	H	0.698781	-0.635337	-0.079527
H214	H	0.741742	-0.596593	-0.025943
H215	H	0.741962	-0.596676	-0.133132
H216	H	0.577401	-0.007228	-0.062950
H217	H	0.545395	0.131907	0.093429
H218	H	0.775499	-0.296285	-0.000004
H219	H	0.559223	0.074958	-0.153020
H220	H	1.131383	-0.182469	0.000075
H221	H	1.122164	-0.706111	0.000046
C222	C	1.224191	-0.428610	0.000211
C223	C	1.228121	-0.457902	0.079267
C224	C	1.303976	-0.488926	0.079439
H225	H	1.270117	-0.409858	0.000265
H226	H	1.227047	-0.448545	-0.053353
H227	H	1.225274	-0.437969	0.132816
H228	H	1.182213	-0.476664	0.079229
H229	H	1.306832	-0.508861	0.025876
H230	H	1.349896	-0.470170	0.079491
H231	H	1.306649	-0.508807	0.133073
C232	C	0.833535	-0.166947	-0.000085
C233	C	0.828592	-0.195556	-0.079148
C234	C	0.751856	-0.215086	-0.079323
H235	H	0.788382	-0.141335	-0.000131
H236	H	0.829995	-0.186410	0.053473
H237	H	0.832124	-0.176094	-0.132693
H238	H	0.873727	-0.221175	-0.079119
H239	H	0.748317	-0.234549	-0.025765
H240	H	0.706709	-0.189471	-0.079366
H241	H	0.748496	-0.234503	-0.132962
C242	C	0.835352	-0.061692	-0.000126
C243	C	0.831425	-0.032417	-0.079204
C244	C	0.755543	-0.001418	-0.079434
H245	H	0.832431	-0.041741	0.053403
H246	H	0.789457	-0.080477	-0.000186
H247	H	0.877308	-0.013634	-0.079136
H248	H	0.834332	-0.052355	-0.132746
H249	H	0.709648	-0.020203	-0.079495
H250	H	0.752629	0.018530	-0.025902
H251	H	0.752865	0.018446	-0.133092
H252	H	1.200977	-0.571406	0.000042
H253	H	0.771232	-0.539001	-0.000000
C254	C	0.832332	0.097224	0.411633
C255	C	0.772081	0.134140	0.444171
C256	C	0.692333	0.126204	0.411995
H257	H	0.819188	0.066707	0.433374
H258	H	0.832246	0.097326	0.345987
H259	H	0.772164	0.134033	0.509803
H260	H	0.785196	0.164661	0.422433
H261	H	0.692248	0.126305	0.346349
H262	H	0.679199	0.095686	0.433738
H263	H	0.651445	0.151251	0.434060
H264	H	0.772844	-0.447546	0.000005
