data_functionalizedCrystal
_audit_creation_method	'MofGen! by Chris Wilmer'
_symmetry_space_group_name_H-M	'P1'
_symmetry_Int_Tables_number	1
_symmetry_cell_setting	triclinic
loop_
_symmetry_equiv_pos_as_xyz
  x,y,z
_cell_length_a	17.077404
_cell_length_b	16.625546
_cell_length_c	17.077396
_cell_angle_alpha	89.969785
_cell_angle_beta	89.980499
_cell_angle_gamma	90.022693
loop_
_atom_site_label
_atom_site_type_symbol
_atom_site_fract_x
_atom_site_fract_y
_atom_site_fract_z
Zn1	Zn	1.200057	-0.320997	-0.443833
Zn2	Zn	1.199965	-0.455839	-0.312563
Zn3	Zn	1.068789	-0.321025	-0.312581
Zn4	Zn	1.068758	-0.455792	-0.443787
O5	O	1.134392	-0.388413	-0.378191
O6	O	1.309892	-0.338892	-0.426432
O7	O	1.182539	-0.437988	-0.202719
O8	O	1.086253	-0.208189	-0.330019
O9	O	1.309824	-0.437960	-0.329988
O10	O	1.182695	-0.208168	-0.426449
O11	O	1.086164	-0.338940	-0.202732
O12	O	0.958938	-0.338894	-0.329974
O13	O	1.086200	-0.437879	-0.553640
O14	O	0.958915	-0.437906	-0.426370
O15	O	1.182665	-0.338846	-0.553674
O16	O	1.182509	-0.568666	-0.329943
O17	O	1.086111	-0.568630	-0.426353
C18	C	0.930444	-0.388399	-0.378169
C19	C	0.843194	-0.388412	-0.378179
C20	C	0.802213	-0.440045	-0.428292
C21	C	0.720232	-0.440047	-0.428304
C22	C	0.679235	-0.388419	-0.378199
C23	C	0.720222	-0.336780	-0.328084
C24	C	0.802201	-0.336774	-0.328076
C25	C	0.549352	-0.336795	-0.328103
C26	C	0.467368	-0.336801	-0.328110
C27	C	0.467383	-0.440068	-0.428331
C28	C	0.549362	-0.440063	-0.428323
C29	C	0.590344	-0.388425	-0.378207
C30	C	1.134318	-0.597904	-0.378158
C31	C	1.134358	-0.687525	-0.378170
C32	C	1.134495	-1.015701	-0.378252
C33	C	1.134454	-0.924392	-0.378232
C34	C	1.134426	-0.851616	-0.378211
C35	C	1.134386	-0.760302	-0.378191
C36	C	1.339136	-0.388428	-0.378213
C37	C	1.426386	-0.388435	-0.378223
C38	C	1.134440	-0.388354	-0.582936
C39	C	1.134460	-0.388329	-0.670185
C40	C	1.134488	-0.178104	-0.378241
C41	C	1.134529	-0.088483	-0.378263
C42	C	1.184691	-0.336758	-0.711195
C43	C	1.184700	-0.336731	-0.793175
C44	C	1.134482	-0.388280	-0.834145
C45	C	1.084245	-0.439853	-0.793130
C46	C	1.084233	-0.439875	-0.711151
C47	C	1.084277	-0.439804	-0.964000
C48	C	1.084291	-0.439783	-1.045985
C49	C	1.184745	-0.336660	-1.046024
C50	C	1.184732	-0.336682	-0.964045
C51	C	1.134496	-0.388257	-0.923036
C52	C	1.134390	-0.388414	-0.174243
C53	C	1.134522	-0.388212	-0.086994
H54	H	0.686836	-0.294739	-0.287291
C55	C	0.422259	-0.280006	-0.273008
C56	C	0.365931	-0.216769	-0.307162
C57	C	0.320817	-0.159972	-0.252064
C58	C	0.332031	-0.166412	-0.162811
C59	C	0.388362	-0.229651	-0.128652
C60	C	0.433476	-0.286448	-0.183750
H61	H	0.357627	-0.212000	-0.373237
H62	H	0.279117	-0.113158	-0.277351
H63	H	0.298636	-0.124367	-0.122024
H64	H	0.396666	-0.234420	-0.062577
H65	H	0.475176	-0.333262	-0.158463
H66	H	0.582740	-0.482108	-0.469119
H67	H	1.225647	-0.294665	-1.079418
C68	C	1.029045	-0.496480	-1.091054
C69	C	1.029064	-0.496456	-1.181228
C70	C	0.973818	-0.553153	-1.226297
C71	C	0.918552	-0.609874	-1.181192
C72	C	0.918531	-0.609901	-1.091014
C73	C	0.973777	-0.553204	-1.045944
H74	H	1.069977	-0.454465	-1.214621
H75	H	0.973834	-0.553132	-1.293053
H76	H	0.877655	-0.651844	-1.214555
H77	H	0.877618	-0.651891	-1.057620
H78	H	0.973761	-0.553224	-0.979188
H79	H	0.835587	-0.482090	-0.469091
H80	H	0.582717	-0.294739	-0.287300
H81	H	1.043357	-0.481789	-0.930613
H82	H	1.043354	-0.481822	-0.826494
H83	H	1.043321	-0.481861	-0.677762
C84	C	1.239972	-0.279978	-0.918978
C85	C	1.205973	-0.216690	-0.862629
C86	C	1.261211	-0.159982	-0.817562
C87	C	1.350447	-0.166561	-0.828845
C88	C	1.384450	-0.229851	-0.885197
C89	C	1.329212	-0.286559	-0.930264
H90	H	1.139911	-0.211818	-0.854274
H91	H	1.236039	-0.113131	-0.775847
H92	H	1.391338	-0.124582	-0.795485
H93	H	1.450512	-0.234724	-0.893552
H94	H	1.354384	-0.333411	-0.971979
H95	H	0.686869	-0.482093	-0.469111
H96	H	0.835567	-0.294725	-0.287273
H97	H	1.225587	-0.294783	-0.677843
C98	C	0.422308	-0.496871	-0.483461
C99	C	0.332134	-0.496880	-0.483477
C100	C	0.287055	-0.553685	-0.538600
C101	C	0.332149	-0.610483	-0.593707
C102	C	0.422328	-0.610477	-0.593694
C103	C	0.467407	-0.553671	-0.538571
H104	H	0.298748	-0.454833	-0.442682
H105	H	0.220298	-0.553690	-0.538610
H106	H	0.298779	-0.652534	-0.634513
H107	H	0.455714	-0.652523	-0.634489
H108	H	0.534164	-0.553667	-0.538561
H109	H	1.225605	-0.294739	-0.826561
