data_functionalizedCrystal
_audit_creation_method	'MofGen! by Chris Wilmer'
_symmetry_space_group_name_H-M	'P1'
_symmetry_Int_Tables_number	1
_symmetry_cell_setting	triclinic
loop_
_symmetry_equiv_pos_as_xyz
  x,y,z
_cell_length_a	11.792241
_cell_length_b	14.044220
_cell_length_c	10.268362
_cell_angle_alpha	90.006985
_cell_angle_beta	89.996518
_cell_angle_gamma	88.691147
loop_
_atom_site_label
_atom_site_type_symbol
_atom_site_fract_x
_atom_site_fract_y
_atom_site_fract_z
O1	O	1.519105	0.129988	0.108177
O2	O	1.852439	0.463322	0.441510
O3	O	2.185772	0.796655	0.774843
O4	O	1.190022	0.143385	0.108207
O5	O	1.523355	0.476718	0.441541
O6	O	1.856688	0.810051	0.774874
O7	O	1.349624	-0.001323	0.108180
O8	O	1.682957	0.332010	0.441513
O9	O	2.016291	0.665343	0.774846
O10	O	1.359503	0.274697	0.108204
O11	O	1.692836	0.608030	0.441538
O12	O	2.026170	0.941363	0.774871
O13	O	1.349621	-0.001332	-0.108421
O14	O	1.682954	0.332001	0.224912
O15	O	2.016288	0.665335	0.558246
O16	O	1.190019	0.143376	-0.108393
O17	O	1.523352	0.476710	0.224940
O18	O	1.856685	0.810043	0.558273
O19	O	1.519102	0.129980	-0.108424
O20	O	1.852436	0.463313	0.224909
O21	O	2.185769	0.796646	0.558243
Cu22	Cu	1.354560	0.136677	-0.128186
Cu23	Cu	1.687894	0.470011	0.205147
Cu24	Cu	2.021227	0.803344	0.538481
Cu25	Cu	1.354564	0.136687	0.127969
Cu26	Cu	1.687897	0.470021	0.461303
Cu27	Cu	2.021230	0.803354	0.794636
O28	O	1.359500	0.274688	-0.108396
O29	O	1.692833	0.608021	0.224937
O30	O	2.026167	0.941355	0.558270
C31	C	1.147650	0.142539	-0.000089
C32	C	1.480984	0.475872	0.333244
C33	C	1.814317	0.809206	0.666578
C34	C	1.021400	0.140020	-0.000078
C35	C	1.354734	0.473354	0.333255
C36	C	1.688067	0.806687	0.666589
C37	C	0.790253	0.135389	-0.000116
C38	C	1.123587	0.468722	0.333218
C39	C	1.456920	0.802056	0.666551
C40	C	0.918880	0.137962	-0.000095
C41	C	1.252213	0.471296	0.333238
C42	C	1.585547	0.804629	0.666572
C43	C	1.345298	-0.036664	-0.000121
C44	C	1.678631	0.296669	0.333212
C45	C	2.011965	0.630002	0.666546
C46	C	1.332399	-0.141956	-0.000121
C47	C	1.665732	0.191377	0.333212
C48	C	1.999066	0.524710	0.666545
C49	C	1.308817	-0.334739	-0.000100
C50	C	1.642150	-0.001406	0.333233
C51	C	1.975484	0.331928	0.666566
C52	C	1.400302	-0.391902	-0.000105
C53	C	1.733635	-0.058569	0.333228
C54	C	2.066969	0.274765	0.666562
C55	C	1.387181	-0.499173	-0.000093
C56	C	1.720514	-0.165840	0.333240
C57	C	2.053847	0.167494	0.666573
C58	C	1.321937	-0.227458	-0.000112
C59	C	1.655270	0.105875	0.333221
C60	C	1.988603	0.439209	0.666555
C61	C	1.561474	0.130826	-0.000125
C62	C	1.894807	0.464159	0.333209
C63	C	2.228140	0.797492	0.666542
C64	C	1.687724	0.133344	-0.000127
C65	C	2.021057	0.466678	0.333206
C66	C	2.354391	0.800011	0.666539
C67	C	1.363826	0.310029	-0.000093
C68	C	1.697159	0.643362	0.333240
C69	C	2.030493	0.976696	0.666574
C70	C	1.376725	0.415321	-0.000084
C71	C	1.710058	0.748654	0.333249
C72	C	2.043392	1.081988	0.666583
N73	N	1.354566	0.136687	0.308135
N74	N	1.687900	0.470021	0.641469
N75	N	2.021233	0.803354	0.974802
N76	N	1.354566	0.136670	-0.308352
N77	N	1.687899	0.470003	0.024981
N78	N	2.021233	0.803336	0.358315
C79	C	1.354563	0.136682	0.573806
C80	C	1.687896	0.470015	0.907139
C81	C	2.021229	0.803349	1.240472
C82	C	1.354562	0.136688	0.425968
C83	C	1.687895	0.470021	0.759301
C84	C	2.021228	0.803355	1.092635
H85	H	1.488479	-0.360278	-0.000026
H86	H	1.821812	-0.026945	0.333308
H87	H	2.155146	0.306389	0.666641
C88	C	1.191345	-0.377081	-0.000163
C89	C	1.524678	-0.043748	0.333171
C90	C	1.858011	0.289585	0.666504
C91	C	1.201523	-0.476604	-0.000192
C92	C	1.534857	-0.143270	0.333142
C93	C	1.868190	0.190063	0.666475
C94	C	1.093334	-0.515654	-0.000273
C95	C	1.426667	-0.182321	0.333061
C96	C	1.760001	0.151013	0.666394
H97	H	1.151151	-0.356594	0.075347
H98	H	1.484485	-0.023260	0.408681
H99	H	1.817818	0.310073	0.742014
H100	H	1.151248	-0.356559	-0.075729
H101	H	1.484581	-0.023226	0.257604
H102	H	1.817914	0.310108	0.590937
H103	H	1.241603	-0.497118	0.075368
H104	H	1.574936	-0.163784	0.408701
H105	H	1.908270	0.169549	0.742034
H106	H	1.241696	-0.497118	-0.075696
H107	H	1.575030	-0.163785	0.257638
H108	H	1.908363	0.169549	0.590971
H109	H	1.053237	-0.495132	-0.075839
H110	H	1.386571	-0.161798	0.257494
H111	H	1.719904	0.171535	0.590827
H112	H	1.053150	-0.495159	0.075238
H113	H	1.386483	-0.161826	0.408572
H114	H	1.719816	0.171507	0.741905
H115	H	1.100226	-0.583183	-0.000304
H116	H	1.433559	-0.249850	0.333029
H117	H	1.766892	0.083483	0.666362
