data_functionalizedCrystal
_audit_creation_method	'MofGen! by Chris Wilmer'
_symmetry_space_group_name_H-M	'P1'
_symmetry_Int_Tables_number	1
_symmetry_cell_setting	triclinic
loop_
_symmetry_equiv_pos_as_xyz
  x,y,z
_cell_length_a	16.120297
_cell_length_b	19.805407
_cell_length_c	19.805405
_cell_angle_alpha	90.023727
_cell_angle_beta	92.868750
_cell_angle_gamma	92.879222
loop_
_atom_site_label
_atom_site_type_symbol
_atom_site_fract_x
_atom_site_fract_y
_atom_site_fract_z
Zn1	Zn	-0.471347	1.015338	-0.288932
Zn2	Zn	-0.331929	1.020990	-0.396381
Zn3	Zn	-0.331953	0.907889	-0.283207
Zn4	Zn	-0.471296	0.902118	-0.402077
O5	O	-0.401631	0.961584	-0.342649
O6	O	-0.452864	1.110804	-0.303197
O7	O	-0.215269	1.010768	-0.376588
O8	O	-0.350475	0.922192	-0.189251
O9	O	-0.350434	1.114957	-0.382139
O10	O	-0.452888	1.001134	-0.193457
O11	O	-0.215287	0.927673	-0.293439
O12	O	-0.350426	0.812408	-0.298963
O13	O	-0.587965	0.912356	-0.391848
O14	O	-0.452801	0.808168	-0.386296
O15	O	-0.588003	0.995538	-0.308721
O16	O	-0.350385	1.005172	-0.491852
O17	O	-0.452777	0.917837	-0.496037
C18	C	-0.401611	0.785729	-0.342627
C19	C	-0.401622	0.710496	-0.342635
C20	C	-0.455038	0.672987	-0.301609
C21	C	-0.455042	0.602298	-0.301613
C22	C	-0.401632	0.569120	-0.342646
C23	C	-0.348210	0.606635	-0.383673
C24	C	-0.348203	0.677322	-0.383665
C25	C	-0.348235	0.321560	-0.383704
C26	C	-0.348248	0.250868	-0.383711
C27	C	-0.455074	0.246537	-0.301652
C28	C	-0.455067	0.317224	-0.301645
C29	C	-0.401642	0.354732	-0.342669
C30	C	-0.401638	0.431381	-0.342663
C31	C	-0.401640	0.492473	-0.342656
C32	C	-0.619079	0.952673	-0.351558
C33	C	-0.711743	0.948876	-0.355355
C34	C	-0.881400	0.941918	-0.362272
C35	C	-0.922714	0.981383	-0.322824
C36	C	-1.017117	0.977512	-0.326672
C37	C	-0.786988	0.945788	-0.358424
C38	C	-0.185029	0.970499	-0.333725
C39	C	-0.092366	0.974427	-0.329738
C40	C	-0.401652	1.138126	-0.342672
C41	C	-0.401661	1.213357	-0.342681
C42	C	-0.401591	0.961509	-0.518503
C43	C	-0.401601	0.961538	-0.593736
C44	C	-0.348341	1.007053	-0.626881
C45	C	-0.348360	1.007081	-0.697570
C46	C	-0.401635	0.961590	-0.735113
C47	C	-0.454901	0.916073	-0.701963
C48	C	-0.454886	0.916049	-0.631275
C49	C	-0.454962	0.916171	-0.987039
C50	C	-0.454971	0.916197	-1.057731
C51	C	-0.348437	1.007203	-1.053333
C52	C	-0.348422	1.007179	-0.982646
C53	C	-0.401690	0.961664	-0.949502
C54	C	-0.401671	0.961635	-0.872853
C55	C	-0.401651	0.961616	-0.811760
C56	C	-0.401690	0.961676	-0.166109
C57	C	-0.401715	0.961716	-0.090878
H58	H	-0.498572	0.215989	-0.268246
H59	H	-0.304955	1.044094	-0.596317
H60	H	-0.304990	1.044144	-0.724553
O61	O	-0.296645	1.051434	-0.946281
C62	C	-0.249625	1.091603	-0.990694
H63	H	-0.283783	1.092542	-1.042469
H64	H	-0.240790	1.145292	-0.969870
H65	H	-0.186281	1.069459	-0.995656
O66	O	-0.923648	0.898090	-0.406029
C67	C	-0.866647	0.862168	-0.441971
H68	H	-0.804552	0.862326	-0.411768
H69	H	-0.891876	0.807824	-0.450200
H70	H	-0.857422	0.887304	-0.493008
H71	H	-0.304719	0.579616	-0.417079
O72	O	-0.296291	0.713657	-0.423583
C73	C	-0.249138	0.669218	-0.459791
H74	H	-0.283284	0.617434	-0.463582
H75	H	-0.240124	0.689994	-0.512736
H76	H	-0.185878	0.664291	-0.432334
H77	H	-0.498360	0.879153	-1.088297
O78	O	-0.507038	0.349479	-0.261885
C79	C	-0.560779	0.388174	-0.302684
H80	H	-0.565814	0.366650	-0.356207
H81	H	-0.624991	0.386363	-0.280914
H82	H	-0.534991	0.442798	-0.303921
O83	O	-0.296319	0.218564	-0.423474
C84	C	-0.242559	0.179893	-0.382666
H85	H	-0.272085	0.168117	-0.332622
H86	H	-0.231333	0.130634	-0.409765
H87	H	-0.180789	0.209655	-0.372615
H88	H	-0.304734	0.352091	-0.417109
O89	O	-0.880252	1.025068	-0.279040
C90	C	-0.829902	0.988577	-0.233293
H91	H	-0.816933	0.937794	-0.256644
H92	H	-0.768640	1.018615	-0.221766
H93	H	-0.863414	0.979813	-0.184478
H94	H	-0.498540	0.571761	-0.268208
H95	H	-0.305066	1.044265	-1.080327
H96	H	-0.498533	0.699995	-0.268197
H97	H	-0.498282	0.879037	-0.732536
H98	H	-0.498334	0.879110	-0.960059
O99	O	-0.506652	0.871773	-0.599182
C100	C	-0.553694	0.831639	-0.647475
H101	H	-0.519552	0.830728	-0.696477
H102	H	-0.562532	0.777937	-0.627448
H103	H	-0.617035	0.853796	-0.657551
