data_functionalizedCrystal
_audit_creation_method	'MofGen! by Chris Wilmer'
_symmetry_space_group_name_H-M	'P1'
_symmetry_Int_Tables_number	1
_symmetry_cell_setting	triclinic
loop_
_symmetry_equiv_pos_as_xyz
  x,y,z
_cell_length_a	14.519709
_cell_length_b	15.538191
_cell_length_c	14.185569
_cell_angle_alpha	97.872928
_cell_angle_beta	76.815374
_cell_angle_gamma	65.476119
loop_
_atom_site_label
_atom_site_type_symbol
_atom_site_fract_x
_atom_site_fract_y
_atom_site_fract_z
O1	O	-1.154348	-0.144690	-0.083283
O2	O	-0.880973	-0.159231	-0.083313
O3	O	-1.070874	-0.014921	-0.083297
O4	O	-0.964447	-0.289001	-0.083299
O5	O	-1.126970	0.027706	0.083542
O6	O	-0.937069	-0.116605	0.083526
O7	O	-1.210445	-0.102064	0.083556
Cu8	Cu	-1.078879	-0.105442	0.098775
Cu9	Cu	-1.012538	-0.155853	-0.098532
O10	O	-1.020544	-0.246375	0.083540
C11	C	-0.874888	-0.137242	0.000102
C12	C	-0.773185	-0.135215	0.000091
C13	C	-1.216529	-0.124054	0.000138
C14	C	-1.318229	-0.126082	0.000143
C15	C	-1.110056	0.041469	0.000120
C16	C	-1.143221	0.145985	0.000114
C17	C	-0.400818	-0.127731	0.000136
C18	C	-0.504424	-0.129810	0.000123
C19	C	-0.586998	-0.131473	0.000113
C20	C	-0.690611	-0.133552	0.000102
C21	C	-0.981361	-0.302764	0.000120
C22	C	-0.948193	-0.407282	0.000120
N23	N	-1.125547	-0.069986	0.237550
C24	C	-0.813708	0.434327	0.000099
C25	C	-0.844899	0.532542	0.000105
C26	C	-1.020336	0.554694	0.000124
C27	C	-0.989158	0.456478	0.000113
C28	C	-0.885843	0.396302	0.000102
C29	C	-1.061293	0.418453	0.000116
C30	C	-1.030119	0.320246	0.000111
C31	C	-0.926810	0.260065	0.000103
C32	C	-0.854669	0.298096	0.000097
C33	C	-1.164610	0.478632	0.000134
C34	C	-1.236745	0.440607	0.000137
C35	C	-1.205569	0.342397	0.000125
C36	C	-1.102260	0.282216	0.000117
C37	C	-1.277710	0.304367	0.000130
C38	C	-1.246536	0.206161	0.000125
C39	C	-1.071086	0.184010	0.000111
N40	N	-0.965880	-0.191302	-0.237307
C41	C	-0.828785	-0.295432	0.605174
C42	C	-0.864139	-0.268580	0.710199
C43	C	-1.032306	-0.140841	0.710174
C44	C	-0.996963	-0.167678	0.605148
C45	C	-0.895202	-0.244975	0.552656
C46	C	-1.063381	-0.117222	0.552629
C47	C	-1.028044	-0.144061	0.447612
C48	C	-0.926288	-0.221357	0.395113
C49	C	-0.859865	-0.271814	0.447638
C50	C	-1.165145	-0.039930	0.605123
C51	C	-1.231563	0.010527	0.552604
C52	C	-1.196222	-0.016308	0.447585
C53	C	-1.094467	-0.093603	0.395086
C54	C	-1.262646	0.034150	0.395059
C55	C	-1.227308	0.007311	0.290041
C56	C	-1.059129	-0.120443	0.290068
H57	H	-0.986955	0.135009	0.000095
H58	H	-0.729576	0.385326	0.000083
H59	H	-1.115162	-0.077907	0.752925
C60	C	-1.350388	0.506811	0.000148
N61	N	-1.435985	0.556673	0.000153
C62	C	-1.204014	-0.010408	0.720646
N63	N	-1.233289	0.011829	0.807658
H64	H	-0.745916	-0.358368	0.562434
H65	H	-1.361832	0.353379	0.000149
H66	H	-0.810045	-0.309676	0.752954
C67	C	-0.747897	-0.356807	0.389892
N68	N	-0.663560	-0.420810	0.346397
H69	H	-1.314419	0.073460	0.595355
H70	H	-0.786155	0.563500	0.000117
H71	H	-0.901432	0.180101	0.000104
H72	H	-1.345504	0.097080	0.437811
C73	C	-1.325887	0.164329	0.000123
N74	N	-1.385657	0.132823	0.000123
C75	C	-1.133979	0.620897	0.000135
N76	N	-1.219576	0.670760	0.000140
H77	H	-1.281393	0.048397	0.247280
H78	H	-0.770538	0.249094	0.000080
C79	C	-0.947162	-0.205435	0.232321
N80	N	-0.862824	-0.269438	0.188827
H81	H	-1.189985	0.558595	0.000130
H82	H	-0.897519	-0.243211	0.309601
