data_functionalizedCrystal
_audit_creation_method	'MofGen! by Chris Wilmer'
_symmetry_space_group_name_H-M	'P1'
_symmetry_Int_Tables_number	1
_symmetry_cell_setting	triclinic
loop_
_symmetry_equiv_pos_as_xyz
  x,y,z
_cell_length_a	19.188931
_cell_length_b	18.266242
_cell_length_c	14.044190
_cell_angle_alpha	90.010750
_cell_angle_beta	91.831540
_cell_angle_gamma	89.992421
loop_
_atom_site_label
_atom_site_type_symbol
_atom_site_fract_x
_atom_site_fract_y
_atom_site_fract_z
O1	O	-0.933786	0.060864	0.118314
O2	O	-0.731503	0.060872	0.134239
O3	O	-0.829605	0.060854	-0.011696
O4	O	-0.835683	0.060882	0.264249
O5	O	-0.829587	-0.060908	-0.011703
O6	O	-0.731484	-0.060890	0.134232
O7	O	-0.933767	-0.060898	0.118306
Zn8	Zn	-0.832623	-0.080227	0.126268
Zn9	Zn	-0.832647	0.080200	0.126278
O10	O	-0.835664	-0.060880	0.264241
C11	C	-0.705449	-0.000008	0.133720
C12	C	-0.627845	-0.000006	0.132171
C13	C	-0.073886	0.066358	0.121123
C14	C	-0.146804	0.066361	0.122572
C15	C	-0.183257	-0.000011	0.123297
C16	C	-0.146788	-0.066391	0.122548
C17	C	-0.073872	-0.066392	0.121090
N18	N	-0.295898	-0.049409	0.179509
N19	N	-0.365166	-0.049404	0.180897
C20	C	-0.402950	-0.000012	0.127691
N21	N	-0.368849	0.049385	0.073056
N22	N	-0.299576	0.049382	0.071672
C23	C	-0.262323	-0.000018	0.124879
C24	C	-0.518476	0.066367	0.130004
C25	C	-0.591396	0.066367	0.131448
C26	C	-0.591379	-0.066387	0.131434
C27	C	-0.518461	-0.066385	0.129981
C28	C	-0.482014	-0.000006	0.129270
N29	N	-0.832611	-0.189713	0.126261
C30	C	-0.876068	-0.228030	0.061672
C31	C	-0.876073	-0.304675	0.061668
C32	C	-0.832627	-0.343000	0.126268
C33	C	-0.789161	-0.304674	0.190861
C34	C	-0.789153	-0.228031	0.190858
N35	N	-0.828966	-0.463324	0.210156
N36	N	-0.828978	-0.536132	0.210157
C37	C	-0.832647	-0.573923	0.126282
N38	N	-0.836318	-0.536155	0.042403
N39	N	-0.836310	-0.463340	0.042404
C40	C	-0.832630	-0.426107	0.126279
C41	C	-0.876112	-0.695347	0.061683
C42	C	-0.876111	-0.771993	0.061678
C43	C	-0.789203	-0.771991	0.190879
C44	C	-0.789200	-0.695346	0.190877
C45	C	-0.832658	-0.657028	0.126280
C46	C	0.040179	-0.000016	0.118827
C47	C	-0.037425	-0.000013	0.120380
C48	C	-0.826937	-0.000029	-0.047003
C49	C	-0.819006	-0.000036	-0.152196
N50	N	-0.832664	0.189687	0.126277
C51	C	-0.860754	-0.000009	-0.402655
C52	C	-0.804519	-0.000011	-0.344793
C53	C	-0.812582	-0.000025	-0.237622
C54	C	-0.852692	0.000005	-0.509836
C55	C	-0.838333	0.000005	0.299549
C56	C	-0.846263	0.000016	0.404742
H57	H	-0.044186	-0.120441	0.120488
H58	H	-0.911496	-0.664148	0.009081
H59	H	-0.488800	0.120417	0.129423
H60	H	-0.621081	0.120417	0.132046
H61	H	-0.753826	-0.803194	0.243475
H62	H	-0.753786	-0.335882	0.243459
H63	H	-0.753764	-0.196832	0.243454
H64	H	-0.914951	-0.000018	-0.371706
H65	H	-0.911453	-0.196835	0.009071
H66	H	-0.488774	-0.120432	0.129379
H67	H	-0.044215	0.120409	0.120541
H68	H	-0.911497	-0.803191	0.009077
H69	H	-0.176495	0.120410	0.123183
H70	H	-0.753816	-0.664146	0.243475
H71	H	-0.750318	-0.000005	-0.375744
H72	H	-0.621059	-0.120429	0.132020
H73	H	-0.911462	-0.335879	0.009070
H74	H	-0.176474	-0.120432	0.123137
