data_functionalizedCrystal
_audit_creation_method	'MofGen! by Chris Wilmer'
_symmetry_space_group_name_H-M	'P1'
_symmetry_Int_Tables_number	1
_symmetry_cell_setting	triclinic
loop_
_symmetry_equiv_pos_as_xyz
  x,y,z
_cell_length_a	12.594516
_cell_length_b	16.959455
_cell_length_c	16.959447
_cell_angle_alpha	89.985678
_cell_angle_beta	89.974854
_cell_angle_gamma	90.013000
loop_
_atom_site_label
_atom_site_type_symbol
_atom_site_fract_x
_atom_site_fract_y
_atom_site_fract_z
Zn1	Zn	0.423808	-1.208406	0.446937
Zn2	Zn	0.923808	-0.708406	0.946937
Zn3	Zn	0.601815	-1.208338	0.314770
Zn4	Zn	1.101815	-0.708338	0.814770
Zn5	Zn	0.423841	-1.076234	0.314775
Zn6	Zn	0.923841	-0.576234	0.814775
Zn7	Zn	0.601735	-1.076208	0.446909
Zn8	Zn	1.101735	-0.576208	0.946909
O9	O	0.512800	-1.142297	0.380848
O10	O	1.012800	-0.642297	0.880848
O11	O	0.447440	-1.319008	0.429415
O12	O	0.947440	-0.819008	0.929415
O13	O	0.578253	-1.190796	0.204160
O14	O	1.078253	-0.690796	0.704160
O15	O	0.274891	-1.093807	0.332320
O16	O	0.774891	-0.593807	0.832320
O17	O	0.578221	-1.318958	0.332313
O18	O	1.078221	-0.818958	0.832313
O19	O	0.274866	-1.190912	0.429419
O20	O	0.774866	-0.690912	0.929419
O21	O	0.447497	-1.093740	0.204163
O22	O	0.947497	-0.593740	0.704163
O23	O	0.447420	-0.965620	0.332293
O24	O	0.947420	-0.465620	0.832293
O25	O	0.578085	-1.093762	0.557524
O26	O	1.078085	-0.593762	1.057524
O27	O	0.578118	-0.965601	0.429371
O28	O	1.078118	-0.465601	0.929371
O29	O	0.447363	-1.190887	0.557544
O30	O	0.947363	-0.690887	1.057544
O31	O	0.750750	-1.190771	0.332286
O32	O	1.250750	-0.690771	0.832286
O33	O	0.750692	-1.093696	0.429367
O34	O	1.250692	-0.593696	0.929367
C35	C	0.512765	-0.936930	0.380830
C36	C	1.012765	-0.436930	0.880830
C37	C	0.512775	-0.849074	0.380841
C38	C	1.012775	-0.349074	0.880841
C39	C	0.789341	-1.142245	0.380840
C40	C	1.289341	-0.642245	0.880840
C41	C	0.907646	-1.142295	0.380863
C42	C	1.407646	-0.642295	0.880863
C43	C	0.235179	-1.142370	0.380873
C44	C	0.735179	-0.642370	0.880873
C45	C	0.116873	-1.142401	0.380884
C46	C	0.616873	-0.642401	0.880884
C47	C	0.976906	-1.089491	0.433629
C48	C	1.476906	-0.589491	0.933629
C49	C	1.047768	-1.070239	0.361503
C50	C	1.547768	-0.570239	0.861503
C51	C	1.047583	-1.161619	0.453001
C52	C	1.547583	-0.661619	0.953001
C53	C	0.976950	-1.123005	0.308699
C54	C	1.476950	-0.623005	0.808699
C55	C	0.976758	-1.214418	0.400246
C56	C	1.476758	-0.714418	0.900246
C57	C	1.047589	-1.195194	0.328071
C58	C	1.547589	-0.695194	0.828071
C59	C	0.512712	-1.142329	0.587016
C60	C	1.012712	-0.642329	1.087016
C61	C	0.512674	-1.142343	0.674873
C62	C	1.012674	-0.642343	1.174873
C63	C	0.512836	-1.348465	0.380866
C64	C	1.012836	-0.848465	0.880866
C65	C	0.512851	-1.436321	0.380874
C66	C	1.012851	-0.936321	0.880874
C67	C	0.444690	-0.477584	0.330405
C68	C	0.944690	0.022416	0.830405
C69	C	0.580998	-0.477613	0.431336
C70	C	1.080998	0.022387	0.931336
C71	C	0.580982	-0.560158	0.431332
C72	C	1.080982	-0.060158	0.931332
C73	C	0.512821	-0.601421	0.380862
C74	C	1.012821	-0.101421	0.880862
C75	C	0.444674	-0.560137	0.330396
C76	C	0.944674	-0.060137	0.830396
C77	C	0.649135	-0.601448	0.481790
C78	C	1.149135	-0.101448	0.981790
C79	C	0.649123	-0.683999	0.481787
C80	C	1.149123	-0.183999	0.981787
C81	C	0.580955	-0.725263	0.431320
C82	C	1.080955	-0.225263	0.931320
C83	C	0.512806	-0.683974	0.380854
C84	C	1.012806	-0.183974	0.880854
C85	C	0.444644	-0.725237	0.330384
C86	C	0.944644	-0.225237	0.830384
C87	C	0.376488	-0.683949	0.279920
C88	C	0.876488	-0.183949	0.779920
C89	C	0.376507	-0.601401	0.279930
C90	C	0.876507	-0.101401	0.779930
C91	C	0.580937	-0.807811	0.431311
C92	C	1.080937	-0.307811	0.931311
C93	C	0.444629	-0.807790	0.330376
C94	C	0.944629	-0.307790	0.830376
C95	C	0.512811	-1.142309	0.175482
C96	C	1.012811	-0.642309	0.675482
C97	C	0.512548	-1.142448	0.087625
C98	C	1.012548	-0.642448	0.587625
C99	C	0.580623	-1.091869	1.046340
C100	C	1.080623	-0.591869	1.546340
C101	C	0.444501	-1.193006	1.046357
C102	C	0.944501	-0.693006	1.546357
C103	C	0.444523	-1.192985	0.963811
C104	C	0.944523	-0.692985	1.463811
C105	C	0.512598	-1.142406	0.922526
C106	C	1.012598	-0.642406	1.422526
C107	C	0.580650	-1.091848	0.963787
C108	C	1.080650	-0.591848	1.463787
C109	C	0.376480	-1.243548	0.922544
C110	C	0.876480	-0.743548	1.422544
C111	C	0.376501	-1.243530	0.839993
C112	C	0.876501	-0.743530	1.339993
C113	C	0.444571	-1.192946	0.798706
C114	C	0.944571	-0.692946	1.298706
C115	C	0.512625	-1.142385	0.839972
C116	C	1.012625	-0.642385	1.339972
C117	C	0.580699	-1.091806	0.798687
C118	C	1.080699	-0.591806	1.298687
C119	C	0.648749	-1.041241	0.839952
C120	C	1.148749	-0.541241	1.339952
C121	C	0.648720	-1.041265	0.922500
C122	C	1.148720	-0.541265	1.422500
C123	C	0.444600	-1.192922	0.716158
C124	C	0.944600	-0.692922	1.216158
C125	C	0.580726	-1.091785	0.716134
C126	C	1.080726	-0.591785	1.216134
H127	H	0.945870	-1.044756	0.478186
H128	H	1.445870	-0.544756	0.978186
H129	H	0.636432	-0.841424	0.472394
H130	H	1.136432	-0.341424	0.972394
Cl131	Cl	0.666305	-1.028192	0.664239
Cl132	Cl	1.166305	-0.528192	1.164239
H133	H	0.389116	-0.841380	0.289281
H134	H	0.889116	-0.341380	0.789281
Cl135	Cl	0.666704	-0.425739	0.494764
Cl136	Cl	1.166704	0.074261	0.994764
H137	H	0.321064	-1.284732	0.956164
H138	H	0.821064	-0.784732	1.456164
H139	H	0.704180	-1.000063	0.806327
H140	H	1.204180	-0.500063	1.306327
H141	H	0.321019	-0.567778	0.238845
H142	H	0.821019	-0.067778	0.738845
H143	H	0.946052	-1.106633	0.247685
H144	H	1.446052	-0.606633	0.747685
H145	H	0.704619	-0.717608	0.522877
H146	H	1.204619	-0.217608	1.022877
Cl147	Cl	1.095923	-0.976142	0.336196
Cl148	Cl	1.595923	-0.476142	0.836196
Cl149	Cl	0.928565	-1.308490	0.425585
Cl150	Cl	1.428565	-0.808490	0.925585
H151	H	1.078609	-1.177920	0.513999
H152	H	1.578609	-0.677920	1.013999
H153	H	0.320996	-0.717556	0.238824
H154	H	0.820996	-0.217556	0.738824
H155	H	0.704636	-0.567846	0.522874
H156	H	1.204636	-0.067846	1.022874
Cl157	Cl	0.359007	-0.425683	0.266973
Cl158	Cl	0.859007	0.074317	0.766973
H159	H	0.704125	-1.000100	0.956105
H160	H	1.204125	-0.500100	1.456105
H161	H	0.636024	-1.050698	1.079942
H162	H	1.136024	-0.550698	1.579942
H163	H	0.389083	-1.234190	1.079976
H164	H	0.889083	-0.734190	1.579976
H165	H	1.078429	-1.239894	0.283406
H166	H	1.578429	-0.739894	0.783406
Cl167	Cl	0.290951	-1.307093	0.788125
Cl168	Cl	0.790951	-0.807093	1.288125
H169	H	0.389198	-1.234094	0.682564
H170	H	0.889198	-0.734094	1.182564
