data_functionalizedCrystal
_audit_creation_method	'MofGen! by Chris Wilmer'
_symmetry_space_group_name_H-M	'P1'
_symmetry_Int_Tables_number	1
_symmetry_cell_setting	triclinic
loop_
_symmetry_equiv_pos_as_xyz
  x,y,z
_cell_length_a	15.944493
_cell_length_b	23.532357
_cell_length_c	15.021413
_cell_angle_alpha	89.998468
_cell_angle_beta	89.993251
_cell_angle_gamma	83.151668
loop_
_atom_site_label
_atom_site_type_symbol
_atom_site_fract_x
_atom_site_fract_y
_atom_site_fract_z
O1	O	1.113922	0.073287	-0.074031
O2	O	0.869287	0.082377	-0.074037
O3	O	0.999003	-0.005074	-0.074016
O4	O	0.984206	0.160738	-0.074053
O5	O	0.998983	-0.005062	0.074049
O6	O	0.869266	0.082390	0.074027
O7	O	1.113902	0.073299	0.074033
Zn8	Zn	0.991581	0.077846	0.097538
Zn9	Zn	0.991608	0.077830	-0.097543
O10	O	0.984185	0.160751	0.074012
C11	C	0.837985	0.082012	-0.000005
C12	C	0.744746	0.080898	-0.000007
C13	C	0.508539	0.132374	-0.000019
C14	C	0.458212	0.104621	0.072995
C15	C	0.574043	0.078834	-0.000005
C16	C	0.458237	0.104596	-0.072985
C17	C	0.409151	0.076844	-0.000006
C18	C	0.524944	0.051096	0.073069
C19	C	0.524972	0.051079	-0.072976
C20	C	0.474678	0.023287	0.000055
C21	C	0.669033	0.079982	-0.000003
C22	C	0.314164	0.075692	-0.000002
C23	C	0.998623	-0.026286	0.000019
C24	C	0.997510	-0.089509	0.000028
C25	C	0.990535	-0.481553	-0.080730
C26	C	0.989477	-0.540956	-0.080736
O27	O	0.988911	-0.571680	-0.149376
N28	N	0.988941	-0.570663	-0.000027
C29	C	0.989455	-0.540962	0.080692
O30	O	0.988901	-0.571684	0.149341
C31	C	0.990507	-0.481559	0.080696
C32	C	0.991051	-0.451856	-0.000018
C33	C	0.991079	-0.451850	-0.161438
C34	C	0.992138	-0.392451	-0.161432
C35	C	0.992654	-0.362754	-0.080720
C36	C	0.992111	-0.392457	-0.000012
C37	C	0.991014	-0.451858	0.161414
C38	C	0.992065	-0.392451	0.161412
C39	C	0.992610	-0.362749	0.080698
C40	C	0.993686	-0.303361	0.080706
N41	N	0.994222	-0.273655	-0.000003
C42	C	0.993706	-0.303352	-0.080715
C43	C	0.987245	-0.665711	0.080677
C44	C	0.986199	-0.725114	0.080674
C45	C	0.986220	-0.725104	-0.080754
C46	C	0.987272	-0.665701	-0.080750
C47	C	0.987780	-0.636005	-0.000031
C48	C	0.995931	-0.178609	-0.080698
C49	C	0.996994	-0.119205	-0.080685
C50	C	0.996969	-0.119220	0.080742
C51	C	0.995910	-0.178619	0.080730
C52	C	0.995389	-0.208312	0.000003
O53	O	0.994249	-0.272599	0.149312
O54	O	0.994248	-0.272621	-0.149352
C55	C	1.145204	0.073665	-0.000001
C56	C	1.238442	0.074778	-0.000005
C57	C	0.984566	0.181962	-0.000025
C58	C	0.985678	0.245185	-0.000039
N59	N	0.991568	0.077857	0.230676
N60	N	0.991627	0.077815	-0.230680
C61	C	0.931578	0.118276	0.470349
C62	C	1.007385	0.129322	0.529683
C63	C	0.991590	0.077843	0.412283
C64	C	0.915804	0.066810	0.529691
C65	C	0.991604	0.077831	0.587707
C66	C	1.067434	0.088914	0.470310
C67	C	0.975804	0.026381	0.470313
C68	C	1.051665	0.037404	0.529620
C69	C	0.991581	0.077852	0.311226
C70	C	0.991622	0.077822	0.688762
H71	H	0.554123	0.028480	-0.134695
H72	H	1.131545	0.098293	0.444336
H73	H	0.553960	0.028504	0.134857
O74	O	1.112386	-0.003335	0.560439
C75	C	1.260849	-0.037741	0.564939
C76	C	1.192169	0.008437	0.529992
H77	H	1.325367	-0.028246	0.540321
H78	H	1.260121	-0.037701	0.640829
H79	H	1.247891	-0.081492	0.539486
H80	H	1.205081	0.052211	0.555379
H81	H	1.192914	0.008346	0.454102
H82	H	1.020750	0.172837	0.555760
H83	H	0.997439	-0.095024	-0.146415
O84	O	0.959984	-0.025537	0.439126
C85	C	1.010889	-0.108577	0.352136
C86	C	1.028935	-0.049798	0.387418
H87	H	1.066616	-0.128204	0.310308
H88	H	1.001227	-0.138015	0.410578
H89	H	0.951426	-0.103008	0.309351
H90	H	1.088405	-0.055313	0.430189
H91	H	1.038545	-0.020381	0.328935
H92	H	0.851707	0.057484	0.555777
O93	O	0.990692	-0.480765	-0.239793
C94	C	1.062339	-0.554252	-0.333521
C95	C	1.062862	-0.521566	-0.244737
H96	H	1.120692	-0.587239	-0.337556
H97	H	1.003097	-0.576886	-0.337590
H98	H	1.062867	-0.522795	-0.391179
H99	H	1.062365	-0.552985	-0.187028
H100	H	1.122100	-0.498923	-0.240746
H101	H	0.523762	0.178492	0.000039
H102	H	0.429069	0.127237	0.134711
O103	O	0.985555	-0.754012	0.159026
C104	C	0.911516	-0.814566	0.252740
C105	C	0.912162	-0.781883	0.163961
H106	H	0.852176	-0.837098	0.256767
H107	H	0.969767	-0.847638	0.256810
H108	H	0.912105	-0.783120	0.310403
H109	H	0.911545	-0.813285	0.106248
H110	H	0.853917	-0.748802	0.159969
H111	H	0.880879	0.152496	0.444326
H112	H	0.459613	-0.022867	0.000107
H113	H	0.429110	0.127212	-0.134703
O114	O	0.987636	-0.636919	0.159149
C115	C	0.915136	-0.612268	0.297101
C116	C	0.914600	-0.644908	0.208276
H117	H	0.856084	-0.618706	0.336837
H118	H	0.973676	-0.629181	0.336962
H119	H	0.916021	-0.564714	0.283229
H120	H	0.913685	-0.692467	0.222067
H121	H	0.856065	-0.627949	0.168442
O122	O	0.995449	-0.207362	-0.159195
C123	C	0.995502	-0.201060	-0.319306
C124	C	0.996073	-0.168430	-0.230476
H125	H	0.995988	-0.169596	-0.376960
H126	H	1.053806	-0.234084	-0.323425
H127	H	0.936221	-0.223657	-0.323292
H128	H	1.055314	-0.145798	-0.226430
H129	H	0.937729	-0.135438	-0.226394
H130	H	0.992578	-0.368272	-0.227158
H131	H	0.987713	-0.641521	-0.146474
O132	O	0.985562	-0.753968	-0.159139
C133	C	0.911620	-0.814601	-0.252792
C134	C	0.912249	-0.781926	-0.164006
H135	H	0.852361	-0.837223	-0.256747
H136	H	0.912130	-0.783191	-0.310517
H137	H	0.969945	-0.847612	-0.256814
H138	H	0.853934	-0.748915	-0.159897
H139	H	0.911782	-0.813370	-0.106322
O140	O	0.990444	-0.480610	0.239901
C141	C	0.990561	-0.474327	0.400013
C142	C	0.991191	-0.441695	0.311186
H143	H	0.991183	-0.442880	0.457671
H144	H	0.931257	-0.496896	0.404106
H145	H	1.048842	-0.507375	0.404019
H146	H	0.932950	-0.408619	0.307121
H147	H	1.050533	-0.419165	0.307131
H148	H	0.992467	-0.368275	0.227144
H149	H	0.995475	-0.202805	0.146454
H150	H	0.997393	-0.095030	0.146457
