data_functionalizedCrystal
_audit_creation_method	'MofGen! by Chris Wilmer'
_symmetry_space_group_name_H-M	'P1'
_symmetry_Int_Tables_number	1
_symmetry_cell_setting	triclinic
loop_
_symmetry_equiv_pos_as_xyz
  x,y,z
_cell_length_a	18.101395
_cell_length_b	21.395362
_cell_length_c	21.395355
_cell_angle_alpha	90.048039
_cell_angle_beta	89.984273
_cell_angle_gamma	89.950633
loop_
_atom_site_label
_atom_site_type_symbol
_atom_site_fract_x
_atom_site_fract_y
_atom_site_fract_z
Zn1	Zn	-0.294554	-0.957858	-0.354666
Zn2	Zn	0.038779	-0.624525	-0.021333
Zn3	Zn	0.372112	-0.291191	0.312000
Zn4	Zn	-0.418378	-0.957760	-0.249894
Zn5	Zn	-0.085044	-0.624426	0.083439
Zn6	Zn	0.248289	-0.291093	0.416773
Zn7	Zn	-0.294594	-0.853073	-0.249860
Zn8	Zn	0.038739	-0.519739	0.083473
Zn9	Zn	0.372073	-0.186406	0.416807
Zn10	Zn	-0.418398	-0.853041	-0.354591
Zn11	Zn	-0.085065	-0.519708	-0.021258
Zn12	Zn	0.248269	-0.186375	0.312076
O13	O	-0.356481	-0.905433	-0.302253
O14	O	-0.023148	-0.572100	0.031081
O15	O	0.310186	-0.238766	0.364414
O16	O	-0.310955	-1.045523	-0.340814
O17	O	0.022379	-0.712189	-0.007480
O18	O	0.355712	-0.378856	0.325853
O19	O	-0.401966	-0.943845	-0.162211
O20	O	-0.068632	-0.610511	0.171122
O21	O	0.264701	-0.277178	0.504455
O22	O	-0.190956	-0.867027	-0.263780
O23	O	0.142377	-0.533694	0.069553
O24	O	0.475711	-0.200360	0.402887
O25	O	-0.401927	-1.045451	-0.263838
O26	O	-0.068594	-0.712117	0.069496
O27	O	0.264739	-0.378784	0.402829
O28	O	-0.190927	-0.944012	-0.340781
O29	O	0.142407	-0.610679	-0.007447
O30	O	0.475740	-0.277346	0.325886
O31	O	-0.311022	-0.866932	-0.162187
O32	O	0.022311	-0.533598	0.171147
O33	O	0.355644	-0.200265	0.504480
O34	O	-0.311042	-0.765391	-0.263707
O35	O	0.022291	-0.432057	0.069626
O36	O	0.355625	-0.098724	0.402959
O37	O	-0.401962	-0.866973	-0.442279
O38	O	-0.068629	-0.533640	-0.108946
O39	O	0.264705	-0.200307	0.224388
O40	O	-0.402000	-0.765368	-0.340653
O41	O	-0.068667	-0.432034	-0.007319
O42	O	0.264666	-0.098701	0.326014
O43	O	-0.310974	-0.943982	-0.442334
O44	O	0.022359	-0.610648	-0.109001
O45	O	0.355692	-0.277315	0.224332
O46	O	-0.522013	-0.943814	-0.263765
O47	O	-0.188680	-0.610481	0.069568
O48	O	0.144653	-0.277148	0.402902
O49	O	-0.522028	-0.866878	-0.340685
O50	O	-0.188695	-0.533545	-0.007352
O51	O	0.144638	-0.200211	0.325981
C52	C	-0.356528	-0.742645	-0.302168
C53	C	-0.023195	-0.409312	0.031165
C54	C	0.310138	-0.075979	0.364498
C55	C	-0.356566	-0.673004	-0.302147
C56	C	-0.023233	-0.339671	0.031186
C57	C	0.310100	-0.006337	0.364519
C58	C	-0.548892	-0.905349	-0.302234
C59	C	-0.215558	-0.572016	0.031099
C60	C	0.117775	-0.238682	0.364432
C61	C	-0.631206	-0.905371	-0.302247
C62	C	-0.297872	-0.572037	0.031086
C63	C	0.035461	-0.238704	0.364419
C64	C	-0.403993	-0.640295	-0.342150
C65	C	-0.070659	-0.306962	-0.008817
C66	C	0.262674	0.026372	0.324516
C67	C	-0.403978	-0.574860	-0.342174
C68	C	-0.070644	-0.241526	-0.008840
C69	C	0.262689	0.091807	0.324493
C70	C	-0.356544	-0.542136	-0.302183
C71	C	-0.023211	-0.208802	0.031151
C72	C	0.310123	0.124531	0.364484
C73	C	-0.309109	-0.574852	-0.262177
C74	C	0.024225	-0.241519	0.071157
C75	C	0.357558	0.091814	0.404490
C76	C	-0.309120	-0.640286	-0.262159
C77	C	0.024214	-0.306953	0.071174
C78	C	0.357547	0.026380	0.404508
C79	C	-0.350583	-0.438411	-0.245770
C80	C	-0.017250	-0.105078	0.087564
C81	C	0.316083	0.228256	0.420897
C82	C	-0.350577	-0.372978	-0.245786
C83	C	-0.017244	-0.039645	0.087547
C84	C	0.316089	0.293689	0.420880
C85	C	-0.356506	-0.340315	-0.302237
C86	C	-0.023172	-0.006982	0.031096
C87	C	0.310161	0.326352	0.364429
C88	C	-0.362456	-0.373093	-0.358673
C89	C	-0.029122	-0.039760	-0.025340
C90	C	0.304211	0.293574	0.307993
C91	C	-0.362467	-0.438527	-0.358656
C92	C	-0.029133	-0.105194	-0.025323
C93	C	0.304200	0.228140	0.308011
C94	C	-0.356527	-0.471183	-0.302197
C95	C	-0.023193	-0.137850	0.031136
C96	C	0.310140	0.195483	0.364469
C97	C	-0.403918	-0.236654	-0.342269
C98	C	-0.070585	0.096680	-0.008936
C99	C	0.262748	0.430013	0.324398
C100	C	-0.403898	-0.171217	-0.342293
C101	C	-0.070565	0.162116	-0.008960
C102	C	0.262768	0.495450	0.324373
C103	C	-0.309033	-0.171211	-0.262291
C104	C	0.024300	0.162122	0.071043
C105	C	0.357634	0.495456	0.404376
C106	C	-0.309049	-0.236646	-0.262272
C107	C	0.024284	0.096687	0.071061
C108	C	0.357617	0.430020	0.404395
C109	C	-0.356496	-0.269364	-0.302260
C110	C	-0.023163	0.063970	0.031073
C111	C	0.310171	0.397303	0.364406
C112	C	-0.930297	-0.905508	-0.302281
C113	C	-0.596963	-0.572175	0.031052
C114	C	-0.263630	-0.238841	0.364385
C115	C	-0.899012	-0.857214	-0.350798
C116	C	-0.565678	-0.523881	-0.017464
C117	C	-0.232345	-0.190547	0.315869
C118	C	-0.813394	-0.856985	-0.350646
C119	C	-0.480060	-0.523651	-0.017313
C120	C	-0.146727	-0.190318	0.316021
C121	C	-0.781914	-0.905440	-0.302265
C122	C	-0.448581	-0.572106	0.031068
C123	C	-0.115247	-0.238773	0.364402
C124	C	-0.813056	-0.887557	-0.236224
C125	C	-0.479723	-0.554224	0.097109
C126	C	-0.146390	-0.220890	0.430442
C127	C	-0.898702	-0.887246	-0.236515
C128	C	-0.565368	-0.553913	0.096819
C129	C	-0.232035	-0.220579	0.430152
C130	C	-0.898619	-0.971790	-0.319224
C131	C	-0.565286	-0.638457	0.014109
C132	C	-0.231953	-0.305123	0.347443
C133	C	-0.812969	-0.971401	-0.320672
C134	C	-0.479635	-0.638067	0.012661
C135	C	-0.146302	-0.304734	0.345995
C136	C	-0.698055	-0.905402	-0.302252
C137	C	-0.364721	-0.572069	0.031082
C138	C	-0.031388	-0.238736	0.364415
C139	C	-1.014156	-0.905544	-0.302290
C140	C	-0.680823	-0.572211	0.031043
C141	C	-0.347489	-0.238877	0.364377
C142	C	-0.163319	-0.905534	-0.302285
C143	C	0.170014	-0.572201	0.031048
C144	C	0.503348	-0.238867	0.364382
C145	C	-0.081005	-0.905577	-0.302299
C146	C	0.252328	-0.572244	0.031035
C147	C	0.585662	-0.238911	0.364368
C148	C	-0.356466	-0.905485	-0.465676
C149	C	-0.023133	-0.572152	-0.132343
C150	C	0.310201	-0.238818	0.200990
C151	C	-0.356460	-0.905507	-0.535317
C152	C	-0.023126	-0.572174	-0.201984
C153	C	0.310207	-0.238840	0.131349
C154	C	-0.356447	-0.068856	-0.302320
C155	C	-0.023113	0.264477	0.031013
C156	C	0.310220	0.597810	0.364347
C157	C	-0.356463	-0.138497	-0.302303
C158	C	-0.023130	0.194836	0.031031
C159	C	0.310203	0.528169	0.364364
C160	C	-0.309081	-0.945604	-0.568060
C161	C	0.024253	-0.612270	-0.234727
C162	C	0.357586	-0.278937	0.098606
C163	C	-0.309049	-0.945603	-0.633496
C164	C	0.024285	-0.612269	-0.300162
C165	C	0.357618	-0.278936	0.033171
C166	C	-0.356409	-0.905512	-0.666186
C167	C	-0.023076	-0.572179	-0.332853
C168	C	0.310257	-0.238845	0.000481
C169	C	-0.403792	-0.865408	-0.633435
C170	C	-0.070458	-0.532074	-0.300102
C171	C	0.262875	-0.198741	0.033232
C172	C	-0.403817	-0.865405	-0.568001
C173	C	-0.070484	-0.532072	-0.234668
C174	C	0.262850	-0.198739	0.098666
C175	C	-0.423092	-0.900536	-0.769852
C176	C	-0.089759	-0.567202	-0.436519
C177	C	0.243574	-0.233869	-0.103185
C178	C	-0.423068	-0.900542	-0.835285
C179	C	-0.089735	-0.567209	-0.501952
C180	C	0.243598	-0.233876	-0.168618
C181	C	-0.356331	-0.905516	-0.868007
C182	C	-0.022998	-0.572182	-0.534673
C183	C	0.310336	-0.238849	-0.201340
C184	C	-0.289615	-0.910496	-0.835287
C185	C	0.043718	-0.577162	-0.501954
C186	C	0.377051	-0.243829	-0.168621
C187	C	-0.289641	-0.910493	-0.769853
C188	C	0.043693	-0.577160	-0.436520
C189	C	0.377026	-0.243826	-0.103186
C190	C	-0.356387	-0.905510	-0.737138
C191	C	-0.023053	-0.572177	-0.403805
C192	C	0.310280	-0.238843	-0.070472
C193	C	-0.308913	-0.945614	-0.971702
C194	C	0.024420	-0.612280	-0.638369
C195	C	0.357753	-0.278947	-0.305036
C196	C	-0.308880	-0.945608	-1.037139
C197	C	0.024453	-0.612275	-0.703806
C198	C	0.357787	-0.278942	-0.370472
C199	C	-0.403630	-0.865417	-1.037077
C200	C	-0.070296	-0.532083	-0.703744
C201	C	0.263037	-0.198750	-0.370410
C202	C	-0.403656	-0.865418	-0.971641
C203	C	-0.070323	-0.532085	-0.638308
C204	C	0.263010	-0.198752	-0.304975
C205	C	-0.356299	-0.905520	-0.938958
C206	C	-0.022966	-0.572187	-0.605625
C207	C	0.310368	-0.238854	-0.272291
C208	C	-0.356443	-0.905417	-0.139465
C209	C	-0.023109	-0.572084	0.193868
C210	C	0.310224	-0.238750	0.527201
C211	C	-0.356240	-0.905516	-0.069824
C212	C	-0.022907	-0.572183	0.263509
C213	C	0.310426	-0.238850	0.596842
H214	H	-0.442626	-0.666930	-0.374713
H215	H	-0.109293	-0.333596	-0.041380
H216	H	0.224040	-0.000263	0.291954
C217	C	-0.216254	-0.915962	-0.733864
C218	C	0.117079	-0.582629	-0.400531
C219	C	0.450412	-0.249295	-0.067198
N220	N	-0.160978	-0.920077	-0.706757
N221	N	0.172355	-0.586744	-0.373424
N222	N	0.505689	-0.253411	-0.040091
C223	C	-0.369010	-0.474580	-0.420734
C224	C	-0.035677	-0.141247	-0.087401
C225	C	0.297656	0.192086	0.245932
N226	N	-0.373938	-0.501735	-0.467493
N227	N	-0.040605	-0.168402	-0.134159
N228	N	0.292729	0.164931	0.199174
C229	C	-0.256883	-0.272627	-0.218259
C230	C	0.076451	0.060706	0.115074
C231	C	0.409784	0.394039	0.448408
N232	N	-0.217588	-0.299728	-0.185107
N233	N	0.115746	0.033605	0.148227
N234	N	0.449079	0.366939	0.481560
H235	H	-0.920172	-0.988093	-0.366562
H236	H	-0.586839	-0.654759	-0.033228
H237	H	-0.253506	-0.321426	0.300105
H238	H	-0.442549	-0.263294	-0.374833
H239	H	-0.109215	0.070040	-0.041500
H240	H	0.224118	0.403373	0.291834
H241	H	-0.270408	-0.144568	-0.229732
H242	H	0.062925	0.188766	0.103601
H243	H	0.396258	0.522099	0.436935
H244	H	-0.345737	-0.346295	-0.199832
H245	H	-0.012404	-0.012962	0.133501
H246	H	0.320929	0.320371	0.466834
C247	C	-0.455728	-0.821316	-1.073032
C248	C	-0.122395	-0.487983	-0.739699
C249	C	0.210939	-0.154650	-0.406365
N250	N	-0.494969	-0.788099	-1.100117
N251	N	-0.161636	-0.454765	-0.766784
N252	N	0.171698	-0.121432	-0.433450
C253	C	-0.455781	-0.821311	-0.935623
C254	C	-0.122448	-0.487978	-0.602290
C255	C	0.210886	-0.154645	-0.268956
N256	N	-0.495042	-0.788086	-0.908494
N257	N	-0.161709	-0.454753	-0.575161
N258	N	0.171625	-0.121419	-0.241827
H259	H	-0.918847	-1.007771	-0.283888
H260	H	-0.585514	-0.674438	0.049445
H261	H	-0.252181	-0.341104	0.382779
C262	C	-0.344064	-0.474334	-0.183665
C263	C	-0.010731	-0.141000	0.149669
C264	C	0.322602	0.192333	0.483002
N265	N	-0.339156	-0.501390	-0.136889
N266	N	-0.005822	-0.168056	0.196445
N267	N	0.327511	0.165277	0.529778
H268	H	-0.270497	-0.666918	-0.229583
H269	H	0.062836	-0.333584	0.103750
H270	H	0.396170	-0.000251	0.437083
H271	H	-0.367282	-0.346500	-0.404642
H272	H	-0.033948	-0.013167	-0.071308
H273	H	0.299385	0.320167	0.262025
C274	C	-0.456080	-0.135237	-0.386297
C275	C	-0.122747	0.198096	-0.052964
C276	C	0.210586	0.531429	0.280370
N277	N	-0.495388	-0.108137	-0.419439
N278	N	-0.162055	0.225196	-0.086105
N279	N	0.171278	0.558530	0.247228
H280	H	-0.477392	-0.896491	-0.861920
H281	H	-0.144059	-0.563158	-0.528587
H282	H	0.189274	-0.229825	-0.195254
C283	C	-0.785503	-0.933577	-0.186053
C284	C	-0.452170	-0.600244	0.147280
C285	C	-0.118837	-0.266910	0.480613
N286	N	-0.764747	-0.968239	-0.148265
N287	N	-0.431414	-0.634906	0.185069
N288	N	-0.098080	-0.301573	0.518402
C289	C	-0.256932	-0.538855	-0.218186
C290	C	0.076402	-0.205521	0.115147
C291	C	0.409735	0.127812	0.448480
N292	N	-0.217629	-0.511741	-0.185053
N293	N	0.115705	-0.178408	0.148281
N294	N	0.449038	0.154926	0.481614
H295	H	-0.442598	-0.548223	-0.374751
H296	H	-0.109264	-0.214890	-0.041418
H297	H	0.224069	0.118444	0.291915
H298	H	-0.792337	-0.868173	-0.399613
H299	H	-0.459004	-0.534840	-0.066280
H300	H	-0.125670	-0.201507	0.267053
H301	H	-0.270294	-0.978259	-1.063797
H302	H	0.063039	-0.644925	-0.730464
H303	H	0.396373	-0.311592	-0.397130
C304	C	-0.496515	-0.895076	-0.733865
C305	C	-0.163182	-0.561743	-0.400532
C306	C	0.170152	-0.228410	-0.067198
N307	N	-0.551816	-0.890969	-0.706760
N308	N	-0.218482	-0.557636	-0.373427
N309	N	0.114851	-0.224302	-0.040094
C310	C	-0.785821	-0.790602	-0.335527
C311	C	-0.452488	-0.457268	-0.002194
C312	C	-0.119154	-0.123935	0.331139
N313	N	-0.765054	-0.740595	-0.324155
N314	N	-0.431721	-0.407262	0.009178
N315	N	-0.098387	-0.073929	0.342512
C316	C	-0.926787	-0.872175	-0.417166
C317	C	-0.593453	-0.538841	-0.083833
C318	C	-0.260120	-0.205508	0.249501
N319	N	-0.947714	-0.883443	-0.467156
N320	N	-0.614380	-0.550110	-0.133823
N321	N	-0.281047	-0.216776	0.199511
H322	H	-0.920614	-0.808383	-0.339714
H323	H	-0.587281	-0.475050	-0.006381
H324	H	-0.253947	-0.141716	0.326953
H325	H	-0.442351	-0.832764	-0.660056
H326	H	-0.109017	-0.499430	-0.326722
H327	H	0.224316	-0.166097	0.006611
C328	C	-0.925801	-0.821788	-0.217134
C329	C	-0.592468	-0.488455	0.116199
C330	C	-0.259134	-0.155121	0.449533
N331	N	-0.946208	-0.772483	-0.202538
N332	N	-0.612875	-0.439149	0.130795
N333	N	-0.279541	-0.105816	0.464128
H334	H	-0.919398	-0.920895	-0.199132
H335	H	-0.586064	-0.587561	0.134201
H336	H	-0.252731	-0.254228	0.467535
C337	C	-0.784195	-0.822790	-0.216494
C338	C	-0.450861	-0.489457	0.116839
C339	C	-0.117528	-0.156124	0.450172
N340	N	-0.762458	-0.774006	-0.201638
N341	N	-0.429124	-0.440673	0.131696
N342	N	-0.095791	-0.107339	0.465029
C343	C	-0.455942	-0.821295	-0.531983
C344	C	-0.122608	-0.487962	-0.198649
C345	C	0.210725	-0.154629	0.134684
N346	N	-0.495204	-0.788072	-0.504853
N347	N	-0.161871	-0.454739	-0.171519
N348	N	0.171463	-0.121405	0.161814
H349	H	-0.792612	-0.984886	-0.369274
H350	H	-0.459279	-0.651552	-0.035941
H351	H	-0.125946	-0.318219	0.297392
C352	C	-0.784015	-1.022583	-0.276414
C353	C	-0.450681	-0.689250	0.056919
C354	C	-0.117348	-0.355917	0.390252
N355	N	-0.762208	-1.061133	-0.243073
N356	N	-0.428875	-0.727800	0.090260
N357	N	-0.095541	-0.394466	0.423593
C358	C	-0.256976	-0.989709	-0.532112
C359	C	0.076357	-0.656375	-0.198779
C360	C	0.409691	-0.323042	0.134554
N361	N	-0.217727	-1.022926	-0.505035
N362	N	0.115606	-0.689593	-0.171702
N363	N	0.448939	-0.356259	0.161631
C364	C	-0.256930	-0.989718	-0.669520
C365	C	0.076403	-0.656384	-0.336187
C366	C	0.409736	-0.323051	-0.002854
N367	N	-0.217677	-1.022947	-0.696652
N368	N	0.115657	-0.689613	-0.363319
N369	N	0.448990	-0.356280	-0.029985
H370	H	-0.270348	-0.978263	-0.945090
H371	H	0.062985	-0.644930	-0.611757
H372	H	0.396319	-0.311597	-0.278423
H373	H	-0.235271	-0.914546	-0.861928
H374	H	0.098062	-0.581213	-0.528594
H375	H	0.431395	-0.247880	-0.195261
