data_functionalizedCrystal
_audit_creation_method	'MofGen! by Chris Wilmer'
_symmetry_space_group_name_H-M	'P1'
_symmetry_Int_Tables_number	1
_symmetry_cell_setting	triclinic
loop_
_symmetry_equiv_pos_as_xyz
  x,y,z
_cell_length_a	19.805407
_cell_length_b	15.297510
_cell_length_c	19.805399
_cell_angle_alpha	80.348499
_cell_angle_beta	89.982197
_cell_angle_gamma	80.294055
loop_
_atom_site_label
_atom_site_type_symbol
_atom_site_fract_x
_atom_site_fract_y
_atom_site_fract_z
Zn1	Zn	0.988081	0.359251	-0.429324
Zn2	Zn	1.321414	0.692584	-0.095991
Zn3	Zn	1.654747	1.025918	0.237343
Zn4	Zn	0.968403	0.510119	-0.335721
Zn5	Zn	1.301736	0.843452	-0.002388
Zn6	Zn	1.635069	1.176786	0.330946
Zn7	Zn	0.874893	0.359269	-0.316155
Zn8	Zn	1.208226	0.692602	0.017179
Zn9	Zn	1.541560	1.025935	0.350512
Zn10	Zn	0.855273	0.510064	-0.448864
Zn11	Zn	1.188606	0.843397	-0.115531
Zn12	Zn	1.521940	1.176731	0.217803
O13	O	0.921662	0.434676	-0.382516
O14	O	1.254996	0.768009	-0.049183
O15	O	1.588329	1.101342	0.284151
O16	O	1.080185	0.379279	-0.416919
O17	O	1.413518	0.712613	-0.083585
O18	O	1.746851	1.045946	0.249748
O19	O	0.955974	0.490139	-0.238413
O20	O	1.289307	0.823472	0.094921
O21	O	1.622641	1.156805	0.428254
O22	O	0.906354	0.233019	-0.314801
O23	O	1.239687	0.566353	0.018533
O24	O	1.573020	0.899686	0.351866
O25	O	1.065727	0.490121	-0.348149
O26	O	1.399061	0.823455	-0.014815
O27	O	1.732394	1.156788	0.318518
O28	O	0.989512	0.233006	-0.397946
O29	O	1.322846	0.566340	-0.064612
O30	O	1.656179	0.899673	0.268721
O31	O	0.887273	0.379310	-0.224037
O32	O	1.220606	0.712643	0.109296
O33	O	1.553940	1.045977	0.442629
O34	O	0.777576	0.379257	-0.333748
O35	O	1.110909	0.712590	-0.000414
O36	O	1.444242	1.045923	0.332919
O37	O	0.872915	0.490028	-0.540985
O38	O	1.206248	0.823361	-0.207651
O39	O	1.539581	1.156694	0.125682
O40	O	0.763161	0.490045	-0.431249
O41	O	1.096494	0.823378	-0.097915
O42	O	1.429828	1.156712	0.235418
O43	O	0.970488	0.379226	-0.526629
O44	O	1.303821	0.712559	-0.193295
O45	O	1.637154	1.045893	0.140038
O46	O	0.936949	0.636359	-0.367096
O47	O	1.270283	0.969692	-0.033762
O48	O	1.603616	1.303025	0.299571
O49	O	0.853834	0.636318	-0.450222
O50	O	1.187167	0.969652	-0.116888
O51	O	1.520500	1.302985	0.216445
C52	C	0.745810	0.434647	-0.382496
C53	C	1.079143	0.767981	-0.049163
C54	C	1.412477	1.101314	0.284171
C55	C	0.670577	0.434657	-0.382506
C56	C	1.003910	0.767990	-0.049173
C57	C	1.337243	1.101324	0.284161
C58	C	0.642748	0.377044	-0.418394
C59	C	0.976081	0.710377	-0.085060
C60	C	1.309415	1.043710	0.248273
C61	C	0.572059	0.377048	-0.418397
C62	C	0.905392	0.710382	-0.085064
C63	C	1.238725	1.043715	0.248270
C64	C	0.529199	0.434672	-0.382516
C65	C	0.862533	0.768005	-0.049183
C66	C	1.195866	1.101338	0.284150
C67	C	0.557033	0.492288	-0.346624
C68	C	0.890366	0.825621	-0.013291
C69	C	1.223699	1.158954	0.320042
C70	C	0.627721	0.492278	-0.346617
C71	C	0.961054	0.825611	-0.013284
C72	C	1.294388	1.158944	0.320049
C73	C	0.271954	0.492328	-0.346650
C74	C	0.605287	0.825662	-0.013317
C75	C	0.938621	1.158995	0.320016
C76	C	0.201261	0.492336	-0.346661
C77	C	0.534594	0.825669	-0.013328
C78	C	0.867928	1.159002	0.320005
C79	C	0.216292	0.377099	-0.418430
C80	C	0.549625	0.710432	-0.085096
C81	C	0.882958	1.043766	0.248237
C82	C	0.286980	0.377089	-0.418423
C83	C	0.620314	0.710422	-0.085090
C84	C	0.953647	1.043756	0.248244
C85	C	0.314808	0.434701	-0.382528
C86	C	0.648141	0.768034	-0.049195
C87	C	0.981475	1.101368	0.284138
C88	C	0.391457	0.434694	-0.382524
C89	C	0.724791	0.768027	-0.049191
C90	C	1.058124	1.101361	0.284143
C91	C	0.452550	0.434684	-0.382524
C92	C	0.785884	0.768017	-0.049191
C93	C	1.119217	1.101351	0.284143
C94	C	0.891146	0.669073	-0.412917
C95	C	1.224479	1.002406	-0.079584
C96	C	1.557812	1.335740	0.253750
C97	C	0.878152	0.769349	-0.425945
C98	C	1.211486	1.102682	-0.092612
C99	C	1.544819	1.436016	0.240721
C100	C	1.014772	1.051969	-0.289670
C101	C	1.348106	1.385303	0.043663
C102	C	1.681439	1.718636	0.376996
C103	C	1.026980	0.957755	-0.277426
C104	C	1.360313	1.291088	0.055907
C105	C	1.693646	1.624422	0.389240
C106	C	0.989774	0.910649	-0.314555
C107	C	1.323108	1.243982	0.018778
C108	C	1.656441	1.577316	0.352112
C109	C	0.940359	0.957766	-0.363930
C110	C	1.273692	1.291100	-0.030597
C111	C	1.607025	1.624433	0.302737
C112	C	0.928146	1.051990	-0.376172
C113	C	1.261479	1.385323	-0.042838
C114	C	1.594813	1.718657	0.290495
C115	C	0.903148	0.910669	-0.401056
C116	C	1.236481	1.244003	-0.067723
C117	C	1.569815	1.577336	0.265610
C118	C	0.853732	0.957787	-0.450431
C119	C	1.187066	1.291120	-0.117098
C120	C	1.520399	1.624454	0.216236
C121	C	0.841523	1.052001	-0.462671
C122	C	1.174856	1.385335	-0.129338
C123	C	1.508189	1.718668	0.203996
C124	C	0.878728	1.099108	-0.425542
C125	C	1.212061	1.432441	-0.092209
C126	C	1.545395	1.765774	0.241125
C127	C	0.915360	0.816446	-0.388815
C128	C	1.248694	1.149779	-0.055481
C129	C	1.582027	1.483113	0.277852
C130	C	0.828734	0.816466	-0.475316
C131	C	1.162068	1.149800	-0.141982
C132	C	1.495401	1.483133	0.191351
C133	C	0.816527	0.910681	-0.487560
C134	C	1.149860	1.244014	-0.154227
C135	C	1.483193	1.577347	0.179107
C136	C	1.098201	0.434705	-0.382537
C137	C	1.431535	0.768038	-0.049203
C138	C	1.764868	1.101371	0.284130
C139	C	1.173432	0.434717	-0.382545
C140	C	1.506765	0.768050	-0.049212
C141	C	1.840098	1.101384	0.284121
C142	C	0.921708	0.434619	-0.559051
C143	C	1.255041	0.767952	-0.225718
C144	C	1.588374	1.101285	0.107615
C145	C	0.921727	0.434595	-0.634280
C146	C	1.255060	0.767928	-0.300947
C147	C	1.588394	1.101261	0.032386
C148	C	0.952310	1.199363	-0.352018
C149	C	1.285644	1.532696	-0.018685
C150	C	1.618977	1.866030	0.314648
C151	C	0.965354	1.099087	-0.339041
C152	C	1.298688	1.432420	-0.005708
C153	C	1.632021	1.765754	0.327626
C154	C	0.972535	0.376897	-0.662150
C155	C	1.305868	0.710231	-0.328817
C156	C	1.639201	1.043564	0.004517
C157	C	0.972545	0.376871	-0.732835
C158	C	1.305878	0.710204	-0.399502
C159	C	1.639212	1.043538	-0.066168
C160	C	0.921750	0.434547	-0.775650
C161	C	1.255083	0.767881	-0.442316
C162	C	1.588417	1.101214	-0.108983
C163	C	0.870937	0.492247	-0.747775
C164	C	1.204270	0.825581	-0.414442
C165	C	1.537604	1.158914	-0.081109
C166	C	0.870925	0.492268	-0.677091
C167	C	1.204258	0.825602	-0.343758
C168	C	1.537591	1.158935	-0.010424
C169	C	0.870986	0.492163	-1.032838
C170	C	1.204320	0.825497	-0.699505
C171	C	1.537653	1.158830	-0.366171
C172	C	0.871004	0.492140	-1.103527
C173	C	1.204337	0.825473	-0.770194
C174	C	1.537671	1.158806	-0.436860
C175	C	0.972607	0.376766	-1.088582
C176	C	1.305940	0.710099	-0.755249
C177	C	1.639273	1.043433	-0.421915
C178	C	0.972594	0.376787	-1.017898
C179	C	1.305927	0.710120	-0.684564
C180	C	1.639261	1.043454	-0.351231
C181	C	0.921780	0.434483	-0.990029
C182	C	1.255113	0.767816	-0.656696
C183	C	1.588446	1.101150	-0.323362
C184	C	0.921768	0.434510	-0.913384
C185	C	1.255102	0.767843	-0.580051
C186	C	1.588435	1.101176	-0.246717
C187	C	0.921763	0.434526	-0.852294
C188	C	1.255097	0.767860	-0.518961
C189	C	1.588430	1.101193	-0.185628
C190	C	0.921665	0.434667	-0.206659
C191	C	1.254998	0.768000	0.126674
C192	C	1.588331	1.101334	0.460008
C193	C	0.921809	0.434437	-0.131397
C194	C	1.255143	0.767771	0.201936
C195	C	1.588476	1.101104	0.535269
H196	H	0.522131	0.539201	-0.317406
H197	H	0.855465	0.872534	0.015928
H198	H	1.188798	1.205868	0.349261
H199	H	0.650378	0.539192	-0.317393
H200	H	0.983711	0.872525	0.015940
H201	H	1.317044	1.205858	0.349273
H202	H	0.294602	0.539240	-0.317423
H203	H	0.627936	0.872574	0.015910
H204	H	0.961269	1.205907	0.349243
H205	H	0.829618	0.539156	-1.010158
H206	H	1.162951	0.872489	-0.676825
H207	H	1.496285	1.205823	-0.343491
Cl208	Cl	0.807142	0.564652	-1.157351
Cl209	Cl	1.140475	0.897985	-0.824018
Cl210	Cl	1.473808	1.231319	-0.490684
Cl211	Cl	0.977481	0.757224	-0.326746
Cl212	Cl	1.310814	1.090557	0.006588
Cl213	Cl	1.644148	1.423891	0.339921
H214	H	0.999716	0.833935	-0.304582
H215	H	1.333049	1.167269	0.028751
H216	H	1.666383	1.500602	0.362085
Cl217	Cl	1.036487	0.304229	-1.123621
Cl218	Cl	1.369820	0.637562	-0.790287
Cl219	Cl	1.703154	0.970896	-0.456954
Cl220	Cl	1.036398	0.304390	-0.608333
Cl221	Cl	1.369731	0.637723	-0.274999
Cl222	Cl	1.703065	0.971057	0.058334
H223	H	1.067213	0.919395	-0.237225
H224	H	1.400546	1.252729	0.096108
H225	H	1.733879	1.586062	0.429442
Cl226	Cl	0.807078	0.564752	-0.801599
Cl227	Cl	1.140411	0.898085	-0.468266
Cl228	Cl	1.473745	1.231419	-0.134933
H229	H	0.868793	1.175825	-0.435510
H230	H	1.202126	1.509158	-0.102177
H231	H	1.535460	1.842491	0.231156
Cl232	Cl	0.807048	0.564802	-0.642054
Cl233	Cl	1.140381	0.898136	-0.308721
Cl234	Cl	1.473714	1.231469	0.024612
Cl235	Cl	1.061537	1.111192	-0.242999
Cl236	Cl	1.394870	1.444526	0.090334
Cl237	Cl	1.728204	1.777859	0.423668
H238	H	0.801277	1.090362	-0.502867
H239	H	1.134610	1.423695	-0.169534
H240	H	1.467944	1.757029	0.163799
Cl241	Cl	1.036455	0.304280	-0.964077
Cl242	Cl	1.369788	0.637613	-0.630744
Cl243	Cl	1.703122	0.970946	-0.297411
H244	H	0.677640	0.330122	-0.447614
H245	H	1.010973	0.663456	-0.114281
H246	H	1.344306	0.996789	0.219053
Cl247	Cl	0.754406	0.969925	-0.549629
Cl248	Cl	1.087739	1.303258	-0.216296
Cl249	Cl	1.421073	1.636592	0.117038
Cl250	Cl	0.781954	0.757254	-0.521990
Cl251	Cl	1.115288	1.090588	-0.188657
Cl252	Cl	1.448621	1.423921	0.144676
H253	H	0.549404	0.330136	-0.447622
H254	H	0.882738	0.663469	-0.114288
H255	H	1.216071	0.996802	0.219045
Cl256	Cl	0.181305	0.304668	-0.463553
Cl257	Cl	0.514638	0.638001	-0.130220
Cl258	Cl	0.847971	0.971335	0.203114
Cl259	Cl	0.147381	0.564780	-0.301549
Cl260	Cl	0.480714	0.898113	0.031785
Cl261	Cl	0.814047	1.231446	0.365118
H262	H	0.321873	0.330169	-0.447643
H263	H	0.655207	0.663502	-0.114310
H264	H	0.988540	0.996836	0.219023
H265	H	1.013919	0.329890	-0.755523
H266	H	1.347252	0.663224	-0.422190
H267	H	1.680586	0.996557	-0.088856
