data_functionalizedCrystal
_audit_creation_method	'MofGen! by Chris Wilmer'
_symmetry_space_group_name_H-M	'P1'
_symmetry_Int_Tables_number	1
_symmetry_cell_setting	triclinic
loop_
_symmetry_equiv_pos_as_xyz
  x,y,z
_cell_length_a	19.188925
_cell_length_b	17.666332
_cell_length_c	10.540539
_cell_angle_alpha	89.995712
_cell_angle_beta	96.165980
_cell_angle_gamma	90.010303
loop_
_atom_site_label
_atom_site_type_symbol
_atom_site_fract_x
_atom_site_fract_y
_atom_site_fract_z
O1	O	0.927208	0.062961	-0.158439
O2	O	0.724039	0.062959	-0.179779
O3	O	0.830259	0.062959	0.015700
O4	O	0.820988	0.062961	-0.353917
O5	O	0.830240	-0.062938	0.015710
O6	O	0.724020	-0.062938	-0.179768
O7	O	0.927189	-0.062936	-0.158428
Cu8	Cu	0.825603	-0.074432	-0.169097
Cu9	Cu	0.825625	0.074455	-0.169110
O10	O	0.820969	-0.062936	-0.353907
C11	C	0.698013	0.000010	-0.179084
C12	C	0.620495	0.000009	-0.177013
C13	C	0.059397	0.000011	-0.277845
C14	C	0.132233	0.000016	-0.279802
C15	C	0.176403	0.000014	-0.165102
C16	C	0.147731	0.000027	-0.048435
C17	C	0.074896	0.000031	-0.046482
N18	N	0.296520	-0.042843	-0.082060
N19	N	0.365710	-0.042848	-0.083923
C20	C	0.395851	0.000005	-0.170981
N21	N	0.354188	0.042853	-0.256124
N22	N	0.284992	0.042854	-0.254264
C23	C	0.255381	0.000010	-0.167207
C24	C	0.503492	0.000001	-0.289762
C25	C	0.576330	0.000010	-0.291714
C26	C	0.591827	0.000014	-0.060344
C27	C	0.518990	0.000013	-0.058395
C28	C	0.474827	0.000003	-0.173108
N29	N	0.825592	-0.179152	-0.169088
C30	C	0.872642	-0.218761	-0.082572
C31	C	0.872646	-0.298009	-0.082566
C32	C	0.825607	-0.337644	-0.169098
C33	C	0.778548	-0.298025	-0.255620
C34	C	0.778541	-0.218779	-0.255615
N35	N	0.817280	-0.462062	-0.281463
N36	N	0.817291	-0.537342	-0.281463
C37	C	0.825625	-0.576408	-0.169115
N38	N	0.833962	-0.537349	-0.056763
N39	N	0.833954	-0.462061	-0.056764
C40	C	0.825610	-0.423573	-0.169112
C41	C	0.872682	-0.701947	-0.082586
C42	C	0.872681	-0.781196	-0.082578
C43	C	0.778587	-0.781210	-0.255643
C44	C	0.778585	-0.701963	-0.255640
C45	C	0.825636	-0.662336	-0.169112
C46	C	0.953214	0.000015	-0.159123
C47	C	1.030733	0.000021	-0.161194
C48	C	0.829554	0.000012	0.062993
C49	C	0.827474	0.000016	0.203895
N50	N	0.825641	0.179175	-0.169109
C51	C	0.821674	0.000013	-0.401200
C52	C	0.823754	0.000014	-0.542102
C53	C	0.747773	0.000298	0.385563
C54	C	0.749881	0.000014	0.238991
C55	C	0.864804	-0.071877	0.266383
C56	C	0.862156	-0.071937	0.412869
C57	C	0.863756	0.071231	0.413410
C58	C	0.864471	0.072181	0.266444
H59	H	0.023443	0.000007	-0.371254
O60	O	0.460615	0.000136	-0.401220
C61	C	0.425120	0.065340	-0.598405
C62	C	0.473705	0.065288	-0.472216
H63	H	0.435696	0.118002	-0.655853
H64	H	0.368126	0.065387	-0.577044
H65	H	0.435605	0.012629	-0.655780
H66	H	0.463282	0.117990	-0.414778
H67	H	0.530683	0.065201	-0.493666
O68	O	0.732826	-0.336607	-0.339504
C69	C	0.637597	-0.426074	-0.366955
C70	C	0.689353	-0.382442	-0.271820
H71	H	0.602426	-0.463131	-0.312270
H72	H	0.668019	-0.463211	-0.430218
H73	H	0.603997	-0.384135	-0.428819
H74	H	0.722965	-0.424327	-0.209872
H75	H	0.658888	-0.345294	-0.208646
H76	H	0.627789	0.000018	0.033047
O77	O	0.491258	-0.000022	0.055032
C78	C	0.514317	0.000025	0.284310
C79	C	0.545816	0.000043	0.155937
H80	H	0.558412	0.000094	0.365925
H81	H	0.480620	-0.052674	0.291101
H82	H	0.480590	0.052701	0.290932
H83	H	0.579574	-0.052597	0.149228
H84	H	0.579472	0.052777	0.149201
O85	O	0.833912	0.136312	0.450329
C86	C	0.837016	0.272671	0.450796
C87	C	0.870902	0.199031	0.408934
H88	H	0.866899	0.323398	0.417322
H89	H	0.838872	0.273842	0.559246
H90	H	0.780152	0.275284	0.406730
H91	H	0.927778	0.196370	0.452910
H92	H	0.868990	0.197890	0.300476
O93	O	0.918310	-0.663456	0.001609
C94	C	0.958176	-0.639162	0.222473
C95	C	0.906453	-0.682800	0.127287
H96	H	0.948618	-0.654797	0.324103
H97	H	0.950072	-0.575716	0.207664
H98	H	1.014172	-0.654708	0.206105
H99	H	0.850437	-0.667317	0.143596
H100	H	0.914618	-0.746235	0.142118
O101	O	0.732795	-0.819667	-0.339576
C102	C	0.611772	-0.843906	-0.414556
C103	C	0.663557	-0.800316	-0.319413
H104	H	0.555782	-0.828265	-0.398306
H105	H	0.619795	-0.907359	-0.399701
H106	H	0.621408	-0.828324	-0.516170
H107	H	0.653952	-0.815835	-0.217761
H108	H	0.655522	-0.736873	-0.334379
H109	H	0.910952	-0.186499	-0.012114
O110	O	0.732956	-0.663517	-0.339870
C111	C	0.693113	-0.639308	-0.560772
C112	C	0.744843	-0.682878	-0.465518
H113	H	0.702696	-0.654957	-0.662379
H114	H	0.701186	-0.575851	-0.546021
H115	H	0.637121	-0.654899	-0.544420
H116	H	0.800856	-0.667351	-0.481812
H117	H	0.736709	-0.746324	-0.480292
O118	O	0.714782	0.061510	0.187577
C119	C	0.649075	0.173737	0.226976
C120	C	0.688797	0.104116	0.285358
H121	H	0.628068	0.208211	0.306006
H122	H	0.603532	0.154362	0.156026
H123	H	0.686266	0.210210	0.175668
H124	H	0.651662	0.067613	0.336731
H125	H	0.734348	0.123544	0.356240
H126	H	0.717238	-0.050970	0.415101
O127	O	0.918320	-0.336417	0.001653
C128	C	0.958109	-0.360719	0.222546
C129	C	0.906359	-0.317163	0.127310
H130	H	0.948447	-0.345181	0.324161
H131	H	1.014123	-0.345111	0.206366
H132	H	0.950037	-0.424161	0.207606
H133	H	0.914367	-0.253712	0.142193
H134	H	0.850363	-0.332834	0.143514
H135	H	0.717129	0.051853	0.413482
H136	H	0.837156	0.125366	0.224978
O137	O	0.930659	0.071778	0.471025
C138	C	1.053619	0.070134	0.442865
C139	C	0.977892	0.069502	0.377446
H140	H	1.091828	0.068311	0.367236
H141	H	1.062348	0.018653	0.507847
H142	H	1.062742	0.123967	0.501955
H143	H	0.968716	0.015704	0.318290
H144	H	0.969199	0.121020	0.312539
H145	H	0.720285	-0.051608	0.196586
O146	O	0.829176	-0.136067	0.445573
C147	C	0.772051	-0.251966	0.372400
C148	C	0.809376	-0.179361	0.335192
H149	H	0.756044	-0.286996	0.283183
H150	H	0.723387	-0.236249	0.419852
H151	H	0.809137	-0.286429	0.441738
H152	H	0.772345	-0.144864	0.265818
H153	H	0.858048	-0.195130	0.287810
H154	H	0.910993	-0.813446	-0.012119
O155	O	0.928690	-0.075942	0.471713
C156	C	1.011476	-0.146252	0.614075
C157	C	0.936103	-0.141792	0.547550
H158	H	1.017498	-0.199496	0.675383
H159	H	1.022758	-0.094266	0.677021
H160	H	1.049991	-0.148317	0.538985
H161	H	0.897540	-0.139751	0.622551
H162	H	0.924880	-0.193777	0.484578
H163	H	0.838857	-0.125378	0.223215
H164	H	0.740226	-0.186528	-0.326068
H165	H	0.599666	0.000009	-0.386709
H166	H	0.051559	0.000038	0.048512
H167	H	0.155576	0.000001	-0.374797
H168	H	0.921786	-0.074549	0.245287
H169	H	0.183699	0.000028	0.044954
O170	O	0.931916	0.077471	0.238828
C171	C	1.017353	0.151520	0.141711
C172	C	0.940951	0.145625	0.172919
H173	H	1.024686	0.206626	0.088443
H174	H	1.029826	0.101558	0.079538
H175	H	1.054125	0.150761	0.234144
H176	H	0.904129	0.146406	0.080554
H177	H	0.928537	0.195585	0.235145
