data_functionalizedCrystal
_audit_creation_method	'MofGen! by Chris Wilmer'
_symmetry_space_group_name_H-M	'P1'
_symmetry_Int_Tables_number	1
_symmetry_cell_setting	triclinic
loop_
_symmetry_equiv_pos_as_xyz
  x,y,z
_cell_length_a	15.995300
_cell_length_b	15.995350
_cell_length_c	17.766277
_cell_angle_alpha	89.995869
_cell_angle_beta	89.989053
_cell_angle_gamma	83.482091
loop_
_atom_site_label
_atom_site_type_symbol
_atom_site_fract_x
_atom_site_fract_y
_atom_site_fract_z
O1	O	1.111018	0.107727	-0.062618
O2	O	0.867237	0.121099	-0.062613
O3	O	0.995791	-0.007476	-0.062615
O4	O	0.982463	0.236302	-0.062616
O5	O	0.995768	-0.007482	0.062574
O6	O	0.867214	0.121092	0.062575
O7	O	1.110995	0.107721	0.062570
Cu8	Cu	0.989102	0.114406	0.074004
Cu9	Cu	0.989129	0.114414	-0.074046
O10	O	0.982441	0.236295	0.062572
C11	C	0.836030	0.120550	-0.000018
C12	C	0.743077	0.118915	-0.000016
C13	C	0.572894	0.115896	-0.000022
C14	C	0.525428	0.207443	-0.000021
C15	C	0.428740	0.205773	-0.000307
C16	C	0.405337	0.112924	-0.000027
C17	C	0.446483	0.067507	-0.071375
C18	C	0.543116	0.069824	-0.071432
C19	C	0.543370	0.068461	0.070935
C20	C	0.446425	0.068469	0.071871
C21	C	0.310642	0.111239	-0.000032
C22	C	0.667590	0.117577	-0.000022
C23	C	0.995229	-0.038674	-0.000022
C24	C	0.993577	-0.131624	-0.000026
C25	C	0.987644	-0.469370	-0.000024
C26	C	0.896090	-0.421920	-0.000303
C27	C	0.897743	-0.325230	-0.000020
C28	C	0.990587	-0.301810	-0.000025
C29	C	1.035732	-0.342900	0.071461
C30	C	1.033432	-0.439535	0.071521
C31	C	1.035349	-0.439886	-0.070842
C32	C	1.035327	-0.342941	-0.071787
C33	C	0.992255	-0.207113	-0.000024
C34	C	0.985979	-0.564068	-0.000020
C35	C	1.142202	0.108269	-0.000026
C36	C	1.235154	0.109904	-0.000033
C37	C	0.983003	0.267493	-0.000022
C38	C	0.984655	0.360443	-0.000023
N39	N	0.989090	0.114400	0.178134
N40	N	0.989148	0.114413	-0.178177
C41	C	1.046032	0.057495	0.217520
C42	C	1.046037	0.057491	0.296322
C43	C	0.989107	0.114406	0.335735
C44	C	0.932154	0.171316	0.296339
C45	C	0.932145	0.171312	0.217539
C46	C	0.978136	0.190665	0.460572
C47	C	0.978151	0.190669	0.539371
C48	C	0.989130	0.114417	0.578781
C49	C	1.000112	0.038156	0.539382
C50	C	1.000103	0.038153	0.460582
C51	C	0.989110	0.114416	0.421180
C52	C	1.046080	0.057503	0.703613
C53	C	1.046079	0.057498	0.782416
C54	C	0.932201	0.171330	0.782432
C55	C	0.932198	0.171328	0.703630
C56	C	0.989142	0.114415	0.664225
H57	H	0.575151	0.000964	0.071622
H58	H	0.859650	-0.441510	0.050678
H59	H	0.432384	-0.000716	-0.073827
H60	H	1.004358	-0.314515	0.124662
H61	H	0.859506	-0.440442	-0.051567
H62	H	1.100649	-0.471795	0.074761
Br63	Br	0.838160	-0.278772	0.085536
Br64	Br	1.148177	-0.317352	-0.078995
H65	H	1.000493	-0.457833	0.124962
Br66	Br	1.149421	-0.319382	0.075891
H67	H	0.418107	0.098649	-0.124672
Br68	Br	0.854860	0.248545	0.164081
H69	H	1.005425	-0.460417	-0.125024
H70	H	1.102851	-0.471659	-0.071326
Br71	Br	1.123358	-0.019737	0.650133
H72	H	0.885833	0.217668	0.671560
H73	H	1.002321	-0.315683	-0.124670
H74	H	1.092397	0.011151	0.185439
Br75	Br	0.577522	0.118690	0.161098
H76	H	0.885800	0.217656	0.328433
H77	H	0.969214	0.252765	0.571444
Br78	Br	1.123321	-0.019745	0.349784
H79	H	1.009042	-0.023941	0.428507
Br80	Br	0.558121	0.267860	-0.085169
Br81	Br	1.015022	-0.065337	0.592856
H82	H	0.862255	-0.296799	-0.051265
H83	H	0.543910	0.244231	0.051135
H84	H	1.092446	0.011155	0.814485
H85	H	0.400268	0.241460	0.050826
H86	H	0.885845	0.217668	0.814521
Br87	Br	0.963320	0.294163	0.407096
H88	H	0.431086	0.000775	0.076390
Br89	Br	0.382333	0.265005	-0.086050
H90	H	0.419076	0.101635	0.124655
H91	H	0.561445	0.102561	-0.124968
H92	H	0.575390	0.002600	-0.074481
