data_functionalizedCrystal
_audit_creation_method	'MofGen! by Chris Wilmer'
_symmetry_space_group_name_H-M	'P1'
_symmetry_Int_Tables_number	1
_symmetry_cell_setting	triclinic
loop_
_symmetry_equiv_pos_as_xyz
  x,y,z
_cell_length_a	19.121102
_cell_length_b	21.295411
_cell_length_c	19.121063
_cell_angle_alpha	92.420548
_cell_angle_beta	90.126902
_cell_angle_gamma	87.537204
loop_
_atom_site_label
_atom_site_type_symbol
_atom_site_fract_x
_atom_site_fract_y
_atom_site_fract_z
Zn1	Zn	1.059887	-0.408812	-0.324993
Zn2	Zn	1.559887	0.091188	0.175007
Zn3	Zn	1.054784	-0.307825	-0.442209
Zn4	Zn	1.554784	0.192175	0.057791
Zn5	Zn	0.942639	-0.298888	-0.319983
Zn6	Zn	1.442639	0.201112	0.180017
Zn7	Zn	0.937611	-0.408390	-0.437183
Zn8	Zn	1.437611	0.091610	0.062817
O9	O	0.998730	-0.355979	-0.381092
O10	O	1.498730	0.144021	0.118908
O11	O	1.157315	-0.399332	-0.344742
O12	O	1.657315	0.100668	0.155258
O13	O	1.039876	-0.218549	-0.426002
O14	O	1.539876	0.281451	0.073998
O15	O	0.962432	-0.309906	-0.222543
O16	O	1.462432	0.190094	0.277457
O17	O	1.153566	-0.325138	-0.430860
O18	O	1.653566	0.174862	0.069140
O19	O	1.048573	-0.390666	-0.226224
O20	O	1.548573	0.109334	0.273776
O21	O	0.957484	-0.211983	-0.336203
O22	O	1.457484	0.288017	0.163797
O23	O	0.843867	-0.309497	-0.331329
O24	O	1.343867	0.190503	0.168671
O25	O	0.953863	-0.496537	-0.422294
O26	O	1.453863	0.003463	0.077706
O27	O	0.840173	-0.389948	-0.417436
O28	O	1.340173	0.110052	0.082564
O29	O	1.043698	-0.496846	-0.339868
O30	O	1.543698	0.003154	0.160132
O31	O	1.035001	-0.324729	-0.539647
O32	O	1.535001	0.175271	-0.039647
O33	O	0.948915	-0.398614	-0.535954
O34	O	1.448915	0.101386	-0.035954
C35	C	0.816582	-0.348708	-0.373294
C36	C	1.316582	0.151292	0.126706
C37	C	0.738658	-0.345613	-0.369975
C38	C	1.238658	0.154387	0.130025
C39	C	0.700141	-0.385984	-0.413314
C40	C	1.200141	0.114016	0.086686
C41	C	0.626923	-0.383079	-0.410186
C42	C	1.126923	0.116921	0.089814
C43	C	0.592223	-0.339798	-0.363722
C44	C	1.092223	0.160202	0.136278
C45	C	0.630745	-0.299425	-0.320378
C46	C	1.130745	0.200575	0.179622
C47	C	0.703962	-0.302334	-0.323503
C48	C	1.203962	0.197666	0.176497
C49	C	0.371252	-0.328925	-0.352038
C50	C	0.871252	0.171075	0.147962
C51	C	0.298030	-0.326018	-0.348918
C52	C	0.798030	0.173982	0.151082
C53	C	0.294213	-0.409673	-0.438725
C54	C	0.794213	0.090327	0.061275
C55	C	0.367431	-0.412576	-0.441849
C56	C	0.867431	0.087424	0.058151
C57	C	0.405947	-0.372205	-0.398502
C58	C	0.905947	0.127795	0.101498
C59	C	0.517383	-0.336826	-0.360525
C60	C	1.017383	0.163174	0.139475
C61	C	0.480786	-0.375180	-0.401696
C62	C	0.980786	0.124820	0.098304
C63	C	0.998789	-0.520171	-0.381080
C64	C	1.498789	-0.020171	0.118920
C65	C	0.998814	-0.590140	-0.381074
C66	C	1.498814	-0.090140	0.118926
C67	C	1.045589	-0.623169	-0.338153
C68	C	1.545589	-0.123169	0.161847
C69	C	1.045590	-0.688910	-0.338123
C70	C	1.545590	-0.188910	0.161877
C71	C	0.998822	-0.721621	-0.381026
C72	C	1.498822	-0.221621	0.118974
C73	C	0.952037	-0.688584	-0.423950
C74	C	1.452037	-0.188584	0.076050
C75	C	0.952034	-0.622843	-0.423974
C76	C	1.452034	-0.122843	0.076026
N77	N	0.990800	-0.826867	-0.442125
N78	N	1.490800	-0.326867	0.057875
N79	N	0.990807	-0.889317	-0.442100
N80	N	1.490807	-0.389317	0.057900
C81	C	0.998829	-0.919693	-0.380955
C82	C	1.498829	-0.419693	0.119045
N83	N	1.006856	-0.885260	-0.319835
N84	N	1.506856	-0.385260	0.180165
N85	N	1.006852	-0.822803	-0.319861
N86	N	1.506852	-0.322803	0.180139
C87	C	0.998820	-0.792905	-0.381005
C88	C	1.498820	-0.292905	0.118995
C89	C	1.045607	-1.024006	-0.337998
C90	C	1.545607	-0.524006	0.162002
C91	C	1.045603	-1.089749	-0.337966
C92	C	1.545603	-0.589749	0.162034
C93	C	0.952054	-1.089422	-0.423800
C94	C	1.452054	-0.589422	0.076200
C95	C	0.952055	-1.023680	-0.423825
C96	C	1.452055	-0.523680	0.076175
C97	C	0.998835	-0.990977	-0.380925
C98	C	1.498835	-0.490977	0.119075
C99	C	1.181589	-0.363279	-0.388921
C100	C	1.681589	0.136721	0.111079
C101	C	1.259513	-0.366390	-0.392257
C102	C	1.759513	0.133610	0.107743
C103	C	0.990878	-0.362610	-0.563238
C104	C	1.490878	0.137390	-0.063238
C105	C	0.987582	-0.365471	-0.641164
C106	C	1.487582	0.134529	-0.141164
C107	C	0.998714	-0.192425	-0.381055
C108	C	1.498714	0.307575	0.118945
C109	C	0.998833	-0.122455	-0.380869
C110	C	1.498833	0.377545	0.119131
C111	C	1.030889	-0.328381	-0.679675
C112	C	1.530889	0.171619	-0.179675
C113	C	1.027794	-0.331075	-0.752894
C114	C	1.527794	0.168925	-0.252894
C115	C	0.981388	-0.370856	-0.787602
C116	C	1.481388	0.129144	-0.287602
C117	C	0.938079	-0.407950	-0.749086
C118	C	1.438079	0.092050	-0.249086
C119	C	0.941179	-0.405258	-0.675868
C120	C	1.441179	0.094742	-0.175868
C121	C	0.969790	-0.380908	-1.008578
C122	C	1.469790	0.119092	-0.508578
C123	C	0.966693	-0.383595	-1.081802
C124	C	1.466693	0.116405	-0.581802
C125	C	1.056409	-0.306721	-1.085605
C126	C	1.556409	0.193279	-0.585605
C127	C	1.059501	-0.304031	-1.012385
C128	C	1.559501	0.195969	-0.512385
C129	C	1.016195	-0.341127	-0.973876
C130	C	1.516195	0.158873	-0.473876
C131	C	0.978222	-0.373609	-0.862444
C132	C	1.478222	0.126391	-0.362444
C133	C	1.019365	-0.338376	-0.899035
C134	C	1.519365	0.161624	-0.399035
C135	C	1.006633	-0.349336	-0.198235
C136	C	1.506633	0.150664	0.301765
C137	C	1.010000	-0.346505	-0.120312
C138	C	1.510000	0.153495	0.379688
H139	H	0.489122	-0.301585	-0.322695
H140	H	0.989122	0.198415	0.177305
Cl141	Cl	1.117853	-0.254028	-0.968758
Cl142	Cl	1.617853	0.245972	-0.468758
H143	H	1.057152	-0.305989	-0.870774
H144	H	1.557152	0.194011	-0.370774
H145	H	0.913970	-0.996788	-0.458780
H146	H	1.413970	-0.496788	0.041220
H147	H	1.068675	-0.295985	-0.651421
H148	H	1.568675	0.204015	-0.151421
H149	H	1.063059	-0.300873	-0.784246
H150	H	1.563059	0.199127	-0.284246
H151	H	0.509042	-0.410422	-0.439524
H152	H	1.009042	0.089578	0.060476
H153	H	0.913968	-1.116054	-0.458725
H154	H	1.413968	-0.616054	0.041275
Cl155	Cl	1.104384	-0.730439	-0.284146
Cl156	Cl	1.604384	-0.230439	0.215854
Cl157	Cl	1.110852	-0.260094	-1.134020
Cl158	Cl	1.610852	0.239906	-0.634020
H159	H	0.602487	-0.264187	-0.282543
H160	H	1.102487	0.235813	0.217457
Cl161	Cl	0.893241	-0.729705	-0.477883
Cl162	Cl	1.393241	-0.229705	0.022117
Cl163	Cl	0.908341	-0.433600	-1.125433
Cl164	Cl	1.408341	0.066400	-0.625433
H165	H	0.728388	-0.421226	-0.451153
H166	H	1.228388	0.078774	0.048847
Cl167	Cl	0.919884	-0.423617	-0.906083
Cl168	Cl	1.419884	0.076383	-0.406083
H169	H	0.735322	-0.269462	-0.288207
H170	H	1.235322	0.230538	0.211793
H171	H	0.402602	-0.296048	-0.316747
H172	H	0.902602	0.203952	0.183253
H173	H	0.595566	-0.415953	-0.445479
H174	H	1.095566	0.084047	0.054521
H175	H	0.913941	-0.595952	-0.458925
H176	H	1.413941	-0.095952	0.041075
H177	H	0.900298	-0.440343	-0.777351
H178	H	1.400298	0.059657	-0.277351
Cl179	Cl	0.411048	-0.466986	-0.500266
Cl180	Cl	0.911048	0.033014	-0.000266
Cl181	Cl	0.245789	-0.460421	-0.493216
Cl182	Cl	0.745789	0.039579	0.006784
Cl183	Cl	0.254408	-0.271599	-0.290506
Cl184	Cl	0.754408	0.228401	0.209494
H185	H	1.083681	-0.596545	-0.303220
H186	H	1.583681	-0.096545	0.196780
Cl187	Cl	1.104412	-0.982890	-0.284064
Cl188	Cl	1.604412	-0.482890	0.215936
Cl189	Cl	1.104422	-1.131272	-0.284014
Cl190	Cl	1.604422	-0.631272	0.215986
H191	H	0.905914	-0.435461	-0.644513
H192	H	1.405914	0.064539	-0.144513
H193	H	0.934527	-0.411111	-0.977230
H194	H	1.434527	0.088889	-0.477230
