data_functionalizedCrystal
_audit_creation_method	'MofGen! by Chris Wilmer'
_symmetry_space_group_name_H-M	'P1'
_symmetry_Int_Tables_number	1
_symmetry_cell_setting	triclinic
loop_
_symmetry_equiv_pos_as_xyz
  x,y,z
_cell_length_a	16.109302
_cell_length_b	15.944493
_cell_length_c	14.586319
_cell_angle_alpha	90.002083
_cell_angle_beta	89.994552
_cell_angle_gamma	83.468412
loop_
_atom_site_label
_atom_site_type_symbol
_atom_site_fract_x
_atom_site_fract_y
_atom_site_fract_z
O1	O	1.103143	0.107972	-0.076269
O2	O	1.436476	0.441306	0.257064
O3	O	1.769810	0.774639	0.590397
O4	O	0.861083	0.121408	-0.076261
O5	O	1.194416	0.454741	0.257073
O6	O	1.527750	0.788075	0.590406
O7	O	0.988748	-0.007590	-0.076273
O8	O	1.322082	0.325743	0.257060
O9	O	1.655415	0.659076	0.590394
O10	O	0.975478	0.236970	-0.076257
O11	O	1.308811	0.570304	0.257076
O12	O	1.642144	0.903637	0.590409
O13	O	0.988739	-0.007592	0.076208
O14	O	1.322073	0.325741	0.409541
O15	O	1.655406	0.659075	0.742875
O16	O	0.861074	0.121406	0.076220
O17	O	1.194407	0.454740	0.409553
O18	O	1.527741	0.788073	0.742887
O19	O	1.103134	0.107970	0.076211
O20	O	1.436468	0.441304	0.409545
O21	O	1.769801	0.774637	0.742878
Cu22	Cu	0.982103	0.114688	0.090138
Cu23	Cu	1.315437	0.448021	0.423472
Cu24	Cu	1.648770	0.781355	0.756805
Cu25	Cu	0.982114	0.114690	-0.090188
Cu26	Cu	1.315447	0.448024	0.243146
Cu27	Cu	1.648780	0.781357	0.576479
O28	O	0.975469	0.236969	0.076224
O29	O	1.308802	0.570302	0.409557
O30	O	1.642136	0.903635	0.742890
C31	C	0.830103	0.120863	-0.000019
C32	C	1.163437	0.454196	0.333314
C33	C	1.496770	0.787530	0.666647
C34	C	0.737808	0.119231	-0.000017
C35	C	1.071141	0.452564	0.333317
C36	C	1.404475	0.785897	0.666650
C37	C	0.525462	0.115456	0.083091
C38	C	0.858795	0.448789	0.416425
C39	C	1.192128	0.782123	0.749758
C40	C	0.438742	0.113914	0.083088
C41	C	0.772075	0.447247	0.416421
C42	C	1.105408	0.780580	0.749755
C43	C	0.438762	0.113920	-0.083155
C44	C	0.772095	0.447253	0.250178
C45	C	1.105428	0.780587	0.583512
C46	C	0.525481	0.115456	-0.083151
C47	C	0.858814	0.448790	0.250183
C48	C	1.192148	0.782123	0.583516
C49	C	0.568828	0.116229	-0.000025
C50	C	0.902162	0.449562	0.333308
C51	C	1.235495	0.782895	0.666642
C52	C	0.395389	0.113150	-0.000032
C53	C	0.728722	0.446483	0.333301
C54	C	1.062055	0.779816	0.666634
C55	C	0.301363	0.111477	-0.000037
C56	C	0.634696	0.444811	0.333297
C57	C	0.968029	0.778144	0.666630
C58	C	0.662861	0.117900	-0.000020
C59	C	0.996194	0.451233	0.333313
C60	C	1.329527	0.784566	0.666646
C61	C	0.988201	-0.038886	-0.000036
C62	C	1.321535	0.294448	0.333297
C63	C	1.654868	0.627781	0.666630
C64	C	0.986575	-0.132134	-0.000048
C65	C	1.319909	0.201200	0.333285
C66	C	1.653242	0.534533	0.666619
C67	C	1.061722	-0.367918	-0.000033
C68	C	1.395055	-0.034585	0.333300
C69	C	1.728389	0.298748	0.666633
C70	C	1.021203	-0.418472	-0.075212
C71	C	1.354536	-0.085139	0.258121
C72	C	1.687869	0.248195	0.591454
C73	C	0.983562	-0.302854	-0.000037
C74	C	1.316896	0.030479	0.333297
C75	C	1.650229	0.363813	0.666630
C76	C	1.021176	-0.418450	0.075122
C77	C	1.354509	-0.085117	0.408455
C78	C	1.687842	0.248217	0.741788
C79	C	0.980658	-0.467763	-0.000022
C80	C	1.313991	-0.134429	0.333312
C81	C	1.647324	0.198904	0.666645
C82	C	0.943064	-0.352179	-0.075278
C83	C	1.276397	-0.018846	0.258056
C84	C	1.609731	0.314487	0.591389
C85	C	0.943048	-0.352154	0.075124
C86	C	1.276382	-0.018821	0.408457
C87	C	1.609715	0.314513	0.741791
C88	C	0.902472	-0.402675	-0.000074
C89	C	1.235805	-0.069342	0.333260
C90	C	1.569138	0.263992	0.666593
C91	C	0.985238	-0.207855	-0.000046
C92	C	1.318571	0.125479	0.333287
C93	C	1.651904	0.458812	0.666621
C94	C	0.978976	-0.562759	-0.000019
C95	C	1.312309	-0.229426	0.333314
C96	C	1.645643	0.103908	0.666648
C97	C	1.134114	0.108516	-0.000032
C98	C	1.467447	0.441849	0.333301
C99	C	1.800780	0.775182	0.666635
C100	C	1.226409	0.110148	-0.000041
C101	C	1.559742	0.443481	0.333293
C102	C	1.893076	0.776814	0.666626
C103	C	0.976016	0.268264	-0.000015
C104	C	1.309349	0.601597	0.333318
C105	C	1.642682	0.934931	0.666652
C106	C	0.977642	0.361512	-0.000009
C107	C	1.310975	0.694846	0.333324
C108	C	1.644309	1.028179	0.666657
N109	N	0.982102	0.114686	0.216970
N110	N	1.315435	0.448019	0.550304
N111	N	1.648769	0.781353	0.883637
N112	N	0.982122	0.114686	-0.217019
N113	N	1.315455	0.448019	0.116314
N114	N	1.648788	0.781352	0.449647
C115	C	1.038651	0.057585	0.451971
C116	C	1.371984	0.390918	0.785305
C117	C	1.705318	0.724251	1.118638
C118	C	1.038653	0.057583	0.547952
C119	C	1.371987	0.390916	0.881286
C120	C	1.705320	0.724249	1.214619
C121	C	0.925567	0.171790	0.547973
C122	C	1.258900	0.505123	0.881306
C123	C	1.592233	0.838456	1.214639
C124	C	0.925561	0.171787	0.451993
C125	C	1.258894	0.505121	0.785327
C126	C	1.592228	0.838454	1.118660
C127	C	0.982108	0.114686	0.403995
C128	C	1.315441	0.448019	0.737328
C129	C	1.648774	0.781352	1.070662
C130	C	0.982116	0.114686	0.595956
C131	C	1.315449	0.448020	0.929289
C132	C	1.648783	0.781353	1.262622
C133	C	0.982118	0.114684	0.700023
C134	C	1.315451	0.448018	1.033356
C135	C	1.648785	0.781351	1.366690
C136	C	0.982105	0.114686	0.299921
C137	C	1.315438	0.448019	0.633255
C138	C	1.648771	0.781353	0.966588
H139	H	0.403436	0.113285	0.150769
H140	H	0.736770	0.446618	0.484103
H141	H	1.070103	0.779951	0.817436
H142	H	0.879513	0.218286	0.412928
H143	H	1.212846	0.551619	0.746262
H144	H	1.546179	0.884953	1.079595
O145	O	0.813218	-0.423117	-0.000099
O146	O	1.146552	-0.089784	0.333234
O147	O	1.479885	0.243550	0.666567
H148	H	0.780978	-0.396318	-0.062558
H149	H	1.114311	-0.062984	0.270775
H150	H	1.447644	0.270349	0.604108
H151	H	0.879529	0.218282	0.587063
H152	H	1.212862	0.551615	0.920396
H153	H	1.546195	0.884949	1.253729
O154	O	0.392008	0.113099	-0.172811
O155	O	0.725342	0.446433	0.160523
O156	O	1.058675	0.779766	0.493856
H157	H	0.324419	0.111911	-0.158852
H158	H	0.657753	0.445245	0.174482
H159	H	0.991086	0.778578	0.507815
H160	H	1.054196	-0.447393	0.138676
H161	H	1.387530	-0.114059	0.472009
H162	H	1.720863	0.219274	0.805342
O163	O	1.099614	-0.004021	0.400194
O164	O	1.432947	0.329312	0.733527
O165	O	1.766281	0.662646	1.066861
H166	H	1.140022	0.031333	0.356454
H167	H	1.473355	0.364667	0.689787
H168	H	1.806688	0.698000	1.023120
H169	H	0.910065	-0.323183	0.138688
H170	H	1.243398	0.010150	0.472021
H171	H	1.576732	0.343483	0.805354
O172	O	0.572265	0.116293	-0.172801
O173	O	0.905598	0.449626	0.160532
O174	O	1.238931	0.782959	0.493866
H175	H	0.527554	0.115511	-0.230604
H176	H	0.860887	0.448844	0.102729
H177	H	1.194220	0.782178	0.436062
H178	H	1.084695	0.011085	0.587012
H179	H	1.418028	0.344418	0.920345
H180	H	1.751361	0.677752	1.253679
H181	H	1.129047	-0.352312	-0.000111
H182	H	1.462380	-0.018979	0.333222
H183	H	1.795713	0.314355	0.666555
H184	H	0.910078	-0.323348	-0.138904
H185	H	1.243412	0.009985	0.194430
H186	H	1.576745	0.343319	0.527763
O187	O	0.572219	0.116291	0.172743
O188	O	0.905552	0.449624	0.506076
O189	O	1.238886	0.782957	0.839410
H190	H	0.527491	0.115490	0.230538
H191	H	0.860824	0.448823	0.563871
H192	H	1.194158	0.782157	0.897204
O193	O	1.064926	-0.456848	-0.159399
O194	O	1.398259	-0.123514	0.173934
O195	O	1.731592	0.209819	0.507267
H196	H	1.130983	-0.443241	-0.159247
H197	H	1.464316	-0.109907	0.174087
H198	H	1.797649	0.223426	0.507420
