data_functionalizedCrystal
_audit_creation_method	'MofGen! by Chris Wilmer'
_symmetry_space_group_name_H-M	'P1'
_symmetry_Int_Tables_number	1
_symmetry_cell_setting	triclinic
loop_
_symmetry_equiv_pos_as_xyz
  x,y,z
_cell_length_a	16.625548
_cell_length_b	12.594516
_cell_length_c	16.625539
_cell_angle_alpha	89.976673
_cell_angle_beta	89.979432
_cell_angle_gamma	90.017121
loop_
_atom_site_label
_atom_site_type_symbol
_atom_site_fract_x
_atom_site_fract_y
_atom_site_fract_z
Zn1	Zn	1.232716	-0.423710	-0.455937
Zn2	Zn	1.732716	0.076290	0.044063
Zn3	Zn	1.232635	-0.601711	-0.321116
Zn4	Zn	1.732635	-0.101711	0.178884
Zn5	Zn	1.097878	-0.423750	-0.321118
Zn6	Zn	1.597878	0.076250	0.178882
Zn7	Zn	1.097864	-0.601650	-0.455906
Zn8	Zn	1.597864	-0.101650	0.044094
O9	O	1.165273	-0.512705	-0.388519
O10	O	1.665273	-0.012705	0.111481
O11	O	1.345538	-0.447331	-0.438065
O12	O	1.845538	0.052669	0.061935
O13	O	1.214731	-0.578147	-0.208284
O14	O	1.714731	-0.078147	0.291716
O15	O	1.115805	-0.274799	-0.339016
O16	O	1.615805	0.225201	0.160984
O17	O	1.345478	-0.578108	-0.339013
O18	O	1.845478	-0.078108	0.160987
O19	O	1.214870	-0.274769	-0.438067
O20	O	1.714870	0.225231	0.061933
O21	O	1.115726	-0.447400	-0.208285
O22	O	1.615726	0.052600	0.291715
O23	O	0.985044	-0.447341	-0.338985
O24	O	1.485044	0.052659	0.161015
O25	O	1.115780	-0.578003	-0.568743
O26	O	1.615780	-0.078003	-0.068743
O27	O	0.985033	-0.578043	-0.438014
O28	O	1.485033	-0.078043	0.061986
O29	O	1.214856	-0.447271	-0.568766
O30	O	1.714856	0.052729	-0.068766
O31	O	1.214717	-0.750649	-0.338983
O32	O	1.714717	-0.250649	0.161017
O33	O	1.115701	-0.750604	-0.438012
O34	O	1.615701	-0.250604	0.061988
C35	C	0.955782	-0.512690	-0.388497
C36	C	1.455782	-0.012690	0.111503
C37	C	0.866161	-0.512709	-0.388506
C38	C	1.366161	-0.012709	0.111494
C39	C	0.537986	-0.512716	-0.388541
C40	C	1.037986	-0.012716	0.111459
C41	C	0.629294	-0.512711	-0.388529
C42	C	1.129294	-0.012711	0.111471
C43	C	0.702071	-0.512713	-0.388523
C44	C	1.202071	-0.012713	0.111477
C45	C	0.793385	-0.512707	-0.388512
C46	C	1.293385	-0.012707	0.111488
C47	C	1.165220	-0.789246	-0.388511
C48	C	1.665220	-0.289246	0.111489
C49	C	1.165272	-0.907552	-0.388535
C50	C	1.665272	-0.407552	0.111465
C51	C	1.111412	-0.976819	-0.442359
C52	C	1.611412	-0.476819	0.057641
C53	C	1.091767	-1.047680	-0.368785
C54	C	1.591767	-0.547680	0.131215
C55	C	1.184990	-1.047490	-0.462122
C56	C	1.684990	-0.547490	0.037878
C57	C	1.145588	-0.976855	-0.314921
C58	C	1.645588	-0.476855	0.185079
C59	C	1.238845	-0.976658	-0.408308
C60	C	1.738845	-0.476658	0.091692
C61	C	1.219228	-1.047487	-0.334683
C62	C	1.719228	-0.547487	0.165317
C63	C	1.375582	-0.512721	-0.388542
C64	C	1.875582	-0.012721	0.111458
C65	C	1.465203	-0.512728	-0.388552
C66	C	1.965203	-0.012728	0.111448
C67	C	1.165326	-0.512626	-0.598828
C68	C	1.665326	-0.012626	-0.098828
C69	C	1.165348	-0.512592	-0.688449
C70	C	1.665348	-0.012592	-0.188449
C71	C	1.165348	-0.235085	-0.388545
C72	C	1.665348	0.264915	0.111455
C73	C	1.165380	-0.116779	-0.388556
C74	C	1.665380	0.383221	0.111444
C75	C	1.165385	-0.512473	-1.016625
C76	C	1.665385	-0.012473	-0.516625
C77	C	1.165373	-0.512510	-0.925317
C78	C	1.665373	-0.012510	-0.425317
C79	C	1.165367	-0.512534	-0.852540
C80	C	1.665367	-0.012534	-0.352540
C81	C	1.165354	-0.512568	-0.761226
C82	C	1.665354	-0.012568	-0.261226
C83	C	1.165267	-0.512708	-0.179028
C84	C	1.665267	-0.012708	0.320972
C85	C	1.165401	-0.512442	-0.089408
C86	C	1.665401	-0.012442	0.410592
H87	H	1.065783	-0.945789	-0.487811
H88	H	1.565783	-0.445789	0.012189
N89	N	1.009414	-1.088994	-0.346624
N90	N	1.509414	-0.588994	0.153376
H91	H	0.968725	-1.063292	-0.387303
H92	H	1.468725	-0.563292	0.112697
H93	H	1.010266	-1.169174	-0.346267
H94	H	1.510266	-0.669174	0.153733
H95	H	1.128882	-0.945955	-0.252681
H96	H	1.628882	-0.445955	0.247319
H97	H	1.264822	-1.078321	-0.289122
H98	H	1.764822	-0.578321	0.210878
N99	N	1.321178	-0.935304	-0.430479
N100	N	1.821178	-0.435304	0.069521
H101	H	1.335985	-0.960949	-0.486097
H102	H	1.835985	-0.460949	0.013903
H103	H	1.320592	-0.855124	-0.429739
H104	H	1.820592	-0.355124	0.070261
N105	N	1.207026	-1.088601	-0.544539
N106	N	1.707026	-0.588601	-0.044539
H107	H	1.166261	-1.062896	-0.585140
H108	H	1.666261	-0.562896	-0.085140
H109	H	1.262177	-1.061650	-0.559815
H110	H	1.762177	-0.561650	-0.059815
