data_functionalizedCrystal
_audit_creation_method	'MofGen! by Chris Wilmer'
_symmetry_space_group_name_H-M	'P1'
_symmetry_Int_Tables_number	1
_symmetry_cell_setting	triclinic
loop_
_symmetry_equiv_pos_as_xyz
  x,y,z
_cell_length_a	14.044220
_cell_length_b	10.540539
_cell_length_c	13.101039
_cell_angle_alpha	93.398267
_cell_angle_beta	86.340132
_cell_angle_gamma	88.857185
loop_
_atom_site_label
_atom_site_type_symbol
_atom_site_fract_x
_atom_site_fract_y
_atom_site_fract_z
O1	O	1.264944	0.299850	-0.085096
O2	O	1.764944	0.799850	0.414904
O3	O	0.988901	0.288796	-0.085123
O4	O	1.488901	0.788796	0.414877
O5	O	1.133220	0.110253	-0.085108
O6	O	1.633220	0.610253	0.414892
O7	O	1.120625	0.478393	-0.085111
O8	O	1.620625	0.978393	0.414889
O9	O	1.122866	0.123087	0.085321
O10	O	1.622866	0.623087	0.585321
O11	O	0.978547	0.301630	0.085306
O12	O	1.478547	0.801630	0.585306
O13	O	1.254589	0.312683	0.085332
O14	O	1.754589	0.812683	0.585332
Zn15	Zn	1.114924	0.309194	0.112379
Zn16	Zn	1.614924	0.809194	0.612379
Zn17	Zn	1.128566	0.292285	-0.112169
Zn18	Zn	1.628566	0.792285	0.387831
O19	O	1.110270	0.491226	0.085317
O20	O	1.610270	0.991226	0.585317
C21	C	0.948377	0.290375	0.000088
C22	C	1.448377	0.790375	0.500088
C23	C	0.843054	0.275945	0.000078
C24	C	1.343054	0.775945	0.500078
C25	C	0.650213	0.249565	0.000099
C26	C	1.150213	0.749565	0.500099
C27	C	0.593272	0.351908	0.000102
C28	C	1.093272	0.851908	0.500102
C29	C	0.485969	0.337230	0.000114
C30	C	0.985969	0.837230	0.500114
C31	C	0.757526	0.264241	0.000087
C32	C	1.257526	0.764241	0.500087
C33	C	1.127098	0.069271	0.000105
C34	C	1.627098	0.569271	0.500105
C35	C	1.124273	-0.071963	0.000099
C36	C	1.624273	0.428037	0.500099
C37	C	1.016007	-0.266367	-0.000294
C38	C	1.516007	0.233633	0.499706
C39	C	1.018849	-0.119430	0.000090
C40	C	1.518849	0.380570	0.500090
C41	C	1.169094	-0.121162	0.097427
C42	C	1.669094	0.378838	0.597427
C43	C	1.165492	-0.268064	0.097509
C44	C	1.665492	0.231936	0.597509
C45	C	1.179411	-0.282960	-0.096300
C46	C	1.679411	0.217040	0.403700
C47	C	1.180460	-0.135977	-0.097587
C48	C	1.680460	0.364023	0.402413
C49	C	1.295114	0.311104	0.000119
C50	C	1.795114	0.811104	0.500119
C51	C	1.400437	0.325534	0.000123
C52	C	1.900437	0.825534	0.500123
C53	C	1.116392	0.532208	0.000103
C54	C	1.616392	1.032208	0.500103
C55	C	1.119218	0.673442	0.000102
C56	C	1.619218	1.173442	0.500102
N57	N	1.105620	0.320734	0.265626
N58	N	1.605620	0.820734	0.765626
N59	N	1.137878	0.280737	-0.265416
N60	N	1.637878	0.780737	0.234584
C61	C	1.092962	0.336445	0.474667
C62	C	1.592962	0.836445	0.974667
C63	C	1.150533	0.265029	0.525549
C64	C	1.650533	0.765029	1.025549
C65	C	1.143490	0.273771	0.641867
C66	C	1.643490	0.773771	1.141867
C67	C	1.100004	0.327705	0.358339
C68	C	1.600004	0.827705	0.858339
H69	H	0.983167	-0.086117	-0.069679
H70	H	1.483167	0.413883	0.430321
C71	C	1.282328	-0.336433	-0.097186
C72	C	1.782328	0.163567	0.402814
H73	H	1.288625	-0.385098	-0.039126
H74	H	1.788625	0.114902	0.460874
H75	H	1.325482	-0.268211	-0.095047
H76	H	1.825482	0.231789	0.404953
H77	H	1.296359	-0.389010	-0.157925
H78	H	1.796359	0.110990	0.342075
H79	H	1.129451	-0.076672	0.169848
H80	H	1.629451	0.423328	0.669848
H81	H	1.205111	0.197322	0.481752
H82	H	1.705111	0.697322	0.981752
C83	C	0.636278	0.485164	0.000077
C84	C	1.136278	0.985164	0.500077
H85	H	0.703804	0.477678	0.000059
H86	H	1.203804	0.977678	0.500059
H87	H	0.612191	0.534500	0.059504
H88	H	1.112191	1.034500	0.559504
H89	H	0.619387	0.525511	-0.059368
H90	H	1.119387	1.025511	0.440632
H91	H	0.618376	0.150932	0.000105
H92	H	1.118376	0.650932	0.500105
H93	H	0.978603	-0.304433	-0.070090
H94	H	1.478603	0.195567	0.429910
H95	H	1.149772	-0.323517	-0.170068
H96	H	1.649772	0.176483	0.329932
H97	H	0.970315	-0.295542	0.069103
H98	H	1.470315	0.204458	0.569103
C99	C	0.958820	-0.061394	0.094495
C100	C	1.458820	0.438606	0.594495
H101	H	0.932608	-0.127632	0.132767
H102	H	1.432608	0.372368	0.632767
H103	H	0.908627	-0.009780	0.072794
H104	H	1.408627	0.490220	0.572794
H105	H	0.998205	-0.010981	0.136184
H106	H	1.498205	0.489019	0.636184
H107	H	1.038389	0.404149	0.518459
H108	H	1.538389	0.904149	1.018459
H109	H	1.123576	-0.294577	0.170256
H110	H	1.623576	0.205423	0.670256
H111	H	1.241043	-0.308035	0.101931
H112	H	1.741043	0.191965	0.601931
H113	H	1.246295	-0.090708	0.101053
H114	H	1.746295	0.409292	0.601053
C115	C	1.136308	-0.093051	-0.194862
C116	C	1.636308	0.406949	0.305138
H117	H	1.170608	-0.132094	-0.253694
H118	H	1.670608	0.367906	0.246306
H119	H	1.139577	-0.003273	-0.196650
H120	H	1.639577	0.496727	0.303350
H121	H	1.071501	-0.117318	-0.194261
H122	H	1.571501	0.382682	0.305739
C123	C	1.284778	-0.093367	-0.105519
C124	C	1.784778	0.406633	0.394481
H125	H	1.295480	-0.035729	-0.049102
H126	H	1.795480	0.464271	0.450898
H127	H	1.296890	-0.052614	-0.167634
H128	H	1.796890	0.447386	0.332366
H129	H	1.326328	-0.165481	-0.104687
H130	H	1.826328	0.334519	0.395313
