data_functionalizedCrystal
_audit_creation_method	'MofGen! by Chris Wilmer'
_symmetry_space_group_name_H-M	'P1'
_symmetry_Int_Tables_number	1
_symmetry_cell_setting	triclinic
loop_
_symmetry_equiv_pos_as_xyz
  x,y,z
_cell_length_a	12.811438
_cell_length_b	12.837942
_cell_length_c	14.586319
_cell_angle_alpha	89.996741
_cell_angle_beta	84.565035
_cell_angle_gamma	89.411773
loop_
_atom_site_label
_atom_site_type_symbol
_atom_site_fract_x
_atom_site_fract_y
_atom_site_fract_z
O1	O	1.406646	0.139685	-0.193185
O2	O	1.906646	0.639685	0.306815
O3	O	1.102580	0.154874	-0.167907
O4	O	1.602580	0.654874	0.332093
O5	O	1.247871	-0.003653	-0.179980
O6	O	1.747871	0.496347	0.320020
O7	O	1.261355	0.298211	-0.181112
O8	O	1.761355	0.798211	0.318888
O9	O	1.247859	-0.003655	-0.027498
O10	O	1.747859	0.496345	0.472502
O11	O	1.102569	0.154871	-0.015426
O12	O	1.602569	0.654871	0.484574
O13	O	1.406634	0.139683	-0.040703
O14	O	1.906634	0.639683	0.459297
Cu15	Cu	1.254600	0.147277	-0.014141
Cu16	Cu	1.754600	0.647277	0.485859
Cu17	Cu	1.254614	0.147280	-0.194469
Cu18	Cu	1.754614	0.647280	0.305531
O19	O	1.261344	0.298209	-0.028630
O20	O	1.761344	0.798209	0.471370
C21	C	1.063385	0.154021	-0.088409
C22	C	1.563385	0.654021	0.411591
C23	C	0.946612	0.151472	-0.078701
C24	C	1.446612	0.651472	0.421299
C25	C	0.782020	0.147879	0.018094
C26	C	1.282020	0.647879	0.518094
C27	C	0.891739	0.150274	0.008977
C28	C	1.391739	0.650274	0.508977
C29	C	0.891760	0.150278	-0.157268
C30	C	1.391760	0.650278	0.342732
C31	C	0.782041	0.147882	-0.148151
C32	C	1.282041	0.647882	0.351849
C33	C	0.727175	0.146681	-0.060467
C34	C	1.227175	0.646681	0.439533
C35	C	0.617455	0.144278	-0.051351
C36	C	1.117455	0.644278	0.448649
C37	C	0.617478	0.144289	-0.217594
C38	C	1.117478	0.644289	0.282406
C39	C	0.727196	0.146685	-0.226712
C40	C	1.227196	0.646685	0.273288
C41	C	1.243310	-0.042294	-0.103361
C42	C	1.743310	0.457706	0.396639
C43	C	1.229723	-0.157430	-0.102233
C44	C	1.729723	0.342570	0.397767
C45	C	1.393053	-0.397683	-0.115830
C46	C	1.893053	0.102317	0.384170
C47	C	1.380293	-0.505864	-0.114771
C48	C	1.880293	-0.005864	0.385229
C49	C	1.191443	-0.481974	-0.099062
C50	C	1.691443	0.018026	0.400938
C51	C	1.204203	-0.373794	-0.100121
C52	C	1.704203	0.126206	0.399879
C53	C	1.305012	-0.331652	-0.108504
C54	C	1.805012	0.168348	0.391496
C55	C	1.317771	-0.223469	-0.109557
C56	C	1.817771	0.276531	0.390443
C57	C	1.128922	-0.199582	-0.093854
C58	C	1.628922	0.300418	0.406146
C59	C	1.116162	-0.307762	-0.092795
C60	C	1.616162	0.192238	0.407205
C61	C	1.445829	0.140535	-0.120204
C62	C	1.945829	0.640535	0.379796
C63	C	1.562602	0.143084	-0.129917
C64	C	2.062602	0.643084	0.370083
C65	C	1.265905	0.336850	-0.105251
C66	C	1.765905	0.836850	0.394749
C67	C	1.279491	0.451986	-0.106385
C68	C	1.779491	0.951986	0.393615
N69	N	1.254599	0.147274	0.112690
N70	N	1.754599	0.647274	0.612690
N71	N	1.254623	0.147274	-0.321301
N72	N	1.754623	0.647274	0.178699
C73	C	1.318959	0.077102	0.342349
C74	C	1.818959	0.577102	0.842349
C75	C	1.318962	0.077100	0.438330
C76	C	1.818962	0.577100	0.938330
C77	C	1.190256	0.217449	0.449034
C78	C	1.690256	0.717449	0.949034
C79	C	1.190248	0.217446	0.353055
C80	C	1.690248	0.717446	0.853055
C81	C	1.254606	0.147274	0.299715
C82	C	1.754606	0.647274	0.799715
C83	C	1.254616	0.147274	0.491675
C84	C	1.754616	0.647274	0.991675
C85	C	1.254619	0.147272	0.595741
C86	C	1.754619	0.647272	1.095741
C87	C	1.254602	0.147274	0.195641
C88	C	1.754602	0.647274	0.695641
H89	H	0.737347	0.146907	0.089490
H90	H	1.237347	0.646907	0.589490
N91	N	1.426496	-0.178015	-0.118592
N92	N	1.926496	0.321985	0.381408
H93	H	1.465556	-0.202055	-0.178367
H94	H	1.965556	0.297945	0.321633
H95	H	1.421134	-0.099471	-0.118106
H96	H	1.921134	0.400529	0.381894
H97	H	0.936450	0.151265	-0.228655
H98	H	1.436450	0.651265	0.271345
H99	H	1.137858	0.274583	0.492473
H100	H	1.637858	0.774583	0.992473
H101	H	1.371363	0.019959	0.473040
H102	H	1.871363	0.519959	0.973040
H103	H	1.451986	-0.559624	-0.120739
H104	H	1.951986	-0.059624	0.379261
N105	N	1.120826	0.293125	0.307064
N106	N	1.620826	0.793125	0.807064
H107	H	1.080061	0.337583	0.355416
H108	H	1.580061	0.837583	0.855416
H109	H	1.165603	0.339167	0.263505
H110	H	1.665603	0.839167	0.763505
N111	N	1.388341	0.001404	0.284808
N112	N	1.888341	0.501404	0.784808
H113	H	1.438797	0.041249	0.240778
H114	H	1.938797	0.541249	0.740778
H115	H	1.429038	-0.043042	0.326441
H116	H	1.929038	0.456958	0.826441
H117	H	0.572785	0.143308	0.020046
H118	H	1.072785	0.643308	0.520046
H119	H	1.475135	-0.363372	-0.122647
H120	H	1.975135	0.136628	0.377353
N121	N	0.950887	0.151570	0.093714
N122	N	1.450887	0.651570	0.593714
H123	H	0.933875	0.086943	0.131470
H124	H	1.433875	0.586943	0.631470
H125	H	1.028700	0.153311	0.074565
H126	H	1.528700	0.653311	0.574565
N127	N	0.786375	0.147982	-0.321280
N128	N	1.286375	0.647982	0.178720
H129	H	0.864204	0.149682	-0.315137
H130	H	1.364204	0.649682	0.184863
H131	H	0.769288	0.083348	-0.356151
H132	H	1.269288	0.583348	0.143849
H133	H	1.109369	-0.516305	-0.092246
H134	H	1.609369	-0.016305	0.407754
N135	N	0.558325	0.142989	-0.302336
N136	N	1.058325	0.642989	0.197664
H137	H	0.480493	0.141285	-0.283258
H138	H	0.980493	0.641285	0.216742
H139	H	0.575417	0.207620	-0.340059
H140	H	1.075417	0.707620	0.159941
N141	N	1.007438	-0.353218	-0.083757
N142	N	1.507438	0.146782	0.416243
H143	H	1.012712	-0.431770	-0.084198
H144	H	1.512712	0.068230	0.415802
H145	H	0.968439	-0.329098	-0.023983
H146	H	1.468439	0.170902	0.476017
N147	N	1.033954	-0.128363	-0.085947
N148	N	1.533954	0.371637	0.414053
H149	H	1.057331	-0.053435	-0.087888
H150	H	1.557331	0.446565	0.412112
H151	H	0.990491	-0.142048	-0.138859
H152	H	1.490491	0.357952	0.361141
