data_functionalizedCrystal
_audit_creation_method	'MofGen! by Chris Wilmer'
_symmetry_space_group_name_H-M	'P1'
_symmetry_Int_Tables_number	1
_symmetry_cell_setting	triclinic
loop_
_symmetry_equiv_pos_as_xyz
  x,y,z
_cell_length_a	10.489741
_cell_length_b	8.559649
_cell_length_c	7.088638
_cell_angle_alpha	95.335531
_cell_angle_beta	96.273639
_cell_angle_gamma	102.841081
loop_
_atom_site_label
_atom_site_type_symbol
_atom_site_fract_x
_atom_site_fract_y
_atom_site_fract_z
O1	O	1.685016	-0.208942	0.158867
O2	O	1.311598	-0.230075	0.158896
O3	O	1.531205	0.012714	0.158877
O4	O	1.465409	-0.451732	0.158886
O5	O	1.501819	-0.019779	-0.159111
O6	O	1.282212	-0.262568	-0.159092
O7	O	1.655631	-0.241435	-0.159120
Cu8	Cu	1.466238	-0.254968	-0.188141
Cu9	Cu	1.500990	-0.216542	0.187916
O10	O	1.436023	-0.484224	-0.159102
C11	C	1.249541	-0.244725	-0.000094
C12	C	1.108416	-0.239948	-0.000083
N13	N	1.441805	-0.281995	-0.452639
C14	C	1.521499	0.055941	-0.000114
C15	C	1.536342	0.233151	-0.000104
C16	C	1.056540	-0.085469	-0.000104
C17	C	0.971218	-0.142424	0.156678
C18	C	0.942276	-0.174496	-0.156833
C19	C	1.024964	-0.296953	0.156829
C20	C	0.996021	-0.329018	-0.156823
C21	C	0.910718	-0.386081	-0.000003
C22	C	1.717687	-0.226785	-0.000126
C23	C	1.858814	-0.231561	-0.000125
C24	C	1.445730	-0.527450	-0.000107
C25	C	1.430887	-0.704659	-0.000104
N26	N	1.525435	-0.189503	0.452414
H27	H	0.959335	-0.063515	0.289226
O28	O	1.338495	-0.396523	-0.549861
C29	C	1.231172	-0.679433	-0.611590
C30	C	1.348221	-0.549891	-0.501320
H31	H	1.239011	-0.803463	-0.572416
H32	H	1.134709	-0.653617	-0.572326
H33	H	1.233191	-0.677120	-0.771788
H34	H	1.346329	-0.552131	-0.341097
H35	H	1.444633	-0.575753	-0.540744
H36	H	1.612072	-0.093657	-0.465894
O37	O	1.309570	0.197170	-0.000422
C38	C	1.088491	0.098916	-0.165072
C39	C	1.225832	0.210145	-0.164974
H40	H	1.020743	0.109394	-0.298078
H41	H	1.097633	-0.031341	-0.165182
H42	H	1.045398	0.136438	-0.031929
H43	H	1.269003	0.172768	-0.298094
H44	H	1.216606	0.340376	-0.164764
H45	H	1.007941	-0.407874	-0.289377
O46	O	0.835897	-0.537827	-0.000161
C47	C	0.764467	-0.808235	-0.163991
C48	C	0.849284	-0.636469	-0.164038
H49	H	0.775239	-0.888027	-0.296493
H50	H	0.798668	-0.860236	-0.030328
H51	H	0.656616	-0.803567	-0.165174
H52	H	0.957155	-0.640997	-0.162924
H53	H	0.814973	-0.584536	-0.297691
H54	H	1.061178	-0.348707	0.289525
O55	O	1.657700	0.331225	0.000135
C56	C	1.878728	0.429621	0.164919
C57	C	1.741366	0.318459	0.164862
H58	H	1.946402	0.419364	0.298106
H59	H	1.921981	0.392084	0.031933
H60	H	1.869460	0.559814	0.164812
H61	H	1.750520	0.188235	0.165036
H62	H	1.698163	0.356134	0.297836
H63	H	1.119620	0.041545	0.000090
O64	O	0.898916	-0.112405	-0.314768
C65	C	0.806145	0.097203	-0.437668
C66	C	0.855230	0.027064	-0.258663
H67	H	0.770786	0.209956	-0.392371
H68	H	0.890145	0.129954	-0.526865
H69	H	0.721074	0.003539	-0.526304
H70	H	0.940276	0.120650	-0.169879
H71	H	0.771155	-0.005727	-0.169609
