data_functionalizedCrystal
_audit_creation_method	'MofGen! by Chris Wilmer'
_symmetry_space_group_name_H-M	'P1'
_symmetry_Int_Tables_number	1
_symmetry_cell_setting	triclinic
loop_
_symmetry_equiv_pos_as_xyz
  x,y,z
_cell_length_a	16.120484
_cell_length_b	16.625548
_cell_length_c	16.625548
_cell_angle_alpha	90.004750
_cell_angle_beta	87.113328
_cell_angle_gamma	92.926626
loop_
_atom_site_label
_atom_site_type_symbol
_atom_site_fract_x
_atom_site_fract_y
_atom_site_fract_z
Zn1	Zn	-0.332043	1.216250	0.472174
Zn2	Zn	-0.082043	1.466250	0.722174
Zn3	Zn	0.167957	1.716250	0.972174
Zn4	Zn	0.417957	1.966250	1.222174
Zn5	Zn	-0.471424	1.209346	0.344169
Zn6	Zn	-0.221424	1.459346	0.594169
Zn7	Zn	0.028576	1.709346	0.844169
Zn8	Zn	0.278576	1.959346	1.094169
Zn9	Zn	-0.332029	1.081449	0.337354
Zn10	Zn	-0.082029	1.331449	0.587354
Zn11	Zn	0.167971	1.581449	0.837354
Zn12	Zn	0.417971	1.831449	1.087354
Zn13	Zn	-0.471422	1.074538	0.478959
Zn14	Zn	-0.221422	1.324538	0.728959
Zn15	Zn	0.028578	1.574538	0.978959
Zn16	Zn	0.278578	1.824538	1.228959
O17	O	-0.401730	1.145396	0.408164
O18	O	-0.151730	1.395396	0.658164
O19	O	0.098270	1.645396	0.908164
O20	O	0.348270	1.895396	1.158164
O21	O	-0.350539	1.328166	0.455207
O22	O	-0.100539	1.578166	0.705207
O23	O	0.149461	1.828166	0.955207
O24	O	0.399461	2.078166	1.205207
O25	O	-0.452928	1.192383	0.230433
O26	O	-0.202928	1.442383	0.480433
O27	O	0.047072	1.692383	0.730433
O28	O	0.297072	1.942383	0.980433
O29	O	-0.215363	1.105113	0.349547
O30	O	0.034637	1.355113	0.599547
O31	O	0.284637	1.605113	0.849547
O32	O	0.534637	1.855113	1.099547
O33	O	-0.452942	1.323094	0.361162
O34	O	-0.202942	1.573094	0.611162
O35	O	0.047058	1.823094	0.861162
O36	O	0.297058	2.073094	1.111162
O37	O	-0.215374	1.204150	0.448599
O38	O	0.034626	1.454150	0.698599
O39	O	0.284626	1.704150	0.948599
O40	O	0.534626	1.954150	1.198599
O41	O	-0.350515	1.098418	0.225426
O42	O	-0.100515	1.348418	0.475426
O43	O	0.149485	1.598418	0.725426
O44	O	0.399485	1.848418	0.975426
O45	O	-0.350513	0.967701	0.356126
O46	O	-0.100513	1.217701	0.606126
O47	O	0.149487	1.467701	0.856126
O48	O	0.399487	1.717701	1.106126
O49	O	-0.452939	1.093333	0.590892
O50	O	-0.202939	1.343333	0.840892
O51	O	0.047061	1.593333	1.090892
O52	O	0.297061	1.843333	1.340892
O53	O	-0.452925	0.962623	0.460162
O54	O	-0.202925	1.212623	0.710162
O55	O	0.047075	1.462623	0.960162
O56	O	0.297075	1.712623	1.210162
O57	O	-0.350537	1.197448	0.585907
O58	O	-0.100537	1.447448	0.835907
O59	O	0.149463	1.697448	1.085907
O60	O	0.399463	1.947448	1.335907
O61	O	-0.588092	1.185681	0.367741
O62	O	-0.338092	1.435681	0.617741
O63	O	-0.088092	1.685681	0.867741
O64	O	0.161908	1.935681	1.117741
O65	O	-0.588090	1.086639	0.466770
O66	O	-0.338090	1.336639	0.716770
O67	O	-0.088090	1.586639	0.966770
O68	O	0.161910	1.836639	1.216770
C69	C	-0.618342	1.134683	0.418749
C70	C	-0.368342	1.384683	0.668749
C71	C	-0.118342	1.634683	0.918749
C72	C	0.131658	1.884683	1.168749
C73	C	-0.711009	1.130173	0.423304
C74	C	-0.461009	1.380173	0.673304
C75	C	-0.211009	1.630173	0.923304
C76	C	0.038991	1.880173	1.173304
C77	C	-0.401718	0.935905	0.408141
C78	C	-0.151718	1.185905	0.658141
C79	C	0.098282	1.435905	0.908141
C80	C	0.348282	1.685905	1.158141
C81	C	-0.401733	0.846284	0.408151
C82	C	-0.151733	1.096284	0.658151
C83	C	0.098267	1.346284	0.908151
C84	C	0.348267	1.596284	1.158151
C85	C	-0.401739	1.145390	0.618474
C86	C	-0.151739	1.395390	0.868474
C87	C	0.098261	1.645390	1.118474
C88	C	0.348261	1.895390	1.368474
C89	C	-0.401743	1.145387	0.708095
C90	C	-0.151743	1.395387	0.958095
C91	C	0.098257	1.645387	1.208095
C92	C	0.348257	1.895387	1.458095
C93	C	-0.880674	1.121945	0.431637
C94	C	-0.630674	1.371945	0.681637
C95	C	-0.380674	1.621945	0.931637
C96	C	-0.130674	1.871945	1.181637
C97	C	-0.921945	1.168990	0.384704
C98	C	-0.671945	1.418990	0.634704
C99	C	-0.421945	1.668990	0.884704
C100	C	-0.171945	1.918990	1.134704
C101	C	-1.016352	1.164412	0.389341
C102	C	-0.766352	1.414412	0.639341
C103	C	-0.516352	1.664412	0.889341
C104	C	-0.266352	1.914412	1.139341
C105	C	-0.786258	1.126522	0.427002
C106	C	-0.536258	1.376522	0.677002
C107	C	-0.286258	1.626522	0.927002
C108	C	-0.036258	1.876522	1.177002
C109	C	-0.184272	1.156172	0.397556
C110	C	0.065728	1.406172	0.647556
C111	C	0.315728	1.656172	0.897556
C112	C	0.565728	1.906172	1.147556
C113	C	-0.091604	1.160765	0.393035
C114	C	0.158396	1.410765	0.643035
C115	C	0.408396	1.660765	0.893035
C116	C	0.658396	1.910765	1.143035
C117	C	-0.401738	0.518108	0.408186
C118	C	-0.151738	0.768108	0.658186
C119	C	0.098262	1.018108	0.908186
C120	C	0.348262	1.268108	1.158186
C121	C	-0.401734	0.609416	0.408174
C122	C	-0.151734	0.859416	0.658174
C123	C	0.098266	1.109416	0.908174
C124	C	0.348266	1.359416	1.158174
C125	C	-0.401736	0.682193	0.408168
C126	C	-0.151736	0.932193	0.658168
C127	C	0.098264	1.182193	0.908168
C128	C	0.348264	1.432193	1.158168
C129	C	-0.401731	0.773507	0.408157
C130	C	-0.151731	1.023507	0.658157
C131	C	0.098269	1.273507	0.908157
C132	C	0.348269	1.523507	1.158157
C133	C	-0.401742	1.355704	0.408188
C134	C	-0.151742	1.605704	0.658188
C135	C	0.098258	1.855704	0.908188
C136	C	0.348258	2.105704	1.158188
C137	C	-0.401748	1.445325	0.408198
C138	C	-0.151748	1.695325	0.658198
C139	C	0.098252	1.945325	0.908198
C140	C	0.348252	2.195325	1.158198
C141	C	-0.401747	1.145384	0.780878
C142	C	-0.151747	1.395384	1.030878
C143	C	0.098253	1.645384	1.280878
C144	C	0.348253	1.895384	1.530878
C145	C	-0.401744	1.145384	0.872186
C146	C	-0.151744	1.395384	1.122186
C147	C	0.098256	1.645384	1.372186
C148	C	0.348256	1.895384	1.622186
C149	C	-0.401737	1.145387	0.944962
C150	C	-0.151737	1.395387	1.194962
C151	C	0.098263	1.645387	1.444962
C152	C	0.348263	1.895387	1.694962
C153	C	-0.401735	1.145388	1.036276
C154	C	-0.151735	1.395388	1.286276
C155	C	0.098265	1.645388	1.536276
C156	C	0.348265	1.895388	1.786276
C157	C	-0.401737	1.145393	1.198674
C158	C	-0.151737	1.395393	1.448674
C159	C	0.098263	1.645393	1.698674
C160	C	0.348263	1.895393	1.948674
C161	C	-0.401728	1.145392	1.109052
C162	C	-0.151728	1.395392	1.359052
C163	C	0.098272	1.645392	1.609052
C164	C	0.348272	1.895392	1.859052
H165	H	-0.886376	1.212705	0.341041
H166	H	-0.636376	1.462705	0.591041
H167	H	-0.386376	1.712705	0.841041
H168	H	-0.136376	1.962705	1.091041
O169	O	-0.923228	1.069811	0.483650
O170	O	-0.673228	1.319811	0.733650
O171	O	-0.423228	1.569811	0.983650
O172	O	-0.173228	1.819811	1.233650
C173	C	-1.057498	1.017716	0.535797
C174	C	-0.807498	1.267716	0.785797
C175	C	-0.557498	1.517716	1.035797
C176	C	-0.307498	1.767716	1.285797
C177	C	-1.009397	1.076782	0.476849
C178	C	-0.759397	1.326782	0.726849
C179	C	-0.509397	1.576782	0.976849
C180	C	-0.259397	1.826782	1.226849
H181	H	-1.127174	1.023344	0.530330
H182	H	-0.877174	1.273344	0.780330
H183	H	-0.627174	1.523344	1.030330
H184	H	-0.377174	1.773344	1.280330
H185	H	-1.040569	0.953499	0.520754
H186	H	-0.790569	1.203499	0.770754
H187	H	-0.540569	1.453499	1.020754
H188	H	-0.290569	1.703499	1.270754
H189	H	-1.040352	1.032618	0.599995
H190	H	-0.790352	1.282618	0.849995
H191	H	-0.540352	1.532618	1.099995
H192	H	-0.290352	1.782618	1.349995
H193	H	-1.026517	1.061954	0.412630
H194	H	-0.776517	1.311954	0.662630
H195	H	-0.526517	1.561954	0.912630
H196	H	-0.276517	1.811954	1.162630
H197	H	-1.026331	1.140981	0.491960
H198	H	-0.776331	1.390981	0.741960
H199	H	-0.526331	1.640981	0.991960
H200	H	-0.276331	1.890981	1.241960
