data_functionalizedCrystal
_audit_creation_method	'MofGen! by Chris Wilmer'
_symmetry_space_group_name_H-M	'P1'
_symmetry_Int_Tables_number	1
_symmetry_cell_setting	triclinic
loop_
_symmetry_equiv_pos_as_xyz
  x,y,z
_cell_length_a	12.759401
_cell_length_b	19.077068
_cell_length_c	12.759393
_cell_angle_alpha	92.261180
_cell_angle_beta	89.981425
_cell_angle_gamma	92.327351
loop_
_atom_site_label
_atom_site_type_symbol
_atom_site_fract_x
_atom_site_fract_y
_atom_site_fract_z
Zn1	Zn	1.589361	-0.280150	-0.610736
Zn2	Zn	1.582157	-0.397866	-0.442095
Zn3	Zn	1.413661	-0.280188	-0.435078
Zn4	Zn	1.406557	-0.397812	-0.617733
O5	O	1.497934	-0.339004	-0.526410
O6	O	1.735426	-0.295772	-0.588374
O7	O	1.559764	-0.382294	-0.294145
O8	O	1.442956	-0.181692	-0.452514
O9	O	1.730133	-0.382258	-0.464474
O10	O	1.572042	-0.181665	-0.581570
O11	O	1.435971	-0.295836	-0.288990
O12	O	1.265698	-0.295784	-0.459298
O13	O	1.430848	-0.382166	-0.763824
O14	O	1.260478	-0.382202	-0.593495
O15	O	1.565153	-0.295720	-0.758683
O16	O	1.552875	-0.496350	-0.471259
O17	O	1.423862	-0.496310	-0.600299
C18	C	1.224967	-0.338992	-0.526395
C19	C	1.108190	-0.339004	-0.526414
C20	C	1.056080	-0.294052	-0.591037
C21	C	0.946355	-0.294059	-0.591045
C22	C	0.940861	-0.383976	-0.461803
C23	C	1.050583	-0.383964	-0.461791
C24	C	1.486845	-0.521867	-0.537323
C25	C	1.482197	-0.600097	-0.542026
C26	C	1.547235	-0.636847	-0.477107
C27	C	1.542870	-0.710352	-0.481537
C28	C	1.473460	-0.747106	-0.550882
C29	C	1.408418	-0.710351	-0.615808
C30	C	1.412790	-0.636847	-0.611382
C31	C	1.453182	-0.966939	-0.571321
C32	C	1.448813	-1.040447	-0.575739
C33	C	1.583267	-1.040443	-0.441469
C34	C	1.587627	-0.966938	-0.437046
C35	C	1.522590	-0.930190	-0.501975
N36	N	1.468993	-0.822240	-0.555409
N37	N	1.527062	-0.855057	-0.497452
C38	C	1.771967	-0.339017	-0.526427
C39	C	1.888743	-0.339022	-0.526434
C40	C	1.498012	-0.338933	-0.800440
C41	C	1.498045	-0.338903	-0.917215
C42	C	1.509095	-0.155427	-0.515479
C43	C	1.513852	-0.077197	-0.510820
C44	C	1.433610	-0.293876	-0.969391
C45	C	1.433636	-0.293854	-1.079114
C46	C	1.562540	-0.383888	-1.084474
C47	C	1.562508	-0.383913	-0.974754
C48	C	1.497920	-0.339024	-0.253444
C49	C	1.498103	-0.338856	-0.136658
H50	H	0.893944	-0.420582	-0.409190
C51	C	0.889036	-0.244616	-0.662140
C52	C	0.811791	-0.275189	-0.746378
C53	C	0.754474	-0.225743	-0.817477
C54	C	0.774403	-0.145724	-0.804339
C55	C	0.851652	-0.115146	-0.720097
C56	C	0.908969	-0.164592	-0.648998
H57	H	0.797035	-0.334428	-0.756107
H58	H	0.697288	-0.248379	-0.879838
H59	H	0.731973	-0.109121	-0.856971
H60	H	0.866408	-0.055907	-0.710368
H61	H	0.966154	-0.141956	-0.586636
H62	H	1.093012	-0.420570	-0.409162
C63	C	1.614420	-0.750772	-0.410125
C64	C	1.606508	-0.740738	-0.290077
C65	C	1.678068	-0.781155	-0.218665
C66	C	1.757539	-0.831608	-0.267301
C67	C	1.765454	-0.841644	-0.387355
C68	C	1.693894	-0.801226	-0.458767
H69	H	1.547676	-0.703388	-0.254069
H70	H	1.672208	-0.773725	-0.129793
H71	H	1.810511	-0.861527	-0.214437
H72	H	1.824286	-0.878994	-0.423363
H73	H	1.699754	-0.808656	-0.547640
H74	H	1.400224	-0.937024	-0.624187
C75	C	1.362761	-0.244321	-1.136506
C76	C	1.242972	-0.250054	-1.121748
C77	C	1.172092	-0.200518	-1.179139
C78	C	1.221001	-0.145250	-1.251289
C79	C	1.340796	-0.139514	-1.266051
C80	C	1.411676	-0.189050	-1.208660
H81	H	1.206761	-0.290969	-1.068335
H82	H	1.083412	-0.204764	-1.168211
H83	H	1.168532	-0.108580	-1.293774
H84	H	1.377007	-0.098599	-1.319464
H85	H	1.500356	-0.184804	-1.219588
H86	H	1.603752	-0.606926	-0.420635
C87	C	1.654813	-1.080867	-0.370058
C88	C	1.650015	-1.161718	-0.374922
C89	C	1.721568	-1.202142	-0.303511
C90	C	1.797920	-1.161714	-0.227237
C91	C	1.802721	-1.080858	-0.222370
C92	C	1.731167	-1.040435	-0.293781
H93	H	1.593492	-1.191650	-0.431388
H94	H	1.718014	-1.261997	-0.307114
H95	H	1.850888	-1.191638	-0.174374
H96	H	1.859243	-1.050927	-0.165905
H97	H	1.734722	-0.980580	-0.290178
C98	C	1.372459	-1.080879	-0.652025
C99	C	1.300920	-1.040459	-0.723447
C100	C	1.224568	-1.080891	-0.799725
C101	C	1.219755	-1.161742	-0.804581
C102	C	1.291297	-1.202166	-0.733157
C103	C	1.367649	-1.161735	-0.656879
H104	H	1.304480	-0.980604	-0.719854
H105	H	1.171608	-1.050966	-0.852598
H106	H	1.163235	-1.191672	-0.861047
H107	H	1.287736	-1.262021	-0.736749
H108	H	1.420609	-1.191660	-0.604006
H109	H	1.644147	-0.937014	-0.380580
C110	C	1.332069	-0.750778	-0.692093
C111	C	1.327255	-0.831629	-0.696963
C112	C	1.250904	-0.872054	-0.773249
C113	C	1.179367	-0.831629	-0.844664
C114	C	1.184179	-0.750773	-0.839796
C115	C	1.260530	-0.710348	-0.763510
H116	H	1.380213	-0.861559	-0.644095
H117	H	1.247342	-0.931909	-0.776852
H118	H	1.122847	-0.861554	-0.901136
H119	H	1.131220	-0.720843	-0.892664
H120	H	1.264092	-0.650493	-0.759907
C121	C	1.633439	-0.433397	-1.147779
C122	C	1.619976	-0.513411	-1.137456
C123	C	1.690872	-0.562922	-1.200762
C124	C	1.775232	-0.532420	-1.274390
C125	C	1.788699	-0.452402	-1.284716
C126	C	1.717803	-0.402891	-1.221410
H127	H	1.557524	-0.535994	-1.082949
H128	H	1.680903	-0.622157	-1.193117
H129	H	1.827714	-0.569071	-1.321253
H130	H	1.851151	-0.429818	-1.339223
H131	H	1.727772	-0.343656	-1.229055
C132	C	1.341243	-0.596419	-0.682790
C133	C	1.221206	-0.606592	-0.674725
C134	C	1.149661	-0.566164	-0.746138
C135	C	1.198153	-0.515563	-0.825616
C136	C	1.318196	-0.505387	-0.833685
C137	C	1.389741	-0.545815	-0.762272
H138	H	1.185304	-0.644052	-0.615887
H139	H	1.060797	-0.573697	-0.740165
H140	H	1.145191	-0.485635	-0.878481
H141	H	1.354098	-0.467927	-0.892522
H142	H	1.478606	-0.538282	-0.768245
H143	H	1.614981	-0.420582	-0.932271
H144	H	1.102980	-0.257440	-0.643654
H145	H	1.381120	-0.257226	-0.922546
