data_functionalizedCrystal
_audit_creation_method	'MofGen! by Chris Wilmer'
_symmetry_space_group_name_H-M	'P1'
_symmetry_Int_Tables_number	1
_symmetry_cell_setting	triclinic
loop_
_symmetry_equiv_pos_as_xyz
  x,y,z
_cell_length_a	11.026607
_cell_length_b	14.853567
_cell_length_c	9.482900
_cell_angle_alpha	99.351342
_cell_angle_beta	78.636152
_cell_angle_gamma	96.110474
loop_
_atom_site_label
_atom_site_type_symbol
_atom_site_fract_x
_atom_site_fract_y
_atom_site_fract_z
O1	O	1.629690	0.366576	-0.120866
O2	O	1.276313	0.323576	-0.120871
O3	O	1.462441	0.215369	-0.120872
O4	O	1.443561	0.474783	-0.120864
O5	O	1.424635	0.237461	0.120920
O6	O	1.238506	0.345668	0.120922
O7	O	1.591884	0.388668	0.120927
Cu8	Cu	1.411743	0.369186	0.143002
Cu9	Cu	1.456453	0.343059	-0.142946
O10	O	1.405755	0.496875	0.120929
C11	C	1.212185	0.326689	0.000025
C12	C	1.077432	0.303041	0.000022
C13	C	1.003736	0.368337	0.000023
C14	C	0.864461	0.343897	0.000020
C15	C	1.442683	0.192688	0.000020
C16	C	1.440122	0.092190	0.000007
C17	C	1.318718	-0.339931	0.000033
C18	C	1.539842	-0.325531	0.000036
C19	C	1.542254	-0.231109	0.000028
C20	C	1.432895	-0.191094	0.000024
C21	C	1.321125	-0.245500	0.000029
C22	C	1.654019	-0.176694	0.000038
C23	C	1.656435	-0.082266	0.000031
C24	C	1.547077	-0.042250	0.000017
C25	C	1.435303	-0.096663	0.000020
C26	C	1.325944	-0.056648	0.000016
C27	C	1.214170	-0.111060	0.000009
C28	C	1.211767	-0.205484	0.000015
C29	C	1.549480	0.052174	0.000011
C30	C	1.328352	0.037783	0.000012
C31	C	1.656012	0.385555	0.000029
C32	C	1.790766	0.409202	0.000022
C33	C	1.425513	0.519556	0.000033
C34	C	1.428076	0.620054	0.000037
N35	N	1.380304	0.387562	0.344123
N36	N	1.487901	0.324677	-0.344066
C37	C	1.447172	0.348473	0.416321
C38	C	1.421024	0.363771	0.583739
H39	H	1.043750	0.442333	0.000034
Cl40	Cl	1.178211	-0.408332	0.000010
H41	H	1.747448	-0.037972	0.000035
Cl42	Cl	1.565176	0.279071	0.320407
Cl43	Cl	0.852524	0.523456	0.000046
Cl44	Cl	1.262020	0.456713	0.440037
H45	H	1.628875	-0.358116	0.000051
Cl46	Cl	1.791484	-0.227000	0.000074
H47	H	1.344408	0.408562	0.645864
Cl48	Cl	0.802695	0.229647	0.000027
Cl49	Cl	1.015660	0.188796	0.000029
H50	H	1.239298	0.070355	0.000002
Cl51	Cl	1.076695	-0.060742	0.000017
H52	H	1.640483	0.096473	0.000026
H53	H	1.564509	0.279878	0.593809
Cl54	Cl	1.071266	-0.273892	0.000002
