data_functionalizedCrystal
_audit_creation_method	'MofGen! by Chris Wilmer'
_symmetry_space_group_name_H-M	'P1'
_symmetry_Int_Tables_number	1
_symmetry_cell_setting	triclinic
loop_
_symmetry_equiv_pos_as_xyz
  x,y,z
_cell_length_a	12.759401
_cell_length_b	13.031981
_cell_length_c	12.759393
_cell_angle_alpha	97.216555
_cell_angle_beta	90.020938
_cell_angle_gamma	97.193318
loop_
_atom_site_label
_atom_site_type_symbol
_atom_site_fract_x
_atom_site_fract_y
_atom_site_fract_z
Zn1	Zn	1.553159	-0.416025	0.540846
Zn2	Zn	1.530734	-0.590838	0.342822
Zn3	Zn	1.377451	-0.416080	0.365174
Zn4	Zn	1.355143	-0.590765	0.518469
O5	O	1.454122	-0.503427	0.441828
O6	O	1.697204	-0.439221	0.514588
O7	O	1.510352	-0.567710	0.198759
O8	O	1.419479	-0.269807	0.407196
O9	O	1.680729	-0.567656	0.369101
O10	O	1.548571	-0.269766	0.536262
O11	O	1.397735	-0.439316	0.215181
O12	O	1.227471	-0.439245	0.385498
O13	O	1.381459	-0.567531	0.668465
O14	O	1.211082	-0.567585	0.498123
O15	O	1.526941	-0.439151	0.684905
O16	O	1.488721	-0.737094	0.347403
O17	O	1.359715	-0.737040	0.476450
C18	C	1.181156	-0.503414	0.441808
C19	C	1.064377	-0.503434	0.441822
C20	C	1.000996	-0.570362	0.500347
C21	C	0.891271	-0.570366	0.500367
C22	C	0.908319	-0.436511	0.383329
C23	C	1.018042	-0.436502	0.383315
C24	C	1.419393	-0.774992	0.407096
C25	C	1.404632	-0.891169	0.392272
C26	C	1.461881	-0.942861	0.449585
C27	C	1.446627	-1.062935	0.434266
C28	C	1.728153	-0.503440	0.441847
C29	C	1.844929	-0.503446	0.441856
C30	C	1.454213	-0.503327	0.715874
C31	C	1.454252	-0.503284	0.832656
C32	C	1.489015	-0.230801	0.476718
C33	C	1.503884	-0.114624	0.491587
C34	C	1.454101	-0.503451	0.168857
C35	C	1.454303	-0.503200	0.052113
C36	C	1.530011	-0.436425	0.896082
C37	C	1.530034	-0.436380	1.005812
C38	C	1.378537	-0.570061	0.988680
C39	C	1.378509	-0.570100	0.878952
H40	H	1.069650	-0.381995	0.335658
H41	H	0.839670	-0.624864	0.548026
H42	H	0.870579	-0.382019	0.335693
O43	O	1.533817	-0.889455	0.521577
C44	C	1.614533	-0.721085	0.602561
C45	C	1.533046	-0.781433	0.520976
H46	H	1.613921	-0.633740	0.602118
H47	H	1.696601	-0.742347	0.581492
H48	H	1.593350	-0.742504	0.684537
H49	H	1.554130	-0.760047	0.438971
H50	H	1.451001	-0.760166	0.542136
O51	O	1.332748	-0.944300	0.320072
C52	C	1.277615	-0.978142	0.137026
C53	C	1.359084	-0.917891	0.218685
H54	H	1.298891	-0.956829	0.055033
H55	H	1.195567	-0.956779	0.158019
H56	H	1.278114	-1.065490	0.137568
H57	H	1.358681	-0.830530	0.218185
H58	H	1.441094	-0.939341	0.197663
H59	H	1.564192	-1.069990	0.552004
O60	O	1.603485	-0.371364	0.851177
C61	C	1.677269	-0.193584	0.840427
C62	C	1.593994	-0.267151	0.891336
H63	H	1.669638	-0.109314	0.872891
H64	H	1.664250	-0.205001	0.751105
H65	H	1.759627	-0.211988	0.859649
H66	H	1.511602	-0.248793	0.872196
H67	H	1.607105	-0.255721	0.980645
O68	O	1.305072	-0.634935	1.033821
C69	C	1.237932	-0.694078	1.195273
C70	C	1.321206	-0.620571	1.144291
H71	H	1.250935	-0.682475	1.284597
H72	H	1.245585	-0.778392	1.162989
H73	H	1.155572	-0.675735	1.175972
H74	H	1.403604	-0.638820	1.163572
H75	H	1.313461	-0.536279	1.176577
O76	O	1.045975	-0.635257	0.557352
C77	C	1.073065	-0.686239	0.729455
C78	C	1.022094	-0.612666	0.665023
H79	H	1.053758	-0.668015	0.816516
H80	H	1.162388	-0.674736	0.719485
H81	H	1.040721	-0.770493	0.700042
H82	H	1.054354	-0.528384	0.694394
H83	H	0.932774	-0.624259	0.674994
O84	O	1.374595	-1.116015	0.362178
C85	C	1.242817	-1.104953	0.230124
C86	C	1.324335	-1.044711	0.311740
H87	H	1.202176	-1.047330	0.189306
H88	H	1.181340	-1.156046	0.271788
H89	H	1.284649	-1.156093	0.168801
H90	H	1.282596	-0.993514	0.373085
H91	H	1.385807	-0.993684	0.270002
O92	O	1.603490	-0.371320	1.067481
C93	C	1.635716	-0.230187	1.209459
C94	C	1.552416	-0.303794	1.139677
H95	H	1.594453	-0.175588	1.267861
H96	H	1.689830	-0.182365	1.157570
H97	H	1.684540	-0.278176	1.254654
H98	H	1.503518	-0.255886	1.094470
H99	H	1.498376	-0.351619	1.191622
H100	H	1.316810	-0.624544	0.827309
