data_functionalizedCrystal
_audit_creation_method	'MofGen! by Chris Wilmer'
_symmetry_space_group_name_H-M	'P1'
_symmetry_Int_Tables_number	1
_symmetry_cell_setting	triclinic
loop_
_symmetry_equiv_pos_as_xyz
  x,y,z
_cell_length_a	19.120904
_cell_length_b	15.297475
_cell_length_c	15.297327
_cell_angle_alpha	88.374454
_cell_angle_beta	101.624418
_cell_angle_gamma	96.854753
loop_
_atom_site_label
_atom_site_type_symbol
_atom_site_fract_x
_atom_site_fract_y
_atom_site_fract_z
Zn1	Zn	-0.645696	-1.238332	-0.609215
Zn2	Zn	-0.544796	-1.219174	-0.751234
Zn3	Zn	-0.505494	-1.100615	-0.577686
Zn4	Zn	-0.638858	-1.066902	-0.729947
O5	O	-0.583711	-1.156256	-0.667021
O6	O	-0.651621	-1.357152	-0.650158
O7	O	-0.441542	-1.209538	-0.723927
O8	O	-0.510506	-1.141011	-0.458712
O9	O	-0.577490	-1.343077	-0.754499
O10	O	-0.613512	-1.242191	-0.481875
O11	O	-0.412667	-1.122434	-0.596422
O12	O	-0.503876	-0.974782	-0.575780
O13	O	-0.737806	-1.083552	-0.718217
O14	O	-0.601858	-0.950013	-0.687645
O15	O	-0.742829	-1.209501	-0.629516
O16	O	-0.570860	-1.176848	-0.871568
O17	O	-0.639967	-1.064975	-0.855928
C18	C	-0.547861	-0.930930	-0.625982
C19	C	-0.532543	-0.834529	-0.608448
C20	C	-0.608955	-1.115196	-0.895686
C21	C	-0.619790	-1.097709	-0.993525
C22	C	-0.766449	-1.144903	-0.675009
C23	C	-0.844321	-1.140065	-0.678413
C24	C	-0.883522	-1.203363	-0.633833
C25	C	-0.956689	-1.198807	-0.637026
C26	C	-0.990655	-1.130956	-0.684806
C27	C	-0.951448	-1.067651	-0.729387
C28	C	-0.878281	-1.072204	-0.726188
C29	C	-1.211439	-1.113925	-0.696770
C30	C	-1.284612	-1.109378	-0.699968
C31	C	-1.289847	-1.240534	-0.607605
C32	C	-1.216680	-1.245084	-0.604414
C33	C	-1.177479	-1.181777	-0.648992
C34	C	-1.065444	-1.126299	-0.688073
C35	C	-1.102690	-1.186431	-0.645719
C36	C	-0.401685	-1.167626	-0.659009
C37	C	-0.323813	-1.172677	-0.655387
C38	C	-0.619702	-1.382462	-0.708220
C39	C	-0.635039	-1.478857	-0.725776
C40	C	-0.693193	-0.511260	-0.792348
C41	C	-0.707584	-0.601832	-0.808829
C42	C	-0.663825	-0.660011	-0.758735
C43	C	-0.605673	-0.627609	-0.692158
C44	C	-0.591277	-0.537027	-0.675680
C45	C	-0.561909	-0.685778	-0.642067
C46	C	-0.503757	-0.653376	-0.575489
C47	C	-0.489364	-0.562803	-0.559014
C48	C	-0.533123	-0.504625	-0.609108
C49	C	-0.576305	-0.776359	-0.658545
C50	C	-0.474388	-0.802127	-0.541876
C51	C	-0.459998	-0.711555	-0.525395
C52	C	-0.506564	-1.281585	-1.301805
C53	C	-0.496380	-1.298015	-1.209880
C54	C	-0.527232	-1.247940	-1.155787
C55	C	-0.568269	-1.181432	-1.193628
C56	C	-0.578450	-1.164995	-1.285561
C57	C	-0.599118	-1.131351	-1.139543
C58	C	-0.640155	-1.064842	-1.177384
C59	C	-0.650334	-1.048409	-1.269308
C60	C	-0.619482	-1.098484	-1.323401
C61	C	-0.588937	-1.147787	-1.047610
C62	C	-0.660823	-1.031198	-1.031366
C63	C	-0.671007	-1.014768	-1.123291
C64	C	-0.558388	-1.197499	-0.437467
C65	C	-0.547596	-1.215074	-0.339645
H66	H	-0.855873	-1.258618	-0.594928
C67	C	-0.517305	-0.404990	-0.590970
N68	N	-0.505396	-0.329944	-0.577306
H69	H	-0.627774	-1.085112	-1.398256
H70	H	-0.481443	-1.322344	-1.345854
H71	H	-1.321772	-1.292075	-0.571311
C72	C	-1.168327	-1.044282	-0.745804
N73	N	-1.135851	-0.991822	-0.782738
H74	H	-1.093108	-1.071057	-0.726980
H75	H	-0.683740	-0.994244	-1.300113
C76	C	-0.694764	-0.976113	-0.971867
N77	N	-0.720326	-0.934626	-0.927048
C78	C	-0.716141	-0.941603	-1.164927
N79	N	-0.750134	-0.886494	-1.196288
H80	H	-0.518936	-1.261321	-1.080937
C81	C	-0.451225	-1.371158	-1.168258
N82	N	-0.417208	-1.426249	-1.136908
H83	H	-0.623653	-0.802732	-0.712752
H84	H	-0.442006	-0.536424	-0.504811
H85	H	-0.988604	-1.250354	-0.600726
H86	H	-0.412649	-0.685160	-0.471187
H87	H	-0.846362	-1.020652	-0.762480
C88	C	-0.988811	-0.993006	-0.781936
N89	N	-1.016952	-0.936782	-0.821516
H90	H	-1.189031	-1.300338	-0.565510
H91	H	-1.312264	-1.054122	-0.738878
C92	C	-0.426252	-0.866121	-0.486767
N93	N	-0.389998	-0.914326	-0.445262
H94	H	-1.075031	-1.241672	-0.606813
C95	C	-0.679647	-0.759640	-0.776881
N96	N	-0.691565	-0.834684	-0.790555
H97	H	-0.555524	-1.201939	-1.016808
H98	H	-0.754930	-0.628206	-0.863039
C99	C	-0.741318	-0.447259	-0.847447
N100	N	-0.777570	-0.399051	-0.888950
