data_functionalizedCrystal
_audit_creation_method	'MofGen! by Chris Wilmer'
_symmetry_space_group_name_H-M	'P1'
_symmetry_Int_Tables_number	1
_symmetry_cell_setting	triclinic
loop_
_symmetry_equiv_pos_as_xyz
  x,y,z
_cell_length_a	6.817900
_cell_length_b	11.102183
_cell_length_c	16.305550
_cell_angle_alpha	93.871771
_cell_angle_beta	103.455250
_cell_angle_gamma	108.603876
loop_
_atom_site_label
_atom_site_type_symbol
_atom_site_fract_x
_atom_site_fract_y
_atom_site_fract_z
V1	V	-4.052574	-0.176911	-0.263030
O2	O	-4.012740	0.007398	-0.258024
O3	O	-4.029744	-0.349723	-0.261230
O4	O	-4.003648	-0.174674	-0.377747
O5	O	-4.039017	-0.168864	-0.140700
V6	V	-4.532957	-0.154808	-0.248398
O7	O	-4.320721	-0.225395	-0.295125
O8	O	-4.715008	-0.106324	-0.216303
O9	O	-4.332581	0.018004	-0.250199
O10	O	-4.690189	-0.339117	-0.253404
O11	O	-4.663911	-0.162856	-0.370728
O12	O	-4.358678	-0.157045	-0.133681
C13	C	-3.880983	-0.391836	-0.257080
C14	C	-3.943599	-0.533116	-0.256372
C15	C	-3.857871	-0.496208	-0.101856
C16	C	-3.844420	-0.544127	-0.024268
C17	C	-3.903261	-0.676872	-0.023608
C18	C	-3.975565	-0.761704	-0.100544
C19	C	-3.989016	-0.713785	-0.178132
C20	C	-3.930162	-0.581035	-0.178783
C21	C	-4.074758	-0.750693	-0.332647
C22	C	-4.015903	-0.617947	-0.333308
C23	C	-4.147062	-0.835525	-0.409583
C24	C	-4.160499	-0.787606	-0.487172
C25	C	-4.101650	-0.654851	-0.487829
C26	C	-4.029354	-0.570029	-0.410896
C27	C	-3.847692	-0.168542	-0.405708
C28	C	-3.889142	-0.167856	-0.499490
C29	C	-4.039834	-0.165200	-0.840236
C30	C	-3.802612	-0.157314	-0.799307
C31	C	-3.759603	-0.158553	-0.701812
C32	C	-3.965072	-0.166517	-0.671188
C33	C	-4.150785	-0.292032	-0.721813
C34	C	-4.192543	-0.291322	-0.819363
C35	C	-4.077232	-0.048574	-0.794393
C36	C	-4.029155	-0.047580	-0.696550
C37	C	-3.922834	-0.167266	-0.575650
C38	C	-4.082083	-0.164460	-0.935775
C39	C	-4.144686	0.060110	-0.254346
C40	C	-4.061307	0.201388	-0.255059
C41	C	-4.177976	-0.163182	-0.105716
C42	C	-4.115764	-0.163861	-0.011933
H43	H	-3.809895	-0.388116	-0.102384
H44	H	-3.971677	0.046528	-0.807762
C45	C	-4.093666	-0.411345	-0.699109
C46	C	-3.878809	-0.395143	-0.634709
C47	C	-3.821676	-0.514451	-0.612006
C48	C	-3.979400	-0.649961	-0.653703
C49	C	-4.194272	-0.666168	-0.718107
C50	C	-4.251405	-0.546860	-0.740809
H51	H	-3.762039	-0.294825	-0.603839
H52	H	-3.662613	-0.502453	-0.564330
H53	H	-3.937107	-0.738280	-0.636897
H54	H	-4.311041	-0.766486	-0.748976
H55	H	-4.410467	-0.558859	-0.788485
H56	H	-3.981401	-0.461937	-0.411423
H57	H	-4.112634	-0.615847	-0.551011
H58	H	-3.619675	-0.068308	-0.666789
H59	H	-4.176210	-0.046019	-0.675203
C60	C	-4.211788	-0.981545	-0.408858
C61	C	-4.394954	-1.050586	-0.370005
C62	C	-4.459675	-1.196608	-0.369282
C63	C	-4.341230	-1.273590	-0.407412
C64	C	-4.158053	-1.204550	-0.446268
C65	C	-4.093332	-1.058528	-0.446990
H66	H	-4.482644	-0.993599	-0.341777
H67	H	-4.595276	-1.247716	-0.340519
H68	H	-4.389140	-1.381684	-0.406877
H69	H	-4.070362	-1.261537	-0.474496
H70	H	-3.957731	-1.007420	-0.475754
H71	H	-3.682979	-0.066643	-0.811671
H72	H	-4.023498	-0.869792	-0.100000
H73	H	-4.368017	-0.302330	-0.847354
H74	H	-3.769992	-0.241105	-0.830818
C75	C	-3.686909	-0.273057	-0.679794
C76	C	-3.835966	-0.411255	-0.719558
C77	C	-3.763275	-0.525767	-0.697542
C78	C	-3.541527	-0.502079	-0.635764
C79	C	-3.392457	-0.363875	-0.595997
C80	C	-3.465148	-0.249363	-0.618012
H81	H	-4.000129	-0.428795	-0.765293
H82	H	-3.873627	-0.628075	-0.726981
H83	H	-3.487717	-0.586847	-0.619467
H84	H	-3.228294	-0.346335	-0.550261
H85	H	-3.354795	-0.147055	-0.588573
H86	H	-4.249991	-0.053235	-0.821209
C87	C	-4.161466	-0.410593	-0.860409
C88	C	-4.348976	-0.510649	-0.928649
C89	C	-4.317895	-0.629924	-0.969689
C90	C	-4.099304	-0.649143	-0.942489
C91	C	-3.911779	-0.549084	-0.874246
C92	C	-3.942860	-0.429809	-0.833206
H93	H	-4.510804	-0.496425	-0.948786
H94	H	-4.456715	-0.703994	-1.020207
H95	H	-4.076297	-0.737437	-0.972870
H96	H	-3.749951	-0.563308	-0.854108
H97	H	-3.804040	-0.355739	-0.782688
C98	C	-3.846965	0.077841	-0.650111
C99	C	-3.621845	0.108245	-0.664447
C100	C	-3.439649	0.233662	-0.618000
C101	C	-3.482572	0.328675	-0.557217
C102	C	-3.707702	0.298273	-0.542878
C103	C	-3.889898	0.172856	-0.589325
H104	H	-3.590062	0.037908	-0.709445
H105	H	-3.272992	0.256166	-0.628615
H106	H	-3.347699	0.421516	-0.522834
H107	H	-3.739485	0.368610	-0.497880
H108	H	-4.056555	0.150352	-0.578710
H109	H	-3.892313	-0.715886	0.039570
H110	H	-3.785551	-0.475043	0.038371
H111	H	-4.219382	-0.856685	-0.549807
H112	H	-4.305484	-0.302399	-0.702900
