data_functionalizedCrystal
_audit_creation_method	'MofGen! by Chris Wilmer'
_symmetry_space_group_name_H-M	'P1'
_symmetry_Int_Tables_number	1
_symmetry_cell_setting	triclinic
loop_
_symmetry_equiv_pos_as_xyz
  x,y,z
_cell_length_a	12.759401
_cell_length_b	12.759393
_cell_length_c	12.759393
_cell_angle_alpha	89.972500
_cell_angle_beta	90.020938
_cell_angle_gamma	89.983648
loop_
_atom_site_label
_atom_site_type_symbol
_atom_site_fract_x
_atom_site_fract_y
_atom_site_fract_z
Zn1	Zn	1.606265	0.418173	0.594042
Zn2	Zn	1.606156	0.593889	0.418371
Zn3	Zn	1.430564	0.418229	0.418377
Zn4	Zn	1.430556	0.593815	0.594009
O5	O	1.518385	0.506026	0.506200
O6	O	1.753272	0.441489	0.570750
O7	O	1.582821	0.570641	0.271351
O8	O	1.453921	0.271200	0.441696
O9	O	1.753192	0.570587	0.441686
O10	O	1.583008	0.271159	0.570756
O11	O	1.453815	0.441585	0.271355
O12	O	1.283542	0.441513	0.441663
O13	O	1.453906	0.570462	0.741034
O14	O	1.283536	0.570516	0.570699
O15	O	1.582999	0.441418	0.741059
O16	O	1.582813	0.740900	0.441653
O17	O	1.453800	0.740846	0.570693
C18	C	1.245418	0.506014	0.506179
C19	C	1.128641	0.506033	0.506195
C20	C	1.073804	0.573307	0.573278
C21	C	0.964080	0.573311	0.573299
C22	C	0.964041	0.438765	0.439144
C23	C	1.073763	0.438756	0.439130
C24	C	1.518322	0.778994	0.506192
C25	C	1.518392	0.895771	0.506224
C26	C	1.652834	0.895773	0.371955
C27	C	1.720082	0.950636	0.304837
C28	C	1.720143	1.060357	0.304873
C29	C	1.652952	1.115219	0.372036
C30	C	1.585703	1.060357	0.439154
C31	C	1.585647	0.950633	0.439109
C32	C	1.451268	1.060354	0.573427
C33	C	1.451200	0.950632	0.573387
C34	C	1.384076	1.115216	0.640590
C35	C	1.316821	1.060354	0.707705
C36	C	1.316762	0.950626	0.707666
C37	C	1.383951	0.895770	0.640506
C38	C	1.792419	0.506040	0.506221
C39	C	1.909195	0.506046	0.506230
C40	C	1.518464	0.505925	0.780233
C41	C	1.518497	0.505883	0.897010
C42	C	1.518477	1.231993	0.506247
C43	C	1.518517	1.115216	0.506308
C44	C	1.518368	0.506051	0.233232
C45	C	1.518538	0.505798	0.116456
C46	C	1.585721	0.438679	0.951886
C47	C	1.585739	0.438633	1.061611
C48	C	1.451306	0.573005	1.061572
C49	C	1.451284	0.573044	0.951850
H50	H	0.919345	0.383991	0.384541
C51	C	1.378404	0.646098	1.120983
C52	C	1.401221	0.750057	1.094261
C53	C	1.334078	0.817422	1.148957
H54	H	1.387980	0.636595	1.194205
H55	H	1.307797	0.630787	1.102971
H56	H	1.471812	0.765363	1.112280
H57	H	1.391639	0.759593	1.021048
H58	H	1.263470	0.802111	1.130945
H59	H	1.343659	0.807910	1.222176
H60	H	1.349543	0.887964	1.130827
C61	C	1.378465	0.646075	0.892127
C62	C	1.437916	0.713420	0.829114
C63	C	1.370872	0.780693	0.774071
H64	H	1.338419	0.686174	0.940379
H65	H	1.332713	0.605922	0.849262
H66	H	1.483650	0.753569	0.871975
H67	H	1.477960	0.673350	0.780842
H68	H	1.325119	0.740540	0.731206
H69	H	1.330829	0.820785	0.822331
H70	H	1.411199	0.826388	0.731303
C71	C	1.792914	0.890881	0.231957
C72	C	1.778452	0.783049	0.246266
C73	C	1.845518	0.727976	0.179140
H74	H	1.863551	0.908665	0.247327
H75	H	1.777566	0.908876	0.161339
H76	H	1.793808	0.765062	0.316868
H77	H	1.707829	0.765235	0.230888
H78	H	1.830170	0.745970	0.108521
H79	H	1.916151	0.745768	0.194515
H80	H	1.835707	0.654806	0.188832
C81	C	1.658669	0.365498	1.121053
C82	C	1.635844	0.261559	1.094342
C83	C	1.703016	0.194154	1.149067
H84	H	1.649126	0.374942	1.194271
H85	H	1.729267	0.380827	1.103058
H86	H	1.565262	0.246236	1.112344
H87	H	1.645393	0.252082	1.021134
H88	H	1.773614	0.209483	1.131072
H89	H	1.693467	0.203607	1.222282
H90	H	1.687545	0.123625	1.130945
C91	C	1.133120	0.365672	0.366176
C92	C	1.061578	0.306782	0.307420
C93	C	1.116219	0.239457	0.240201
H94	H	1.175955	0.319849	0.406322
H95	H	1.175869	0.405782	0.320271
H96	H	1.018846	0.266675	0.353319
H97	H	1.018740	0.352577	0.267252
H98	H	1.158969	0.279567	0.194296
H99	H	1.159053	0.193641	0.280356
H100	H	1.067686	0.199499	0.200320
H101	H	1.118483	0.628086	0.627889
H102	H	1.652777	0.806432	0.371906
H103	H	1.653017	1.204560	0.372068
H104	H	1.774908	1.105026	0.250224
H105	H	1.384136	1.204557	0.640619
C106	C	1.244049	1.120052	0.780680
C107	C	1.303547	1.182950	0.848073
C108	C	1.236544	1.237973	0.915302
H109	H	1.203960	1.071788	0.820746
H110	H	1.198336	1.162993	0.740497
H111	H	1.349242	1.140012	0.888252
H112	H	1.343635	1.231233	0.808036
H113	H	1.190830	1.280914	0.875119
H114	H	1.196457	1.189702	0.955361
H115	H	1.276903	1.280663	0.961030
C116	C	0.904676	0.646295	0.646301
C117	C	0.931449	0.623564	0.750284
C118	C	0.876758	0.690786	0.817565
H119	H	0.831453	0.636733	0.636853
H120	H	0.922657	0.716883	0.630862
H121	H	0.913461	0.552993	0.765717
H122	H	1.004662	0.633133	0.759765
H123	H	0.894739	0.761374	0.802126
H124	H	0.803538	0.681218	0.808108
H125	H	0.894923	0.675379	0.888124
C126	C	1.658640	0.365865	0.892155
C127	C	1.644254	0.380297	0.784318
C128	C	1.711416	0.313243	0.729265
H129	H	1.643353	0.295226	0.910020
H130	H	1.729254	0.381243	0.910085
H131	H	1.573657	0.364911	0.766396
H132	H	1.659550	0.450922	0.766423
H133	H	1.782030	0.328621	0.747195
H134	H	1.696123	0.242608	0.747138
H135	H	1.701671	0.323033	0.656093
C136	C	1.243811	0.891196	0.780713
C137	C	1.266650	0.917801	0.884687
C138	C	1.199462	0.863090	0.952008
H139	H	1.253328	0.817976	0.771216
H140	H	1.173219	0.909274	0.765356
H141	H	1.337226	0.899717	0.900039
H142	H	1.257127	0.991012	0.894216
H143	H	1.128869	0.881168	0.936650
H144	H	1.208984	0.789873	0.942502
H145	H	1.214942	0.881141	1.022561
H146	H	1.383902	0.806429	0.640460
