data_functionalizedCrystal
_audit_creation_method	'MofGen! by Chris Wilmer'
_symmetry_space_group_name_H-M	'P1'
_symmetry_Int_Tables_number	1
_symmetry_cell_setting	triclinic
loop_
_symmetry_equiv_pos_as_xyz
  x,y,z
_cell_length_a	17.699083
_cell_length_b	16.109301
_cell_length_c	16.776229
_cell_angle_alpha	89.991926
_cell_angle_beta	90.001114
_cell_angle_gamma	96.627752
loop_
_atom_site_label
_atom_site_type_symbol
_atom_site_fract_x
_atom_site_fract_y
_atom_site_fract_z
O1	O	1.004229	-0.105139	0.066179
O2	O	0.783870	-0.118818	0.066205
O3	O	0.900103	0.009063	0.066183
O4	O	0.887996	-0.233020	0.066201
O5	O	0.900087	0.009070	-0.066393
O6	O	0.783854	-0.118811	-0.066371
O7	O	1.004213	-0.105132	-0.066398
Zn8	Zn	0.894031	-0.111970	-0.087434
Zn9	Zn	0.894052	-0.111980	0.087242
O10	O	0.887980	-0.233012	-0.066375
C11	C	0.755664	-0.118324	-0.000080
C12	C	0.671644	-0.116854	-0.000070
C13	C	0.899604	0.040040	-0.000105
C14	C	0.898134	0.132333	-0.000106
N15	N	0.894023	-0.111962	-0.206645
C16	C	0.623130	-0.191917	-0.000064
C17	C	0.544185	-0.190531	-0.000075
C18	C	0.513755	-0.114080	-0.000085
C19	C	0.562275	-0.039011	-0.000093
C20	C	0.641219	-0.040398	-0.000088
C21	C	0.243904	-0.033414	-0.000113
C22	C	0.164954	-0.032032	-0.000115
C23	C	0.146870	-0.183546	-0.000100
C24	C	0.225814	-0.184934	-0.000095
C25	C	0.274327	-0.109865	-0.000107
C26	C	0.359928	-0.111369	-0.000097
C27	C	0.428155	-0.112575	-0.000089
C28	C	1.032419	-0.105626	-0.000111
C29	C	1.116439	-0.107096	-0.000115
C30	C	0.888478	-0.263990	-0.000085
C31	C	0.889949	-0.356283	-0.000079
C32	C	0.963686	0.354719	-0.000101
C33	C	0.962298	0.441437	-0.000095
C34	C	0.824392	0.421325	-0.000081
C35	C	0.825780	0.334608	-0.000082
C36	C	0.895429	0.301308	-0.000096
C37	C	0.892654	0.474742	-0.000089
C38	C	0.891149	0.568766	-0.000081
C39	C	0.896934	0.207278	-0.000102
C40	C	0.945507	-0.055360	-0.248372
C41	C	0.945511	-0.055359	-0.331824
C42	C	0.894034	-0.111965	-0.373548
C43	C	0.842545	-0.168571	-0.331815
C44	C	0.842538	-0.168567	-0.248364
C45	C	0.842573	-0.168587	-0.668362
C46	C	0.842585	-0.168588	-0.751819
C47	C	0.945545	-0.055379	-0.751822
C48	C	0.945538	-0.055375	-0.668371
C49	C	0.894047	-0.111977	-0.626646
C50	C	0.894042	-0.111976	-0.536157
C51	C	0.894042	-0.111971	-0.464035
N52	N	0.894066	-0.111981	0.206453
H53	H	0.647900	-0.254172	-0.000056
Cl54	Cl	0.777810	-0.239725	-0.195909
Cl55	Cl	1.010233	0.015800	-0.384282
Cl56	Cl	0.483199	-0.284901	-0.000063
H57	H	0.140182	0.030227	-0.000124
Cl58	Cl	1.051244	0.312858	-0.000117
H59	H	0.250585	-0.247188	-0.000083
H60	H	0.767686	0.448449	-0.000071
H61	H	0.770194	0.291119	-0.000076
H62	H	1.017880	0.484921	-0.000097
H63	H	0.987457	-0.009284	-0.634402
Cl64	Cl	0.777845	-0.239745	-0.615913
Cl65	Cl	1.010227	0.015803	-0.195928
H66	H	0.987470	-0.009288	-0.785804
Cl67	Cl	0.524020	0.057100	-0.000110
H68	H	0.800664	-0.214686	-0.785789
H69	H	0.107361	-0.244671	-0.000094
Cl70	Cl	0.777827	-0.239731	-0.384266
H71	H	0.283394	0.027712	-0.000123
H72	H	0.680719	0.020726	-0.000092
