data_functionalizedCrystal
_audit_creation_method	'MofGen! by Chris Wilmer'
_symmetry_space_group_name_H-M	'P1'
_symmetry_Int_Tables_number	1
_symmetry_cell_setting	triclinic
loop_
_symmetry_equiv_pos_as_xyz
  x,y,z
_cell_length_a	16.120530
_cell_length_b	16.120507
_cell_length_c	16.120297
_cell_angle_alpha	95.611825
_cell_angle_beta	89.871860
_cell_angle_gamma	89.824460
loop_
_atom_site_label
_atom_site_type_symbol
_atom_site_fract_x
_atom_site_fract_y
_atom_site_fract_z
Zn1	Zn	1.224927	0.422262	0.554794
Zn2	Zn	1.558260	0.755595	0.888127
Zn3	Zn	1.891593	1.088929	1.221461
Zn4	Zn	1.224803	0.554945	0.422093
Zn5	Zn	1.558136	0.888279	0.755426
Zn6	Zn	1.891470	1.221612	1.088760
Zn7	Zn	1.093668	0.408178	0.408037
Zn8	Zn	1.427001	0.741511	0.741371
Zn9	Zn	1.760335	1.074845	1.074704
Zn10	Zn	1.078800	0.554178	0.554026
Zn11	Zn	1.412134	0.887511	0.887359
Zn12	Zn	1.745467	1.220845	1.220692
O13	O	1.155550	0.484891	0.484738
O14	O	1.488883	0.818224	0.818071
O15	O	1.822216	1.151557	1.151404
O16	O	1.340945	0.446078	0.543395
O17	O	1.674278	0.779412	0.876728
O18	O	2.007612	1.112745	1.210062
O19	O	1.213578	0.529903	0.303596
O20	O	1.546912	0.863237	0.636929
O21	O	1.880245	1.196570	0.970263
O22	O	1.117353	0.293416	0.421944
O23	O	1.450687	0.626750	0.755278
O24	O	1.784020	0.960083	1.088611
O25	O	1.340854	0.543560	0.445900
O26	O	1.674188	0.876894	0.779233
O27	O	2.007521	1.210227	1.112567
O28	O	1.213789	0.303764	0.529766
O29	O	1.547122	0.637097	0.863099
O30	O	1.880455	0.970430	1.196433
O31	O	1.117234	0.422074	0.293269
O32	O	1.450567	0.755407	0.626603
O33	O	1.783900	1.088741	0.959936
O34	O	0.975661	0.421330	0.421199
O35	O	1.308994	0.754663	0.754532
O36	O	1.642328	1.087996	1.087866
O37	O	1.092014	0.542252	0.670760
O38	O	1.425347	0.875585	1.004093
O39	O	1.758681	1.208919	1.337427
O40	O	0.964738	0.528595	0.528456
O41	O	1.298071	0.861928	0.861789
O42	O	1.631404	1.195262	1.195123
O43	O	1.199372	0.445334	0.671325
O44	O	1.532706	0.778667	1.004658
O45	O	1.866039	1.112001	1.337991
O46	O	1.199162	0.671474	0.445155
O47	O	1.532495	1.004807	0.778488
O48	O	1.865829	1.338140	1.111822
O49	O	1.091894	0.670910	0.542085
O50	O	1.425228	1.004243	0.875418
O51	O	1.758561	1.337576	1.208752
C52	C	0.940113	0.473351	0.473219
C53	C	1.273446	0.806685	0.806553
C54	C	1.606779	1.140018	1.139886
C55	C	0.847946	0.468436	0.468313
C56	C	1.181279	0.801769	0.801646
C57	C	1.514612	1.135102	1.134979
C58	C	0.679196	0.459442	0.459360
C59	C	1.012529	0.792775	0.792694
C60	C	1.345862	1.126109	1.126027
C61	C	0.632737	0.510404	0.510179
C62	C	0.966071	0.843737	0.843512
C63	C	1.299404	1.177071	1.176845
C64	C	0.538839	0.505400	0.505197
C65	C	0.872172	0.838733	0.838531
C66	C	1.205506	1.172066	1.171864
C67	C	0.773103	0.464445	0.464340
C68	C	1.106436	0.797778	0.797674
C69	C	1.439769	1.131112	1.131007
C70	C	1.143923	0.701435	0.495081
C71	C	1.477256	1.034768	0.828415
C72	C	1.810590	1.368101	1.161748
C73	C	1.139023	0.794078	0.499538
C74	C	1.472357	1.127412	0.832871
C75	C	1.805690	1.460745	1.166205
C76	C	1.181035	1.005235	0.461749
C77	C	1.514368	1.338568	0.795083
C78	C	1.847702	1.671901	1.128416
C79	C	1.130093	0.963695	0.507685
C80	C	1.463426	1.297029	0.841018
C81	C	1.796759	1.630362	1.174352
C82	C	1.135063	0.869312	0.503151
C83	C	1.468397	1.202645	0.836484
C84	C	1.801730	1.535978	1.169817
C85	C	1.176066	1.099627	0.466283
C86	C	1.509399	1.432960	0.799616
C87	C	1.842732	1.766294	1.132949
C88	C	1.371828	0.496476	0.496301
C89	C	1.705161	0.829809	0.829635
C90	C	2.038494	1.163143	1.162968
C91	C	1.463992	0.501413	0.501229
C92	C	1.797326	0.834746	0.834562
C93	C	2.130659	1.168080	1.167896
C94	C	1.144049	0.495278	0.702129
C95	C	1.477382	0.828612	1.035463
C96	C	1.810715	1.161945	1.368796
C97	C	1.139147	0.499705	0.794769
C98	C	1.472481	0.833038	1.128102
C99	C	1.805814	1.166372	1.461435
C100	C	1.167212	1.267501	0.474359
C101	C	1.500545	1.600835	0.807692
C102	C	1.833879	1.934168	1.141025
C103	C	1.172102	1.174857	0.469899
C104	C	1.505435	1.508190	0.803232
C105	C	1.838769	1.841524	1.136565
C106	C	1.167057	0.474486	0.268191
C107	C	1.500390	0.807819	0.601524
C108	C	1.833723	1.141153	0.934858
C109	C	1.172131	0.469833	0.175550
C110	C	1.505464	0.803167	0.508883
C111	C	1.838798	1.136500	0.842216
C112	C	1.130170	0.507767	0.964380
C113	C	1.463503	0.841100	1.297713
C114	C	1.796837	1.174433	1.631046
C115	C	1.181106	0.461774	1.005944
C116	C	1.514439	0.795107	1.339277
C117	C	1.847772	1.128441	1.672611
C118	C	1.176111	0.466259	1.100321
C119	C	1.509444	0.799593	1.433655
C120	C	1.842777	1.132926	1.766988
C121	C	1.135164	0.503282	0.869994
C122	C	1.468497	0.836616	1.203327
C123	C	1.801831	1.169949	1.536660
H124	H	0.663483	0.557791	0.557427
H125	H	0.996816	0.891124	0.890761
H126	H	1.330150	1.224458	1.224094
H127	H	0.648452	0.412058	0.412116
H128	H	0.981785	0.745392	0.745449
H129	H	1.315119	1.078725	1.078783
Br130	Br	1.051176	1.022562	0.578907
Br131	Br	1.384510	1.355895	0.912240
Br132	Br	1.717843	1.689229	1.245574
H133	H	1.228378	0.969917	0.419020
H134	H	1.561711	1.303250	0.752353
H135	H	1.895044	1.636584	1.085686
H136	H	1.228464	0.419028	0.970649
H137	H	1.561797	0.752362	1.303982
H138	H	1.895131	1.085695	1.637315
H139	H	1.082815	0.550509	0.999673
H140	H	1.416149	0.883842	1.333006
H141	H	1.749482	1.217175	1.666339
