data_functionalizedCrystal
_audit_creation_method	'MofGen! by Chris Wilmer'
_symmetry_space_group_name_H-M	'P1'
_symmetry_Int_Tables_number	1
_symmetry_cell_setting	triclinic
loop_
_symmetry_equiv_pos_as_xyz
  x,y,z
_cell_length_a	8.559649
_cell_length_b	10.268362
_cell_length_c	8.597267
_cell_angle_alpha	97.698276
_cell_angle_beta	102.376255
_cell_angle_gamma	90.004416
loop_
_atom_site_label
_atom_site_type_symbol
_atom_site_fract_x
_atom_site_fract_y
_atom_site_fract_z
O1	O	2.119299	0.114242	0.053141
O2	O	2.619299	0.614242	0.553141
O3	O	1.655357	0.105170	-0.027759
O4	O	2.155357	0.605170	0.472241
O5	O	1.896466	0.135462	0.242258
O6	O	2.396466	0.635462	0.742258
O7	O	1.878191	0.083950	-0.216876
O8	O	2.378191	0.583950	0.283124
O9	O	1.896444	-0.081138	0.242266
O10	O	2.396444	0.418862	0.742266
O11	O	1.655336	-0.111430	-0.027752
O12	O	2.155336	0.388570	0.472248
O13	O	2.119278	-0.102357	0.053149
O14	O	2.619278	0.397643	0.553149
Cu15	Cu	1.887305	-0.126671	0.012699
Cu16	Cu	2.387305	0.373329	0.512699
Cu17	Cu	1.887330	0.129484	0.012691
Cu18	Cu	2.387330	0.629484	0.512691
O19	O	1.878169	-0.132649	-0.216868
O20	O	2.378169	0.367351	0.283132
C21	C	1.595912	-0.003817	-0.033886
C22	C	2.095912	0.496183	0.466114
C23	C	1.418816	-0.005862	-0.052135
C24	C	1.918816	0.494138	0.447865
N25	N	1.887299	-0.306836	0.012708
N26	N	2.387299	0.193164	0.512708
C27	C	1.887322	-0.572508	0.012693
C28	C	2.387322	-0.072508	0.512693
C29	C	1.887304	-0.424670	0.012696
C30	C	2.387304	0.075330	0.512696
C31	C	2.178723	0.006632	0.059276
C32	C	2.678723	0.506632	0.559276
C33	C	2.355819	0.008687	0.077525
C34	C	2.855819	0.508687	0.577525
C35	C	1.894495	0.033699	0.300497
C36	C	2.394495	0.533699	0.800497
C37	C	1.888638	0.053175	0.474017
C38	C	2.388638	0.553175	0.974017
N39	N	1.887349	0.309650	0.012696
N40	N	2.387349	0.809650	0.512696
C41	C	1.880144	-0.030884	0.724894
C42	C	2.380144	0.469116	1.224894
C43	C	1.886013	-0.050353	0.551377
C44	C	2.386013	0.449647	1.051377
H45	H	1.337259	-0.019877	-0.177113
H46	H	1.837259	0.480123	0.322887
H47	H	1.886407	0.156705	0.540534
H48	H	2.386407	0.656705	1.040534
C49	C	1.888667	-0.188390	0.462520
C50	C	2.388667	0.311610	0.962520
C51	C	1.754959	-0.209530	0.334782
C52	C	2.254959	0.290470	0.834782
C53	C	1.757337	-0.336675	0.252903
C54	C	2.257337	0.163325	0.752903
H55	H	1.983469	-0.197917	0.421908
H56	H	2.483469	0.302083	0.921908
H57	H	1.886147	-0.250776	0.534245
H58	H	2.386147	0.249224	1.034245
H59	H	1.757492	-0.147162	0.263070
H60	H	2.257492	0.352838	0.763070
H61	H	1.660135	-0.200030	0.375350
H62	H	2.160135	0.299970	0.875350
H63	H	1.754817	-0.399062	0.324628
H64	H	2.254817	0.100938	0.824628
H65	H	1.852145	-0.346191	0.212301
H66	H	2.352145	0.153809	0.712301
H67	H	1.666611	-0.351040	0.166233
H68	H	2.166611	0.148960	0.666233
H69	H	1.437367	0.022714	0.202494
H70	H	1.937367	0.522714	0.702494
