data_functionalizedCrystal
_audit_creation_method	'MofGen! by Chris Wilmer'
_symmetry_space_group_name_H-M	'P1'
_symmetry_Int_Tables_number	1
_symmetry_cell_setting	triclinic
loop_
_symmetry_equiv_pos_as_xyz
  x,y,z
_cell_length_a	10.654550
_cell_length_b	9.065218
_cell_length_c	9.130313
_cell_angle_alpha	90.000552
_cell_angle_beta	89.996220
_cell_angle_gamma	84.750394
loop_
_atom_site_label
_atom_site_type_symbol
_atom_site_fract_x
_atom_site_fract_y
_atom_site_fract_z
O1	O	1.668655	0.207228	-0.121914
O2	O	1.303255	0.226972	-0.121889
O3	O	1.493507	0.002416	-0.121899
O4	O	1.478402	0.431784	-0.121904
O5	O	1.493505	0.002422	0.121700
O6	O	1.303252	0.226978	0.121709
O7	O	1.668653	0.207234	0.121685
Cu8	Cu	1.485952	0.217107	0.143940
Cu9	Cu	1.485955	0.217100	-0.144144
O10	O	1.478400	0.431790	0.121695
C11	C	1.256450	0.225525	-0.000087
C12	C	1.116989	0.221188	-0.000078
C13	C	1.038027	0.353403	-0.000101
C14	C	0.906990	0.349319	-0.000126
C15	C	0.933890	0.080793	-0.000112
C16	C	1.064925	0.084879	-0.000076
C17	C	1.022496	0.508434	-0.000115
C18	C	0.891459	0.504350	-0.000141
C19	C	1.492055	-0.052559	-0.000102
C20	C	1.487714	-0.216378	-0.000109
C21	C	1.715457	0.208681	-0.000120
C22	C	1.854918	0.213018	-0.000139
C23	C	1.479852	0.486766	-0.000106
C24	C	1.484193	0.650585	-0.000108
N25	N	1.485959	0.217111	0.346563
N26	N	1.485957	0.217084	-0.346767
C27	C	1.570225	0.117712	0.423210
C28	C	1.570222	0.117694	0.576547
C29	C	1.401682	0.316488	0.576575
C30	C	1.401681	0.316497	0.423241
C31	C	1.667534	0.002944	0.423195
C32	C	1.667531	0.002926	0.576532
H33	H	1.333054	0.397423	0.360836
C34	C	1.625739	-0.141838	0.640788
H35	H	1.627152	-0.136905	0.744705
H36	H	1.681601	-0.223071	0.608654
H37	H	1.542661	-0.154826	0.608664
H38	H	1.052066	0.569069	0.101835
H39	H	1.058348	0.557796	-0.105288
C40	C	0.830000	0.567645	0.141922
H41	H	0.893304	0.598668	0.205201
H42	H	0.787224	0.493416	0.189126
H43	H	0.771566	0.649924	0.119076
C44	C	1.798035	0.037081	0.632755
H45	H	1.851705	0.051154	0.551824
H46	H	1.833456	-0.043370	0.690544
H47	H	1.789452	0.124556	0.690566
C48	C	1.308991	0.425812	0.660926
H49	H	1.321064	0.411577	0.763224
H50	H	1.224991	0.408876	0.635799
H51	H	1.323754	0.524442	0.635805
H52	H	0.849958	0.562761	-0.102095
C53	C	0.876620	-0.069138	-0.000119
H54	H	0.942418	-0.147296	-0.000091
H55	H	0.826080	-0.076320	-0.085076
H56	H	0.826047	-0.076307	0.084831
C57	C	1.637950	-0.150247	0.366963
H58	H	1.625771	-0.213252	0.447889
H59	H	1.706279	-0.192173	0.309153
H60	H	1.563525	-0.139818	0.309170
C61	C	1.790907	0.051473	0.358928
H62	H	1.845851	0.073070	0.436413
H63	H	1.772736	0.137389	0.300370
H64	H	1.830260	-0.026124	0.300365
C65	C	1.151784	-0.060552	-0.000037
H66	H	1.237281	-0.038601	-0.000004
H67	H	1.135859	-0.116401	-0.084983
H68	H	1.135812	-0.116371	0.084924
