data_functionalizedCrystal
_audit_creation_method	'MofGen! by Chris Wilmer'
_symmetry_space_group_name_H-M	'P1'
_symmetry_Int_Tables_number	1
_symmetry_cell_setting	triclinic
loop_
_symmetry_equiv_pos_as_xyz
  x,y,z
_cell_length_a	17.638336
_cell_length_b	17.638516
_cell_length_c	21.395355
_cell_angle_alpha	78.812630
_cell_angle_beta	101.218151
_cell_angle_gamma	92.169210
loop_
_atom_site_label
_atom_site_type_symbol
_atom_site_fract_x
_atom_site_fract_y
_atom_site_fract_z
Zn1	Zn	1.099769	-0.537579	0.616302
Zn2	Zn	1.073981	-0.664524	0.527727
Zn3	Zn	0.972771	-0.511853	0.487100
Zn4	Zn	0.947069	-0.638794	0.608042
O5	O	1.023398	-0.588188	0.559793
O6	O	1.202610	-0.575954	0.625011
O7	O	1.060520	-0.644273	0.434655
O8	O	1.011167	-0.409013	0.490693
O9	O	1.183664	-0.669219	0.559936
O10	O	1.104471	-0.427915	0.585617
O11	O	0.986162	-0.532106	0.404806
O12	O	0.863100	-0.507157	0.482684
O13	O	0.967360	-0.625367	0.696821
O14	O	0.844216	-0.600421	0.571540
O15	O	1.079548	-0.551004	0.702889
O16	O	1.035597	-0.767363	0.551927
O17	O	0.942355	-0.748460	0.610934
C18	C	0.826105	-0.548206	0.521807
C19	C	0.741699	-0.531120	0.505574
C20	C	0.632555	-0.458406	0.436485
C21	C	0.711867	-0.474466	0.451744
C22	C	0.692223	-0.571738	0.544166
C23	C	0.612908	-0.555688	0.528913
C24	C	0.583081	-0.499021	0.475072
C25	C	0.563434	-0.596303	0.567500
C26	C	0.484126	-0.580252	0.552250
C27	C	0.454293	-0.523585	0.498412
C28	C	0.503773	-0.482969	0.459822
C29	C	0.593263	-0.652966	0.621343
C30	C	0.543788	-0.693581	0.659930
C31	C	0.464478	-0.677534	0.644678
C32	C	0.434645	-0.620868	0.590840
C33	C	0.414998	-0.718150	0.683268
C34	C	0.335690	-0.702099	0.668018
C35	C	0.355337	-0.604816	0.575590
C36	C	0.983409	-0.785466	0.584960
C37	C	0.966372	-0.869876	0.595761
C38	C	1.153287	-1.196609	0.477873
C39	C	1.137265	-1.275922	0.488030
C40	C	1.040090	-1.256266	0.549395
C41	C	1.056102	-1.176949	0.539241
C42	C	1.112702	-1.147127	0.503480
C43	C	1.015516	-1.127466	0.564847
C44	C	1.031530	-1.048156	0.554696
C45	C	1.088129	-1.018328	0.518939
C46	C	1.128715	-1.067817	0.493329
C47	C	0.958920	-1.157291	0.600612
C48	C	0.918335	-1.107809	0.626218
C49	C	0.934344	-1.028496	0.616063
C50	C	0.990943	-0.998668	0.580306
C51	C	0.893758	-0.979008	0.641673
C52	C	0.909772	-0.899698	0.631522
C53	C	1.006957	-0.919358	0.570155
C54	C	1.221460	-0.628326	0.597927
C55	C	1.305863	-0.645431	0.614177
C56	C	1.023464	-0.588185	0.723226
C57	C	1.023492	-0.588184	0.792872
C58	C	1.063563	-0.390144	0.534545
C59	C	1.080679	-0.305749	0.523785
C60	C	1.023386	-0.588144	0.396997
C61	C	1.023549	-0.587961	0.327352
C62	C	1.081907	-0.549461	0.828745
C63	C	1.081912	-0.549428	0.894176
C64	C	1.023508	-0.588133	0.923735
C65	C	0.965083	-0.626858	0.887852
C66	C	0.965075	-0.626883	0.822421
C67	C	1.003654	-0.655287	1.034978
C68	C	1.003667	-0.655264	1.100409
C69	C	1.023529	-0.588054	1.125546
C70	C	1.043394	-0.520868	1.085247
C71	C	1.043386	-0.520894	1.019815
C72	C	1.023510	-0.588110	0.994684
C73	C	1.081953	-0.549292	1.232367
C74	C	1.081954	-0.549257	1.297799
C75	C	0.965128	-0.626694	1.291475
C76	C	0.965125	-0.626722	1.226043
C77	C	1.023541	-0.588023	1.196495
H78	H	0.752149	-0.441381	0.420322
O79	O	0.670288	-0.668631	0.636268
C80	C	0.686004	-0.727363	0.692057
H81	H	0.638157	-0.728815	0.721228
H82	H	0.743709	-0.715231	0.723151
H83	H	0.688857	-0.785532	0.676904
O84	O	1.138688	-0.511974	0.800029
C85	C	1.178954	-0.565134	0.777124
H86	H	1.171549	-0.625883	0.805385
H87	H	1.242956	-0.549492	0.784120
H88	H	1.154919	-0.563013	0.723346
H89	H	1.170321	-1.316210	0.467178
H90	H	0.439297	-0.764283	0.727109
O91	O	1.208310	-1.167763	0.443136
C92	C	1.240681	-1.228439	0.422689
H93	H	1.231894	-1.285488	0.456091
H94	H	1.305149	-1.217595	0.424617
H95	H	1.211180	-1.231296	0.370824
O96	O	0.908367	-0.664571	0.916514
C97	C	0.909624	-0.743619	0.913399
H98	H	0.938488	-0.751125	0.871718
H99	H	0.847915	-0.766559	0.904944
H100	H	0.943483	-0.777092	0.961015
H101	H	1.129516	-0.517776	1.208306
O102	O	1.061833	-0.890323	0.535321
C103	C	1.027872	-0.835736	0.480655
H104	H	0.963231	-0.847577	0.468298
H105	H	1.055543	-0.840405	0.437631
H106	H	1.037378	-0.775088	0.491830
O107	O	1.062820	-0.455595	1.109656
C108	C	1.138744	-0.433566	1.102306
H109	H	1.171753	-0.486069	1.098022
H110	H	1.169181	-0.409400	1.146350
H111	H	1.136691	-0.387414	1.056604
H112	H	0.608269	-0.412261	0.392642
O113	O	1.138737	-0.511805	0.928947
C114	C	1.190282	-0.477636	0.888831
H115	H	1.186596	-0.509282	0.846664
H116	H	1.251755	-0.481662	0.918238
H117	H	1.174177	-0.414334	0.869152
H118	H	0.994008	-1.280559	0.578514
H119	H	0.917504	-0.658414	0.793212
H120	H	0.716520	-0.617875	0.588004
H121	H	0.917561	-0.658259	1.196836
H122	H	0.331051	-0.558672	0.531748
H123	H	0.945887	-1.221871	0.608879
O124	O	0.838871	-1.007966	0.676514
C125	C	0.859344	-0.991867	0.739666
H126	H	0.924418	-0.982296	0.751749
H127	H	0.842263	-1.042682	0.776030
H128	H	0.827907	-0.937606	0.742286
H129	H	0.568085	-0.739718	0.703769
O130	O	0.287730	-0.741640	0.705555
C131	C	0.331065	-0.795081	0.756357
H132	H	0.387053	-0.809115	0.741887
H133	H	0.296028	-0.850277	0.766196
H134	H	0.345154	-0.769068	0.802068
O135	O	1.138777	-0.511629	1.332562
C136	C	1.190321	-0.477465	1.292442
H137	H	1.186636	-0.509118	1.250280
H138	H	1.251794	-0.481488	1.321849
H139	H	1.174215	-0.414165	1.272758
O140	O	1.103806	-0.941311	0.509039
C141	C	1.162450	-0.925599	0.471971
H142	H	1.197598	-0.980265	0.477618
H143	H	1.201975	-0.878340	0.489644
H144	H	1.135199	-0.905488	0.418678
O145	O	1.183637	-1.038913	0.458501
C146	C	1.163140	-1.054968	0.395336
H147	H	1.122323	-1.106667	0.395772
H148	H	1.217416	-1.068751	0.378169
H149	H	1.133106	-1.002470	0.360991
O150	O	0.908474	-0.664290	1.320289
C151	C	0.920996	-0.655950	1.385730
H152	H	0.984641	-0.642946	1.402786
H153	H	0.904324	-0.711775	1.416867
H154	H	0.884150	-0.606388	1.390455
H155	H	0.872253	-1.132101	0.655337
O156	O	0.870466	-0.851611	0.656476
C157	C	0.922956	-0.814417	0.699399
H158	H	0.977941	-0.850390	0.717878
H159	H	0.895647	-0.807931	0.742188
H160	H	0.937725	-0.754855	0.672840
H161	H	0.987280	-0.709962	1.014477
H162	H	0.389715	-0.510514	0.485999
O163	O	1.062559	-0.455650	0.980584
C164	C	0.999882	-0.432779	0.929037
H165	H	0.961354	-0.484842	0.921403
H166	H	1.022636	-0.408599	0.882796
H167	H	0.964975	-0.386403	0.941231
O168	O	0.474862	-0.427978	0.407454
C169	C	0.490831	-0.448377	0.350799
H170	H	0.542506	-0.489212	0.364247
H171	H	0.504622	-0.394067	0.316295
H172	H	0.438280	-0.478345	0.326040
O173	O	0.984320	-0.720581	1.139456
C174	C	0.966794	-0.779910	1.103243
H175	H	0.949272	-0.753331	1.049533
H176	H	0.917110	-0.816322	1.120018
H177	H	1.019826	-0.818052	1.110893
