data_functionalizedCrystal
_audit_creation_method	'MofGen! by Chris Wilmer'
_symmetry_space_group_name_H-M	'P1'
_symmetry_Int_Tables_number	1
_symmetry_cell_setting	triclinic
loop_
_symmetry_equiv_pos_as_xyz
  x,y,z
_cell_length_a	14.044220
_cell_length_b	10.654541
_cell_length_c	9.130307
_cell_angle_alpha	90.003083
_cell_angle_beta	89.996652
_cell_angle_gamma	88.836403
loop_
_atom_site_label
_atom_site_type_symbol
_atom_site_fract_x
_atom_site_fract_y
_atom_site_fract_z
O1	O	-1.259693	-0.302984	-0.121643
O2	O	-0.759693	0.197016	0.378357
O3	O	-0.983652	-0.292051	-0.121680
O4	O	-0.483652	0.207949	0.378320
O5	O	-1.128020	-0.115416	-0.121651
O6	O	-0.628020	0.384584	0.378349
O7	O	-1.115324	-0.479619	-0.121671
O8	O	-0.615324	0.020381	0.378329
O9	O	-1.128015	-0.115413	0.121948
O10	O	-0.628015	0.384587	0.621948
O11	O	-0.983647	-0.292048	0.121919
O12	O	-0.483647	0.207952	0.621919
O13	O	-1.259688	-0.302982	0.121956
O14	O	-0.759688	0.197018	0.621956
Cu15	Cu	-1.121667	-0.297515	0.144180
Cu16	Cu	-0.621667	0.202485	0.644180
Cu17	Cu	-1.121672	-0.297518	-0.143904
Cu18	Cu	-0.621672	0.202482	0.356096
O19	O	-1.115319	-0.479617	0.121928
O20	O	-0.615319	0.020383	0.621928
C21	C	-1.127086	-0.068523	0.000147
C22	C	-0.627086	0.431477	0.500147
C23	C	-1.124298	0.071201	0.000144
C24	C	-0.624298	0.571201	0.500144
C25	C	-0.948303	-0.287264	0.000115
C26	C	-0.448303	0.212736	0.500115
C27	C	-0.842984	-0.272988	0.000101
C28	C	-0.342984	0.227012	0.500101
C29	C	-1.295036	-0.307769	0.000158
C30	C	-0.795036	0.192231	0.500158
C31	C	-1.400356	-0.322044	0.000163
C32	C	-0.900356	0.177956	0.500163
C33	C	-0.650151	-0.246889	0.000132
C34	C	-0.150151	0.253111	0.500132
C35	C	-0.593183	-0.348138	0.000132
C36	C	-0.093183	0.151862	0.500132
C37	C	-0.485884	-0.333616	0.000149
C38	C	0.014116	0.166384	0.500149
C39	C	-0.757460	-0.261409	0.000115
C40	C	-0.257460	0.238591	0.500115
C41	C	-1.116253	-0.526510	0.000126
C42	C	-0.616253	-0.026510	0.500126
C43	C	-1.119041	-0.666233	0.000120
C44	C	-0.619041	-0.166233	0.500120
N45	N	-1.121670	-0.297513	0.346803
N46	N	-0.621670	0.202487	0.846803
C47	C	-1.296930	0.081824	0.000186
C48	C	-0.796930	0.581824	0.500186
C49	C	-1.381932	0.152776	0.000210
C50	C	-0.881932	0.652776	0.500210
C51	C	-1.379307	0.284058	0.000205
C52	C	-0.879307	0.784058	0.500205
C53	C	-1.291671	0.344390	0.000172
C54	C	-0.791671	0.844390	0.500172
C55	C	-1.206668	0.273437	0.000148
C56	C	-0.706668	0.773437	0.500148
C57	C	-1.209303	0.142153	0.000158
C58	C	-0.709303	0.642153	0.500158
C59	C	-1.034039	0.262814	0.000096
C60	C	-0.534039	0.762814	0.500096
C61	C	-1.036662	0.131533	0.000111
C62	C	-0.536662	0.631533	0.500111
C63	C	-0.946402	0.323146	0.000063
C64	C	-0.446402	0.823146	0.500063
C65	C	-0.861398	0.252194	0.000050
C66	C	-0.361398	0.752194	0.500050
C67	C	-0.864026	0.120904	0.000056
C68	C	-0.364026	0.620904	0.500056
C69	C	-0.951659	0.060580	0.000088
C70	C	-0.451659	0.560580	0.500088
N71	N	-1.121677	-0.297511	-0.346526
N72	N	-0.621677	0.202489	0.153474
C73	C	-1.249561	-0.141158	0.346818
C74	C	-0.749561	0.358842	0.846818
C75	C	-1.313512	-0.062984	0.423493
C76	C	-0.813512	0.437016	0.923493
C77	C	-1.313522	-0.062984	0.576826
C78	C	-0.813522	0.437016	1.076826
C79	C	-1.249571	-0.141164	0.653489
C80	C	-0.749571	0.358836	1.153489
C81	C	-1.185619	-0.219337	0.576814
C82	C	-0.685619	0.280663	1.076814
C83	C	-1.185619	-0.219331	0.423478
C84	C	-0.685619	0.280669	0.923478
C85	C	-1.057725	-0.375684	0.576799
C86	C	-0.557725	0.124316	1.076799
C87	C	-1.057719	-0.375692	0.423466
C88	C	-0.557719	0.124308	0.923466
C89	C	-0.993774	-0.453863	0.653462
C90	C	-0.493774	0.046137	1.153462
C91	C	-0.929826	-0.532045	0.576788
C92	C	-0.429826	-0.032045	1.076788
C93	C	-0.929819	-0.532042	0.423445
C94	C	-0.429819	-0.032042	0.923445
C95	C	-0.993767	-0.453865	0.346792
C96	C	-0.493767	0.046135	0.846792
H97	H	-0.624995	-0.445725	0.000120
H98	H	-0.124995	0.054275	0.500120
H99	H	-1.448524	0.341828	0.000213
H100	H	-0.948524	0.841828	0.500213
H101	H	-1.365593	0.000676	0.639254
H102	H	-0.865593	0.500676	1.139254
H103	H	-0.790051	0.301327	0.000013
H104	H	-0.290051	0.801327	0.500013
H105	H	-0.953808	-0.046316	0.000102
H106	H	-0.453808	0.453684	0.500102
Cl107	Cl	-0.849433	-0.630309	0.673167
Cl108	Cl	-0.349433	-0.130309	1.173167
H109	H	-1.249575	-0.141148	0.778341
H110	H	-0.749575	0.358852	1.278341
Cl111	Cl	-0.601038	-0.096230	0.000142
Cl112	Cl	-0.101038	0.403770	0.500142
H113	H	-1.299076	-0.025072	0.000210
H114	H	-0.799076	0.474928	0.500210
H115	H	-1.453284	0.103639	0.000250
H116	H	-0.953284	0.603639	0.500250
H117	H	-1.289541	0.451287	0.000150
H118	H	-0.789541	0.951287	0.500150
Cl119	Cl	-0.993779	-0.453860	0.846225
Cl120	Cl	-0.493779	0.046140	1.346225
H121	H	-0.944271	0.430043	0.000050
H122	H	-0.444271	0.930043	0.500050
Cl123	Cl	-0.849412	-0.630317	0.327068
Cl124	Cl	-0.349412	-0.130317	0.827068
H125	H	-0.993771	-0.453861	0.221939
H126	H	-0.493771	0.046139	0.721939
H127	H	-0.794807	0.063142	0.000031
H128	H	-0.294807	0.563142	0.500031
H129	H	-1.249567	-0.141161	0.221966
H130	H	-0.749567	0.358839	0.721966
Cl131	Cl	-1.393902	0.035299	0.327115
Cl132	Cl	-0.893902	0.535299	0.827115
