data_functionalizedCrystal
_audit_creation_method	'MofGen! by Chris Wilmer'
_symmetry_space_group_name_H-M	'P1'
_symmetry_Int_Tables_number	1
_symmetry_cell_setting	triclinic
loop_
_symmetry_equiv_pos_as_xyz
  x,y,z
_cell_length_a	15.711784
_cell_length_b	19.188924
_cell_length_c	14.185569
_cell_angle_alpha	76.888872
_cell_angle_beta	107.179161
_cell_angle_gamma	101.365383
loop_
_atom_site_label
_atom_site_type_symbol
_atom_site_fract_x
_atom_site_fract_y
_atom_site_fract_z
O1	O	1.125814	0.393385	-0.083484
O2	O	1.625814	0.893385	0.416516
O3	O	0.874355	0.340271	-0.083473
O4	O	1.374355	0.840271	0.416527
O5	O	1.007347	0.267043	-0.083467
O6	O	1.507347	0.767043	0.416533
O7	O	0.992822	0.466613	-0.083490
O8	O	1.492822	0.966613	0.416510
O9	O	1.046633	0.245414	0.083369
O10	O	1.546633	0.745414	0.583369
O11	O	0.913642	0.318642	0.083363
O12	O	1.413642	0.818642	0.583363
O13	O	1.165100	0.371756	0.083352
O14	O	1.665100	0.871756	0.583352
Cu15	Cu	1.042958	0.343224	0.098591
Cu16	Cu	1.542958	0.843224	0.598591
Cu17	Cu	0.996497	0.368803	-0.098712
Cu18	Cu	1.496497	0.868803	0.401288
O19	O	1.032109	0.444984	0.083346
O20	O	1.532109	0.944984	0.583346
C21	C	0.861828	0.320780	-0.000054
C22	C	1.361828	0.820780	0.499946
C23	C	0.765969	0.294918	-0.000049
C24	C	1.265969	0.794918	0.499951
C25	C	0.641395	0.197558	-0.000037
C26	C	1.141395	0.697558	0.499963
C27	C	0.731468	0.221866	-0.000041
C28	C	1.231468	0.721866	0.499959
C29	C	0.710402	0.343692	-0.000059
C30	C	1.210402	0.843692	0.499941
C31	C	0.620325	0.319394	-0.000060
C32	C	1.120325	0.819394	0.499940
C33	C	0.585829	0.246327	-0.000048
C34	C	1.085829	0.746327	0.499952
C35	C	0.564759	0.368163	-0.000071
C36	C	1.064759	0.868163	0.499929
C37	C	0.474691	0.343867	-0.000066
C38	C	0.974691	0.843867	0.499934
C39	C	0.440188	0.270802	-0.000051
C40	C	0.940188	0.770802	0.499949
C41	C	0.495761	0.222031	-0.000043
C42	C	0.995761	0.722031	0.499957
C43	C	0.599258	0.441229	-0.000076
C44	C	1.099258	0.941229	0.499924
C45	C	0.543692	0.489998	-0.000087
C46	C	1.043692	0.989998	0.499913
C47	C	0.453621	0.465703	-0.000089
C48	C	0.953621	0.965703	0.499911
C49	C	0.419118	0.392638	-0.000074
C50	C	0.919118	0.892638	0.499926
C51	C	0.398048	0.514474	-0.000097
C52	C	0.898048	1.014474	0.499903
C53	C	0.307980	0.490178	-0.000093
C54	C	0.807980	0.990178	0.499907
C55	C	0.329050	0.368342	-0.000070
C56	C	0.829050	0.868342	0.499930
C57	C	1.026521	0.230096	-0.000048
C58	C	1.526521	0.730096	0.499952
C59	C	1.025113	0.152228	-0.000045
C60	C	1.525113	0.652228	0.499955
C61	C	1.003041	0.127449	-0.090988
C62	C	1.503041	0.627449	0.409012
C63	C	1.001703	0.054283	-0.090996
C64	C	1.501703	0.554283	0.409004
C65	C	1.022457	0.005900	-0.000055
C66	C	1.522457	0.505900	0.499945
C67	C	1.044528	0.030685	0.090899
C68	C	1.544528	0.530685	0.590899
C69	C	1.045856	0.103849	0.090904
C70	C	1.545856	0.603849	0.590904
N71	N	1.085454	-0.110402	0.067627
N72	N	1.585454	0.389598	0.567627
N73	N	1.084192	-0.179904	0.067616
N74	N	1.584192	0.320096	0.567616
C75	C	1.018455	-0.214539	-0.000065
C76	C	1.518455	0.285461	0.499935
N77	N	0.954033	-0.177044	-0.067750
N78	N	1.454033	0.322956	0.432250
N79	N	0.955298	-0.107536	-0.067742
N80	N	1.455298	0.392464	0.432258
C81	C	1.021019	-0.073435	-0.000051
C82	C	1.521019	0.426565	0.499949
C83	C	0.994929	-0.318652	-0.091022
C84	C	1.494929	0.181348	0.408978
C85	C	0.993587	-0.391821	-0.091026
C86	C	1.493587	0.108179	0.408974
C87	C	1.036421	-0.415417	0.090872
C88	C	1.536421	0.084583	0.590872
C89	C	1.037754	-0.342250	0.090873
C90	C	1.537754	0.157750	0.590873
C91	C	1.017011	-0.293871	-0.000077
C92	C	1.517011	0.206129	0.499923
C93	C	1.177627	0.391248	-0.000070
C94	C	1.677627	0.891248	0.499930
C95	C	1.273484	0.417110	-0.000081
C96	C	1.773484	0.917110	0.499919
C97	C	1.012934	0.481931	-0.000075
C98	C	1.512934	0.981931	0.499925
C99	C	1.014340	0.559801	-0.000085
C100	C	1.514340	1.059801	0.499915
N101	N	1.075643	0.325235	0.237364
N102	N	1.575643	0.825235	0.737364
N103	N	0.963819	0.386789	-0.237485
N104	N	1.463819	0.886789	0.262515
C105	C	0.867791	0.439611	0.605004
C106	C	1.367791	0.939611	1.105004
C107	C	0.892556	0.425991	0.710027
C108	C	1.392556	0.925991	1.210027
C109	C	1.010344	0.361188	0.709993
C110	C	1.510344	0.861188	1.209993
C111	C	0.985586	0.374800	0.604968
C112	C	1.485586	0.874800	1.104968
C113	C	0.914310	0.414013	0.552482
C114	C	1.414310	0.914013	1.052482
C115	C	1.032105	0.349202	0.552446
C116	C	1.532105	0.849202	1.052446
C117	C	1.007353	0.362817	0.447431
C118	C	1.507353	0.862817	0.947431
C119	C	0.936082	0.402029	0.394937
C120	C	1.436082	0.902029	0.894937
C121	C	0.889558	0.427627	0.447466
C122	C	1.389558	0.927627	0.947466
C123	C	1.103385	0.309994	0.604934
C124	C	1.603385	0.809994	1.104934
C125	C	1.149904	0.284396	0.552412
C126	C	1.649904	0.784396	1.052412
C127	C	1.125148	0.298006	0.447395
C128	C	1.625148	0.798006	0.947395
C129	C	1.053876	0.337219	0.394901
C130	C	1.553876	0.837219	0.894901
C131	C	1.171671	0.272408	0.394865
C132	C	1.671671	0.772408	0.894865
C133	C	1.146919	0.286022	0.289850
C134	C	1.646919	0.786022	0.789850
C135	C	1.029124	0.350833	0.289886
C136	C	1.529124	0.850833	0.789886
H137	H	0.366851	0.251020	-0.000039
H138	H	0.866851	0.751020	0.499961
C139	C	1.250071	0.229279	0.452603
C140	C	1.750071	0.729279	0.952603
H141	H	1.274235	0.215986	0.406281
H142	H	1.774235	0.715986	0.906281
H143	H	1.228782	0.186984	0.493587
H144	H	1.728782	0.686984	0.993587
H145	H	1.295576	0.258267	0.493551
H146	H	1.795576	0.758267	0.993551
H147	H	1.055735	-0.322075	0.164929
H148	H	1.555735	0.177925	0.664929
H149	H	1.123538	0.298914	0.690445
H150	H	1.623538	0.798914	1.190445
C151	C	0.457807	0.141658	-0.000039
C152	C	0.957807	0.641658	0.499961
H153	H	0.503799	0.116089	-0.000032
H154	H	1.003799	0.616089	0.499968
H155	H	0.409408	0.137194	-0.058216
H156	H	0.909408	0.637194	0.441784
H157	H	0.436813	0.122106	0.058151
H158	H	0.936813	0.622106	0.558151
H159	H	1.063827	0.124021	0.164963
H160	H	1.563827	0.624021	0.664963
H161	H	0.983723	0.034103	-0.165054
H162	H	1.483723	0.534103	0.334946
H163	H	0.613304	0.138061	-0.000038
H164	H	1.113304	0.638061	0.499962
H165	H	0.300960	0.308844	-0.000071
H166	H	0.800960	0.808844	0.499929
H167	H	0.776707	0.182148	-0.000035
H168	H	1.276707	0.682148	0.499965
C169	C	0.969302	-0.419078	-0.191068
C170	C	1.469302	0.080922	0.308932
H171	H	0.957146	-0.379783	-0.245229
H172	H	1.457146	0.120217	0.254771
H173	H	0.917544	-0.454659	-0.194854
H174	H	1.417544	0.045341	0.305146
H175	H	1.018245	-0.439597	-0.194848
H176	H	1.518245	0.060403	0.305152
H177	H	0.971078	0.382757	0.247149
H178	H	1.471078	0.882757	0.747149
H179	H	1.061423	-0.008713	0.164944
H180	H	1.561423	0.491287	0.664944
H181	H	0.978034	-0.279261	-0.165079
H182	H	1.478034	0.220739	0.334921
H183	H	0.915932	0.413117	0.309426
H184	H	1.415932	0.913117	0.809426
C185	C	0.811146	0.470750	0.389720
C186	C	1.311146	0.970750	0.889720
H187	H	0.803066	0.475185	0.319655
H188	H	1.303066	0.975185	0.819655
H189	H	0.824386	0.517473	0.406919
H190	H	1.324386	1.017473	0.906919
H191	H	0.757606	0.446183	0.406950
H192	H	1.257606	0.946183	0.906950
C193	C	0.748352	0.424061	-0.000078
C194	C	1.248352	0.924061	0.499922
H195	H	0.809950	0.431549	-0.000085
H196	H	1.309950	0.931549	0.499915
H197	H	0.742960	0.437573	0.058094
H198	H	1.242960	0.937573	0.558094
H199	H	0.715561	0.452646	-0.058273
H200	H	1.215561	0.952646	0.441727
C201	C	1.088739	0.318054	0.767733
C202	C	1.588739	0.818054	1.267733
H203	H	1.096815	0.313607	0.837799
H204	H	1.596815	0.813607	1.337799
H205	H	1.142280	0.342604	0.750503
H206	H	1.642280	0.842604	1.250503
H207	H	1.075473	0.271328	0.750528
H208	H	1.575473	0.771328	1.250528
C209	C	0.581642	0.570367	-0.000105
C210	C	1.081642	1.070367	0.499895
H211	H	0.643240	0.577855	-0.000113
H212	H	1.143240	1.077855	0.499887
H213	H	0.576250	0.583880	0.058066
H214	H	1.076250	1.083880	0.558066
H215	H	0.548851	0.598952	-0.058301
H216	H	1.048851	1.098952	0.441699
C217	C	0.436002	0.594842	-0.000106
C218	C	0.936002	1.094842	0.499894
H219	H	0.497602	0.602327	-0.000110
H220	H	0.997602	1.102327	0.499890
H221	H	0.430609	0.608350	0.058067
H222	H	0.930609	1.108350	0.558067
H223	H	0.403216	0.623432	-0.058299
H224	H	0.903216	1.123432	0.441701
H225	H	1.053313	-0.454811	0.164917
H226	H	1.553313	0.045189	0.664917
H227	H	0.809745	0.471535	0.562268
H228	H	1.309745	0.971535	1.062268
C229	C	0.246852	0.543822	-0.000117
C230	C	0.746852	1.043822	0.499883
H231	H	0.280293	0.590819	-0.000137
H232	H	0.780293	1.090819	0.499863
H233	H	0.224973	0.529338	0.058061
H234	H	0.724973	1.029338	0.558061
H235	H	0.197581	0.544413	-0.058305
H236	H	0.697581	1.044413	0.441695
H237	H	0.854669	0.446840	0.752785
H238	H	1.354669	0.946840	1.252785
C239	C	1.228299	0.241262	0.610152
C240	C	1.728299	0.741262	1.110152
H241	H	1.236376	0.236815	0.680219
H242	H	1.736376	0.736815	1.180219
H243	H	1.281841	0.265811	0.592922
H244	H	1.781841	0.765811	1.092922
H245	H	1.215034	0.194536	0.592947
H246	H	1.715034	0.694536	1.092947
H247	H	0.986148	0.166835	-0.165047
H248	H	1.486148	0.666835	0.334953
C249	C	1.198084	0.257863	0.232072
C250	C	1.698084	0.757863	0.732072
H251	H	1.244072	0.232553	0.278371
H252	H	1.744072	0.732553	0.778371
H253	H	1.224273	0.297464	0.191091
H254	H	1.724273	0.797464	0.691091
H255	H	1.157472	0.226185	0.191118
H256	H	1.657472	0.726185	0.691118
H257	H	0.672599	0.461008	-0.000075
H258	H	1.172599	0.961008	0.499925
