data_functionalizedCrystal
_audit_creation_method	'MofGen! by Chris Wilmer'
_symmetry_space_group_name_H-M	'P1'
_symmetry_Int_Tables_number	1
_symmetry_cell_setting	triclinic
loop_
_symmetry_equiv_pos_as_xyz
  x,y,z
_cell_length_a	12.594517
_cell_length_b	12.594516
_cell_length_c	11.169409
_cell_angle_alpha	89.967028
_cell_angle_beta	89.975776
_cell_angle_gamma	90.011616
loop_
_atom_site_label
_atom_site_type_symbol
_atom_site_fract_x
_atom_site_fract_y
_atom_site_fract_z
Zn1	Zn	1.627329	-0.423662	-0.678654
Zn2	Zn	1.627224	-0.601688	-0.477969
Zn3	Zn	1.449324	-0.423723	-0.477976
Zn4	Zn	1.449328	-0.601598	-0.678601
O5	O	1.538301	-0.512668	-0.578300
O6	O	1.776261	-0.447290	-0.652052
O7	O	1.603579	-0.578144	-0.310020
O8	O	1.472978	-0.274770	-0.504621
O9	O	1.776183	-0.578085	-0.504609
O10	O	1.603758	-0.274724	-0.652059
O11	O	1.472877	-0.447394	-0.310025
O12	O	1.300378	-0.447307	-0.504570
O13	O	1.472986	-0.577932	-0.846558
O14	O	1.300382	-0.577991	-0.651968
O15	O	1.603762	-0.447203	-0.846597
O16	O	1.603583	-0.750622	-0.504558
O17	O	1.472884	-0.750556	-0.651961
C18	C	1.261760	-0.512647	-0.578264
C19	C	1.143455	-0.512663	-0.578278
C20	C	1.074169	-0.441487	-0.498261
C21	C	1.003364	-0.538578	-0.468741
C22	C	1.003461	-0.415620	-0.607818
C23	C	1.074208	-0.609805	-0.548701
C24	C	1.074311	-0.486781	-0.687829
C25	C	1.003538	-0.583939	-0.658351
C26	C	1.538252	-0.789209	-0.578279
C27	C	1.538328	-0.907514	-0.578310
C28	C	1.609498	-0.976765	-0.498223
C29	C	1.635513	-1.047453	-0.607768
C30	C	1.512446	-1.047625	-0.468835
C31	C	1.564393	-0.976644	-0.687912
C32	C	1.441280	-0.976811	-0.548906
C33	C	1.467259	-1.047467	-0.658526
C34	C	1.815922	-0.512690	-0.578336
C35	C	1.934227	-0.512700	-0.578351
C36	C	1.538386	-0.512550	-0.891342
C37	C	1.538423	-0.512500	-1.024742
C38	C	1.538380	-0.235047	-0.578347
C39	C	1.538413	-0.116742	-0.578367
C40	C	1.538277	-0.512709	-0.266475
C41	C	1.538447	-0.512459	-0.133076
H42	H	1.105182	-0.381355	-0.430510
H43	H	1.490519	-1.078803	-0.376230
H44	H	1.669694	-0.945719	-0.430557
H45	H	0.972202	-0.560492	-0.376128
H46	H	1.105498	-0.464838	-0.780414
F47	F	1.114653	-0.717126	-0.515943
F48	F	0.963253	-0.662722	-0.746840
H49	H	0.972329	-0.333547	-0.632731
H50	H	1.717621	-1.078486	-0.632670
F51	F	1.388639	-1.087792	-0.747181
F52	F	1.593189	-0.936070	-0.808987
H53	H	1.359196	-0.945755	-0.523971
