data_functionalizedCrystal
_audit_creation_method	'MofGen! by Chris Wilmer'
_symmetry_space_group_name_H-M	'P1'
_symmetry_Int_Tables_number	1
_symmetry_cell_setting	triclinic
loop_
_symmetry_equiv_pos_as_xyz
  x,y,z
_cell_length_a	15.944551
_cell_length_b	9.198806
_cell_length_c	10.723024
_cell_angle_alpha	90.005661
_cell_angle_beta	96.016696
_cell_angle_gamma	90.004161
loop_
_atom_site_label
_atom_site_type_symbol
_atom_site_fract_x
_atom_site_fract_y
_atom_site_fract_z
O1	O	-1.115440	0.120737	0.160939
O2	O	-0.871004	0.120773	0.180781
O3	O	-0.998860	0.120749	-0.010788
O4	O	-0.987584	0.120761	0.352507
O5	O	-0.998860	-0.121036	-0.010803
O6	O	-0.871004	-0.121012	0.180766
O7	O	-1.115440	-0.121048	0.160924
Cu8	Cu	-0.993222	-0.143107	0.170843
Cu9	Cu	-0.993222	0.142832	0.170861
O10	O	-0.987583	-0.121024	0.352492
C11	C	-0.839705	-0.000115	0.179949
C12	C	-0.746445	-0.000102	0.177480
C13	C	-1.146739	-0.000157	0.161755
C14	C	-1.239999	-0.000161	0.164225
N15	N	-0.993227	-0.344221	0.170830
C16	C	-0.530875	-0.000134	0.052834
C17	C	-0.470186	0.119081	0.110723
C18	C	-0.575693	-0.000119	0.173012
C19	C	-0.470208	-0.119300	0.110737
C20	C	-0.410756	-0.000142	0.168688
C21	C	-0.516233	0.119194	0.230934
C22	C	-0.516262	-0.119294	0.230931
C23	C	-0.455591	-0.000050	0.288907
C24	C	-0.670710	-0.000104	0.175500
C25	C	-0.315741	-0.000146	0.166210
C26	C	-0.998039	-0.000142	-0.057284
C27	C	-0.995584	-0.000137	-0.195808
N28	N	-0.993223	0.343946	0.170865
C29	C	-1.047023	0.416133	0.090251
C30	C	-1.047026	0.583545	0.090232
C31	C	-1.067126	-0.000145	-0.271694
C32	C	-1.064590	-0.000139	-0.414865
C33	C	-0.988404	-0.000130	0.398989
C34	C	-0.990859	-0.000126	0.537512
H35	H	-0.563637	0.000010	-0.046904
F36	F	-1.149640	-0.000149	-0.218079
H37	H	-1.093085	0.353998	0.021253
H38	H	-0.947161	0.593711	0.239846
F39	F	-1.144645	-0.000159	-0.500091
H40	H	-0.947167	0.406083	0.239872
F41	F	-0.443522	0.250816	0.044296
H42	H	-0.929611	-0.000129	-0.397289
F43	F	-1.107229	0.664681	0.000013
H44	H	-0.536512	0.220091	0.281733
F45	F	-0.412994	0.000038	0.419404
F46	F	-0.542957	-0.251033	0.297307
F47	F	-0.443575	-0.251034	0.044264
F48	F	-0.913070	-0.000111	-0.249423
