data_functionalizedCrystal
_audit_creation_method	'MofGen! by Chris Wilmer'
_symmetry_space_group_name_H-M	'P1'
_symmetry_Int_Tables_number	1
_symmetry_cell_setting	triclinic
loop_
_symmetry_equiv_pos_as_xyz
  x,y,z
_cell_length_a	15.995292
_cell_length_b	15.995350
_cell_length_c	14.586319
_cell_angle_alpha	89.997955
_cell_angle_beta	90.007026
_cell_angle_gamma	83.480495
loop_
_atom_site_label
_atom_site_type_symbol
_atom_site_fract_x
_atom_site_fract_y
_atom_site_fract_z
O1	O	1.111018	0.107689	0.076261
O2	O	1.444352	0.441022	0.409594
O3	O	1.777685	0.774356	0.742927
O4	O	0.867236	0.121067	0.076256
O5	O	1.200570	0.454401	0.409590
O6	O	1.533903	0.787734	0.742923
O7	O	0.995791	-0.007511	0.076258
O8	O	1.329124	0.325822	0.409591
O9	O	1.662458	0.659156	0.742924
O10	O	0.982463	0.236267	0.076259
O11	O	1.315797	0.569601	0.409593
O12	O	1.649130	0.902934	0.742926
O13	O	0.995775	-0.007503	-0.076223
O14	O	1.329109	0.325830	0.257110
O15	O	1.662442	0.659163	0.590444
O16	O	0.867221	0.121075	-0.076224
O17	O	1.200554	0.454408	0.257109
O18	O	1.533887	0.787742	0.590442
O19	O	1.111002	0.107697	-0.076220
O20	O	1.444336	0.441030	0.257113
O21	O	1.777669	0.774363	0.590446
Cu22	Cu	0.989110	0.114386	-0.090145
Cu23	Cu	1.322443	0.447720	0.243188
Cu24	Cu	1.655777	0.781053	0.576522
Cu25	Cu	0.989129	0.114377	0.090181
Cu26	Cu	1.322462	0.447711	0.423515
Cu27	Cu	1.655795	0.781044	0.756848
O28	O	0.982448	0.236275	-0.076222
O29	O	1.315781	0.569608	0.257112
O30	O	1.649114	0.902941	0.590445
C31	C	0.836033	0.120527	0.000016
C32	C	1.169366	0.453860	0.333349
C33	C	1.502699	0.787193	0.666682
C34	C	0.743080	0.118894	0.000014
C35	C	1.076413	0.452228	0.333347
C36	C	1.409747	0.785561	0.666681
C37	C	0.405341	0.112893	0.000024
C38	C	0.738675	0.446226	0.333358
C39	C	1.072008	0.779560	0.666691
C40	C	0.428654	0.205697	0.000365
C41	C	0.761987	0.539031	0.333699
C42	C	1.095320	0.872364	0.667032
C43	C	0.525329	0.207461	0.000018
C44	C	0.858663	0.540795	0.333351
C45	C	1.191996	0.874128	0.666684
C46	C	0.572897	0.115871	0.000020
C47	C	0.906231	0.449204	0.333353
C48	C	1.239564	0.782538	0.666686
C49	C	0.543787	0.069477	-0.087051
C50	C	0.877120	0.402811	0.246282
C51	C	1.210453	0.736144	0.579615
C52	C	0.446996	0.068360	-0.087120
C53	C	0.780329	0.401694	0.246213
C54	C	1.113663	0.735027	0.579546
C55	C	0.447158	0.066456	0.086279
C56	C	0.780492	0.399790	0.419612
C57	C	1.113825	0.733123	0.752945
C58	C	0.543651	0.069896	0.087426
C59	C	0.876984	0.403229	0.420759
C60	C	1.210318	0.736562	0.754092
C61	C	0.667593	0.117549	0.000014
C62	C	1.000927	0.450882	0.333347
C63	C	1.334260	0.784216	0.666681
C64	C	0.310646	0.111212	0.000024
C65	C	0.643979	0.444546	0.333357
C66	C	0.977312	0.777879	0.666691
C67	C	0.995232	-0.038702	0.000019
C68	C	1.328566	0.294632	0.333352
C69	C	1.661899	0.627965	0.666686
C70	C	0.993580	-0.131652	0.000024
C71	C	1.326914	0.201682	0.333358
C72	C	1.660247	0.535015	0.666691
C73	C	0.987648	-0.469398	0.000021
C74	C	1.320981	-0.136065	0.333354
C75	C	1.654315	0.197269	0.666688
C76	C	0.896094	-0.421945	0.000361
C77	C	1.229427	-0.088612	0.333695
C78	C	1.562760	0.244722	0.667028
C79	C	0.897746	-0.325255	0.000018
C80	C	1.231079	0.008078	0.333351
C81	C	1.564413	0.341412	0.666684
C82	C	0.990591	-0.301838	0.000023
C83	C	1.323924	0.031495	0.333356
C84	C	1.657257	0.364829	0.666690
C85	C	1.035740	-0.342921	-0.087048
C86	C	1.369073	-0.009587	0.246285
C87	C	1.702406	0.323746	0.579618
C88	C	1.033440	-0.439556	-0.087121
C89	C	1.366773	-0.106223	0.246212
C90	C	1.700106	0.227111	0.579545
C91	C	1.035349	-0.439923	0.086278
C92	C	1.368682	-0.106590	0.419611
C93	C	1.702015	0.226744	0.752944
C94	C	1.035327	-0.342978	0.087429
C95	C	1.368661	-0.009644	0.420762
C96	C	1.701994	0.323689	0.754095
C97	C	0.992259	-0.207141	0.000021
C98	C	1.325592	0.126192	0.333355
C99	C	1.658925	0.459526	0.666688
C100	C	0.985983	-0.564095	0.000017
C101	C	1.319316	-0.230762	0.333350
C102	C	1.652650	0.102571	0.666683
C103	C	1.142206	0.108237	0.000023
C104	C	1.475539	0.441571	0.333356
C105	C	1.808873	0.774904	0.666689
C106	C	1.235159	0.109870	0.000030
C107	C	1.568492	0.443203	0.333363
C108	C	1.901826	0.776536	0.666697
C109	C	0.983006	0.267466	0.000019
C110	C	1.316340	0.600799	0.333352
C111	C	1.649673	0.934132	0.666686
C112	C	0.984658	0.360416	0.000020
C113	C	1.317992	0.693749	0.333353
C114	C	1.651325	1.027082	0.666687
N115	N	0.989103	0.114392	-0.216977
N116	N	1.322436	0.447726	0.116357
N117	N	1.655770	0.781059	0.449690
C118	C	1.039899	0.165182	-0.451982
C119	C	1.373232	0.498515	-0.118649
C120	C	1.706565	0.831848	0.214685
C121	C	1.039908	0.165176	-0.547963
C122	C	1.373241	0.498509	-0.214630
C123	C	1.706574	0.831843	0.118704
C124	C	0.938345	0.063570	-0.547975
C125	C	1.271678	0.396903	-0.214642
C126	C	1.605011	0.730236	0.118691
C127	C	0.938341	0.063572	-0.451996
C128	C	1.271674	0.396905	-0.118662
C129	C	1.605008	0.730238	0.214671
C130	C	0.989116	0.114382	-0.404002
C131	C	1.322450	0.447716	-0.070668
C132	C	1.655783	0.781049	0.262665
C133	C	0.989129	0.114375	-0.595962
C134	C	1.322462	0.447708	-0.262629
C135	C	1.655796	0.781041	0.070704
C136	C	0.989138	0.114368	-0.700029
C137	C	1.322471	0.447701	-0.366696
C138	C	1.655805	0.781035	-0.033363
C139	C	0.989109	0.114388	-0.299928
C140	C	1.322442	0.447722	0.033406
C141	C	1.655775	0.781055	0.366739
N142	N	0.989142	0.114365	0.217013
N143	N	1.322476	0.447698	0.550346
N144	N	1.655809	0.781032	0.883680
H145	H	0.563839	0.101701	-0.151851
H146	H	0.897172	0.435034	0.181482
H147	H	1.230506	0.768368	0.514816
O148	O	0.568251	0.114643	0.172751
O149	O	0.901585	0.447977	0.506084
O150	O	1.234918	0.781310	0.839418
H151	H	0.610740	0.070622	0.215185
H152	H	0.944073	0.403955	0.548518
H153	H	1.277406	0.737289	0.881851
O154	O	0.847820	-0.447876	-0.081887
O155	O	1.181153	-0.114543	0.251446
O156	O	1.514486	0.218791	0.584780
H157	H	0.827783	-0.391692	-0.124544
H158	H	1.161116	-0.058359	0.208790
H159	H	1.494450	0.274974	0.542123
H160	H	1.102852	-0.471698	0.086867
H161	H	1.436185	-0.138365	0.420200
H162	H	1.769518	0.194969	0.753533
O163	O	0.883577	0.008778	-0.400221
O164	O	1.216910	0.342111	-0.066888
O165	O	1.550243	0.675444	0.266445
H166	H	0.816650	0.026969	-0.418633
H167	H	1.149984	0.360303	-0.085300
H168	H	1.483317	0.693636	0.248034
H169	H	1.081244	0.206555	-0.412908
H170	H	1.414577	0.539888	-0.079575
H171	H	1.747910	0.873222	0.253759
O172	O	0.850419	-0.288329	-0.082814
O173	O	1.183752	0.045004	0.250519
O174	O	1.517086	0.378338	0.583852
H175	H	0.784311	-0.303041	-0.079791
H176	H	1.117644	0.030293	0.253542
H177	H	1.450977	0.363626	0.586875
H178	H	0.400664	0.241465	0.062809
H179	H	0.733997	0.574798	0.396142
H180	H	1.067331	0.908132	0.729475
O181	O	0.883571	0.008777	-0.599739
O182	O	1.216904	0.342110	-0.266405
O183	O	1.550238	0.675444	0.066928
H184	H	0.892096	0.017317	-0.674541
H185	H	1.225430	0.350650	-0.341207
H186	H	1.558763	0.683983	-0.007874
O187	O	0.550550	0.255597	0.082684
O188	O	0.883883	0.588930	0.416018
O189	O	1.217217	0.922264	0.749351
H190	H	0.493646	0.277825	0.123269
H191	H	0.826979	0.611158	0.456603
H192	H	1.160313	0.944492	0.789936
H193	H	0.433165	-0.001854	0.086869
H194	H	0.766499	0.331480	0.420202
H195	H	1.099832	0.664813	0.753536
O196	O	0.390230	0.252825	-0.081891
O197	O	0.723564	0.586159	0.251442
O198	O	1.056897	0.919492	0.584776
H199	H	0.354602	0.210438	-0.123016
H200	H	0.687936	0.543771	0.210317
H201	H	1.021269	0.877104	0.543650
O202	O	0.587316	-0.018662	0.094388
O203	O	0.920649	0.314671	0.427721
O204	O	1.253982	0.648004	0.761055
H205	H	0.656346	-0.016675	0.098639
H206	H	0.989679	0.316658	0.431973
H207	H	1.323013	0.649992	0.765306
H208	H	1.103034	-0.327630	0.092690
H209	H	1.436367	0.005703	0.426023
H210	H	1.769701	0.339036	0.759356
O211	O	0.549724	0.255783	-0.082868
O212	O	0.883058	0.589117	0.250465
O213	O	1.216391	0.922450	0.583799
H214	H	0.492436	0.277985	-0.122857
H215	H	0.825770	0.611318	0.210477
H216	H	1.159103	0.944652	0.543810
O217	O	0.411453	0.110937	-0.173329
O218	O	0.744786	0.444270	0.160005
O219	O	1.078119	0.777603	0.493338
H220	H	0.463421	0.132132	-0.214574
H221	H	0.796755	0.465465	0.118759
H222	H	1.130088	0.798799	0.452092
H223	H	1.100657	-0.471818	-0.091068
H224	H	1.433990	-0.138484	0.242265
H225	H	1.767324	0.194849	0.575598
O226	O	1.094682	0.219970	-0.599707
O227	O	1.428015	0.553304	-0.266374
O228	O	1.761349	0.886637	0.066959
H229	H	1.139693	0.179842	-0.643414
H230	H	1.473026	0.513175	-0.310081
H231	H	1.806360	0.846508	0.023253
O232	O	1.126089	-0.324220	-0.091348
O233	O	1.459422	0.009113	0.241985
O234	O	1.792756	0.342446	0.575318
H235	H	1.160090	-0.349890	-0.029325
H236	H	1.493424	-0.016557	0.304008
H237	H	1.826757	0.316777	0.637341
O238	O	0.409738	0.104947	0.173706
O239	O	0.743072	0.438280	0.507039
O240	O	1.076405	0.771614	0.840372
H241	H	0.460033	0.129013	0.215203
H242	H	0.793367	0.462346	0.548536
H243	H	1.126700	0.795680	0.881870
H244	H	0.575654	0.002079	-0.090288
H245	H	0.908988	0.335413	0.243046
H246	H	1.242321	0.668746	0.576379
O247	O	0.427710	-0.021766	-0.092371
O248	O	0.761043	0.311567	0.240962
O249	O	1.094376	0.644900	0.574295
H250	H	0.487493	-0.064360	-0.094857
H251	H	0.820826	0.268973	0.238476
H252	H	1.154160	0.602306	0.571809
H253	H	0.859507	-0.440472	0.062802
H254	H	1.192840	-0.107139	0.396135
H255	H	1.526173	0.226195	0.729469
O256	O	0.850719	-0.287588	0.082680
O257	O	1.184053	0.045745	0.416014
O258	O	1.517386	0.379079	0.749347
H259	H	0.826587	-0.338428	0.123261
H260	H	1.159921	-0.005095	0.456595
H261	H	1.493254	0.328238	0.789928
H262	H	1.000504	-0.457847	-0.152213
H263	H	1.333837	-0.124514	0.181121
H264	H	1.667170	0.208819	0.514454
O265	O	0.994195	-0.305319	-0.172890
O266	O	1.327528	0.028014	0.160443
O267	O	1.660861	0.361348	0.493777
H268	H	0.941397	-0.257384	-0.153759
H269	H	1.274731	0.075949	0.179574
H270	H	1.608064	0.409283	0.512908
H271	H	1.005422	-0.460460	0.152273
H272	H	1.338755	-0.127126	0.485606
H273	H	1.672089	0.206207	0.818940
H274	H	1.002318	-0.315725	0.151842
H275	H	1.335651	0.017608	0.485175
H276	H	1.668984	0.350941	0.818508
