data_functionalizedCrystal
_audit_creation_method	'MofGen! by Chris Wilmer'
_symmetry_space_group_name_H-M	'P1'
_symmetry_Int_Tables_number	1
_symmetry_cell_setting	triclinic
loop_
_symmetry_equiv_pos_as_xyz
  x,y,z
_cell_length_a	6.817900
_cell_length_b	19.551823
_cell_length_c	16.015572
_cell_angle_alpha	78.350504
_cell_angle_beta	104.485554
_cell_angle_gamma	101.663376
loop_
_atom_site_label
_atom_site_type_symbol
_atom_site_fract_x
_atom_site_fract_y
_atom_site_fract_z
V1	V	-3.988979	-0.028153	-0.269511
O2	O	-3.986496	0.071758	-0.263965
O3	O	-3.931824	-0.123535	-0.268067
O4	O	-3.928173	0.003172	-0.386871
O5	O	-3.990172	-0.055827	-0.144338
V6	V	-4.475348	-0.019853	-0.254490
O7	O	-4.243992	-0.046360	-0.302459
O8	O	-4.670532	-0.001645	-0.221542
O9	O	-4.309296	0.075530	-0.255934
O10	O	-4.595228	-0.119763	-0.260036
O11	O	-4.591552	0.007822	-0.379663
O12	O	-4.312947	-0.051178	-0.137130
C13	C	-3.775096	-0.147753	-0.263918
C14	C	-3.809570	-0.225530	-0.263520
C15	C	-4.007075	-0.264526	-0.267649
C16	C	-4.039470	-0.337605	-0.267283
C17	C	-3.874342	-0.371687	-0.262771
C18	C	-3.676811	-0.332682	-0.258647
C19	C	-3.644425	-0.259603	-0.259021
C20	C	-3.766899	-0.492090	-0.208041
C21	C	-3.799290	-0.565168	-0.207661
C22	C	-3.974226	-0.597086	-0.261621
C23	C	-4.116797	-0.555918	-0.315949
C24	C	-4.084410	-0.482839	-0.316324
C25	C	-3.909440	-0.450929	-0.262366
C26	C	-4.206871	-0.715322	-0.265355
C27	C	-4.239261	-0.788402	-0.264995
C28	C	-3.876593	-0.783478	-0.256350
C29	C	-3.844212	-0.710399	-0.256719
C30	C	-4.009357	-0.676326	-0.261217
C31	C	-3.770439	0.013876	-0.415464
C32	C	-3.801950	0.038857	-0.511410
C33	C	-4.070233	-0.182873	-0.889969
C34	C	-4.099849	-0.159377	-0.980120
C35	C	-4.034018	-0.037816	-0.954905
C36	C	-4.004386	-0.061302	-0.864750
C37	C	-4.022499	-0.133831	-0.832290
C38	C	-3.956652	-0.012261	-0.807070
C39	C	-3.927034	-0.035745	-0.716923
C40	C	-3.945149	-0.108271	-0.684456
C41	C	-3.992881	-0.157315	-0.742142
C42	C	-3.938554	0.060268	-0.839533
C43	C	-3.890821	0.109310	-0.781853
C44	C	-3.861187	0.085826	-0.691704
C45	C	-3.879302	0.013300	-0.659236
C46	C	-3.813455	0.134870	-0.634017
C47	C	-3.783836	0.111386	-0.543870
C48	C	-3.849683	-0.010185	-0.569089
C49	C	-4.129366	0.099743	-0.260081
C50	C	-4.074130	0.177521	-0.260484
C51	C	-4.134024	-0.061885	-0.108532
C52	C	-4.081752	-0.086863	-0.012586
H53	H	-4.341341	-0.687579	-0.269017
H54	H	-4.007603	-0.216375	-0.715711
C55	C	-4.137265	-0.300676	-0.923918
C56	C	-4.089435	-0.262589	-0.854263
H57	H	-4.148923	-0.349884	-0.901866
H58	H	-4.031628	-0.287298	-0.955820
H59	H	-4.263706	-0.290684	-0.961298
H60	H	-3.962985	-0.272577	-0.816886
H61	H	-4.195080	-0.275973	-0.822346
C62	C	-4.056922	0.204014	-0.872760
C63	C	-3.870913	0.189031	-0.817545
H64	H	-4.044619	0.253230	-0.894797
H65	H	-4.162701	0.190818	-0.840928
H66	H	-4.089575	0.178161	-0.920009
H67	H	-3.838268	0.214880	-0.770292
H68	H	-3.765101	0.202234	-0.849377
C69	C	-3.889562	0.205544	-0.498765
C70	C	-3.731357	0.165291	-0.480461
H71	H	-3.857158	0.238826	-0.459621
H72	H	-4.014208	0.175207	-0.491987
H73	H	-3.904586	0.229910	-0.557100
H74	H	-3.716342	0.140922	-0.422128
H75	H	-3.606675	0.195633	-0.487232
C76	C	-4.342350	-0.205728	-1.100278
C77	C	-4.152318	-0.213288	-1.043526
H78	H	-4.374748	-0.239012	-1.139418
H79	H	-4.335785	-0.159178	-1.132509
H80	H	-4.445403	-0.213878	-1.067392
H81	H	-4.049262	-0.205133	-1.076411
H82	H	-4.158869	-0.259849	-1.011292
H83	H	-3.962642	0.079387	-0.912937
H84	H	-4.019283	0.021237	-0.981348
C85	C	-4.401488	-0.481026	-0.423335
C86	C	-4.241097	-0.437586	-0.376047
H87	H	-4.498208	-0.453085	-0.460212
H88	H	-4.466961	-0.515693	-0.383964
H89	H	-4.348069	-0.503750	-0.457912
H90	H	-4.294515	-0.414866	-0.341465
H91	H	-4.175616	-0.402906	-0.415424
H92	H	-3.798733	0.193923	-0.660461
H93	H	-4.141554	-0.236788	-0.271318
H94	H	-3.683381	-0.678649	-0.253351
C95	C	-3.626207	-0.604348	-0.060737
C96	C	-3.642572	-0.610411	-0.147942
H97	H	-3.529441	-0.632274	-0.023869
H98	H	-3.756154	-0.620404	-0.045942
H99	H	-3.581891	-0.556253	-0.053256
H100	H	-3.686903	-0.658506	-0.155424
H101	H	-3.512597	-0.594359	-0.162741
C102	C	-4.329412	-0.373867	-0.199935
C103	C	-4.256579	-0.380485	-0.271814
H104	H	-4.463438	-0.400342	-0.202730
H105	H	-4.333775	-0.325473	-0.200812
H106	H	-4.240429	-0.391309	-0.147515
H107	H	-4.345554	-0.363038	-0.324234
H108	H	-4.252230	-0.428889	-0.270945
H109	H	-4.259053	-0.581884	-0.360007
H110	H	-4.400099	-0.820151	-0.268363
H111	H	-3.742144	-0.811227	-0.252681
C112	C	-4.055779	-0.111053	-0.552602
C113	C	-3.912590	-0.134088	-0.585364
H114	H	-4.035666	-0.126989	-0.491427
H115	H	-4.190611	-0.129706	-0.580467
H116	H	-4.038143	-0.060840	-0.563684
H117	H	-3.930237	-0.184302	-0.574288
H118	H	-3.777726	-0.115438	-0.557490
C119	C	-3.433754	-0.145395	-0.255750
C120	C	-3.427309	-0.216734	-0.254474
H121	H	-3.299714	-0.118930	-0.252946
H122	H	-3.483198	-0.140917	-0.206998
H123	H	-3.522701	-0.127955	-0.308183
H124	H	-3.338373	-0.234176	-0.202038
H125	H	-3.377838	-0.221216	-0.303231
H126	H	-3.624430	-0.466109	-0.164103
H127	H	-3.542366	-0.360436	-0.254975
H128	H	-3.864406	-0.069244	-0.542658
