data_functionalizedCrystal
_audit_creation_method	'MofGen! by Chris Wilmer'
_symmetry_space_group_name_H-M	'P1'
_symmetry_Int_Tables_number	1
_symmetry_cell_setting	triclinic
loop_
_symmetry_equiv_pos_as_xyz
  x,y,z
_cell_length_a	12.827885
_cell_length_b	19.805407
_cell_length_c	19.805406
_cell_angle_alpha	89.998223
_cell_angle_beta	89.978849
_cell_angle_gamma	90.028705
loop_
_atom_site_label
_atom_site_type_symbol
_atom_site_fract_x
_atom_site_fract_y
_atom_site_fract_z
Zn1	Zn	-0.591174	-1.034863	-0.269455
Zn2	Zn	-0.416461	-1.034818	-0.382658
Zn3	Zn	-0.416419	-0.921672	-0.269486
Zn4	Zn	-0.591132	-0.921687	-0.382605
O5	O	-0.503797	-0.978260	-0.326051
O6	O	-0.568033	-1.129573	-0.284481
O7	O	-0.270219	-1.019784	-0.367680
O8	O	-0.439601	-0.936700	-0.174765
O9	O	-0.439672	-1.129541	-0.367651
O10	O	-0.567993	-1.019860	-0.174743
O11	O	-0.270189	-0.936656	-0.284533
O12	O	-0.439560	-0.826957	-0.284482
O13	O	-0.737374	-0.936724	-0.367560
O14	O	-0.567921	-0.826968	-0.367590
O15	O	-0.737405	-1.019874	-0.284430
O16	O	-0.439631	-1.019799	-0.477367
O17	O	-0.567962	-0.936681	-0.477328
C18	C	-0.503732	-0.802404	-0.326034
C19	C	-0.503729	-0.727172	-0.326043
C20	C	-0.776367	-0.978306	-0.325986
C21	C	-0.892520	-0.978326	-0.325958
C22	C	-0.570560	-0.265404	-0.369399
C23	C	-0.570542	-0.336093	-0.369399
C24	C	-0.503807	-0.371410	-0.326061
C25	C	-0.437079	-0.336036	-0.282725
C26	C	-0.437093	-0.265348	-0.282729
C27	C	-0.437020	-0.621109	-0.282707
C28	C	-0.437013	-0.691801	-0.282705
C29	C	-0.570469	-0.691853	-0.369377
C30	C	-0.570483	-0.621166	-0.369381
C31	C	-0.503751	-0.585798	-0.326048
C32	C	-0.503771	-0.509149	-0.326050
C33	C	-0.503792	-0.448057	-0.326055
C34	C	-0.944320	-1.019475	-0.284814
C35	C	-1.064371	-1.019496	-0.284785
C36	C	-0.232287	-0.978253	-0.326067
C37	C	-0.116134	-0.978364	-0.325904
C38	C	-0.503819	-0.978255	-0.501907
C39	C	-0.503864	-0.978315	-0.577139
C40	C	-0.503850	-0.154803	-0.326066
C41	C	-0.503840	-0.230035	-0.326065
C42	C	-0.503797	-0.978283	-0.149508
C43	C	-0.503797	-0.978293	-0.074276
C44	C	-0.570675	-0.935041	0.387533
C45	C	-0.570663	-0.935035	0.316844
C46	C	-0.503844	-0.978307	0.281486
C47	C	-0.437025	-1.021583	0.316819
C48	C	-0.437033	-1.021585	0.387506
C49	C	-0.436991	-1.021575	0.031746
C50	C	-0.436990	-1.021571	-0.038947
C51	C	-0.570621	-0.935025	-0.038916
C52	C	-0.570629	-0.935027	0.031771
C53	C	-0.503807	-0.978300	0.067098
C54	C	-0.503819	-0.978305	0.143747
C55	C	-0.503835	-0.978306	0.204838
H56	H	-0.624909	-0.236654	-0.404686
H57	H	-0.382584	-1.056811	0.060503
N58	N	-0.365126	-0.227196	-0.235994
H59	H	-0.322847	-0.260294	-0.208538
H60	H	-0.407740	-0.197882	-0.204705
H61	H	-0.624829	-0.592414	-0.404669
N62	N	-0.642696	-0.888349	0.069903
H63	H	-0.600214	-0.856979	0.099222
H64	H	-0.691126	-0.915910	0.099202
N65	N	-0.642693	-0.888346	-0.077019
H66	H	-0.632550	-0.894906	-0.127164
H67	H	-0.626414	-0.840004	-0.064663
N68	N	-0.951505	-0.931681	-0.372587
H69	H	-0.932574	-0.942171	-0.420966
H70	H	-0.932527	-0.883325	-0.362029
H71	H	-0.625092	-0.899806	0.416317
N72	N	-0.364981	-1.068267	0.425611
H73	H	-0.375123	-1.061702	0.475756
H74	H	-0.290341	-1.057720	0.413241
N75	N	-0.364940	-1.068248	0.278686
H76	H	-0.375071	-1.061681	0.228545
H77	H	-0.381214	-1.116593	0.291043
H78	H	-0.625058	-0.899790	0.288083
H79	H	-1.071594	-0.943135	-0.361133
H80	H	-0.624870	-0.364888	-0.404687
N81	N	-0.365084	-0.582956	-0.235958
H82	H	-0.316591	-0.553604	-0.263420
H83	H	-0.322880	-0.616092	-0.208502
N84	N	-0.642439	-0.730000	-0.416121
H85	H	-0.632304	-0.780139	-0.409548
H86	H	-0.626061	-0.717635	-0.464448
N87	N	-0.885351	-1.066139	-0.238196
H88	H	-0.807949	-1.059517	-0.244834
H89	H	-0.904407	-1.114485	-0.248740
H90	H	-0.382668	-0.720555	-0.247411
N91	N	-0.364917	-1.068246	-0.077086
H92	H	-0.322584	-1.095659	-0.043981
H93	H	-0.316552	-1.040681	-0.106426
H94	H	-0.382738	-0.364797	-0.247441
N95	N	-1.123366	-1.066170	-0.238126
H96	H	-1.200763	-1.059570	-0.244720
H97	H	-1.104340	-1.055649	-0.189779
