data_functionalizedCrystal
_audit_creation_method	'MofGen! by Chris Wilmer'
_symmetry_space_group_name_H-M	'P1'
_symmetry_Int_Tables_number	1
_symmetry_cell_setting	triclinic
loop_
_symmetry_equiv_pos_as_xyz
  x,y,z
_cell_length_a	10.654562
_cell_length_b	23.532357
_cell_length_c	9.730223
_cell_angle_alpha	89.993164
_cell_angle_beta	89.996961
_cell_angle_gamma	83.659197
loop_
_atom_site_label
_atom_site_type_symbol
_atom_site_fract_x
_atom_site_fract_y
_atom_site_fract_z
O1	O	1.665258	0.080019	-0.114399
O2	O	1.299537	0.087632	-0.114384
O3	O	1.493459	0.000964	-0.114363
O4	O	1.471337	0.166686	-0.114419
O5	O	1.493456	0.000966	0.114217
O6	O	1.299535	0.087634	0.114196
O7	O	1.665256	0.080021	0.114181
Zn8	Zn	1.482395	0.083828	0.150481
Zn9	Zn	1.482398	0.083825	-0.150683
O10	O	1.471334	0.166689	0.114161
C11	C	1.252756	0.087072	-0.000091
C12	C	1.113368	0.085395	-0.000084
C13	C	1.047861	0.084614	0.124504
C14	C	0.916889	0.083043	0.124482
C15	C	0.916942	0.083036	-0.124728
C16	C	1.047912	0.084603	-0.124705
C17	C	1.113316	0.085406	0.249125
C18	C	1.047809	0.084626	0.373723
C19	C	0.916837	0.083054	0.373701
C20	C	0.851372	0.082264	0.249080
C21	C	1.492904	-0.020255	-0.000069
C22	C	1.491240	-0.083485	-0.000056
C23	C	1.480798	-0.475566	-0.124729
C24	C	1.479216	-0.534975	-0.124737
O25	O	1.478357	-0.565698	-0.230703
N26	N	1.478431	-0.564691	-0.000139
C27	C	1.479214	-0.534992	0.124474
O28	O	1.478399	-0.565722	0.230453
C29	C	1.480786	-0.475583	0.124480
C30	C	1.481584	-0.445872	-0.000125
C31	C	1.481594	-0.445854	-0.249324
C32	C	1.483178	-0.386449	-0.249316
C33	C	1.483965	-0.356755	-0.124712
C34	C	1.483168	-0.386466	-0.000117
C35	C	1.481560	-0.445885	0.249092
C36	C	1.483132	-0.386472	0.249087
C37	C	1.483930	-0.356760	0.124482
C38	C	1.485539	-0.297366	0.124495
N39	N	1.486324	-0.267651	-0.000102
C40	C	1.485537	-0.297345	-0.124706
C41	C	1.475909	-0.659755	0.124451
C42	C	1.474346	-0.719164	0.124446
C43	C	1.474346	-0.719143	-0.124765
C44	C	1.475918	-0.659734	-0.124759
C45	C	1.476695	-0.630040	-0.000146
C46	C	1.488864	-0.172590	-0.124679
C47	C	1.490454	-0.113179	-0.124660
C48	C	1.490447	-0.113205	0.124550
C49	C	1.488865	-0.172610	0.124532
C50	C	1.488069	-0.202301	-0.000094
O51	O	1.486394	-0.266605	0.230407
O52	O	1.486335	-0.266607	-0.230667
C53	C	1.712036	0.080580	-0.000114
C54	C	1.851425	0.082257	-0.000130
C55	C	1.471889	0.187908	-0.000136
C56	C	1.473552	0.251137	-0.000158
N57	N	1.482402	0.083829	0.356017
N58	N	1.482401	0.083819	-0.356220
C59	C	1.568292	0.045466	0.427952
C60	C	1.568289	0.045459	0.571835
C61	C	1.396502	0.122184	0.571835
C62	C	1.396500	0.122188	0.427955
C63	C	1.654194	0.007107	0.356014
C64	C	1.740092	-0.031259	0.427949
C65	C	1.740089	-0.031266	0.571832
C66	C	1.654188	0.007094	0.643780
H67	H	1.491106	-0.088991	-0.226133
C68	C	1.382921	-0.088938	0.336927
C69	C	1.491282	-0.080552	0.261505
H70	H	1.383430	-0.068778	0.421478
H71	H	1.309968	-0.075151	0.285701
H72	H	1.381891	-0.128572	0.354770
H73	H	1.492308	-0.040917	0.243653
H74	H	1.564254	-0.094335	0.312742
H75	H	1.654207	0.007111	0.238857
C76	C	1.474505	-0.713170	-0.371112
C77	C	1.473476	-0.751790	-0.261736
H78	H	1.473977	-0.733327	-0.455665
H79	H	1.401886	-0.685944	-0.365931
H80	H	1.548364	-0.694053	-0.365927
H81	H	1.399612	-0.770904	-0.266916
H82	H	1.546102	-0.779025	-0.266920
C83	C	1.321486	0.220465	0.383623
C84	C	1.302097	0.164359	0.348867
H85	H	1.263206	0.246498	0.334788
H86	H	1.309184	0.225952	0.479595
H87	H	1.405214	0.226998	0.360034
H88	H	1.218372	0.157824	0.372466
H89	H	1.314389	0.158869	0.252874
C90	C	1.178687	0.154698	0.616163
C91	C	1.302090	0.164347	0.650922
H92	H	1.120404	0.180727	0.664996
H93	H	1.166398	0.160194	0.520191
H94	H	1.165566	0.116629	0.639754
H95	H	1.315215	0.202415	0.627322
H96	H	1.314384	0.158855	0.746915
C97	C	1.315675	0.038777	0.181350
C98	C	1.257283	0.087126	0.249155
H99	H	1.404553	0.039841	0.181363
H100	H	1.296025	0.005281	0.227387
H101	H	1.286059	0.038424	0.089303
H102	H	1.286892	0.087476	0.341205
H103	H	1.276943	0.120631	0.203120
H104	H	1.810022	-0.062508	0.630400
C105	C	1.248553	0.087040	0.484416
C106	C	1.119763	0.085493	0.510702
H107	H	1.292968	0.087579	0.568985
H108	H	1.280017	0.054148	0.433247
H109	H	1.260016	0.120449	0.433208
H110	H	1.108299	0.052082	0.561901
H111	H	1.088289	0.118389	0.561893
C112	C	0.784274	0.032417	0.518279
C113	C	0.844837	0.082190	0.510658
H114	H	0.739834	0.031883	0.602839
H115	H	0.726544	0.031727	0.444076
H116	H	0.845378	-0.000116	0.513114
H117	H	0.783731	0.114723	0.515813
H118	H	0.902572	0.082884	0.584881
C119	C	1.488996	-0.166584	-0.371014
C120	C	1.487970	-0.205218	-0.261668
H121	H	1.488448	-0.186729	-0.455582
H122	H	1.416387	-0.139354	-0.365801
H123	H	1.562864	-0.147473	-0.365824
H124	H	1.414097	-0.224326	-0.266852
H125	H	1.560586	-0.232458	-0.266884
H126	H	1.473715	-0.743351	0.225912
C127	C	1.373164	-0.458140	-0.461756
C128	C	1.480738	-0.478487	-0.386306
H129	H	1.372650	-0.478281	-0.546332
H130	H	1.299677	-0.463836	-0.410574
H131	H	1.374224	-0.418503	-0.479550
H132	H	1.479673	-0.518123	-0.368503
H133	H	1.554243	-0.472795	-0.437500
C134	C	0.716191	0.080638	-0.235414
C135	C	0.844983	0.082175	-0.261705
H136	H	0.671769	0.080112	-0.319981
H137	H	0.704714	0.047233	-0.184222
H138	H	0.684741	0.113535	-0.184227
H139	H	0.876434	0.049276	-0.312884
H140	H	0.856467	0.115584	-0.312919
C141	C	0.649025	0.128866	0.181166
C142	C	0.707408	0.080526	0.249039
H143	H	0.560151	0.127790	0.181133
H144	H	0.668627	0.162368	0.227189
H145	H	0.678690	0.129217	0.089135
H146	H	0.677750	0.080177	0.341074
H147	H	0.687796	0.047016	0.203019
H148	H	1.480913	-0.470066	0.350559
C149	C	1.376760	-0.313718	-0.393852
C150	C	1.483886	-0.353818	-0.386332
H151	H	1.377155	-0.293582	-0.478456
H152	H	1.302969	-0.332867	-0.388507
H153	H	1.377519	-0.287503	-0.319701
H154	H	1.483123	-0.380035	-0.460478
H155	H	1.557697	-0.334667	-0.391690
C156	C	1.369679	-0.586954	-0.269327
C157	C	1.476753	-0.627081	-0.261735
H158	H	1.370190	-0.566797	-0.353894
H159	H	1.295853	-0.606084	-0.264116
H160	H	1.370393	-0.560760	-0.195128
H161	H	1.476035	-0.653278	-0.335928
H162	H	1.550598	-0.607950	-0.266959
C163	C	1.475764	-0.665754	0.370786
C164	C	1.476782	-0.627120	0.261438
H165	H	1.476307	-0.645607	0.455353
H166	H	1.401916	-0.684869	0.365597
H167	H	1.548393	-0.692981	0.365577
H168	H	1.404147	-0.599895	0.266641
H169	H	1.550637	-0.607995	0.266630
H170	H	1.101249	0.085242	-0.226156
C171	C	1.485540	-0.295412	0.359777
C172	C	1.483987	-0.353833	0.386068
H173	H	1.486062	-0.275264	0.444343
H174	H	1.559036	-0.289731	0.308596
H175	H	1.412559	-0.281620	0.308578
H176	H	1.556973	-0.367626	0.437258
H177	H	1.410483	-0.359518	0.437271
H178	H	1.488226	-0.196803	0.225996
C179	C	1.816306	-0.065349	0.207389
C180	C	1.834457	-0.073446	0.348870
H181	H	1.874555	-0.091400	0.158574
H182	H	1.732573	-0.071867	0.183850
H183	H	1.829502	-0.027290	0.183792
H184	H	1.821252	-0.111504	0.372469
H185	H	1.918210	-0.066933	0.372419
H186	H	1.654184	0.007081	0.760939
