data_functionalizedCrystal
_audit_creation_method	'MofGen! by Chris Wilmer'
_symmetry_space_group_name_H-M	'P1'
_symmetry_Int_Tables_number	1
_symmetry_cell_setting	triclinic
loop_
_symmetry_equiv_pos_as_xyz
  x,y,z
_cell_length_a	6.817900
_cell_length_b	15.185511
_cell_length_c	14.125465
_cell_angle_alpha	95.683706
_cell_angle_beta	100.398878
_cell_angle_gamma	104.265286
loop_
_atom_site_label
_atom_site_type_symbol
_atom_site_fract_x
_atom_site_fract_y
_atom_site_fract_z
V1	V	-3.995174	-0.124975	-0.300259
O2	O	-3.979298	0.006809	-0.294251
O3	O	-3.950744	-0.248576	-0.298486
O4	O	-3.931246	-0.122700	-0.431084
O5	O	-3.998932	-0.119939	-0.160735
V6	V	-4.480299	-0.109253	-0.283536
O7	O	-4.252917	-0.159460	-0.336940
O8	O	-4.672753	-0.074768	-0.246855
O9	O	-4.301522	0.014348	-0.285309
O10	O	-4.613572	-0.241037	-0.289544
O11	O	-4.593938	-0.114289	-0.423060
O12	O	-4.321021	-0.111528	-0.152711
C13	C	-3.797214	-0.278719	-0.293822
C14	C	-3.842071	-0.379763	-0.293245
C15	C	-3.832922	-0.414486	-0.204836
C16	C	-3.893359	-0.439985	-0.381114
C17	C	-3.935502	-0.534921	-0.380577
C18	C	-3.926353	-0.569644	-0.292169
C19	C	-3.875062	-0.509431	-0.204297
C20	C	-3.986775	-0.595141	-0.468447
C21	C	-4.028920	-0.690084	-0.467914
C22	C	-4.019786	-0.724809	-0.379505
C23	C	-3.968493	-0.664589	-0.291630
C24	C	-3.959344	-0.699312	-0.203221
C25	C	-3.908066	-0.639094	-0.115345
C26	C	-3.865928	-0.544156	-0.115888
C27	C	-4.061924	-0.819748	-0.378962
C28	C	-4.001484	-0.794257	-0.202682
C29	C	-3.772340	-0.118150	-0.462962
C30	C	-3.801382	-0.117107	-0.569914
C31	C	-3.854613	-0.115196	-0.765733
C32	C	-4.040229	-0.119030	-0.818062
C33	C	-4.069849	-0.117967	-0.927023
C34	C	-3.824984	-0.116260	-0.656762
C35	C	-4.118395	0.044486	-0.289970
C36	C	-4.052776	0.145529	-0.290554
C37	C	-4.143269	-0.116082	-0.120828
C38	C	-4.093466	-0.117119	-0.013875
H39	H	-4.070672	-0.739107	-0.539468
H40	H	-3.717960	-0.111117	-0.802761
O41	O	-3.777595	-0.349544	-0.110058
H42	H	-3.892795	-0.309129	-0.109685
O43	O	-3.903676	-0.402552	-0.476478
H44	H	-3.865930	-0.326422	-0.462095
O45	O	-4.221280	-0.124448	-0.769026
H46	H	-4.169251	-0.124457	-0.689900
H47	H	-3.994204	-0.566862	-0.540424
H48	H	-3.900609	-0.667378	-0.043363
O49	O	-3.991602	-0.831709	-0.107325
H50	H	-3.948850	-0.773884	-0.046316
O51	O	-3.810589	-0.479210	-0.021112
H52	H	-3.782794	-0.407359	-0.036341
O53	O	-4.117238	-0.884699	-0.473729
H54	H	-4.116527	-0.844604	-0.535295
