data_functionalizedCrystal
_audit_creation_method	'MofGen! by Chris Wilmer'
_symmetry_space_group_name_H-M	'P1'
_symmetry_Int_Tables_number	1
_symmetry_cell_setting	triclinic
loop_
_symmetry_equiv_pos_as_xyz
  x,y,z
_cell_length_a	19.805405
_cell_length_b	19.805407
_cell_length_c	19.805399
_cell_angle_alpha	89.980427
_cell_angle_beta	89.970699
_cell_angle_gamma	90.026410
loop_
_atom_site_label
_atom_site_type_symbol
_atom_site_fract_x
_atom_site_fract_y
_atom_site_fract_z
Zn1	Zn	-0.269479	1.034736	-0.382712
Zn2	Zn	-0.382667	1.034651	-0.269520
Zn3	Zn	-0.269498	0.921550	-0.269536
Zn4	Zn	-0.382631	0.921514	-0.382667
O5	O	-0.326069	0.978113	-0.326109
O6	O	-0.284501	1.129441	-0.367708
O7	O	-0.367678	1.019627	-0.174805
O8	O	-0.174778	0.936616	-0.284575
O9	O	-0.367660	1.129378	-0.284547
O10	O	-0.174765	1.019772	-0.367724
O11	O	-0.284533	0.936533	-0.174817
O12	O	-0.284498	0.826829	-0.284531
O13	O	-0.367598	0.936553	-0.477389
O14	O	-0.367617	0.826802	-0.367648
O15	O	-0.284466	1.019737	-0.477422
O16	O	-0.477379	1.019592	-0.284503
O17	O	-0.477353	0.936471	-0.367632
C18	C	-0.326056	0.802257	-0.326087
C19	C	-0.326067	0.727025	-0.326093
C20	C	-0.369412	0.691684	-0.369302
C21	C	-0.369413	0.620996	-0.369312
C22	C	-0.326072	0.585649	-0.326109
C23	C	-0.282722	0.620994	-0.282898
C24	C	-0.282718	0.691681	-0.282892
C25	C	-0.282737	0.335921	-0.282920
C26	C	-0.282746	0.265229	-0.282928
C27	C	-0.369432	0.265235	-0.369340
C28	C	-0.369428	0.335922	-0.369334
C29	C	-0.326076	0.371262	-0.326126
C30	C	-0.326074	0.447910	-0.326117
C31	C	-0.326076	0.509002	-0.326114
C32	C	-0.501925	0.978036	-0.326076
C33	C	-0.577157	0.978066	-0.326084
C34	C	-0.612492	1.021389	-0.282845
C35	C	-0.683181	1.021418	-0.282860
C36	C	-0.718532	0.978119	-0.326111
C37	C	-0.683192	0.934794	-0.369356
C38	C	-0.612505	0.934769	-0.369344
C39	C	-0.968265	0.934894	-0.369406
C40	C	-1.038957	0.934921	-0.369413
C41	C	-1.038941	1.021542	-0.282922
C42	C	-0.968254	1.021517	-0.282910
C43	C	-0.932920	0.978195	-0.326157
C44	C	-0.856271	0.978166	-0.326141
C45	C	-0.795179	0.978145	-0.326124
C46	C	-0.149526	0.978207	-0.326156
C47	C	-0.074294	0.978248	-0.326177
C48	C	-0.326026	0.978151	-0.502651
C49	C	-0.326008	0.978167	-0.577883
C50	C	-0.326082	1.154655	-0.326131
C51	C	-0.326088	1.229887	-0.326140
C52	C	-0.282719	1.021481	-0.613246
C53	C	-0.282699	1.021488	-0.683934
C54	C	-0.325973	0.978184	-0.719259
C55	C	-0.369264	0.934864	-0.683892
C56	C	-0.369279	0.934854	-0.613204
C57	C	-0.369201	0.934902	-0.968965
C58	C	-0.369183	0.934917	-1.039657
C59	C	-0.282620	1.021536	-1.039695
C60	C	-0.282636	1.021527	-0.969008
C61	C	-0.325924	0.978205	-0.933647
C62	C	-0.325944	0.978197	-0.856998
C63	C	-0.325957	0.978194	-0.795906
C64	C	-0.326062	0.978114	-0.150253
C65	C	-0.325890	0.978229	-0.075021
H66	H	-0.404709	0.592225	-0.404496
H67	H	-0.404523	0.899576	-0.584413
O68	O	-0.717635	0.892756	-0.411307
C69	C	-0.787603	0.902076	-0.402058
H70	H	-0.797274	0.924279	-0.349845
H71	H	-0.814505	0.851383	-0.406604
H72	H	-0.807608	0.938103	-0.442242
H73	H	-0.404495	0.899602	-0.712659
O74	O	-0.240618	1.063570	-0.579039
C75	C	-0.202417	1.101813	-0.625413
H76	H	-0.200062	1.074097	-0.675796
H77	H	-0.149094	1.109059	-0.605007
H78	H	-0.227205	1.153207	-0.632934
O79	O	-0.240574	0.230997	-0.240940
C80	C	-0.202320	0.277345	-0.202791
H81	H	-0.200008	0.327746	-0.230513
H82	H	-0.148984	0.256934	-0.195676
H83	H	-0.227032	0.284831	-0.151337
O84	O	-0.240654	1.063561	-0.934589
C85	C	-0.249933	1.054246	-0.864616
H86	H	-0.302174	1.032064	-0.854940
H87	H	-0.245333	1.104938	-0.837756
H88	H	-0.209796	1.018205	-0.844570
O89	O	-0.717484	1.063663	-0.241002
C90	C	-0.758249	1.107360	-0.279664
H91	H	-0.736906	1.111360	-0.332984
H92	H	-0.758927	1.159512	-0.255334
H93	H	-0.811875	1.086543	-0.281938
H94	H	-0.404729	0.236454	-0.404524
O95	O	-0.933884	1.063481	-0.240823
C96	C	-0.893044	1.024959	-0.197074
H97	H	-0.914392	0.971661	-0.192845
H98	H	-0.892256	1.049472	-0.145009
H99	H	-0.839459	1.022596	-0.217992
H100	H	-0.583735	0.899492	-0.404555
O101	O	-0.240663	1.063494	-0.718390
C102	C	-0.249931	1.054225	-0.788355
H103	H	-0.272099	1.001982	-0.797990
H104	H	-0.199222	1.058836	-0.815228
H105	H	-0.285965	1.094359	-0.808421
H106	H	-0.404459	0.899637	-0.940183
O107	O	-0.240595	0.725909	-0.240851
C108	C	-0.202331	0.679555	-0.202730
H109	H	-0.230054	0.629154	-0.200341
H110	H	-0.195042	0.699959	-0.149413
H111	H	-0.150957	0.672070	-0.227608
O112	O	-0.240584	1.063551	-1.074151
C113	C	-0.249855	1.054287	-1.144116
H114	H	-0.272014	1.002041	-1.153755
H115	H	-0.199148	1.058910	-1.170993
H116	H	-0.285897	1.094417	-1.164176
O117	O	-1.073330	0.892791	-0.411338
C118	C	-1.114292	0.849120	-0.372772
H119	H	-1.093025	0.844955	-0.319459
H120	H	-1.115124	0.797020	-0.397211
H121	H	-1.167847	0.870070	-0.370463
O122	O	-0.240724	0.370315	-0.240911
C123	C	-0.279196	0.411157	-0.197107
H124	H	-0.330518	0.421746	-0.220885
H125	H	-0.251605	0.460867	-0.188077
H126	H	-0.286573	0.383887	-0.146939
O127	O	-0.411313	0.892878	-1.073897
C128	C	-0.478780	0.907635	-1.056619
H129	H	-0.480199	0.933642	-1.005299
H130	H	-0.509122	0.858766	-1.054186
H131	H	-0.501574	0.942427	-1.096401
O132	O	-0.578081	1.063482	-0.240922
C133	C	-0.537143	1.107173	-0.279491
H134	H	-0.526535	1.083267	-0.330760
H135	H	-0.487448	1.116244	-0.251919
H136	H	-0.564340	1.157337	-0.286981
H137	H	-0.404707	0.720458	-0.404481
O138	O	-0.934025	0.892836	-0.411501
C139	C	-0.951231	0.907598	-0.478979
H140	H	-1.002529	0.933642	-0.480414
H141	H	-0.953679	0.858727	-0.509276
H142	H	-0.911400	0.942359	-0.501811
O143	O	-1.073290	1.063715	-0.241019
C144	C	-1.114119	1.107416	-0.279608
H145	H	-1.092777	1.111542	-0.332918
H146	H	-1.114880	1.159524	-0.255186
H147	H	-1.167712	1.086519	-0.281923
O148	O	-0.411551	0.370153	-0.411366
C149	C	-0.449821	0.323802	-0.449495
H150	H	-0.422105	0.273425	-0.451893
H151	H	-0.457107	0.344246	-0.502809
H152	H	-0.501195	0.316254	-0.424617
O153	O	-0.240715	0.586629	-0.240861
C154	C	-0.279192	0.545693	-0.197088
H155	H	-0.332493	0.566973	-0.192803
H156	H	-0.254640	0.544876	-0.145045
H157	H	-0.281557	0.492129	-0.218017
