data_functionalizedCrystal
_audit_creation_method	'MofGen! by Chris Wilmer'
_symmetry_space_group_name_H-M	'P1'
_symmetry_Int_Tables_number	1
_symmetry_cell_setting	triclinic
loop_
_symmetry_equiv_pos_as_xyz
  x,y,z
_cell_length_a	18.101398
_cell_length_b	12.594516
_cell_length_c	18.101389
_cell_angle_alpha	90.014195
_cell_angle_beta	90.009745
_cell_angle_gamma	90.007372
loop_
_atom_site_label
_atom_site_type_symbol
_atom_site_fract_x
_atom_site_fract_y
_atom_site_fract_z
Zn1	Zn	1.132220	-0.423980	0.418572
Zn2	Zn	1.132158	-0.601948	0.294740
Zn3	Zn	1.008379	-0.423970	0.294765
Zn4	Zn	1.008372	-0.601903	0.418560
O5	O	1.070282	-0.512950	0.356659
O6	O	1.235845	-0.447611	0.402140
O7	O	1.115715	-0.578353	0.191110
O8	O	1.024836	-0.275025	0.311204
O9	O	1.235799	-0.578363	0.311161
O10	O	1.115822	-0.275033	0.402165
O11	O	1.024776	-0.447593	0.191129
O12	O	0.904745	-0.447550	0.311192
O13	O	1.024823	-0.578287	0.522195
O14	O	0.904740	-0.578277	0.402144
O15	O	1.115814	-0.447567	0.522204
O16	O	1.115708	-0.750888	0.311149
O17	O	1.024763	-0.750855	0.402119
C18	C	0.877872	-0.512908	0.356670
C19	C	0.795558	-0.512916	0.356692
C20	C	1.070248	-0.789491	0.356646
C21	C	1.070301	-0.907797	0.356666
C22	C	0.496467	-0.512979	0.356661
C23	C	0.527813	-0.595626	0.413603
C24	C	0.613431	-0.595367	0.413837
C25	C	0.644849	-0.512949	0.356676
C26	C	0.613768	-0.400845	0.377998
C27	C	0.528123	-0.401342	0.378403
C28	C	0.528021	-0.541446	0.278259
C29	C	0.613671	-0.543906	0.278679
C30	C	0.728709	-0.512925	0.356684
C31	C	0.412607	-0.512995	0.356655
C32	C	1.119823	-0.977029	0.307240
C33	C	1.137919	-1.047751	0.374831
C34	C	1.052298	-1.047874	0.289118
C35	C	1.088431	-0.976960	0.424292
C36	C	1.002779	-0.977077	0.338533
C37	C	1.020849	-1.047767	0.406171
C38	C	1.263444	-0.512993	0.356649
C39	C	1.345758	-0.513011	0.356645
C40	C	1.070325	-0.512923	0.549821
C41	C	1.070343	-0.512912	0.632135
C42	C	1.070337	-0.235329	0.356688
C43	C	1.070360	-0.117024	0.356701
C44	C	1.070282	-0.512900	0.164249
C45	C	1.070407	-0.512612	0.081935
C46	C	1.070386	-0.512712	0.931227
C47	C	1.012940	-0.594696	0.899896
C48	C	1.013095	-0.595076	0.814277
C49	C	1.070364	-0.512811	0.782844
C50	C	1.148397	-0.543267	0.813931
C51	C	1.148077	-0.543805	0.899576
C52	C	1.050479	-0.400091	0.899650
C53	C	1.048743	-0.400742	0.814000
C54	C	1.070357	-0.512865	0.698984
C55	C	1.070399	-0.512661	1.015086
H56	H	0.634446	-0.678498	0.400474
H57	H	1.192349	-0.485430	0.793571
H58	H	0.954902	-0.575832	0.920495
N59	N	0.640720	-0.317054	0.324785
H60	H	0.623688	-0.335168	0.273162
H61	H	0.696467	-0.314249	0.326052
H62	H	0.507217	-0.679029	0.400389
N63	N	0.965403	-1.088670	0.461607
H64	H	0.914528	-1.061818	0.448350
H65	H	0.979176	-1.062728	0.512581
N66	N	0.641975	-0.469950	0.219454
H67	H	0.670413	-0.511992	0.181390
H68	H	0.675532	-0.415094	0.242503
N69	N	0.499320	-0.571006	0.490108
H70	H	0.466195	-0.506548	0.488042
H71	H	0.542368	-0.556337	0.524114
H72	H	0.945668	-0.946008	0.323157
N73	N	1.032092	-1.089140	0.213435
H74	H	1.069515	-1.063408	0.176131
H75	H	0.981418	-1.062319	0.199405
H76	H	1.164950	-0.626132	0.919560
H77	H	0.507748	-0.481246	0.235833
N78	N	1.030190	-0.704598	0.928399
H79	H	0.986621	-0.732406	0.957384
H80	H	1.075068	-0.701414	0.961485
H81	H	1.161710	-0.945968	0.265480
H82	H	0.633929	-0.576533	0.471927
N83	N	1.108729	-0.935891	0.500002
H84	H	1.071596	-0.962225	0.537393
H85	H	1.108614	-0.855705	0.499451
N86	N	0.501667	-0.369254	0.454298
H87	H	0.545639	-0.354933	0.487179
H88	H	0.471022	-0.428446	0.476149
H89	H	0.635227	-0.376262	0.434690
H90	H	0.955232	-0.576017	0.793259
H91	H	1.026241	-0.678554	0.793796
H92	H	0.507387	-0.337558	0.338831
H93	H	1.192331	-0.486684	0.920303
N94	N	1.171142	-0.651157	0.785532
H95	H	1.131018	-0.680461	0.752537
H96	H	1.179131	-0.700757	0.828632
H97	H	0.994565	-0.372346	0.921249
H98	H	0.991318	-0.377775	0.793681
N99	N	1.213584	-1.088889	0.395177
H100	H	1.248046	-1.027075	0.403928
H101	H	1.233309	-1.134182	0.353572
H102	H	1.092320	-0.339009	0.919912
N103	N	0.499407	-0.647861	0.252578
H104	H	0.465695	-0.678696	0.291511
H105	H	0.542364	-0.697536	0.244047
N106	N	0.640648	-0.653129	0.257337
H107	H	0.672924	-0.682450	0.298022
H108	H	0.670141	-0.648277	0.210101
N109	N	1.100116	-0.315527	0.785662
H110	H	1.138306	-0.348509	0.752079
H111	H	1.125608	-0.280104	0.828753
