data_functionalizedCrystal
_audit_creation_method	'MofGen! by Chris Wilmer'
_symmetry_space_group_name_H-M	'P1'
_symmetry_Int_Tables_number	1
_symmetry_cell_setting	triclinic
loop_
_symmetry_equiv_pos_as_xyz
  x,y,z
_cell_length_a	14.853567
_cell_length_b	14.853567
_cell_length_c	13.930277
_cell_angle_alpha	90.000757
_cell_angle_beta	89.995755
_cell_angle_gamma	96.365070
loop_
_atom_site_label
_atom_site_type_symbol
_atom_site_fract_x
_atom_site_fract_y
_atom_site_fract_z
O1	O	1.196368	-0.117704	-0.079756
O2	O	0.933909	-0.131725	-0.079772
O3	O	1.072149	0.006516	-0.079767
O4	O	1.058128	-0.255944	-0.079762
O5	O	1.072130	0.006519	0.079895
O6	O	0.933890	-0.131722	0.079890
O7	O	1.196349	-0.117701	0.079905
Zn8	Zn	1.065116	-0.124711	0.105247
Zn9	Zn	1.065142	-0.124715	-0.105114
O10	O	1.058109	-0.255941	0.079900
C11	C	0.900311	-0.131088	0.000057
C12	C	0.800227	-0.129184	0.000051
C13	C	0.387693	-0.039019	0.000070
C14	C	0.366412	-0.203251	0.000073
C15	C	0.460446	-0.205042	0.000070
C16	C	0.518108	-0.123819	0.000066
C17	C	0.481736	-0.040806	0.000065
C18	C	0.496825	-0.288053	0.000061
C19	C	0.590864	-0.289846	0.000057
C20	C	0.648528	-0.208623	0.000060
C21	C	0.612150	-0.125607	0.000060
C22	C	0.669812	-0.044384	0.000056
C23	C	0.633437	0.038633	0.000063
C24	C	0.539399	0.040417	0.000067
C25	C	0.742565	-0.210407	0.000055
C26	C	0.763855	-0.046172	0.000050
C27	C	1.071504	0.040106	0.000061
C28	C	1.069601	0.140189	0.000053
C29	C	1.229947	-0.118337	0.000075
C30	C	1.330031	-0.120241	0.000075
C31	C	1.058754	-0.289531	0.000070
C32	C	1.060657	-0.389615	0.000072
N33	N	1.065106	-0.124708	0.248814
C34	C	0.979435	0.552723	0.000066
C35	C	1.143668	0.574004	0.000076
C36	C	1.145458	0.479971	0.000070
C37	C	1.064235	0.422309	0.000064
C38	C	0.981223	0.458680	0.000063
C39	C	1.228469	0.443591	0.000080
C40	C	1.230262	0.349552	0.000076
C41	C	1.149039	0.291889	0.000063
C42	C	1.066023	0.328266	0.000061
C43	C	0.984800	0.270604	0.000055
C44	C	0.901783	0.306979	0.000047
C45	C	0.899999	0.401017	0.000050
C46	C	1.150823	0.197851	0.000059
C47	C	0.986588	0.176561	0.000052
N48	N	1.065160	-0.124711	-0.248680
C49	C	1.003926	-0.185904	0.701081
C50	C	1.126382	-0.063519	0.701055
C51	C	1.126371	-0.063516	0.600559
C52	C	1.065138	-0.124709	0.550319
C53	C	1.003916	-0.185904	0.600576
C54	C	1.187598	-0.002328	0.550295
C55	C	1.187591	-0.002323	0.449793
C56	C	1.126353	-0.063512	0.399552
C57	C	1.065127	-0.124710	0.449814
C58	C	1.003894	-0.185902	0.399575
C59	C	0.942664	-0.247096	0.449835
C60	C	0.942677	-0.247094	0.550334
C61	C	1.126339	-0.063515	0.299053
C62	C	1.003883	-0.185903	0.299070
H63	H	0.920445	0.129618	0.000043
H64	H	0.892811	-0.296924	0.408919
H65	H	0.832411	0.430643	0.000044
H66	H	1.237457	0.047489	0.591203
N67	N	0.814180	0.244784	0.000065
H68	H	0.827916	0.179694	0.000074
H69	H	0.778005	0.256559	-0.059123
H70	H	0.911844	0.582344	0.000055
N71	N	1.253627	0.063675	0.395587
H72	H	1.292418	0.102439	0.442665
H73	H	1.219059	0.103597	0.353901
N74	N	1.231268	0.636190	0.000098
H75	H	1.217539	0.701282	0.000104
H76	H	1.267450	0.624409	-0.059089
H77	H	1.294596	0.490546	0.000094
H78	H	1.297860	0.319944	0.000082
H79	H	1.176196	-0.013696	0.258136
N80	N	0.937894	-0.251907	0.755284
H81	H	0.899105	-0.290671	0.708205
H82	H	0.898001	-0.217319	0.796988
N83	N	0.826046	0.041434	0.000056
H84	H	0.788730	0.094291	0.000064
H85	H	0.865526	0.044275	-0.059135
N86	N	0.781801	-0.299934	0.000037
H87	H	0.731003	-0.351116	0.000034
H88	H	0.820352	-0.304258	0.059223
H89	H	0.954016	-0.235731	0.258171
N90	N	0.695628	0.126239	0.000057
H91	H	0.735116	0.129155	-0.059135
H92	H	0.735062	0.129100	0.059278
N93	N	0.876647	-0.313089	0.604551
H94	H	0.911155	-0.353067	0.646237
H95	H	0.837864	-0.351795	0.557422
N96	N	0.500156	0.129945	0.000077
H97	H	0.461616	0.134343	-0.059108
H98	H	0.550996	0.181081	0.000115
N99	N	1.240350	0.158615	0.000078
H100	H	1.291533	0.209413	0.000089
H101	H	1.244682	0.120065	-0.059112
H102	H	0.319459	-0.269379	0.000068
N103	N	0.348458	0.050513	0.000087
H104	H	0.309913	0.054919	-0.059094
H105	H	0.399304	0.101644	0.000121
N106	N	0.434637	-0.375652	0.000055
H107	H	0.369546	-0.361921	0.000064
H108	H	0.446426	-0.411827	0.059240
N109	N	0.630095	-0.379380	0.000043
H110	H	0.579296	-0.430561	0.000043
H111	H	0.668646	-0.383703	0.059229
H112	H	1.176240	-0.013702	0.741963
