data_functionalizedCrystal
_audit_creation_method	'MofGen! by Chris Wilmer'
_symmetry_space_group_name_H-M	'P1'
_symmetry_Int_Tables_number	1
_symmetry_cell_setting	triclinic
loop_
_symmetry_equiv_pos_as_xyz
  x,y,z
_cell_length_a	6.817900
_cell_length_b	11.168129
_cell_length_c	11.102193
_cell_angle_alpha	91.985940
_cell_angle_beta	108.604059
_cell_angle_gamma	108.508637
loop_
_atom_site_label
_atom_site_type_symbol
_atom_site_fract_x
_atom_site_fract_y
_atom_site_fract_z
V1	V	-4.111010	-0.174714	-0.396269
O2	O	-4.070572	0.008386	-0.388714
O3	O	-4.087291	-0.346419	-0.393569
O4	O	-4.087792	-0.172030	-0.569090
O5	O	-4.070067	-0.167210	-0.211978
V6	V	-4.588177	-0.152812	-0.374225
O7	O	-4.386211	-0.222756	-0.444624
O8	O	-4.763173	-0.104770	-0.325869
O9	O	-4.388689	0.018893	-0.376924
O10	O	-4.746011	-0.335913	-0.381779
O11	O	-4.746516	-0.160317	-0.558515
O12	O	-4.388188	-0.155496	-0.201403
C13	C	-3.937481	-0.388277	-0.387321
C14	C	-3.999542	-0.528648	-0.386266
C15	C	-3.970083	-0.574092	-0.275188
C16	C	-4.034226	-0.719172	-0.274095
C17	C	-3.938118	-0.165825	-0.611213
C18	C	-4.000582	-0.164768	-0.752496
C19	C	-4.120242	-0.396044	-0.788837
C20	C	-4.209409	-0.511180	-0.873381
C21	C	-4.268098	-0.510179	-1.006127
C22	C	-4.237621	-0.394030	-1.054330
C23	C	-4.148455	-0.278894	-0.969787
C24	C	-4.089765	-0.279907	-0.837040
C25	C	-4.028810	-0.047620	-0.933446
C26	C	-3.970105	-0.048618	-0.800699
C27	C	-3.998333	0.068529	-0.981650
C28	C	-3.909150	0.183669	-0.897106
C29	C	-3.850458	0.182663	-0.764353
C30	C	-3.880938	0.066518	-0.716156
C31	C	-4.201841	0.060744	-0.383169
C32	C	-4.119019	0.201114	-0.384232
C33	C	-4.201203	-0.161705	-0.159273
C34	C	-4.117977	-0.162756	-0.017990
H35	H	-4.009098	-0.758318	-0.178995
H36	H	-3.897388	-0.505590	-0.180900
H37	H	-4.340708	-0.603933	-1.074963
H38	H	-3.884359	0.278228	-0.936366
C39	C	-4.242648	-0.637392	-0.821255
C40	C	-4.466586	-0.713053	-0.870576
C41	C	-4.497159	-0.829347	-0.822634
H42	H	-4.159171	-0.680652	-0.846443
H43	H	-4.194987	-0.621692	-0.730081
H44	H	-4.514222	-0.728757	-0.961730
H45	H	-4.550110	-0.669833	-0.845392
H46	H	-4.449498	-0.813647	-0.731460
H47	H	-4.413671	-0.872595	-0.847825
H48	H	-4.649104	-0.880692	-0.856081
H49	H	-4.144130	-0.759748	-0.479336
H50	H	-4.072256	-0.597150	-0.480555
C51	C	-4.301395	-0.393204	-1.198494
C52	C	-4.385972	-0.518892	-1.262214
C53	C	-4.444715	-0.518178	-1.395017
H54	H	-4.410367	-0.354388	-1.226118
H55	H	-4.174874	-0.346290	-1.217733
H56	H	-4.512477	-0.565788	-1.242984
H57	H	-4.277036	-0.557732	-1.234629
H58	H	-4.318194	-0.471265	-1.414256
H59	H	-4.553681	-0.479358	-1.422628
H60	H	-4.502088	-0.603455	-1.438267
C61	C	-3.753580	0.307811	-0.672771
C62	C	-3.739414	0.409733	-0.743404
C63	C	-3.650157	0.525041	-0.659087
H64	H	-3.845778	0.308369	-0.624334
H65	H	-3.610412	0.316342	-0.616109
H66	H	-3.882560	0.401205	-0.800044
H67	H	-3.647204	0.409217	-0.791837
H68	H	-3.506988	0.533572	-0.602425
H69	H	-3.742365	0.525586	-0.610655
H70	H	-3.640514	0.594209	-0.706998
C71	C	-3.816983	0.065693	-0.571987
C72	C	-3.732327	0.191382	-0.508257
C73	C	-3.673372	0.190668	-0.375449
H74	H	-3.943369	0.018800	-0.552640
H75	H	-3.707989	0.026859	-0.544470
H76	H	-3.841313	0.230199	-0.535764
H77	H	-3.605923	0.238298	-0.527566
H78	H	-3.564378	0.151833	-0.347931
H79	H	-3.799768	0.143770	-0.356115
H80	H	-3.615908	0.275945	-0.332191
H81	H	-4.046142	0.069336	-1.089741
H82	H	-4.072429	-0.396870	-0.680750
