data_functionalizedCrystal
_audit_creation_method	'MofGen! by Chris Wilmer'
_symmetry_space_group_name_H-M	'P1'
_symmetry_Int_Tables_number	1
_symmetry_cell_setting	triclinic
loop_
_symmetry_equiv_pos_as_xyz
  x,y,z
_cell_length_a	21.295418
_cell_length_b	18.050589
_cell_length_c	18.050582
_cell_angle_alpha	90.018205
_cell_angle_beta	89.965893
_cell_angle_gamma	89.955964
loop_
_atom_site_label
_atom_site_type_symbol
_atom_site_fract_x
_atom_site_fract_y
_atom_site_fract_z
Zn1	Zn	0.962306	0.295393	-0.420315
Zn2	Zn	0.962230	0.419576	-0.296135
Zn3	Zn	0.857047	0.295439	-0.296098
Zn4	Zn	0.857003	0.419580	-0.420242
O5	O	0.909646	0.357497	-0.358197
O6	O	1.050385	0.311846	-0.403889
O7	O	0.948264	0.403127	-0.192205
O8	O	0.871060	0.191508	-0.312591
O9	O	1.050330	0.403083	-0.312654
O10	O	0.948393	0.191475	-0.403853
O11	O	0.870986	0.311924	-0.192178
O12	O	0.768952	0.311927	-0.312520
O13	O	0.870985	0.403089	-0.524176
O14	O	0.768919	0.403133	-0.403727
O15	O	0.948350	0.311849	-0.524230
O16	O	0.948221	0.523502	-0.312582
O17	O	0.870911	0.523504	-0.403763
C18	C	0.909570	0.550449	-0.358185
C19	C	0.909596	0.632995	-0.358205
C20	C	0.746095	0.357536	-0.358112
C21	C	0.676127	0.357571	-0.358093
C22	C	0.909671	0.357464	-0.551903
C23	C	0.909682	0.357450	-0.634449
C24	C	0.643260	0.405125	-0.405514
C25	C	0.577517	0.405106	-0.405547
C26	C	0.544644	0.357542	-0.358146
C27	C	0.577519	0.309979	-0.310722
C28	C	0.643260	0.309993	-0.310695
N29	N	0.441377	0.351735	-0.293191
N30	N	0.378926	0.351726	-0.293218
C31	C	0.346570	0.357495	-0.358225
N32	N	0.379024	0.363288	-0.423205
N33	N	0.441481	0.363301	-0.423177
C34	C	0.473359	0.357521	-0.358170
C35	C	0.242417	0.405031	-0.405686
C36	C	0.176673	0.405008	-0.405721
C37	C	0.176677	0.309884	-0.310889
C38	C	0.242419	0.309904	-0.310861
C39	C	0.275285	0.357481	-0.358259
C40	C	1.073837	0.357459	-0.358284
C41	C	1.143805	0.357442	-0.358320
C42	C	0.909740	0.163792	-0.358226
C43	C	0.909780	0.081246	-0.358238
C44	C	0.867596	0.832474	-0.407771
C45	C	0.852255	0.881913	-0.339998
C46	C	0.909657	0.784125	-0.358214
C47	C	0.925029	0.881768	-0.425995
C48	C	0.909716	0.930111	-0.358230
C49	C	0.894287	0.832477	-0.290405
C50	C	0.967087	0.832328	-0.376448
C51	C	0.951768	0.881745	-0.308628
C52	C	0.909622	0.700027	-0.358206
C53	C	0.909751	1.014207	-0.358230
C54	C	0.867642	0.406999	-0.833870
C55	C	0.925074	0.425133	-0.883286
C56	C	0.909713	0.357394	-0.785579
C57	C	0.852313	0.339238	-0.883246
C58	C	0.909738	0.357340	-0.931565
C59	C	0.967174	0.375564	-0.833908
C60	C	0.894375	0.289637	-0.833863
C61	C	0.951846	0.307746	-0.883256
C62	C	0.909697	0.357426	-0.701481
C63	C	0.909759	0.357307	-1.015661
C64	C	0.909658	0.357476	-0.165245
C65	C	0.909770	0.357281	-0.082700
H66	H	0.670015	0.443865	-0.444110
H67	H	0.881370	0.232376	-0.812138
H68	H	0.831973	0.810839	-0.449621
H69	H	0.938062	0.482411	-0.904994
C70	C	0.999852	0.910796	-0.251956
C71	C	1.069704	0.890026	-0.259638
C72	C	1.117782	0.919079	-0.202962
C73	C	1.096008	0.968903	-0.138605
C74	C	1.026152	0.989675	-0.130921
C75	C	0.978074	0.960622	-0.187596
H76	H	1.085825	0.853141	-0.307282
H77	H	1.169494	0.903702	-0.208651
H78	H	1.131598	0.990410	-0.096650
H79	H	1.010031	1.026560	-0.083277
H80	H	0.926363	0.975999	-0.181907
H81	H	1.015741	0.390962	-0.812325
C82	C	0.876676	0.803356	-0.212953
C83	C	0.862375	0.858238	-0.149815
C84	C	0.844761	0.829115	-0.072366
C85	C	0.841449	0.745110	-0.058054
C86	C	0.855750	0.690223	-0.121194
C87	C	0.873363	0.719346	-0.198643
H88	H	0.864827	0.920428	-0.160408
H89	H	0.834175	0.869746	-0.025626
H90	H	0.828410	0.723551	-0.000722
H91	H	0.853298	0.628033	-0.110601
H92	H	0.883950	0.678714	-0.245383
C93	C	0.999976	0.251052	-0.912385
C94	C	1.069973	0.259415	-0.892744
C95	C	1.118105	0.202728	-0.921879
C96	C	1.096240	0.137678	-0.970655
C97	C	1.026239	0.129312	-0.990299
C98	C	0.978107	0.185999	-0.961164
H99	H	1.086162	0.307571	-0.856634
H100	H	1.169925	0.208922	-0.907337
H101	H	1.131870	0.095715	-0.992223
H102	H	1.010050	0.081156	-1.026409
H103	H	0.926288	0.179806	-0.975706
H104	H	0.803760	0.323905	-0.904919
H105	H	1.015615	0.810534	-0.391889
C106	C	0.278574	0.257604	-0.258683
C107	C	0.269609	0.173184	-0.264880
C108	C	0.305763	0.120880	-0.212698
C109	C	0.350882	0.152997	-0.154319
C110	C	0.359849	0.237422	-0.148120
C111	C	0.323696	0.289725	-0.200302
H112	H	0.236207	0.149405	-0.308097
H113	H	0.299124	0.058384	-0.217287
H114	H	0.377645	0.114279	-0.115691
H115	H	0.393251	0.261200	-0.104902
H116	H	0.330334	0.352221	-0.195712
H117	H	0.550752	0.443830	-0.444166
H118	H	0.938006	0.903420	-0.483311
H119	H	0.832098	0.449003	-0.812187
H120	H	0.670020	0.271267	-0.272079
C121	C	0.140518	0.457322	-0.457888
C122	C	0.095247	0.515567	-0.425623
C123	C	0.059091	0.567884	-0.477790
C124	C	0.068207	0.561954	-0.562222
C125	C	0.113480	0.503706	-0.594492
C126	C	0.149636	0.451390	-0.542325
H127	H	0.088497	0.519959	-0.363117
H128	H	0.025577	0.611003	-0.453901
H129	H	0.041443	0.600682	-0.600840
H130	H	0.120230	0.499315	-0.656998
H131	H	0.183150	0.408271	-0.566213
H132	H	0.550750	0.271251	-0.272129
H133	H	0.269178	0.443768	-0.444284
H134	H	0.803716	0.903709	-0.324590
C135	C	0.140525	0.257560	-0.258748
C136	C	0.068212	0.257540	-0.258775
C137	C	0.032056	0.205212	-0.206635
C138	C	0.068214	0.152904	-0.154468
C139	C	0.140531	0.152922	-0.154438
C140	C	0.176686	0.205251	-0.206578
H141	H	0.041442	0.296263	-0.297394
H142	H	-0.021477	0.205198	-0.206657
H143	H	0.041450	0.114167	-0.115870
H144	H	0.167300	0.114199	-0.115819
H145	H	0.230220	0.205264	-0.206556
