data_functionalizedCrystal
_audit_creation_method	'MofGen! by Chris Wilmer'
_symmetry_space_group_name_H-M	'P1'
_symmetry_Int_Tables_number	1
_symmetry_cell_setting	triclinic
loop_
_symmetry_equiv_pos_as_xyz
  x,y,z
_cell_length_a	15.944551
_cell_length_b	10.654550
_cell_length_c	9.130313
_cell_angle_alpha	90.000276
_cell_angle_beta	89.994529
_cell_angle_gamma	96.008166
loop_
_atom_site_label
_atom_site_type_symbol
_atom_site_fract_x
_atom_site_fract_y
_atom_site_fract_z
O1	O	0.117977	-1.666313	-0.121694
O2	O	0.129217	-1.300689	-0.121721
O3	O	0.001379	-1.493485	-0.121693
O4	O	0.245814	-1.473517	-0.121721
O5	O	0.001376	-1.493472	0.121906
O6	O	0.129213	-1.300676	0.121878
O7	O	0.117973	-1.666300	0.121905
Cu8	Cu	0.123592	-1.483487	0.144134
Cu9	Cu	0.123597	-1.483502	-0.143950
O10	O	0.245810	-1.473503	0.121878
C11	C	0.128389	-1.253895	0.000075
C12	C	0.125920	-1.114484	0.000065
C13	C	-0.029921	-1.492650	0.000106
C14	C	-0.123182	-1.490165	0.000107
N15	N	0.123589	-1.483485	0.346757
C16	C	-0.338764	-1.364720	0.000077
C17	C	-0.399446	-1.422966	0.120191
C18	C	-0.293933	-1.485668	0.000095
C19	C	-0.399426	-1.423007	-0.119979
C20	C	-0.458871	-1.481317	0.000078
C21	C	-0.353387	-1.543947	0.120308
C22	C	-0.353360	-1.543972	-0.119969
C23	C	-0.414024	-1.602306	0.000173
C24	C	-0.198917	-1.488172	0.000107
C25	C	-0.553887	-1.478822	0.000077
C26	C	0.277110	-1.474339	0.000075
C27	C	0.370371	-1.476824	0.000065
C28	C	0.118800	-1.713094	0.000106
C29	C	0.121269	-1.852505	0.000106
C30	C	0.201189	-1.034024	0.000061
C31	C	0.198863	-0.903034	0.000087
C32	C	0.045995	-0.932975	0.000115
C33	C	0.048321	-1.063963	0.000100
N34	N	0.123594	-1.483514	-0.346572
C35	C	0.067007	-1.568884	0.423421
C36	C	0.067007	-1.568896	0.576758
C37	C	0.180179	-1.398106	0.576753
C38	C	0.180174	-1.398089	0.423419
H39	H	-0.419852	-1.371804	0.221729
N40	N	-0.454915	-1.728343	0.000247
N41	N	-0.502771	-1.765469	-0.102892
H42	H	-0.531654	-1.854481	-0.102835
N43	N	0.237978	-1.310872	0.345076
N44	N	0.237964	-1.310875	0.208172
H45	H	0.278786	-1.249281	0.152838
H46	H	-0.332933	-1.595090	-0.221513
N47	N	0.280444	-1.085653	0.000028
N48	N	0.298798	-1.155398	-0.102665
H49	H	0.354774	-1.191859	-0.102685
H50	H	-0.017184	-0.891824	0.000152
H51	H	-0.012976	-1.129477	0.000108
H52	H	0.020930	-1.638416	0.361006
H53	H	0.226250	-1.328580	0.639186
N54	N	-0.297716	-1.238776	0.000222
N55	N	-0.309999	-1.165572	0.103189
H56	H	-0.281008	-1.076625	0.103297
N57	N	-0.424996	-1.358799	-0.247350
N58	N	-0.397876	-1.245927	-0.268723
H59	H	-0.415932	-1.200570	-0.358672
H60	H	0.020931	-1.638433	0.639173
N61	N	-0.327934	-1.608065	0.247828
N62	N	-0.251714	-1.620277	0.268441
H63	H	-0.233735	-1.665556	0.358502
N64	N	0.275757	-0.820865	0.000093
N65	N	0.345031	-0.865995	0.000071
H66	H	0.399341	-0.807964	0.000079
