data_functionalizedCrystal
_audit_creation_method	'MofGen! by Chris Wilmer'
_symmetry_space_group_name_H-M	'P1'
_symmetry_Int_Tables_number	1
_symmetry_cell_setting	triclinic
loop_
_symmetry_equiv_pos_as_xyz
  x,y,z
_cell_length_a	9.065218
_cell_length_b	17.038272
_cell_length_c	8.140239
_cell_angle_alpha	89.996147
_cell_angle_beta	89.997198
_cell_angle_gamma	88.063721
loop_
_atom_site_label
_atom_site_type_symbol
_atom_site_fract_x
_atom_site_fract_y
_atom_site_fract_z
O1	O	1.971908	0.114742	-0.136620
O2	O	1.543567	0.124153	-0.136623
O3	O	1.755192	0.005614	-0.136608
O4	O	1.760283	0.233281	-0.136634
O5	O	1.755179	0.005612	0.136619
O6	O	1.543555	0.124152	0.136605
O7	O	1.971895	0.114740	0.136607
Zn8	Zn	1.757723	0.119446	0.179986
Zn9	Zn	1.757740	0.119448	-0.180002
O10	O	1.760271	0.233280	0.136593
C11	C	1.488484	0.123248	-0.000009
C12	C	1.324369	0.120544	-0.000010
C13	C	1.750555	-0.023549	0.000005
C14	C	1.736739	-0.110441	0.000005
C15	C	1.863587	-0.159639	0.000007
C16	C	1.850596	-0.241284	-0.000009
C17	C	1.710756	-0.273728	-0.000015
C18	C	1.583899	-0.224524	-0.000022
C19	C	1.596891	-0.142881	-0.000019
C20	C	1.664859	-0.519818	-0.000038
C21	C	1.651876	-0.601467	-0.000037
C22	C	1.918575	-0.618221	-0.000026
C23	C	1.931554	-0.536576	-0.000012
C24	C	1.804697	-0.487379	-0.000028
C25	C	1.697475	-0.357182	-0.000026
C26	C	1.817980	-0.403927	-0.000029
C27	C	2.026979	0.115646	-0.000010
C28	C	2.191093	0.118350	-0.000020
C29	C	1.764908	0.262442	-0.000024
C30	C	1.778724	0.349335	-0.000034
N31	N	1.757722	0.119444	0.425669
N32	N	1.757751	0.119443	-0.425685
H33	H	1.977459	-0.133230	0.000022
H34	H	1.493597	-0.102824	-0.000021
H35	H	2.021854	-0.658286	-0.000016
O36	O	1.515915	-0.632855	-0.000134
C37	C	1.252756	-0.607626	-0.000084
C38	C	1.406628	-0.571974	-0.000011
H39	H	1.164357	-0.558421	0.000049
H40	H	1.239937	-0.645400	-0.114458
H41	H	1.240068	-0.645461	0.114232
H42	H	1.419422	-0.534104	-0.114250
H43	H	1.419378	-0.534246	0.114438
O44	O	1.561555	-0.388606	0.000196
C45	C	1.329666	-0.399319	0.141796
C46	C	1.483535	-0.363663	0.141738
H47	H	1.266554	-0.379180	0.256238
H48	H	1.266365	-0.379108	0.027532
H49	H	1.342214	-0.466121	0.141707
H50	H	1.471122	-0.296860	0.141885
H51	H	1.546781	-0.383937	0.255992
H52	H	1.953890	-0.281338	-0.000003
O53	O	1.541674	-0.472005	-0.000334
C54	C	1.401586	-0.370076	-0.141842
C55	C	1.541145	-0.424194	-0.141731
H56	H	1.401129	-0.331395	-0.256131
H57	H	1.299365	-0.407257	-0.141946
H58	H	1.400999	-0.331472	-0.027446
H59	H	1.541876	-0.462808	-0.256106
H60	H	1.643304	-0.386966	-0.141541
O61	O	1.447945	-0.255908	-0.000107
C62	C	1.184790	-0.230667	-0.000024
C63	C	1.338669	-0.195023	0.000030
H64	H	1.096398	-0.181458	0.000122
H65	H	1.171952	-0.268439	-0.114397
H66	H	1.172107	-0.268501	0.114293
H67	H	1.351457	-0.157152	-0.114209
H68	H	1.351436	-0.157296	0.114479
H69	H	2.045426	-0.510166	-0.000007
H70	H	1.931837	-0.377507	-0.000060
