data_functionalizedCrystal
_audit_creation_method	'MofGen! by Chris Wilmer'
_symmetry_space_group_name_H-M	'P1'
_symmetry_Int_Tables_number	1
_symmetry_cell_setting	triclinic
loop_
_symmetry_equiv_pos_as_xyz
  x,y,z
_cell_length_a	13.032721
_cell_length_b	12.759401
_cell_length_c	12.759393
_cell_angle_alpha	89.979434
_cell_angle_beta	82.850774
_cell_angle_gamma	82.797506
loop_
_atom_site_label
_atom_site_type_symbol
_atom_site_fract_x
_atom_site_fract_y
_atom_site_fract_z
Zn1	Zn	-0.416035	-1.553101	0.647100
Zn2	Zn	-0.590813	-1.530658	0.493723
Zn3	Zn	-0.416080	-1.377394	0.471442
Zn4	Zn	-0.590730	-1.355068	0.669351
O5	O	-0.503414	-1.454055	0.570404
O6	O	-0.439235	-1.697143	0.626766
O7	O	-0.567688	-1.510278	0.343753
O8	O	-0.269837	-1.419439	0.476106
O9	O	-0.567644	-1.680654	0.514081
O10	O	-0.269804	-1.548530	0.605161
O11	O	-0.439313	-1.397676	0.327383
O12	O	-0.439232	-1.227414	0.497682
O13	O	-0.567502	-1.381386	0.813413
O14	O	-0.567546	-1.211010	0.643085
O15	O	-0.439155	-1.526881	0.797065
O16	O	-0.737039	-1.488629	0.535657
O17	O	-0.736978	-1.359624	0.664690
C18	C	-0.503386	-1.181091	0.570381
C19	C	-0.503399	-1.064313	0.570399
C20	C	-0.436655	-1.018023	0.629192
C21	C	-0.436662	-0.908298	0.629199
C22	C	-0.570165	-0.891162	0.511617
C23	C	-0.570152	-1.000886	0.511605
C24	C	-0.774926	-1.419296	0.605029
C25	C	-0.891080	-1.404523	0.619877
C26	C	-0.942860	-1.461822	0.562702
C27	C	-1.062911	-1.446554	0.578046
C28	C	-0.230843	-1.488978	0.535666
C29	C	-0.114689	-1.503861	0.520863
C30	C	-0.503314	-1.454147	0.844424
C31	C	-0.503271	-1.454186	0.961196
C32	C	-0.503434	-0.728086	0.570422
C33	C	-0.503418	-0.844865	0.570417
C34	C	-0.503439	-1.454034	0.297439
C35	C	-0.503187	-1.454236	0.180631
C36	C	-0.436430	-1.529951	1.007546
C37	C	-0.436385	-1.529974	1.117264
C38	C	-0.570032	-1.378463	1.134274
C39	C	-0.570071	-1.378436	1.024557
H40	H	-0.624504	-1.038576	0.463723
H41	H	-1.070148	-1.564228	0.460552
H42	H	-0.898317	-1.522185	0.502395
Br43	Br	-0.965314	-1.303924	0.720411
Br44	Br	-1.137142	-1.345951	0.678585
Br45	Br	-0.345772	-1.632751	0.921558
Br46	Br	-0.660755	-0.805077	0.431831
H47	H	-0.381954	-1.591669	1.154996
H48	H	-0.382297	-1.069663	0.677063
Br49	Br	-0.660687	-1.275669	1.220270
Br50	Br	-0.346073	-0.845480	0.708988
Br51	Br	-0.660781	-1.275596	0.961646
