data_functionalizedCrystal
_audit_creation_method	'MofGen! by Chris Wilmer'
_symmetry_space_group_name_H-M	'P1'
_symmetry_Int_Tables_number	1
_symmetry_cell_setting	triclinic
loop_
_symmetry_equiv_pos_as_xyz
  x,y,z
_cell_length_a	27.731994
_cell_length_b	26.809956
_cell_length_c	27.732064
_cell_angle_alpha	89.991600
_cell_angle_beta	82.634978
_cell_angle_gamma	90.002666
loop_
_atom_site_label
_atom_site_type_symbol
_atom_site_fract_x
_atom_site_fract_y
_atom_site_fract_z
O1	O	0.640952	0.041404	0.057385
O2	O	0.500155	0.041420	0.066158
O3	O	0.574922	0.041414	-0.008626
O4	O	0.566185	0.041411	0.132168
O5	O	0.574908	-0.041545	-0.008614
O6	O	0.500141	-0.041539	0.066169
O7	O	0.640938	-0.041555	0.057396
Zn8	Zn	0.570537	-0.054718	0.061785
Zn9	Zn	0.570556	0.054584	0.061770
O10	O	0.566171	-0.041548	0.132180
C11	C	0.482140	-0.000057	0.065983
C12	C	0.428484	-0.000051	0.065441
C13	C	0.095758	-0.045291	0.062032
C14	C	-0.105900	-0.045297	0.059970
O15	O	-0.131980	-0.083755	0.059688
N16	N	-0.131108	-0.000076	0.059708
C17	C	-0.105897	0.045150	0.059958
O18	O	-0.131963	0.083613	0.059682
C19	C	0.095761	0.045155	0.062016
C20	C	0.120965	-0.000069	0.062283
C21	C	0.120962	-0.090511	0.062298
C22	C	0.171373	-0.090510	0.062816
C23	C	0.196580	-0.045287	0.063068
C24	C	0.171376	-0.000067	0.062801
C25	C	0.120972	0.090380	0.062262
C26	C	0.171389	0.090377	0.062776
C27	C	0.196593	0.045153	0.063043
C28	C	0.246995	0.045157	0.063570
N29	N	0.272202	-0.000064	0.063833
C30	C	0.246994	-0.045286	0.063581
C31	C	-0.211770	0.045144	0.058878
C32	C	-0.262184	0.045143	0.058364
C33	C	-0.262185	-0.045304	0.058376
C34	C	-0.211770	-0.045302	0.058893
C35	C	-0.186563	-0.000077	0.059140
C36	C	0.352862	-0.045279	0.064670
C37	C	0.403277	-0.045273	0.065190
C38	C	0.403273	0.045174	0.065176
C39	C	0.352862	0.045168	0.064658
C40	C	0.327657	-0.000062	0.064403
O41	O	0.273105	0.083595	0.063847
O42	O	0.273071	-0.083744	0.063846
C43	C	0.045347	-0.045293	0.061514
C44	C	0.020143	-0.000073	0.061247
C45	C	0.045350	0.045150	0.061498
C46	C	-0.030272	-0.000074	0.060733
C47	C	-0.055479	-0.045296	0.060482
C48	C	-0.030272	-0.090517	0.060744
C49	C	0.020139	-0.090515	0.061262
C50	C	0.020143	0.090371	0.061236
C51	C	-0.030269	0.090365	0.060719
C52	C	-0.055476	0.045143	0.060467
N53	N	0.570528	-0.129314	0.061795
C54	C	0.603658	-0.473943	0.028664
C55	C	0.603670	-0.682821	0.028656
O56	O	0.631818	-0.709827	0.000490
N57	N	0.570558	-0.708942	0.061759
C58	C	0.537439	-0.682839	0.094864
O59	O	0.509273	-0.709849	0.123016
C60	C	0.537426	-0.473963	0.094868
C61	C	0.570543	-0.447845	0.061767
C62	C	0.636772	-0.447826	-0.004436
C63	C	0.636770	-0.395609	-0.004432
C64	C	0.603655	-0.369511	0.028671
C65	C	0.570541	-0.395629	0.061771
C66	C	0.504305	-0.447861	0.127971
C67	C	0.504304	-0.395639	0.127968
C68	C	0.537421	-0.369521	0.094866
C69	C	0.537425	-0.317314	0.094878
N70	N	0.570536	-0.291193	0.061775
C71	C	0.603651	-0.317292	0.028672
C72	C	0.537449	-0.792503	0.094859
C73	C	0.537453	-0.844722	0.094859
C74	C	0.603683	-0.844700	0.028651
C75	C	0.603681	-0.792480	0.028654
C76	C	0.570561	-0.766382	0.061757
C77	C	0.603646	-0.207634	0.028683
C78	C	0.603643	-0.155413	0.028691
C79	C	0.537412	-0.155439	0.094898
C80	C	0.537416	-0.207656	0.094891
C81	C	0.570535	-0.233752	0.061780
O82	O	0.509287	-0.290275	0.123026
O83	O	0.631806	-0.290273	0.000517
C84	C	0.603660	-0.526160	0.028660
C85	C	0.570546	-0.552277	0.061759
C86	C	0.537431	-0.526179	0.094862
C87	C	0.570550	-0.604496	0.061758
C88	C	0.603665	-0.630595	0.028655
C89	C	0.636776	-0.604474	-0.004448
C90	C	0.636775	-0.552258	-0.004444
C91	C	0.504319	-0.552299	0.127965
C92	C	0.504324	-0.604516	0.127959
C93	C	0.537439	-0.630614	0.094855
C94	C	0.658952	-0.000076	0.057571
C95	C	0.712608	-0.000079	0.058113
C96	C	0.574730	-0.000064	-0.026627
C97	C	0.574174	-0.000060	-0.080281
N98	N	0.570569	0.129180	0.061756
C99	C	0.526206	-0.000052	-0.457344
C100	C	0.528252	-0.000052	-0.255685
O101	O	0.491030	-0.000028	-0.224425
N102	N	0.572588	-0.000057	-0.236566
C103	C	0.616415	-0.000058	-0.267865
O104	O	0.654172	-0.000058	-0.246976
C105	C	0.614368	-0.000055	-0.469524
C106	C	0.570029	-0.000055	-0.488640
C107	C	0.481871	-0.000052	-0.476461
C108	C	0.481360	-0.000054	-0.526873
C109	C	0.525184	-0.000058	-0.558168
C110	C	0.569518	-0.000058	-0.539052
C111	C	0.658194	-0.000054	-0.500823
C112	C	0.657679	-0.000051	-0.551240
C113	C	0.613340	-0.000052	-0.570356
C114	C	0.612831	-0.000064	-0.620760
N115	N	0.568495	-0.000059	-0.639879
C116	C	0.524672	-0.000056	-0.608583
C117	C	0.617486	-0.000061	-0.161991
C118	C	0.617998	-0.000063	-0.111577
C119	C	0.529835	-0.000055	-0.099399
C120	C	0.529324	-0.000057	-0.149815
C121	C	0.573151	-0.000056	-0.181110
C122	C	0.523602	-0.000062	-0.714452
C123	C	0.523095	-0.000067	-0.764869
C124	C	0.611257	-0.000072	-0.777042
C125	C	0.611764	-0.000070	-0.726630
C126	C	0.567933	-0.000063	-0.695335
O127	O	0.650033	-0.000083	-0.652048
O128	O	0.486920	-0.000046	-0.629481
C129	C	0.526717	-0.000049	-0.406932
C130	C	0.571052	-0.000050	-0.387816
C131	C	0.614875	-0.000053	-0.419112
C132	C	0.571563	-0.000051	-0.337402
C133	C	0.527740	-0.000048	-0.306106
C134	C	0.483404	-0.000043	-0.325225
C135	C	0.482893	-0.000046	-0.375637
C136	C	0.659211	-0.000058	-0.399993
C137	C	0.659718	-0.000056	-0.349580
C138	C	0.615895	-0.000052	-0.318285
C139	C	0.566362	-0.000069	0.150181
C140	C	0.566918	-0.000071	0.203835
H141	H	-0.282717	-0.082126	0.058172
H142	H	0.654103	-0.000071	-0.096017
H143	H	0.630612	-0.134149	0.001736
F144	F	0.469072	-0.524529	0.163199
H145	H	0.100444	-0.127339	0.062092
H146	H	0.423806	0.081992	0.065382
F147	F	0.430098	-0.093409	0.065476
F148	F	0.046957	-0.138649	0.061546
H149	H	0.100459	0.127207	0.062044
F150	F	-0.057108	-0.138646	0.060479
H151	H	0.695827	-0.000060	-0.334022
F152	F	-0.184950	-0.093435	0.059176
H153	H	0.477339	-0.469119	0.154925
H154	H	0.510454	-0.228921	0.121850
H155	H	0.630647	-0.771218	0.001700
F156	F	0.638927	-0.872485	-0.006580
H157	H	0.332346	-0.082110	0.064467
F158	F	0.502197	-0.764733	0.130095
H159	H	0.332339	0.081993	0.064449
H160	H	-0.282702	0.081969	0.058155
H161	H	-0.050786	0.127195	0.060505
F162	F	0.482134	-0.000056	-0.170154
F163	F	0.198214	0.138514	0.063038
H164	H	0.486987	-0.000070	-0.780430
H165	H	0.663741	-0.530997	-0.031398
H166	H	-0.191251	0.081974	0.059079
H167	H	0.191890	-0.127336	0.063031
H168	H	0.040661	0.127197	0.061439
F169	F	0.638895	-0.235399	-0.006558
H170	H	0.445255	-0.000050	-0.542432
H171	H	0.663738	-0.469070	-0.031395
H172	H	0.477332	-0.374393	0.154924
H173	H	0.663736	-0.374347	-0.031387
H174	H	0.510492	-0.865983	0.121818
H175	H	0.647868	-0.000077	-0.711065
F176	F	0.502171	-0.127656	0.130128
F177	F	0.672021	-0.632259	-0.039677
F178	F	0.469076	-0.632307	0.163195
H179	H	0.694299	-0.000053	-0.485268
H180	H	0.694898	-0.000060	-0.425469
H181	H	0.487910	-0.000057	-0.688978
H182	H	0.653177	-0.000061	-0.187468
F183	F	0.435702	-0.000045	-0.395975
F184	F	0.435224	-0.000046	-0.443160
H185	H	0.494152	-0.000055	-0.073910
F186	F	0.704327	-0.000049	-0.584545
H187	H	0.447722	-0.000044	-0.299735
F188	F	0.657895	-0.000080	-0.810358
