data_functionalizedCrystal
_audit_creation_method	'MofGen! by Chris Wilmer'
_symmetry_space_group_name_H-M	'P1'
_symmetry_Int_Tables_number	1
_symmetry_cell_setting	triclinic
loop_
_symmetry_equiv_pos_as_xyz
  x,y,z
_cell_length_a	27.731994
_cell_length_b	14.519731
_cell_length_c	13.596369
_cell_angle_alpha	89.993029
_cell_angle_beta	90.000755
_cell_angle_gamma	83.154694
loop_
_atom_site_label
_atom_site_type_symbol
_atom_site_fract_x
_atom_site_fract_y
_atom_site_fract_z
O1	O	0.641473	0.109493	-0.081653
O2	O	1.141473	0.609493	0.418347
O3	O	0.500756	0.126230	-0.081686
O4	O	1.000756	0.626230	0.418314
O5	O	0.574840	-0.016441	-0.081660
O6	O	1.074840	0.483559	0.418340
O7	O	0.567389	0.252165	-0.081680
O8	O	1.067389	0.752165	0.418320
O9	O	0.574832	-0.016449	0.081923
O10	O	1.074832	0.483551	0.581923
O11	O	0.500749	0.126223	0.081896
O12	O	1.000749	0.626223	0.581896
O13	O	0.641465	0.109486	0.081929
O14	O	1.141465	0.609486	0.581929
Zn15	Zn	0.571106	0.117853	0.107885
Zn16	Zn	1.071106	0.617853	0.607885
Zn17	Zn	0.571115	0.117863	-0.107642
Zn18	Zn	1.071115	0.617863	0.392358
O19	O	0.567381	0.252158	0.081903
O20	O	1.067381	0.752158	0.581903
C21	C	0.482743	0.125883	0.000101
C22	C	0.982743	0.625883	0.500101
C23	C	0.429082	0.124848	0.000089
C24	C	0.929082	0.624848	0.500089
C25	C	0.574487	-0.050798	0.000131
C26	C	1.074487	0.449202	0.500131
C27	C	0.573441	-0.153160	0.000132
C28	C	1.073441	0.346840	0.500132
C29	C	0.572591	-0.236289	0.000129
C30	C	1.072591	0.263711	0.500129
C31	C	0.571529	-0.340579	0.000122
C32	C	1.071529	0.159421	0.500122
C33	C	0.570686	-0.423703	0.000115
C34	C	1.070686	0.076297	0.500115
C35	C	0.569623	-0.528000	0.000109
C36	C	1.069623	-0.028000	0.500109
C37	C	0.096328	0.118328	0.089296
C38	C	0.596328	0.618328	0.589296
C39	C	-0.105349	0.114395	0.089307
C40	C	0.394651	0.614395	0.589307
O41	O	-0.131428	0.113843	0.165142
O42	O	0.368572	0.613843	0.665142
N43	N	-0.130562	0.113910	0.000139
N44	N	0.369438	0.613910	0.500139
C45	C	-0.105353	0.114403	-0.089040
C46	C	0.394647	0.614403	0.410960
O47	O	-0.131425	0.113891	-0.164883
O48	O	0.368575	0.613891	0.335117
C49	C	0.096324	0.118330	-0.089050
C50	C	0.596324	0.618330	0.410950
C51	C	0.121534	0.118823	0.000125
C52	C	0.621534	0.618823	0.500125
C53	C	0.121538	0.118821	0.178464
C54	C	0.621538	0.618821	0.678464
C55	C	0.171954	0.119809	0.178460
C56	C	0.671954	0.619809	0.678460
C57	C	0.197160	0.120304	0.089288
C58	C	0.697160	0.620304	0.589288
C59	C	0.171950	0.119812	0.000121
C60	C	0.671950	0.619812	0.500121
C61	C	0.121533	0.118816	-0.178227
C62	C	0.621533	0.618816	0.321773
C63	C	0.171956	0.119795	-0.178222
C64	C	0.671956	0.619795	0.321778
C65	C	0.197166	0.120289	-0.089047
C66	C	0.697166	0.620289	0.410953
C67	C	0.247572	0.121295	-0.089054
C68	C	0.747572	0.621295	0.410946
N69	N	0.272785	0.121780	0.000115
N70	N	0.772785	0.621780	0.500115
C71	C	0.247579	0.121284	0.089286
C72	C	0.747579	0.621284	0.589286
C73	C	-0.211236	0.112343	-0.089028
C74	C	0.288764	0.612343	0.410972
C75	C	-0.261655	0.111363	-0.089025
C76	C	0.238345	0.611363	0.410975
C77	C	-0.261648	0.111353	0.089322
C78	C	0.238352	0.611353	0.589322
C79	C	-0.211228	0.112340	0.089319
C80	C	0.288772	0.612340	0.589319
C81	C	-0.186023	0.112828	0.000141
C82	C	0.313977	0.612828	0.500141
C83	C	0.353456	0.123361	0.089272
C84	C	0.853456	0.623361	0.589272
C85	C	0.403876	0.124353	0.089260
C86	C	0.903876	0.624353	0.589260
C87	C	0.403865	0.124358	-0.089087
C88	C	0.903865	0.624358	0.410913
C89	C	0.353449	0.123371	-0.089076
C90	C	0.853449	0.623371	0.410924
C91	C	0.328246	0.122869	0.000111
C92	C	0.828246	0.622869	0.500111
O93	O	0.273682	0.121837	-0.164849
O94	O	0.773682	0.621837	0.335151
O95	O	0.273661	0.121776	0.165118
O96	O	0.773661	0.621776	0.665118
C97	C	0.045912	0.117340	0.089300
C98	C	0.545912	0.617340	0.589300
C99	C	0.020702	0.116847	0.000132
C100	C	0.520702	0.616847	0.500132
C101	C	0.045908	0.117342	-0.089039
C102	C	0.545908	0.617342	0.410961
C103	C	-0.029717	0.115867	0.000135
C104	C	0.470283	0.615867	0.500135
C105	C	-0.054923	0.115371	0.089306
C106	C	0.445077	0.615371	0.589306
C107	C	-0.029710	0.115856	0.178475
C108	C	0.470290	0.615856	0.678475
C109	C	0.020706	0.116844	0.178471
C110	C	0.520706	0.616844	0.678471
C111	C	0.020695	0.116858	-0.178208
C112	C	0.520695	0.616858	0.321792
C113	C	-0.029721	0.115871	-0.178197
C114	C	0.470279	0.615871	0.321803
C115	C	-0.054927	0.115375	-0.089026
C116	C	0.445073	0.615375	0.410974
C117	C	0.659478	0.109833	0.000140
C118	C	1.159478	0.609833	0.500140
C119	C	0.713139	0.110868	0.000146
C120	C	1.213139	0.610868	0.500146
C121	C	0.567734	0.286515	0.000109
C122	C	1.067734	0.786515	0.500109
C123	C	0.568780	0.388876	0.000103
C124	C	1.068780	0.888876	0.500103
N125	N	0.571103	0.117846	0.254977
N126	N	1.071103	0.617846	0.754977
N127	N	0.571122	0.117863	-0.254734
N128	N	1.071122	0.617863	0.245266
C129	C	0.571115	0.117864	0.656268
C130	C	1.071115	0.617864	1.156268
C131	C	0.571110	0.117862	0.544617
C132	C	1.071110	0.617862	1.044617
C133	C	0.571109	0.117856	0.455626
C134	C	1.071109	0.617856	0.955626
C135	C	0.571104	0.117852	0.343968
C136	C	1.071104	0.617852	0.843968
H137	H	0.424400	0.124758	0.161880
H138	H	0.924400	0.624758	0.661880
H139	H	0.192476	0.120205	0.251075
H140	H	0.692476	0.620205	0.751075
N141	N	0.046440	0.117375	-0.269295
N142	N	0.546440	0.617375	0.230705
N143	N	0.070172	0.182955	-0.289207
N144	N	0.570172	0.682955	0.210793
H145	H	0.088355	0.183321	-0.353542
H146	H	0.588355	0.683321	0.146458
N147	N	-0.287397	0.110880	-0.180124
N148	N	0.212603	0.610880	0.319876
N149	N	-0.264880	0.111323	-0.259730
N150	N	0.235120	0.611323	0.240270
H151	H	-0.283058	0.110978	-0.324073
H152	H	0.216942	0.610978	0.175927
N153	N	-0.055478	0.115374	-0.269284
N154	N	0.444522	0.615374	0.230716
N155	N	-0.088016	0.179847	-0.289197
N156	N	0.411984	0.679847	0.210803
H157	H	-0.106206	0.179490	-0.353525
H158	H	0.393794	0.679490	0.146475
N159	N	0.327724	0.122845	0.180381
N160	N	0.827724	0.622845	0.680381
N161	N	0.350247	0.123285	0.259982
N162	N	0.850247	0.623285	0.759982
H163	H	0.332075	0.122925	0.324329
H164	H	0.832075	0.622925	0.824329
H165	H	-0.050241	0.115457	0.251081
H166	H	0.449759	0.615457	0.751081
N167	N	0.095797	0.118318	-0.269328
N168	N	0.595797	0.618318	0.230672
N169	N	0.118319	0.118756	-0.348929
N170	N	0.618319	0.618756	0.151071
H171	H	0.100144	0.118405	-0.413276
H172	H	0.600144	0.618405	0.086724
H173	H	0.041228	0.117246	0.251086
H174	H	0.541228	0.617246	0.751086
N175	N	0.095804	0.118308	0.269567
N176	N	0.595804	0.618308	0.769567
N177	N	0.118329	0.118745	0.349166
N178	N	0.618329	0.618745	0.849166
H179	H	0.100157	0.118389	0.413514
H180	H	0.600157	0.618389	0.913514
N181	N	0.327687	0.122883	-0.180156
N182	N	0.827687	0.622883	0.319844
N183	N	0.295148	0.187357	-0.200059
N184	N	0.795148	0.687357	0.299941
H185	H	0.276957	0.187006	-0.264387
H186	H	0.776957	0.687006	0.235613
H187	H	-0.190706	0.112743	0.161933
H188	H	0.309294	0.612743	0.661933
H189	H	-0.282179	0.110952	0.161929
H190	H	0.217821	0.610952	0.661929
N191	N	-0.185500	0.112840	-0.180136
N192	N	0.314500	0.612840	0.319864
N193	N	-0.208024	0.112408	-0.259737
N194	N	0.291976	0.612408	0.240263
H195	H	-0.189850	0.112761	-0.324084
H196	H	0.310150	0.612761	0.175916
H197	H	0.424396	0.124765	-0.161688
H198	H	0.924396	0.624765	0.338312
N199	N	0.197695	0.120286	-0.269326
N200	N	0.697695	0.620286	0.230674
N201	N	0.175176	0.119842	-0.348932
N202	N	0.675176	0.619842	0.151068
H203	H	0.193353	0.120189	-0.413275
H204	H	0.693353	0.620189	0.086725
