data_functionalizedCrystal
_audit_creation_method	'MofGen! by Chris Wilmer'
_symmetry_space_group_name_H-M	'P1'
_symmetry_Int_Tables_number	1
_symmetry_cell_setting	triclinic
loop_
_symmetry_equiv_pos_as_xyz
  x,y,z
_cell_length_a	16.109301
_cell_length_b	15.944551
_cell_length_c	15.186229
_cell_angle_alpha	89.995303
_cell_angle_beta	89.999362
_cell_angle_gamma	83.480109
loop_
_atom_site_label
_atom_site_type_symbol
_atom_site_fract_x
_atom_site_fract_y
_atom_site_fract_z
O1	O	1.103166	0.107966	-0.073175
O2	O	1.603166	0.607966	0.426825
O3	O	0.861108	0.121402	-0.073189
O4	O	1.361108	0.621402	0.426811
O5	O	0.988747	-0.007593	-0.073174
O6	O	1.488747	0.492407	0.426826
O7	O	0.975527	0.236961	-0.073190
O8	O	1.475527	0.736961	0.426810
O9	O	0.988738	-0.007594	0.073284
O10	O	1.488738	0.492406	0.573284
O11	O	0.861099	0.121401	0.073268
O12	O	1.361099	0.621401	0.573268
O13	O	1.103157	0.107964	0.073282
O14	O	1.603157	0.607964	0.573282
Zn15	Zn	0.982127	0.114682	0.096529
Zn16	Zn	1.482127	0.614682	0.596529
Zn17	Zn	0.982138	0.114685	-0.096435
Zn18	Zn	1.482138	0.614685	0.403565
O19	O	0.975518	0.236960	0.073267
O20	O	1.475518	0.736960	0.573267
C21	C	0.830129	0.120857	0.000038
C22	C	1.330129	0.620857	0.500038
C23	C	0.737833	0.119226	0.000033
C24	C	1.237833	0.619226	0.500033
C25	C	0.515584	0.191975	0.000038
C26	C	1.015584	0.691975	0.500038
C27	C	0.428863	0.190435	0.000044
C28	C	0.928863	0.690435	0.500044
C29	C	0.448688	0.037387	0.000050
C30	C	0.948688	0.537387	0.500050
C31	C	0.535407	0.038927	0.000051
C32	C	1.035407	0.538927	0.500051
C33	C	0.568853	0.116224	0.000040
C34	C	1.068853	0.616224	0.500040
C35	C	0.395412	0.113143	0.000045
C36	C	0.895412	0.613143	0.500045
C37	C	0.301386	0.111473	0.000052
C38	C	0.801386	0.611473	0.500052
C39	C	0.662885	0.117894	0.000036
C40	C	1.162885	0.617894	0.500036
C41	C	0.988194	-0.038887	0.000055
C42	C	1.488194	0.461113	0.500055
C43	C	0.986548	-0.132133	0.000056
C44	C	1.486548	0.367867	0.500056
C45	C	0.903499	-0.346962	0.000039
C46	C	1.403499	0.153038	0.500039
C47	C	0.942060	-0.407993	0.072253
C48	C	1.442060	0.092007	0.572253
C49	C	0.983572	-0.302858	0.000049
C50	C	1.483572	0.197142	0.500049
C51	C	0.942087	-0.407975	-0.072142
C52	C	1.442087	0.092025	0.427858
C53	C	0.980691	-0.467769	0.000038
C54	C	1.480691	0.032231	0.500038
C55	C	1.022155	-0.362660	0.072323
C56	C	1.522155	0.137340	0.572323
C57	C	1.022171	-0.362636	-0.072137
C58	C	1.522171	0.137364	0.427863
C59	C	1.060790	-0.423649	0.000095
C60	C	1.560790	0.076351	0.500095
C61	C	0.985229	-0.207856	0.000055
C62	C	1.485229	0.292144	0.500055
C63	C	0.979039	-0.562770	0.000038
C64	C	1.479039	-0.062770	0.500038
C65	C	1.134136	0.108510	0.000054
C66	C	1.634136	0.608510	0.500054
C67	C	1.226432	0.110141	0.000053
C68	C	1.726432	0.610141	0.500053
C69	C	0.976071	0.268254	0.000036
C70	C	1.476071	0.768254	0.500036
C71	C	0.977717	0.361500	0.000030
C72	C	1.477717	0.861500	0.500030
N73	N	0.982125	0.114680	0.228221
N74	N	1.482125	0.614680	0.728221
N75	N	0.982146	0.114680	-0.228128
N76	N	1.482146	0.614680	0.271872
C77	C	1.038663	0.057580	0.453951
C78	C	1.538663	0.557580	0.953951
C79	C	1.038666	0.057578	0.546141
C80	C	1.538666	0.557578	1.046141
C81	C	0.925603	0.171783	0.546136
C82	C	1.425603	0.671783	1.046136
C83	C	0.925597	0.171780	0.453948
C84	C	1.425597	0.671780	0.953948
C85	C	0.982132	0.114680	0.407858
C86	C	1.482132	0.614680	0.907858
C87	C	0.982140	0.114680	0.592236
C88	C	1.482140	0.614680	1.092236
C89	C	0.982143	0.114679	0.692192
C90	C	1.482143	0.614679	1.192192
C91	C	0.982128	0.114680	0.307895
C92	C	1.482128	0.614680	0.807895
H93	H	0.421446	-0.025546	0.000064
H94	H	0.921446	0.474454	0.500064
C95	C	0.801107	-0.251953	-0.075540
C96	C	1.301107	0.248047	0.424460
C97	C	0.813776	-0.301967	0.000120
C98	C	1.313776	0.198033	0.500120
H99	H	0.745716	-0.224181	-0.075489
H100	H	1.245716	0.275819	0.424511
H101	H	0.839684	-0.211114	-0.076094
H102	H	1.339684	0.288886	0.423906
H103	H	0.809318	-0.286650	-0.126351
H104	H	1.309318	0.213350	0.373649
H105	H	0.805572	-0.267270	0.050931
H106	H	1.305572	0.232730	0.550931
H107	H	0.775188	-0.342811	0.000682
H108	H	1.275188	0.157189	0.500682
C109	C	1.148356	-0.555968	-0.000613
C110	C	1.648356	-0.055968	0.499387
C111	C	1.150594	-0.468438	0.000120
C112	C	1.650594	0.031562	0.500120
H113	H	1.203798	-0.583614	-0.000608
H114	H	1.703798	-0.083614	0.499392
H115	H	1.119731	-0.572196	0.050203
H116	H	1.619731	-0.072196	0.550203
H117	H	1.120030	-0.571458	-0.051940
H118	H	1.620030	-0.071458	0.448060
H119	H	1.178914	-0.452947	0.051450
H120	H	1.678914	0.047053	0.551450
H121	H	1.179231	-0.452203	-0.050701
H122	H	1.679231	0.047797	0.449299
H123	H	1.056013	-0.342516	-0.133188
H124	H	1.556013	0.157484	0.366812
H125	H	0.578781	-0.022762	0.000055
H126	H	1.078781	0.477238	0.500055
C127	C	1.088873	0.006866	0.687458
C128	C	1.588873	0.506866	1.187458
C129	C	1.100807	-0.005187	0.596807
C130	C	1.600807	0.494813	1.096807
H131	H	1.127235	-0.031890	0.718735
H132	H	1.627235	0.468110	1.218735
H133	H	1.097906	0.062921	0.702556
H134	H	1.597906	0.562921	1.202556
H135	H	1.033386	-0.002275	0.702560
H136	H	1.533386	0.497725	1.202560
H137	H	1.156292	0.003961	0.581703
H138	H	1.656292	0.503961	1.081703
H139	H	1.091781	-0.061255	0.581702
H140	H	1.591781	0.438745	1.081702
C141	C	0.813988	-0.396038	0.154529
C142	C	1.313988	0.103962	0.654529
C143	C	0.896339	-0.435133	0.154664
C144	C	1.396339	0.064867	0.654664
H145	H	0.785759	-0.412796	0.205402
H146	H	1.285759	0.087204	0.705402
H147	H	0.814262	-0.336501	0.154854
H148	H	1.314262	0.163499	0.654854
H149	H	0.786092	-0.412318	0.103246
H150	H	1.286092	0.087682	0.603246
H151	H	0.924238	-0.418848	0.205944
H152	H	1.424238	0.081152	0.705944
H153	H	0.896070	-0.494683	0.154347
H154	H	1.396070	0.005317	0.654347
H155	H	1.055990	-0.342682	0.133442
H156	H	1.555990	0.157318	0.633442
C157	C	0.937508	-0.411061	-0.230133
C158	C	1.437508	0.088939	0.269867
C159	C	0.896363	-0.435078	-0.154561
C160	C	1.396363	0.064922	0.345439
H161	H	0.909277	-0.427797	-0.281011
H162	H	1.409277	0.072203	0.218989
H163	H	0.937774	-0.351523	-0.230436
H164	H	1.437774	0.148477	0.269564
H165	H	0.993374	-0.437589	-0.230211
H166	H	1.493374	0.062411	0.269789
H167	H	0.840498	-0.408546	-0.154480
H168	H	1.340498	0.091454	0.345520
H169	H	0.896087	-0.494628	-0.154258
H170	H	1.396087	0.005372	0.345742
C171	C	0.875416	0.222503	0.687453
C172	C	1.375416	0.722503	1.187453
C173	C	0.863470	0.234553	0.596802
C174	C	1.363470	0.734553	1.096802
H175	H	0.837060	0.261262	0.718728
H176	H	1.337060	0.761262	1.218728
H177	H	0.866381	0.166450	0.702566
H178	H	1.366381	0.666450	1.202566
H179	H	0.930906	0.231641	0.702543
H180	H	1.430906	0.731641	1.202543
H181	H	0.807981	0.225409	0.581710
H182	H	1.307981	0.725409	1.081710
H183	H	0.872498	0.290620	0.581682
H184	H	1.372498	0.790620	1.081682
H185	H	0.879558	0.218278	0.416417
H186	H	1.379558	0.718278	0.916417
H187	H	1.084696	0.011085	0.416427
H188	H	1.584696	0.511085	0.916427
H189	H	0.542812	0.254914	0.000036
H190	H	1.042812	0.754914	0.500036
H191	H	0.385495	0.252119	0.000044
H192	H	0.885495	0.752119	0.500044
