data_functionalizedCrystal
_audit_creation_method	'MofGen! by Chris Wilmer'
_symmetry_space_group_name_H-M	'P1'
_symmetry_Int_Tables_number	1
_symmetry_cell_setting	triclinic
loop_
_symmetry_equiv_pos_as_xyz
  x,y,z
_cell_length_a	11.169417
_cell_length_b	19.076808
_cell_length_c	11.169409
_cell_angle_alpha	87.662578
_cell_angle_beta	89.980176
_cell_angle_gamma	92.324435
loop_
_atom_site_label
_atom_site_type_symbol
_atom_site_fract_x
_atom_site_fract_y
_atom_site_fract_z
Zn1	Zn	1.815643	-0.280145	-0.659291
Zn2	Zn	2.315643	0.219855	-0.159291
Zn3	Zn	1.807414	-0.397873	-0.450518
Zn4	Zn	2.307414	0.102127	0.049482
Zn5	Zn	1.614926	-0.280188	-0.458623
Zn6	Zn	2.114926	0.219812	0.041377
Zn7	Zn	1.606822	-0.397816	-0.651167
Zn8	Zn	2.106822	0.102184	-0.151167
O9	O	1.711201	-0.339006	-0.554900
O10	O	2.211201	0.160994	-0.054900
O11	O	1.982501	-0.295768	-0.631605
O12	O	2.482501	0.204232	-0.131605
O13	O	1.781828	-0.382304	-0.283641
O14	O	2.281828	0.117696	0.216359
O15	O	1.648387	-0.181685	-0.492034
O16	O	2.148387	0.318315	0.007966
O17	O	1.976455	-0.382262	-0.478221
O18	O	2.476455	0.117738	0.021779
O19	O	1.795853	-0.181654	-0.639464
O20	O	2.295853	0.318346	-0.139464
O21	O	1.640408	-0.295841	-0.289595
O22	O	2.140408	0.204159	0.210405
O23	O	1.445902	-0.295786	-0.484156
O24	O	1.945902	0.204214	0.015844
O25	O	1.634575	-0.382165	-0.820197
O26	O	2.134575	0.117835	-0.320197
O27	O	1.439948	-0.382206	-0.625617
O28	O	1.939948	0.117794	-0.125617
O29	O	1.787995	-0.295713	-0.826166
O30	O	2.287995	0.204287	-0.326166
O31	O	1.773969	-0.496363	-0.470343
O32	O	2.273969	0.003637	0.029657
O33	O	1.626595	-0.496321	-0.617758
O34	O	2.126595	0.003679	-0.117758
C35	C	1.399377	-0.338995	-0.554885
C36	C	1.899377	0.161005	-0.054885
C37	C	1.265977	-0.339007	-0.554906
C38	C	1.765977	0.160993	-0.054906
C39	C	1.698543	-0.521881	-0.542316
C40	C	2.198543	-0.021881	-0.042316
C41	C	1.693237	-0.600116	-0.536972
C42	C	2.193237	-0.100116	-0.036972
C43	C	1.767464	-0.636794	-0.611283
C44	C	2.267464	-0.136794	-0.111283
C45	C	1.762474	-0.710304	-0.606264
C46	C	2.262474	-0.210304	-0.106264
C47	C	1.683262	-0.747134	-0.526928
C48	C	2.183262	-0.247134	-0.026928
C49	C	1.609026	-0.710451	-0.452614
C50	C	2.109026	-0.210451	0.047386
C51	C	1.614011	-0.636943	-0.457640
C52	C	2.114011	-0.136943	0.042360
C53	C	1.660121	-0.966990	-0.503666
C54	C	2.160121	-0.466990	-0.003666
C55	C	1.655144	-1.040503	-0.498643
C56	C	2.155144	-0.540503	0.001357
C57	C	1.808591	-1.040351	-0.652296
C58	C	2.308591	-0.540351	-0.152296
C59	C	1.813574	-0.966841	-0.657309
C60	C	2.313574	-0.466841	-0.157309
C61	C	1.739334	-0.930164	-0.583000
C62	C	2.239334	-0.430164	-0.083000
N63	N	1.678162	-0.822273	-0.521794
N64	N	2.178162	-0.322273	-0.021794
N65	N	1.744429	-0.855026	-0.588141
N66	N	2.244429	-0.355026	-0.088141
C67	C	2.024243	-0.339017	-0.554915
C68	C	2.524243	0.160983	-0.054915
C69	C	2.157643	-0.339022	-0.554922
C70	C	2.657643	0.160978	-0.054922
C71	C	1.711299	-0.338927	-0.867948
C72	C	2.211299	0.161073	-0.367948
C73	C	1.711340	-0.338894	-1.001350
C74	C	2.211340	0.161106	-0.501350
C75	C	1.723942	-0.155416	-0.567559
C76	C	2.223942	0.344584	-0.067559
C77	C	1.729372	-0.077181	-0.572954
C78	C	2.229372	0.422819	-0.072954
C79	C	1.711177	-0.339033	-0.243073
C80	C	2.211177	0.160967	0.256927
C81	C	1.711381	-0.338868	-0.109685
C82	C	2.211381	0.161132	0.390315
H83	H	1.831973	-0.606811	-0.675882
H84	H	2.331973	-0.106811	-0.175882
H85	H	1.553566	-0.607080	-0.397130
H86	H	2.053566	-0.107080	0.102870
Cl87	Cl	1.855778	-0.756410	-0.699705
Cl88	Cl	2.355778	-0.256410	-0.199705
Cl89	Cl	1.913158	-0.920545	-0.757052
Cl90	Cl	2.413158	-0.420545	-0.257052
Cl91	Cl	1.555560	-1.086804	-0.398894
Cl92	Cl	2.055560	-0.586804	0.101106
Cl93	Cl	1.901910	-1.086463	-0.745712
Cl94	Cl	2.401910	-0.586463	-0.245712
H95	H	1.599674	-0.937133	-0.443158
H96	H	2.099674	-0.437133	0.056842
Cl97	Cl	1.509432	-0.756753	-0.352888
Cl98	Cl	2.009432	-0.256753	0.147112
