data_functionalizedCrystal
_audit_creation_method	'MofGen! by Chris Wilmer'
_symmetry_space_group_name_H-M	'P1'
_symmetry_Int_Tables_number	1
_symmetry_cell_setting	triclinic
loop_
_symmetry_equiv_pos_as_xyz
  x,y,z
_cell_length_a	14.908993
_cell_length_b	19.077068
_cell_length_c	19.077569
_cell_angle_alpha	89.935763
_cell_angle_beta	91.113091
_cell_angle_gamma	84.510225
loop_
_atom_site_label
_atom_site_type_symbol
_atom_site_fract_x
_atom_site_fract_y
_atom_site_fract_z
Zn1	Zn	1.386330	0.203937	-0.343809
Zn2	Zn	1.374117	0.326694	-0.231585
Zn3	Zn	1.229209	0.215461	-0.233652
Zn4	Zn	1.229639	0.328178	-0.355799
O5	O	1.304824	0.268568	-0.291211
O6	O	1.510931	0.214777	-0.323040
O7	O	1.349604	0.316141	-0.133774
O8	O	1.254983	0.115386	-0.244111
O9	O	1.501958	0.304966	-0.240589
O10	O	1.370419	0.106919	-0.325044
O11	O	1.243140	0.234419	-0.135292
O12	O	1.103046	0.235857	-0.255737
O13	O	1.255716	0.307495	-0.452294
O14	O	1.103362	0.318669	-0.345478
O15	O	1.370836	0.216215	-0.443485
O16	O	1.350020	0.425438	-0.252215
O17	O	1.243873	0.426528	-0.343474
C18	C	1.070476	0.278675	-0.302134
C19	C	0.970221	0.283016	-0.306824
C20	C	0.781464	0.204799	-0.222309
C21	C	0.687265	0.208875	-0.226713
C22	C	0.687623	0.295247	-0.320033
C23	C	0.781822	0.291171	-0.315628
C24	C	0.828739	0.245945	-0.266766
C25	C	0.922940	0.241865	-0.262365
C26	C	0.923295	0.328241	-0.355681
C27	C	0.829097	0.332317	-0.360085
C28	C	1.295693	0.451533	-0.298936
C29	C	1.291871	0.529802	-0.302260
C30	C	1.314686	0.260735	-0.474033
C31	C	1.318889	0.257397	-0.551940
C32	C	1.540087	0.258421	-0.280247
C33	C	1.640342	0.254097	-0.275574
C34	C	1.314015	0.084886	-0.283471
C35	C	1.317932	0.006612	-0.280172
C36	C	1.345388	0.565978	-0.256343
C37	C	1.341798	0.639520	-0.259473
C38	C	1.284687	0.676884	-0.308518
C39	C	1.231168	0.640702	-0.354440
C40	C	1.234763	0.567161	-0.351312
C41	C	1.268009	0.896890	-0.322966
C42	C	1.264416	0.970435	-0.326089
C43	C	1.375047	0.969248	-0.231123
C44	C	1.378633	0.895707	-0.227997
C45	C	1.325118	0.859531	-0.273921
N46	N	1.281014	0.752055	-0.311717
N47	N	1.328796	0.784361	-0.270725
C48	C	1.260928	0.303350	-0.593129
C49	C	1.264884	0.300213	-0.666331
C50	C	1.326798	0.251120	-0.698343
C51	C	1.384766	0.205165	-0.657149
C52	C	1.380813	0.208306	-0.583949
C53	C	1.345051	0.236635	-0.916778
C54	C	1.348997	0.233496	-0.989984
C55	C	1.229117	0.328545	-0.999161
C56	C	1.225166	0.331678	-0.925958
C57	C	1.283136	0.285726	-0.884771
N58	N	1.330842	0.247911	-0.773167
N59	N	1.279096	0.288939	-0.809948
C60	C	1.295054	0.276317	-0.109096
C61	C	1.291036	0.279449	-0.031173
H62	H	0.961138	0.205035	-0.222583
H63	H	1.174763	0.371666	-0.899899
F64	F	0.973617	0.372023	-0.403008
F65	F	1.432002	1.007754	-0.182254
F66	F	1.406168	0.526220	-0.204138
F67	F	1.398761	0.678018	-0.210604
F68	F	1.439429	0.855946	-0.175804
H69	H	0.649407	0.332075	-0.359808
F70	F	0.636955	0.165083	-0.179395
H71	H	1.181921	0.365957	-1.032703
F72	F	1.203618	1.010200	-0.378285
H73	H	0.819665	0.167965	-0.182531
F74	F	1.442506	0.159399	-0.540113
H75	H	1.210500	0.343319	-0.567070
F76	F	0.779154	0.380455	-0.412078
H77	H	1.224433	0.867441	-0.360359
F78	F	1.170391	0.680469	-0.406641
H79	H	1.392255	0.199217	-0.883252
F80	F	1.177806	0.528660	-0.400185
F81	F	1.203200	0.349127	-0.710164
F82	F	1.414868	0.181219	-1.024053
H83	H	1.435181	0.165196	-0.683220
