data_functionalizedCrystal
_audit_creation_method	'MofGen! by Chris Wilmer'
_symmetry_space_group_name_H-M	'P1'
_symmetry_Int_Tables_number	1
_symmetry_cell_setting	triclinic
loop_
_symmetry_equiv_pos_as_xyz
  x,y,z
_cell_length_a	23.532355
_cell_length_b	23.532407
_cell_length_c	22.610064
_cell_angle_alpha	89.999397
_cell_angle_beta	89.997644
_cell_angle_gamma	82.838088
loop_
_atom_site_label
_atom_site_type_symbol
_atom_site_fract_x
_atom_site_fract_y
_atom_site_fract_z
O1	O	0.755283	0.068986	-0.049110
O2	O	1.255283	0.568986	0.450890
O3	O	0.589415	0.079020	-0.049130
O4	O	1.089415	0.579020	0.450870
O5	O	0.677351	-0.008929	-0.049108
O6	O	1.177351	0.491071	0.450892
O7	O	0.667347	0.156936	-0.049131
O8	O	1.167347	0.656936	0.450869
O9	O	0.677335	-0.008916	0.049261
O10	O	1.177335	0.491084	0.549261
O11	O	0.589400	0.079033	0.049239
O12	O	1.089400	0.579033	0.549239
O13	O	0.755267	0.068999	0.049259
O14	O	1.255267	0.568999	0.549259
Zn15	Zn	0.672331	0.074018	0.064868
Zn16	Zn	1.172331	0.574018	0.564868
Zn17	Zn	0.672351	0.074001	-0.064738
Zn18	Zn	1.172351	0.574001	0.435262
O19	O	0.667332	0.156949	0.049238
O20	O	1.167332	0.656949	0.549238
C21	C	0.568191	0.078776	0.000052
C22	C	1.068191	0.578776	0.500052
C23	C	0.504972	0.078022	0.000045
C24	C	1.004972	0.578022	0.500045
C25	C	0.112950	0.073291	0.053692
C26	C	0.612950	0.573291	0.553692
C27	C	0.053550	0.072573	0.053694
C28	C	0.553550	0.572573	0.553694
O29	O	0.022825	0.072189	0.099296
O30	O	0.522825	0.572189	0.599296
N31	N	0.023850	0.072211	0.000074
N32	N	0.523850	0.572211	0.500074
C33	C	0.053554	0.072560	-0.053553
C34	C	0.553554	0.572560	0.446447
O35	O	0.022837	0.072185	-0.099162
O36	O	0.522837	0.572185	0.400838
C37	C	0.112953	0.073273	-0.053555
C38	C	0.612953	0.573273	0.446445
C39	C	0.142649	0.073641	0.000069
C40	C	0.642649	0.573641	0.500069
C41	C	0.142646	0.073659	0.107312
C42	C	0.642646	0.573659	0.607312
C43	C	0.202041	0.074377	0.107309
C44	C	0.702041	0.574377	0.607309
C45	C	0.231740	0.074728	0.053687
C46	C	0.731740	0.574728	0.553687
C47	C	0.202044	0.074360	0.000067
C48	C	0.702044	0.574360	0.500067
C49	C	0.142655	0.073618	-0.107181
C50	C	0.642655	0.573618	0.392819
C51	C	0.202058	0.074331	-0.107178
C52	C	0.702058	0.574331	0.392822
C53	C	0.231754	0.074699	-0.053554
C54	C	0.731754	0.574699	0.446446
C55	C	0.291138	0.075429	-0.053558
C56	C	0.791138	0.575429	0.446442
N57	N	0.320838	0.075792	0.000062
N58	N	0.820838	0.575792	0.500062
C59	C	0.291139	0.075441	0.053685
C60	C	0.791139	0.575441	0.553685
C61	C	-0.071188	0.071061	-0.053545
C62	C	0.428812	0.571061	0.446455
C63	C	-0.130586	0.070351	-0.053544
C64	C	0.369414	0.570351	0.446456
C65	C	-0.130585	0.070364	0.053703
C66	C	0.369415	0.570364	0.553703
C67	C	-0.071186	0.071077	0.053702
C68	C	0.428814	0.571077	0.553702
C69	C	-0.041488	0.071423	0.000075
C70	C	0.458512	0.571423	0.500075
C71	C	0.415873	0.076951	0.053675
C72	C	0.915873	0.576951	0.553675
C73	C	0.475273	0.077671	0.053668
C74	C	0.975273	0.577671	0.553668
C75	C	0.475267	0.077656	-0.053579
C76	C	0.975267	0.577656	0.446421
C77	C	0.415872	0.076938	-0.053572
C78	C	0.915872	0.576938	0.446428
C79	C	0.386177	0.076583	0.000060
C80	C	0.886177	0.576583	0.500060
O81	O	0.321902	0.075812	-0.099137
O82	O	0.821902	0.575812	0.400863
O83	O	0.321864	0.075809	0.099286
O84	O	0.821864	0.575809	0.599286
C85	C	0.677088	-0.030139	0.000078
C86	C	1.177088	0.469861	0.500078
C87	C	0.676322	-0.093356	0.000082
C88	C	1.176322	0.406644	0.500082
C89	C	0.723557	-0.492468	0.000055
C90	C	1.223557	0.007532	0.500055
C91	C	0.722845	-0.551868	0.000051
C92	C	1.222845	-0.051868	0.500051
O93	O	0.766632	-0.588620	0.000034
O94	O	1.266632	-0.088620	0.500034
N95	N	0.670568	-0.574484	0.000045
N96	N	1.170568	-0.074484	0.500045
C97	C	0.618998	-0.537697	0.000038
C98	C	1.118998	-0.037697	0.500038
O99	O	0.574467	-0.562388	0.000032
O100	O	1.074467	-0.062388	0.500032
C101	C	0.619710	-0.478298	0.000038
C102	C	1.119710	0.021702	0.500038
C103	C	0.671991	-0.455685	0.000050
C104	C	1.171991	0.044315	0.500050
C105	C	0.775834	-0.469854	0.000066
C106	C	1.275834	0.030146	0.500066
C107	C	0.776545	-0.410458	0.000072
C108	C	1.276545	0.089542	0.500072
C109	C	0.724979	-0.373676	0.000067
C110	C	1.224979	0.126324	0.500067
C111	C	0.672703	-0.396289	0.000055
C112	C	1.172703	0.103711	0.500055
C113	C	0.568141	-0.441512	0.000027
C114	C	1.068141	0.058488	0.500027
C115	C	0.568858	-0.382110	0.000026
C116	C	1.068858	0.117890	0.500026
C117	C	0.621139	-0.359497	0.000038
C118	C	1.121139	0.140503	0.500038
C119	C	0.621848	-0.300110	0.000056
C120	C	1.121848	0.199890	0.500056
N121	N	0.674126	-0.277494	0.000061
N122	N	1.174126	0.222506	0.500061
C123	C	0.725691	-0.314277	0.000067
C124	C	1.225691	0.185723	0.500067
C125	C	0.617507	-0.662439	0.000036
C126	C	1.117507	-0.162439	0.500036
C127	C	0.616794	-0.721837	0.000040
C128	C	1.116794	-0.221837	0.500040
C129	C	0.720642	-0.736004	0.000052
C130	C	1.220642	-0.236004	0.500052
C131	C	0.721354	-0.676605	0.000052
C132	C	1.221354	-0.176605	0.500052
C133	C	0.669784	-0.639823	0.000042
C134	C	1.169784	-0.139823	0.500042
C135	C	0.727181	-0.189540	0.000079
C136	C	1.227181	0.310460	0.500079
C137	C	0.727888	-0.130138	0.000087
C138	C	1.227888	0.369862	0.500087
C139	C	0.624041	-0.115977	0.000072
C140	C	1.124041	0.384023	0.500072
C141	C	0.623334	-0.175373	0.000067
C142	C	1.123334	0.324627	0.500067
C143	C	0.674909	-0.212154	0.000069
C144	C	1.174909	0.287846	0.500069
O145	O	0.578084	-0.263323	0.000070
O146	O	1.078084	0.236677	0.500070
O147	O	0.770216	-0.289577	0.000065
O148	O	1.270216	0.210423	0.500065
C149	C	0.776491	0.069244	0.000076
C150	C	1.276491	0.569244	0.500076
C151	C	0.839710	0.069998	0.000079
C152	C	1.339710	0.569998	0.500079
C153	C	0.667594	0.178158	0.000050
C154	C	1.167594	0.678158	0.500050
C155	C	0.668360	0.241375	0.000042
C156	C	1.168360	0.741375	0.500042
N157	N	0.672321	0.074029	0.153320
N158	N	1.172321	0.574029	0.653320
N159	N	0.672366	0.073986	-0.153191
N160	N	1.172366	0.573986	0.346809
C161	C	0.711291	0.035063	0.561971
C162	C	1.211291	0.535063	1.061971
C163	C	0.711294	0.035059	0.623891
C164	C	1.211294	0.535059	1.123891
O165	O	0.744403	0.001937	0.655917
O166	O	1.244403	0.501937	1.155917
N167	N	0.672351	0.073990	0.654857
N168	N	1.172351	0.573990	1.154857
C169	C	0.633399	0.112923	0.623900
C170	C	1.133399	0.612923	1.123900
O171	O	0.600275	0.146036	0.655926
O172	O	1.100275	0.646036	1.155926
C173	C	0.633394	0.112924	0.561982
C174	C	1.133394	0.612924	1.061982
C175	C	0.672343	0.073995	0.531018
C176	C	1.172343	0.573995	1.031018
C177	C	0.750237	-0.003863	0.531007
C178	C	1.250237	0.496137	1.031007
C179	C	0.750234	-0.003858	0.469092
C180	C	1.250234	0.496142	0.969092
C181	C	0.711286	0.035073	0.438139
C182	C	1.211286	0.535073	0.938139
C183	C	0.672340	0.074000	0.469103
C184	C	1.172340	0.574000	0.969103
C185	C	0.594439	0.151854	0.531026
C186	C	1.094439	0.651854	1.031026
C187	C	0.594437	0.151851	0.469103
C188	C	1.094437	0.651851	0.969103
C189	C	0.633386	0.112922	0.438140
C190	C	1.133386	0.612922	0.938140
C191	C	0.633390	0.112936	0.376235
C192	C	1.133390	0.612936	0.876235
N193	N	0.672333	0.074006	0.345268
N194	N	1.172333	0.574006	0.845268
C195	C	0.711281	0.035074	0.376221
C196	C	1.211281	0.535074	0.876221
C197	C	0.633412	0.112917	0.753934
C198	C	1.133412	0.612917	1.253934
C199	C	0.633419	0.112919	0.815852
C200	C	1.133419	0.612919	1.315852
C201	C	0.711314	0.035055	0.815838
C202	C	1.211314	0.535055	1.315838
C203	C	0.711309	0.035056	0.753919
C204	C	1.211309	0.535056	1.253919
C205	C	0.672355	0.073987	0.722968
C206	C	1.172355	0.573987	1.222968
C207	C	0.711273	0.035088	0.246193
C208	C	1.211273	0.535088	0.746193
C209	C	0.711269	0.035098	0.184272
C210	C	1.211269	0.535098	0.684272
C211	C	0.633373	0.112960	0.184292
C212	C	1.133373	0.612960	0.684292
C213	C	0.633379	0.112953	0.246207
C214	C	1.133379	0.612953	0.746207
C215	C	0.672331	0.074012	0.277157
C216	C	1.172331	0.574012	0.777157
O217	O	0.600296	0.146040	0.344169
O218	O	1.100296	0.646040	0.844169
O219	O	0.744395	0.001962	0.344188
O220	O	1.244395	0.501962	0.844188
H221	H	0.226215	0.074674	0.150976
H222	H	0.726215	0.574674	0.650976
H223	H	-0.047012	0.071378	0.097367
H224	H	0.452988	0.571378	0.597367
H225	H	0.118472	0.073372	0.150980
H226	H	0.618472	0.573372	0.650980
H227	H	0.743024	0.003356	0.728712
H228	H	1.243024	0.503356	1.228712
C229	C	0.590515	0.155752	0.280268
C230	C	1.090515	0.655752	0.780268
H231	H	0.567310	0.178930	0.252964
H232	H	1.067310	0.678930	0.752964
H233	H	0.610838	0.179360	0.304441
H234	H	1.110838	0.679360	0.804441
H235	H	0.566933	0.135357	0.304404
H236	H	1.066933	0.635357	0.804404
H237	H	0.770463	-0.111731	0.000099
H238	H	1.270463	0.388269	0.500099
H239	H	0.580762	-0.193785	0.000074
H240	H	1.080762	0.306215	0.500074
H241	H	0.525569	-0.459912	0.000013
H242	H	1.025569	0.040088	0.500013
H243	H	0.499459	0.077943	-0.097237
H244	H	0.999459	0.577943	0.402763
H245	H	0.762629	-0.765963	0.000054
H246	H	1.262629	-0.265963	0.500054
C247	C	0.754151	-0.007775	0.849893
C248	C	1.254151	0.492225	1.349893
H249	H	0.748568	-0.002202	0.891203
H250	H	1.248568	0.497798	1.391203
H251	H	0.792126	-0.001796	0.839747
H252	H	1.292126	0.498204	1.339747
H253	H	0.748175	-0.045754	0.839746
H254	H	1.248175	0.454246	1.339746
C255	C	-0.163284	0.070141	0.112688
C256	C	0.336716	0.570141	0.612688
H257	H	-0.202918	0.069708	0.105004
H258	H	0.297082	0.569708	0.605004
H259	H	-0.158033	0.103527	0.134608
H260	H	0.341967	0.603527	0.634608
H261	H	-0.149085	0.037090	0.134835
H262	H	0.350915	0.537090	0.634835
C263	C	-0.163247	0.069953	-0.112531
C264	C	0.336753	0.569953	0.387469
H265	H	-0.137046	0.070261	-0.144464
H266	H	0.362954	0.570261	0.355536
H267	H	-0.190954	0.102888	-0.114767
H268	H	0.309046	0.602888	0.385233
H269	H	-0.181880	0.036452	-0.114757
H270	H	0.318120	0.536452	0.385243
C271	C	0.783912	-0.229991	0.000086
C272	C	1.283912	0.270009	0.500086
H273	H	0.815144	-0.208008	0.000099
H274	H	1.315144	0.291992	0.500099
H275	H	0.785806	-0.253457	-0.034218
H276	H	1.285806	0.246543	0.465782
H277	H	0.785788	-0.253456	0.034394
H278	H	1.285788	0.246544	0.534394
H279	H	0.601692	0.144624	0.728736
H280	H	1.101692	0.644624	1.228736
C281	C	0.383216	0.076567	0.112669
C282	C	0.883216	0.576567	0.612669
H283	H	0.409415	0.076894	0.144599
H284	H	0.909415	0.576894	0.644599
H285	H	0.364578	0.043073	0.114913
H286	H	0.864578	0.543073	0.614913
H287	H	0.355511	0.109509	0.114894
H288	H	0.855511	0.609509	0.614894
H289	H	0.819117	-0.392053	0.000079
H290	H	1.319117	0.107947	0.500079
H291	H	-0.047012	0.071348	-0.097217
H292	H	0.452988	0.571348	0.402783
C293	C	0.832561	-0.510307	0.000077
C294	C	1.332561	-0.010307	0.500077
H295	H	0.863792	-0.488323	0.000088
H296	H	1.363792	0.011677	0.500088
H297	H	0.834457	-0.533777	-0.034224
H298	H	1.334457	-0.033777	0.465776
H299	H	0.834437	-0.533769	0.034388
H300	H	1.334437	-0.033769	0.534388
H301	H	0.118487	0.073317	-0.150848
H302	H	0.618487	0.573317	0.349152
C303	C	0.234726	0.074713	-0.166167
C304	C	0.734726	0.574713	0.333833
H305	H	0.274356	0.075189	-0.158493
H306	H	0.774356	0.575189	0.341507
H307	H	0.220455	0.107807	-0.188206
H308	H	0.720455	0.607807	0.311794
H309	H	0.229526	0.041371	-0.188190
H310	H	0.729526	0.541371	0.311810
C311	C	0.551592	0.194673	0.565075
C312	C	1.051592	0.694673	1.065075
H313	H	0.557168	0.189105	0.606387
H314	H	1.057168	0.689105	1.106387
H315	H	0.513622	0.188682	0.554925
H316	H	1.013622	0.688682	1.054925
H317	H	0.557560	0.232653	0.554925
H318	H	1.057560	0.732653	1.054925
C319	C	0.567323	-0.075509	0.000063
C320	C	1.067323	0.424491	0.500063
H321	H	0.575239	-0.036896	0.000061
H322	H	1.075239	0.463104	0.500061
H323	H	0.545860	-0.082328	0.034360
H324	H	1.045860	0.417672	0.534360
H325	H	0.545883	-0.082330	-0.034251
H326	H	1.045883	0.417670	0.465749
C327	C	0.383203	0.076551	-0.112557
C328	C	0.883203	0.576551	0.387443
H329	H	0.409399	0.076865	-0.144492
H330	H	0.909399	0.576865	0.355508
H331	H	0.355497	0.109488	-0.114783
H332	H	0.855497	0.609488	0.385217
H333	H	0.364567	0.043052	-0.114789
H334	H	0.864567	0.543052	0.385211
H335	H	0.763925	-0.658198	0.000061
H336	H	1.263925	-0.158198	0.500061
C337	C	0.559285	-0.746705	0.000032
C338	C	1.059285	-0.246705	0.500032
H339	H	0.528680	-0.716286	0.000025
H340	H	1.028680	-0.216286	0.500025
H341	H	0.556839	-0.769585	0.034332
H342	H	1.056839	-0.269585	0.534332
H343	H	0.556854	-0.769577	-0.034280
H344	H	1.056854	-0.269577	0.465720
H345	H	0.562714	0.183553	0.443906
H346	H	1.062714	0.683553	0.943906
H347	H	0.575510	-0.632494	0.000033
H348	H	1.075510	-0.132494	0.500033
H349	H	0.526863	-0.352164	0.000017
H350	H	1.026863	0.147836	0.500017
H351	H	0.601663	0.144660	0.159081
H352	H	1.101663	0.644660	0.659081
C353	C	0.754112	-0.007728	0.150216
C354	C	1.254112	0.492272	0.650216
H355	H	0.777304	-0.030918	0.177522
H356	H	1.277304	0.469082	0.677522
H357	H	0.777703	0.012633	0.126060
H358	H	1.277703	0.512633	0.626060
H359	H	0.733757	-0.031330	0.126063
H360	H	1.233757	0.468670	0.626063
C361	C	0.754122	-0.007744	0.280229
C362	C	1.254122	0.492256	0.780229
H363	H	0.777317	-0.030920	0.252913
H364	H	1.277317	0.469080	0.752913
H365	H	0.733778	-0.031350	0.304385
H366	H	1.233778	0.468650	0.804385
H367	H	0.777717	0.012620	0.304381
H368	H	1.277717	0.512620	0.804381
H369	H	0.781948	-0.035559	0.443885
H370	H	1.281948	0.464441	0.943885
C371	C	0.793083	-0.046690	0.565048
C372	C	1.293083	0.453310	1.065048
H373	H	0.787513	-0.041125	0.606362
H374	H	1.287513	0.458875	1.106362
H375	H	0.831053	-0.040702	0.554890
H376	H	1.331053	0.459298	1.054890
H377	H	0.787110	-0.084669	0.554898
H378	H	1.287110	0.415331	1.054898
C379	C	0.507937	0.078070	0.112657
C380	C	1.007937	0.578070	0.612657
H381	H	0.481740	0.077750	0.144592
H382	H	0.981740	0.577750	0.644592
H383	H	0.526575	0.111564	0.114887
H384	H	1.026575	0.611564	0.614887
H385	H	0.535642	0.045128	0.114887
H386	H	1.035642	0.545128	0.614887
H387	H	0.601709	0.144625	0.841058
H388	H	1.101709	0.644625	1.341058
