data_functionalizedCrystal
_audit_creation_method	'MofGen! by Chris Wilmer'
_symmetry_space_group_name_H-M	'P1'
_symmetry_Int_Tables_number	1
_symmetry_cell_setting	triclinic
loop_
_symmetry_equiv_pos_as_xyz
  x,y,z
_cell_length_a	12.645331
_cell_length_b	16.120484
_cell_length_c	12.645323
_cell_angle_alpha	92.868093
_cell_angle_beta	89.977324
_cell_angle_gamma	92.924550
loop_
_atom_site_label
_atom_site_type_symbol
_atom_site_fract_x
_atom_site_fract_y
_atom_site_fract_z
Zn1	Zn	1.599273	-0.331923	-0.620794
Zn2	Zn	1.590142	-0.471349	-0.452501
Zn3	Zn	1.421986	-0.331951	-0.443540
Zn4	Zn	1.412960	-0.471294	-0.629713
O5	O	1.506090	-0.401629	-0.536637
O6	O	1.746409	-0.350429	-0.598487
O7	O	1.567791	-0.452892	-0.302967
O8	O	1.453103	-0.215282	-0.459570
O9	O	1.739700	-0.452865	-0.474843
O10	O	1.583355	-0.215261	-0.589798
O11	O	1.444248	-0.350477	-0.296383
O12	O	1.272442	-0.350424	-0.468218
O13	O	1.437719	-0.452772	-0.776875
O14	O	1.265811	-0.452799	-0.604999
O15	O	1.574603	-0.350376	-0.770322
O16	O	1.559039	-0.588007	-0.483491
O17	O	1.428864	-0.587967	-0.613688
C18	C	1.492010	-0.618237	-0.550553
C19	C	1.486083	-0.710903	-0.556542
C20	C	1.230662	-0.401609	-0.536605
C21	C	1.112831	-0.401621	-0.536618
C22	C	1.475269	-0.880564	-0.567497
C23	C	1.537102	-0.921854	-0.505793
C24	C	1.531085	-1.016259	-0.511889
C25	C	1.481285	-0.786150	-0.561403
C26	C	0.949423	-0.336921	-0.451002
C27	C	1.071972	-0.337088	-0.450654
C28	C	1.062633	-0.489446	-0.511751
C29	C	0.940058	-0.489092	-0.511173
C30	C	0.947123	-0.379333	-0.647468
C31	C	1.069855	-0.377371	-0.646718
C32	C	1.782594	-0.401650	-0.536669
C33	C	1.900424	-0.401658	-0.536683
C34	C	1.506173	-0.401565	-0.813138
C35	C	1.506208	-0.401537	-0.930966
C36	C	1.520255	-0.184176	-0.522689
C37	C	1.526291	-0.091510	-0.516746
C38	C	1.419861	-0.465651	-1.102633
C39	C	1.420056	-0.465968	-0.980094
C40	C	1.616366	-0.425382	-0.977020
C41	C	1.615889	-0.425785	-1.099644
C42	C	1.483476	-0.313220	-1.092484
C43	C	1.480949	-0.313749	-0.969912
C44	C	1.506073	-0.401633	-0.261207
C45	C	1.506259	-0.401426	-0.143364
H46	H	1.417817	-0.916114	-0.624897
H47	H	1.594557	-0.886302	-0.448388
H48	H	0.910188	-0.508025	-0.430351
C49	C	1.117527	-0.250177	-0.470475
C50	C	1.034704	-0.197042	-0.482889
C51	C	1.076624	-0.116963	-0.501111
H52	H	1.159324	-0.251843	-0.532905
H53	H	1.160338	-0.230226	-0.411967
H54	H	0.991912	-0.216987	-0.541391
H55	H	0.992901	-0.195350	-0.420470
H56	H	1.119434	-0.097012	-0.442604
H57	H	1.118420	-0.118638	-0.563540
H58	H	1.020436	-0.080899	-0.509527
H59	H	0.907189	-0.538959	-0.571165
C60	C	0.904369	-0.442064	-0.732637
C61	C	0.849004	-0.400842	-0.808361
C62	C	0.809609	-0.458604	-0.886831
H63	H	0.858016	-0.482097	-0.701447
H64	H	0.961566	-0.469168	-0.765705
H65	H	0.791814	-0.373752	-0.775297
H66	H	0.895335	-0.360815	-0.839579
H67	H	0.866806	-0.485708	-0.919899
H68	H	0.763260	-0.498633	-0.855631
H69	H	0.772048	-0.430642	-0.938224
C70	C	0.906864	-0.356466	-0.342112
C71	C	0.796519	-0.352460	-0.341914
C72	C	0.757295	-0.370510	-0.241634
H73	H	0.936741	-0.317130	-0.290680
H74	H	0.925217	-0.410775	-0.325662
H75	H	0.778175	-0.298159	-0.358352
H76	H	0.766614	-0.391795	-0.393325
H77	H	0.775648	-0.424819	-0.225184
H78	H	0.787179	-0.331172	-0.190210
H79	H	0.682421	-0.367802	-0.241489
H80	H	1.338191	-0.451046	-0.949032
H81	H	0.924181	-0.271600	-0.465722
C82	C	1.310411	-0.446005	-1.140866
C83	C	1.308651	-0.449654	-1.251713
C84	C	1.207838	-0.431569	-1.286978
H85	H	1.294245	-0.391795	-1.114964
H86	H	1.259382	-0.485486	-1.115510
H87	H	1.359664	-0.410175	-1.277058
H88	H	1.324798	-0.503858	-1.277643
H89	H	1.156810	-0.471050	-1.261623
H90	H	1.191681	-0.377360	-1.261069
H91	H	1.206628	-0.434050	-1.362191
H92	H	1.100296	-0.351844	-0.368443
C93	C	1.643830	-0.510432	-0.941654
C94	C	1.742314	-0.530680	-0.983438
C95	C	1.767648	-0.609018	-0.950874
H96	H	1.591174	-0.550922	-0.966340
H97	H	1.646885	-0.509340	-0.866527
H98	H	1.739252	-0.531778	-1.058549
H99	H	1.794992	-0.490211	-0.958757
H100	H	1.770703	-0.607926	-0.875746
H101	H	1.714985	-0.649501	-0.975562
H102	H	1.834475	-0.622763	-0.979211
H103	H	1.088601	-0.538969	-0.572447
H104	H	1.682217	-0.380084	-0.944971
H105	H	1.092044	-0.508704	-0.431831
H106	H	1.404848	-0.291485	-1.121990
H107	H	0.920294	-0.316409	-0.671173
C108	C	1.372810	-0.289797	-0.929775
C109	C	1.306853	-0.277842	-1.016020
C110	C	1.207224	-0.255791	-0.979080
H111	H	1.380212	-0.239787	-0.886816
H112	H	1.342558	-0.332969	-0.889184
H113	H	1.337099	-0.234673	-1.056594
H114	H	1.299421	-0.327842	-1.058988
H115	H	1.176971	-0.298964	-0.938489
H116	H	1.214636	-0.205784	-0.936121
H117	H	1.162456	-0.247685	-1.037592
C118	C	1.559174	-0.246509	-0.924625
C119	C	1.504548	-0.187368	-0.864393
C120	C	1.576584	-0.125424	-0.822647
H121	H	1.595280	-0.220305	-0.980838
H122	H	1.608981	-0.270815	-0.880932
H123	H	1.454759	-0.163064	-0.908084
H124	H	1.468446	-0.213546	-0.808164
H125	H	1.626392	-0.149729	-0.778954
H126	H	1.612686	-0.099227	-0.878866
H127	H	1.539533	-0.085293	-0.781767
H128	H	1.103137	-0.312742	-0.665572
C129	C	1.107111	-0.435527	-0.735855
C130	C	1.166536	-0.389608	-0.808215
C131	C	1.200887	-0.443162	-0.890329
H132	H	1.047484	-0.462615	-0.770844
H133	H	1.149750	-0.475910	-0.707480
H134	H	1.123899	-0.349240	-0.836588
H135	H	1.226177	-0.362522	-0.773258
H136	H	1.243526	-0.483545	-0.861954
H137	H	1.141254	-0.470247	-0.925309
H138	H	1.241219	-0.412015	-0.939430
H139	H	1.546473	-0.265370	-1.118420
H140	H	1.635865	-0.490264	-1.132402
C141	C	1.438873	-0.552357	-1.149227
C142	C	1.361300	-0.608806	-1.112231
C143	C	1.378775	-0.688684	-1.155142
H144	H	1.506851	-0.568138	-1.128386
H145	H	1.435351	-0.552471	-1.224282
H146	H	1.364833	-0.608695	-1.037192
H147	H	1.293314	-0.593053	-1.133070
H148	H	1.375253	-0.688798	-1.230197
H149	H	1.446755	-0.704457	-1.134298
H150	H	1.326140	-0.726993	-1.130054
C151	C	1.439334	-0.553172	-0.946555
C152	C	1.353136	-0.582461	-0.887012
C153	C	1.370859	-0.662798	-0.856117
H154	H	1.501921	-0.551950	-0.904873
H155	H	1.447221	-0.589030	-1.007679
H156	H	1.345261	-0.546613	-0.825897
H157	H	1.290538	-0.583704	-0.928673
H158	H	1.378746	-0.698656	-0.917242
H159	H	1.433449	-0.661568	-0.814439
H160	H	1.312374	-0.682684	-0.815723
H161	H	1.682139	-0.381037	-1.126444
