data_functionalizedCrystal
_audit_creation_method	'MofGen! by Chris Wilmer'
_symmetry_space_group_name_H-M	'P1'
_symmetry_Int_Tables_number	1
_symmetry_cell_setting	triclinic
loop_
_symmetry_equiv_pos_as_xyz
  x,y,z
_cell_length_a	13.897449
_cell_length_b	10.686285
_cell_length_c	10.685880
_cell_angle_alpha	89.638885
_cell_angle_beta	85.604544
_cell_angle_gamma	85.632943
loop_
_atom_site_label
_atom_site_type_symbol
_atom_site_fract_x
_atom_site_fract_y
_atom_site_fract_z
Zn1	Zn	1.546595	-0.553658	-0.671069
Zn2	Zn	1.544637	-0.747396	-0.445241
Zn3	Zn	1.372045	-0.537654	-0.461314
Zn4	Zn	1.396650	-0.763374	-0.654960
O5	O	1.464982	-0.650521	-0.558146
O6	O	1.681319	-0.579369	-0.641127
O7	O	1.510626	-0.706188	-0.271821
O8	O	1.385722	-0.364233	-0.502606
O9	O	1.679880	-0.721707	-0.475212
O10	O	1.513964	-0.375991	-0.656712
O11	O	1.383823	-0.552092	-0.283630
O12	O	1.240326	-0.567586	-0.486986
O13	O	1.427657	-0.748940	-0.832648
O14	O	1.258403	-0.733421	-0.629257
O15	O	1.537821	-0.594862	-0.844483
O16	O	1.534483	-0.925060	-0.459592
O17	O	1.425758	-0.936799	-0.613672
C18	C	1.482606	-0.976448	-0.533167
C19	C	1.490236	-1.115885	-0.522523
C20	C	1.214365	-0.650502	-0.558118
C21	C	1.107153	-0.650526	-0.558134
C22	C	0.910860	-0.650533	-0.558167
C23	C	1.020091	-0.650525	-0.558145
C24	C	1.716577	-0.650541	-0.558174
C25	C	1.823793	-0.650549	-0.558186
C26	C	1.485702	-0.675469	-0.885357
C27	C	1.494532	-0.686100	-1.024795
C28	C	1.447317	-0.323323	-0.583249
C29	C	1.439789	-0.183890	-0.593947
C30	C	1.444393	-0.625579	-0.232214
C31	C	1.435731	-0.614595	-0.092804
H32	H	1.390762	-1.135441	-0.663240
H33	H	1.539260	-1.164340	-0.453217
C34	C	1.358585	-0.520898	-1.027364
C35	C	1.349555	-0.510034	-0.883244
C36	C	1.272408	-0.416336	-0.817794
C37	C	1.204292	-0.333503	-0.896464
C38	C	1.213319	-0.344365	-1.040593
C39	C	1.290466	-0.438063	-1.106042
H40	H	1.399981	-0.571354	-0.825000
H41	H	1.265726	-0.408296	-0.711100
H42	H	1.147183	-0.264142	-0.848014
H43	H	1.162893	-0.283045	-1.098836
H44	H	1.297148	-0.446103	-1.212736
H45	H	1.551637	-0.755459	-1.073249
