data_functionalizedCrystal
_audit_creation_method	'MofGen! by Chris Wilmer'
_symmetry_space_group_name_H-M	'P1'
_symmetry_Int_Tables_number	1
_symmetry_cell_setting	triclinic
loop_
_symmetry_equiv_pos_as_xyz
  x,y,z
_cell_length_a	14.395555
_cell_length_b	14.446369
_cell_length_c	14.446369
_cell_angle_alpha	60.000250
_cell_angle_beta	90.003244
_cell_angle_gamma	60.000723
loop_
_atom_site_label
_atom_site_type_symbol
_atom_site_fract_x
_atom_site_fract_y
_atom_site_fract_z
Zr1	Zr	0.894923	1.013195	-0.121472
O2	O	0.746595	1.206313	-0.269290
O3	O	0.940393	0.820076	-0.076152
O4	O	0.940395	1.013185	-0.269271
O5	O	0.746593	1.013212	0.076157
O6	O	1.093269	1.013178	-0.269263
O7	O	0.746593	1.013204	-0.076171
O8	O	1.093265	0.667742	0.076192
O9	O	0.746596	1.358648	-0.269297
O10	O	1.073875	0.899504	-0.056825
O11	O	0.959786	0.899515	0.056850
O12	O	0.959789	1.126876	-0.170523
O13	O	0.845700	1.126887	-0.056848
Zr14	Zr	1.138740	1.013197	0.121487
Zr15	Zr	1.138740	1.013184	-0.121460
Zr16	Zr	0.894923	1.013208	0.121474
Zr17	Zr	0.894926	1.256153	-0.121484
Zr18	Zr	1.138738	0.770239	0.121498
O19	O	1.093270	1.206316	0.076167
O20	O	1.093271	1.206297	-0.269272
O21	O	0.746595	1.206331	0.076149
O22	O	1.287068	0.820079	0.269305
O23	O	1.287069	0.820060	-0.076134
O24	O	0.940392	0.820095	0.269287
O25	O	1.287070	1.013180	-0.076143
O26	O	1.093268	1.013207	0.269286
O27	O	0.940394	1.013214	0.269278
O28	O	1.287070	1.013188	0.076186
O29	O	0.940398	1.358640	-0.269287
O30	O	1.093265	0.667752	0.269302
O31	O	1.287067	0.667744	0.269312
O32	O	1.287067	0.667733	0.076202
O33	O	0.746596	1.358659	-0.076187
O34	O	0.940398	1.358650	-0.076177
O35	O	1.073874	0.899516	0.170538
O36	O	1.187963	0.899505	0.056862
O37	O	1.073877	1.126877	-0.056835
O38	O	0.959788	1.126888	0.056840
C39	C	1.016829	0.709293	0.000021
C40	C	1.016828	0.606151	0.000026
C41	C	0.945217	0.459148	0.072049
C42	C	0.944828	0.566768	0.071758
C43	C	0.964337	0.655142	-0.123512
C44	C	0.963799	0.547910	-0.123138
C45	C	1.140980	0.372690	0.050477
C46	C	1.140798	0.478841	0.052998
C47	C	0.711854	1.013210	-0.000009
C48	C	0.608348	1.013214	-0.000014
C49	C	0.485554	1.137187	-0.061997
C50	C	0.454718	1.075209	-0.106910
C51	C	0.454761	1.075188	0.044890
C52	C	0.578875	0.951235	-0.044990
C53	C	0.578914	0.951232	0.106870
C54	C	0.548152	0.889163	0.061984
C55	C	1.321809	1.013182	0.000024
C56	C	1.425315	1.013178	0.000029
C57	C	1.016832	1.013179	-0.303882
C58	C	1.016832	1.013174	-0.407019
C59	C	1.016834	1.317099	-0.000007
C60	C	1.016835	1.420241	-0.000011
C61	C	1.089144	0.869785	-0.481991
C62	C	1.088831	0.869689	-0.374663
C63	C	0.892867	1.084407	-0.481589
C64	C	0.893264	1.083497	-0.588448
C65	C	1.067483	1.086442	-0.590012
C66	C	1.069991	1.083739	-0.481340
C67	C	1.016831	1.013213	0.303897
C68	C	1.016831	1.013218	0.407034
C69	C	1.321806	0.709279	0.000038
C70	C	1.425312	0.606132	0.000048
C71	C	1.016828	0.709309	0.303911
C72	C	1.016827	0.606173	0.407053
C73	C	1.321806	0.709296	0.303927
C74	C	1.425311	0.606155	0.407074
C75	C	0.711857	1.317096	-0.303912
C76	C	0.608352	1.420237	-0.407060
C77	C	0.711857	1.317113	-0.000023
C78	C	0.608351	1.420260	-0.000033
C79	C	1.016835	1.317083	-0.303896
C80	C	1.016836	1.420219	-0.407038
C81	C	1.644449	0.459813	0.071390
C82	C	1.536840	0.566741	0.071790
C83	C	1.428651	0.479276	0.052350
C84	C	1.536799	0.371894	0.052874
C85	C	1.535422	0.546864	-0.123685
C86	C	1.429081	0.655340	-0.123491
C87	C	0.944523	0.459862	0.482038
C88	C	0.944829	0.566783	0.374705
C89	C	1.140794	0.479314	0.481619
C90	C	1.140405	0.371939	0.588482
C91	C	0.966187	0.546920	0.590051
C92	C	0.963672	0.655390	0.481375
C93	C	1.500561	0.459821	0.625442
C94	C	1.392849	0.566764	0.518205
C95	C	1.500116	0.479302	0.410395
C96	C	1.607357	0.371905	0.518169
C97	C	1.608978	0.546850	0.516822
C98	C	1.499919	0.655341	0.410848
H99	H	0.854184	0.494913	0.037340
N100	N	0.844487	0.777416	-0.177426
H101	H	0.823999	0.801265	-0.122036
H102	H	0.789998	0.761099	-0.198489
H103	H	0.876281	0.586496	0.594161
N104	N	1.209773	0.795532	-0.302744
H105	H	1.227177	0.718742	-0.225665
H106	H	1.219394	0.855556	-0.293794
N107	N	0.823907	0.685121	0.302800
H108	H	0.806460	0.702819	0.225697
H109	H	0.814385	0.763616	0.293905
N110	N	0.649535	0.881899	-0.095432
H111	H	0.611178	0.850451	-0.118223
H112	H	0.727498	0.804522	-0.037423
N113	N	1.717536	0.341042	0.191536
H114	H	1.674170	0.302849	0.227241
H115	H	1.738072	0.367421	0.236718
H116	H	1.585617	0.586431	-0.167373
H117	H	1.010870	0.687515	0.506898
N118	N	1.533851	0.697887	0.306002
H119	H	1.579306	0.621593	0.300260
H120	H	1.581618	0.728975	0.310887
N121	N	0.823534	0.684409	0.025390
H122	H	0.770112	0.666480	0.005052
H123	H	0.813422	0.763109	-0.044517
H124	H	0.853004	0.497105	0.479697
N125	N	1.210377	0.795199	-0.478872
H126	H	1.219605	0.853656	-0.549366
H127	H	1.228990	0.716002	-0.475444
H128	H	1.538460	0.656089	0.036712
N129	N	1.211997	0.338280	-0.018713
H130	H	1.215039	0.266016	-0.016949
H131	H	1.291619	0.307867	0.014158
N132	N	0.582126	0.750195	0.131421
H133	H	0.511600	0.750932	0.131601
H134	H	0.629382	0.703081	0.211760
H135	H	1.687473	0.522049	0.489383
N136	N	0.991386	0.517150	0.303466
H137	H	0.991778	0.586479	0.233365
H138	H	0.941956	0.496344	0.280522
H139	H	1.181629	0.440752	0.430016
H140	H	1.448313	0.440763	0.408248
N141	N	0.842688	0.775236	0.413252
H142	H	0.841895	0.846869	0.344338
H143	H	0.809000	0.806338	0.461568
H144	H	0.979330	0.370194	0.481009
H145	H	1.180955	0.281184	0.588214
N146	N	0.451864	1.276041	-0.131524
H147	H	0.405898	1.322706	-0.212254
H148	H	0.522555	1.274965	-0.130369
H149	H	1.499511	0.370163	0.680415
N150	N	0.991542	0.341419	0.192825
H151	H	0.944357	0.368524	0.237585
H152	H	1.073071	0.304046	0.228132
N153	N	1.030164	0.693198	-0.197670
H154	H	1.027869	0.765836	-0.200950
H155	H	0.994929	0.724303	-0.276638
N156	N	1.035617	0.514096	0.693656
H157	H	1.068413	0.566885	0.669431
H158	H	1.099510	0.417674	0.742252
N159	N	1.217443	0.507299	-0.009291
H160	H	1.282775	0.483278	0.044921
H161	H	1.172602	0.603555	-0.073015
H162	H	1.338858	0.529316	0.520649
H163	H	1.527451	0.501547	0.332135
N164	N	1.215681	0.332225	0.692578
H165	H	1.216021	0.262225	0.762741
H166	H	1.185665	0.410925	0.694478
N167	N	0.383819	1.144614	-0.226616
H168	H	0.314304	1.143341	-0.225647
H169	H	0.430417	1.098694	-0.260945
N170	N	1.606991	0.251695	0.584851
H171	H	1.537305	0.268832	0.544098
H172	H	1.605874	0.230415	0.662744
N173	N	1.716248	0.509003	0.025101
H174	H	1.788322	0.437845	0.028391
H175	H	1.736244	0.533909	0.072055
H176	H	0.632428	0.898885	0.197225
N177	N	0.842786	0.601805	-0.176634
H178	H	0.811286	0.681299	-0.257107
H179	H	0.794870	0.627322	-0.131622
N180	N	1.614475	0.599253	0.583079
H181	H	1.618931	0.541423	0.663149
H182	H	1.544047	0.691229	0.545616
N183	N	1.043055	0.795572	-0.480617
H184	H	0.975537	0.854459	-0.551567
H185	H	1.018649	0.765816	-0.411813
H186	H	1.197013	0.501560	0.508851
H187	H	0.401255	1.127612	0.082850
N188	N	0.998053	1.226398	-0.693630
H189	H	1.048281	1.242956	-0.738626
H190	H	0.965258	1.287568	-0.669332
N191	N	1.320691	0.685095	0.520367
H192	H	1.250418	0.754941	0.450560
H193	H	1.365920	0.720140	0.521705
N194	N	1.186572	1.025651	-0.595459
H195	H	1.208896	0.950021	-0.599899
H196	H	1.241270	0.992928	-0.525269
H197	H	0.980037	0.530061	0.162727
H198	H	1.498228	0.497049	0.679406
H199	H	1.686217	0.341939	0.491521
N200	N	1.042275	0.795206	-0.303429
H201	H	0.972075	0.854983	-0.294640
H202	H	1.101751	0.718420	-0.226252
N203	N	1.028428	0.518794	-0.198118
H204	H	1.057136	0.575615	-0.231272
H205	H	0.976309	0.537672	-0.261443
N206	N	1.007461	1.222412	-0.515180
H207	H	1.043485	1.265224	-0.562810
H208	H	1.011876	1.221362	-0.444855
N209	N	0.818006	1.222883	-0.692551
H210	H	0.864466	1.243005	-0.741459
H211	H	0.784736	1.284554	-0.668794
N212	N	0.839562	1.016441	-0.588097
H213	H	0.815855	0.987750	-0.518665
H214	H	0.896391	0.937431	-0.586971
N215	N	1.540093	0.517131	0.192661
H216	H	1.611514	0.425632	0.245890
H217	H	1.471231	0.515841	0.202735
H218	H	0.836648	1.189907	-0.508827
H219	H	1.161324	1.031790	-0.429916
N220	N	0.838758	1.018889	-0.413256
H221	H	0.835713	1.022936	-0.345432
H222	H	0.885335	0.924427	-0.386651
H223	H	1.587323	0.281141	0.143903
N224	N	1.501377	0.332199	-0.011525
H225	H	1.456668	0.296961	0.026135
H226	H	1.571340	0.262240	-0.011669
N227	N	1.199060	0.248554	0.169143
H228	H	1.145478	0.221881	0.191376
H229	H	1.220932	0.264218	0.223659
N230	N	1.192783	0.426432	0.173525
H231	H	1.136273	0.484897	0.193744
H232	H	1.263643	0.424432	0.180843
H233	H	1.448341	0.745801	0.411409
H234	H	1.350107	0.501523	0.002869
H235	H	1.426510	0.440722	0.142515
H236	H	1.429604	0.745827	-0.162561
H237	H	1.349643	0.687467	-0.181142
H238	H	1.507877	0.522072	-0.177110
