data_functionalizedCrystal
_audit_creation_method	'MofGen! by Chris Wilmer'
_symmetry_space_group_name_H-M	'P1'
_symmetry_Int_Tables_number	1
_symmetry_cell_setting	triclinic
loop_
_symmetry_equiv_pos_as_xyz
  x,y,z
_cell_length_a	16.109301
_cell_length_b	15.538191
_cell_length_c	14.586319
_cell_angle_alpha	89.999456
_cell_angle_beta	89.999213
_cell_angle_gamma	65.366787
loop_
_atom_site_label
_atom_site_type_symbol
_atom_site_fract_x
_atom_site_fract_y
_atom_site_fract_z
O1	O	1.066616	0.121093	-0.076175
O2	O	1.566616	0.621093	0.423825
O3	O	0.820010	0.136163	-0.076189
O4	O	1.320010	0.636163	0.423811
O5	O	0.991317	-0.008516	-0.076184
O6	O	1.491317	0.491484	0.423816
O7	O	0.895309	0.265773	-0.076180
O8	O	1.395309	0.765773	0.423820
O9	O	0.991309	-0.008518	0.076297
O10	O	1.491309	0.491482	0.576297
O11	O	0.820002	0.136161	0.076292
O12	O	1.320002	0.636161	0.576292
O13	O	1.066608	0.121091	0.076306
O14	O	1.566608	0.621091	0.576306
Cu15	Cu	0.943304	0.128626	0.090221
Cu16	Cu	1.443304	0.628626	0.590221
Cu17	Cu	0.943314	0.128629	-0.090105
Cu18	Cu	1.443314	0.628629	0.409895
O19	O	0.895301	0.265770	0.076300
O20	O	1.395301	0.765770	0.576300
C21	C	0.789215	0.135552	0.000050
C22	C	1.289215	0.635552	0.500050
C23	C	0.697472	0.133722	0.000044
C24	C	1.197472	0.633722	0.500044
C25	C	0.450596	0.215316	0.000056
C26	C	0.950596	0.715316	0.500056
C27	C	0.364396	0.213589	0.000062
C28	C	0.864396	0.713589	0.500062
C29	C	0.436032	0.041932	0.000056
C30	C	0.936032	0.541932	0.500056
C31	C	0.522229	0.043660	0.000056
C32	C	1.022229	0.543660	0.500056
C33	C	0.529508	0.130355	0.000052
C34	C	1.029508	0.630355	0.500052
C35	C	0.357111	0.126900	0.000057
C36	C	0.857111	0.626900	0.500057
C37	C	0.263649	0.125027	0.000063
C38	C	0.763649	0.625027	0.500063
C39	C	0.622975	0.132228	0.000047
C40	C	1.122975	0.632228	0.500047
C41	C	1.001358	-0.043615	0.000054
C42	C	1.501358	0.456385	0.500054
C43	C	1.031279	-0.148198	0.000047
C44	C	1.531279	0.351802	0.500047
C45	C	0.734025	-0.435898	0.000050
C46	C	1.234025	0.064102	0.500050
C47	C	0.762161	-0.534172	0.000053
C48	C	1.262161	-0.034172	0.500053
C49	C	0.920419	-0.556664	0.000062
C50	C	1.420419	-0.056664	0.500062
C51	C	0.892297	-0.458389	0.000054
C52	C	1.392297	0.041611	0.500054
C53	C	0.799099	-0.398013	0.000049
C54	C	1.299099	0.101987	0.500049
C55	C	0.957370	-0.420505	0.000053
C56	C	1.457370	0.079495	0.500053
C57	C	0.929249	-0.322239	0.000049
C58	C	1.429249	0.177761	0.500049
C59	C	0.836055	-0.261857	0.000047
C60	C	1.336055	0.238143	0.500047
C61	C	0.770978	-0.299747	0.000046
C62	C	1.270978	0.200253	0.500046
C63	C	1.050568	-0.480882	0.000064
C64	C	1.550568	0.019118	0.500064
C65	C	1.115641	-0.442998	0.000063
C66	C	1.615641	0.057002	0.500063
C67	C	1.087520	-0.344730	0.000053
C68	C	1.587520	0.155270	0.500053
C69	C	0.994326	-0.284349	0.000051
C70	C	1.494326	0.215651	0.500051
C71	C	1.152598	-0.306840	0.000055
C72	C	1.652598	0.193160	0.500055
C73	C	1.124477	-0.208574	0.000052
C74	C	1.624477	0.291426	0.500052
C75	C	0.966206	-0.186083	0.000048
C76	C	1.466206	0.313917	0.500048
C77	C	1.097403	0.121703	0.000065
C78	C	1.597403	0.621703	0.500065
C79	C	1.189147	0.123533	0.000065
C80	C	1.689147	0.623533	0.500065
C81	C	0.885260	0.300870	0.000060
C82	C	1.385260	0.800870	0.500060
C83	C	0.855340	0.405453	0.000062
C84	C	1.355340	0.905453	0.500062
N85	N	0.943304	0.128624	0.217053
N86	N	1.443304	0.628624	0.717053
N87	N	0.943324	0.128624	-0.216937
N88	N	1.443324	0.628624	0.283063
C89	C	1.019171	0.064581	0.452062
C90	C	1.519171	0.564581	0.952062
C91	C	1.019174	0.064579	0.548043
C92	C	1.519174	0.564579	1.048043
C93	C	0.867450	0.192669	0.548048
C94	C	1.367450	0.692669	1.048048
C95	C	0.867445	0.192666	0.452069
C96	C	1.367445	0.692666	0.952069
C97	C	0.943310	0.128623	0.404078
C98	C	1.443310	0.628623	0.904078
C99	C	0.943318	0.128624	0.596039
C100	C	1.443318	0.628624	1.096039
C101	C	0.943320	0.128622	0.700106
C102	C	1.443320	0.628622	1.200106
C103	C	0.943307	0.128624	0.300004
C104	C	1.443307	0.628624	0.800004
H105	H	0.890314	-0.136921	0.000037
H106	H	1.390314	0.363079	0.500037
F107	F	0.786697	0.260828	0.400996
F108	F	1.286697	0.760828	0.900996
F109	F	0.458339	0.307584	0.000055
F110	F	0.958339	0.807584	0.500055
F111	F	0.280413	0.304017	0.000067
F112	F	0.780413	0.804017	0.500067
F113	F	0.606221	-0.046772	0.000058
F114	F	1.106221	0.453228	0.500058
F115	F	0.428276	-0.050329	0.000057
F116	F	0.928276	0.449671	0.500057
H117	H	0.695087	-0.250585	0.000035
H118	H	1.195087	0.249415	0.500035
F119	F	0.806126	-0.157272	0.000051
F120	F	1.306126	0.342728	0.500051
H121	H	0.805683	0.244813	0.587132
H122	H	1.305683	0.744813	1.087132
F123	F	1.251782	-0.371107	0.000075
F124	F	1.751782	0.128893	0.500075
H125	H	1.177466	-0.177729	0.000052
H126	H	1.677466	0.322271	0.500052
H127	H	0.658134	-0.386736	0.000039
H128	H	1.158134	0.113264	0.500039
F129	F	0.692894	-0.574487	0.000060
F130	F	1.192894	-0.074487	0.500060
F131	F	1.019604	-0.620929	0.000074
F132	F	1.519604	-0.120929	0.500074
H133	H	1.073460	-0.560896	0.000059
H134	H	1.573460	-0.060896	0.500059
F135	F	1.099914	-0.003585	0.599108
F136	F	1.599914	0.496415	1.099108
F137	F	1.214826	-0.507263	0.000075
F138	F	1.714826	-0.007263	0.500075
H139	H	1.080944	0.012432	0.412990
H140	H	1.580944	0.512432	0.912990
