data_functionalizedCrystal
_audit_creation_method	'MofGen! by Chris Wilmer'
_symmetry_space_group_name_H-M	'P1'
_symmetry_Int_Tables_number	1
_symmetry_cell_setting	triclinic
loop_
_symmetry_equiv_pos_as_xyz
  x,y,z
_cell_length_a	17.666332
_cell_length_b	13.339070
_cell_length_c	19.188925
_cell_angle_alpha	99.385922
_cell_angle_beta	89.993867
_cell_angle_gamma	89.990959
loop_
_atom_site_label
_atom_site_type_symbol
_atom_site_fract_x
_atom_site_fract_y
_atom_site_fract_z
O1	O	0.062973	-1.340732	-0.349727
O2	O	0.562973	-0.840732	0.150273
O3	O	0.062969	-1.046410	-0.303824
O4	O	0.562969	-0.546410	0.196176
O5	O	0.062967	-1.202067	-0.226783
O6	O	0.562967	-0.702067	0.273217
O7	O	0.062975	-1.185074	-0.426767
O8	O	0.562975	-0.685074	0.073233
O9	O	-0.062930	-1.202040	-0.226772
O10	O	0.437070	-0.702040	0.273228
O11	O	-0.062928	-1.046382	-0.303813
O12	O	0.437072	-0.546382	0.196187
O13	O	-0.062923	-1.340705	-0.349716
O14	O	0.437077	-0.840705	0.150284
Cu15	Cu	-0.074421	-1.193541	-0.326763
Cu16	Cu	0.425579	-0.693541	0.173237
Cu17	Cu	0.074467	-1.193573	-0.326776
Cu18	Cu	0.574467	-0.693573	0.173224
O19	O	-0.062921	-1.185047	-0.426756
O20	O	0.437079	-0.685047	0.073244
C21	C	0.000020	-1.008741	-0.296064
C22	C	0.500020	-0.508741	0.203936
C23	C	0.000019	-0.896542	-0.272951
C24	C	0.500019	-0.396542	0.227049
N25	N	-0.179140	-1.193526	-0.326755
N26	N	0.320860	-0.693526	0.173245
C27	C	0.000019	-1.201504	-0.200659
C28	C	0.500019	-0.701504	0.299341
C29	C	0.000021	-1.199855	-0.122831
C30	C	0.500021	-0.699855	0.377169
C31	C	-0.218751	-1.262473	-0.292669
C32	C	0.281249	-0.762473	0.207331
C33	C	-0.297999	-1.262479	-0.292667
C34	C	0.202001	-0.762479	0.207333
C35	C	-0.337632	-1.193547	-0.326765
C36	C	0.162368	-0.693547	0.173235
C37	C	-0.298012	-1.124587	-0.360852
C38	C	0.201988	-0.624587	0.139148
C39	C	-0.218766	-1.124576	-0.360847
C40	C	0.281234	-0.624576	0.139153
N41	N	-0.462049	-1.180406	-0.385999
N42	N	0.037951	-0.680406	0.114001
N43	N	-0.537329	-1.180423	-0.386002
N44	N	-0.037329	-0.680423	0.113998
C45	C	-0.576396	-1.193574	-0.326780
C46	C	-0.076396	-0.693574	0.173220
N47	N	-0.537339	-1.206728	-0.267555
N48	N	-0.037339	-0.706728	0.232445
N49	N	-0.462052	-1.206717	-0.267553
N50	N	0.037948	-0.706717	0.232447
C51	C	-0.423562	-1.193551	-0.326773
C52	C	0.076438	-0.693551	0.173227
C53	C	-0.701936	-1.262532	-0.292688
C54	C	-0.201936	-0.762532	0.207312
C55	C	-0.781185	-1.262530	-0.292684
C56	C	-0.281185	-0.762530	0.207316
C57	C	-0.781198	-1.124643	-0.360875
C58	C	-0.281198	-0.624643	0.139125
C59	C	-0.701950	-1.124639	-0.360873
C60	C	-0.201950	-0.624639	0.139127
C61	C	-0.662324	-1.193589	-0.326781
C62	C	-0.162324	-0.693589	0.173219
N63	N	0.179186	-1.193597	-0.326780
N64	N	0.679186	-0.693597	0.173220
C65	C	0.000027	-1.378373	-0.357476
C66	C	0.500027	-0.878373	0.142524
C67	C	0.000034	-1.490572	-0.380588
C68	C	0.500034	-0.990572	0.119412
C69	C	0.000038	-0.530949	-0.452664
C70	C	0.500038	-0.030949	0.047336
C71	C	0.000042	-0.636365	-0.474382
C72	C	0.500042	-0.136365	0.025618
C73	C	0.000036	-0.701415	-0.424026
C74	C	0.500036	-0.201415	0.075974
C75	C	0.000026	-0.661038	-0.351949
C76	C	0.500026	-0.161038	0.148051
C77	C	0.000028	-0.555611	-0.330229
C78	C	0.500028	-0.055611	0.169771
C79	C	0.000026	-0.726077	-0.301591
C80	C	0.500026	-0.226077	0.198409
C81	C	0.000017	-0.685700	-0.229514
C82	C	0.500017	-0.185700	0.270486
C83	C	0.000018	-0.580284	-0.207797
C84	C	0.500018	-0.080284	0.292203
C85	C	0.000024	-0.515234	-0.258153
C86	C	0.500024	-0.015234	0.241847
C87	C	0.000024	-0.831503	-0.323311
C88	C	0.500024	-0.331503	0.176689
C89	C	0.000014	-0.856165	-0.200875
C90	C	0.500014	-0.356165	0.299125
C91	C	0.000010	-0.750749	-0.179158
C92	C	0.500010	-0.250749	0.320842
C93	C	0.000028	-1.185610	-0.452881
C94	C	0.500028	-0.685610	0.047119
C95	C	0.000032	-1.187259	-0.530708
C96	C	0.500032	-0.687259	-0.030708
C97	C	0.000041	-1.280147	0.423215
C98	C	0.500041	-0.780147	0.923215
C99	C	0.000034	-1.281706	0.350087
C100	C	0.500034	-0.781706	0.850087
C101	C	0.000033	-1.190371	0.323038
C102	C	0.500033	-0.690371	0.823038
C103	C	0.000020	-1.097471	0.369125
C104	C	0.500020	-0.597471	0.869125
C105	C	0.000019	-1.095915	0.442252
C106	C	0.500019	-0.595915	0.942252
N107	N	0.042884	-1.124257	0.215303
N108	N	0.542884	-0.624257	0.715303
N109	N	0.042887	-1.125741	0.145835
N110	N	0.542887	-0.625741	0.645835
C111	C	0.000034	-1.195053	0.102712
C112	C	0.500034	-0.695053	0.602712
N113	N	-0.042812	-1.262839	0.131680
N114	N	0.457188	-0.762839	0.631680
N115	N	-0.042811	-1.261358	0.201154
N116	N	0.457189	-0.761358	0.701154
C117	C	0.000034	-1.192047	0.243746
C118	C	0.500034	-0.692047	0.743746
C119	C	0.000035	-1.289637	-0.022659
C120	C	0.500035	-0.789637	0.477341
C121	C	0.000023	-1.291191	-0.095788
C122	C	0.500023	-0.791191	0.404212
C123	C	0.000016	-1.106953	-0.076748
C124	C	0.500016	-0.606953	0.423252
C125	C	0.000020	-1.105401	-0.003620
C126	C	0.500020	-0.605401	0.496380
C127	C	0.000033	-1.196746	0.023419
C128	C	0.500033	-0.696746	0.523419
H129	H	-0.330255	-1.318626	-0.264909
H130	H	0.169745	-0.818626	0.235091
C131	C	-0.709925	-0.988358	-0.428283
C132	C	-0.209925	-0.488358	0.071717
C133	C	-0.658405	-1.048860	-0.398351
C134	C	-0.158405	-0.548860	0.101649
H135	H	-0.683040	-0.941576	-0.451424
H136	H	-0.183040	-0.441576	0.048576
H137	H	-0.740843	-0.952137	-0.392190
H138	H	-0.240843	-0.452137	0.107810
H139	H	-0.740823	-1.030330	-0.461544
H140	H	-0.240823	-0.530330	0.038456
H141	H	-0.627510	-1.006888	-0.365086
H142	H	-0.127510	-0.506888	0.134914
H143	H	-0.627473	-1.085083	-0.434449
H144	H	-0.127473	-0.585083	0.065551
H145	H	0.000029	-0.864367	-0.381996
H146	H	0.500029	-0.364367	0.118004
H147	H	0.000041	-0.787248	-0.441713
H148	H	0.500041	-0.287248	0.058287
H149	H	0.000018	-1.029762	0.033897
H150	H	0.500018	-0.529762	0.533897
H151	H	0.000049	-0.477978	-0.493656
H152	H	0.500049	0.022022	0.006344
H153	H	0.000021	-0.429395	-0.240474
H154	H	0.500021	0.070605	0.259526
C155	C	-0.419498	-1.063392	-0.391146
C156	C	0.080502	-0.563392	0.108854
C157	C	-0.341575	-1.048818	-0.398335
C158	C	0.158425	-0.548818	0.101665
H159	H	-0.446389	-1.016614	-0.414290
H160	H	0.053611	-0.516614	0.085710
H161	H	-0.432492	-1.052626	-0.342464
H162	H	0.067508	-0.552626	0.157536
H163	H	-0.432458	-1.130816	-0.411820
H164	H	0.067542	-0.630816	0.088180
H165	H	-0.328613	-0.981396	-0.377656
H166	H	0.171387	-0.481396	0.122344
H167	H	-0.328575	-1.059576	-0.447027
H168	H	0.171425	-0.559576	0.052973
H169	H	0.000016	-1.023105	0.347098
H170	H	0.500016	-0.523105	0.847098
C171	C	0.064727	-0.909668	-0.103210
C172	C	0.564727	-0.409668	0.396790
C173	C	0.000008	-0.927658	-0.145518
C174	C	0.500008	-0.427658	0.354482
H175	H	0.064726	-0.953815	-0.069041
H176	H	0.564726	-0.453815	0.430959
H177	H	0.064723	-0.841115	-0.079962
H178	H	0.564723	-0.341115	0.420038
H179	H	0.108625	-0.921893	-0.131935
H180	H	0.608625	-0.421893	0.368065
H181	H	-0.043890	-0.915427	-0.116793
H182	H	0.456110	-0.415427	0.383207
H183	H	0.000006	-0.996228	-0.168767
H184	H	0.500006	-0.496228	0.331233
H185	H	0.000019	-0.547413	-0.149107
H186	H	0.500019	-0.047413	0.350893
C187	C	0.000013	-0.600093	-0.091507
C188	C	0.500013	-0.100093	0.408493
C189	C	0.000008	-0.706359	-0.099931
C190	C	0.500008	-0.206359	0.400069
H191	H	0.000016	-0.572691	-0.042596
H192	H	0.500016	-0.072691	0.457404
H193	H	-0.043886	-0.577747	-0.113094
H194	H	0.456114	-0.077747	0.386906
H195	H	0.043920	-0.577774	-0.113109
H196	H	0.543920	-0.077774	0.386891
H197	H	-0.043902	-0.728678	-0.078334
H198	H	0.456098	-0.228678	0.421666
H199	H	0.043912	-0.728714	-0.078335
H200	H	0.543912	-0.228714	0.421665
C201	C	0.000046	-0.601391	-0.593218
C202	C	0.500046	-0.101391	-0.093218
C203	C	0.000045	-0.680745	-0.553605
C204	C	0.500045	-0.180745	-0.053605
H205	H	0.000042	-0.628792	-0.642129
H206	H	0.500042	-0.128792	-0.142129
H207	H	0.043947	-0.560801	-0.582205
H208	H	0.543947	-0.060801	-0.082205
H209	H	-0.043860	-0.560773	-0.582190
H210	H	0.456140	-0.060773	-0.082190
H211	H	0.043954	-0.721359	-0.564628
H212	H	0.543954	-0.221359	-0.064628
H213	H	-0.043860	-0.721352	-0.564622
H214	H	0.456140	-0.221352	-0.064622
C215	C	-0.226740	-0.988284	-0.428252
C216	C	0.273260	-0.488284	0.071748
C217	C	-0.175221	-1.048791	-0.398324
C218	C	0.324779	-0.548791	0.101676
H219	H	-0.199854	-0.941504	-0.451393
H220	H	0.300146	-0.441504	0.048607
H221	H	-0.257656	-0.952063	-0.392158
H222	H	0.242344	-0.452063	0.107842
H223	H	-0.257640	-1.030254	-0.461513
H224	H	0.242360	-0.530254	0.038487
H225	H	-0.144324	-1.006822	-0.365059
H226	H	0.355676	-0.506822	0.134941
H227	H	-0.144292	-1.085015	-0.434422
H228	H	0.355708	-0.585015	0.065578
H229	H	-0.186490	-1.318614	-0.264908
H230	H	0.313510	-0.818614	0.235092
H231	H	0.000047	-1.354527	0.445226
H232	H	0.500047	-0.854527	0.945226
H233	H	0.000042	-1.357349	0.312564
H234	H	0.500042	-0.857349	0.812564
H235	H	-0.669672	-1.318672	-0.264926
H236	H	-0.169672	-0.818672	0.235074
H237	H	0.000009	-1.020272	0.479769
H238	H	0.500009	-0.520272	0.979769
H239	H	0.000045	-1.364015	-0.000642
H240	H	0.500045	-0.864015	0.499358
C241	C	0.064761	-1.448702	-0.134540
C242	C	0.564761	-0.948702	0.365460
C243	C	0.000034	-1.393302	-0.146440
C244	C	0.500034	-0.893302	0.353560
H245	H	0.064768	-1.511739	-0.165814
H246	H	0.564768	-1.011739	0.334186
H247	H	0.064759	-1.460845	-0.087124
H248	H	0.564759	-0.960845	0.412876
H249	H	0.108653	-1.411099	-0.142623
H250	H	0.608653	-0.911099	0.357377
H251	H	-0.043859	-1.430902	-0.138352
H252	H	0.456141	-0.930902	0.361648
H253	H	0.000028	-1.381163	-0.193868
H254	H	0.500028	-0.881163	0.306132
H255	H	0.000009	-1.032587	-0.098770
H256	H	0.500009	-0.532587	0.401230
C257	C	-0.805580	-1.322460	-0.183448
C258	C	-0.305580	-0.822460	0.316552
C259	C	-0.824726	-1.338327	-0.255214
C260	C	-0.324726	-0.838327	0.244786
H261	H	-0.832458	-1.369261	-0.160319
H262	H	-0.332458	-0.869261	0.339681
H263	H	-0.818588	-1.255054	-0.162778
H264	H	-0.318588	-0.755054	0.337222
H265	H	-0.752711	-1.332322	-0.178579
H266	H	-0.252711	-0.832322	0.321421
H267	H	-0.877595	-1.328458	-0.260083
H268	H	-0.377595	-0.828458	0.239917
H269	H	-0.811724	-1.405749	-0.275890
H270	H	-0.311724	-0.905749	0.224110
H271	H	-0.813467	-1.068513	-0.388635
H272	H	-0.313467	-0.568513	0.111365
