data_functionalizedCrystal
_audit_creation_method	'MofGen! by Chris Wilmer'
_symmetry_space_group_name_H-M	'P1'
_symmetry_Int_Tables_number	1
_symmetry_cell_setting	triclinic
loop_
_symmetry_equiv_pos_as_xyz
  x,y,z
_cell_length_a	17.699104
_cell_length_b	16.109301
_cell_length_c	14.586319
_cell_angle_alpha	90.000787
_cell_angle_beta	89.995275
_cell_angle_gamma	96.623501
loop_
_atom_site_label
_atom_site_type_symbol
_atom_site_fract_x
_atom_site_fract_y
_atom_site_fract_z
O1	O	0.097284	-1.102971	-0.076184
O2	O	0.109390	-0.860889	-0.076199
O3	O	-0.006841	-0.988761	-0.076183
O4	O	0.213515	-0.975100	-0.076200
O5	O	-0.006843	-0.988752	0.076298
O6	O	0.109389	-0.860881	0.076282
O7	O	0.097282	-1.102962	0.076297
Cu8	Cu	0.103335	-0.981921	0.090212
Cu9	Cu	0.103337	-0.981931	-0.090114
O10	O	0.213514	-0.975091	0.076280
C11	C	0.108899	-0.829911	0.000039
C12	C	0.107429	-0.737618	0.000034
C13	C	-0.035040	-0.988264	0.000057
C14	C	-0.119059	-0.986786	0.000058
C15	C	0.097773	-1.133941	0.000056
C16	C	0.099243	-1.226234	0.000055
C17	C	-0.643835	-1.053513	0.000036
C18	C	-0.564889	-1.054896	0.000044
C19	C	-0.516379	-0.979831	0.000042
C20	C	-0.546818	-0.903377	0.000040
C21	C	-0.625762	-0.901995	0.000038
C22	C	-0.228444	-0.908950	0.000048
C23	C	-0.149494	-0.910338	0.000047
C24	C	-0.167571	-1.061851	0.000054
C25	C	-0.246515	-1.060469	0.000052
C26	C	-0.276947	-0.984016	0.000055
C27	C	-0.362549	-0.982517	0.000048
C28	C	-0.430778	-0.981329	0.000042
C29	C	0.241712	-0.975588	0.000038
C30	C	0.325731	-0.977065	0.000032
N31	N	0.103333	-0.981919	0.217044
C32	C	0.172980	-0.515238	0.000040
C33	C	0.171592	-0.428520	0.000046
C34	C	0.033687	-0.448621	0.000053
C35	C	0.035076	-0.535337	0.000053
C36	C	0.104724	-0.568643	0.000042
C37	C	0.101948	-0.395209	0.000047
C38	C	0.100444	-0.301185	0.000054
C39	C	0.106229	-0.662673	0.000037
N40	N	0.103333	-0.981939	-0.216946
C41	C	0.051883	-1.038559	0.452057
C42	C	0.051881	-1.038562	0.548038
C43	C	0.154786	-0.925293	0.548034
C44	C	0.154783	-0.925287	0.452054
C45	C	0.103333	-0.981925	0.404068
C46	C	0.103333	-0.981933	0.596029
C47	C	0.103332	-0.981935	0.700096
C48	C	0.103333	-0.981922	0.299995
H49	H	-0.540114	-1.117147	0.000048
H50	H	0.196677	-0.879181	0.587113
N51	N	-0.003605	-1.099654	0.599795
H52	H	0.004200	-1.091065	0.667880
H53	H	-0.057301	-1.090159	0.583025
N54	N	0.210272	-0.864194	0.400286
H55	H	0.242869	-0.828317	0.445247
H56	H	0.243739	-0.895950	0.360452
H57	H	-0.683327	-1.114640	0.000030
H58	H	-0.142784	-1.124103	0.000039
N59	N	-0.298837	-1.141431	0.000053
H60	H	-0.267577	-1.190072	0.000060
H61	H	-0.331988	-1.144150	0.056580
N62	N	-0.261250	-0.826487	0.000058
H63	H	-0.243555	-0.793609	-0.056467
H64	H	-0.318616	-0.837056	0.000100
H65	H	-0.109998	-0.849207	0.000047
H66	H	0.229692	-0.542353	0.000037
H67	H	-0.507314	-0.842258	0.000043
H68	H	0.009988	-1.084676	0.412989
N69	N	0.245211	-0.370918	0.000094
H70	H	0.289540	-0.405179	0.000104
H71	H	0.247668	-0.334477	-0.056415
H72	H	-0.023018	-0.421492	0.000067
H73	H	-0.650539	-0.839744	0.000043
H74	H	-0.020510	-0.578822	0.000058
