data_functionalizedCrystal
_audit_creation_method	'MofGen! by Chris Wilmer'
_symmetry_space_group_name_H-M	'P1'
_symmetry_Int_Tables_number	1
_symmetry_cell_setting	triclinic
loop_
_symmetry_equiv_pos_as_xyz
  x,y,z
_cell_length_a	16.625547
_cell_length_b	25.639240
_cell_length_c	16.625539
_cell_angle_alpha	89.975626
_cell_angle_beta	89.978691
_cell_angle_gamma	90.031996
loop_
_atom_site_label
_atom_site_type_symbol
_atom_site_fract_x
_atom_site_fract_y
_atom_site_fract_z
Zn1	Zn	1.232599	-0.208160	-0.456012
Zn2	Zn	1.565932	0.125173	-0.122679
Zn3	Zn	1.899265	0.458506	0.210654
Zn4	Zn	1.232488	-0.295595	-0.321184
Zn5	Zn	1.565821	0.037738	0.012149
Zn6	Zn	1.899154	0.371071	0.345482
Zn7	Zn	1.097769	-0.208176	-0.321183
Zn8	Zn	1.431102	0.125158	0.012150
Zn9	Zn	1.764436	0.458491	0.345484
Zn10	Zn	1.097708	-0.295566	-0.455964
Zn11	Zn	1.431042	0.037767	-0.122631
Zn12	Zn	1.764375	0.371100	0.210702
O13	O	1.165141	-0.251874	-0.388586
O14	O	1.498474	0.081459	-0.055253
O15	O	1.831808	0.414792	0.278081
O16	O	1.345416	-0.219764	-0.438148
O17	O	1.678750	0.113569	-0.104815
O18	O	2.012083	0.446902	0.228519
O19	O	1.214596	-0.284017	-0.208352
O20	O	1.547929	0.049316	0.124982
O21	O	1.881262	0.382649	0.458315
O22	O	1.115726	-0.135008	-0.339088
O23	O	1.449059	0.198325	-0.005754
O24	O	1.782393	0.531658	0.327579
O25	O	1.345335	-0.284003	-0.339090
O26	O	1.678668	0.049331	-0.005757
O27	O	2.012001	0.382664	0.327576
O28	O	1.214785	-0.134997	-0.438146
O29	O	1.548118	0.198336	-0.104813
O30	O	1.881452	0.531670	0.228520
O31	O	1.115618	-0.219791	-0.208351
O32	O	1.448952	0.113543	0.124983
O33	O	1.782285	0.446876	0.458316
O34	O	0.984928	-0.219763	-0.339041
O35	O	1.318262	0.113571	-0.005708
O36	O	1.651595	0.446904	0.327625
O37	O	1.115623	-0.283953	-0.568803
O38	O	1.448957	0.049380	-0.235470
O39	O	1.782290	0.382713	0.097864
O40	O	0.984884	-0.283968	-0.438065
O41	O	1.318217	0.049365	-0.104731
O42	O	1.651551	0.382698	0.228602
O43	O	1.214727	-0.219736	-0.568838
O44	O	1.548060	0.113597	-0.235505
O45	O	1.881393	0.446930	0.097828
O46	O	1.214537	-0.368757	-0.339044
O47	O	1.547871	-0.035423	-0.005711
O48	O	1.881204	0.297910	0.327623
O49	O	1.115515	-0.368735	-0.438066
O50	O	1.448849	-0.035402	-0.104733
O51	O	1.782182	0.297931	0.228601
C52	C	0.955650	-0.251864	-0.388548
C53	C	1.288983	0.081469	-0.055215
C54	C	1.622317	0.414802	0.278119
C55	C	0.866029	-0.251873	-0.388551
C56	C	1.199362	0.081461	-0.055217
C57	C	1.532696	0.414794	0.278116
C58	C	0.793247	-0.251874	-0.388561
C59	C	1.126580	0.081460	-0.055227
C60	C	1.459913	0.414793	0.278106
C61	C	0.701938	-0.251876	-0.388581
C62	C	1.035271	0.081457	-0.055248
C63	C	1.368605	0.414790	0.278086
C64	C	0.629162	-0.251881	-0.388601
C65	C	0.962495	0.081452	-0.055268
C66	C	1.295828	0.414786	0.278065
C67	C	0.537847	-0.251885	-0.388621
C68	C	0.871181	0.081449	-0.055287
C69	C	1.204514	0.414782	0.278046
C70	C	1.165030	-0.387717	-0.388567
C71	C	1.498363	-0.054384	-0.055234
C72	C	1.831696	0.278950	0.278099
C73	C	1.165056	-0.445831	-0.388586
C74	C	1.498389	-0.112498	-0.055253
C75	C	1.831722	0.220836	0.278080
C76	C	1.216716	-0.696967	-0.440219
C77	C	1.550050	-0.363634	-0.106885
C78	C	1.883383	-0.030301	0.226448
C79	C	1.216692	-0.642363	-0.440212
C80	C	1.550025	-0.309030	-0.106879
C81	C	1.883359	0.024304	0.226454
O82	O	1.260523	-0.614078	-0.484085
O83	O	1.593856	-0.280744	-0.150752
O84	O	1.927190	0.052589	0.182582
N85	N	1.165144	-0.615105	-0.388597
N86	N	1.498477	-0.281772	-0.055263
N87	N	1.831811	0.051562	0.278070
C88	C	1.113622	-0.642454	-0.336978
C89	C	1.446956	-0.309121	-0.003644
C90	C	1.780289	0.024213	0.329689
O91	O	1.069775	-0.614255	-0.293073
O92	O	1.403108	-0.280921	0.040260
O93	O	1.736442	0.052412	0.373593
C94	C	1.113651	-0.697057	-0.336980
C95	C	1.446985	-0.363724	-0.003647
C96	C	1.780318	-0.030391	0.329686
C97	C	1.165197	-0.724313	-0.388605
C98	C	1.498530	-0.390979	-0.055272
C99	C	1.831864	-0.057646	0.278061
C100	C	1.268259	-0.724223	-0.491839
C101	C	1.601592	-0.390889	-0.158505
C102	C	1.934925	-0.057556	0.174828
C103	C	1.268282	-0.778823	-0.491846
C104	C	1.601615	-0.445490	-0.158512
C105	C	1.934948	-0.112157	0.174821
C106	C	1.216762	-0.806168	-0.440232
C107	C	1.550096	-0.472835	-0.106899
C108	C	1.883429	-0.139502	0.226434
C109	C	1.165220	-0.778913	-0.388612
C110	C	1.498553	-0.445580	-0.055279
C111	C	1.831887	-0.112246	0.278054
C112	C	1.062134	-0.724405	-0.285358
C113	C	1.395468	-0.391072	0.047975
C114	C	1.728801	-0.057739	0.381309
C115	C	1.062168	-0.779012	-0.285365
C116	C	1.395502	-0.445679	0.047969
C117	C	1.728835	-0.112346	0.381302
C118	C	1.113714	-0.806268	-0.336990
C119	C	1.447047	-0.472934	-0.003656
C120	C	1.780381	-0.139601	0.329677
C121	C	1.113724	-0.860859	-0.337006
C122	C	1.447057	-0.527525	-0.003673
C123	C	1.780390	-0.194192	0.329661
N124	N	1.165272	-0.888117	-0.388622
N125	N	1.498605	-0.554784	-0.055289
N126	N	1.831939	-0.221450	0.278045
C127	C	1.216791	-0.860772	-0.440235
C128	C	1.550125	-0.527438	-0.106902
C129	C	1.883458	-0.194105	0.226432
C130	C	1.113567	-0.527783	-0.336975
C131	C	1.446900	-0.194450	-0.003642
C132	C	1.780233	0.138883	0.329692
C133	C	1.113533	-0.473181	-0.336976
C134	C	1.446866	-0.139848	-0.003643
C135	C	1.780200	0.193486	0.329691
C136	C	1.216604	-0.473094	-0.440210
C137	C	1.549937	-0.139761	-0.106877
C138	C	1.883271	0.193573	0.226457
C139	C	1.216633	-0.527697	-0.440212
C140	C	1.549966	-0.194364	-0.106879
C141	C	1.883300	0.138970	0.226454
C142	C	1.165115	-0.555041	-0.388591
C143	C	1.498448	-0.221708	-0.055258
C144	C	1.831782	0.111625	0.278076
C145	C	1.216835	-0.975437	-0.440246
C146	C	1.550168	-0.642103	-0.106913
C147	C	1.883502	-0.308770	0.226420
C148	C	1.216851	-1.030042	-0.440251
C149	C	1.550184	-0.696709	-0.106918
C150	C	1.883518	-0.363375	0.226416
C151	C	1.113783	-1.030125	-0.337014
C152	C	1.447117	-0.696791	-0.003681
C153	C	1.780450	-0.363458	0.329652
C154	C	1.113764	-0.975524	-0.337012
C155	C	1.447097	-0.642191	-0.003679
C156	C	1.780431	-0.308857	0.329654
C157	C	1.165296	-0.948181	-0.388631
C158	C	1.498630	-0.614848	-0.055298
C159	C	1.831963	-0.281515	0.278036
O160	O	1.069917	-0.889179	-0.293154
O161	O	1.403251	-0.555845	0.040180
O162	O	1.736584	-0.222512	0.373513
O163	O	1.260639	-0.888977	-0.484125
O164	O	1.593972	-0.555644	-0.150791
O165	O	1.927305	-0.222311	0.182542
C166	C	1.375450	-0.251885	-0.388625
C167	C	1.708783	0.081448	-0.055291
C168	C	2.042117	0.414782	0.278042
C169	C	1.465071	-0.251889	-0.388641
C170	C	1.798404	0.081444	-0.055308
C171	C	2.131738	0.414777	0.278025
C172	C	1.165181	-0.251840	-0.598895
C173	C	1.498514	0.081493	-0.265562
C174	C	1.831847	0.414827	0.067772
C175	C	1.165197	-0.251825	-0.688516
C176	C	1.498531	0.081508	-0.355183
C177	C	1.831864	0.414841	-0.021850
C178	C	1.165275	-0.115501	-0.388622
C179	C	1.498608	0.217832	-0.055289
C180	C	1.831941	0.551165	0.278044
C181	C	1.165332	-0.057387	-0.388638
C182	C	1.498665	0.275946	-0.055304
C183	C	1.831998	0.609279	0.278029
C184	C	1.165211	-0.251814	-0.761299
C185	C	1.498544	0.081520	-0.427965
C186	C	1.831877	0.414853	-0.094632
C187	C	1.165229	-0.251794	-0.852607
C188	C	1.498563	0.081539	-0.519274
C189	C	1.831896	0.414872	-0.185941
C190	C	1.165248	-0.251776	-0.925384
C191	C	1.498582	0.081558	-0.592050
C192	C	1.831915	0.414891	-0.258717
C193	C	1.165268	-0.251757	-1.016698
C194	C	1.498602	0.081576	-0.683365
C195	C	1.831935	0.414910	-0.350031
C196	C	1.165148	-0.251871	-0.179095
C197	C	1.498481	0.081462	0.154238
C198	C	1.831815	0.414796	0.487571
C199	C	1.165287	-0.251738	-0.089475
C200	C	1.498621	0.081595	0.243859
C201	C	1.831954	0.414928	0.577192
H202	H	1.258798	-0.953181	-0.482278
H203	H	1.592132	-0.619847	-0.148945
H204	H	1.925465	-0.286514	0.184389
O205	O	1.057986	-0.557270	-0.281298
O206	O	1.391320	-0.223936	0.052036
O207	O	1.724653	0.109397	0.385369
H208	H	1.094108	-0.582134	-0.240301
H209	H	1.427441	-0.248800	0.093032
H210	H	1.760775	0.084533	0.426365
O211	O	1.323881	-0.808217	-0.547523
O212	O	1.657215	-0.474884	-0.214190
O213	O	1.990548	-0.141550	0.119143
H214	H	1.387165	-0.797704	-0.533747
H215	H	1.720498	-0.464371	-0.200413
H216	H	2.053831	-0.131037	0.132920
H217	H	1.020162	-0.702222	-0.243320
H218	H	1.353495	-0.368888	0.090014
H219	H	1.686828	-0.035555	0.423347
O220	O	1.006597	-0.808506	-0.229690
O221	O	1.339930	-0.475173	0.103643
O222	O	1.673264	-0.141840	0.436976
H223	H	0.970749	-0.780377	-0.193801
H224	H	1.304082	-0.447043	0.139532
H225	H	1.637416	-0.113710	0.472866
H226	H	1.258555	-0.450819	-0.482235
H227	H	1.591888	-0.117486	-0.148902
H228	H	1.925222	0.215847	0.184432
O229	O	1.058169	-0.946122	-0.281335
O230	O	1.391502	-0.612788	0.051998
O231	O	1.724835	-0.279455	0.385331
H232	H	1.022351	-0.974312	-0.245445
H233	H	1.355684	-0.640979	0.087889
H234	H	1.689018	-0.307646	0.421222
O235	O	1.057927	-0.443790	-0.281300
O236	O	1.391261	-0.110457	0.052033
O237	O	1.724594	0.222877	0.385366
H238	H	1.066555	-0.401226	-0.289965
H239	H	1.399888	-0.067892	0.043369
H240	H	1.733221	0.265441	0.376702
O241	O	1.058233	-1.059628	-0.281338
O242	O	1.391566	-0.726295	0.051996
O243	O	1.724900	-0.392962	0.385329
H244	H	1.017204	-1.084525	-0.317379
H245	H	1.350538	-0.751192	0.015954
H246	H	1.683871	-0.417859	0.349287
O247	O	1.272447	-1.059441	-0.495935
O248	O	1.605780	-0.726108	-0.162601
O249	O	1.939114	-0.392774	0.170732
H250	H	1.335734	-1.048935	-0.482163
H251	H	1.669067	-0.715601	-0.148829
H252	H	2.002400	-0.382268	0.184504
O253	O	1.323843	-0.694737	-0.547505
O254	O	1.657177	-0.361404	-0.214171
O255	O	1.990510	-0.028071	0.119162
H256	H	1.309979	-0.705208	-0.610773
H257	H	1.643313	-0.371875	-0.277439
H258	H	1.976646	-0.038542	0.055894
O259	O	1.272233	-0.557094	-0.495886
O260	O	1.605567	-0.223760	-0.162553
O261	O	1.938900	0.109573	0.170780
H262	H	1.308053	-0.528900	-0.531770
H263	H	1.641386	-0.195566	-0.198436
H264	H	1.974720	0.137767	0.134897
