data_functionalizedCrystal
_audit_creation_method	'MofGen! by Chris Wilmer'
_symmetry_space_group_name_H-M	'P1'
_symmetry_Int_Tables_number	1
_symmetry_cell_setting	triclinic
loop_
_symmetry_equiv_pos_as_xyz
  x,y,z
_cell_length_a	18.101398
_cell_length_b	29.839131
_cell_length_c	18.101389
_cell_angle_alpha	89.974766
_cell_angle_beta	89.977624
_cell_angle_gamma	90.036686
loop_
_atom_site_label
_atom_site_type_symbol
_atom_site_fract_x
_atom_site_fract_y
_atom_site_fract_z
Zn1	Zn	1.132054	-0.178940	-0.418824
Zn2	Zn	1.632054	0.321060	0.081176
Zn3	Zn	1.131931	-0.254062	-0.294976
Zn4	Zn	1.631931	0.245938	0.205024
Zn5	Zn	1.008217	-0.178940	-0.294985
Zn6	Zn	1.508217	0.321060	0.205015
Zn7	Zn	1.008141	-0.254037	-0.418765
Zn8	Zn	1.508141	0.245963	0.081235
O9	O	1.070086	-0.216495	-0.356887
O10	O	1.570086	0.283505	0.143113
O11	O	1.235670	-0.188915	-0.402416
O12	O	1.735670	0.311085	0.097584
O13	O	1.115501	-0.244107	-0.191344
O14	O	1.615501	0.255893	0.308656
O15	O	1.024727	-0.116073	-0.311441
O16	O	1.524727	0.383927	0.188559
O17	O	1.235581	-0.244106	-0.311426
O18	O	1.735581	0.255894	0.188574
O19	O	1.115709	-0.116073	-0.402425
O20	O	1.615709	0.383927	0.097575
O21	O	1.024608	-0.188916	-0.191351
O22	O	1.524608	0.311084	0.308649
O23	O	0.904574	-0.188892	-0.311384
O24	O	1.404574	0.311108	0.188616
O25	O	1.024598	-0.244065	-0.522406
O26	O	1.524598	0.255935	-0.022406
O27	O	0.904518	-0.244065	-0.402324
O28	O	1.404518	0.255935	0.097676
O29	O	1.115636	-0.188891	-0.522449
O30	O	1.615636	0.311109	-0.022449
O31	O	1.115428	-0.316925	-0.311369
O32	O	1.615428	0.183075	0.188631
O33	O	1.024479	-0.316908	-0.402315
O34	O	1.524479	0.183092	0.097685
C35	C	0.877675	-0.216476	-0.356849
C36	C	1.377675	0.283524	0.143151
C37	C	0.795361	-0.216479	-0.356850
C38	C	1.295361	0.283521	0.143150
C39	C	0.496270	-0.216507	-0.356912
C40	C	0.996270	0.283493	0.143088
C41	C	0.527606	-0.181620	-0.299974
C42	C	1.027606	0.318380	0.200026
C43	C	0.613224	-0.181714	-0.299731
C44	C	1.113224	0.318286	0.200269
C45	C	0.644653	-0.216493	-0.356881
C46	C	1.144653	0.283507	0.143119
C47	C	0.613521	-0.263816	-0.335553
C48	C	1.113521	0.236184	0.164447
C49	C	0.527876	-0.263622	-0.335157
C50	C	1.027876	0.236378	0.164843
C51	C	0.527886	-0.204483	-0.435313
C52	C	1.027886	0.295517	0.064687
C53	C	0.613537	-0.203429	-0.434885
C54	C	1.113537	0.296571	0.065115
C55	C	0.728512	-0.216488	-0.356865
C56	C	1.228512	0.283512	0.143135
C57	C	0.412411	-0.216516	-0.356926
C58	C	0.912411	0.283484	0.143074
C59	C	1.069952	-0.333217	-0.356851
C60	C	1.569952	0.166783	0.143149
C61	C	1.069963	-0.383152	-0.356860
C62	C	1.569963	0.116848	0.143140
C63	C	1.117529	-0.692792	-0.309601
C64	C	1.617529	-0.192792	0.190399
C65	C	1.117620	-0.880465	-0.309629
C66	C	1.617620	-0.380465	0.190371
O67	O	1.157956	-0.904727	-0.269420
O68	O	1.657956	-0.404727	0.230580
N69	N	1.070239	-0.903937	-0.356943
N70	N	1.570239	-0.403937	0.143057
C71	C	1.022836	-0.880487	-0.404257
C72	C	1.522836	-0.380487	0.095743
O73	O	0.982543	-0.904758	-0.444506
O74	O	1.482543	-0.404758	0.055494
C75	C	1.022749	-0.692815	-0.404231
C76	C	1.522749	-0.192815	0.095769
C77	C	1.070127	-0.669346	-0.356909
C78	C	1.570127	-0.169346	0.143091
C79	C	1.164904	-0.669322	-0.262283
C80	C	1.664904	-0.169322	0.237717
C81	C	1.164878	-0.622407	-0.262273
C82	C	1.664878	-0.122407	0.237727
C83	C	1.117476	-0.598961	-0.309582
C84	C	1.617476	-0.098961	0.190418
C85	C	1.070101	-0.622430	-0.356899
C86	C	1.570101	-0.122430	0.143101
C87	C	0.975349	-0.669367	-0.451548
C88	C	1.475349	-0.169367	0.048452
C89	C	0.975333	-0.622446	-0.451539
C90	C	1.475333	-0.122446	0.048461
C91	C	1.022712	-0.598976	-0.404217
C92	C	1.522712	-0.098976	0.095783
C93	C	1.022673	-0.552069	-0.404198
C94	C	1.522673	-0.052069	0.095802
N95	N	1.070054	-0.528597	-0.356884
N96	N	1.570054	-0.028597	0.143116
C97	C	1.117456	-0.552043	-0.309576
C98	C	1.617456	-0.052043	0.190424
C99	C	1.022884	-0.979018	-0.404266
C100	C	1.522884	-0.479018	0.095734
C101	C	1.022905	-1.025936	-0.404272
C102	C	1.522905	-0.525936	0.095728
C103	C	1.117690	-1.025910	-0.309645
C104	C	1.617690	-0.525910	0.190355
C105	C	1.117665	-0.978991	-0.309636
C106	C	1.617665	-0.478991	0.190364
C107	C	1.070265	-0.955546	-0.356952
C108	C	1.570265	-0.455546	0.143048
C109	C	1.117397	-0.453517	-0.309559
C110	C	1.617397	0.046483	0.190441
C111	C	1.117364	-0.406598	-0.309551
C112	C	1.617364	0.093402	0.190449
C113	C	1.022582	-0.406628	-0.404181
C114	C	1.522582	0.093372	0.095819
C115	C	1.022611	-0.453543	-0.404186
C116	C	1.522611	0.046457	0.095814
C117	C	1.070025	-0.476987	-0.356872
C118	C	1.570025	0.023013	0.143128
O119	O	0.982364	-0.527778	-0.444393
O120	O	1.482364	-0.027778	0.055607
O121	O	1.157754	-0.527764	-0.269344
O122	O	1.657754	-0.027764	0.230656
C123	C	1.117555	-0.739707	-0.309610
C124	C	1.617555	-0.239707	0.190390
C125	C	1.070180	-0.763177	-0.356928
C126	C	1.570180	-0.263177	0.143072
C127	C	1.022778	-0.739731	-0.404236
C128	C	1.522778	-0.239731	0.095764
C129	C	1.070200	-0.810095	-0.356934
C130	C	1.570200	-0.310095	0.143066
C131	C	1.117602	-0.833540	-0.309625
C132	C	1.617602	-0.333540	0.190375
C133	C	1.164982	-0.810069	-0.262311
C134	C	1.664982	-0.310069	0.237689
C135	C	1.164956	-0.763153	-0.262302
C136	C	1.664956	-0.263153	0.237698
C137	C	0.975397	-0.763203	-0.451550
C138	C	1.475397	-0.263203	0.048450
C139	C	0.975427	-0.810118	-0.451556
C140	C	1.475427	-0.310118	0.048444
C141	C	1.022828	-0.833564	-0.404247
C142	C	1.522828	-0.333564	0.095753
C143	C	1.263248	-0.216513	-0.356927
C144	C	1.763248	0.283487	0.143073
C145	C	1.345562	-0.216521	-0.356943
C146	C	1.845562	0.283479	0.143057
C147	C	1.070122	-0.216475	-0.550049
C148	C	1.570122	0.283525	-0.050049
C149	C	1.070137	-0.216467	-0.632364
C150	C	1.570137	0.283533	-0.132364
C151	C	1.070240	-0.099316	-0.356941
C152	C	1.570240	0.400684	0.143059
C153	C	1.070306	-0.049382	-0.356963
C154	C	1.570306	0.450618	0.143037
C155	C	1.070165	-0.216432	-0.783072
C156	C	1.570165	0.283568	-0.283072
C157	C	1.012896	-0.251139	-0.814399
C158	C	1.512896	0.248861	-0.314399
C159	C	1.012687	-0.251017	-0.900017
C160	C	1.512687	0.248983	-0.400017
C161	C	1.070193	-0.216398	-0.931455
C162	C	1.570193	0.283602	-0.431455
C163	C	1.049320	-0.169022	-0.900375
C164	C	1.549320	0.330978	-0.400375
C165	C	1.048888	-0.169243	-0.814729
C166	C	1.548888	0.330757	-0.314729
C167	C	1.148458	-0.228680	-0.814646
C168	C	1.648458	0.271320	-0.314646
C169	C	1.148054	-0.229705	-0.900296
C170	C	1.648054	0.270295	-0.400296
C171	C	1.070209	-0.216376	-1.015314
C172	C	1.570209	0.283624	-0.515314
C173	C	1.070147	-0.216451	-0.699213
C174	C	1.570147	0.283549	-0.199213
C175	C	1.070092	-0.216482	-0.164477
C176	C	1.570092	0.283518	0.335523
C177	C	1.070220	-0.216363	-0.082163
C178	C	1.570220	0.283637	0.417837
H179	H	0.633677	-0.189663	-0.241637
H180	H	1.133677	0.310337	0.258363
O181	O	1.168828	-1.051206	-0.258633
O182	O	1.668828	-0.551206	0.241367
H183	H	1.135724	-1.072619	-0.220927
H184	H	1.635724	-0.572619	0.279073
O185	O	0.971499	-0.478854	-0.455220
O186	O	1.471499	0.021146	0.044780
H187	H	0.933849	-0.500261	-0.422039
H188	H	1.433849	-0.000261	0.077961
H189	H	0.507145	-0.290496	-0.374819
H190	H	1.007145	0.209504	0.125181
H191	H	1.025761	-0.286384	-0.793800
H192	H	1.525761	0.213616	-0.293800
H193	H	1.163797	-0.264572	-0.920607
H194	H	1.663797	0.235428	-0.420607
O195	O	0.501039	-0.238136	-0.491516
O196	O	1.001039	0.261864	0.008484
H197	H	0.465352	-0.263306	-0.463794
H198	H	0.965352	0.236694	0.036206
O199	O	0.935853	-0.240245	-0.927151
O200	O	1.435853	0.259755	-0.427151
H201	H	0.914970	-0.268472	-0.961182
H202	H	1.414970	0.231528	-0.461182
H203	H	0.633876	-0.290506	-0.375726
H204	H	1.133876	0.209494	0.124274
H205	H	0.507863	-0.273820	-0.277842
H206	H	1.007863	0.226180	0.222158
O207	O	1.216039	-0.694608	-0.211259
O208	O	1.716039	-0.194608	0.288741
H209	H	1.182931	-0.716017	-0.173550
H210	H	1.682931	-0.216017	0.326450
H211	H	1.155945	-0.387490	-0.271013
H212	H	1.655945	0.112510	0.228987
H213	H	0.983986	-0.387531	-0.442696
H214	H	1.483986	0.112469	0.057304
O215	O	0.641872	-0.277562	-0.260449
O216	O	1.141872	0.222438	0.239551
H217	H	0.678126	-0.250768	-0.238193
H218	H	1.178126	0.249232	0.261807
O219	O	0.500375	-0.134988	-0.317455
O220	O	1.000375	0.365012	0.182545
H221	H	0.468633	-0.121828	-0.269694
H222	H	0.968633	0.378172	0.230306
O223	O	1.168773	-0.953678	-0.258605
O224	O	1.668773	-0.453678	0.241395
H225	H	1.201738	-0.977869	-0.225715
H226	H	1.701738	-0.477869	0.274285
O227	O	0.971739	-0.953733	-0.455285
O228	O	1.471739	-0.453733	0.044715
H229	H	0.938790	-0.977941	-0.488171
H230	H	1.438790	-0.477941	0.011829
H231	H	0.984317	-1.045041	-0.442799
H232	H	1.484317	-0.545041	0.057201
O233	O	1.204977	-0.195200	-0.787808
O234	O	1.704977	0.304800	-0.287808
H235	H	1.260096	-0.204071	-0.810336
H236	H	1.760096	0.295929	-0.310336
O237	O	0.641111	-0.135230	-0.317434
O238	O	1.141111	0.364770	0.182566
H239	H	0.702429	-0.135250	-0.317280
H240	H	1.202429	0.364750	0.182720
O241	O	0.936481	-0.240517	-0.785895
O242	O	1.436481	0.259483	-0.285895
H243	H	0.939113	-0.210625	-0.749516
H244	H	1.439113	0.289375	-0.249516
H245	H	0.936765	-0.688468	-0.490080
H246	H	1.436765	-0.188468	0.009920
H247	H	0.992736	-0.158472	-0.921820
H248	H	1.492736	0.341528	-0.421820
O249	O	1.216125	-0.835360	-0.211299
O250	O	1.716125	-0.335360	0.288701
H251	H	1.208186	-0.871927	-0.219270
H252	H	1.708186	-0.371927	0.280730
O253	O	0.924323	-0.835430	-0.502600
O254	O	1.424323	-0.335430	-0.002600
H255	H	0.891366	-0.811240	-0.535498
H256	H	1.391366	-0.311240	-0.035498
H257	H	0.936798	-0.744117	-0.490076
H258	H	1.436798	-0.244117	0.009924
O259	O	0.499086	-0.192034	-0.223462
O260	O	0.999086	0.307966	0.276538
H261	H	0.462688	-0.221949	-0.225811
H262	H	0.962688	0.278051	0.274189
O263	O	0.499334	-0.159568	-0.461003
O264	O	0.999334	0.340432	0.038997
H265	H	0.462286	-0.145313	-0.418172
H266	H	0.962286	0.354687	0.081828
O267	O	1.029928	-0.297545	-0.927862
O268	O	1.529928	0.202455	-0.427862
H269	H	1.038487	-0.320336	-0.880154
H270	H	1.538487	0.179664	-0.380154
H271	H	0.633891	-0.168605	-0.450967
H272	H	1.133891	0.331395	0.049033
H273	H	0.991668	-0.158880	-0.794748
H274	H	1.491668	0.341120	-0.294748
O275	O	0.924198	-0.597158	-0.502564
O276	O	1.424198	-0.097158	-0.002564
H277	H	0.891254	-0.621363	-0.535461
H278	H	1.391254	-0.121363	-0.035461
O279	O	1.216065	-0.737842	-0.211269
O280	O	1.716065	-0.237842	0.288731
H281	H	1.249031	-0.762034	-0.178384
H282	H	1.749031	-0.262034	0.321616
O283	O	0.641849	-0.234644	-0.494094
O284	O	1.141849	0.265356	0.005906
H285	H	0.678704	-0.260071	-0.468736
H286	H	1.178704	0.239929	0.031264
O287	O	1.101761	-0.133811	-0.787277
O288	O	1.601761	0.366189	-0.287277
H289	H	1.101853	-0.133705	-0.725959
H290	H	1.601853	0.366295	-0.225959
O291	O	1.102891	-0.133817	-0.927344
O292	O	1.602891	0.366183	-0.427344
H293	H	1.072471	-0.107980	-0.959273
H294	H	1.572471	0.392020	-0.459273
H295	H	1.167506	-0.262650	-0.793043
H296	H	1.667506	0.237350	-0.293043
H297	H	1.203459	-0.603301	-0.223741
H298	H	1.703459	-0.103301	0.276259
O299	O	1.168527	-0.478800	-0.258524
O300	O	1.668527	0.021200	0.241476
H301	H	1.201456	-0.454592	-0.225618
H302	H	1.701456	0.045408	0.274382
O303	O	1.207583	-0.198662	-0.928622
O304	O	1.707583	0.301338	-0.428622
H305	H	1.182491	-0.173149	-0.965512
H306	H	1.682491	0.326851	-0.465512
