data_functionalizedCrystal
_audit_creation_method	'MofGen! by Chris Wilmer'
_symmetry_space_group_name_H-M	'P1'
_symmetry_Int_Tables_number	1
_symmetry_cell_setting	triclinic
loop_
_symmetry_equiv_pos_as_xyz
  x,y,z
_cell_length_a	13.032831
_cell_length_b	16.959454
_cell_length_c	13.032268
_cell_angle_alpha	82.849649
_cell_angle_beta	89.113023
_cell_angle_gamma	82.825094
loop_
_atom_site_label
_atom_site_type_symbol
_atom_site_fract_x
_atom_site_fract_y
_atom_site_fract_z
Zn1	Zn	1.498450	-0.533808	0.780847
Zn2	Zn	1.520186	-0.651576	0.608869
Zn3	Zn	1.348310	-0.500789	0.587087
Zn4	Zn	1.326434	-0.647302	0.758994
O5	O	1.423345	-0.583369	0.683949
O6	O	1.645253	-0.565038	0.776295
O7	O	1.515638	-0.619543	0.462063
O8	O	1.368285	-0.394566	0.612819
O9	O	1.661222	-0.651561	0.649944
O10	O	1.478592	-0.418826	0.755173
O11	O	1.389361	-0.508760	0.446059
O12	O	1.201488	-0.504616	0.591629
O13	O	1.331000	-0.644277	0.905810
O14	O	1.185416	-0.612259	0.717929
O15	O	1.457380	-0.560894	0.921865
O16	O	1.494425	-0.761611	0.628754
O17	O	1.352077	-0.758471	0.739051
C18	C	1.156135	-0.554392	0.650045
C19	C	1.041819	-0.542016	0.635565
C20	C	1.423261	-0.788724	0.683921
C21	C	1.423315	-0.876589	0.683955
C22	C	0.982940	-0.589828	0.691506
C23	C	0.864788	-0.577038	0.676542
C24	C	1.349320	-1.246472	0.741386
C25	C	1.497643	-1.249702	0.626654
C26	C	1.497608	-1.167152	0.626640
C27	C	1.423427	-1.124257	0.683998
C28	C	1.349281	-1.163913	0.741371
C29	C	1.571746	-1.127488	0.569260
C30	C	1.571713	-1.044932	0.569243
C31	C	1.497536	-1.002037	0.626608
C32	C	1.423388	-1.041698	0.683984
C33	C	1.349208	-0.998804	0.741342
C34	C	1.275063	-1.038465	0.798724
C35	C	1.275104	-1.121018	0.798736
C36	C	1.497495	-0.919484	0.626597
C37	C	1.349169	-0.916245	0.741327
C38	C	1.691598	-0.612460	0.717986
C39	C	1.805911	-0.624856	0.732491
C40	C	1.389325	-0.605792	0.952197
C41	C	1.374828	-0.615348	1.066508
C42	C	1.423454	-0.377216	0.684004
C43	C	1.423501	-0.289366	0.684027
C44	C	1.457291	-0.560982	0.416753
C45	C	1.471987	-0.551225	0.302467
C46	C	1.430895	-0.578351	1.125415
C47	C	1.415913	-0.588227	1.243562
H48	H	1.020003	-0.640227	0.750482
H49	H	1.558032	-1.284630	0.579948
H50	H	1.557858	-0.887195	0.579871
O51	O	0.820425	-0.516971	0.606184
C52	C	0.712332	-0.517570	0.606910
H53	H	0.693501	-0.579845	0.638641
H54	H	0.681186	-0.501296	0.524739
H55	H	0.674902	-0.472054	0.657935
O56	O	1.643710	-1.169054	0.513342
C57	C	1.634267	-1.137854	0.408001
H58	H	1.552745	-1.105888	0.392367
H59	H	1.649649	-1.188835	0.358289
H60	H	1.692770	-1.093610	0.388167
H61	H	1.214739	-1.153317	0.845452
H62	H	1.489984	-0.539364	1.088380
O63	O	1.643606	-1.006351	0.513382
C64	C	1.593520	-0.946729	0.439496
H65	H	1.513348	-0.962332	0.422801
H66	H	1.640817	-0.943212	0.365110
H67	H	1.585896	-0.886431	0.470830
O68	O	0.997776	-0.481826	0.565196
C69	C	1.075464	-0.439867	0.516067
H70	H	1.146742	-0.448936	0.567830
H71	H	1.045731	-0.373328	0.501321
H72	H	1.096739	-0.463408	0.439324
O73	O	1.542613	-0.504774	1.258423
C74	C	1.641823	-0.535339	1.297567
H75	H	1.634130	-0.572426	1.375859
H76	H	1.687517	-0.483590	1.306987
H77	H	1.684045	-0.574715	1.241508
H78	H	0.842968	-0.675257	0.791474
O79	O	1.277076	-0.874477	0.796899
C80	C	1.218083	-0.814695	0.729861
H81	H	1.264289	-0.799745	0.656557
H82	H	1.198926	-0.758646	0.769977
H83	H	1.143334	-0.837349	0.708840
H84	H	1.356810	-0.627208	1.280591
O85	O	1.203140	-0.996782	0.854569
C86	C	1.253197	-0.960859	0.928425
H87	H	1.333389	-0.995010	0.945128
H88	H	1.205905	-0.962490	1.002815
H89	H	1.260774	-0.896029	0.897058
O90	O	1.304473	-0.661965	1.110743
C91	C	1.355176	-0.724507	1.180320
H92	H	1.440259	-0.735477	1.158158
H93	H	1.317784	-0.781410	1.176908
H94	H	1.348483	-0.707207	1.262154
H95	H	1.288956	-1.278768	0.788108
