data_functionalizedCrystal
_audit_creation_method	'MofGen! by Chris Wilmer'
_symmetry_space_group_name_H-M	'P1'
_symmetry_Int_Tables_number	1
_symmetry_cell_setting	triclinic
loop_
_symmetry_equiv_pos_as_xyz
  x,y,z
_cell_length_a	6.817900
_cell_length_b	11.102288
_cell_length_c	19.453114
_cell_angle_alpha	94.505586
_cell_angle_beta	101.709288
_cell_angle_gamma	108.605689
loop_
_atom_site_label
_atom_site_type_symbol
_atom_site_fract_x
_atom_site_fract_y
_atom_site_fract_z
V1	V	-4.033154	-0.177162	-0.218999
O2	O	-3.993679	0.007152	-0.214830
O3	O	-4.010467	-0.349974	-0.217501
O4	O	-3.975753	-0.175035	-0.314512
O5	O	-4.028634	-0.168998	-0.117148
V6	V	-4.514617	-0.155046	-0.206817
O7	O	-4.298932	-0.225677	-0.245722
O8	O	-4.699036	-0.106531	-0.180094
O9	O	-4.314097	0.017766	-0.208315
O10	O	-4.671489	-0.339360	-0.210986
O11	O	-4.636534	-0.163210	-0.308668
O12	O	-4.348812	-0.157173	-0.111304
C13	C	-3.862015	-0.392083	-0.214047
C14	C	-3.924692	-0.533362	-0.213459
C15	C	-4.136892	-0.606230	-0.216687
C16	C	-4.195775	-0.738978	-0.216140
C17	C	-3.830237	-0.725977	-0.209134
C18	C	-3.771359	-0.593233	-0.209686
C19	C	-3.817732	-0.168929	-0.337792
C20	C	-3.852253	-0.168333	-0.415875
C21	C	-4.051203	-0.174432	-0.456132
C22	C	-4.083640	-0.173872	-0.529499
C23	C	-3.917128	-0.167238	-0.562608
C24	C	-3.718147	-0.161131	-0.522341
C25	C	-3.685710	-0.161678	-0.448974
N26	N	-3.867372	-0.234355	-0.681397
N27	N	-3.898200	-0.233839	-0.751092
C28	C	-4.014849	-0.165586	-0.783656
N29	N	-4.099543	-0.097887	-0.743893
N30	N	-4.068721	-0.098410	-0.674192
C31	C	-3.952281	-0.166643	-0.642161
C32	C	-4.248982	-0.171077	-0.903466
C33	C	-4.281408	-0.170509	-0.976833
C34	C	-3.915916	-0.157781	-0.969674
C35	C	-3.883489	-0.158336	-0.896308
C36	C	-4.050033	-0.164990	-0.863208
C37	C	-4.125893	0.059868	-0.211767
C38	C	-4.042453	0.201146	-0.212360
C39	C	-4.170176	-0.163283	-0.088020
C40	C	-4.114892	-0.163873	-0.009937
H41	H	-3.598556	-0.533902	-0.207059
C42	C	-4.247711	-0.447014	-0.160708
C43	C	-4.305432	-0.540418	-0.220839
H44	H	-4.351775	-0.406394	-0.163273
H45	H	-4.112924	-0.384623	-0.158869
H46	H	-4.239323	-0.486687	-0.119203
H47	H	-4.313804	-0.500743	-0.262345
H48	H	-4.440256	-0.602818	-0.222685
C49	C	-3.687014	-0.039964	-1.038569
C50	C	-3.732874	-0.150484	-1.006059
H51	H	-3.574015	-0.035462	-1.061036
H52	H	-3.645763	0.034037	-1.003681
H53	H	-3.810161	-0.043527	-1.073046
H54	H	-3.609731	-0.146917	-0.971578
H55	H	-3.774116	-0.224504	-1.040950
C56	C	-4.438985	-0.878310	-0.158915
C57	C	-4.429027	-0.819069	-0.219679
H58	H	-4.582991	-0.927758	-0.161102
H59	H	-4.384640	-0.814397	-0.117843
H60	H	-4.356103	-0.932970	-0.156598
H61	H	-4.511897	-0.764401	-0.221993
H62	H	-4.483401	-0.882991	-0.260761
C63	C	-3.671568	-0.153685	-0.780679
C64	C	-3.664855	-0.151757	-0.852062
H65	H	-3.536596	-0.149646	-0.753367
H66	H	-3.777624	-0.230850	-0.776565
H67	H	-3.705005	-0.081852	-0.763691
H68	H	-3.631434	-0.223596	-0.869051
H69	H	-3.558767	-0.074583	-0.856179
H70	H	-4.186816	-0.179845	-0.429187
C71	C	-4.458475	-0.294431	-0.567661
C72	C	-4.302351	-0.180611	-0.573771
H73	H	-4.593494	-0.298600	-0.594998
H74	H	-4.463008	-0.295689	-0.519236
H75	H	-4.424818	-0.366198	-0.584617
H76	H	-4.336000	-0.108843	-0.556810
H77	H	-4.297824	-0.179341	-0.622207
C78	C	-3.490635	-0.264802	-0.371809
C79	C	-3.467023	-0.155033	-0.404735
H80	H	-3.355628	-0.260710	-0.344499
H81	H	-3.547131	-0.339317	-0.407004
H82	H	-3.585135	-0.268808	-0.341584
H83	H	-3.372534	-0.151032	-0.434965
H84	H	-3.410496	-0.080498	-0.369536
H85	H	-3.705406	-0.774740	-0.206060
H86	H	-3.582573	-0.155726	-0.549302
H87	H	-4.384590	-0.176491	-0.876515
H88	H	-4.443416	-0.175466	-1.009609
