data_functionalizedCrystal
_audit_creation_method	'MofGen! by Chris Wilmer'
_symmetry_space_group_name_H-M	'P1'
_symmetry_Int_Tables_number	1
_symmetry_cell_setting	triclinic
loop_
_symmetry_equiv_pos_as_xyz
  x,y,z
_cell_length_a	9.730223
_cell_length_b	10.654550
_cell_length_c	10.489746
_cell_angle_alpha	95.486884
_cell_angle_beta	90.001063
_cell_angle_gamma	90.000242
loop_
_atom_site_label
_atom_site_type_symbol
_atom_site_fract_x
_atom_site_fract_y
_atom_site_fract_z
O1	O	-0.114174	-1.667927	0.179159
O2	O	-0.114198	-1.302457	0.196228
O3	O	-0.114190	-1.493504	0.002092
O4	O	-0.114181	-1.476879	0.373295
O5	O	0.114390	-1.493491	0.002092
O6	O	0.114382	-1.302443	0.196228
O7	O	0.114406	-1.667913	0.179159
Zn8	Zn	0.150686	-1.485176	0.187694
Zn9	Zn	-0.150478	-1.485194	0.187693
O10	O	0.114399	-1.476865	0.373295
C11	C	0.000089	-1.255651	0.194975
C12	C	0.000079	-1.116206	0.191225
C13	C	0.000096	-1.492241	-0.045439
C14	C	0.000083	-1.488480	-0.187066
N15	N	0.356223	-1.485173	0.187693
N16	N	-0.356014	-1.485207	0.187684
C17	C	0.428151	-1.562042	0.265779
C18	C	0.572034	-1.562063	0.265772
C19	C	0.572048	-1.408334	0.109589
C20	C	0.428167	-1.408321	0.109590
C21	C	0.000116	-1.714719	0.180412
C22	C	0.000117	-1.854164	0.184162
C23	C	0.000086	-1.036776	0.305529
C24	C	0.000110	-0.905754	0.301998
C25	C	0.000115	-0.933604	0.069849
C26	C	0.000101	-1.064624	0.073381
C27	C	0.000110	-1.478129	0.420826
C28	C	0.000113	-1.481890	0.562453
C29	C	0.000104	-1.605674	0.715251
C30	C	-0.112599	-1.543794	0.637891
C31	C	0.112763	-1.543752	0.637928
C32	C	-0.112713	-1.426648	0.737440
C33	C	0.112750	-1.426622	0.737481
C34	C	0.000019	-1.364656	0.660170
H35	H	0.369577	-1.624620	0.329375
C36	C	0.651200	-1.323789	0.023694
N37	N	0.710817	-1.260102	-0.040998
C38	C	0.000094	-1.152003	-0.052369
N39	N	0.000092	-1.217817	-0.147080
C40	C	-0.241306	-1.610641	0.579114
N41	N	-0.338242	-1.660998	0.534842
H42	H	-0.000002	-1.707580	0.739923
H43	H	0.000140	-0.891589	-0.026096
H44	H	0.369602	-1.345724	0.045997
H45	H	0.630591	-1.624659	0.329356
C46	C	-0.241588	-1.359872	0.795940
N47	N	-0.338659	-1.309583	0.840004
H48	H	-0.000049	-1.262674	0.635745
H49	H	0.000079	-1.078770	0.401485
H50	H	0.000118	-0.841086	0.395077
C51	C	0.241472	-1.359830	0.796270
N52	N	0.338437	-1.309528	0.840547
C53	C	0.241491	-1.610607	0.579208
N54	N	0.338444	-1.660970	0.534985
