data_functionalizedCrystal
_audit_creation_method	'MofGen! by Chris Wilmer'
_symmetry_space_group_name_H-M	'P1'
_symmetry_Int_Tables_number	1
_symmetry_cell_setting	triclinic
loop_
_symmetry_equiv_pos_as_xyz
  x,y,z
_cell_length_a	13.262402
_cell_length_b	15.021413
_cell_length_c	13.185408
_cell_angle_alpha	90.001385
_cell_angle_beta	111.130055
_cell_angle_gamma	74.089020
loop_
_atom_site_label
_atom_site_type_symbol
_atom_site_fract_x
_atom_site_fract_y
_atom_site_fract_z
O1	O	1.351162	-0.253151	-0.146778
O2	O	1.041092	-0.178066	-0.162707
O3	O	1.249251	-0.228479	0.003761
O4	O	1.143003	-0.202738	-0.313246
O5	O	1.249219	-0.376536	0.003737
O6	O	1.041059	-0.326122	-0.162731
O7	O	1.351130	-0.401208	-0.146802
Zn8	Zn	1.196090	-0.387172	-0.154770
Zn9	Zn	1.196132	-0.192101	-0.154739
O10	O	1.142971	-0.350794	-0.313270
C11	C	1.002226	-0.242686	-0.161822
C12	C	0.886472	-0.214656	-0.159138
N13	N	1.196068	-0.520304	-0.154791
C14	C	0.832108	-0.120779	-0.157862
C15	C	0.723346	-0.094444	-0.155350
C16	C	0.668942	-0.161983	-0.154105
C17	C	0.723309	-0.255862	-0.155373
C18	C	0.832078	-0.282200	-0.157894
C19	C	0.668912	-0.323403	-0.154136
C20	C	0.723280	-0.417283	-0.155405
C21	C	0.832038	-0.443616	-0.157924
C22	C	0.886442	-0.376076	-0.159169
C23	C	0.560144	-0.297066	-0.151616
C24	C	0.560114	-0.458486	-0.151647
C25	C	0.668876	-0.484822	-0.154160
C26	C	1.099814	-0.736676	-0.231729
C27	C	1.188558	-0.817500	-0.253304
C28	C	1.196103	-0.701920	-0.154764
C29	C	1.107378	-0.797843	-0.133214
C30	C	1.196127	-0.877350	-0.154740
C31	C	1.284881	-0.781445	-0.176388
C32	C	1.203650	-0.761770	-0.056254
C33	C	1.292474	-0.842587	-0.077787
C34	C	1.196087	-0.600858	-0.154780
C35	C	1.196154	-0.978411	-0.154723
C36	C	1.389995	-0.336585	-0.147687
C37	C	1.505750	-0.364610	-0.150372
C38	C	1.260006	-0.305116	0.044328
C39	C	1.292089	-0.312884	0.165241
N40	N	1.196164	-0.058971	-0.154710
C41	C	1.132216	-0.274156	-0.353837
C42	C	1.100133	-0.266382	-0.474750
C43	C	1.406319	-0.340547	0.234584
C44	C	1.436465	-0.347839	0.348188
C45	C	1.352385	-0.327476	0.392459
C46	C	1.238153	-0.299818	0.323115
C47	C	1.208003	-0.292518	0.209500
C48	C	1.154069	-0.279447	0.367376
C49	C	1.039837	-0.251790	0.298032
C50	C	1.009693	-0.244492	0.184428
C51	C	1.093773	-0.264855	0.140157
C52	C	1.184219	-0.286747	0.480990
C53	C	0.985903	-0.238718	0.455907
C54	C	0.955756	-0.231426	0.342303
H55	H	0.515888	-0.220628	-0.150584
F56	F	1.211917	-0.729650	0.052588
F57	F	1.009293	-0.808186	-0.109400
F58	F	0.834185	-0.201990	0.268490
H59	H	1.182197	-0.842043	-0.336601
H60	H	0.876410	-0.065798	-0.158884
H61	H	1.277228	-0.309264	0.537440
F62	F	1.384473	-0.335224	0.513367
F63	F	0.553188	-0.133952	-0.151429
F64	F	0.896412	-0.217042	0.503017
F65	F	1.399008	-0.902184	0.007304
F66	F	0.665492	0.005466	-0.154001
H67	H	0.975008	-0.397515	-0.161207
F68	F	1.558035	-0.377275	0.421980
F69	F	0.889890	-0.543529	-0.159292
H70	H	0.713157	-0.561260	-0.155193
H71	H	0.515817	-0.513482	-0.150637
F72	F	0.993447	-0.676907	-0.316870
H73	H	1.474765	-0.357135	0.198527
H74	H	0.916677	-0.221960	0.127971
H75	H	1.359913	-0.773640	-0.194704
F76	F	1.061693	-0.257094	0.019246
