data_functionalizedCrystal
_audit_creation_method	'MofGen! by Chris Wilmer'
_symmetry_space_group_name_H-M	'P1'
_symmetry_Int_Tables_number	1
_symmetry_cell_setting	triclinic
loop_
_symmetry_equiv_pos_as_xyz
  x,y,z
_cell_length_a	19.077105
_cell_length_b	19.805404
_cell_length_c	19.805399
_cell_angle_alpha	89.970203
_cell_angle_beta	92.315688
_cell_angle_gamma	92.274441
loop_
_atom_site_label
_atom_site_type_symbol
_atom_site_fract_x
_atom_site_fract_y
_atom_site_fract_z
Zn1	Zn	1.075950	0.311117	0.424210
Zn2	Zn	1.575950	0.811117	0.924210
Zn3	Zn	1.075855	0.424302	0.311013
Zn4	Zn	1.575855	0.924302	0.811013
Zn5	Zn	0.958255	0.306581	0.306495
Zn6	Zn	1.458255	0.806581	0.806495
Zn7	Zn	0.958211	0.419713	0.419622
Zn8	Zn	1.458211	0.919713	0.919622
O9	O	1.017068	0.365429	0.365335
O10	O	1.517068	0.865429	0.865335
O11	O	1.174428	0.329950	0.413005
O12	O	1.674428	0.829950	0.913005
O13	O	1.060234	0.408708	0.215696
O14	O	1.560234	0.908708	0.715696
O15	O	0.973925	0.212469	0.322138
O16	O	1.473925	0.712469	0.822138
O17	O	1.174358	0.413107	0.329840
O18	O	1.674358	0.913107	0.829840
O19	O	1.060395	0.215801	0.408623
O20	O	1.560395	0.715801	0.908623
O21	O	0.973834	0.322219	0.212377
O22	O	1.473834	0.822219	0.712377
O23	O	0.859758	0.317770	0.317690
O24	O	1.359758	0.817770	0.817690
O25	O	0.973850	0.405286	0.514948
O26	O	1.473850	0.905286	1.014948
O27	O	0.859726	0.400887	0.400805
O28	O	1.359726	0.900887	0.900805
O29	O	1.060353	0.325501	0.518319
O30	O	1.560353	0.825501	1.018319
O31	O	1.060192	0.518408	0.325392
O32	O	1.560192	1.018408	0.825392
O33	O	0.973759	0.515036	0.405187
O34	O	1.473759	1.015036	0.905187
C35	C	0.834205	0.358339	0.358260
C36	C	1.334205	0.858339	0.858260
C37	C	0.755975	0.355322	0.355249
C38	C	1.255975	0.855322	0.855249
C39	C	1.016979	0.541281	0.365297
C40	C	1.516979	1.041281	0.865297
C41	C	1.017006	0.616514	0.365306
C42	C	1.517006	1.116514	0.865306
C43	C	1.017107	0.365387	0.541879
C44	C	1.517107	0.865387	1.041879
C45	C	1.017124	0.365370	0.617112
C46	C	1.517124	0.865370	1.117112
C47	C	0.719224	0.397245	0.397040
C48	C	1.219224	0.897245	0.897040
C49	C	0.645719	0.394402	0.394214
C50	C	1.145719	0.894402	0.894214
C51	C	0.608967	0.349638	0.349594
C52	C	1.108967	0.849638	0.849594
C53	C	0.645723	0.307711	0.307802
C54	C	1.145723	0.807711	0.807802
C55	C	0.719226	0.310551	0.310631
C56	C	1.219226	0.810551	0.810631
C57	C	0.389134	0.336492	0.336502
C58	C	0.889134	0.836492	0.836502
C59	C	0.315625	0.333657	0.333674
C60	C	0.815625	0.833657	0.833674
C61	C	0.315627	0.420347	0.420088
C62	C	0.815627	0.920347	0.920088
C63	C	0.389132	0.423186	0.422911
C64	C	0.889132	0.923186	0.922911
C65	C	0.425882	0.381256	0.381121
C66	C	0.925882	0.881256	0.881121
N67	N	0.533833	0.346732	0.346703
N68	N	1.033833	0.846732	0.846703
N69	N	0.501014	0.384159	0.384016
N70	N	1.001014	0.884159	0.884016
C71	C	1.200645	0.372546	0.372438
C72	C	1.700645	0.872546	0.872438
C73	C	1.278874	0.375580	0.375465
C74	C	1.778874	0.875580	0.875465
C75	C	1.017176	0.188890	0.365388
C76	C	1.517176	0.688890	0.865388
C77	C	1.017222	0.113660	0.365411
C78	C	1.517222	0.613660	0.865411
C79	C	1.062188	1.079988	0.410466
C80	C	1.562188	1.579988	0.910466
C81	C	1.062161	1.009298	0.410450
C82	C	1.562161	1.509298	0.910450
C83	C	1.017162	0.972282	0.365381
C84	C	1.517162	1.472282	0.865381
C85	C	0.972194	1.005959	0.320320
C86	C	1.472194	1.505959	0.820320
C87	C	0.972226	1.076647	0.320334
C88	C	1.472226	1.576647	0.820334
C89	C	0.972065	0.720881	0.320263
C90	C	1.472065	1.220881	0.820263
C91	C	0.972035	0.650187	0.320254
C92	C	1.472035	1.150187	0.820254
C93	C	1.062000	0.653531	0.410378
C94	C	1.562000	1.153531	0.910378
C95	C	1.062032	0.724220	0.410392
C96	C	1.562032	1.224220	0.910392
C97	C	1.017066	0.757891	0.365330
C98	C	1.517066	1.257891	0.865330
C99	C	1.017098	0.834540	0.365348
C100	C	1.517098	1.334540	0.865348
C101	C	1.017127	0.895633	0.365366
C102	C	1.517127	1.395633	0.865366
C103	C	1.017069	0.365422	0.189479
C104	C	1.517069	0.865422	0.689479
C105	C	1.017189	0.365254	0.114252
C106	C	1.517189	0.865254	0.614252
C107	C	1.062167	0.323824	0.654212
C108	C	1.562167	0.823824	1.154212
C109	C	1.062174	0.323804	0.724901
C110	C	1.562174	0.823804	1.224901
C111	C	1.017142	0.365335	0.758488
C112	C	1.517142	0.865335	1.258488
C113	C	0.972094	0.406883	0.721383
C114	C	1.472094	0.906883	1.221383
C115	C	0.972084	0.406898	0.650695
C116	C	1.472084	0.906898	1.150695
C117	C	0.972133	0.406822	1.006458
C118	C	1.472133	0.906822	1.506458
C119	C	0.972149	0.406805	1.077151
C120	C	1.472149	0.906805	1.577151
C121	C	1.062224	0.323728	1.080663
C122	C	1.562224	0.823728	1.580663
C123	C	1.062214	0.323743	1.009976
C124	C	1.562214	0.823743	1.509976
C125	C	1.017164	0.365288	0.972877
C126	C	1.517164	0.865288	1.472877
C127	C	1.017156	0.365307	0.896228
C128	C	1.517156	0.865307	1.396228
C129	C	1.017153	0.365320	0.835136
C130	C	1.517153	0.865320	1.335136
H131	H	0.749143	0.433699	0.433373
H132	H	1.249143	0.933699	0.933373
H133	H	1.098854	0.289975	0.755105
H134	H	1.598854	0.789975	1.255105
H135	H	1.098616	0.626109	0.447069
H136	H	1.598616	1.126109	0.947069
Cl137	Cl	0.915531	0.459018	1.119374
Cl138	Cl	1.415531	0.959018	1.619374
H139	H	0.419047	0.302355	0.302468
H140	H	0.919047	0.802355	0.802468
Cl141	Cl	0.915499	0.459050	0.959828
Cl142	Cl	1.415499	0.959050	1.459828
Cl143	Cl	1.118857	0.271496	1.127307
Cl144	Cl	1.618857	0.771496	1.627307
Cl145	Cl	1.118831	0.271533	0.967756
Cl146	Cl	1.618831	0.771533	1.467756
H147	H	0.935558	0.975816	0.283621
H148	H	1.435558	1.475816	0.783621
Cl149	Cl	0.915532	0.763201	0.263617
Cl150	Cl	1.415532	1.263201	0.763617
Cl151	Cl	0.915478	0.459091	0.763607
Cl152	Cl	1.415478	0.959091	1.263607
Cl153	Cl	0.599519	0.251432	0.251712
Cl154	Cl	1.099519	0.751432	0.751712
Cl155	Cl	0.765428	0.257844	0.258093
Cl156	Cl	1.265428	0.757844	0.758093
H157	H	1.098824	1.110121	0.447174
H158	H	1.598824	1.610121	0.947174
H159	H	0.615800	0.428541	0.428244
H160	H	1.115800	0.928541	0.928244
Cl161	Cl	0.915697	1.118978	0.263688
Cl162	Cl	1.415697	1.618978	0.763688
Cl163	Cl	0.915454	0.459128	0.604055
Cl164	Cl	1.415454	0.959128	1.104055
H165	H	1.098776	0.981883	0.447137
H166	H	1.598776	1.481883	0.947137
H167	H	0.419051	0.459639	0.459244
H168	H	0.919051	0.959639	0.959244
H169	H	0.285703	0.297197	0.297343
H170	H	0.785703	0.797197	0.797343
Cl171	Cl	1.118598	0.770751	0.467057
Cl172	Cl	1.618598	1.270751	0.967057
Cl173	Cl	1.118786	0.271614	0.611995
Cl174	Cl	1.618786	0.771614	1.111995
H175	H	0.935391	0.620050	0.283550
H176	H	1.435391	1.120050	0.783550
Cl177	Cl	0.269424	0.473056	0.472620
Cl178	Cl	0.769424	0.973056	0.972620
