data_functionalizedCrystal
_audit_creation_method	'MofGen! by Chris Wilmer'
_symmetry_space_group_name_H-M	'P1'
_symmetry_Int_Tables_number	1
_symmetry_cell_setting	triclinic
loop_
_symmetry_equiv_pos_as_xyz
  x,y,z
_cell_length_a	16.109302
_cell_length_b	10.654550
_cell_length_c	15.186229
_cell_angle_alpha	89.989221
_cell_angle_beta	90.009858
_cell_angle_gamma	96.026658
loop_
_atom_site_label
_atom_site_type_symbol
_atom_site_fract_x
_atom_site_fract_y
_atom_site_fract_z
O1	O	1.104094	-0.161438	0.073266
O2	O	1.604094	0.338562	0.573266
O3	O	0.862152	-0.181525	0.073259
O4	O	1.362152	0.318475	0.573259
O5	O	0.988686	0.011333	0.073259
O6	O	1.488686	0.511333	0.573259
O7	O	0.977561	-0.354296	0.073265
O8	O	1.477561	0.145704	0.573265
O9	O	0.988668	0.011365	-0.073198
O10	O	1.488668	0.511365	0.426802
O11	O	0.862134	-0.181494	-0.073199
O12	O	1.362134	0.318506	0.426801
O13	O	1.104077	-0.161406	-0.073191
O14	O	1.604077	0.338594	0.426809
Zn15	Zn	0.983103	-0.171445	-0.096448
Zn16	Zn	1.483103	0.328555	0.403552
Zn17	Zn	0.983126	-0.171486	0.096516
Zn18	Zn	1.483126	0.328514	0.596516
O19	O	0.977543	-0.354265	-0.073192
O20	O	1.477543	0.145735	0.426808
C21	C	0.831164	-0.180695	0.000029
C22	C	1.331164	0.319305	0.500029
C23	C	0.738854	-0.178255	0.000026
C24	C	1.238854	0.321745	0.500026
C25	C	0.526470	-0.172597	-0.079799
C26	C	1.026470	0.327403	0.420201
C27	C	0.439736	-0.170291	-0.079796
C28	C	0.939736	0.329709	0.420204
C29	C	0.439766	-0.170331	0.079880
C30	C	0.939766	0.329669	0.579880
C31	C	0.526499	-0.172628	0.079876
C32	C	1.026499	0.327372	0.579876
C33	C	0.569848	-0.173767	0.000034
C34	C	1.069848	0.326233	0.500034
C35	C	0.396381	-0.169164	0.000041
C36	C	0.896381	0.330836	0.500041
C37	C	0.302341	-0.166664	0.000045
C38	C	0.802341	0.333336	0.500045
C39	C	0.663895	-0.176265	0.000030
C40	C	1.163895	0.323735	0.500030
C41	C	0.987860	0.058136	0.000032
C42	C	1.487860	0.558136	0.500032
C43	C	0.985416	0.197546	0.000035
C44	C	1.485416	0.697546	0.500035
C45	C	1.135065	-0.162236	0.000040
C46	C	1.635065	0.337764	0.500040
C47	C	1.227375	-0.164676	0.000049
C48	C	1.727375	0.335324	0.500049
C49	C	0.978369	-0.401067	0.000038
C50	C	1.478369	0.098933	0.500038
C51	C	0.980813	-0.540477	0.000040
C52	C	1.480813	-0.040477	0.500040
N53	N	0.983093	-0.171416	-0.228141
N54	N	1.483093	0.328584	0.271859
C55	C	1.059918	0.278042	0.000034
C56	C	1.559918	0.778042	0.500034
C57	C	1.057616	0.409032	0.000040
C58	C	1.557616	0.909032	0.500040
C59	C	0.906306	0.379016	0.000044
C60	C	1.406306	0.879016	0.500044
C61	C	0.908608	0.248029	0.000044
C62	C	1.408608	0.748029	0.500044
C63	C	1.147275	0.295373	0.000028
C64	C	1.647275	0.795373	0.500028
C65	C	1.144974	0.426362	0.000035
C66	C	1.644974	0.926362	0.500035
C67	C	0.932260	-0.095284	-0.546096
C68	C	1.432260	0.404716	-0.046096
C69	C	0.932252	-0.095265	-0.453906
C70	C	1.432252	0.404735	0.046094
C71	C	1.033982	-0.247641	-0.453843
C72	C	1.533982	0.252359	0.046157
C73	C	1.033993	-0.247651	-0.546031
C74	C	1.533993	0.252349	-0.046031
C75	C	0.983127	-0.171475	-0.592155
C76	C	1.483127	0.328525	-0.092155
C77	C	0.983109	-0.171446	-0.407778
C78	C	1.483109	0.328554	0.092222
C79	C	0.983101	-0.171427	-0.307821
C80	C	1.483101	0.328573	0.192179
C81	C	0.983135	-0.171492	-0.692118
C82	C	1.483135	0.328508	-0.192118
N83	N	0.983142	-0.171505	0.228208
N84	N	1.483142	0.328495	0.728208
H85	H	0.404421	-0.169338	-0.144804
H86	H	0.904421	0.330662	0.355196
H87	H	0.890842	-0.033255	-0.583647
H88	H	1.390842	0.466745	-0.083647
C89	C	0.392077	-0.169095	0.167699
C90	C	0.892077	0.330905	0.667699
H91	H	0.334208	-0.167573	0.156269
H92	H	0.834208	0.332427	0.656269
H93	H	0.412214	-0.096293	0.200506
H94	H	0.912214	0.403707	0.700506
H95	H	0.400380	-0.242681	0.200496
H96	H	0.900380	0.257319	0.700496
C97	C	0.826657	0.159487	0.000050
C98	C	1.326657	0.659487	0.500050
H99	H	0.780586	0.208317	0.000047
H100	H	1.280586	0.708317	0.500047
H101	H	0.824420	0.107751	0.051122
H102	H	1.324420	0.607751	0.551122
H103	H	0.824400	0.107781	-0.051030
H104	H	1.324400	0.607781	0.448970
H105	H	1.075419	-0.309696	-0.583534
H106	H	1.575419	0.190304	-0.083534
H107	H	0.561818	-0.173578	0.144889
H108	H	1.061818	0.326422	0.644889
H109	H	0.890832	-0.033221	-0.416409
H110	H	1.390832	0.466779	0.083591
C111	C	0.821824	0.434553	0.000047
C112	C	1.321824	0.934553	0.500047
H113	H	0.831121	0.524093	0.000042
H114	H	1.331121	1.024093	0.500042
H115	H	0.791122	0.406904	0.051118
H116	H	1.291122	0.906904	0.551118
H117	H	0.791111	0.406935	-0.051034
H118	H	1.291111	0.906935	0.448966
C119	C	1.184850	0.247763	-0.085391
C120	C	1.684850	0.747763	0.414609
H121	H	1.199993	0.317203	-0.123429
H122	H	1.699993	0.817203	0.376571
H123	H	1.144776	0.189617	-0.113774
H124	H	1.644776	0.689617	0.386226
H125	H	1.232975	0.207111	-0.071667
H126	H	1.732975	0.707111	0.428333
H127	H	1.181452	0.266465	0.061317
H128	H	1.681452	0.766465	0.561317
H129	H	1.171382	0.472350	0.063272
H130	H	1.671382	0.972350	0.563272
H131	H	1.177882	0.468582	-0.061255
H132	H	1.677882	0.968582	0.438745
H133	H	1.075394	-0.309662	-0.416278
H134	H	1.575394	0.190338	0.083722
H135	H	0.561762	-0.173524	-0.144811
H136	H	1.061762	0.326476	0.355189
