data_functionalizedCrystal
_audit_creation_method	'MofGen! by Chris Wilmer'
_symmetry_space_group_name_H-M	'P1'
_symmetry_Int_Tables_number	1
_symmetry_cell_setting	triclinic
loop_
_symmetry_equiv_pos_as_xyz
  x,y,z
_cell_length_a	12.759395
_cell_length_b	16.994747
_cell_length_c	12.759387
_cell_angle_alpha	90.006852
_cell_angle_beta	90.020509
_cell_angle_gamma	89.999795
loop_
_atom_site_label
_atom_site_type_symbol
_atom_site_fract_x
_atom_site_fract_y
_atom_site_fract_z
Zn1	Zn	1.606389	-0.313954	0.594180
Zn2	Zn	1.606330	-0.445880	0.418574
Zn3	Zn	1.430687	-0.313997	0.418517
Zn4	Zn	1.430730	-0.445824	0.594213
O5	O	1.518534	-0.379914	0.506371
O6	O	1.753402	-0.331460	0.570895
O7	O	1.582988	-0.428427	0.271545
O8	O	1.454001	-0.203610	0.441781
O9	O	1.753359	-0.428385	0.441878
O10	O	1.583088	-0.203579	0.570840
O11	O	1.453944	-0.331533	0.271503
O12	O	1.283672	-0.331479	0.441813
O13	O	1.454074	-0.428289	0.741230
O14	O	1.283703	-0.428331	0.570896
O15	O	1.583130	-0.331405	0.741205
O16	O	1.583029	-0.556253	0.441910
O17	O	1.454017	-0.556212	0.570952
C18	C	1.245566	-0.379904	0.506353
C19	C	1.128790	-0.379919	0.506370
C20	C	1.518534	-0.584853	0.506438
C21	C	1.518568	-0.674175	0.506443
Zn22	Zn	1.430703	-0.813990	0.594132
Zn23	Zn	1.606346	-0.945872	0.594212
Zn24	Zn	1.606439	-0.813961	0.418628
Zn25	Zn	1.430780	-0.945831	0.418413
O26	O	1.518567	-0.879914	0.506346
O27	O	1.453932	-0.831513	0.741164
O28	O	1.753379	-0.928379	0.571044
O29	O	1.583134	-0.703584	0.441966
O30	O	1.582976	-0.928407	0.741222
O31	O	1.454022	-0.703605	0.570907
O32	O	1.753447	-0.831465	0.442043
O33	O	1.583208	-0.831425	0.271579
O34	O	1.283748	-0.928336	0.441600
O35	O	1.454152	-0.928309	0.271421
O36	O	1.283692	-0.831473	0.570699
O37	O	1.583050	-1.056248	0.570835
O38	O	1.454062	-1.056218	0.441677
C39	C	1.128861	-0.480934	0.640567
C40	C	1.074036	-0.531448	0.707668
C41	C	0.964314	-0.531458	0.707681
C42	C	0.909415	-0.480946	0.640588
C43	C	0.964240	-0.430432	0.573486
C44	C	1.073964	-0.430430	0.573478
C45	C	0.964169	-0.329414	0.439296
C46	C	1.073891	-0.329407	0.439276
C47	C	0.909270	-0.278903	0.372202
C48	C	0.964095	-0.228392	0.305094
C49	C	1.073823	-0.228385	0.305083
C50	C	1.128716	-0.278893	0.372175
C51	C	1.792567	-0.379924	0.506390
C52	C	1.909344	-0.379928	0.506398
C53	C	1.518613	-0.379836	0.780404
C54	C	1.518647	-0.379803	0.897181
C55	C	1.518539	-0.174173	0.506298
C56	C	1.518545	-0.084851	0.506267
C57	C	1.518515	-0.379934	0.233403
C58	C	1.518685	-0.379744	0.116627
C59	C	1.653042	-0.278925	0.897176
C60	C	1.720254	-0.228474	0.952034
C61	C	1.720280	-0.228445	1.061756
C62	C	1.653084	-0.278871	1.116622
C63	C	1.585871	-0.329322	1.061764
C64	C	1.585855	-0.329347	0.952039
C65	C	1.451473	-0.430195	1.061769
C66	C	1.451451	-0.430229	0.952047
C67	C	1.384277	-0.480622	1.116635
C68	C	1.317068	-0.531078	1.061777
C69	C	1.317046	-0.531105	0.952049
C70	C	1.384239	-0.480681	0.897189
C71	C	1.518697	-0.879860	0.233379
C72	C	1.518728	-0.879856	0.116602
C73	C	1.244533	-0.879903	0.506116
C74	C	1.127757	-0.879899	0.506018
C75	C	1.518435	-0.879968	0.780380
C76	C	1.518379	-0.879991	0.897157
C77	C	1.791534	-0.879868	0.506634
C78	C	1.908310	-0.879655	0.506929
C79	C	1.384559	-0.980904	0.116477
C80	C	1.317495	-1.031426	0.061553
C81	C	1.317529	-1.031419	-0.048169
C82	C	1.384631	-0.980882	-0.102969
C83	C	1.451695	-0.930360	-0.048046
C84	C	1.451657	-0.930375	0.061678
C85	C	1.585857	-0.829309	-0.047920
C86	C	1.585831	-0.829319	0.061802
C87	C	1.652960	-0.778773	-0.102721
C88	C	1.720031	-0.728254	-0.047797
C89	C	1.719995	-0.728264	0.061931
C90	C	1.652895	-0.778797	0.116725
C91	C	1.127678	-0.779042	0.640459
C92	C	1.072779	-0.728615	0.707631
C93	C	0.963057	-0.728613	0.707533
C94	C	0.908233	-0.779041	0.640251
C95	C	0.963133	-0.829468	0.573079
C96	C	1.072857	-0.829467	0.573187
C97	C	0.963211	-0.930320	0.438635
C98	C	1.072933	-0.930328	0.438737
C99	C	0.908387	-0.980748	0.371354
C100	C	0.963287	-1.031181	0.304185
C101	C	1.073015	-1.031182	0.304287
C102	C	1.127833	-0.980755	0.371565
H103	H	1.218202	-0.480937	0.640556
H104	H	1.653038	-0.278950	0.807835
H105	H	1.774962	-0.187416	0.907350
H106	H	1.262905	-1.072548	-0.092887
H107	H	1.262861	-1.072571	0.106184
H108	H	1.262357	-0.572127	1.106458
H109	H	0.819046	-0.980741	0.371275
H110	H	0.819929	-0.278911	0.372222
Cl111	Cl	1.653108	-0.278826	1.254558
H112	H	1.384232	-0.480701	0.807848
H113	H	1.117428	-0.687556	0.762408
H114	H	1.652863	-0.778813	0.206066
Cl115	Cl	1.143056	-0.594950	0.792003
Cl116	Cl	0.894037	-0.665213	0.791972
H117	H	1.384534	-0.980921	0.205818
Cl118	Cl	0.770296	-0.779026	0.640116
Cl119	Cl	1.265615	-0.779051	0.640602
Cl120	Cl	0.895075	-0.164893	0.220765
Cl121	Cl	1.384652	-0.980861	-0.240906
Cl122	Cl	0.894361	-1.094564	0.219606
Cl123	Cl	1.142023	-1.094577	0.219832
H124	H	1.774601	-0.687118	0.106643
H125	H	1.775003	-0.187358	1.106421
Cl126	Cl	1.384309	-0.480586	1.254572
Cl127	Cl	1.232540	-0.594529	0.883094
H128	H	1.217174	-0.980747	0.371650
Cl129	Cl	0.895388	-0.594957	0.792044
Cl130	Cl	1.652991	-0.778756	-0.240658
Cl131	Cl	1.266652	-0.278892	0.372162
Cl132	Cl	0.771479	-0.480949	0.640621
Cl133	Cl	1.142737	-0.164873	0.220727
H134	H	1.774655	-0.687107	-0.092424
