data_functionalizedCrystal
_audit_creation_method	'MofGen! by Chris Wilmer'
_symmetry_space_group_name_H-M	'P1'
_symmetry_Int_Tables_number	1
_symmetry_cell_setting	triclinic
loop_
_symmetry_equiv_pos_as_xyz
  x,y,z
_cell_length_a	25.639242
_cell_length_b	19.077068
_cell_length_c	19.076919
_cell_angle_alpha	94.470751
_cell_angle_beta	92.272383
_cell_angle_gamma	92.322930
loop_
_atom_site_label
_atom_site_type_symbol
_atom_site_fract_x
_atom_site_fract_y
_atom_site_fract_z
Zn1	Zn	0.778189	-0.296771	-0.410014
Zn2	Zn	1.278189	0.203229	0.089986
Zn3	Zn	0.778124	-0.409925	-0.296859
Zn4	Zn	1.278124	0.090075	0.203141
Zn5	Zn	0.694419	-0.292046	-0.292126
Zn6	Zn	1.194419	0.207954	0.207874
Zn7	Zn	0.687071	-0.414611	-0.414683
Zn8	Zn	1.187071	0.085389	0.085317
O9	O	0.734451	-0.353338	-0.353421
O10	O	1.234451	0.146662	0.146579
O11	O	0.851344	-0.311797	-0.395031
O12	O	1.351344	0.188203	0.104969
O13	O	0.770069	-0.390349	-0.197585
O14	O	1.270069	0.109651	0.302415
O15	O	0.708634	-0.194024	-0.303830
O16	O	1.208634	0.305976	0.196170
O17	O	0.851297	-0.394931	-0.311896
O18	O	1.351297	0.105069	0.188104
O19	O	0.770179	-0.197495	-0.390442
O20	O	1.270179	0.302505	0.109558
O21	O	0.708571	-0.303744	-0.194108
O22	O	1.208571	0.196256	0.305892
O23	O	0.620281	-0.308288	-0.308357
O24	O	1.120281	0.191712	0.191643
O25	O	0.696110	-0.402918	-0.512710
O26	O	1.196110	0.097082	-0.012710
O27	O	0.614882	-0.398336	-0.398399
O28	O	1.114882	0.101664	0.101601
O29	O	0.763054	-0.316342	-0.509280
O30	O	1.263054	0.183658	-0.009280
O31	O	0.762943	-0.509195	-0.316423
O32	O	1.262943	-0.009195	0.183577
O33	O	0.696047	-0.512638	-0.402988
O34	O	1.196047	-0.012638	0.097012
C35	C	0.598611	-0.353308	-0.353372
C36	C	1.098611	0.146692	0.146628
C37	C	0.540497	-0.353313	-0.353368
C38	C	1.040497	0.146687	0.146632
C39	C	0.728704	-0.536496	-0.360741
C40	C	1.228704	-0.036496	0.139259
C41	C	0.726293	-0.614852	-0.363896
C42	C	1.226293	-0.114852	0.136104
C43	C	0.760015	-0.649850	-0.320346
C44	C	1.260015	-0.149850	0.179654
C45	C	0.757750	-0.723475	-0.323318
C46	C	1.257750	-0.223475	0.176682
C47	C	0.721760	-0.762100	-0.369837
C48	C	1.221760	-0.262100	0.130163
C49	C	0.688038	-0.727098	-0.413392
C50	C	1.188038	-0.227098	0.086608
C51	C	0.690305	-0.653474	-0.410423
C52	C	1.190305	-0.153474	0.089577
C53	C	0.711243	-0.982485	-0.383548
C54	C	1.211243	-0.482485	0.116452
C55	C	0.708976	-1.056113	-0.386512
C56	C	1.208976	-0.556113	0.113488
C57	C	0.778689	-1.052485	-0.296439
C58	C	1.278689	-0.552485	0.203561
C59	C	0.780952	-0.978860	-0.293472
C60	C	1.280952	-0.478860	0.206528
C61	C	0.747231	-0.943864	-0.337029
C62	C	1.247231	-0.443864	0.162971
N63	N	0.719443	-0.837356	-0.372874
N64	N	1.219443	-0.337356	0.127126
N65	N	0.749551	-0.868610	-0.333995
N66	N	1.249551	-0.368610	0.166005
C67	C	0.177328	-0.400300	-0.400266
C68	C	0.677328	0.099700	0.099734
C69	C	0.122723	-0.400304	-0.400277
C70	C	0.622723	0.099696	0.099723
O71	O	0.092103	-0.440218	-0.440109
O72	O	0.592103	0.059782	0.059891
N73	N	0.098210	-0.353359	-0.353467
N74	N	0.598210	0.146641	0.146533
C75	C	0.128304	-0.306402	-0.306648
C76	C	0.628304	0.193598	0.193352
O77	O	0.102440	-0.266471	-0.266835
O78	O	0.602440	0.233529	0.233165
C79	C	0.182908	-0.306394	-0.306641
C80	C	0.682908	0.193606	0.193359
C81	C	0.207418	-0.353347	-0.353449
C82	C	0.707418	0.146653	0.146551
C83	C	0.201838	-0.447248	-0.447070
C84	C	0.701838	0.052752	0.052930
C85	C	0.256439	-0.447244	-0.447058
C86	C	0.756439	0.052756	0.052942
C87	C	0.286530	-0.400292	-0.400241
C88	C	0.786530	0.099708	0.099759
C89	C	0.262019	-0.353343	-0.353437
C90	C	0.762019	0.146657	0.146563
C91	C	0.213001	-0.259433	-0.259826
C92	C	0.713001	0.240567	0.240174
C93	C	0.267609	-0.259429	-0.259823
C94	C	0.767609	0.240571	0.240177
C95	C	0.292119	-0.306382	-0.306631
C96	C	0.792119	0.193618	0.193369
C97	C	0.346711	-0.306386	-0.306607
C98	C	0.846711	0.193614	0.193393
N99	N	0.371224	-0.353331	-0.353417
N100	N	0.871224	0.146669	0.146583
C101	C	0.341134	-0.400284	-0.400234
C102	C	0.841134	0.099716	0.099766
C103	C	0.013632	-0.306420	-0.306668
C104	C	0.513632	0.193580	0.193332
C105	C	-0.040970	-0.306431	-0.306672
C106	C	0.459030	0.193569	0.193328
C107	C	-0.046548	-0.400333	-0.400301
C108	C	0.453452	0.099667	0.099699
C109	C	0.008056	-0.400325	-0.400294
C110	C	0.508056	0.099675	0.099706
C111	C	0.038146	-0.353365	-0.353478
C112	C	0.538146	0.146635	0.146522
C113	C	0.455800	-0.400272	-0.400204
C114	C	0.955800	0.099728	0.099796
C115	C	0.510406	-0.400266	-0.400185
C116	C	1.010406	0.099734	0.099815
C117	C	0.515979	-0.306362	-0.306558
C118	C	1.015979	0.193638	0.193442
C119	C	0.461377	-0.306370	-0.306574
C120	C	0.961377	0.193630	0.193426
C121	C	0.431289	-0.353328	-0.353403
C122	C	0.931289	0.146672	0.146597
O123	O	0.377364	-0.266491	-0.266797
O124	O	0.877364	0.233509	0.233203
O125	O	0.367005	-0.440202	-0.440047
O126	O	0.867005	0.059798	0.059953
C127	C	0.870821	-0.353368	-0.353470
C128	C	1.370821	0.146632	0.146530
C129	C	0.928934	-0.353381	-0.353491
C130	C	1.428934	0.146619	0.146509
C131	C	0.728769	-0.360680	-0.537288
C132	C	1.228769	0.139320	-0.037288
C133	C	0.726348	-0.363808	-0.615642
C134	C	1.226348	0.136192	-0.115642
C135	C	0.740233	-0.169466	-0.346087
C136	C	1.240233	0.330534	0.153913
C137	C	0.742698	-0.091110	-0.342962
C138	C	1.242698	0.408890	0.157038
C139	C	0.760063	-0.320204	-0.650667
C140	C	1.260063	0.179796	-0.150667
C141	C	0.757782	-0.323141	-0.724289
C142	C	1.257782	0.176859	-0.224289
C143	C	0.721788	-0.369686	-0.762883
C144	C	1.221788	0.130314	-0.262883
C145	C	0.688069	-0.413292	-0.727852
C146	C	1.188069	0.086708	-0.227852
C147	C	0.690348	-0.410351	-0.654232
C148	C	1.190348	0.089649	-0.154232
C149	C	0.711231	-0.383312	-0.983255
C150	C	1.211231	0.116688	-0.483255
C151	C	0.708956	-0.386251	-1.056880
C152	C	1.208956	0.113749	-0.556880
C153	C	0.778668	-0.296099	-1.053311
C154	C	1.278668	0.203901	-0.553311
C155	C	0.780946	-0.293166	-0.979690
C156	C	1.280946	0.206834	-0.479690
C157	C	0.747226	-0.336768	-0.944666
C158	C	1.247226	0.163232	-0.444666
N159	N	0.719456	-0.372691	-0.838136
N160	N	1.219456	0.127309	-0.338136
N161	N	0.749555	-0.333760	-0.869414
N162	N	1.249555	0.166240	-0.369414
C163	C	0.740142	-0.345974	-0.170266
C164	C	1.240142	0.154026	0.329734
C165	C	0.742671	-0.342647	-0.091906
C166	C	1.242671	0.157353	0.408094
H167	H	0.789319	-0.618406	-0.282463
H168	H	1.289319	-0.118406	0.217537
H169	H	0.806120	-0.260599	-1.081836
H170	H	1.306120	0.239401	-0.581836
H171	H	0.662847	-0.624980	-0.445887
H172	H	1.162847	-0.124980	0.054113
H173	H	0.810258	-0.255266	-0.948272
H174	H	1.310258	0.244734	-0.448272
H175	H	0.662889	-0.445851	-0.625715
H176	H	1.162889	0.054149	-0.125715
N177	N	0.670158	-1.097772	-0.436691
N178	N	1.170158	-0.597772	0.063309
H179	H	0.689437	-1.129593	-0.470614
H180	H	1.189437	-0.629593	0.029386
H181	H	0.645899	-1.127163	-0.409187
H182	H	1.145899	-0.627163	0.090813
H183	H	0.810257	-0.947413	-0.255592
H184	H	1.310257	-0.447413	0.244408
N185	N	0.794120	-0.761223	-0.276347
N186	N	1.294120	-0.261223	0.223653
H187	H	0.817261	-0.725582	-0.246423
H188	H	1.317261	-0.225582	0.253577
H189	H	0.772923	-0.790503	-0.244929
H190	H	1.272923	-0.290503	0.255071
H191	H	0.683785	-0.953997	-0.419013
H192	H	1.183785	-0.453997	0.080987
H193	H	0.806144	-1.080987	-0.260978
H194	H	1.306144	-0.580987	0.239022
N195	N	0.046085	-0.255767	-0.256171
N196	N	0.546085	0.244233	0.243829
H197	H	0.022266	-0.226032	-0.226522
H198	H	0.522266	0.273968	0.273478
H199	H	0.068847	-0.283099	-0.224639
H200	H	0.568847	0.216901	0.275361
N201	N	0.536838	-0.450914	-0.450673
N202	N	1.036838	0.049086	0.049327
H203	H	0.526134	-0.442055	-0.500625
H204	H	1.026134	0.057945	-0.000625
H205	H	0.575989	-0.443769	-0.443504
H206	H	1.075989	0.056231	0.056496
H207	H	0.540488	-0.268136	-0.268439
H208	H	1.040488	0.231864	0.231561
N209	N	-0.067400	-0.255795	-0.256177
N210	N	0.432600	0.244205	0.243823
H211	H	-0.089913	-0.224315	-0.283573
H212	H	0.410087	0.275685	0.216427
H213	H	-0.089920	-0.283139	-0.224619
H214	H	0.410080	0.216861	0.275381
N215	N	0.034492	-0.450961	-0.450783
N216	N	0.534492	0.049039	0.049217
H217	H	0.057006	-0.482437	-0.423385
H218	H	0.557006	0.017563	0.076615
H219	H	0.007108	-0.480658	-0.480428
H220	H	0.507108	0.019342	0.019572
N221	N	0.423352	-0.450920	-0.450709
N222	N	0.923352	0.049080	0.049291
H223	H	0.447172	-0.480658	-0.480352
H224	H	0.947172	0.019342	0.019648
H225	H	0.400559	-0.482354	-0.423267
H226	H	0.900559	0.017646	0.076733
N227	N	0.798891	-0.270007	-0.609047
N228	N	1.298891	0.229993	-0.109047
H229	H	0.823165	-0.297447	-0.579662
H230	H	1.323165	0.202553	-0.079662
H231	H	0.819865	-0.242846	-0.642459
H232	H	1.319865	0.257154	-0.142459
N233	N	0.674858	-0.430348	-0.945503
N234	N	1.174858	0.069652	-0.445503
H235	H	0.696013	-0.461810	-0.916268
H236	H	1.196013	0.038190	-0.416268
H237	H	0.652475	-0.400430	-0.913849
H238	H	1.152475	0.099570	-0.413849
H239	H	-0.071057	-0.438562	-0.438425
H240	H	0.428943	0.061438	0.061575
H241	H	0.276391	-0.485477	-0.485175
H242	H	0.776391	0.014523	0.014825
N243	N	0.649222	-0.768754	-0.463569
N244	N	1.149222	-0.268754	0.036431
H245	H	0.652900	-0.820705	-0.458840
H246	H	1.152900	-0.320705	0.041160
H247	H	0.612624	-0.755484	-0.452025
H248	H	1.112624	-0.255484	0.047975
N249	N	0.169388	-0.497900	-0.497564
N250	N	0.669388	0.002100	0.002436
H251	H	0.177689	-0.489047	-0.547514
H252	H	0.677689	0.010953	-0.047514
H253	H	0.177677	-0.547782	-0.488472
H254	H	0.677677	-0.047782	0.011528
N255	N	0.186574	-0.208791	-0.209339
N256	N	0.686574	0.291209	0.290661
H257	H	0.213929	-0.179048	-0.179688
H258	H	0.713929	0.320952	0.320312
H259	H	0.164059	-0.177360	-0.236789
H260	H	0.664059	0.322640	0.263211
N261	N	0.300062	-0.208774	-0.209331
N262	N	0.800062	0.291226	0.290669
H263	H	0.276246	-0.179034	-0.179685
H264	H	0.776246	0.320966	0.320315
H265	H	0.322822	-0.236107	-0.177798
H266	H	0.822822	0.263893	0.322202
H267	H	0.658760	-0.451187	-0.759281
H268	H	1.158760	0.048813	-0.259281
N269	N	0.434937	-0.255738	-0.256082
N270	N	0.934937	0.244262	0.243918
H271	H	0.462287	-0.225996	-0.226420
H272	H	0.962287	0.274004	0.273580
H273	H	0.412425	-0.224306	-0.283533
H274	H	0.912425	0.275694	0.216467
N275	N	0.794135	-0.276098	-0.762067
N276	N	1.294135	0.223902	-0.262067
H277	H	0.817282	-0.246165	-0.726447
H278	H	1.317282	0.253835	-0.226447
H279	H	0.816485	-0.306007	-0.793776
H280	H	1.316485	0.193993	-0.293776
H281	H	0.679644	-0.424155	-1.088301
H282	H	1.179644	0.075845	-0.588301
