data_functionalizedCrystal
_audit_creation_method	'MofGen! by Chris Wilmer'
_symmetry_space_group_name_H-M	'P1'
_symmetry_Int_Tables_number	1
_symmetry_cell_setting	triclinic
loop_
_symmetry_equiv_pos_as_xyz
  x,y,z
_cell_length_a	14.044191
_cell_length_b	14.044190
_cell_length_c	13.101039
_cell_angle_alpha	93.663707
_cell_angle_beta	86.337551
_cell_angle_gamma	93.191777
loop_
_atom_site_label
_atom_site_type_symbol
_atom_site_fract_x
_atom_site_fract_y
_atom_site_fract_z
O1	O	1.281983	0.225377	-0.085186
O2	O	1.781983	0.725377	0.414814
O3	O	1.005311	0.217064	-0.085198
O4	O	1.505311	0.717064	0.414802
O5	O	1.139490	0.082885	-0.085172
O6	O	1.639490	0.582885	0.414828
O7	O	1.147805	0.359556	-0.085212
O8	O	1.647805	0.859556	0.414788
O9	O	1.129864	0.092530	0.085256
O10	O	1.629864	0.592530	0.585256
O11	O	0.995685	0.226708	0.085230
O12	O	1.495685	0.726708	0.585230
O13	O	1.272357	0.235022	0.085242
O14	O	1.772357	0.735022	0.585242
Zn15	Zn	1.132493	0.232396	0.112295
Zn16	Zn	1.632493	0.732396	0.612295
Zn17	Zn	1.145175	0.219689	-0.112251
Zn18	Zn	1.645175	0.719689	0.387749
O19	O	1.138179	0.369200	0.085216
O20	O	1.638179	0.869200	0.585216
C21	C	0.964876	0.218249	0.000015
C22	C	1.464876	0.718249	0.500015
C23	C	0.858733	0.207402	0.000011
C24	C	1.358733	0.707402	0.500011
C25	C	0.613276	0.264503	0.000013
C26	C	1.113276	0.764503	0.500013
C27	C	0.664399	0.187587	0.000022
C28	C	1.164399	0.687587	0.500022
C29	C	0.772536	0.198615	0.000016
C30	C	1.272536	0.698615	0.500016
C31	C	0.505129	0.253476	0.000019
C32	C	1.005129	0.753476	0.500019
C33	C	1.131040	0.052086	0.000045
C34	C	1.631040	0.552086	0.500045
C35	C	1.120192	-0.054057	0.000054
C36	C	1.620192	0.445943	0.500054
C37	C	1.177295	-0.299516	0.000016
C38	C	1.677295	0.200484	0.500016
C39	C	1.100378	-0.248393	0.000020
C40	C	1.600378	0.251607	0.500020
C41	C	1.111405	-0.140254	0.000038
C42	C	1.611405	0.359746	0.500038
C43	C	1.166269	-0.407664	-0.000003
C44	C	1.666269	0.092336	0.499997
C45	C	1.312792	0.233836	0.000027
C46	C	1.812792	0.733836	0.500027
C47	C	1.418936	0.244683	0.000024
C48	C	1.918936	0.744683	0.500024
C49	C	1.146629	0.400000	-0.000003
C50	C	1.646629	0.900000	0.499997
C51	C	1.157477	0.506142	-0.000018
C52	C	1.657477	1.006142	0.499982
N53	N	1.123845	0.241069	0.265542
N54	N	1.623845	0.741069	0.765542
N55	N	1.153831	0.211010	-0.265498
N56	N	1.653831	0.711010	0.234502
C57	C	1.112079	0.252876	0.474582
C58	C	1.612079	0.752876	0.974582
C59	C	1.165594	0.199205	0.525469
C60	C	1.665594	0.699205	1.025469
C61	C	1.159047	0.205775	0.641786
C62	C	1.659047	0.705775	1.141786
C63	C	1.118624	0.246307	0.358255
C64	C	1.618624	0.746307	0.858255
H65	H	0.650720	0.338629	-0.000001
H66	H	1.150720	0.838629	0.499999
Cl67	Cl	1.033760	0.331436	0.542188
Cl68	Cl	1.533760	0.831436	1.042188
H69	H	1.251421	-0.262072	0.000030
H70	H	1.751421	0.237928	0.500030
H71	H	0.626957	0.113450	-0.000039
H72	H	1.126957	0.613450	0.499961
Cl73	Cl	1.244316	0.121041	0.457862
Cl74	Cl	1.744316	0.621041	0.957862
H75	H	1.026246	-0.285839	0.000010
H76	H	1.526246	0.214161	0.500010
