data_functionalizedCrystal
_audit_creation_method	'MofGen! by Chris Wilmer'
_symmetry_space_group_name_H-M	'P1'
_symmetry_Int_Tables_number	1
_symmetry_cell_setting	triclinic
loop_
_symmetry_equiv_pos_as_xyz
  x,y,z
_cell_length_a	15.297979
_cell_length_b	17.077402
_cell_length_c	17.077396
_cell_angle_alpha	89.972568
_cell_angle_beta	99.710038
_cell_angle_gamma	80.315320
loop_
_atom_site_label
_atom_site_type_symbol
_atom_site_fract_x
_atom_site_fract_y
_atom_site_fract_z
Zn1	Zn	1.379361	0.105052	0.651944
Zn2	Zn	1.379251	0.236344	0.520664
Zn3	Zn	1.228479	0.127772	0.497929
Zn4	Zn	1.228438	0.258979	0.629135
O5	O	1.303882	0.182037	0.574918
O6	O	1.505607	0.103487	0.653590
O7	O	1.359221	0.221977	0.407797
O8	O	1.248557	0.014902	0.518391
O9	O	1.505526	0.199947	0.557139
O10	O	1.359410	-0.001790	0.631545
O11	O	1.248449	0.142210	0.391094
O12	O	1.102213	0.164158	0.496274
O13	O	1.248488	0.238525	0.742012
O14	O	1.102183	0.260555	0.592670
O15	O	1.359370	0.125436	0.758770
O16	O	1.359182	0.349203	0.535022
O17	O	1.248380	0.365833	0.614715
C18	C	1.069460	0.217279	0.539531
C19	C	0.969173	0.232375	0.524410
C20	C	0.922015	0.289608	0.467010
C21	C	0.827790	0.303793	0.452807
C22	C	0.780715	0.260741	0.496000
C23	C	0.827873	0.203502	0.553398
C24	C	0.922107	0.189320	0.567606
C25	C	0.780807	0.160453	0.596596
C26	C	0.827965	0.103215	0.653994
C27	C	0.922190	0.089035	0.668199
C28	C	0.969265	0.132087	0.625007
C29	C	0.686573	0.174635	0.582388
C30	C	0.686665	0.074348	0.682984
C31	C	0.780890	0.060163	0.697187
C32	C	1.303789	0.385999	0.574881
C33	C	1.303832	0.473242	0.574904
C34	C	1.361584	0.505538	0.533472
C35	C	1.361626	0.587512	0.533502
C36	C	1.303910	0.637190	0.574959
C37	C	1.246155	0.604888	0.616397
C38	C	1.246119	0.522915	0.616371
C39	C	1.246234	0.775746	0.616445
C40	C	1.246269	0.857726	0.616470
C41	C	1.361741	0.840344	0.533576
C42	C	1.361704	0.758371	0.533550
C43	C	1.303948	0.726075	0.574987
C44	C	1.539220	0.146658	0.610444
C45	C	1.639507	0.131581	0.625583
C46	C	1.303937	0.181971	0.779671
C47	C	1.303960	0.181943	0.866924
C48	C	1.303993	0.977276	0.574985
C49	C	1.304021	0.890022	0.575038
C50	C	1.303880	0.182038	0.370970
C51	C	1.304031	0.181819	0.283743
C52	C	1.361699	0.123053	0.916642
C53	C	1.361710	0.123025	0.998624
C54	C	1.303986	0.181891	1.030888
C55	C	1.246240	0.240784	0.981163
C56	C	1.246226	0.240808	0.899182
C57	C	1.246277	0.240732	1.152039
C58	C	1.246292	0.240709	1.234026
C59	C	1.361761	0.122948	1.251481
C60	C	1.361746	0.122972	1.169499
C61	C	1.304002	0.181867	1.119781
H62	H	1.045990	0.120538	0.636565
Cl63	Cl	1.173603	0.667339	0.668520
H64	H	1.199287	0.288642	1.260292
H65	H	1.199093	0.496621	0.650110
Cl66	Cl	1.173682	0.314771	1.089537
Cl67	Cl	1.434354	0.048911	1.313983
H68	H	1.408755	0.075042	1.143234
Cl69	Cl	1.434275	0.049048	0.876091
Cl70	Cl	0.981472	0.017089	0.740368
Cl71	Cl	1.434339	0.049017	1.061129
Cl72	Cl	1.173627	0.735147	0.668539
Cl73	Cl	1.434340	0.880945	0.481476
H74	H	0.819299	0.013558	0.743921
Cl75	Cl	1.173669	0.314786	1.021723
Cl76	Cl	0.627491	0.020224	0.737289
H77	H	1.408578	0.465096	0.499708
Cl78	Cl	1.173701	0.920178	0.668578
Cl79	Cl	0.627300	0.246590	0.510233
Cl80	Cl	0.662259	0.278574	0.478143
Cl81	Cl	1.173634	0.314843	0.836679
Cl82	Cl	1.434234	0.628109	0.481416
H83	H	0.960352	0.324658	0.431852
Cl84	Cl	0.768512	0.375732	0.380638
H85	H	1.408696	0.717924	0.499788
