data_functionalizedCrystal
_audit_creation_method	'MofGen! by Chris Wilmer'
_symmetry_space_group_name_H-M	'P1'
_symmetry_Int_Tables_number	1
_symmetry_cell_setting	triclinic
loop_
_symmetry_equiv_pos_as_xyz
  x,y,z
_cell_length_a	19.077236
_cell_length_b	12.759399
_cell_length_c	19.076919
_cell_angle_alpha	92.274423
_cell_angle_beta	89.887323
_cell_angle_gamma	92.308008
loop_
_atom_site_label
_atom_site_type_symbol
_atom_site_fract_x
_atom_site_fract_y
_atom_site_fract_z
Zn1	Zn	1.058333	-0.381376	-0.440554
Zn2	Zn	1.062991	-0.549744	-0.323053
Zn3	Zn	0.945548	-0.380825	-0.318334
Zn4	Zn	0.940811	-0.563761	-0.435792
O5	O	1.001921	-0.468926	-0.379434
O6	O	1.157284	-0.398075	-0.428936
O7	O	1.051343	-0.521240	-0.224096
O8	O	0.960542	-0.233876	-0.334565
O9	O	1.160706	-0.521774	-0.342608
O10	O	1.043404	-0.234281	-0.424360
O11	O	0.965059	-0.397136	-0.220629
O12	O	0.846587	-0.410727	-0.329948
O13	O	0.952469	-0.545663	-0.534755
O14	O	0.843107	-0.545129	-0.416243
O15	O	1.038811	-0.411666	-0.538254
O16	O	1.046751	-0.698625	-0.337990
O17	O	0.956986	-0.708923	-0.420819
C18	C	0.819350	-0.479390	-0.372067
C19	C	0.741245	-0.483893	-0.368932
C20	C	0.702767	-0.421715	-0.412474
C21	C	0.629379	-0.425941	-0.409522
C22	C	0.594470	-0.492350	-0.363032
C23	C	0.632953	-0.554530	-0.319485
C24	C	0.706340	-0.550298	-0.322434
C25	C	0.375179	-0.511895	-0.349383
C26	C	0.301787	-0.516124	-0.346439
C27	C	0.298217	-0.387533	-0.436476
C28	C	0.371606	-0.383312	-0.439423
C29	C	0.410083	-0.445488	-0.395874
N30	N	0.519456	-0.496673	-0.360015
N31	N	0.485096	-0.441158	-0.398888
C32	C	1.001878	-0.741895	-0.379416
C33	C	1.001923	-0.858670	-0.379434
C34	C	1.048713	-0.908135	-0.336359
C35	C	1.048757	-1.017858	-0.336384
C36	C	0.955216	-1.028642	-0.422563
C37	C	0.955176	-0.918921	-0.422540
C38	C	1.132706	-1.161410	-0.314719
C39	C	1.179490	-1.210878	-0.271632
C40	C	1.193061	-1.170428	-0.203507
C41	C	1.159839	-1.080510	-0.178455
C42	C	1.113050	-1.031047	-0.221538
C43	C	1.099492	-1.071496	-0.289673
C44	C	0.871226	-0.775367	-0.444198
C45	C	0.824433	-0.725902	-0.487278
C46	C	0.810855	-0.766351	-0.555404
C47	C	0.844065	-0.856273	-0.580453
C48	C	0.890858	-0.905738	-0.537373
C49	C	0.904437	-0.865281	-0.469248
C50	C	1.185204	-0.458423	-0.386830
C51	C	1.263309	-0.453947	-0.389981
C52	C	0.994592	-0.480290	-0.562713
C53	C	0.991469	-0.485132	-0.640816
C54	C	1.001982	-0.194891	-0.379468
C55	C	1.002008	-0.078114	-0.379482
C56	C	1.034954	-0.417645	-0.679332
C57	C	1.032011	-0.422191	-0.752717
C58	C	0.985587	-0.494230	-0.787586
C59	C	0.942098	-0.561720	-0.749065
C60	C	0.945037	-0.557168	-0.675681
C61	C	0.971971	-0.515321	-1.006866
C62	C	0.969036	-0.519870	-1.080256
C63	C	1.058948	-0.380339	-1.083903
C64	C	1.061887	-0.375798	-1.010517
C65	C	1.018395	-0.443284	-0.972003
N66	N	0.982579	-0.498881	-0.862598
N67	N	1.021400	-0.438627	-0.896992
C68	C	1.009261	-0.457529	-0.196869
C69	C	1.012520	-0.452383	-0.118772
H70	H	0.266882	-0.336912	-0.471930
H71	H	0.731184	-0.367641	-0.450333
H72	H	1.121667	-1.194346	-0.370195
Br73	Br	0.577161	-0.341554	-0.468618
H74	H	0.917155	-1.077711	-0.457657
H75	H	1.206540	-1.284089	-0.292037
H76	H	0.917902	-0.978954	-0.557776
Br77	Br	0.254410	-0.606288	-0.283361
H78	H	0.400023	-0.329239	-0.477283
Br79	Br	1.178250	-1.025628	-0.085989
Br80	Br	1.124896	-0.278030	-0.963200
H81	H	1.094356	-0.325394	-1.115270
Br82	Br	1.097966	-0.319880	-0.632017
H83	H	0.936567	-0.570288	-0.975517
Br84	Br	0.879088	-0.659483	-0.796386
H85	H	0.909621	-0.612113	-0.644322
Br86	Br	0.758561	-0.634683	-0.263337
H87	H	0.406498	-0.562524	-0.313923
Br88	Br	0.585578	-0.644648	-0.256384
Br89	Br	1.112156	-0.826370	-0.277859
Br90	Br	1.067959	-0.909030	-0.187544
Br91	Br	1.256552	-1.237568	-0.145033
H92	H	0.772750	-0.726068	-0.590478
Br93	Br	0.825637	-0.911176	-0.672912
Br94	Br	0.779334	-0.603895	-0.453269
H95	H	0.882284	-0.742418	-0.388726
H96	H	1.067422	-0.367238	-0.784074
Br97	Br	0.906025	-0.617641	-1.127578
