data_functionalizedCrystal
_audit_creation_method	'MofGen! by Chris Wilmer'
_symmetry_space_group_name_H-M	'P1'
_symmetry_Int_Tables_number	1
_symmetry_cell_setting	triclinic
loop_
_symmetry_equiv_pos_as_xyz
  x,y,z
_cell_length_a	25.639239
_cell_length_b	25.639242
_cell_length_c	12.759387
_cell_angle_alpha	89.968335
_cell_angle_beta	89.963582
_cell_angle_gamma	90.034213
loop_
_atom_site_label
_atom_site_type_symbol
_atom_site_fract_x
_atom_site_fract_y
_atom_site_fract_z
Zn1	Zn	-0.208186	0.799274	-0.594277
Zn2	Zn	0.291814	1.299274	-0.094277
Zn3	Zn	-0.295631	0.799183	-0.418580
Zn4	Zn	0.204369	1.299183	0.081420
Zn5	Zn	-0.208205	0.711836	-0.418579
Zn6	Zn	0.291795	1.211836	0.081421
Zn7	Zn	-0.295585	0.711796	-0.594185
Zn8	Zn	0.204415	1.211796	-0.094185
O9	O	-0.251902	0.755522	-0.506405
O10	O	0.248098	1.255522	-0.006405
O11	O	-0.219797	0.872427	-0.571009
O12	O	0.280203	1.372427	-0.071009
O13	O	-0.284061	0.787575	-0.271559
O14	O	0.215939	1.287575	0.228441
O15	O	-0.135037	0.723490	-0.441924
O16	O	0.364963	1.223490	0.058076
O17	O	-0.284043	0.872360	-0.441925
O18	O	0.215957	1.372360	0.058075
O19	O	-0.135023	0.787730	-0.571008
O20	O	0.364977	1.287730	-0.071008
O21	O	-0.219830	0.723402	-0.271558
O22	O	0.280170	1.223402	0.228442
O23	O	-0.219785	0.638665	-0.441835
O24	O	0.280215	1.138665	0.058165
O25	O	-0.283964	0.723421	-0.741218
O26	O	0.216036	1.223421	-0.241218
O27	O	-0.283983	0.638636	-0.570852
O28	O	0.216017	1.138636	-0.070852
O29	O	-0.219752	0.787691	-0.741286
O30	O	0.280248	1.287691	-0.241286
O31	O	-0.368790	0.787536	-0.441836
O32	O	0.131210	1.287536	0.058164
O33	O	-0.368756	0.723333	-0.570852
O34	O	0.131244	1.223333	-0.070852
C35	C	-0.251881	0.619680	-0.506334
C36	C	0.248119	1.119680	-0.006334
C37	C	-0.251885	0.561566	-0.506328
C38	C	0.248115	1.061566	-0.006328
C39	C	-0.285385	0.201196	-0.573520
C40	C	0.214615	0.701196	-0.073520
C41	C	-0.285389	0.146592	-0.573537
C42	C	0.214611	0.646592	-0.073537
O43	O	-0.313846	0.118349	-0.630606
O44	O	0.186154	0.618349	-0.130606
N45	N	-0.251916	0.119283	-0.506474
N46	N	0.248084	0.619283	-0.006474
C47	C	-0.218434	0.146582	-0.439397
C48	C	0.281566	0.646582	0.060603
O49	O	-0.189963	0.118340	-0.382357
O50	O	0.310037	0.618340	0.117643
C51	C	-0.218429	0.201185	-0.439386
C52	C	0.281571	0.701185	0.060614
C53	C	-0.251907	0.228491	-0.506447
C54	C	0.248093	0.728491	-0.006447
C55	C	-0.318861	0.228502	-0.640576
C56	C	0.181139	0.728502	-0.140576
C57	C	-0.318858	0.283102	-0.640558
C58	C	0.181142	0.783102	-0.140558
C59	C	-0.285380	0.310397	-0.573484
C60	C	0.214620	0.810397	-0.073484
C61	C	-0.251905	0.283091	-0.506428
C62	C	0.248095	0.783091	-0.006428
C63	C	-0.184945	0.228483	-0.372316
C64	C	0.315055	0.728483	0.127684
C65	C	-0.184942	0.283090	-0.372312
C66	C	0.315058	0.783090	0.127688
C67	C	-0.218421	0.310395	-0.439372
C68	C	0.281579	0.810395	0.060628
C69	C	-0.218424	0.364987	-0.439336
C70	C	0.281576	0.864987	0.060664
N71	N	-0.251897	0.392295	-0.506400
N72	N	0.248103	0.892295	-0.006400
C73	C	-0.285375	0.365000	-0.573473
C74	C	0.214625	0.865000	-0.073473
C75	C	-0.218448	0.031911	-0.439425
C76	C	0.281552	0.531911	0.060575
C77	C	-0.218455	-0.022691	-0.439430
C78	C	0.281545	0.477309	0.060570
C79	C	-0.285409	-0.022678	-0.573571
C80	C	0.214591	0.477322	-0.073571
C81	C	-0.285404	0.031926	-0.573561
C82	C	0.214596	0.531926	-0.073561
C83	C	-0.251920	0.059220	-0.506489
C84	C	0.248080	0.559220	-0.006489
C85	C	-0.285367	0.479665	-0.573429
C86	C	0.214633	0.979665	-0.073429
C87	C	-0.285363	0.534271	-0.573402
C88	C	0.214637	1.034271	-0.073402
C89	C	-0.218408	0.534252	-0.439265
C90	C	0.281592	1.034252	0.060735
C91	C	-0.218413	0.479652	-0.439288
C92	C	0.281587	0.979652	0.060712
C93	C	-0.251895	0.452360	-0.506379
C94	C	0.248105	0.952360	-0.006379
O95	O	-0.189980	0.393264	-0.382300
O96	O	0.310020	0.893264	0.117700
O97	O	-0.313836	0.393249	-0.630514
O98	O	0.186164	0.893249	-0.130514
C99	C	-0.387744	0.755434	-0.506357
C100	C	0.112256	1.255434	-0.006357
C101	C	-0.445858	0.755444	-0.506372
C102	C	0.054142	1.255444	-0.006372
C103	C	-0.806226	0.789040	-0.439341
C104	C	-0.306226	1.289040	0.060659
C105	C	-0.860831	0.789060	-0.439355
C106	C	-0.360831	1.289060	0.060645
O107	O	-0.889072	0.817533	-0.382310
O108	O	-0.389072	1.317533	0.117690
N109	N	-0.888141	0.755614	-0.506475
N110	N	-0.388141	1.255614	-0.006475
C111	C	-0.860843	0.722149	-0.573592
C112	C	-0.360843	1.222149	-0.073592
O113	O	-0.889087	0.693703	-0.630685
O114	O	-0.389087	1.193703	-0.130685
C115	C	-0.806240	0.722132	-0.573583
C116	C	-0.306240	1.222132	-0.073583
C117	C	-0.778933	0.755577	-0.506451
C118	C	-0.278933	1.255577	-0.006451
C119	C	-0.778919	0.822482	-0.372216
C120	C	-0.278919	1.322482	0.127784
C121	C	-0.724319	0.822461	-0.372200
C122	C	-0.224319	1.322461	0.127800
C123	C	-0.697025	0.788998	-0.439311
C124	C	-0.197025	1.288998	0.060689
C125	C	-0.724333	0.755555	-0.506436
C126	C	-0.224333	1.255555	-0.006436
C127	C	-0.778944	0.688670	-0.640705
C128	C	-0.278944	1.188670	-0.140705
C129	C	-0.724337	0.688656	-0.640690
C130	C	-0.224337	1.188656	-0.140690
C131	C	-0.697030	0.722101	-0.573559
C132	C	-0.197030	1.222101	-0.073559
C133	C	-0.642439	0.722071	-0.573531
C134	C	-0.142439	1.222071	-0.073531
N135	N	-0.615129	0.755517	-0.506411
N136	N	-0.115129	1.255517	-0.006411
C137	C	-0.642422	0.788981	-0.439301
C138	C	-0.142422	1.288981	0.060699
C139	C	-0.975514	0.722189	-0.573609
C140	C	-0.475514	1.222189	-0.073609
C141	C	-1.030116	0.722203	-0.573614
C142	C	-0.530116	1.222203	-0.073614
C143	C	-1.030100	0.789115	-0.439377
C144	C	-0.530100	1.289115	0.060623
C145	C	-0.975497	0.789098	-0.439368
C146	C	-0.475497	1.289098	0.060632
C147	C	-0.948204	0.755635	-0.506489
C148	C	-0.448204	1.255635	-0.006489
C149	C	-0.527757	0.788934	-0.439274
C150	C	-0.027757	1.288934	0.060726
C151	C	-0.473152	0.788908	-0.439261
C152	C	0.026848	1.288908	0.060739
C153	C	-0.473173	0.721998	-0.573501
C154	C	0.026827	1.221998	-0.073501
C155	C	-0.527774	0.722021	-0.573510
C156	C	-0.027774	1.222021	-0.073510
C157	C	-0.555064	0.755493	-0.506393
C158	C	-0.055064	1.255493	-0.006393
O159	O	-0.614163	0.693614	-0.630550
O160	O	-0.114163	1.193614	-0.130550
O161	O	-0.614172	0.817427	-0.382228
O162	O	-0.114172	1.317427	0.117772
C163	C	-0.115529	0.755625	-0.506476
C164	C	0.384471	1.255625	-0.006476
C165	C	-0.057415	0.755668	-0.506507
C166	C	0.442585	1.255668	-0.006507
C167	C	-0.251850	0.755562	-0.780439
C168	C	0.248150	1.255562	-0.280439
C169	C	-0.251829	0.755579	-0.897216
C170	C	0.248171	1.255579	-0.397216
C171	C	-0.251923	0.891895	-0.506477
C172	C	0.248077	1.391895	-0.006477
C173	C	-0.251932	0.950009	-0.506508
C174	C	0.248068	1.450009	-0.006508
C175	C	-0.184969	0.822508	-0.897306
C176	C	0.315031	1.322508	-0.397306
C177	C	-0.151531	0.855979	-0.952212
C178	C	0.348469	1.355979	-0.452212
C179	C	-0.151512	0.855992	-1.061933
C180	C	0.348488	1.355992	-0.561933
C181	C	-0.184933	0.822528	-1.116752
C182	C	0.315067	1.322528	-0.616752
C183	C	-0.218371	0.789056	-1.061846
C184	C	0.281629	1.289056	-0.561846
C185	C	-0.218388	0.789048	-0.952121
C186	C	0.281612	1.289048	-0.452121
C187	C	-0.285227	0.722126	-1.061756
C188	C	0.214773	1.222126	-0.561756
C189	C	-0.285250	0.722115	-0.952034
C190	C	0.214750	1.222115	-0.452034
C191	C	-0.318648	0.688662	-1.116574
C192	C	0.181352	1.188662	-0.616574
C193	C	-0.352089	0.655192	-1.061668
C194	C	0.147911	1.155192	-0.561668
C195	C	-0.352107	0.655181	-0.951940
C196	C	0.147893	1.155181	-0.451940
C197	C	-0.318687	0.688643	-0.897128
C198	C	0.181313	1.188643	-0.397128
C199	C	-0.251915	0.755513	-0.233438
C200	C	0.248085	1.255513	0.266562
C201	C	-0.251790	0.755597	-0.116661
C202	C	0.248210	1.255597	0.383339
H203	H	-0.191199	-0.044919	-0.384812
H204	H	0.308801	0.455081	0.115188
H205	H	-0.450942	0.694751	-0.628138
H206	H	0.049058	1.194751	-0.128138
F207	F	-0.318627	0.688676	-1.233350
F208	F	0.181373	1.188676	-0.733350
H209	H	-0.191182	0.054130	-0.384800
H210	H	0.308818	0.554130	0.115200
F211	F	-0.387651	0.619579	-1.120015
F212	F	0.112349	1.119579	-0.620015
F213	F	-1.059173	0.686600	-0.645052
F214	F	-0.559173	1.186600	-0.145052
F215	F	-0.387694	0.619552	-0.893513
F216	F	0.112306	1.119552	-0.393513
F217	F	-0.149310	0.199434	-0.300945
F218	F	0.350690	0.699434	0.199055
F219	F	-0.556837	0.686417	-0.644939
F220	F	-0.056837	1.186417	-0.144939
H221	H	-0.318701	0.688639	-0.807787
H222	H	0.181299	1.188639	-0.307787
H223	H	-0.312627	0.556501	-0.628011
H224	H	0.187373	1.056501	-0.128011
F225	F	-0.946439	0.824694	-0.367918
F226	F	-0.446439	1.324694	0.132082
F227	F	-0.946472	0.686567	-0.645046
F228	F	-0.446472	1.186567	-0.145046
F229	F	-0.149303	0.312135	-0.300924
F230	F	0.350697	0.812135	0.199076
H231	H	-1.052332	0.816364	-0.384736
H232	H	-0.552332	1.316364	0.115264
H233	H	-0.801168	0.661433	-0.695366
H234	H	-0.301168	1.161433	-0.195366
H235	H	-0.191154	0.457418	-0.384680
H236	H	0.308846	0.957418	0.115320
H237	H	-0.346123	0.206284	-0.695201
H238	H	0.153877	0.706284	-0.195201
H239	H	-0.702118	0.661407	-0.695352
H240	H	-0.202118	1.161407	-0.195352
H241	H	-0.312629	0.457451	-0.628063
H242	H	0.187371	0.957451	-0.128063
F243	F	-0.321036	-0.051736	-0.644966
F244	F	0.178964	0.448264	-0.144966
F245	F	-0.556794	0.824558	-0.367840
F246	F	-0.056794	1.324558	0.132160
F247	F	-0.354488	0.312156	-0.711937
F248	F	0.145512	0.812156	-0.211937
H249	H	-0.312664	0.054154	-0.628169
H250	H	0.187336	0.554154	-0.128169
F251	F	-0.182780	0.563311	-0.367883
F252	F	0.317220	1.063311	0.132117
F253	F	-0.444092	0.824506	-0.367807
F254	F	0.055908	1.324506	0.132193
H255	H	-0.702088	0.849696	-0.317539
H256	H	-0.202088	1.349696	0.182461
F257	F	-0.807959	0.858103	-0.300783
F258	F	-0.307959	1.358103	0.199217
H259	H	-0.184986	0.822505	-0.807964
H260	H	0.315014	1.322505	-0.307964
F261	F	-0.115954	0.891582	-0.893863
F262	F	0.384046	1.391582	-0.393863
H263	H	-0.124281	0.883244	-1.106637
H264	H	0.375719	1.383244	-0.606637
H265	H	-0.184910	0.822537	-1.206093
H266	H	0.315090	1.322537	-0.706093
