data_functionalizedCrystal
_audit_creation_method	'MofGen! by Chris Wilmer'
_symmetry_space_group_name_H-M	'P1'
_symmetry_Int_Tables_number	1
_symmetry_cell_setting	triclinic
loop_
_symmetry_equiv_pos_as_xyz
  x,y,z
_cell_length_a	42.784839
_cell_length_b	42.784841
_cell_length_c	42.784893
_cell_angle_alpha	90.002418
_cell_angle_beta	59.997780
_cell_angle_gamma	119.999863
loop_
_atom_site_label
_atom_site_type_symbol
_atom_site_fract_x
_atom_site_fract_y
_atom_site_fract_z
O1	O	0.275695	-0.214412	-0.009300
O2	O	0.211692	-0.168961	0.009253
O3	O	0.275692	-0.168961	-0.054750
O4	O	0.211694	-0.214412	0.054702
O5	O	0.223708	-0.220945	-0.054749
O6	O	0.159708	-0.220945	0.009253
O7	O	0.223710	-0.266397	-0.009300
Zn8	Zn	0.183455	-0.251924	-0.000023
Zn9	Zn	0.251947	-0.183433	-0.000024
O10	O	0.159710	-0.266396	0.054703
C11	C	0.051021	-0.022778	0.028112
C12	C	0.013142	-0.041761	0.028375
C13	C	0.051018	-0.079378	0.028116
C14	C	0.013139	-0.098275	0.028379
C15	C	-0.005578	-0.079377	0.028112
C16	C	0.069652	-0.041762	0.028379
C17	C	0.152948	0.113708	0.017863
C18	C	0.173786	0.152360	0.014965
C19	C	0.155902	0.171750	0.013509
C20	C	0.178499	0.213661	0.010359
C21	C	0.117177	0.152485	0.014953
C22	C	0.096339	0.113835	0.017857
C23	C	0.114226	0.094447	0.019312
C24	C	-0.131813	-0.113936	0.017859
C25	C	-0.167567	-0.131750	0.014961
C26	C	-0.185502	-0.169024	0.013506
C27	C	-0.224264	-0.188340	0.010358
C28	C	-0.167685	-0.188485	0.014954
C29	C	-0.131938	-0.170675	0.017859
C30	C	-0.114002	-0.133396	0.019309
C31	C	0.152939	-0.113943	0.017877
C32	C	0.173778	-0.131757	0.014977
C33	C	0.155892	-0.169032	0.013523
C34	C	0.178486	-0.188349	0.010377
C35	C	0.117170	-0.188491	0.014967
C36	C	0.096334	-0.170675	0.017865
C37	C	0.114220	-0.133401	0.019323
C38	C	0.091629	0.052537	0.022456
C39	C	0.073617	0.019131	0.024964
C40	C	0.073613	-0.098693	0.024971
C41	C	0.091623	-0.114089	0.022466
C42	C	-0.044339	-0.098690	0.024964
C43	C	-0.075237	-0.114084	0.022456
O44	O	-0.327856	-0.266388	-0.009322
O45	O	-0.236954	-0.220935	0.009228
O46	O	-0.236950	-0.220939	-0.054773
O47	O	-0.327860	-0.266385	0.054680
O48	O	-0.236948	-0.168954	-0.054776
O49	O	-0.236952	-0.168950	0.009225
O50	O	-0.327854	-0.214403	-0.009325
Zn51	Zn	-0.282403	-0.183423	-0.000050
Zn52	Zn	-0.282405	-0.251916	-0.000046
O53	O	-0.327858	-0.214400	0.054676
C54	C	0.384390	-0.079141	-0.361606
C55	C	0.422270	-0.041526	-0.380503
C56	C	0.384390	-0.079141	-0.305008
C57	C	0.422270	-0.041526	-0.323990
C58	C	0.440988	-0.022543	-0.361606
C59	C	0.365758	-0.098038	-0.323991
C60	C	0.282465	-0.170819	-0.396168
C61	C	0.261627	-0.188759	-0.413983
C62	C	0.279513	-0.169420	-0.451257
C63	C	0.256917	-0.188867	-0.470572
C64	C	0.318239	-0.132140	-0.470717
C65	C	0.339076	-0.114205	-0.452905
C66	C	0.321187	-0.133546	-0.415628
C67	C	0.567227	0.113942	-0.453282
C68	C	0.602981	0.152594	-0.471222
C69	C	0.620916	0.171985	-0.451883
C70	C	0.659678	0.213894	-0.471328
C71	C	0.603097	0.152719	-0.414603
C72	C	0.567349	0.114068	-0.396667
C73	C	0.549414	0.094682	-0.416011
C74	C	0.282465	-0.170819	-0.168522
C75	C	0.261624	-0.188757	-0.129868
C76	C	0.279510	-0.169418	-0.110479
C77	C	0.256914	-0.188865	-0.068568
C78	C	0.318233	-0.132140	-0.129742
C79	C	0.339070	-0.114203	-0.168394
C80	C	0.321184	-0.133548	-0.187782
C81	C	0.343783	-0.114094	-0.396315
C82	C	0.361794	-0.098590	-0.380920
C83	C	0.361794	-0.098590	-0.263099
C84	C	0.343783	-0.114094	-0.229693
C85	C	0.479750	0.019366	-0.381054
C86	C	0.510649	0.052771	-0.396557
C87	C	0.440758	-0.356212	-0.028193
C88	C	0.422041	-0.393827	-0.028459
C89	C	0.384158	-0.356213	-0.028190
C90	C	0.365526	-0.393828	-0.028456
C91	C	0.384160	-0.412810	-0.028193
C92	C	0.422038	-0.337315	-0.028456
C93	C	0.567000	-0.264532	-0.017949
C94	C	0.602755	-0.246591	-0.015053
C95	C	0.620692	-0.265931	-0.013601
C96	C	0.659455	-0.246483	-0.010453
C97	C	0.602873	-0.303210	-0.015048
C98	C	0.567125	-0.321146	-0.017949
C99	C	0.549188	-0.301805	-0.019399
C100	C	0.339356	-0.549295	-0.017951
C101	C	0.318645	-0.587947	-0.015055
C102	C	0.279915	-0.607338	-0.013597
C103	C	0.257452	-0.649247	-0.010452
C104	C	0.261899	-0.588073	-0.015042
C105	C	0.282613	-0.549422	-0.017945
C106	C	0.321343	-0.530035	-0.019397
C107	C	0.339344	-0.264537	-0.017936
C108	C	0.318628	-0.246599	-0.015032
C109	C	0.279898	-0.265939	-0.013577
C110	C	0.257433	-0.246493	-0.010426
C111	C	0.261884	-0.303217	-0.015022
C112	C	0.282601	-0.321153	-0.017924
C113	C	0.321334	-0.301808	-0.019385
C114	C	0.510421	-0.321258	-0.022542
C115	C	0.479522	-0.336762	-0.025048
C116	C	0.361696	-0.336765	-0.025041
C117	C	0.343793	-0.321261	-0.022532
C118	C	0.361701	-0.454719	-0.025047
C119	C	0.343799	-0.488125	-0.022541
O120	O	0.223728	0.336934	-0.009323
O121	O	0.159726	0.227482	0.009227
O122	O	0.223729	0.291478	-0.054775
O123	O	0.159725	0.272938	0.054678
O124	O	0.275711	0.291477	-0.054771
O125	O	0.211707	0.227481	0.009230
O126	O	0.275710	0.336932	-0.009320
Zn127	Zn	0.251962	0.282206	-0.000045
Zn128	Zn	0.183474	0.282208	-0.000049
O129	O	0.211707	0.272936	0.054681
O130	O	0.763271	0.337164	-0.496871
O131	O	0.672367	0.227713	-0.451422
O132	O	0.672365	0.291711	-0.451418
O133	O	0.763273	0.273165	-0.496876
O134	O	0.672366	0.291712	-0.503402
O135	O	0.672368	0.227714	-0.503407
O136	O	0.763272	0.337165	-0.548856
Zn137	Zn	0.717820	0.282440	-0.534385
Zn138	Zn	0.717819	0.282438	-0.465893
O139	O	0.763275	0.273167	-0.548860
O140	O	0.211690	-0.214417	-0.548617
O141	O	0.275691	-0.168962	-0.503167
O142	O	0.211689	-0.168964	-0.503163
O143	O	0.275692	-0.214415	-0.548621
O144	O	0.159706	-0.220947	-0.451179
O145	O	0.223708	-0.220945	-0.451183
O146	O	0.159707	-0.266400	-0.496633
Zn147	Zn	0.183454	-0.251926	-0.465654
Zn148	Zn	0.251944	-0.183436	-0.534146
O149	O	0.223709	-0.266398	-0.496637
C150	C	-0.005343	-0.412572	0.361558
C151	C	0.013375	-0.393590	0.380456
C152	C	0.051255	-0.355974	0.304961
C153	C	0.069887	-0.337077	0.323944
C154	C	0.051254	-0.355974	0.361560
C155	C	0.013375	-0.393589	0.323943
C156	C	-0.131582	-0.549057	0.396116
C157	C	-0.167336	-0.587709	0.413930
C158	C	-0.185271	-0.607098	0.451205
C159	C	-0.224034	-0.649009	0.470519
C160	C	-0.167452	-0.587833	0.470666
C161	C	-0.131705	-0.549184	0.452854
C162	C	-0.113770	-0.529796	0.415578
C163	C	0.096061	-0.321414	0.453239
C164	C	0.116773	-0.303600	0.471179
C165	C	0.155502	-0.266327	0.451842
C166	C	0.177965	-0.247011	0.471288
C167	C	0.173517	-0.246866	0.414562
C168	C	0.152802	-0.264677	0.396625
C169	C	0.114073	-0.301955	0.415968
C170	C	0.096064	-0.321412	0.168474
C171	C	0.116779	-0.303599	0.129820
C172	C	0.155508	-0.266324	0.110432
C173	C	0.177972	-0.247009	0.068521
C174	C	0.173522	-0.246865	0.129696
C175	C	0.152807	-0.264680	0.168348
C176	C	0.114075	-0.301953	0.187735
C177	C	-0.075004	-0.487887	0.396265
C178	C	-0.044106	-0.454481	0.380871
C179	C	0.073715	-0.336660	0.263052
C180	C	0.091618	-0.321265	0.229646
C181	C	0.073714	-0.336661	0.381009
C182	C	0.091616	-0.321267	0.396513
C183	C	0.051046	-0.022794	-0.361634
C184	C	0.069679	-0.041778	-0.380530
C185	C	-0.005555	-0.079390	-0.305034
C186	C	0.013163	-0.098288	-0.324016
C187	C	0.051045	-0.079393	-0.361631
C188	C	0.013164	-0.041775	-0.324018
C189	C	0.095858	0.113693	-0.396200
C190	C	0.116571	0.152344	-0.414015
C191	C	0.155302	0.171732	-0.451290
C192	C	0.177767	0.213642	-0.470607
C193	C	0.173317	0.152465	-0.470750
C194	C	0.152600	0.113815	-0.452936
C195	C	0.113869	0.094429	-0.415659
C196	C	0.152973	-0.113959	-0.453306
C197	C	0.173810	-0.131775	-0.471245
C198	C	0.155926	-0.169048	-0.451906
C199	C	0.178519	-0.188366	-0.471350
C200	C	0.117198	-0.188507	-0.414626
C201	C	0.096358	-0.170694	-0.396690
C202	C	0.114251	-0.133416	-0.416035
C203	C	-0.131801	-0.113944	-0.168548
C204	C	-0.167554	-0.131755	-0.129895
C205	C	-0.185491	-0.169029	-0.110504
C206	C	-0.224255	-0.188343	-0.068593
C207	C	-0.167671	-0.188490	-0.129767
C208	C	-0.131918	-0.170677	-0.168418
C209	C	-0.113988	-0.133404	-0.187808
C210	C	0.091411	0.052521	-0.396344
C211	C	0.073508	0.019115	-0.380949
C212	C	-0.044320	-0.098701	-0.263125
C213	C	-0.075220	-0.114094	-0.229719
C214	C	0.073641	-0.098707	-0.381079
C215	C	0.091652	-0.114103	-0.396582
C216	C	-0.615853	-0.356193	0.361535
C217	C	-0.634487	-0.393808	0.380433
C218	C	-0.559253	-0.356195	0.304938
C219	C	-0.577972	-0.393810	0.323921
C220	C	-0.615854	-0.412792	0.361537
C221	C	-0.577972	-0.337297	0.323920
C222	C	-0.660661	-0.264512	0.396093
C223	C	-0.681373	-0.246571	0.413906
C224	C	-0.720104	-0.265909	0.451181
C225	C	-0.742568	-0.246461	0.470495
C226	C	-0.738120	-0.303189	0.470643
C227	C	-0.717405	-0.321125	0.452831
C228	C	-0.678674	-0.301785	0.415554
C229	C	-0.717784	-0.549275	0.453218
C230	C	-0.738622	-0.587926	0.471159
C231	C	-0.720740	-0.607319	0.451822
C232	C	-0.743333	-0.649227	0.471268
C233	C	-0.682012	-0.588055	0.414542
C234	C	-0.661170	-0.549403	0.396604
C235	C	-0.679063	-0.530016	0.415946
C236	C	-0.433006	-0.264522	0.168449
C237	C	-0.397253	-0.246585	0.129796
C238	C	-0.379317	-0.265926	0.110407
C239	C	-0.340553	-0.246480	0.068496
C240	C	-0.397138	-0.303204	0.129672
C241	C	-0.432891	-0.321139	0.168324
C242	C	-0.450820	-0.301793	0.187711
C243	C	-0.656216	-0.321238	0.396242
C244	C	-0.638314	-0.336743	0.380848
C245	C	-0.520488	-0.336748	0.263028
C246	C	-0.489588	-0.321245	0.229622
C247	C	-0.638451	-0.454700	0.380987
C248	C	-0.656463	-0.488106	0.396492
C249	C	0.440756	0.310302	-0.361620
C250	C	0.422038	0.310564	-0.380518
C251	C	0.384160	0.310312	-0.305026
C252	C	0.365528	0.310574	-0.324010
C253	C	0.384159	0.310303	-0.361624
C254	C	0.422038	0.310573	-0.324006
C255	C	0.566989	0.300046	-0.396172
C256	C	0.602741	0.297145	-0.413984
C257	C	0.620675	0.295684	-0.451257
C258	C	0.659436	0.292531	-0.470569
C259	C	0.602857	0.297127	-0.470719
C260	C	0.567111	0.300033	-0.452909
C261	C	0.549177	0.301493	-0.415634
C262	C	0.339351	0.300042	-0.453303
C263	C	0.318640	0.297142	-0.471244
C264	C	0.279912	0.295690	-0.451908
C265	C	0.257449	0.292541	-0.471354
C266	C	0.261899	0.297143	-0.414629
C267	C	0.282613	0.300049	-0.396692
C268	C	0.321341	0.301496	-0.416033
C269	C	0.339354	0.300088	-0.168540
C270	C	0.318640	0.297192	-0.129888
C271	C	0.279912	0.295742	-0.110501
C272	C	0.257450	0.292601	-0.068591
C273	C	0.261898	0.297184	-0.129766
C274	C	0.282612	0.300078	-0.168417
C275	C	0.321344	0.301533	-0.187802
C276	C	0.510413	0.304640	-0.396323
C277	C	0.479516	0.307151	-0.380931
C278	C	0.361701	0.307173	-0.263117
C279	C	0.343799	0.304671	-0.229712
C280	C	0.361700	0.307154	-0.381073
C281	C	0.343798	0.304644	-0.396578
O282	O	0.275503	0.336913	-0.548651
O283	O	0.211494	0.227461	-0.503201
O284	O	0.275490	0.291455	-0.503192
O285	O	0.211507	0.272919	-0.548659
O286	O	0.223502	0.291457	-0.451211
O287	O	0.159506	0.227463	-0.451219
O288	O	0.223515	0.336915	-0.496669
Zn289	Zn	0.183256	0.282189	-0.465691
Zn290	Zn	0.251753	0.282187	-0.534179
O291	O	0.159519	0.272921	-0.496677
C292	C	0.051032	0.254111	0.361530
C293	C	0.013154	0.253851	0.380425
C294	C	0.051031	0.254102	0.304932
C295	C	0.013153	0.253842	0.323913
C296	C	-0.005564	0.254113	0.361527
C297	C	0.069663	0.253840	0.323916
C298	C	0.152954	0.264360	0.396096
C299	C	0.173791	0.267260	0.413911
C300	C	0.155906	0.268721	0.451185
C301	C	0.178502	0.271871	0.470501
C302	C	0.117182	0.267279	0.470643
C303	C	0.096345	0.264374	0.452830
C304	C	0.114233	0.262915	0.415555
C305	C	-0.131796	0.264379	0.453195
C306	C	-0.167548	0.267281	0.471133
C307	C	-0.185483	0.268734	0.451793
C308	C	-0.224243	0.271886	0.471236
C309	C	-0.167664	0.267282	0.414515
C310	C	-0.131919	0.264374	0.396581
C311	C	-0.113984	0.262925	0.415925
C312	C	0.152952	0.264325	0.168451
C313	C	0.173792	0.267221	0.129798
C314	C	0.155907	0.268673	0.110407
C315	C	0.178502	0.271814	0.068498
C316	C	0.117186	0.267232	0.129669
C317	C	0.096350	0.264339	0.168320
C318	C	0.114234	0.262881	0.187709
C319	C	0.091638	0.259769	0.396240
C320	C	0.073627	0.257260	0.380845
C321	C	0.073626	0.257242	0.263024
C322	C	0.091636	0.259743	0.229619
C323	C	-0.044324	0.257264	0.380973
C324	C	-0.075221	0.259775	0.396474
H325	H	0.102606	-0.218843	0.013783
C326	C	-0.112089	-0.072934	0.019459
C327	C	-0.063256	-0.040767	-0.011521
C328	C	-0.043530	0.000235	-0.009922
C329	C	-0.072636	0.009070	0.022658
C330	C	-0.121472	-0.023098	0.053640
C331	C	-0.141198	-0.064100	0.052041
H332	H	-0.041707	-0.047307	-0.035640
H333	H	-0.007378	0.024047	-0.032857
H334	H	-0.058034	0.039422	0.023841
H335	H	-0.143021	-0.016558	0.077759
H336	H	-0.177350	-0.087912	0.074976
C337	C	-0.007995	0.253306	0.422168
C338	C	0.012603	0.253042	0.443041
C339	C	-0.008538	0.252509	0.484779
C340	C	-0.050279	0.252238	0.505645
C341	C	-0.070880	0.252502	0.484772
C342	C	-0.049739	0.253036	0.443034
H343	H	0.043505	0.253243	0.427595
H344	H	0.006712	0.252314	0.500230
H345	H	-0.065930	0.251843	0.536542
H346	H	-0.101782	0.252302	0.500218
H347	H	-0.064989	0.253231	0.427583
H348	H	0.230091	-0.219108	-0.114185
H349	H	-0.182293	-0.218837	0.013775
H350	H	-0.664969	-0.409045	0.411340
H351	H	0.267897	-0.186572	-0.184305
H352	H	0.617485	0.168277	-0.501573
H353	H	0.267943	-0.533739	-0.019121
C354	C	-0.186932	-0.608900	0.392523
C355	C	-0.206207	-0.594802	0.378787
C356	C	-0.225801	-0.615994	0.357379
C357	C	-0.226120	-0.651283	0.349706
C358	C	-0.206844	-0.665382	0.363442
C359	C	-0.187250	-0.644191	0.384850
H360	H	-0.205971	-0.568678	0.384467
H361	H	-0.240070	-0.605556	0.347211
H362	H	-0.240625	-0.666970	0.333858
H363	H	-0.207080	-0.691507	0.357762
H364	H	-0.172981	-0.654629	0.395018
H365	H	-0.382532	-0.318952	0.113884
C366	C	0.324581	-0.139790	-0.303401
C367	C	0.304000	-0.160664	-0.261940
C368	C	0.262826	-0.202415	-0.241350
C369	C	0.242233	-0.223292	-0.262222
C370	C	0.262815	-0.202418	-0.303686
C371	C	0.303989	-0.160667	-0.324276
H372	H	0.319245	-0.145210	-0.246487
H373	H	0.247591	-0.217867	-0.210656
H374	H	0.211754	-0.254198	-0.246981
H375	H	0.247570	-0.217872	-0.319139
H376	H	0.319224	-0.145215	-0.354970
H377	H	-0.667447	-0.603843	0.398798
C378	C	-0.618574	-0.528215	0.355599
C379	C	-0.575610	-0.492924	0.347602
C380	C	-0.533014	-0.471735	0.306596
C381	C	-0.533382	-0.485838	0.273588
C382	C	-0.576348	-0.521130	0.281585
C383	C	-0.618943	-0.542319	0.322591
H384	H	-0.575336	-0.482483	0.372037
H385	H	-0.501208	-0.445609	0.300676
H386	H	-0.501850	-0.470153	0.243233
H387	H	-0.576621	-0.531571	0.257149
H388	H	-0.650749	-0.568445	0.328510
H389	H	0.205343	-0.115928	-0.501596
H390	H	0.552400	-0.248780	-0.019131
H391	H	0.333308	0.295959	-0.501595
C392	C	0.219030	-0.229762	-0.392576
C393	C	0.177690	-0.238525	-0.354606
C394	C	0.135091	-0.279527	-0.333199
C395	C	0.133831	-0.311766	-0.349761
C396	C	0.175172	-0.303004	-0.387733
C397	C	0.217772	-0.262001	-0.409141
H398	H	0.178621	-0.214659	-0.342344
H399	H	0.104488	-0.286014	-0.305090
H400	H	0.102297	-0.342119	-0.333914
H401	H	0.174241	-0.326870	-0.399996
H402	H	0.248375	-0.255515	-0.437250
C403	C	0.443203	-0.414415	-0.029028
C404	C	0.416357	-0.451515	0.003746
C405	C	0.437517	-0.472103	0.003181
C406	C	0.485522	-0.455591	-0.030158
C407	C	0.512370	-0.418489	-0.062934
C408	C	0.491211	-0.397901	-0.062369
H409	H	0.380819	-0.463740	0.028427
H410	H	0.417642	-0.499568	0.027444
H411	H	0.501186	-0.470831	-0.030576
H412	H	0.547909	-0.406264	-0.087616
H413	H	0.511086	-0.370436	-0.086632
H414	H	-0.182060	-0.603623	0.501016
C415	C	0.262800	0.301668	-0.189609
C416	C	0.220204	0.300075	-0.168286
C417	C	0.200391	0.301665	-0.189478
C418	C	0.223174	0.304848	-0.231992
C419	C	0.265773	0.306441	-0.253316
C420	C	0.285586	0.304851	-0.232125
H421	H	0.203336	0.297719	-0.136813
H422	H	0.168856	0.300486	-0.173692
H423	H	0.208507	0.306025	-0.247679
H424	H	0.282640	0.308797	-0.284790
H425	H	0.317120	0.306030	-0.247911
C426	C	0.172415	0.092624	-0.474339
C427	C	0.149629	0.050110	-0.454742
C428	C	0.169445	0.028918	-0.476145
C429	C	0.212047	0.050241	-0.517145
C430	C	0.234835	0.092757	-0.536743
C431	C	0.215019	0.113949	-0.515341
H432	H	0.118090	0.034323	-0.424390
H433	H	0.152575	-0.002555	-0.461637
H434	H	0.226716	0.034554	-0.532988
H435	H	0.266374	0.108544	-0.567096
H436	H	0.231889	0.145422	-0.529849
C437	C	0.443197	0.311130	-0.422269
C438	C	0.484943	0.311408	-0.443143
C439	C	0.506100	0.311973	-0.484891
C440	C	0.485512	0.312261	-0.505766
C441	C	0.443764	0.311984	-0.484892
C442	C	0.422606	0.311418	-0.443143
H443	H	0.500186	0.311195	-0.427690
H444	H	0.537005	0.312179	-0.500343
H445	H	0.501173	0.312680	-0.536670
H446	H	0.428521	0.312197	-0.500344
H447	H	0.391701	0.311212	-0.427691
C448	C	0.381666	-0.073200	-0.189584
C449	C	0.424629	-0.065204	-0.224876
C450	C	0.467225	-0.024200	-0.246067
C451	C	0.466859	0.008808	-0.231965
C452	C	0.423894	0.000814	-0.196670
C453	C	0.381297	-0.040190	-0.175480
H454	H	0.424902	-0.089640	-0.235317
H455	H	0.499031	-0.018282	-0.272194
H456	H	0.498391	0.039162	-0.247651
H457	H	0.423621	0.025249	-0.186229
H458	H	0.349492	-0.046108	-0.149353
C459	C	0.443443	-0.020940	-0.422258
C460	C	0.422860	-0.041814	-0.443138
C461	C	0.444037	-0.021229	-0.484894
C462	C	0.485796	0.020230	-0.505770
C463	C	0.506381	0.041106	-0.484890
C464	C	0.485205	0.020522	-0.443134
H465	H	0.391945	-0.072506	-0.427684
H466	H	0.428798	-0.036684	-0.500350
H467	H	0.501472	0.035468	-0.536680
H468	H	0.537296	0.071799	-0.500344
H469	H	0.500443	0.035976	-0.427678
H470	H	0.205322	0.268398	0.114116
C471	C	0.622350	-0.205589	-0.013456
C472	C	0.641623	-0.172579	-0.046828
C473	C	0.661217	-0.131577	-0.045230
C474	C	0.661538	-0.123584	-0.010261
C475	C	0.642265	-0.156596	0.023113
C476	C	0.622671	-0.197598	0.021515
H477	H	0.641386	-0.178494	-0.072716
H478	H	0.675485	-0.107140	-0.069936
H479	H	0.676043	-0.093232	-0.009078
H480	H	0.642502	-0.150680	0.049001
H481	H	0.608403	-0.222035	0.046221
H482	H	0.332793	-0.116391	-0.113952
H483	H	0.267896	-0.186572	-0.365817
H484	H	-0.182059	-0.115906	-0.114213
H485	H	0.230365	-0.603862	-0.013858
H486	H	0.205307	-0.115910	0.013801
C487	C	0.337910	-0.110868	-0.511717
C488	C	0.352223	-0.127533	-0.543886
C489	C	0.371896	-0.106258	-0.584887
C490	C	0.377256	-0.068319	-0.593718
C491	C	0.362943	-0.051652	-0.561548
C492	C	0.343270	-0.072926	-0.520547
H493	H	0.348255	-0.155620	-0.537349
H494	H	0.382491	-0.118597	-0.608701
H495	H	0.391819	-0.052570	-0.624069
H496	H	0.366911	-0.023565	-0.568085
H497	H	0.332675	-0.060588	-0.496733
C498	C	-0.556805	-0.295546	0.303328
C499	C	-0.577394	-0.274668	0.324199
C500	C	-0.556228	-0.232919	0.303607
C501	C	-0.514472	-0.212047	0.262144
C502	C	-0.493880	-0.232924	0.241272
C503	C	-0.515047	-0.274674	0.261863
H504	H	-0.608307	-0.290119	0.354894
H505	H	-0.571471	-0.217464	0.319059
H506	H	-0.498803	-0.181141	0.246901
H507	H	-0.462968	-0.217474	0.210577
H508	H	-0.499803	-0.290129	0.246412
H509	H	0.100149	0.253421	0.308676
H510	H	-0.117412	-0.186525	-0.184100
H511	H	-0.447397	-0.351491	0.184007
C512	C	0.219298	0.295589	-0.108444
C513	C	0.218112	0.326574	-0.090598
C514	C	0.175513	0.324980	-0.069278
C515	C	0.134100	0.292401	-0.065803
C516	C	0.135283	0.261413	-0.083649
C517	C	0.177882	0.263008	-0.104970
H518	H	0.248771	0.350693	-0.093170
H519	H	0.174637	0.347919	-0.056067
H520	H	0.102565	0.291220	-0.050020
H521	H	0.104625	0.237294	-0.081078
H522	H	0.178758	0.240069	-0.118181
H523	H	0.102633	-0.218858	-0.398880
C524	C	0.622825	0.174045	-0.393329
C525	C	0.671658	0.191901	-0.409996
C526	C	0.691385	0.213228	-0.388721
C527	C	0.662278	0.216699	-0.350779
C528	C	0.613441	0.198843	-0.334110
C529	C	0.593714	0.177516	-0.355385
H530	H	0.693208	0.189332	-0.438085
H531	H	0.727537	0.226446	-0.401061
H532	H	0.676880	0.232487	-0.335030
H533	H	0.591891	0.201412	-0.306021
H534	H	0.557562	0.164298	-0.343045
C535	C	0.096961	-0.325004	0.108633
C536	C	0.124249	-0.332682	0.073342
C537	C	0.104428	-0.354088	0.052156
C538	C	0.057319	-0.367816	0.066260
C539	C	0.030029	-0.360138	0.101553
C540	C	0.049850	-0.338732	0.122739
H541	H	0.159124	-0.322520	0.062899
H542	H	0.124631	-0.359772	0.026029
H543	H	0.042646	-0.383661	0.050577
H544	H	-0.004847	-0.370300	0.111996
H545	H	0.029647	-0.333048	0.148865
C546	C	0.622337	0.295552	-0.392576
C547	C	0.593130	0.262982	-0.354604
C548	C	0.612724	0.261388	-0.333195
C549	C	0.661526	0.292365	-0.349758
C550	C	0.690736	0.324938	-0.387732
C551	C	0.671141	0.326531	-0.409141
H552	H	0.557001	0.240049	-0.342341
H553	H	0.591101	0.237276	-0.305084
H554	H	0.676031	0.291185	-0.333910
H555	H	0.726864	0.347871	-0.399995
H556	H	0.692764	0.350644	-0.437252
H557	H	-0.769653	-0.318930	0.500992
H558	H	0.101900	0.168027	-0.398169
H559	H	-0.666703	-0.216219	0.398058
C560	C	0.053252	0.092370	-0.355198
C561	C	0.053546	0.106371	-0.322126
C562	C	0.010942	0.085047	-0.281125
C563	C	-0.031956	0.049722	-0.273196
C564	C	-0.032251	0.035719	-0.306269
C565	C	0.010353	0.057043	-0.347270
H566	H	0.085303	0.132522	-0.327995
H567	H	0.011161	0.095413	-0.256642
H568	H	-0.063494	0.033937	-0.242844
H569	H	-0.064008	0.009568	-0.300400
H570	H	0.010134	0.046677	-0.371753
H571	H	0.100131	-0.026521	0.028807
H572	H	0.370881	-0.248784	-0.019122
H573	H	0.064825	-0.186540	-0.366338
C574	C	-0.007790	-0.414178	0.422208
C575	C	-0.024627	-0.397666	0.453698
C576	C	-0.045790	-0.418253	0.495448
C577	C	-0.050116	-0.455352	0.505709
C578	C	-0.033279	-0.471865	0.474219
C579	C	-0.012115	-0.451278	0.432468
H580	H	-0.021425	-0.370202	0.446103
H581	H	-0.058255	-0.406029	0.518760
H582	H	-0.065783	-0.470592	0.536616
H583	H	-0.036481	-0.499330	0.481814
H584	H	0.000349	-0.463503	0.409157
H585	H	0.267931	-0.351506	-0.019101
H586	H	0.552607	0.301210	-0.468757
C587	C	0.443197	-0.295564	-0.029030
C588	C	0.460028	-0.264079	-0.062376
C589	C	0.481185	-0.222329	-0.062950
C590	C	0.485510	-0.212064	-0.030178
C591	C	0.468678	-0.243549	0.003171
C592	C	0.447522	-0.285299	0.003745
H593	H	0.456827	-0.271677	-0.086639
H594	H	0.493644	-0.199021	-0.087637
H595	H	0.501171	-0.181158	-0.030602
H596	H	0.471880	-0.235951	0.027434
H597	H	0.435063	-0.308607	0.028433
H598	H	0.102618	0.168275	0.013770
C599	C	0.338458	-0.609137	-0.013461
C600	C	0.385568	-0.595039	-0.046835
C601	C	0.405380	-0.616230	-0.045240
C602	C	0.378083	-0.651519	-0.010272
C603	C	0.330970	-0.665619	0.023105
C604	C	0.311157	-0.644428	0.021510
H605	H	0.405777	-0.568914	-0.072723
H606	H	0.440256	-0.605792	-0.069948
H607	H	0.392749	-0.667206	-0.009091
H608	H	0.310760	-0.691744	0.048993
H609	H	0.276281	-0.654866	0.046218
C610	C	0.215918	0.173790	-0.511750
C611	C	0.217109	0.191645	-0.543919
C612	C	0.259713	0.212970	-0.584920
C613	C	0.301125	0.216441	-0.593753
C614	C	0.299935	0.198586	-0.561584
C615	C	0.257331	0.177261	-0.520582
H616	H	0.186453	0.189075	-0.537381
H617	H	0.260593	0.226187	-0.608734
H618	H	0.332662	0.232227	-0.624105
H619	H	0.330592	0.201155	-0.568122
H620	H	0.256451	0.164044	-0.496768
C621	C	-0.187399	-0.229493	-0.108440
C622	C	-0.236231	-0.261660	-0.090590
C623	C	-0.255958	-0.302662	-0.069266
C624	C	-0.226853	-0.311496	-0.065792
C625	C	-0.178018	-0.279328	-0.083642
C626	C	-0.158292	-0.238326	-0.104967
H627	H	-0.257779	-0.255122	-0.093162
H628	H	-0.292109	-0.326475	-0.056052
H629	H	-0.241456	-0.341848	-0.050006
H630	H	-0.156471	-0.285867	-0.081071
H631	H	-0.122141	-0.214513	-0.118181
C632	C	0.096961	-0.325007	0.512182
C633	C	0.091570	-0.362975	0.520942
C634	C	0.071759	-0.384383	0.561945
C635	C	0.057339	-0.367823	0.594186
C636	C	0.062731	-0.329853	0.585426
C637	C	0.082542	-0.308445	0.544424
H638	H	0.102244	-0.375235	0.497075
H639	H	0.067768	-0.412491	0.568429
H640	H	0.042674	-0.383671	0.624538
H641	H	0.052056	-0.317593	0.609294
H642	H	0.086533	-0.280337	0.537939
C643	C	-0.377650	-0.205580	0.108605
C644	C	-0.406847	-0.196806	0.105233
C645	C	-0.387242	-0.155800	0.084043
C646	C	-0.338439	-0.123569	0.066223
C647	C	-0.309240	-0.132342	0.069594
C648	C	-0.328845	-0.173348	0.090785
H649	H	-0.442976	-0.220667	0.118425
H650	H	-0.408858	-0.149306	0.081547
H651	H	-0.323927	-0.093213	0.050537
H652	H	-0.273111	-0.108482	0.056403
H653	H	-0.307229	-0.179843	0.093280
C654	C	0.219282	-0.324495	-0.013424
C655	C	0.177869	-0.362435	0.019153
C656	C	0.135270	-0.383712	0.020750
C657	C	0.134083	-0.367049	-0.010230
C658	C	0.175497	-0.329107	-0.042810
C659	C	0.218097	-0.307830	-0.044407
H660	H	0.178747	-0.374772	0.042089
H661	H	0.104612	-0.411800	0.044868
H662	H	0.102548	-0.382800	-0.009048
H663	H	0.174620	-0.316770	-0.065746
H664	H	0.248754	-0.279742	-0.068525
C665	C	0.111068	-0.295327	0.303357
C666	C	0.131664	-0.274452	0.261890
C667	C	0.172845	-0.232704	0.241303
C668	C	0.193429	-0.211832	0.262183
C669	C	0.172833	-0.232708	0.303652
C670	C	0.131652	-0.274455	0.324238
H671	H	0.116427	-0.289902	0.246432
H672	H	0.188092	-0.217251	0.210605
H673	H	0.223914	-0.180928	0.246943
H674	H	0.188070	-0.217257	0.319110
H675	H	0.116405	-0.289908	0.354936
C676	C	0.443192	0.311139	-0.303411
C677	C	0.484933	0.311410	-0.324277
C678	C	0.506081	0.311971	-0.303680
C679	C	0.485489	0.312262	-0.262216
C680	C	0.443745	0.311992	-0.241348
C681	C	0.422597	0.311430	-0.261945
H682	H	0.500179	0.311195	-0.354973
H683	H	0.536982	0.312171	-0.319128
H684	H	0.501144	0.312678	-0.246969
H685	H	0.428499	0.312207	-0.210652
H686	H	0.391696	0.311230	-0.246496
H687	H	-0.002293	-0.408830	0.308704
C688	C	-0.187161	-0.110343	0.013363
C689	C	-0.187479	-0.102673	-0.021608
C690	C	-0.207072	-0.081265	-0.023207
C691	C	-0.226347	-0.067525	0.010165
C692	C	-0.226029	-0.075195	0.045138
C693	C	-0.206436	-0.096603	0.046737
H694	H	-0.173210	-0.112844	-0.046314
H695	H	-0.207307	-0.075587	-0.049096
H696	H	-0.240851	-0.051677	0.008981
H697	H	-0.240299	-0.065024	0.069844
H698	H	-0.206201	-0.102280	0.072627
H699	H	-0.447603	-0.248768	0.184232
H700	H	0.064523	-0.351759	0.184259
C701	C	-0.112339	-0.192080	0.019452
C702	C	-0.132064	-0.233080	0.017853
C703	C	-0.112465	-0.254485	0.019444
C704	C	-0.073141	-0.234890	0.022635
C705	C	-0.053414	-0.193888	0.024235
C706	C	-0.073013	-0.172483	0.022643
H707	H	-0.161176	-0.247587	0.015491
H708	H	-0.127068	-0.284838	0.018260
H709	H	-0.058632	-0.250736	0.023813
H710	H	-0.024302	-0.179381	0.026597
H711	H	-0.058410	-0.142130	0.023827
H712	H	0.335043	-0.409068	-0.028878
H713	H	0.167543	-0.083608	-0.469060
H714	H	-0.002510	0.253416	0.308669
H715	H	0.617463	0.295940	-0.501068
C716	C	-0.737220	-0.362129	0.474236
C717	C	-0.779822	-0.383403	0.515236
C718	C	-0.799640	-0.424408	0.536641
C719	C	-0.776854	-0.444139	0.517046
C720	C	-0.734250	-0.422865	0.476045
C721	C	-0.714433	-0.381860	0.454640
H722	H	-0.796692	-0.368797	0.529742
H723	H	-0.831178	-0.440156	0.566993
H724	H	-0.791524	-0.474493	0.532892
H725	H	-0.717381	-0.437471	0.461538
H726	H	-0.682894	-0.366111	0.424287
H727	H	-0.629125	-0.248761	0.365741
H728	H	0.370885	0.301223	-0.469054
C729	C	0.172617	-0.072940	0.019474
C730	C	0.215213	-0.051532	0.017879
C731	C	0.234891	-0.010528	0.019474
C732	C	0.211972	0.009068	0.022663
C733	C	0.169374	-0.012340	0.024257
C734	C	0.149696	-0.053344	0.022663
H735	H	0.232181	-0.066038	0.015518
H736	H	0.266425	0.005319	0.018293
H737	H	0.226539	0.039421	0.023843
H738	H	0.152406	0.002166	0.026618
H739	H	0.118162	-0.069191	0.023843
H740	H	0.167516	0.097925	0.019049
C741	C	-0.111862	-0.527730	0.355117
C742	C	-0.131465	-0.548916	0.333714
C743	C	-0.111745	-0.527586	0.292716
C744	C	-0.072422	-0.485071	0.273122
C745	C	-0.052817	-0.463883	0.294525
C746	C	-0.072537	-0.485213	0.335523
H747	H	-0.160576	-0.580390	0.348219
H748	H	-0.126258	-0.543271	0.276872
H749	H	-0.057824	-0.469282	0.242773
H750	H	-0.023706	-0.432409	0.280020
H751	H	-0.058024	-0.469528	0.351367
H752	H	0.064808	0.098152	0.019035
C753	C	-0.112320	0.262777	0.355578
C754	C	-0.141522	0.230204	0.346810
C755	C	-0.121921	0.228609	0.305806
C756	C	-0.073119	0.259586	0.273569
C757	C	-0.043914	0.292162	0.282336
C758	C	-0.063515	0.293757	0.323340
H759	H	-0.177650	0.207270	0.370674
H760	H	-0.143541	0.204494	0.299316
H761	H	-0.058610	0.258405	0.243216
H762	H	-0.007785	0.315095	0.258472
H763	H	-0.041895	0.317872	0.329830
C764	C	0.338443	-0.205594	-0.013443
C765	C	0.385550	-0.172588	-0.046824
C766	C	0.405367	-0.131582	-0.045237
C767	C	0.378077	-0.123581	-0.010269
C768	C	0.330967	-0.156588	0.023114
C769	C	0.311150	-0.197595	0.021527
H770	H	0.405754	-0.178509	-0.072711
H771	H	0.440241	-0.107148	-0.069949
H772	H	0.392747	-0.093226	-0.009095
H773	H	0.310763	-0.150667	0.049001
H774	H	0.276276	-0.222028	0.046240
H775	H	-0.562304	-0.409050	0.308680
C776	C	-0.781222	-0.609116	0.512162
C777	C	-0.780863	-0.595017	0.545173
C778	C	-0.823464	-0.616206	0.586176
C779	C	-0.866425	-0.651496	0.594167
C780	C	-0.866785	-0.665597	0.561154
C781	C	-0.824184	-0.644407	0.520152
H782	H	-0.749060	-0.568892	0.539259
H783	H	-0.823197	-0.605767	0.610614
H784	H	-0.897961	-0.667182	0.624519
H785	H	-0.898589	-0.691722	0.567069
H786	H	-0.824452	-0.654846	0.495713
C787	C	0.216116	-0.205865	0.393289
C788	C	0.259016	-0.197936	0.385712
C789	C	0.301617	-0.156935	0.364439
C790	C	0.301319	-0.123862	0.350741
C791	C	0.258418	-0.131790	0.358318
C792	C	0.215816	-0.172792	0.379592
H793	H	0.259238	-0.222419	0.395852
H794	H	0.333376	-0.151066	0.358830
H795	H	0.332855	-0.093511	0.334993
H796	H	0.258195	-0.107308	0.348178
H797	H	0.184058	-0.178660	0.385200
H798	H	0.552845	0.098385	-0.366316
H799	H	0.167518	0.263140	0.184235
C800	C	0.622604	-0.324481	-0.013452
C801	C	0.641979	-0.338179	-0.046824
C802	C	0.661710	-0.359451	-0.045228
C803	C	0.662066	-0.367025	-0.010260
C804	C	0.642690	-0.353327	0.023115
C805	C	0.622960	-0.332055	0.021519
H806	H	0.641716	-0.332572	-0.072712
H807	H	0.676052	-0.369591	-0.069935
H808	H	0.676672	-0.382773	-0.009078
H809	H	0.642953	-0.358934	0.049003
H810	H	0.608617	-0.321915	0.046226
C811	C	0.338453	0.295605	-0.108696
C812	C	0.343852	0.263034	-0.105322
C813	C	0.363667	0.261449	-0.084130
C814	C	0.378083	0.292433	-0.066314
C815	C	0.372684	0.325006	-0.069688
C816	C	0.352870	0.326592	-0.090879
H817	H	0.333180	0.240095	-0.118511
H818	H	0.367663	0.237336	-0.081633
H819	H	0.392751	0.291260	-0.050626
H820	H	0.383356	0.347945	-0.056498
H821	H	0.348873	0.350705	-0.093377
C822	C	-0.187143	0.268884	0.512134
C823	C	-0.187459	0.303856	0.520119
C824	C	-0.207052	0.305461	0.561119
C825	C	-0.226329	0.272092	0.594135
C826	C	-0.226014	0.237117	0.586151
C827	C	-0.206421	0.235513	0.545150
H828	H	-0.173188	0.328560	0.495677
H829	H	-0.207285	0.331352	0.567030
H830	H	-0.240834	0.273280	0.624486
H831	H	-0.240285	0.212413	0.610592
H832	H	-0.206187	0.209621	0.539240
C833	C	0.219300	0.295549	-0.393357
C834	C	0.218114	0.326525	-0.410028
C835	C	0.175513	0.324929	-0.388756
C836	C	0.134100	0.292356	-0.350813
C837	C	0.135285	0.261377	-0.334140
C838	C	0.177885	0.262973	-0.355412
H839	H	0.248772	0.350640	-0.438118
H840	H	0.174636	0.347861	-0.401099
H841	H	0.102564	0.291174	-0.335066
H842	H	0.104626	0.237262	-0.306050
H843	H	0.178762	0.240040	-0.343069
H844	H	0.370892	0.301275	-0.184323
H845	H	0.064802	-0.186523	0.019045
H846	H	0.552621	-0.351498	-0.019128
H847	H	0.370607	-0.083853	-0.468752
C848	C	0.172628	0.262752	0.355096
C849	C	0.215218	0.264334	0.333694
C850	C	0.234891	0.262726	0.292695
C851	C	0.211974	0.259536	0.273097
C852	C	0.169382	0.257953	0.294499
C853	C	0.149709	0.259561	0.335498
H854	H	0.232184	0.266696	0.348202
H855	H	0.266420	0.263898	0.276852
H856	H	0.226537	0.258345	0.242747
H857	H	0.152415	0.255591	0.279991
H858	H	0.118180	0.258389	0.351341
C859	C	0.216387	0.268850	0.392507
C860	C	0.216021	0.235473	0.378776
C861	C	0.258618	0.237065	0.357371
C862	C	0.301581	0.272033	0.349697
C863	C	0.301948	0.305413	0.363428
C864	C	0.259351	0.303821	0.384833
H865	H	0.184215	0.209585	0.384457
H866	H	0.258345	0.212355	0.347207
H867	H	0.333113	0.273211	0.333852
H868	H	0.333754	0.331301	0.357748
H869	H	0.259624	0.328531	0.394998
C870	C	0.216125	-0.205862	0.108372
C871	C	0.257537	-0.197029	0.104899
C872	C	0.300138	-0.156027	0.083577
C873	C	0.301326	-0.123858	0.065728
C874	C	0.259912	-0.132691	0.069200
C875	C	0.217311	-0.173692	0.090522
H876	H	0.256659	-0.220843	0.118113
H877	H	0.330795	-0.149489	0.081007
H878	H	0.332861	-0.093507	0.049944
H879	H	0.260790	-0.108876	0.055987
H880	H	0.186654	-0.180230	0.093093
H881	H	-0.117201	-0.533500	0.468702
C882	C	0.216384	0.173551	0.013371
C883	C	0.257723	0.176919	-0.019204
C884	C	0.300321	0.198109	-0.020799
C885	C	0.301581	0.215933	0.010179
C886	C	0.260241	0.212566	0.042756
C887	C	0.217642	0.191375	0.044352
H888	H	0.256792	0.163724	-0.042138
H889	H	0.330924	0.200602	-0.044915
H890	H	0.333115	0.231620	0.008998
H891	H	0.261172	0.225760	0.065690
H892	H	0.187039	0.188882	0.068467
H893	H	-0.117212	-0.083598	-0.184336
H894	H	-0.117197	0.263199	0.468949
H895	H	0.437930	-0.026285	-0.308746
C896	C	0.097511	0.268885	0.511642
C897	C	0.092153	0.301466	0.520472
C898	C	0.072480	0.303072	0.561473
C899	C	0.058167	0.272097	0.593643
C900	C	0.063525	0.239514	0.584813
C901	C	0.083197	0.237907	0.543813
H902	H	0.102749	0.324397	0.496658
H903	H	0.068514	0.327192	0.568009
H904	H	0.043604	0.273286	0.623994
H905	H	0.052929	0.216582	0.608628
H906	H	0.087164	0.213787	0.537277
C907	C	-0.187391	0.268877	0.393239
C908	C	-0.236226	0.237902	0.409907
C909	C	-0.255952	0.239499	0.388631
C910	C	-0.226843	0.272073	0.350687
C911	C	-0.178006	0.303050	0.334017
C912	C	-0.158280	0.301453	0.355293
H913	H	-0.257776	0.213787	0.437998
H914	H	-0.292105	0.216567	0.400972
H915	H	-0.241446	0.273255	0.334937
H916	H	-0.156455	0.327165	0.305927
H917	H	-0.122127	0.324385	0.342952
H918	H	-0.732353	-0.533492	0.468971
C919	C	-0.008001	-0.140040	-0.303429
C920	C	-0.049753	-0.160915	-0.261964
C921	C	-0.070916	-0.202666	-0.241379
C922	C	-0.050328	-0.223542	-0.262258
C923	C	-0.008575	-0.202666	-0.303726
C924	C	0.012589	-0.160916	-0.324311
H925	H	-0.064995	-0.145462	-0.246505
H926	H	-0.101825	-0.218119	-0.210682
H927	H	-0.065995	-0.254448	-0.247020
H928	H	0.006668	-0.218120	-0.319184
H929	H	0.043498	-0.145463	-0.355007
C930	C	0.097508	0.268827	0.108343
C931	C	0.083187	0.237842	0.090497
C932	C	0.063508	0.239437	0.069173
C933	C	0.058150	0.272016	0.065694
C934	C	0.072471	0.303004	0.083541
C935	C	0.092150	0.301410	0.104865
H936	H	0.087153	0.213723	0.093071
H937	H	0.052906	0.216497	0.055962
H938	H	0.043582	0.273197	0.049909
H939	H	0.068505	0.327124	0.080966
H940	H	0.102751	0.324349	0.118076
H941	H	-0.002525	-0.129181	0.028805
H942	H	-0.002524	-0.026519	0.028802
H943	H	0.552629	0.098160	-0.469035
H944	H	0.370892	-0.533512	-0.019136
H945	H	0.335046	0.310999	-0.308768
H946	H	0.064526	-0.351765	0.468991
H947	H	0.267945	0.301232	-0.366341
H948	H	0.167470	-0.248829	0.366274
H949	H	0.064816	0.263199	0.468675
H950	H	0.552391	0.301235	-0.365822
H951	H	0.064821	0.263164	0.184001
H952	H	0.167477	-0.248833	0.184031
H953	H	0.100165	-0.026535	-0.411435
H954	H	-0.002500	-0.026531	-0.308780
