data_functionalizedCrystal
_audit_creation_method	'MofGen! by Chris Wilmer'
_symmetry_space_group_name_H-M	'P1'
_symmetry_Int_Tables_number	1
_symmetry_cell_setting	triclinic
loop_
_symmetry_equiv_pos_as_xyz
  x,y,z
_cell_length_a	10.540539
_cell_length_b	10.540539
_cell_length_c	9.616153
_cell_angle_alpha	90.000094
_cell_angle_beta	89.995174
_cell_angle_gamma	95.474508
loop_
_atom_site_label
_atom_site_type_symbol
_atom_site_fract_x
_atom_site_fract_y
_atom_site_fract_z
O1	O	1.685892	-0.178895	-0.115573
O2	O	1.316479	-0.195751	-0.115589
O3	O	1.509614	-0.002617	-0.115579
O4	O	1.492758	-0.372030	-0.115583
O5	O	1.509587	-0.002621	0.115712
O6	O	1.316452	-0.195755	0.115702
O7	O	1.685865	-0.178899	0.115718
Zn8	Zn	1.501155	-0.187328	0.152433
Zn9	Zn	1.501190	-0.187323	-0.152304
O10	O	1.492731	-0.372034	0.115708
C11	C	1.269163	-0.194489	0.000054
C12	C	1.128215	-0.190707	0.000048
C13	C	1.508336	0.044684	0.000064
C14	C	1.504554	0.185632	0.000056
C15	C	0.944788	-0.045790	0.000589
C16	C	1.091406	-0.049624	0.000054
C17	C	1.066557	-0.258600	-0.132027
C18	C	0.920013	-0.253785	-0.132123
C19	C	0.919494	-0.256660	0.130899
C20	C	1.066476	-0.257959	0.132630
C21	C	1.733182	-0.180161	0.000072
C22	C	1.874130	-0.183943	0.000069
C23	C	1.494008	-0.419335	0.000062
C24	C	1.497790	-0.560283	0.000060
N25	N	1.501140	-0.187331	0.360407
C26	C	1.359637	0.369059	-0.000469
C27	C	1.363471	0.222441	0.000052
C28	C	1.572435	0.247288	0.132138
C29	C	1.567620	0.393832	0.132249
C30	C	1.570519	0.394355	-0.130772
C31	C	1.571819	0.247373	-0.132518
N32	N	1.501215	-0.187310	-0.360278
C33	C	1.397510	-0.290298	0.580772
C34	C	1.397739	-0.290684	0.419604
C35	C	1.633864	-0.217464	0.418862
C36	C	1.633299	-0.218193	0.580080
C37	C	1.473368	-0.053892	0.580319
C38	C	1.470321	-0.054757	0.419092
H39	H	1.134009	0.003797	0.094731
O40	O	1.098550	-0.394214	0.143202
H41	H	1.150649	-0.407146	0.241717
H42	H	1.133162	0.004177	-0.094786
H43	H	1.657654	-0.315531	0.617668
H44	H	1.712941	-0.146204	0.619073
O45	O	1.292704	0.166011	-0.125357
H46	H	1.358601	0.115338	-0.190594
O47	O	0.906908	0.028038	0.126056
H48	H	0.862875	0.114172	0.091276
O49	O	1.501126	0.431199	0.263014
H50	H	1.472701	0.344636	0.325572
O51	O	1.573506	0.047659	0.630820
H52	H	1.642782	0.003405	0.697903
O53	O	1.738594	-0.120826	0.368075
H54	H	1.697059	-0.050130	0.300463
H55	H	1.372683	-0.031917	0.380887
O56	O	1.420905	-0.420681	0.634395
H57	H	1.506074	-0.412451	0.702847
O58	O	0.904787	0.027750	-0.124158
H59	H	0.834803	-0.033670	-0.186531
H60	H	0.891814	-0.203603	-0.230849
H61	H	1.303917	0.397661	-0.095187
O62	O	1.292225	0.167113	0.125685
H63	H	1.254904	0.245097	0.186313
H64	H	1.109157	-0.211434	-0.230318
H65	H	1.304122	0.399265	0.093714
O66	O	1.702011	0.457388	0.140226
H67	H	1.770150	0.383414	0.143999
O68	O	1.666850	-0.344949	0.365389
H69	H	1.588931	-0.387044	0.297197
O70	O	1.709671	0.217672	0.138678
H71	H	1.731002	0.158548	0.047642
O72	O	1.563763	0.051633	0.365748
H73	H	1.558922	0.054763	0.250511
H74	H	1.298585	-0.272445	0.619578
O75	O	0.856928	-0.391638	0.132107
H76	H	0.793822	-0.406921	0.040033
H77	H	1.525259	0.204686	0.230425
H78	H	1.672423	0.441581	-0.131656
H79	H	1.524869	0.425910	-0.230881
H80	H	1.522152	0.206516	-0.230229
O81	O	1.096149	-0.395846	-0.138552
H82	H	1.149064	-0.411768	-0.235824
H83	H	1.378631	-0.025213	0.621052
H84	H	0.872044	-0.355250	-0.138119
O85	O	1.120719	-0.192263	0.262058
H86	H	1.099940	-0.090999	0.260995
H87	H	1.674680	0.223152	-0.140490
H88	H	0.887936	-0.211004	0.231010
H89	H	1.299122	-0.272553	0.380085
H90	H	1.415638	-0.389668	0.381024
