data_functionalizedCrystal
_audit_creation_method	'MofGen! by Chris Wilmer'
_symmetry_space_group_name_H-M	'P1'
_symmetry_Int_Tables_number	1
_symmetry_cell_setting	triclinic
loop_
_symmetry_equiv_pos_as_xyz
  x,y,z
_cell_length_a	29.839131
_cell_length_b	29.839134
_cell_length_c	19.805399
_cell_angle_alpha	90.028355
_cell_angle_beta	90.029565
_cell_angle_gamma	90.036281
loop_
_atom_site_label
_atom_site_type_symbol
_atom_site_fract_x
_atom_site_fract_y
_atom_site_fract_z
Zn1	Zn	-0.178925	0.686748	0.382869
Zn2	Zn	0.154408	1.020081	0.716202
Zn3	Zn	0.487741	1.353415	1.049536
Zn4	Zn	-0.254053	0.686672	0.269677
Zn5	Zn	0.079280	1.020005	0.603010
Zn6	Zn	0.412614	1.353338	0.936343
Zn7	Zn	-0.178931	0.611622	0.269676
Zn8	Zn	0.154402	0.944956	0.603009
Zn9	Zn	0.487736	1.278289	0.936343
Zn10	Zn	-0.254022	0.611578	0.382806
Zn11	Zn	0.079311	0.944912	0.716139
Zn12	Zn	0.412644	1.278245	1.049473
O13	O	-0.216483	0.649155	0.326257
O14	O	0.116850	0.982488	0.659590
O15	O	0.450184	1.315822	0.992924
O16	O	-0.188902	0.749605	0.367880
O17	O	0.144432	1.082938	0.701213
O18	O	0.477765	1.416272	1.034547
O19	O	-0.244103	0.676703	0.174960
O20	O	0.089230	1.010036	0.508293
O21	O	0.422564	1.343369	0.841627
O22	O	-0.116063	0.621638	0.284717
O23	O	0.217270	0.954971	0.618051
O24	O	0.550604	1.288305	0.951384
O25	O	-0.244097	0.749549	0.284718
O26	O	0.089236	1.082882	0.618052
O27	O	0.422569	1.416216	0.951385
O28	O	-0.116059	0.676833	0.367880
O29	O	0.217274	1.010166	0.701213
O30	O	0.550608	1.343499	1.034546
O31	O	-0.188911	0.621564	0.174960
O32	O	0.144422	0.954898	0.508293
O33	O	0.477755	1.288231	0.841626
O34	O	-0.188882	0.548749	0.284657
O35	O	0.144452	0.882083	0.617990
O36	O	0.477785	1.215416	0.951323
O37	O	-0.244045	0.621563	0.477531
O38	O	0.089288	0.954897	0.810864
O39	O	0.422621	1.288230	1.144198
O40	O	-0.244051	0.548717	0.367773
O41	O	0.089283	0.882050	0.701106
O42	O	0.422616	1.215384	1.034439
O43	O	-0.188872	0.676790	0.477577
O44	O	0.144461	1.010123	0.810910
O45	O	0.477795	1.343457	1.144244
O46	O	-0.316916	0.676660	0.284657
O47	O	0.016417	1.009993	0.617991
O48	O	0.349751	1.343327	0.951324
O49	O	-0.316893	0.621489	0.367773
O50	O	0.016440	0.954823	0.701106
O51	O	0.349773	1.288156	1.034440
C52	C	-0.216464	0.532433	0.326208
C53	C	0.116870	0.865766	0.659541
C54	C	0.450203	1.199099	0.992875
C55	C	-0.216466	0.482498	0.326203
C56	C	0.116867	0.815831	0.659537
C57	C	0.450200	1.149165	0.992870
C58	C	-0.245252	0.172847	0.369482
C59	C	0.088081	0.506181	0.702816
C60	C	0.421415	0.839514	1.036149
C61	C	-0.245265	-0.014826	0.369512
C62	C	0.088069	0.318508	0.702846
C63	C	0.421402	0.651841	1.036179
O64	O	-0.269718	-0.039097	0.406281
O65	O	0.063615	0.294237	0.739614
O66	O	0.396949	0.627570	1.072948
N67	N	-0.216499	-0.038287	0.326308
N68	N	0.116834	0.295046	0.659641
N69	N	0.450167	0.628380	0.992975
C70	C	-0.187727	-0.014827	0.283096
C71	C	0.145607	0.318506	0.616429
C72	C	0.478940	0.651839	0.949762
O73	O	-0.163257	-0.039089	0.246353
O74	O	0.170076	0.294245	0.579687
O75	O	0.503410	0.627578	0.913020
C76	C	-0.187712	0.172845	0.283070
C77	C	0.145621	0.506178	0.616403
C78	C	0.478955	0.839512	0.949736
C79	C	-0.216483	0.196304	0.326272
C80	C	0.116851	0.529637	0.659606
C81	C	0.450184	0.862971	0.992939
C82	C	-0.274020	0.196306	0.412682
C83	C	0.059314	0.529640	0.746015
C84	C	0.392647	0.862973	1.079349
C85	C	-0.274018	0.243222	0.412671
C86	C	0.059315	0.576555	0.746005
C87	C	0.392649	0.909888	1.079338
C88	C	-0.245249	0.266678	0.369461
C89	C	0.088085	0.600012	0.702795
C90	C	0.421418	0.933345	1.036128
C91	C	-0.216481	0.243219	0.326262
C92	C	0.116853	0.576553	0.659595
C93	C	0.450186	0.909886	0.992928
C94	C	-0.158938	0.196304	0.239861
C95	C	0.174396	0.529637	0.573195
C96	C	0.507729	0.862971	0.906528
C97	C	-0.158936	0.243225	0.239860
C98	C	0.174398	0.576558	0.573193
C99	C	0.507731	0.909892	0.906527
C100	C	-0.187706	0.266684	0.283063
C101	C	0.145627	0.600017	0.616396
C102	C	0.478961	0.933351	0.949729
C103	C	-0.187710	0.313591	0.283041
C104	C	0.145624	0.646925	0.616374
C105	C	0.478957	0.980258	0.949708
N106	N	-0.216475	0.337053	0.326246
N107	N	0.116858	0.670386	0.659579
N108	N	0.450192	1.003719	0.992912
C109	C	-0.245244	0.313596	0.369456
C110	C	0.088089	0.646929	0.702789
C111	C	0.421422	0.980263	1.036122
C112	C	-0.187737	-0.113358	0.283112
C113	C	0.145596	0.219976	0.616445
C114	C	0.478930	0.553309	0.949778
C115	C	-0.187741	-0.160276	0.283117
C116	C	0.145592	0.173058	0.616451
C117	C	0.478926	0.506391	0.949784
C118	C	-0.245279	-0.160271	0.369535
C119	C	0.088055	0.173062	0.702868
C120	C	0.421388	0.506396	1.036202
C121	C	-0.245276	-0.113352	0.369526
C122	C	0.088057	0.219981	0.702859
C123	C	0.421390	0.553314	1.036192
C124	C	-0.216502	-0.089896	0.326316
C125	C	0.116831	0.243437	0.659650
C126	C	0.450164	0.576770	0.992983
C127	C	-0.245239	0.412122	0.369430
C128	C	0.088094	0.745455	0.702763
C129	C	0.421428	1.078789	1.036097
C130	C	-0.245236	0.459042	0.369413
C131	C	0.088097	0.792375	0.702747
C132	C	0.421431	1.125708	1.036080
C133	C	-0.187697	0.459033	0.282998
C134	C	0.145636	0.792366	0.616332
C135	C	0.478970	1.125699	0.949665
C136	C	-0.187701	0.412117	0.283012
C137	C	0.145632	0.745451	0.616345
C138	C	0.478965	1.078784	0.949679
C139	C	-0.216474	0.388663	0.326233
C140	C	0.116859	0.721996	0.659567
C141	C	0.450193	1.055330	0.992900
O142	O	-0.163266	0.337891	0.246297
O143	O	0.170068	0.671225	0.579630
O144	O	0.503401	1.004558	0.912964
O145	O	-0.269703	0.337866	0.406203
O146	O	0.063630	0.671199	0.739537
O147	O	0.396963	1.004532	1.072870
C148	C	-0.245254	0.125932	0.369493
C149	C	0.088080	0.459265	0.702826
C150	C	0.421413	0.792599	1.036160
C151	C	-0.216486	0.102473	0.326293
C152	C	0.116847	0.435806	0.659627
C153	C	0.450181	0.769140	0.992960
C154	C	-0.187717	0.125930	0.283083
C155	C	0.145617	0.459263	0.616416
C156	C	0.478950	0.792596	0.949750
C157	C	-0.216490	0.055555	0.326299
C158	C	0.116843	0.388888	0.659632
C159	C	0.450177	0.722222	0.992966
C160	C	-0.245260	0.032099	0.369509
C161	C	0.088074	0.365432	0.702842
C162	C	0.421407	0.698765	1.036176
C163	C	-0.274025	0.055560	0.412714
C164	C	0.059308	0.388893	0.746047
C165	C	0.392642	0.722227	1.079380
C166	C	-0.274023	0.102475	0.412703
C167	C	0.059310	0.435809	0.746037
C168	C	0.392644	0.769142	1.079370
C169	C	-0.158951	0.102468	0.239879
C170	C	0.174382	0.435802	0.573212
C171	C	0.507715	0.769135	0.906545
C172	C	-0.158956	0.055553	0.239892
C173	C	0.174378	0.388886	0.573225
C174	C	0.507711	0.722219	0.906559
C175	C	-0.187725	0.032096	0.283102
C176	C	0.145608	0.365430	0.616436
C177	C	0.478942	0.698763	0.949769
C178	C	-0.333205	0.649074	0.326223
C179	C	0.000128	0.982407	0.659557
C180	C	0.333461	1.315741	0.992890
C181	C	-0.383140	0.649080	0.326232
C182	C	-0.049807	0.982414	0.659565
C183	C	0.283527	1.315747	0.992898
C184	C	-0.692782	0.677935	0.283042
C185	C	-0.359449	1.011268	0.616375
C186	C	-0.026116	1.344601	0.949708
C187	C	-0.880455	0.677990	0.283068
C188	C	-0.547122	1.011323	0.616401
C189	C	-0.213789	1.344657	0.949735
O190	O	-0.904719	0.702459	0.246321
O191	O	-0.571386	1.035792	0.579654
O192	O	-0.238053	1.369125	0.912987
N193	N	-0.903925	0.649248	0.326308
N194	N	-0.570592	0.982582	0.659641
N195	N	-0.237258	1.315915	0.992975
C196	C	-0.880473	0.620492	0.369547
C197	C	-0.547140	0.953826	0.702881
C198	C	-0.213807	1.287159	1.036214
O199	O	-0.904742	0.596050	0.406331
O200	O	-0.571409	0.929384	0.739664
O201	O	-0.238075	1.262717	1.072998
C202	C	-0.692801	0.620440	0.369524
C203	C	-0.359468	0.953773	0.702857
C204	C	-0.026134	1.287106	1.036191
C205	C	-0.669334	0.649180	0.326277
C206	C	-0.336001	0.982514	0.659610
C207	C	-0.002667	1.315847	0.992943
C208	C	-0.669315	0.706673	0.239798
C209	C	-0.335982	1.040007	0.573132
C210	C	-0.002648	1.373340	0.906465
C211	C	-0.622400	0.706657	0.239790
C212	C	-0.289066	1.039991	0.573123
C213	C	0.044267	1.373324	0.906456
C214	C	-0.598951	0.677903	0.283024
C215	C	-0.265618	1.011236	0.616358
C216	C	0.067715	1.344570	0.949691
C217	C	-0.622419	0.649164	0.326268
C218	C	-0.289085	0.982498	0.659601
C219	C	0.044248	1.315831	0.992934
C220	C	-0.669350	0.591687	0.412767
C221	C	-0.336017	0.925020	0.746100
C222	C	-0.002684	1.258353	1.079433
C223	C	-0.622429	0.591677	0.412758
C224	C	-0.289096	0.925010	0.746091
C225	C	0.044237	1.258343	1.079425
C226	C	-0.598962	0.620417	0.369511
C227	C	-0.265629	0.953751	0.702844
C228	C	0.067704	1.287084	1.036177
C229	C	-0.552055	0.620394	0.369494
C230	C	-0.218721	0.953727	0.702827
C231	C	0.114612	1.287061	1.036160
N232	N	-0.528585	0.649136	0.326254
N233	N	-0.195252	0.982469	0.659587
N234	N	0.138081	1.315803	0.992921
C235	C	-0.552034	0.677890	0.283019
C236	C	-0.218700	1.011224	0.616353
C237	C	0.114633	1.344557	0.949686
C238	C	-0.979004	0.620522	0.369556
C239	C	-0.645671	0.953855	0.702889
C240	C	-0.312337	1.287188	1.036222
C241	C	-1.025922	0.620534	0.369561
C242	C	-0.692588	0.953868	0.702894
C243	C	-0.359255	1.287201	1.036228
C244	C	-1.025901	0.678033	0.283082
C245	C	-0.692567	1.011366	0.616416
C246	C	-0.359234	1.344699	0.949749
C247	C	-0.978982	0.678017	0.283074
C248	C	-0.645648	1.011351	0.616408
C249	C	-0.312315	1.344684	0.949741
C250	C	-0.955534	0.649264	0.326316
C251	C	-0.622201	0.982597	0.659649
C252	C	-0.288868	1.315930	0.992983
C253	C	-0.453508	0.677855	0.283004
C254	C	-0.120174	1.011188	0.616337
C255	C	0.213159	1.344521	0.949670
C256	C	-0.406588	0.677835	0.282997
C257	C	-0.073255	1.011168	0.616330
C258	C	0.260079	1.344501	0.949664
C259	C	-0.406613	0.620338	0.369478
C260	C	-0.073280	0.953672	0.702811
C261	C	0.260053	1.287005	1.036144
C262	C	-0.453529	0.620356	0.369482
C263	C	-0.120196	0.953690	0.702816
C264	C	0.213138	1.287023	1.036149
C265	C	-0.476975	0.649118	0.326243
C266	C	-0.143642	0.982451	0.659576
C267	C	0.189692	1.315785	0.992910
O268	O	-0.527762	0.595942	0.406227
O269	O	-0.194429	0.929275	0.739561
O270	O	0.138905	1.262608	1.072894
O271	O	-0.527757	0.702336	0.246252
O272	O	-0.194424	1.035669	0.579585
O273	O	0.138910	1.369003	0.912918
C274	C	-0.739698	0.677951	0.283051
C275	C	-0.406364	1.011284	0.616384
C276	C	-0.073031	1.344617	0.949717
C277	C	-0.763165	0.649212	0.326294
C278	C	-0.429832	0.982545	0.659627
C279	C	-0.096498	1.315879	0.992961
C280	C	-0.739717	0.620458	0.369529
C281	C	-0.406383	0.953791	0.702862
C282	C	-0.073050	1.287124	1.036195
C283	C	-0.810083	0.649225	0.326299
C284	C	-0.476749	0.982558	0.659632
C285	C	-0.143416	1.315891	0.992966
C286	C	-0.833531	0.677979	0.283064
C287	C	-0.500198	1.011312	0.616398
C288	C	-0.166864	1.344646	0.949731
C289	C	-0.810061	0.706721	0.239825
C290	C	-0.476728	1.040054	0.573158
C291	C	-0.143395	1.373388	0.906491
C292	C	-0.763146	0.706705	0.239816
C293	C	-0.429813	1.040038	0.573149
C294	C	-0.096479	1.373372	0.906483
C295	C	-0.763186	0.591716	0.412769
C296	C	-0.429853	0.925049	0.746102
C297	C	-0.096520	1.258382	1.079435
C298	C	-0.810102	0.591733	0.412773
C299	C	-0.476768	0.925067	0.746107
C300	C	-0.143435	1.258400	1.079440
C301	C	-0.833550	0.620488	0.369539
C302	C	-0.500217	0.953821	0.702872
C303	C	-0.166883	1.287155	1.036205
C304	C	-0.099304	0.649249	0.326305
C305	C	0.234029	0.982582	0.659639
C306	C	0.567362	1.315915	0.992972
C307	C	-0.049370	0.649289	0.326326
C308	C	0.283963	0.982622	0.659659
C309	C	0.617297	1.315955	0.992993
C310	C	-0.216455	0.649180	0.502800
C311	C	0.116879	0.982514	0.836133
C312	C	0.450212	1.315847	1.169466
C313	C	-0.216443	0.649191	0.578032
C314	C	0.116891	0.982524	0.911365
C315	C	0.450224	1.315858	1.244698
C316	C	-0.216502	0.766333	0.326306
C317	C	0.116831	1.099667	0.659640
C318	C	0.450164	1.433000	0.992973
C319	C	-0.216511	0.816268	0.326327
C320	C	0.116823	1.149601	0.659661
C321	C	0.450156	1.482935	0.992994
C322	C	-0.216479	0.649156	0.150401
C323	C	0.116855	0.982489	0.483734
C324	C	0.450188	1.315823	0.817068
C325	C	-0.216364	0.649232	0.075169
C326	C	0.116969	0.982566	0.408503
C327	C	0.450303	1.315899	0.741836
C328	C	-0.187712	0.677948	0.613401
C329	C	0.145621	1.011282	0.946734
C330	C	0.478954	1.344615	1.280068
C331	C	-0.187699	0.677953	0.684089
C332	C	0.145634	1.011286	1.017423
C333	C	0.478967	1.344619	1.350756
C334	C	-0.216419	0.649202	0.719407
C335	C	0.116914	0.982536	1.052741
C336	C	0.450248	1.315869	1.386074
C337	C	-0.245151	0.620442	0.684033
C338	C	0.088183	0.953775	1.017367
C339	C	0.421516	1.287109	1.350700
C340	C	-0.245161	0.620435	0.613346
C341	C	0.088172	0.953769	0.946679
C342	C	0.421506	1.287102	1.280013
C343	C	-0.245109	0.620467	0.969107
C344	C	0.088225	0.953801	1.302440
C345	C	0.421558	1.287134	1.635773
C346	C	-0.245097	0.620477	1.039799
C347	C	0.088236	0.953810	1.373132
C348	C	0.421570	1.287144	1.706465
C349	C	-0.187647	0.677985	1.039850
C350	C	0.145686	1.011318	1.373183
C351	C	0.479020	1.344651	1.706517
C352	C	-0.187657	0.677978	0.969163
C353	C	0.145676	1.011312	1.302496
C354	C	0.479009	1.344645	1.635830
C355	C	-0.216387	0.649216	0.933795
C356	C	0.116946	0.982550	1.267128
C357	C	0.450280	1.315883	1.600462
C358	C	-0.216400	0.649211	0.857146
C359	C	0.116933	0.982544	1.190480
C360	C	0.450267	1.315878	1.523813
C361	C	-0.216408	0.649209	0.796055
C362	C	0.116925	0.982543	1.129388
C363	C	0.450258	1.315876	1.462721
H364	H	-0.164275	0.478140	0.247816
H365	H	0.169058	0.811473	0.581149
H366	H	0.502392	1.144806	0.914482
F367	F	-0.304642	0.171349	0.458677
F368	F	0.028691	0.504682	0.792010
F369	F	0.362024	0.838016	1.125344
H370	H	-0.297445	0.262318	0.447853
H371	H	0.035888	0.595651	0.781186
H372	H	0.369222	0.928984	1.114520
H373	H	-0.268667	0.393031	0.404626
H374	H	0.064666	0.726364	0.737960
H375	H	0.398000	1.059698	1.071293
F376	F	-0.275666	0.589875	1.077385
F377	F	0.057668	0.923208	1.410719
F378	F	0.391001	1.256541	1.744052
F379	F	-0.835072	0.561140	0.458805
F380	F	-0.501739	0.894474	0.792138
F381	F	-0.168405	1.227807	1.125472
H382	H	-0.268703	-0.094255	0.404706
H383	H	0.064630	0.239078	0.738039
H384	H	0.397964	0.572412	1.071373
F385	F	-0.275895	-0.185243	0.415526
F386	F	0.057438	0.148090	0.748859
F387	F	0.390771	0.481424	1.082192
H388	H	-0.164318	-0.179372	0.247930
H389	H	0.169015	0.153961	0.581264
H390	H	0.502349	0.487295	0.914597
H391	H	-0.164305	-0.094264	0.247922
H392	H	0.169028	0.239069	0.581255
H393	H	0.502361	0.572402	0.914589
H394	H	-0.135523	0.121562	0.204691
H395	H	0.197810	0.454895	0.538024
H396	H	0.531144	0.788228	0.871358
H397	H	-0.297451	0.121571	0.447884
H398	H	0.035883	0.454905	0.781217
H399	H	0.369216	0.788238	1.114550
F400	F	-0.304645	0.030588	0.458698
F401	F	0.028688	0.363921	0.792032
F402	F	0.362021	0.697254	1.125365
F403	F	-0.128313	0.171347	0.193882
F404	F	0.205020	0.504681	0.527215
F405	F	0.538353	0.838014	0.860549
F406	F	-0.128334	0.030591	0.193904
F407	F	0.205000	0.363924	0.527237
F408	F	0.538333	0.697258	0.860571
H409	H	-0.268552	0.597014	0.584549
H410	H	0.064782	0.930347	0.917883
H411	H	0.398115	1.263680	1.251216
F412	F	-0.128309	0.268186	0.193870
F413	F	0.205024	0.601519	0.527204
F414	F	0.538358	0.934852	0.860537
H415	H	-0.164275	0.393016	0.247832
H416	H	0.169058	0.726349	0.581165
H417	H	0.502392	1.059683	0.914498
F418	F	-0.275715	0.589841	0.721623
F419	F	0.057619	0.923175	1.054956
F420	F	0.390952	1.256508	1.388290
F421	F	-0.954011	0.708607	0.237045
F422	F	-0.620677	1.041940	0.570378
F423	F	-0.287344	1.375274	0.903712
H424	H	-0.829161	0.730133	0.204619
H425	H	-0.495828	1.063466	0.537953
H426	H	-0.162495	1.396799	0.871286
F427	F	-0.275860	0.484006	0.415396
F428	F	0.057474	0.817339	0.748729
F429	F	0.390807	1.150672	1.082063
F430	F	-0.157146	0.708551	0.575819
F431	F	0.176187	1.041885	0.909153
F432	F	0.509520	1.375218	1.242486
H433	H	-0.387483	0.701239	0.247777
H434	H	-0.054149	1.034572	0.581110
H435	H	0.279184	1.367905	0.914444
F436	F	-0.478454	0.708466	0.236984
F437	F	-0.145121	1.041799	0.570317
F438	F	0.188213	1.375133	0.903650
H439	H	-0.688449	0.568281	0.447980
H440	H	-0.355116	0.901614	0.781313
H441	H	-0.021783	1.234947	1.114647
H442	H	-0.603295	0.730062	0.204576
H443	H	-0.269962	1.063395	0.537909
H444	H	0.063371	1.396728	0.871243
H445	H	-0.387515	0.596925	0.404677
H446	H	-0.054181	0.930259	0.738010
H447	H	0.279152	1.263592	1.071344
H448	H	-1.045000	0.701446	0.247879
H449	H	-0.711667	1.034779	0.581212
H450	H	-0.378333	1.368112	0.914546
F451	F	-0.157068	0.708595	1.077497
F452	F	0.176265	1.041928	1.410830
F453	F	0.509598	1.375261	1.744164
H454	H	-0.688402	0.730091	0.204591
H455	H	-0.355068	1.063424	0.537925
H456	H	-0.021735	1.396758	0.871258
H457	H	-0.959916	0.597106	0.404769
H458	H	-0.626583	0.930439	0.738103
H459	H	-0.293249	1.263772	1.071436
F460	F	-1.050892	0.589940	0.415583
F461	F	-0.717559	0.923273	0.748916
F462	F	-0.384226	1.256606	1.082250
H463	H	-0.603341	0.568262	0.447973
H464	H	-0.270007	0.901596	0.781306
H465	H	0.063326	1.234929	1.114640
F466	F	-0.478505	0.589759	0.415498
F467	F	-0.145172	0.923093	0.748832
F468	F	0.188161	1.256426	1.082165
H469	H	-0.744042	0.730108	0.204600
H470	H	-0.410709	1.063442	0.537933
H471	H	-0.077376	1.396775	0.871266
F472	F	-0.738237	0.561110	0.458788
F473	F	-0.404904	0.894443	0.792122
F474	F	-0.071570	1.227776	1.125455
H475	H	-0.164305	0.701371	0.712884
H476	H	0.169028	1.034704	1.046217
H477	H	0.502361	1.368038	1.379551
H478	H	-0.164272	0.701391	0.940411
H479	H	0.169061	1.034725	1.273744
H480	H	0.502394	1.368058	1.607077
H481	H	-0.268509	0.597054	0.940318
H482	H	0.064825	0.930387	1.273652
H483	H	0.398158	1.263721	1.606985
