data_functionalizedCrystal
_audit_creation_method	'MofGen! by Chris Wilmer'
_symmetry_space_group_name_H-M	'P1'
_symmetry_Int_Tables_number	1
_symmetry_cell_setting	triclinic
loop_
_symmetry_equiv_pos_as_xyz
  x,y,z
_cell_length_a	6.817900
_cell_length_b	11.168121
_cell_length_c	11.168143
_cell_angle_alpha	92.020277
_cell_angle_beta	71.491176
_cell_angle_gamma	71.491504
loop_
_atom_site_label
_atom_site_type_symbol
_atom_site_fract_x
_atom_site_fract_y
_atom_site_fract_z
V1	V	4.109884	-0.174725	-0.393710
O2	O	4.069469	0.008375	-0.386204
O3	O	4.086172	-0.346430	-0.391028
O4	O	4.086176	-0.172046	-0.565416
O5	O	4.069465	-0.167215	-0.210609
V6	V	4.587114	-0.152823	-0.371808
O7	O	4.384948	-0.222769	-0.441753
O8	O	4.762247	-0.104779	-0.323765
O9	O	4.387620	0.018882	-0.374491
O10	O	4.744926	-0.335923	-0.379314
O11	O	4.744930	-0.160332	-0.554909
O12	O	4.387616	-0.155501	-0.200103
C13	C	3.936379	-0.388288	-0.384819
C14	C	3.998443	-0.528659	-0.383771
C15	C	4.200952	-0.597352	-0.389292
C16	C	4.265102	-0.742433	-0.388209
C17	C	3.936383	-0.165842	-0.607267
C18	C	3.998446	-0.164788	-0.747637
C19	C	3.969301	-0.054425	-0.793073
C20	C	4.033444	-0.053334	-0.938153
C21	C	4.200750	-0.161709	-0.158245
C22	C	4.117925	-0.162757	-0.017873
C23	C	4.200754	0.060733	-0.380695
C24	C	4.117930	0.201103	-0.381752
H25	H	4.438577	-0.801481	-0.392921
N26	N	4.089271	-0.282313	-0.833564
N27	N	3.992830	-0.302590	-0.906223
H28	H	4.056970	-0.385597	-0.966906
H29	H	3.944442	-0.739853	-0.377021
H30	H	4.326839	-0.548755	-0.394829
H31	H	3.872564	-0.577257	-0.378249
H32	H	3.896852	0.039252	-0.724565
H33	H	4.008610	0.041154	-0.977293
H34	H	4.142785	-0.257250	-0.978743
