data_functionalizedCrystal
_audit_creation_method	'MofGen! by Chris Wilmer'
_symmetry_space_group_name_H-M	'P1'
_symmetry_Int_Tables_number	1
_symmetry_cell_setting	triclinic
loop_
_symmetry_equiv_pos_as_xyz
  x,y,z
_cell_length_a	13.897447
_cell_length_b	12.759393
_cell_length_c	12.759401
_cell_angle_alpha	90.018496
_cell_angle_beta	89.980309
_cell_angle_gamma	89.967926
loop_
_atom_site_label
_atom_site_type_symbol
_atom_site_fract_x
_atom_site_fract_y
_atom_site_fract_z
Zn1	Zn	-0.383954	-0.593978	-1.606220
Zn2	Zn	-0.545283	-0.418296	-1.606100
Zn3	Zn	-0.384004	-0.418317	-1.430522
Zn4	Zn	-0.545209	-0.593938	-1.430496
O5	O	-0.464613	-0.506132	-1.518334
O6	O	-0.405365	-0.570681	-1.753225
O7	O	-0.523942	-0.271278	-1.582769
O8	O	-0.249016	-0.441644	-1.453890
O9	O	-0.523893	-0.441609	-1.753137
O10	O	-0.248979	-0.570701	-1.582975
O11	O	-0.405451	-0.271293	-1.453773
O12	O	-0.405379	-0.441605	-1.283498
O13	O	-0.523766	-0.740964	-1.453846
O14	O	-0.523815	-0.570633	-1.283478
O15	O	-0.405293	-0.740993	-1.582949
O16	O	-0.680255	-0.441570	-1.582744
O17	O	-0.680201	-0.570613	-1.453729
C18	C	-0.464595	-0.506118	-1.245367
C19	C	-0.464611	-0.506137	-1.128590
C20	C	-0.715227	-0.506108	-1.518249
C21	C	-0.822441	-0.506132	-1.518309
C22	C	-0.464515	-0.780166	-1.518408
C23	C	-0.464474	-0.896942	-1.518439
C24	C	-0.909511	-0.506156	-1.518359
C25	C	-1.018743	-0.506183	-1.518433
C26	C	-0.213020	-0.506180	-1.518449
C27	C	-0.105806	-0.506200	-1.518498
C28	C	-0.402779	-0.951821	-1.585673
C29	C	-0.402744	-1.061546	-1.585698
C30	C	-0.526107	-1.061502	-1.451253
C31	C	-0.526137	-0.951780	-1.451223
C32	C	-0.331559	-0.951847	-1.663297
C33	C	-0.331524	-1.061572	-1.663322
C34	C	-0.464640	-0.233165	-1.518322
C35	C	-0.464410	-0.116389	-1.518494
C36	C	-0.464631	-0.506147	-1.792368
C37	C	-0.464639	-0.506153	-1.909144
C38	C	-0.526379	-0.573210	-1.073746
C39	C	-0.526391	-0.573222	-0.964022
C40	C	-0.402864	-0.439077	-0.963997
C41	C	-0.402847	-0.439072	-1.073719
C42	C	-0.597700	-0.650655	-1.073760
C43	C	-0.597712	-0.650666	-0.964036
H44	H	-0.576371	-0.907101	-1.396471
H45	H	-0.256857	-0.922092	-1.641535
O46	O	-0.574044	-0.747847	-1.109204
C47	C	-0.641867	-0.821240	-1.072314
H48	H	-0.678302	-0.789242	-0.998906
H49	H	-0.603807	-0.897952	-1.052777
H50	H	-0.698335	-0.835876	-1.135426
O51	O	-0.585978	-1.114936	-1.386067
C52	C	-0.572705	-1.223548	-1.400487
H53	H	-0.541115	-1.238549	-1.481585
H54	H	-0.644944	-1.265228	-1.393337
H55	H	-0.521324	-1.254693	-1.338200
O56	O	-0.566041	-0.742946	-0.923349
C57	C	-0.639118	-0.787803	-0.861214
H58	H	-0.690689	-0.723841	-0.833967
H59	H	-0.605510	-0.827563	-0.790081
H60	H	-0.680245	-0.848277	-0.909348
O61	O	-0.686880	-0.624618	-0.928595
C62	C	-0.754463	-0.698260	-0.965510
H63	H	-0.725188	-0.738018	-1.038926
H64	H	-0.824776	-0.656569	-0.985042
H65	H	-0.768075	-0.759738	-0.902415
H66	H	-0.358339	-0.917811	-1.740566
O67	O	-0.246847	-1.102071	-1.628461
C68	C	-0.229927	-1.067859	-1.525016
H69	H	-0.271762	-0.992458	-1.509985
H70	H	-0.149760	-1.052652	-1.513828
H71	H	-0.254574	-1.130800	-1.467589
H72	H	-0.352578	-0.384476	-0.919307
O73	O	-0.355565	-1.097062	-1.760355
C74	C	-0.447973	-1.060111	-1.787121
H75	H	-0.489637	-1.040592	-1.712646
H76	H	-0.488027	-1.123183	-1.832934
H77	H	-0.440981	-0.986681	-1.837425
O78	O	-0.342805	-0.373828	-1.126833
C79	C	-0.288280	-0.314660	-1.054870
H80	H	-0.327799	-0.310940	-0.976649
H81	H	-0.277880	-0.231903	-1.086545
H82	H	-0.215072	-0.353288	-1.043225
O83	O	-0.682315	-0.615876	-1.114462
C84	C	-0.723704	-0.695327	-1.176617
H85	H	-0.665128	-0.751684	-1.203857
H86	H	-0.760092	-0.658592	-1.247754
H87	H	-0.779359	-0.739949	-1.128502
