data_functionalizedCrystal
_audit_creation_method	'MofGen! by Chris Wilmer'
_symmetry_space_group_name_H-M	'P1'
_symmetry_Int_Tables_number	1
_symmetry_cell_setting	triclinic
loop_
_symmetry_equiv_pos_as_xyz
  x,y,z
_cell_length_a	11.792241
_cell_length_b	8.559649
_cell_length_c	7.681481
_cell_angle_alpha	85.086760
_cell_angle_beta	84.218353
_cell_angle_gamma	103.013960
loop_
_atom_site_label
_atom_site_type_symbol
_atom_site_fract_x
_atom_site_fract_y
_atom_site_fract_z
O1	O	-0.026424	-2.104794	-0.146400
O2	O	0.032148	-1.640097	-0.146410
O3	O	-0.163342	-1.883724	-0.146392
O4	O	0.169066	-1.861167	-0.146418
O5	O	-0.187452	-1.913710	0.146467
O6	O	0.008038	-1.670083	0.146450
O7	O	-0.050534	-2.134780	0.146460
Zn8	Zn	-0.025076	-1.907192	0.192953
Zn9	Zn	0.006690	-1.867684	-0.192903
O10	O	0.144956	-1.891153	0.146442
C11	C	0.024531	-1.595598	0.000018
C12	C	0.037744	-1.418332	0.000015
C13	C	-0.042917	-2.179278	0.000027
C14	C	-0.056128	-2.356543	0.000019
C15	C	-0.217558	-1.897300	0.000037
C16	C	-0.343183	-1.893059	0.000035
C17	C	-0.573179	-1.885259	0.000005
C18	C	-0.445192	-1.889593	0.000022
C19	C	0.199172	-1.877577	0.000009
C20	C	0.324799	-1.881816	-0.000001
N21	N	-0.046757	-1.934167	0.456289
N22	N	0.028361	-1.840722	-0.456239
H23	H	-0.146604	-1.439256	0.000018
C24	C	0.159983	-1.306583	0.000004
N25	N	0.252052	-1.222413	-0.000001
H26	H	0.105035	-1.745334	0.468557
C27	C	-0.150343	-2.063049	0.557894
N28	N	-0.228364	-2.160119	0.634424
