data_functionalizedCrystal
_audit_creation_method	'MofGen! by Chris Wilmer'
_symmetry_space_group_name_H-M	'P1'
_symmetry_Int_Tables_number	1
_symmetry_cell_setting	triclinic
loop_
_symmetry_equiv_pos_as_xyz
  x,y,z
_cell_length_a	18.101398
_cell_length_b	29.839131
_cell_length_c	18.101390
_cell_angle_alpha	89.964218
_cell_angle_beta	89.975319
_cell_angle_gamma	90.036686
loop_
_atom_site_label
_atom_site_type_symbol
_atom_site_fract_x
_atom_site_fract_y
_atom_site_fract_z
Zn1	Zn	1.132071	-0.178893	-0.418824
Zn2	Zn	1.465404	0.154440	-0.085491
Zn3	Zn	1.798737	0.487774	0.247843
Zn4	Zn	1.131943	-0.254029	-0.294976
Zn5	Zn	1.465277	0.079305	0.038357
Zn6	Zn	1.798610	0.412638	0.371690
Zn7	Zn	1.008229	-0.178907	-0.294985
Zn8	Zn	1.341562	0.154426	0.038348
Zn9	Zn	1.674895	0.487759	0.371682
Zn10	Zn	1.008158	-0.253990	-0.418765
Zn11	Zn	1.341491	0.079343	-0.085431
Zn12	Zn	1.674825	0.412676	0.247902
O13	O	1.070100	-0.216455	-0.356888
O14	O	1.403433	0.116879	-0.023554
O15	O	1.736767	0.450212	0.309779
O16	O	1.235687	-0.188870	-0.402416
O17	O	1.569020	0.144464	-0.069083
O18	O	1.902353	0.477797	0.264250
O19	O	1.115509	-0.244086	-0.191344
O20	O	1.448842	0.089248	0.141989
O21	O	1.782175	0.422581	0.475322
O22	O	1.024739	-0.116038	-0.311441
O23	O	1.358073	0.217295	0.021892
O24	O	1.691406	0.550628	0.355226
O25	O	1.235593	-0.244072	-0.311426
O26	O	1.568926	0.089262	0.021907
O27	O	1.902260	0.422595	0.355241
O28	O	1.115725	-0.116028	-0.402425
O29	O	1.449059	0.217306	-0.069092
O30	O	1.782392	0.550639	0.264242
O31	O	1.024616	-0.188894	-0.191351
O32	O	1.357949	0.144439	0.141982
O33	O	1.691283	0.477772	0.475316
O34	O	0.904586	-0.188857	-0.311384
O35	O	1.237920	0.144476	0.021950
O36	O	1.571253	0.477809	0.355283
O37	O	1.024619	-0.244007	-0.522406
O38	O	1.357952	0.089327	-0.189072
O39	O	1.691285	0.422660	0.144261
O40	O	0.904534	-0.244020	-0.402324
O41	O	1.237868	0.089313	-0.068991
O42	O	1.571201	0.422646	0.264343
O43	O	1.115657	-0.188833	-0.522449
O44	O	1.448990	0.144501	-0.189116
O45	O	1.782324	0.477834	0.144218
O46	O	1.115440	-0.316891	-0.311369
O47	O	1.448773	0.016443	0.021965
O48	O	1.782107	0.349776	0.355298
O49	O	1.024495	-0.316863	-0.402315
O50	O	1.357829	0.016471	-0.068982
O51	O	1.691162	0.349804	0.264351
C52	C	0.877690	-0.216437	-0.356849
C53	C	1.211023	0.116897	-0.023516
C54	C	1.544356	0.450230	0.309818
C55	C	0.795375	-0.216440	-0.356850
C56	C	1.128709	0.116894	-0.023517
C57	C	1.462042	0.450227	0.309817
C58	C	0.496284	-0.216468	-0.356912
C59	C	0.829618	0.116866	-0.023579
C60	C	1.162951	0.450199	0.309755
C61	C	0.527618	-0.181587	-0.299974
C62	C	0.860951	0.151746	0.033359
C63	C	1.194284	0.485080	0.366693
C64	C	0.613236	-0.181680	-0.299731
C65	C	0.946569	0.151653	0.033602
C66	C	1.279903	0.484986	0.366936
C67	C	0.644667	-0.216453	-0.356881
C68	C	0.978000	0.116880	-0.023548
C69	C	1.311334	0.450213	0.309785
C70	C	0.613535	-0.263779	-0.335553
C71	C	0.946868	0.069555	-0.002219
C72	C	1.280201	0.402888	0.331114
C73	C	0.527890	-0.263585	-0.335157
C74	C	0.861223	0.069748	-0.001824
C75	C	1.194556	0.403082	0.331510
C76	C	0.527903	-0.204434	-0.435313
C77	C	0.861237	0.128899	-0.101979
C78	C	1.194570	0.462232	0.231354
C79	C	0.613554	-0.203380	-0.434885
C80	C	0.946888	0.129953	-0.101551
C81	C	1.280221	0.463286	0.231782
C82	C	0.728527	-0.216448	-0.356865
C83	C	1.061860	0.116885	-0.023532
C84	C	1.395193	0.450219	0.309802
C85	C	0.412425	-0.216476	-0.356926
C86	C	0.745758	0.116857	-0.023593
C87	C	1.079092	0.450191	0.309740
C88	C	1.069966	-0.333177	-0.356851
C89	C	1.403300	0.000156	-0.023517
C90	C	1.736633	0.333489	0.309816
C91	C	1.069977	-0.383112	-0.356860
C92	C	1.403310	-0.049778	-0.023526
C93	C	1.736644	0.283555	0.309807
C94	C	1.117541	-0.692757	-0.309601
C95	C	1.450874	-0.359424	0.023733
C96	C	1.784208	-0.026090	0.357066
C97	C	1.117632	-0.880430	-0.309629
C98	C	1.450966	-0.547097	0.023704
C99	C	1.784299	-0.213764	0.357037
O100	O	1.157967	-0.904697	-0.269420
O101	O	1.491300	-0.571363	0.063914
O102	O	1.824634	-0.238030	0.397247
N103	N	1.070254	-0.903897	-0.356943
N104	N	1.403587	-0.570563	-0.023610
N105	N	1.736920	-0.237230	0.309723
C106	C	1.022852	-0.880442	-0.404257
C107	C	1.356185	-0.547109	-0.070924
C108	C	1.689519	-0.213776	0.262410
O109	O	0.982561	-0.904708	-0.444506
O110	O	1.315894	-0.571375	-0.111173
O111	O	1.649228	-0.238042	0.222160
C112	C	1.022765	-0.692770	-0.404231
C113	C	1.356098	-0.359437	-0.070898
C114	C	1.689432	-0.026103	0.262435
C115	C	1.070142	-0.669306	-0.356909
C116	C	1.403475	-0.335973	-0.023576
C117	C	1.736808	-0.002639	0.309758
C118	C	1.164914	-0.669293	-0.262283
C119	C	1.498248	-0.335960	0.071051
C120	C	1.831581	-0.002626	0.404384
C121	C	1.164888	-0.622377	-0.262273
C122	C	1.498222	-0.289044	0.071060
C123	C	1.831555	0.044289	0.404393
C124	C	1.117489	-0.598926	-0.309582
C125	C	1.450822	-0.265593	0.023752
C126	C	1.784155	0.067740	0.357085
C127	C	1.070115	-0.622390	-0.356899
C128	C	1.403449	-0.289057	-0.023566
C129	C	1.736782	0.044276	0.309767
C130	C	0.975368	-0.669317	-0.451548
C131	C	1.308701	-0.335983	-0.118215
C132	C	1.642034	-0.002650	0.215119
C133	C	0.975351	-0.622395	-0.451539
C134	C	1.308685	-0.289062	-0.118206
C135	C	1.642018	0.044271	0.215128
C136	C	1.022728	-0.598931	-0.404217
C137	C	1.356061	-0.265598	-0.070883
C138	C	1.689395	0.067735	0.262450
C139	C	1.022690	-0.552024	-0.404198
C140	C	1.356023	-0.218691	-0.070865
C141	C	1.689356	0.114643	0.262468
N142	N	1.070068	-0.528557	-0.356884
N143	N	1.403402	-0.195224	-0.023551
N144	N	1.736735	0.138109	0.309782
C145	C	1.117468	-0.552008	-0.309576
C146	C	1.450801	-0.218675	0.023757
C147	C	1.784135	0.114658	0.357091
C148	C	1.022900	-0.978973	-0.404266
C149	C	1.356233	-0.645640	-0.070933
C150	C	1.689567	-0.312306	0.262401
C151	C	1.022921	-1.025891	-0.404272
C152	C	1.356254	-0.692557	-0.070938
C153	C	1.689587	-0.359224	0.262395
C154	C	1.117702	-1.025875	-0.309645
C155	C	1.451036	-0.692542	0.023689
C156	C	1.784369	-0.359209	0.357022
C157	C	1.117677	-0.978957	-0.309636
C158	C	1.451011	-0.645623	0.023697
C159	C	1.784344	-0.312290	0.357031
C160	C	1.070279	-0.955506	-0.356952
C161	C	1.403612	-0.622173	-0.023619
C162	C	1.736946	-0.288840	0.309715
C163	C	1.117409	-0.453483	-0.309559
C164	C	1.450742	-0.120149	0.023774
C165	C	1.784076	0.213184	0.357108
C166	C	1.117376	-0.406563	-0.309551
C167	C	1.450710	-0.073230	0.023782
C168	C	1.784043	0.260104	0.357115
C169	C	1.022598	-0.406582	-0.404181
C170	C	1.355931	-0.073249	-0.070847
C171	C	1.689265	0.260084	0.262486
C172	C	1.022627	-0.453498	-0.404186
C173	C	1.355961	-0.120165	-0.070852
C174	C	1.689294	0.213169	0.262481
C175	C	1.070039	-0.476947	-0.356872
C176	C	1.403372	-0.143614	-0.023539
C177	C	1.736706	0.189720	0.309794
O178	O	0.982382	-0.527728	-0.444393
O179	O	1.315715	-0.194395	-0.111059
O180	O	1.649049	0.138938	0.222274
O181	O	1.157765	-0.527734	-0.269344
O182	O	1.491098	-0.194401	0.063989
O183	O	1.824431	0.138932	0.397323
C184	C	1.117567	-0.739673	-0.309610
C185	C	1.450901	-0.406339	0.023723
C186	C	1.784234	-0.073006	0.357056
C187	C	1.070194	-0.763137	-0.356928
C188	C	1.403527	-0.429803	-0.023595
C189	C	1.736861	-0.096470	0.309739
C190	C	1.022794	-0.739686	-0.404237
C191	C	1.356128	-0.406352	-0.070903
C192	C	1.689461	-0.073019	0.262430
C193	C	1.070215	-0.810055	-0.356934
C194	C	1.403548	-0.476721	-0.023600
C195	C	1.736881	-0.143388	0.309733
C196	C	1.117614	-0.833506	-0.309625
C197	C	1.450947	-0.500173	0.023708
C198	C	1.784281	-0.166839	0.357041
C199	C	1.164993	-0.810039	-0.262311
C200	C	1.498326	-0.476706	0.071022
C201	C	1.831660	-0.143373	0.404355
C202	C	1.164967	-0.763124	-0.262302
C203	C	1.498300	-0.429790	0.071031
C204	C	1.831633	-0.096457	0.404365
C205	C	0.975416	-0.763152	-0.451550
C206	C	1.308749	-0.429819	-0.118217
C207	C	1.642082	-0.096486	0.215116
C208	C	0.975445	-0.810068	-0.451556
C209	C	1.308778	-0.476734	-0.118222
C210	C	1.642112	-0.143401	0.215111
C211	C	1.022845	-0.833519	-0.404247
C212	C	1.356178	-0.500186	-0.070914
C213	C	1.689511	-0.166852	0.262419
C214	C	1.263262	-0.216473	-0.356927
C215	C	1.596595	0.116860	-0.023593
C216	C	1.929929	0.450193	0.309740
C217	C	1.345576	-0.216481	-0.356943
C218	C	1.678909	0.116852	-0.023610
C219	C	2.012243	0.450185	0.309723
C220	C	1.070144	-0.216414	-0.550050
C221	C	1.403477	0.116920	-0.216716
C222	C	1.736811	0.450253	0.116617
C223	C	1.070163	-0.216396	-0.632364
C224	C	1.403496	0.116937	-0.299030
C225	C	1.736830	0.450270	0.034303
C226	C	1.070255	-0.099276	-0.356941
C227	C	1.403588	0.234057	-0.023607
C228	C	1.736921	0.567390	0.309726
C229	C	1.070320	-0.049342	-0.356963
C230	C	1.403654	0.283991	-0.023630
C231	C	1.736987	0.617325	0.309703
C232	C	1.070203	-0.216368	-0.931455
C233	C	1.403536	0.116965	-0.598121
C234	C	1.736870	0.450298	-0.264788
C235	C	1.127670	-0.181777	-0.900157
C236	C	1.461003	0.151557	-0.566824
C237	C	1.794337	0.484890	-0.233490
C238	C	1.127491	-0.181648	-0.814539
C239	C	1.460824	0.151685	-0.481205
C240	C	1.794158	0.485018	-0.147872
C241	C	1.070184	-0.216382	-0.783072
C242	C	1.403517	0.116951	-0.449739
C243	C	1.736850	0.450285	-0.116406
C244	C	0.992171	-0.203516	-0.814140
C245	C	1.325504	0.129818	-0.480806
C246	C	1.658837	0.463151	-0.147473
C247	C	0.992515	-0.203256	-0.899785
C248	C	1.325848	0.130077	-0.566452
C249	C	1.659181	0.463410	-0.233118
C250	C	1.090061	-0.263915	-0.899865
C251	C	1.423395	0.069418	-0.566532
C252	C	1.756728	0.402751	-0.233198
C253	C	1.091774	-0.263673	-0.814215
C254	C	1.425107	0.069660	-0.480882
C255	C	1.758440	0.402994	-0.147548
C256	C	1.070168	-0.216391	-0.699213
C257	C	1.403501	0.116943	-0.365879
C258	C	1.736835	0.450276	-0.032546
C259	C	1.070213	-0.216359	-1.015314
C260	C	1.403547	0.116975	-0.681981
C261	C	1.736880	0.450308	-0.348648
C262	C	1.070099	-0.216463	-0.164477
C263	C	1.403432	0.116870	0.168856
C264	C	1.736766	0.450203	0.502190
C265	C	1.070224	-0.216354	-0.082163
C266	C	1.403557	0.116979	0.251170
C267	C	1.736890	0.450313	0.584503
H268	H	0.507058	-0.146386	-0.313196
H269	H	0.840391	0.186947	0.020137
H270	H	1.173725	0.520281	0.353470
F271	F	0.641518	-0.277349	-0.261447
F272	F	0.974851	0.055985	0.071887
F273	F	1.308185	0.389318	0.405220
H274	H	0.936818	-0.744062	-0.490076
H275	H	1.270151	-0.410729	-0.156742
H276	H	1.603485	-0.077395	0.176591
H277	H	0.984003	-0.387481	-0.442696
H278	H	1.317337	-0.054148	-0.109363
H279	H	1.650670	0.279185	0.223970
H280	H	0.936755	-0.603304	-0.490072
H281	H	1.270088	-0.269971	-0.156738
H282	H	1.603421	0.063362	0.176595
H283	H	1.149184	-0.273375	-0.793909
H284	H	1.482517	0.059958	-0.460576
H285	H	1.815851	0.393292	-0.127243
H286	H	1.203517	-0.688382	-0.223758
H287	H	1.536850	-0.355049	0.109575
H288	H	1.870183	-0.021715	0.442908
H289	H	1.145950	-0.275630	-0.921513
H290	H	1.479283	0.057703	-0.588180
H291	H	1.812617	0.391036	-0.254847
F292	F	1.215394	-0.738157	-0.211937
F293	F	1.548727	-0.404824	0.121397
F294	F	1.882061	-0.071491	0.454730
H295	H	0.507639	-0.229840	-0.477737
H296	H	0.840973	0.103493	-0.144403
H297	H	1.174306	0.436827	0.188930
F298	F	0.925015	-0.835035	-0.501924
F299	F	1.258348	-0.501702	-0.168591
F300	F	1.591681	-0.168368	0.164742
H301	H	1.114347	-0.146424	-0.794068
H302	H	1.447681	0.186909	-0.460734
H303	H	1.781014	0.520242	-0.127401
F304	F	1.168102	-0.953988	-0.259270
F305	F	1.501435	-0.620655	0.074063
F306	F	1.834769	-0.287322	0.407397
F307	F	0.969764	-0.158589	-0.786127
F308	F	1.303097	0.174744	-0.452794
F309	F	1.636430	0.508077	-0.119460
H310	H	0.506341	-0.170525	-0.454703
H311	H	0.839675	0.162808	-0.121370
H312	H	1.173008	0.496142	0.211963
H313	H	0.975678	-0.168500	-0.919777
H314	H	1.309012	0.164834	-0.586444
H315	H	1.642345	0.498167	-0.253111
H316	H	0.507160	-0.290454	-0.374819
H317	H	0.840493	0.042879	-0.041486
H318	H	1.173827	0.376213	0.291847
F319	F	1.110711	-0.135993	-0.928310
F320	F	1.444044	0.197341	-0.594976
F321	F	1.777377	0.530674	-0.261643
F322	F	0.640168	-0.157863	-0.455913
F323	F	0.973502	0.175470	-0.122580
F324	F	1.306835	0.508804	0.210753
F325	F	0.934640	-0.234749	-0.926846
F326	F	1.267974	0.098584	-0.593513
F327	F	1.601307	0.431917	-0.260179
H328	H	0.633892	-0.290464	-0.375726
H329	H	0.967225	0.042869	-0.042392
H330	H	1.300558	0.376203	0.290941
H331	H	0.984335	-1.044991	-0.442799
H332	H	1.317668	-0.711658	-0.109466
H333	H	1.651002	-0.378325	0.223867
F334	F	1.203106	-0.192175	-0.787083
F335	F	1.536439	0.141159	-0.453750
F336	F	1.869772	0.474492	-0.120417
F337	F	0.934686	-0.235435	-0.787503
F338	F	1.268019	0.097898	-0.454170
F339	F	1.601353	0.431232	-0.120836
F340	F	1.203532	-0.192176	-0.927094
F341	F	1.536865	0.141157	-0.593760
F342	F	1.870198	0.474491	-0.260427
F343	F	1.215437	-0.835006	-0.211960
F344	F	1.548770	-0.501673	0.121373
F345	F	1.882104	-0.168339	0.454706
F346	F	1.041038	-0.299172	-0.786220
F347	F	1.374371	0.034161	-0.452887
F348	F	1.707704	0.367495	-0.119553
H349	H	0.634287	-0.146587	-0.313101
H350	H	0.967620	0.186747	0.020233
H351	H	1.300954	0.520080	0.353566
F352	F	0.639970	-0.192076	-0.223797
F353	F	0.973303	0.141257	0.109536
F354	F	1.306637	0.474590	0.442869
F355	F	0.499436	-0.191860	-0.224485
F356	F	0.832769	0.141473	0.108849
F357	F	1.166102	0.474807	0.442182
F358	F	0.501726	-0.276922	-0.260242
F359	F	0.835059	0.056412	0.073091
F360	F	1.168393	0.389745	0.406424
H361	H	0.634953	-0.226934	-0.479582
H362	H	0.968286	0.106399	-0.146248
H363	H	1.301619	0.439733	0.187085
H364	H	1.048209	-0.289690	-0.920109
H365	H	1.381542	0.043643	-0.586776
H366	H	1.714875	0.376977	-0.253442
H367	H	1.203468	-0.603276	-0.223742
H368	H	1.536802	-0.269942	0.109592
H369	H	1.870135	0.063391	0.442925
F370	F	1.167803	-0.381593	-0.259182
F371	F	1.501136	-0.048260	0.074151
F372	F	1.834470	0.285073	0.407485
H373	H	1.156018	-0.472569	-0.271034
H374	H	1.489351	-0.139236	0.062300
H375	H	1.822684	0.194098	0.395633
F376	F	0.972191	-0.478471	-0.454537
F377	F	1.305524	-0.145138	-0.121204
F378	F	1.638857	0.188195	0.212129
H379	H	1.156297	-1.044977	-0.271125
H380	H	1.489631	-0.711644	0.062209
H381	H	1.822964	-0.378311	0.395542
H382	H	0.984301	-0.959883	-0.442797
H383	H	1.317634	-0.626549	-0.109464
H384	H	1.650967	-0.293216	0.223869
F385	F	0.924948	-0.694279	-0.501922
F386	F	1.258282	-0.360945	-0.168589
F387	F	1.591615	-0.027612	0.164744
