data_functionalizedCrystal
_audit_creation_method	'MofGen! by Chris Wilmer'
_symmetry_space_group_name_H-M	'P1'
_symmetry_Int_Tables_number	1
_symmetry_cell_setting	triclinic
loop_
_symmetry_equiv_pos_as_xyz
  x,y,z
_cell_length_a	23.532355
_cell_length_b	22.610064
_cell_length_c	23.532407
_cell_angle_alpha	89.996958
_cell_angle_beta	82.838087
_cell_angle_gamma	90.009453
loop_
_atom_site_label
_atom_site_type_symbol
_atom_site_fract_x
_atom_site_fract_y
_atom_site_fract_z
O1	O	0.755288	0.049095	0.068993
O2	O	1.005288	0.299095	0.318993
O3	O	1.255288	0.549095	0.568993
O4	O	1.505288	0.799095	0.818993
O5	O	0.589420	0.049112	0.079027
O6	O	0.839420	0.299112	0.329027
O7	O	1.089420	0.549112	0.579027
O8	O	1.339420	0.799112	0.829027
O9	O	0.677356	0.049110	-0.008923
O10	O	0.927356	0.299110	0.241077
O11	O	1.177356	0.549110	0.491077
O12	O	1.427356	0.799110	0.741077
O13	O	0.667352	0.049097	0.156942
O14	O	0.917352	0.299097	0.406942
O15	O	1.167352	0.549097	0.656942
O16	O	1.417352	0.799097	0.906942
O17	O	0.677330	-0.049259	-0.008923
O18	O	0.927330	0.200741	0.241077
O19	O	1.177330	0.450741	0.491077
O20	O	1.427330	0.700741	0.741077
O21	O	0.589394	-0.049257	0.079027
O22	O	0.839394	0.200743	0.329027
O23	O	1.089394	0.450743	0.579027
O24	O	1.339394	0.700743	0.829027
O25	O	0.755262	-0.049274	0.068993
O26	O	1.005262	0.200726	0.318993
O27	O	1.255262	0.450726	0.568993
O28	O	1.505262	0.700726	0.818993
Zn29	Zn	0.672324	-0.064884	0.074010
Zn30	Zn	0.922324	0.185116	0.324010
Zn31	Zn	1.172324	0.435116	0.574010
Zn32	Zn	1.422324	0.685116	0.824010
Zn33	Zn	0.672358	0.064722	0.074010
Zn34	Zn	0.922358	0.314722	0.324010
Zn35	Zn	1.172358	0.564722	0.574010
Zn36	Zn	1.422358	0.814722	0.824010
O37	O	0.667327	-0.049273	0.156942
O38	O	0.917327	0.200727	0.406942
O39	O	1.167327	0.450727	0.656942
O40	O	1.417327	0.700727	0.906942
C41	C	0.568191	-0.000070	0.078776
C42	C	0.818191	0.249930	0.328776
C43	C	1.068191	0.499930	0.578776
C44	C	1.318191	0.749930	0.828776
C45	C	0.504972	-0.000063	0.078022
C46	C	0.754972	0.249937	0.328022
C47	C	1.004972	0.499937	0.578022
C48	C	1.254972	0.749937	0.828022
N49	N	0.672305	-0.153336	0.074009
N50	N	0.922305	0.096664	0.324009
N51	N	1.172305	0.346664	0.574009
N52	N	1.422305	0.596664	0.824009
C53	C	0.112944	-0.053708	0.073284
C54	C	0.362944	0.196292	0.323284
C55	C	0.612944	0.446292	0.573284
C56	C	0.862944	0.696292	0.823284
C57	C	0.053545	-0.053710	0.072566
C58	C	0.303545	0.196290	0.322566
C59	C	0.553545	0.446290	0.572566
C60	C	0.803545	0.696290	0.822566
O61	O	0.022814	-0.099312	0.072176
O62	O	0.272814	0.150688	0.322176
O63	O	0.522814	0.400688	0.572176
O64	O	0.772814	0.650688	0.822176
N65	N	0.023850	-0.000090	0.072211
N66	N	0.273850	0.249910	0.322211
N67	N	0.523850	0.499910	0.572211
N68	N	0.773850	0.749910	0.822211
C69	C	0.053559	0.053537	0.072567
C70	C	0.303559	0.303537	0.322567
C71	C	0.553559	0.553537	0.572567
C72	C	0.803559	0.803537	0.822567
O73	O	0.022847	0.099146	0.072198
O74	O	0.272847	0.349146	0.322198
O75	O	0.522847	0.599146	0.572198
O76	O	0.772847	0.849146	0.822198
C77	C	0.112958	0.053539	0.073280
C78	C	0.362958	0.303539	0.323280
C79	C	0.612958	0.553539	0.573280
C80	C	0.862958	0.803539	0.823280
C81	C	0.142649	-0.000086	0.073641
C82	C	0.392649	0.249914	0.323641
C83	C	0.642649	0.499914	0.573641
C84	C	0.892649	0.749914	0.823641
C85	C	0.142635	-0.107328	0.073645
C86	C	0.392635	0.142672	0.323645
C87	C	0.642635	0.392672	0.573645
C88	C	0.892635	0.642672	0.823645
C89	C	0.202030	-0.107326	0.074363
C90	C	0.452030	0.142674	0.324363
C91	C	0.702030	0.392674	0.574363
C92	C	0.952030	0.642674	0.824363
C93	C	0.231735	-0.053703	0.074721
C94	C	0.481735	0.196297	0.324721
C95	C	0.731735	0.446297	0.574721
C96	C	0.981735	0.696297	0.824721
C97	C	0.202044	-0.000083	0.074360
C98	C	0.452044	0.249917	0.324360
C99	C	0.702044	0.499917	0.574360
C100	C	0.952044	0.749917	0.824360
C101	C	0.142666	0.107165	0.073632
C102	C	0.392666	0.357165	0.323632
C103	C	0.642666	0.607165	0.573632
C104	C	0.892666	0.857165	0.823632
C105	C	0.202069	0.107162	0.074345
C106	C	0.452069	0.357162	0.324345
C107	C	0.702069	0.607162	0.574345
C108	C	0.952069	0.857162	0.824345
C109	C	0.231760	0.053537	0.074706
C110	C	0.481760	0.303537	0.324706
C111	C	0.731760	0.553537	0.574706
C112	C	0.981760	0.803537	0.824706
C113	C	0.291143	0.053542	0.075436
C114	C	0.541143	0.303542	0.325436
C115	C	0.791143	0.553542	0.575436
C116	C	1.041143	0.803542	0.825436
N117	N	0.320838	-0.000079	0.075792
N118	N	0.570838	0.249921	0.325792
N119	N	0.820838	0.499921	0.575792
N120	N	1.070838	0.749921	0.825792
C121	C	0.291134	-0.053702	0.075434
C122	C	0.541134	0.196298	0.325434
C123	C	0.791134	0.446298	0.575434
C124	C	1.041134	0.696298	0.825434
C125	C	-0.071182	0.053530	0.071068
C126	C	0.178818	0.303530	0.321068
C127	C	0.428818	0.553530	0.571068
C128	C	0.678818	0.803530	0.821068
C129	C	-0.130581	0.053529	0.070358
C130	C	0.119419	0.303529	0.320358
C131	C	0.369419	0.553529	0.570358
C132	C	0.619419	0.803529	0.820358
C133	C	-0.130591	-0.053719	0.070357
C134	C	0.119409	0.196281	0.320357
C135	C	0.369409	0.446281	0.570357
C136	C	0.619409	0.696281	0.820357
C137	C	-0.071192	-0.053717	0.071070
C138	C	0.178808	0.196283	0.321070
C139	C	0.428808	0.446283	0.571070
C140	C	0.678808	0.696283	0.821070
C141	C	-0.041488	-0.000091	0.071423
C142	C	0.208512	0.249909	0.321423
C143	C	0.458512	0.499909	0.571423
C144	C	0.708512	0.749909	0.821423
C145	C	0.415868	-0.053692	0.076944
C146	C	0.665868	0.196308	0.326944
C147	C	0.915868	0.446308	0.576944
C148	C	1.165868	0.696308	0.826944
C149	C	0.475268	-0.053685	0.077664
C150	C	0.725268	0.196315	0.327664
C151	C	0.975268	0.446315	0.577664
C152	C	1.225268	0.696315	0.827664
C153	C	0.475273	0.053562	0.077663
C154	C	0.725273	0.303562	0.327663
C155	C	0.975273	0.553562	0.577663
C156	C	1.225273	0.803562	0.827663
C157	C	0.415878	0.053555	0.076945
C158	C	0.665878	0.303555	0.326945
C159	C	0.915878	0.553555	0.576945
C160	C	1.165878	0.803555	0.826945
C161	C	0.386177	-0.000077	0.076583
C162	C	0.636177	0.249923	0.326583
C163	C	0.886177	0.499923	0.576583
C164	C	1.136177	0.749923	0.826583
O165	O	0.321912	0.099120	0.075825
O166	O	0.571912	0.349120	0.325825
O167	O	0.821912	0.599120	0.575825
O168	O	1.071912	0.849120	0.825825
O169	O	0.321853	-0.099303	0.075796
O170	O	0.571853	0.150697	0.325796
O171	O	0.821853	0.400697	0.575796
O172	O	1.071853	0.650697	0.825796
C173	C	0.706704	-0.561985	0.108364
C174	C	0.956704	-0.311985	0.358364
C175	C	1.206704	-0.061985	0.608364
C176	C	1.456704	0.188015	0.858364
C177	C	0.706711	-0.623905	0.108362
C178	C	0.956711	-0.373905	0.358362
C179	C	1.206711	-0.123905	0.608362
C180	C	1.456711	0.126095	0.858362
O181	O	0.735935	-0.655929	0.137568
O182	O	0.985935	-0.405929	0.387568
O183	O	1.235935	-0.155929	0.637568
O184	O	1.485935	0.094071	0.887568
N185	N	0.672369	-0.654874	0.074003
N186	N	0.922369	-0.404874	0.324003
N187	N	1.172369	-0.154874	0.574003
N188	N	1.422369	0.095126	0.824003
C189	C	0.638022	-0.623919	0.039639
C190	C	0.888022	-0.373919	0.289639
C191	C	1.138022	-0.123919	0.539639
C192	C	1.388022	0.126081	0.789639
O193	O	0.608813	-0.655946	0.010413
O194	O	0.858813	-0.405946	0.260413
O195	O	1.108813	-0.155946	0.510413
O196	O	1.358813	0.094054	0.760413
C197	C	0.638019	-0.562000	0.039638
C198	C	0.888019	-0.312000	0.289638
C199	C	1.138019	-0.062000	0.539638
C200	C	1.388019	0.188000	0.789638
C201	C	0.672358	-0.531035	0.074003
C202	C	0.922358	-0.281035	0.324003
C203	C	1.172358	-0.031035	0.574003
C204	C	1.422358	0.218965	0.824003
C205	C	0.741041	-0.531019	0.142726
C206	C	0.991041	-0.281019	0.392726
C207	C	1.241041	-0.031019	0.642726
C208	C	1.491041	0.218981	0.892726
C209	C	0.741033	-0.469103	0.142728
C210	C	0.991033	-0.219103	0.392728
C211	C	1.241033	0.030897	0.642728
C212	C	1.491033	0.280897	0.892728
C213	C	0.706687	-0.438153	0.108368
C214	C	0.956687	-0.188153	0.358368
C215	C	1.206687	0.061847	0.608368
C216	C	1.456687	0.311847	0.858368
C217	C	0.672350	-0.469119	0.074006
C218	C	0.922350	-0.219119	0.324006
C219	C	1.172350	0.030881	0.574006
C220	C	1.422350	0.280881	0.824006
C221	C	0.603675	-0.531047	0.005271
C222	C	0.853675	-0.281047	0.255271
C223	C	1.103675	-0.031047	0.505271
C224	C	1.353675	0.218953	0.755271
C225	C	0.603675	-0.469124	0.005272
C226	C	0.853675	-0.219124	0.255272
C227	C	1.103675	0.030876	0.505272
C228	C	1.353675	0.280876	0.755272
C229	C	0.638014	-0.438159	0.039638
C230	C	0.888014	-0.188159	0.289638
C231	C	1.138014	0.061841	0.539638
C232	C	1.388014	0.311841	0.789638
C233	C	0.637997	-0.376254	0.039647
C234	C	0.887997	-0.126254	0.289647
C235	C	1.137997	0.123746	0.539647
C236	C	1.387997	0.373746	0.789647
N237	N	0.672338	-0.345285	0.074006
N238	N	0.922338	-0.095285	0.324006
N239	N	1.172338	0.154715	0.574006
N240	N	1.422338	0.404715	0.824006
C241	C	0.706684	-0.376235	0.108367
C242	C	0.956684	-0.126235	0.358367
C243	C	1.206684	0.123765	0.608367
C244	C	1.456684	0.373765	0.858367
C245	C	0.638033	-0.753953	0.039643
C246	C	0.888033	-0.503953	0.289643
C247	C	1.138033	-0.253953	0.539643
C248	C	1.388033	-0.003953	0.789643
C249	C	0.638034	-0.815870	0.039647
C250	C	0.888034	-0.565870	0.289647
C251	C	1.138034	-0.315870	0.539647
C252	C	1.388034	-0.065870	0.789647
C253	C	0.706723	-0.815852	0.108370
C254	C	0.956723	-0.565852	0.358370
C255	C	1.206723	-0.315852	0.608370
C256	C	1.456723	-0.065852	0.858370
C257	C	0.706719	-0.753933	0.108369
C258	C	0.956719	-0.503933	0.358369
C259	C	1.206719	-0.253933	0.608369
C260	C	1.456719	-0.003933	0.858369
C261	C	0.672375	-0.722984	0.074003
C262	C	0.922375	-0.472984	0.324003
C263	C	1.172375	-0.222984	0.574003
C264	C	1.422375	0.027016	0.824003
C265	C	0.706664	-0.246207	0.108369
C266	C	0.956664	0.003793	0.358369
C267	C	1.206664	0.253793	0.608369
C268	C	1.456664	0.503793	0.858369
C269	C	0.706651	-0.184286	0.108370
C270	C	0.956651	0.065714	0.358370
C271	C	1.206651	0.315714	0.608370
C272	C	1.456651	0.565714	0.858370
C273	C	0.637964	-0.184311	0.039645
C274	C	0.887964	0.065689	0.289645
C275	C	1.137964	0.315689	0.539645
C276	C	1.387964	0.565689	0.789645
C277	C	0.637974	-0.246226	0.039646
C278	C	0.887974	0.003774	0.289646
C279	C	1.137974	0.253774	0.539646
C280	C	1.387974	0.503774	0.789646
C281	C	0.672329	-0.277173	0.074010
C282	C	0.922329	-0.027173	0.324010
C283	C	1.172329	0.222827	0.574010
C284	C	1.422329	0.472827	0.824010
O285	O	0.608789	-0.344190	0.010455
O286	O	0.858789	-0.094190	0.260455
O287	O	1.108789	0.155810	0.510455
O288	O	1.358789	0.405810	0.760455
O289	O	0.735894	-0.344200	0.137582
O290	O	0.985894	-0.094200	0.387582
O291	O	1.235894	0.155800	0.637582
O292	O	1.485894	0.405800	0.887582
C293	C	0.776491	-0.000091	0.069244
C294	C	1.026491	0.249909	0.319244
C295	C	1.276491	0.499909	0.569244
C296	C	1.526491	0.749909	0.819244
C297	C	0.839710	-0.000094	0.069998
C298	C	1.089710	0.249906	0.319998
C299	C	1.339710	0.499906	0.569998
C300	C	1.589710	0.749906	0.819998
C301	C	0.677088	-0.000071	-0.030139
C302	C	0.927088	0.249929	0.219861
C303	C	1.177088	0.499929	0.469861
C304	C	1.427088	0.749929	0.719861
C305	C	0.676322	-0.000061	-0.093356
C306	C	0.926322	0.249939	0.156644
C307	C	1.176322	0.499939	0.406644
C308	C	1.426322	0.749939	0.656644
N309	N	0.672381	0.153174	0.074006
N310	N	0.922381	0.403174	0.324006
N311	N	1.172381	0.653174	0.574006
N312	N	1.422381	0.903174	0.824006
C313	C	0.667594	-0.000090	0.178158
C314	C	0.917594	0.249910	0.428158
C315	C	1.167594	0.499910	0.678158
C316	C	1.417594	0.749910	0.928158
C317	C	0.668360	-0.000096	0.241375
C318	C	0.918360	0.249904	0.491375
C319	C	1.168360	0.499904	0.741375
C320	C	1.418360	0.749904	0.991375
C321	C	0.621125	-0.000060	0.640487
C322	C	0.871125	0.249940	0.890487
C323	C	1.121125	0.499940	1.140487
C324	C	1.371125	0.749940	1.390487
C325	C	0.621837	-0.000056	0.699887
C326	C	0.871837	0.249944	0.949887
C327	C	1.121837	0.499944	1.199887
C328	C	1.371837	0.749944	1.449887
O329	O	0.578050	-0.000030	0.736640
O330	O	0.828050	0.249970	0.986640
O331	O	1.078050	0.499970	1.236640
O332	O	1.328050	0.749970	1.486640
N333	N	0.674114	-0.000063	0.722504
N334	N	0.924114	0.249937	0.972504
N335	N	1.174114	0.499937	1.222504
N336	N	1.424114	0.749937	1.472504
C337	C	0.725684	-0.000067	0.685717
C338	C	0.975684	0.249933	0.935717
C339	C	1.225684	0.499933	1.185717
C340	C	1.475684	0.749933	1.435717
O341	O	0.770216	-0.000071	0.710408
O342	O	1.020216	0.249929	0.960408
O343	O	1.270216	0.499929	1.210408
O344	O	1.520216	0.749929	1.460408
C345	C	0.724972	-0.000067	0.626318
C346	C	0.974972	0.249933	0.876318
C347	C	1.224972	0.499933	1.126318
C348	C	1.474972	0.749933	1.376318
C349	C	0.672691	-0.000066	0.603705
C350	C	0.922691	0.249934	0.853705
C351	C	1.172691	0.499934	1.103705
C352	C	1.422691	0.749934	1.353705
C353	C	0.568849	-0.000059	0.617874
C354	C	0.818849	0.249941	0.867874
C355	C	1.068849	0.499941	1.117874
C356	C	1.318849	0.749941	1.367874
C357	C	0.568137	-0.000065	0.558478
C358	C	0.818137	0.249935	0.808478
C359	C	1.068137	0.499935	1.058478
C360	C	1.318137	0.749935	1.308478
C361	C	0.619703	-0.000071	0.521695
C362	C	0.869703	0.249929	0.771695
C363	C	1.119703	0.499929	1.021695
C364	C	1.369703	0.749929	1.271695
C365	C	0.671980	-0.000072	0.544309
C366	C	0.921980	0.249928	0.794309
C367	C	1.171980	0.499928	1.044309
C368	C	1.421980	0.749928	1.294309
C369	C	0.776541	-0.000067	0.589532
C370	C	1.026541	0.249933	0.839532
C371	C	1.276541	0.499933	1.089532
C372	C	1.526541	0.749933	1.339532
C373	C	0.775824	-0.000066	0.530129
C374	C	1.025824	0.249934	0.780129
C375	C	1.275824	0.499934	1.030129
C376	C	1.525824	0.749934	1.280129
C377	C	0.723543	-0.000066	0.507516
C378	C	0.973543	0.249934	0.757516
C379	C	1.223543	0.499934	1.007516
C380	C	1.473543	0.749934	1.257516
C381	C	0.722834	-0.000083	0.448130
C382	C	0.972834	0.249917	0.698130
C383	C	1.222834	0.499917	0.948130
C384	C	1.472834	0.749917	1.198130
N385	N	0.670556	-0.000077	0.425514
N386	N	0.920556	0.249923	0.675514
N387	N	1.170556	0.499923	0.925514
N388	N	1.420556	0.749923	1.175514
C389	C	0.618991	-0.000071	0.462296
C390	C	0.868991	0.249929	0.712296
C391	C	1.118991	0.499929	0.962296
C392	C	1.368991	0.749929	1.212296
C393	C	0.727175	-0.000066	0.810459
C394	C	0.977175	0.249934	1.060459
C395	C	1.227175	0.499934	1.310459
C396	C	1.477175	0.749934	1.560459
C397	C	0.727888	-0.000071	0.869857
C398	C	0.977888	0.249929	1.119857
C399	C	1.227888	0.499929	1.369857
C400	C	1.477888	0.749929	1.619857
C401	C	0.624041	-0.000059	0.884023
C402	C	0.874041	0.249941	1.134023
C403	C	1.124041	0.499941	1.384023
C404	C	1.374041	0.749941	1.634023
C405	C	0.623329	-0.000059	0.824624
C406	C	0.873329	0.249941	1.074624
C407	C	1.123329	0.499941	1.324624
C408	C	1.373329	0.749941	1.574624
C409	C	0.674898	-0.000060	0.787842
C410	C	0.924898	0.249940	1.037842
C411	C	1.174898	0.499940	1.287842
C412	C	1.424898	0.749940	1.537842
C413	C	0.617501	-0.000082	0.337560
C414	C	0.867501	0.249918	0.587560
C415	C	1.117501	0.499918	0.837560
C416	C	1.367501	0.749918	1.087560
C417	C	0.616794	-0.000090	0.278158
C418	C	0.866794	0.249910	0.528158
C419	C	1.116794	0.499910	0.778158
C420	C	1.366794	0.749910	1.028158
C421	C	0.720642	-0.000098	0.263996
C422	C	0.970642	0.249902	0.513996
C423	C	1.220642	0.499902	0.763996
C424	C	1.470642	0.749902	1.013996
C425	C	0.721349	-0.000094	0.323393
C426	C	0.971349	0.249906	0.573393
C427	C	1.221349	0.499906	0.823393
C428	C	1.471349	0.749906	1.073393
C429	C	0.669774	-0.000083	0.360174
C430	C	0.919774	0.249917	0.610174
C431	C	1.169774	0.499917	0.860174
C432	C	1.419774	0.749917	1.110174
O433	O	0.766598	-0.000107	0.411343
O434	O	1.016598	0.249893	0.661343
O435	O	1.266598	0.499893	0.911343
O436	O	1.516598	0.749893	1.161343
O437	O	0.574467	-0.000058	0.437597
O438	O	0.824467	0.249942	0.687597
O439	O	1.074467	0.499942	0.937597
O440	O	1.324467	0.749942	1.187597
H441	H	0.391691	-0.097365	0.076654
H442	H	0.641691	0.152635	0.326654
H443	H	0.891691	0.402635	0.576654
H444	H	1.141691	0.652635	0.826654
O445	O	0.110544	-0.165137	0.073302
O446	O	0.360544	0.084863	0.323302
O447	O	0.610544	0.334863	0.573302
O448	O	0.860544	0.584863	0.823302
H449	H	0.127191	-0.190899	0.034635
H450	H	0.377191	0.059101	0.284635
H451	H	0.627191	0.309101	0.534635
H452	H	0.877191	0.559101	0.784635
O453	O	0.777737	-0.000095	0.347784
O454	O	1.027737	0.249905	0.597784
O455	O	1.277737	0.499905	0.847784
O456	O	1.527737	0.749905	1.097784
H457	H	0.780541	-0.040185	0.374514
H458	H	1.030541	0.209815	0.624514
H459	H	1.280541	0.459815	0.874514
H460	H	1.530541	0.709815	1.124514
H461	H	-0.154751	0.097195	0.070073
H462	H	0.095249	0.347195	0.320073
H463	H	0.345249	0.597195	0.570073
H464	H	0.595249	0.847195	0.820073
H465	H	0.582053	-0.000054	0.913983
H466	H	0.832053	0.249946	1.163983
H467	H	1.082053	0.499946	1.413983
H468	H	1.332053	0.749946	1.663983
O469	O	0.566940	-0.000059	0.800237
O470	O	0.816940	0.249941	1.050237
O471	O	1.066940	0.499941	1.300237
O472	O	1.316940	0.749941	1.550237
H473	H	0.564139	0.040032	0.773508
H474	H	0.814139	0.290032	1.023508
H475	H	1.064139	0.540032	1.273508
H476	H	1.314139	0.790032	1.523508
H477	H	0.499439	-0.097355	0.077961
H478	H	0.749439	0.152645	0.327961
H479	H	0.999439	0.402645	0.577961
H480	H	1.249439	0.652645	0.827961
O481	O	0.234049	-0.165163	0.074765
O482	O	0.484049	0.084837	0.324765
O483	O	0.734049	0.334837	0.574765
O484	O	0.984049	0.584837	0.824765
H485	H	0.203407	-0.202446	0.074397
H486	H	0.453407	0.047554	0.324397
H487	H	0.703407	0.297554	0.574397
H488	H	0.953407	0.547554	0.824397
H489	H	0.734614	-0.159077	0.136357
H490	H	0.984614	0.090923	0.386357
H491	H	1.234614	0.340923	0.636357
H492	H	1.484614	0.590923	0.886357
O493	O	0.600988	-0.720588	0.002564
O494	O	0.850988	-0.470588	0.252564
O495	O	1.100988	-0.220588	0.502564
O496	O	1.350988	0.029412	0.752564
H497	H	0.628468	-0.692382	-0.028197
H498	H	0.878468	-0.442382	0.221803
H499	H	1.128468	-0.192382	0.471803
H500	H	1.378468	0.057618	0.721803
O501	O	-0.039170	-0.111555	0.071457
O502	O	0.210830	0.138445	0.321457
O503	O	0.460830	0.388445	0.571457
O504	O	0.710830	0.638445	0.821457
H505	H	-0.017411	-0.114124	0.110607
H506	H	0.232589	0.135876	0.360607
H507	H	0.482589	0.385876	0.610607
H508	H	0.732589	0.635876	0.860607
O509	O	0.778076	-0.435712	0.179792
O510	O	1.028076	-0.185712	0.429792
O511	O	1.278076	0.064288	0.679792
O512	O	1.528076	0.314288	0.929792
H513	H	0.772305	-0.387455	0.174029
H514	H	1.022305	-0.137455	0.424029
H515	H	1.272305	0.112545	0.674029
H516	H	1.522305	0.362545	0.924029
H517	H	0.574219	-0.000092	0.259750
H518	H	0.824219	0.249908	0.509750
H519	H	1.074219	0.499908	0.759750
H520	H	1.324219	0.749908	1.009750
O521	O	0.561876	-0.000080	0.377227
O522	O	0.811876	0.249920	0.627227
O523	O	1.061876	0.499920	0.877227
O524	O	1.311876	0.749920	1.127227
H525	H	0.525410	-0.000088	0.351515
H526	H	0.775410	0.249912	0.601515
H527	H	1.025410	0.499912	0.851515
H528	H	1.275410	0.749912	1.101515
H529	H	0.226251	0.150832	0.074632
H530	H	0.476251	0.400832	0.324632
H531	H	0.726251	0.650832	0.574632
H532	H	0.976251	0.900832	0.824632
O533	O	0.743777	-0.849242	0.145423
O534	O	0.993777	-0.599242	0.395423
O535	O	1.243777	-0.349242	0.645423
O536	O	1.493777	-0.099242	0.895423
H537	H	0.716305	-0.877468	0.176171
H538	H	0.966305	-0.627468	0.426171
H539	H	1.216305	-0.377468	0.676171
H540	H	1.466305	-0.127468	0.926171
H541	H	0.391701	0.097221	0.076660
H542	H	0.641701	0.347221	0.326660
H543	H	0.891701	0.597221	0.576660
H544	H	1.141701	0.847221	0.826660
H545	H	0.762625	-0.000106	0.234037
H546	H	1.012625	0.249894	0.484037
H547	H	1.262625	0.499894	0.734037
H548	H	1.512625	0.749894	0.984037
H549	H	0.525565	-0.000059	0.540072
H550	H	0.775565	0.249941	0.790072
H551	H	1.025565	0.499941	1.040072
H552	H	1.275565	0.749941	1.290072
H553	H	0.770461	-0.000080	0.888262
H554	H	1.020461	0.249920	1.138262
H555	H	1.270461	0.499920	1.388262
H556	H	1.520461	0.749920	1.638262
H557	H	0.769172	-0.000071	0.780513
H558	H	1.019172	0.249929	1.030513
H559	H	1.269172	0.499929	1.280513
H560	H	1.519172	0.749929	1.530513
H561	H	-0.154787	-0.097382	0.070065
H562	H	0.095213	0.152618	0.320065
H563	H	0.345213	0.402618	0.570065
H564	H	0.595213	0.652618	0.820065
H565	H	0.819114	-0.000067	0.607932
H566	H	1.069114	0.249933	0.857932
H567	H	1.319114	0.499933	1.107932
H568	H	1.569114	0.749933	1.357932
H569	H	0.610064	-0.841078	0.011670
H570	H	0.860064	-0.591078	0.261670
H571	H	1.110064	-0.341078	0.511670
H572	H	1.360064	-0.091078	0.761670
O573	O	0.831446	-0.000074	0.490456
O574	O	1.081446	0.249926	0.740456
O575	O	1.331446	0.499926	0.990456
O576	O	1.581446	0.749926	1.240456
H577	H	0.867916	-0.000080	0.516164
H578	H	1.117916	0.249920	0.766164
H579	H	1.367916	0.499920	1.016164
H580	H	1.617916	0.749920	1.266164
H581	H	0.118502	0.150832	0.073337
H582	H	0.368502	0.400832	0.323337
H583	H	0.618502	0.650832	0.573337
H584	H	0.868502	0.900832	0.823337
O585	O	-0.039146	0.111373	0.071459
O586	O	0.210854	0.361373	0.321459
O587	O	0.460854	0.611373	0.571459
O588	O	0.710854	0.861373	0.821459
H589	H	-0.069779	0.148654	0.071098
H590	H	0.180221	0.398654	0.321098
H591	H	0.430221	0.648654	0.571098
H592	H	0.680221	0.898654	0.821098
H593	H	0.575713	-0.556249	-0.022714
H594	H	0.825713	-0.306249	0.227286
H595	H	1.075713	-0.056249	0.477286
H596	H	1.325713	0.193751	0.727286
O597	O	0.566628	-0.435742	-0.031791
O598	O	0.816628	-0.185742	0.218209
O599	O	1.066628	0.064258	0.468209
O600	O	1.316628	0.314258	0.718209
H601	H	0.542749	-0.467681	-0.055681
H602	H	0.792749	-0.217681	0.194319
H603	H	1.042749	0.032319	0.444319
H604	H	1.292749	0.282319	0.694319
H605	H	0.609999	-0.159100	0.011671
H606	H	0.859999	0.090900	0.261671
H607	H	1.109999	0.340900	0.511671
H608	H	1.359999	0.590900	0.761671
O609	O	0.513225	-0.000063	0.657539
O610	O	0.763225	0.249937	0.907539
O611	O	1.013225	0.499937	1.157539
O612	O	1.263225	0.749937	1.407539
H613	H	0.488194	0.040027	0.649527
H614	H	0.738194	0.290027	0.899527
H615	H	0.988194	0.540027	1.149527
H616	H	1.238194	0.790027	1.399527
H617	H	0.734639	-0.271397	0.136351
H618	H	0.984639	-0.021397	0.386351
H619	H	1.234639	0.228603	0.636351
H620	H	1.484639	0.478603	0.886351
O621	O	0.507318	0.111397	0.078035
O622	O	0.757318	0.361397	0.328035
O623	O	1.007318	0.611397	0.578035
O624	O	1.257318	0.861397	0.828035
H625	H	0.553610	0.102384	0.078584
H626	H	0.803610	0.352384	0.328584
H627	H	1.053610	0.602384	0.578584
H628	H	1.303610	0.852384	0.828584
O629	O	0.778085	-0.564397	0.179793
O630	O	1.028085	-0.314397	0.429793
O631	O	1.278085	-0.064397	0.679793
O632	O	1.528085	0.185603	0.929793
H633	H	0.801954	-0.532452	0.203686
H634	H	1.051954	-0.282452	0.453686
H635	H	1.301954	-0.032452	0.703686
H636	H	1.551954	0.217548	0.953686
O637	O	0.743759	-0.720535	0.145431
O638	O	0.993759	-0.470535	0.395431
O639	O	1.243759	-0.220535	0.645431
O640	O	1.493759	0.029465	0.895431
H641	H	0.767642	-0.752465	0.169320
H642	H	1.017642	-0.502465	0.419320
H643	H	1.267642	-0.252465	0.669320
H644	H	1.517642	-0.002465	0.919320
H645	H	0.610005	-0.271440	0.011670
H646	H	0.860005	-0.021440	0.261670
H647	H	1.110005	0.228560	0.511670
H648	H	1.360005	0.478560	0.761670
