data_functionalizedCrystal
_audit_creation_method	'MofGen! by Chris Wilmer'
_symmetry_space_group_name_H-M	'P1'
_symmetry_Int_Tables_number	1
_symmetry_cell_setting	triclinic
loop_
_symmetry_equiv_pos_as_xyz
  x,y,z
_cell_length_a	8.597314
_cell_length_b	7.681187
_cell_length_c	8.559649
_cell_angle_alpha	94.922842
_cell_angle_beta	102.374712
_cell_angle_gamma	88.176009
loop_
_atom_site_label
_atom_site_type_symbol
_atom_site_fract_x
_atom_site_fract_y
_atom_site_fract_z
O1	O	-2.035275	0.162319	0.254522
O2	O	-1.583924	0.093848	0.265832
O3	O	-1.849364	0.134118	0.028819
O4	O	-1.769836	0.122050	0.491534
O5	O	-1.816651	0.422025	0.058034
O6	O	-1.551212	0.381756	0.295046
O7	O	-2.002563	0.450227	0.283736
Zn8	Zn	-1.771693	0.461703	0.294029
Zn9	Zn	-1.814794	0.082372	0.255539
O10	O	-1.737123	0.409957	0.520749
C11	C	-1.510320	0.229117	0.277596
C12	C	-1.339742	0.203240	0.269107
C13	C	-1.839035	0.278983	-0.015915
C14	C	-1.856976	0.281695	-0.192735
N15	N	-1.742290	0.720588	0.320298
C16	C	-1.076167	0.314961	0.271971
C17	C	-1.246745	0.340847	0.280457
N18	N	-1.844211	-0.176510	0.229258
C19	C	-1.747453	0.265089	0.565483
C20	C	-1.729513	0.262365	0.742301
H21	H	-1.297626	0.478463	0.296660
Cl22	Cl	-1.261192	-0.009245	0.244066
H23	H	-1.638289	0.780046	0.413203
H24	H	-1.948209	0.764021	0.136335
Cl25	Cl	-1.539833	0.233594	-0.134725
Cl26	Cl	-2.046662	0.310494	-0.315713
