data_functionalizedCrystal
_audit_creation_method	'MofGen! by Chris Wilmer'
_symmetry_space_group_name_H-M	'P1'
_symmetry_Int_Tables_number	1
_symmetry_cell_setting	triclinic
loop_
_symmetry_equiv_pos_as_xyz
  x,y,z
_cell_length_a	17.000383
_cell_length_b	15.500227
_cell_length_c	15.995350
_cell_angle_alpha	87.169609
_cell_angle_beta	79.546339
_cell_angle_gamma	92.622316
loop_
_atom_site_label
_atom_site_type_symbol
_atom_site_fract_x
_atom_site_fract_y
_atom_site_fract_z
O1	O	1.059806	0.072003	0.026019
O2	O	1.393139	0.405336	0.359352
O3	O	1.726472	0.738669	0.692685
O4	O	0.828073	0.071990	0.056406
O5	O	1.161406	0.405323	0.389739
O6	O	1.494739	0.738657	0.723072
O7	O	0.950274	0.071996	-0.081142
O8	O	1.283607	0.405329	0.252192
O9	O	1.616940	0.738663	0.585525
O10	O	0.937605	0.071997	0.163566
O11	O	1.270938	0.405330	0.496899
O12	O	1.604271	0.738663	0.830233
O13	O	0.942858	-0.071893	-0.072826
O14	O	1.276192	0.261440	0.260508
O15	O	1.609525	0.594773	0.593841
O16	O	0.820657	-0.071899	0.064722
O17	O	1.153991	0.261434	0.398055
O18	O	1.487324	0.594768	0.731389
O19	O	1.052390	-0.071886	0.034335
O20	O	1.385723	0.261447	0.367668
O21	O	1.719057	0.594780	0.701001
Cu22	Cu	0.935847	-0.085031	0.050288
Cu23	Cu	1.269180	0.248302	0.383621
Cu24	Cu	1.602513	0.581636	0.716954
Cu25	Cu	0.944616	0.085135	0.040453
Cu26	Cu	1.277950	0.418468	0.373786
Cu27	Cu	1.611283	0.751801	0.707120
O28	O	0.930189	-0.071892	0.171882
O29	O	1.263522	0.261441	0.505216
O30	O	1.596856	0.594774	0.838549
C31	C	0.794711	0.000044	0.062196
C32	C	1.128045	0.333377	0.395529
C33	C	1.461378	0.666711	0.728863
C34	C	0.706353	0.000039	0.067049
C35	C	1.039686	0.333373	0.400382
C36	C	1.373019	0.666706	0.733716
C37	C	0.206137	0.000072	0.098382
C38	C	0.539471	0.333405	0.431715
C39	C	0.872804	0.666738	0.765049
C40	C	0.289160	0.000071	0.093816
C41	C	0.622494	0.333404	0.427149
C42	C	0.955827	0.666738	0.760482
C43	C	0.340155	0.000064	0.014558
C44	C	0.673488	0.333398	0.347892
C45	C	1.006821	0.666731	0.681225
C46	C	0.308123	0.000067	-0.060138
C47	C	0.641456	0.333400	0.273195
C48	C	0.974790	0.666734	0.606529
C49	C	0.225102	0.000074	-0.055572
C50	C	0.558435	0.333407	0.277762
C51	C	0.891768	0.666740	0.611095
C52	C	0.591300	0.000049	-0.003081
C53	C	0.924633	0.333382	0.330252
C54	C	1.257966	0.666716	0.663586
C55	C	0.674326	0.000039	-0.007642
C56	C	1.007659	0.333373	0.325691
C57	C	1.340992	0.666706	0.659025
C58	C	0.655358	0.000045	0.146313
C59	C	0.988691	0.333379	0.479646
C60	C	1.322024	0.666712	0.812979
C61	C	0.572335	0.000047	0.150872
C62	C	0.905669	0.333380	0.484206
C63	C	1.239002	0.666714	0.817539
C64	C	0.540311	0.000054	0.076176
C65	C	0.873644	0.333387	0.409509
C66	C	1.206978	0.666721	0.742842
C67	C	0.425017	0.000061	0.009889
C68	C	0.758351	0.333394	0.343223
C69	C	1.091684	0.666727	0.676556
C70	C	0.455450	0.000064	0.080845
C71	C	0.788783	0.333397	0.414179
C72	C	1.122117	0.666730	0.747512
N73	N	0.929684	-0.204716	0.057204
N74	N	1.263018	0.128617	0.390537
N75	N	1.596351	0.461950	0.723871
C76	C	0.981483	-0.249990	-0.001061
C77	C	1.314816	0.083343	0.332272
C78	C	1.648150	0.416676	0.665606
C79	C	0.976830	-0.340563	0.004177
C80	C	1.310163	-0.007230	0.337510
C81	C	1.643497	0.326103	0.670844
C82	C	0.920381	-0.385861	0.067684
C83	C	1.253715	-0.052527	0.401017
C84	C	1.587048	0.280806	0.734351
C85	C	0.868577	-0.340580	0.125952
C86	C	1.201910	-0.007247	0.459285
C87	C	1.535244	0.326087	0.792619
C88	C	0.873227	-0.250009	0.120710
C89	C	1.206560	0.083325	0.454043
C90	C	1.539894	0.416658	0.787376
C91	C	0.903630	-0.659328	0.086555
C92	C	1.236964	-0.325995	0.419888
C93	C	1.570297	0.007338	0.753222
C94	C	0.898986	-0.749906	0.091794
C95	C	1.232319	-0.416573	0.425128
C96	C	1.565653	-0.083239	0.758461
C97	C	1.007238	-0.749883	-0.029982
C98	C	1.340572	-0.416550	0.303351
C99	C	1.673905	-0.083216	0.636685
C100	C	1.011887	-0.659310	-0.035216
C101	C	1.345220	-0.325977	0.298118
C102	C	1.678553	0.007357	0.631451
C103	C	0.960080	-0.614037	0.023049
C104	C	1.293413	-0.280704	0.356383
C105	C	1.626746	0.052629	0.689716
C106	C	0.915625	-0.478441	0.073041
C107	C	1.248959	-0.145108	0.406375
C108	C	1.582292	0.188226	0.739708
C109	C	0.964832	-0.521459	0.017688
C110	C	1.298166	-0.188125	0.351021
C111	C	1.631499	0.145208	0.684355
C112	C	1.085752	0.000061	0.028544
C113	C	1.419085	0.333395	0.361878
C114	C	1.752418	0.666728	0.695211
C115	C	1.174111	0.000072	0.023691
C116	C	1.507444	0.333405	0.357025
C117	C	1.840777	0.666738	0.690358
C118	C	0.946042	0.000053	-0.108140
C119	C	1.279376	0.333386	0.225193
C120	C	1.612709	0.666720	0.558527
C121	C	0.944472	0.000058	-0.200975
C122	C	1.277806	0.333391	0.132358
C123	C	1.611139	0.666724	0.465692
N124	N	0.950785	0.204820	0.033529
N125	N	1.284118	0.538153	0.366863
N126	N	1.617451	0.871486	0.700196
C127	C	0.938833	0.000055	-0.538307
C128	C	1.272166	0.333388	-0.204974
C129	C	1.605500	0.666721	0.128359
C130	C	0.851820	0.000373	-0.484485
C131	C	1.185154	0.333706	-0.151152
C132	C	1.518487	0.667039	0.182182
C133	C	0.853374	0.000048	-0.387892
C134	C	1.186708	0.333382	-0.054558
C135	C	1.520041	0.666715	0.278775
C136	C	0.941630	0.000057	-0.370953
C137	C	1.274964	0.333390	-0.037619
C138	C	1.608297	0.666723	0.295714
C139	C	0.980322	-0.082107	-0.410441
C140	C	1.313655	0.251226	-0.077108
C141	C	1.646988	0.584559	0.256225
C142	C	0.978132	-0.082176	-0.506912
C143	C	1.311465	0.251157	-0.173579
C144	C	1.644798	0.584491	0.159754
C145	C	0.988362	0.081453	-0.516860
C146	C	1.321696	0.414786	-0.183526
C147	C	1.655029	0.748119	0.149807
C148	C	0.988398	0.082539	-0.419976
C149	C	1.321731	0.415872	-0.086642
C150	C	1.655064	0.749205	0.246691
C151	C	0.943216	0.000055	-0.276372
C152	C	1.276549	0.333388	0.056962
C153	C	1.609882	0.666722	0.390295
C154	C	0.937250	0.000050	-0.632888
C155	C	1.270583	0.333384	-0.299555
C156	C	1.603917	0.666717	0.033778
C157	C	0.934421	0.000053	0.198880
C158	C	1.267754	0.333386	0.532214
C159	C	1.601087	0.666719	0.865547
C160	C	0.935991	0.000053	0.291715
C161	C	1.269324	0.333387	0.625048
C162	C	1.602658	0.666720	0.958382
H163	H	0.565236	0.000052	-0.063904
H164	H	0.898569	0.333386	0.269429
H165	H	1.231903	0.666719	0.602762
H166	H	0.530820	0.000055	0.215412
H167	H	0.864154	0.333388	0.548746
H168	H	1.197487	0.666722	0.882079
F169	F	0.362397	0.000063	-0.144491
F170	F	0.695731	0.333396	0.188843
F171	F	1.029064	0.666729	0.522176
F172	F	0.191017	0.000074	-0.135068
F173	F	0.524351	0.333407	0.198265
F174	F	0.857684	0.666740	0.531599
F175	F	0.804997	-0.077070	-0.343740
F176	F	1.138330	0.256263	-0.010407
F177	F	1.471664	0.589596	0.322926
H178	H	0.869665	-0.515329	0.124752
H179	H	1.202998	-0.181996	0.458085
H180	H	1.536332	0.151337	0.791418
H181	H	0.963118	0.143728	-0.538904
H182	H	1.296451	0.477062	-0.205571
H183	H	1.629785	0.810395	0.127763
H184	H	0.315232	0.000079	0.154637
H185	H	0.648566	0.333412	0.487970
H186	H	0.981899	0.666746	0.821303
F187	F	0.689447	0.000042	0.225804
F188	F	1.022780	0.333376	0.559138
F189	F	1.356113	0.666709	0.892471
H190	H	0.466546	0.000052	-0.054642
H191	H	0.799879	0.333386	0.278691
H192	H	1.133213	0.666719	0.612025
H193	H	0.960146	0.143321	-0.393930
H194	H	1.293479	0.476655	-0.060596
H195	H	1.626813	0.809988	0.272737
F196	F	0.810320	0.077388	-0.509809
F197	F	1.143654	0.410721	-0.176475
F198	F	1.476987	0.744054	0.156858
F199	F	0.401177	0.000076	0.165194
F200	F	0.734510	0.333410	0.498527
F201	F	1.067844	0.666743	0.831860
F202	F	1.072855	0.089037	-0.406461
F203	F	1.406188	0.422370	-0.073128
F204	F	1.739522	0.755703	0.260206
F205	F	1.072269	0.082184	-0.564590
F206	F	1.405602	0.415518	-0.231257
F207	F	1.738936	0.748851	0.102076
F208	F	0.848496	-0.611153	0.148566
F209	F	1.181830	-0.277819	0.481900
F210	F	1.515163	0.055514	0.815233
F211	F	0.728597	0.000033	-0.092002
F212	F	1.061931	0.333366	0.241331
F213	F	1.395264	0.666700	0.574664
H214	H	1.019008	-0.377425	-0.043268
H215	H	1.352341	-0.044092	0.290066
H216	H	1.685675	0.289241	0.623399
F217	F	0.151872	0.000072	0.182740
F218	F	0.485205	0.333406	0.516073
F219	F	0.818538	0.666739	0.849407
F220	F	0.933078	-0.162460	-0.523184
F221	F	1.266411	0.170873	-0.189850
F222	F	1.599745	0.504206	0.143483
F223	F	1.062370	-0.798071	-0.091990
F224	F	1.395703	-0.464738	0.241344
F225	F	1.729036	-0.131404	0.574677
F226	F	1.041568	-0.201790	-0.068651
F227	F	1.374901	0.131543	0.264682
F228	F	1.708235	0.464877	0.598015
H229	H	1.057852	-0.622431	-0.086928
H230	H	1.391185	-0.289097	0.246405
H231	H	1.724518	0.044236	0.579738
H232	H	0.853016	-0.786783	0.143513
H233	H	1.186350	-0.453450	0.476847
H234	H	1.519683	-0.120116	0.810180
H235	H	0.822611	-0.377466	0.177659
H236	H	1.155945	-0.044133	0.510992
H237	H	1.489278	0.289200	0.844325
F238	F	0.818093	-0.201826	0.182722
F239	F	1.151426	0.131507	0.516055
F240	F	1.484759	0.464841	0.849388
F241	F	1.024904	-0.473249	-0.049902
F242	F	1.358238	-0.139916	0.283431
F243	F	1.691571	0.193418	0.616765
H244	H	0.822667	0.058946	-0.360390
H245	H	1.156000	0.392280	-0.027056
H246	H	1.489334	0.725613	0.306277
H247	H	0.814170	-0.058224	-0.498143
H248	H	1.147504	0.275109	-0.164810
H249	H	1.480837	0.608443	0.168524
F250	F	1.061394	-0.087050	-0.554931
F251	F	1.394728	0.246283	-0.221598
F252	F	1.728061	0.579616	0.111735
F253	F	1.064866	-0.086097	-0.397988
F254	F	1.398199	0.247237	-0.064655
F255	F	1.731533	0.580570	0.268678
H256	H	0.947356	-0.143256	-0.376331
H257	H	1.280689	0.190077	-0.042998
H258	H	1.614023	0.523410	0.290336
