data_functionalizedCrystal
_audit_creation_method	'MofGen! by Chris Wilmer'
_symmetry_space_group_name_H-M	'P1'
_symmetry_Int_Tables_number	1
_symmetry_cell_setting	triclinic
loop_
_symmetry_equiv_pos_as_xyz
  x,y,z
_cell_length_a	6.817900
_cell_length_b	11.168138
_cell_length_c	11.168136
_cell_angle_alpha	92.020086
_cell_angle_beta	108.508683
_cell_angle_gamma	108.508793
loop_
_atom_site_label
_atom_site_type_symbol
_atom_site_fract_x
_atom_site_fract_y
_atom_site_fract_z
V1	V	-4.109883	-0.174724	-0.393710
O2	O	-4.069466	0.008377	-0.386204
O3	O	-4.086173	-0.346429	-0.391027
O4	O	-4.086174	-0.172045	-0.565415
O5	O	-4.069465	-0.167215	-0.210609
V6	V	-4.587113	-0.152822	-0.371808
O7	O	-4.384947	-0.222767	-0.441753
O8	O	-4.762246	-0.104778	-0.323765
O9	O	-4.387617	0.018883	-0.374490
O10	O	-4.744927	-0.335922	-0.379314
O11	O	-4.744928	-0.160331	-0.554909
O12	O	-4.387616	-0.155501	-0.200102
C13	C	-3.936381	-0.388287	-0.384819
C14	C	-3.998446	-0.528658	-0.383771
C15	C	-3.936381	-0.165841	-0.607267
C16	C	-3.998443	-0.164786	-0.747637
C17	C	-4.265095	-0.742424	-0.388208
C18	C	-4.200952	-0.597343	-0.389292
C19	C	-4.200951	-0.170305	-0.816329
C20	C	-4.265099	-0.169216	-0.961410
C21	C	-4.200752	0.060735	-0.380695
C22	C	-4.117926	0.201105	-0.381752
C23	C	-4.200751	-0.161709	-0.158245
C24	C	-4.117926	-0.162757	-0.017873
H25	H	-4.438576	-0.801484	-0.392929
C26	C	-3.782737	-0.625936	-0.266507
C27	C	-3.883721	-0.719177	-0.375370
H28	H	-3.638151	-0.576720	-0.262573
H29	H	-3.774785	-0.666124	-0.192419
H30	H	-3.866777	-0.571716	-0.270711
H31	H	-3.799690	-0.773403	-0.371162
H32	H	-3.891662	-0.678986	-0.449477
H33	H	-4.326845	-0.548757	-0.394828
H34	H	-4.326830	-0.175828	-0.767731
H35	H	-3.872548	-0.577238	-0.378248
H36	H	-4.438584	-0.173947	-1.020461
H37	H	-3.944445	-0.158040	-0.958832
C38	C	-3.794569	-0.047318	-0.871673
C39	C	-3.828488	-0.157317	-0.813230
H40	H	-3.689651	-0.042713	-0.912171
H41	H	-3.741107	0.025999	-0.808936
H42	H	-3.929948	-0.050652	-0.933565
H43	H	-3.693111	-0.153979	-0.751332
H44	H	-3.881942	-0.230653	-0.875975
