data_functionalizedCrystal
_audit_creation_method	'MofGen! by Chris Wilmer'
_symmetry_space_group_name_H-M	'P1'
_symmetry_Int_Tables_number	1
_symmetry_cell_setting	triclinic
loop_
_symmetry_equiv_pos_as_xyz
  x,y,z
_cell_length_a	16.992701
_cell_length_b	14.044190
_cell_length_c	15.455313
_cell_angle_alpha	92.904485
_cell_angle_beta	87.136501
_cell_angle_gamma	91.929473
loop_
_atom_site_label
_atom_site_type_symbol
_atom_site_fract_x
_atom_site_fract_y
_atom_site_fract_z
O1	O	1.057692	0.198141	-0.072154
O2	O	0.829252	0.195927	-0.072154
O3	O	0.940039	0.058790	-0.072137
O4	O	0.946904	0.335278	-0.072171
O5	O	0.933702	0.066598	0.072125
O6	O	0.822914	0.203735	0.072107
O7	O	1.051354	0.205949	0.072108
Cu8	Cu	0.936555	0.205555	0.085280
Cu9	Cu	0.944051	0.196321	-0.085326
O10	O	0.940567	0.343086	0.072090
C11	C	0.796671	0.196979	-0.000023
C12	C	0.709031	0.188472	-0.000022
C13	C	0.216072	0.131308	-0.000018
C14	C	0.298418	0.139309	-0.000014
C15	C	0.336266	0.229407	-0.000029
C16	C	0.291762	0.311509	-0.000040
C17	C	0.209418	0.303507	-0.000038
C18	C	0.582183	0.262572	-0.000031
C19	C	0.664534	0.270568	-0.000035
C20	C	0.671184	0.098367	-0.000008
C21	C	0.588838	0.090373	-0.000011
C22	C	0.544341	0.172475	-0.000017
N23	N	0.420437	0.237588	-0.000028
N24	N	0.460172	0.164294	-0.000013
C25	C	0.933868	0.027152	-0.000003
C26	C	0.924911	-0.078751	0.000004
C27	C	0.972059	-0.325469	-0.000030
C28	C	0.908551	-0.272650	-0.000024
C29	C	0.917656	-0.164755	-0.000008
C30	C	0.962955	-0.433374	-0.000045
C31	C	1.083935	0.204896	-0.000025
C32	C	1.171575	0.213404	-0.000031
C33	C	0.946738	0.374723	-0.000045
C34	C	0.955695	0.480627	-0.000058
N35	N	0.931290	0.212049	0.205274
N36	N	0.949322	0.189820	-0.205321
C37	C	0.978375	0.153813	0.250676
C38	C	0.974401	0.158733	0.341483
C39	C	0.923344	0.221896	0.386887
C40	C	0.876253	0.280134	0.341480
C41	C	0.880224	0.275208	0.250674
C42	C	0.906202	0.243133	0.658466
C43	C	0.902236	0.248056	0.749278
C44	C	1.000384	0.126654	0.749275
C45	C	1.004354	0.121737	0.658468
C46	C	0.957260	0.179972	0.613068
N47	N	0.919282	0.226929	0.479707
N48	N	0.961318	0.174933	0.520250
H49	H	0.558028	0.017006	0.000001
H50	H	0.185263	0.057940	-0.000012
H51	H	1.033263	-0.289659	-0.000021
H52	H	0.334644	0.072458	0.000000
H53	H	1.038725	0.079240	0.786248
H54	H	1.019955	0.102383	0.213714
H55	H	1.012741	0.111312	0.378449
O56	O	1.053965	0.060295	0.614500
C57	C	1.094688	0.009964	0.674045
H58	H	1.059464	0.009927	0.738784
H59	H	1.154988	0.045906	0.683680
C60	C	1.148560	-0.093469	0.559110
C61	C	1.105294	-0.093522	0.638622
H62	H	1.155106	-0.157304	0.537259
H63	H	1.121127	-0.059559	0.518992
H64	H	1.198805	-0.063513	0.567150
H65	H	1.055046	-0.123467	0.630579
H66	H	1.132719	-0.127440	0.678737
O67	O	0.852560	0.309428	0.793251
C68	C	0.811854	0.359785	0.733709
H69	H	0.811067	0.317141	0.668987
H70	H	0.842809	0.432016	0.724032
C71	C	0.727605	0.427199	0.848664
C72	C	0.726633	0.374819	0.769173
H73	H	0.675037	0.436478	0.870541
H74	H	0.755031	0.393277	0.888780
H75	H	0.753404	0.487386	0.840590
H76	H	0.700843	0.314630	0.777251
H77	H	0.699201	0.408733	0.729060
H78	H	0.867858	0.290552	0.621509
O79	O	0.714525	0.018717	0.000043
C80	C	0.795321	0.045093	0.000017
H81	H	0.802511	0.121661	0.027313
H82	H	0.821887	0.039529	-0.069192
C83	C	0.829151	-0.116052	0.023080
C84	C	0.837981	-0.022012	0.056612
H85	H	0.855467	-0.157447	0.057987
H86	H	0.774717	-0.133823	0.023095
H87	H	0.851289	-0.120675	-0.034594
H88	H	0.815835	-0.017388	0.114280
H89	H	0.892413	-0.004242	0.056608
O90	O	0.166070	0.383160	-0.000016
C91	C	0.085276	0.356778	-0.000031
H92	H	0.075691	0.283170	0.027294
H93	H	0.064790	0.354839	-0.069240
C94	C	0.049418	0.520417	0.022973
C95	C	0.037644	0.430014	0.056540
H96	H	0.020034	0.565594	0.057864
H97	H	0.103850	0.538192	0.022980
H98	H	0.032346	0.518788	-0.034701
H99	H	0.054725	0.431642	0.114208
H100	H	-0.016787	0.412241	0.056544
H101	H	0.847342	-0.308461	-0.000029
H102	H	0.834677	0.331559	0.378453
O103	O	0.701174	0.358169	-0.000009
C104	C	0.644244	0.428919	-0.000035
H105	H	0.585322	0.399459	0.027286
H106	H	0.637501	0.450796	-0.069247
C107	C	0.743133	0.552630	0.022969
C108	C	0.670764	0.516449	0.056532
H109	H	0.759492	0.606624	0.057858
H110	H	0.781488	0.504965	0.022983
H111	H	0.737504	0.570853	-0.034707
H112	H	0.676396	0.498216	0.114202
H113	H	0.632410	0.564113	0.056528
H114	H	0.841880	0.322629	0.213709
H115	H	0.545964	0.329426	-0.000040
H116	H	0.322584	0.384869	-0.000047
