data_functionalizedCrystal
_audit_creation_method	'MofGen! by Chris Wilmer'
_symmetry_space_group_name_H-M	'P1'
_symmetry_Int_Tables_number	1
_symmetry_cell_setting	triclinic
loop_
_symmetry_equiv_pos_as_xyz
  x,y,z
_cell_length_a	10.654541
_cell_length_b	11.026607
_cell_length_c	9.482900
_cell_angle_alpha	78.599815
_cell_angle_beta	99.379224
_cell_angle_gamma	96.534973
loop_
_atom_site_label
_atom_site_type_symbol
_atom_site_fract_x
_atom_site_fract_y
_atom_site_fract_z
O1	O	-1.720210	-0.151889	-0.120845
O2	O	-1.358265	-0.168160	-0.120857
O3	O	-1.509239	0.016880	-0.120847
O4	O	-1.569236	-0.336929	-0.120856
O5	O	-1.478607	-0.020858	0.120943
O6	O	-1.327633	-0.205898	0.120933
O7	O	-1.689578	-0.189627	0.120945
Cu8	Cu	-1.505809	-0.201208	0.143016
Cu9	Cu	-1.542034	-0.156579	-0.142929
O10	O	-1.538604	-0.374667	0.120935
C11	C	-1.482855	0.043315	0.000046
C12	C	-1.449861	0.178308	0.000040
C13	C	-1.295892	-0.185834	0.000036
C14	C	-1.155673	-0.182261	0.000031
C15	C	-1.751951	-0.171952	0.000048
C16	C	-1.892171	-0.175524	0.000044
C17	C	-1.175736	-0.403525	0.000008
C18	C	-1.119894	-0.512472	-0.000010
C19	C	-0.988145	-0.509107	-0.000011
C20	C	-0.912235	-0.396784	0.000010
C21	C	-0.968077	-0.287836	0.000027
C22	C	-1.099830	-0.291212	0.000024
C23	C	-0.948013	-0.066577	0.000061
C24	C	-1.079763	-0.069937	0.000052
C25	C	-0.872103	0.045747	0.000082
C26	C	-0.927946	0.154698	0.000089
C27	C	-1.059703	0.151329	0.000089
C28	C	-1.135605	0.039010	0.000070
C29	C	-1.564988	-0.401102	0.000039
C30	C	-1.597983	-0.536093	0.000035
N31	N	-1.480338	-0.232598	0.344135
C32	C	-1.540965	0.251347	0.000041
C33	C	-1.506866	0.390869	0.000034
N34	N	-1.567512	-0.125180	-0.344047
C35	C	-1.534511	-0.165831	0.416338
C36	C	-1.513331	-0.191957	0.583754
H37	H	-1.283017	-0.406270	-0.000023
H38	H	-1.403620	0.431625	0.000021
C39	C	-0.927402	-0.627399	0.000268
C40	C	-0.836615	-0.651367	0.124678
C41	C	-0.780646	-0.760334	0.124994
H42	H	-0.887000	-0.617643	-0.083953
H43	H	-0.991429	-0.694823	0.000337
H44	H	-0.772599	-0.583959	0.124596
H45	H	-0.876986	-0.661146	0.208920
H46	H	-0.844673	-0.827758	0.125063
H47	H	-0.740251	-0.750568	0.040767
H48	H	-0.719049	-0.776616	0.209411
H49	H	-1.418272	-0.309097	0.406261
H50	H	-0.764826	0.048477	0.000089
C51	C	-1.120557	0.269475	0.000180
C52	C	-1.252181	0.242491	0.000207
C53	C	-1.308273	0.351294	0.000311
H54	H	-1.105657	0.328735	-0.084105
H55	H	-1.084231	0.302316	0.084541
H56	H	-1.288495	0.209668	-0.084145
H57	H	-1.267117	0.183248	0.084486
H58	H	-1.271947	0.384135	0.084672
H59	H	-1.293364	0.410547	-0.083976
H60	H	-1.397583	0.332998	0.000343
H61	H	-1.181714	-0.603924	-0.000023
H62	H	-1.242885	0.036259	0.000052
C63	C	-1.617077	-0.063656	0.333553
C64	C	-1.564705	0.050210	0.370407
C65	C	-1.640727	0.144355	0.294148
H66	H	-1.700954	-0.081075	0.358332
H67	H	-1.620275	-0.059600	0.232032
H68	H	-1.561521	0.046152	0.471905
H69	H	-1.480836	0.067668	0.345624
H70	H	-1.643925	0.148411	0.192627
H71	H	-1.724600	0.126924	0.318933
H72	H	-1.605197	0.221625	0.319132
C73	C	-1.430347	-0.293819	0.666497
C74	C	-1.306858	-0.267586	0.629629
C75	C	-1.230375	-0.361381	0.705838
H76	H	-1.465541	-0.371227	0.641686
H77	H	-1.427021	-0.297814	0.768025
H78	H	-1.310188	-0.263605	0.528123
H79	H	-1.271627	-0.190195	0.654443
H80	H	-1.227050	-0.365377	0.807366
H81	H	-1.265581	-0.438783	0.681022
H82	H	-1.146577	-0.343590	0.680844
H83	H	-1.701245	0.423172	-0.000070
C84	C	-1.650017	-0.022876	0.573391
C85	C	-1.597454	0.090847	0.610505
C86	C	-1.673387	0.185163	0.534544
H87	H	-1.733873	-0.040257	0.598239
H88	H	-1.653305	-0.018645	0.471828
H89	H	-1.594181	0.086615	0.712046
H90	H	-1.513607	0.108268	0.585653
H91	H	-1.676674	0.189394	0.432980
H92	H	-1.757239	0.167770	0.559397
H93	H	-1.637727	0.262336	0.559704
H94	H	-0.804957	-0.394056	0.000026
H95	H	-0.866130	0.246144	0.000105
H96	H	-1.644204	0.210586	0.000053
H97	H	-1.346622	0.219069	0.000027
