data_functionalizedCrystal
_audit_creation_method	'MofGen! by Chris Wilmer'
_symmetry_space_group_name_H-M	'P1'
_symmetry_Int_Tables_number	1
_symmetry_cell_setting	triclinic
loop_
_symmetry_equiv_pos_as_xyz
  x,y,z
_cell_length_a	16.959454
_cell_length_b	12.759401
_cell_length_c	12.759393
_cell_angle_alpha	90.019676
_cell_angle_beta	90.029640
_cell_angle_gamma	90.020501
loop_
_atom_site_label
_atom_site_type_symbol
_atom_site_fract_x
_atom_site_fract_y
_atom_site_fract_z
Zn1	Zn	-0.314634	1.606227	0.593991
Zn2	Zn	-0.446833	1.606102	0.418314
Zn3	Zn	-0.314674	1.430526	0.418330
Zn4	Zn	-0.446776	1.430501	0.593955
O5	O	-0.380729	1.518339	0.506147
O6	O	-0.332178	1.753231	0.570695
O7	O	-0.429343	1.582769	0.271295
O8	O	-0.204058	1.453896	0.441654
O9	O	-0.429305	1.753139	0.441626
O10	O	-0.204029	1.582983	0.570711
O11	O	-0.332246	1.453774	0.271307
O12	O	-0.332190	1.283502	0.441619
O13	O	-0.429206	1.453854	0.740981
O14	O	-0.429244	1.283484	0.570649
O15	O	-0.332122	1.582959	0.741007
O16	O	-0.557437	1.582745	0.441591
O17	O	-0.557394	1.453732	0.570634
C18	C	-0.380716	1.245372	0.506133
C19	C	-0.380729	1.128595	0.506151
C20	C	-0.330247	1.073782	0.573461
C21	C	-0.330255	0.964058	0.573468
C22	C	-0.431234	0.963970	0.438852
C23	C	-0.431221	1.073692	0.438841
C24	C	-0.586096	1.518251	0.506129
C25	C	-0.673952	1.518309	0.506157
C26	C	-1.045436	1.451259	0.573333
C27	C	-1.045420	1.585711	0.439069
C28	C	-0.962874	1.585674	0.439059
C29	C	-0.921605	1.518428	0.506186
C30	C	-0.962882	1.451218	0.573323
C31	C	-0.921591	1.652875	0.371916
C32	C	-0.839040	1.652841	0.371903
C33	C	-0.797769	1.585599	0.439036
C34	C	-0.839052	1.518387	0.506176
C35	C	-0.797783	1.451141	0.573303
C36	C	-0.839063	1.383934	0.640450
C37	C	-0.921612	1.383977	0.640456
C38	C	-0.715221	1.585556	0.439030
C39	C	-0.715229	1.451100	0.573294
C40	C	-0.174561	1.518456	0.506188
C41	C	-0.086704	1.518506	0.506206
C42	C	-0.380744	1.792372	0.506163
C43	C	-0.380750	1.909149	0.506169
C44	C	-0.380653	1.518418	0.780181
C45	C	-0.380621	1.518451	0.896958
C46	C	-0.380748	1.518321	0.233180
C47	C	-0.380558	1.518491	0.116404
C48	C	-0.330062	1.585681	0.951835
C49	C	-0.330027	1.585699	1.061559
C50	C	-0.431119	1.451254	1.061519
C51	C	-0.431149	1.451231	0.951797
H52	H	-0.472331	1.118322	0.384023
C53	C	-0.230431	1.062843	0.706518
C54	C	-0.274741	1.134132	0.647440
H55	H	-0.196159	1.100101	0.752184
H56	H	-0.264910	1.020058	0.746628
H57	H	-0.200162	1.020034	0.660803
H58	H	-0.305014	1.176936	0.693155
H59	H	-0.240257	1.176935	0.607326
C60	C	-0.230127	1.718565	0.962900
C61	C	-0.274514	1.659557	0.891555
H62	H	-0.195829	1.764167	0.925686
H63	H	-0.264555	1.758741	1.005690
H64	H	-0.199882	1.672802	1.005698
H65	H	-0.304764	1.705320	0.848762
H66	H	-0.240081	1.619378	0.848747
H67	H	-1.079026	1.640454	0.384411
C68	C	-1.048126	1.712479	0.312174
C69	C	-0.966954	1.726680	0.298025
H70	H	-1.076132	1.758019	0.266526
H71	H	-1.061653	1.641874	0.296842
H72	H	-1.061644	1.727932	0.382746
H73	H	-0.953435	1.711219	0.227454
H74	H	-0.953421	1.797301	0.313349
C75	C	-0.475966	1.391596	1.229698
C76	C	-0.486664	1.377377	1.121802
H77	H	-0.510262	1.345991	1.266910
H78	H	-0.422858	1.376253	1.247684
H79	H	-0.487535	1.462187	1.247675
H80	H	-0.475089	1.306787	1.103824
H81	H	-0.539784	1.392713	1.103808
C82	C	-0.565036	0.930134	0.387372
C83	C	-0.486741	0.903618	0.364876
H84	H	-0.599304	0.892881	0.341698
H85	H	-0.576663	0.912178	0.457930
H86	H	-0.572241	1.003328	0.377727
H87	H	-0.479534	0.830426	0.374528
H88	H	-0.475111	0.921567	0.294301
H89	H	-0.288856	1.640443	1.106236
H90	H	-0.472320	1.396477	0.907114
H91	H	-0.681614	1.640270	0.384356
C92	C	-0.319420	0.840729	0.714824
C93	C	-0.274767	0.903805	0.647461
H94	H	-0.285160	0.803529	0.760501
H95	H	-0.353885	0.883540	0.754923
H96	H	-0.349487	0.792329	0.674730
H97	H	-0.244703	0.952210	0.687555
H98	H	-0.240288	0.860990	0.607358
H99	H	-0.681633	1.396343	0.627961
H100	H	-0.805453	1.329176	0.695100
H101	H	-0.955230	1.329259	0.695122
H102	H	-1.079050	1.396544	0.628004
C103	C	-0.847325	1.785756	0.239196
C104	C	-0.793668	1.726723	0.298109
H105	H	-0.819312	1.831374	0.193647
H106	H	-0.879559	1.740018	0.198968
H107	H	-0.879486	1.825926	0.285022
H108	H	-0.761511	1.686547	0.252284
H109	H	-0.761421	1.772467	0.338340
