data_functionalizedCrystal
_audit_creation_method	'MofGen! by Chris Wilmer'
_symmetry_space_group_name_H-M	'P1'
_symmetry_Int_Tables_number	1
_symmetry_cell_setting	triclinic
loop_
_symmetry_equiv_pos_as_xyz
  x,y,z
_cell_length_a	17.699083
_cell_length_b	16.992695
_cell_length_c	16.176319
_cell_angle_alpha	89.993125
_cell_angle_beta	89.998611
_cell_angle_gamma	86.975619
loop_
_atom_site_label
_atom_site_type_symbol
_atom_site_fract_x
_atom_site_fract_y
_atom_site_fract_z
O1	O	1.010252	0.099146	-0.068631
O2	O	0.790676	0.112045	-0.068658
O3	O	0.899584	-0.008546	-0.068638
O4	O	0.901344	0.219736	-0.068651
O5	O	0.899567	-0.008553	0.068855
O6	O	0.790660	0.112037	0.068835
O7	O	1.010235	0.099138	0.068862
Cu8	Cu	0.900446	0.105587	0.081403
Cu9	Cu	0.900465	0.105596	-0.081199
O10	O	0.901328	0.219729	0.068842
C11	C	0.762442	0.111579	0.000085
C12	C	0.678338	0.110192	0.000075
C13	C	0.634124	0.180976	0.000071
C14	C	0.555099	0.179669	0.000082
C15	C	0.520290	0.107576	0.000091
C16	C	0.564510	0.036787	0.000097
C17	C	0.643533	0.038095	0.000092
C18	C	0.245818	0.031509	0.000118
C19	C	0.166789	0.030206	0.000120
C20	C	0.157384	0.173082	0.000108
C21	C	0.236408	0.174391	0.000103
C22	C	0.280621	0.103602	0.000113
C23	C	0.366308	0.105020	0.000103
C24	C	0.434604	0.106157	0.000095
C25	C	0.897311	-0.037758	0.000108
C26	C	0.890554	-0.124789	0.000107
C27	C	0.955751	-0.175154	0.000116
C28	C	0.949398	-0.256928	0.000107
C29	C	0.877846	-0.288336	0.000096
C30	C	0.812643	-0.237965	0.000084
C31	C	0.818998	-0.156192	0.000087
C32	C	0.851510	-0.531884	0.000081
C33	C	0.845160	-0.613663	0.000081
C34	C	0.981915	-0.632621	0.000102
C35	C	0.988263	-0.550845	0.000110
C36	C	0.923061	-0.500481	0.000094
N37	N	0.871350	-0.371923	0.000090
N38	N	0.929558	-0.416897	0.000095
C39	C	1.038469	0.099604	0.000117
C40	C	1.122574	0.100991	0.000122
C41	C	0.903601	0.248941	0.000094
C42	C	0.910358	0.335972	0.000090
N43	N	0.900438	0.105580	0.195768
N44	N	0.900479	0.105597	-0.195564
C45	C	0.948679	0.052204	0.239041
C46	C	0.948683	0.052203	0.325588
C47	C	0.900449	0.105583	0.368861
C48	C	0.852202	0.158961	0.325582
C49	C	0.852195	0.158957	0.239036
C50	C	0.852229	0.158976	0.674610
C51	C	0.852242	0.158977	0.761161
C52	C	0.948717	0.052222	0.761162
C53	C	0.948709	0.052218	0.674617
C54	C	0.900461	0.105593	0.631345
C55	C	0.900456	0.105593	0.537501
C56	C	0.900457	0.105588	0.462703
H57	H	0.679531	-0.019545	0.000095
N58	N	1.000741	-0.005339	0.372262
H59	H	1.031309	-0.039142	0.331717
H60	H	1.036000	0.024668	0.408145
N61	N	0.273943	0.252152	0.000096
H62	H	0.306521	0.255876	0.051062
H63	H	0.306477	0.255839	-0.050909
H64	H	1.046528	-0.525279	0.000120
N65	N	0.735467	-0.271834	0.000078
H66	H	0.706685	-0.253454	-0.050895
H67	H	0.741395	-0.331274	0.000113
N68	N	0.293489	-0.044845	0.000117
H69	H	0.326484	-0.047488	-0.050853
H70	H	0.326439	-0.047454	0.051118
N71	N	0.671659	0.258737	0.000055
H72	H	0.655852	0.289739	0.051022
H73	H	0.728421	0.248766	0.000018
N74	N	0.800188	0.216538	0.627945
H75	H	0.769635	0.250352	0.668493
H76	H	0.831243	0.251163	0.592021
N77	N	0.526962	-0.040967	0.000116
H78	H	0.494383	-0.044694	-0.050851
H79	H	0.567005	-0.085568	0.000152
N80	N	0.129237	-0.047552	0.000136
H81	H	0.145044	-0.078562	-0.050827
H82	H	0.145054	-0.078492	0.051145
N83	N	1.000736	-0.005351	0.627944
H84	H	1.031297	-0.039167	0.668491
H85	H	0.969665	-0.039974	0.592046
H86	H	0.988001	0.008758	0.796403
H87	H	0.812912	0.202420	0.203804
N88	N	1.032926	-0.141281	0.000136
H89	H	1.073263	-0.185598	0.000140
H90	H	1.038549	-0.107758	-0.050832
H91	H	1.034999	-0.673635	0.000114
N92	N	0.507411	0.256014	0.000171
H93	H	0.541453	0.301882	0.000190
H94	H	0.474377	0.258644	-0.050765
H95	H	1.002489	-0.297933	0.000117
H96	H	0.786891	-0.639232	0.000085
N97	N	0.781187	-0.477569	0.000068
H98	H	0.734898	-0.509877	0.000064
H99	H	0.780838	-0.443234	0.051038
H100	H	0.121377	0.230722	0.000103
H101	H	0.765906	-0.115186	0.000080
N102	N	1.000708	-0.005365	0.192372
H103	H	1.031268	-0.039179	0.232921
H104	H	0.969640	-0.039990	0.156472
H105	H	0.812961	0.202446	0.796393
N106	N	0.800172	0.216530	0.372249
H107	H	0.807497	0.208436	0.433642
H108	H	0.812271	0.272138	0.357109
