data_functionalizedCrystal
_audit_creation_method	'MofGen! by Chris Wilmer'
_symmetry_space_group_name_H-M	'P1'
_symmetry_Int_Tables_number	1
_symmetry_cell_setting	triclinic
loop_
_symmetry_equiv_pos_as_xyz
  x,y,z
_cell_length_a	27.731993
_cell_length_b	19.288865
_cell_length_c	17.766277
_cell_angle_alpha	90.011603
_cell_angle_beta	90.002172
_cell_angle_gamma	97.121679
loop_
_atom_site_label
_atom_site_type_symbol
_atom_site_fract_x
_atom_site_fract_y
_atom_site_fract_z
O1	O	0.641197	-0.082469	-0.062400
O2	O	0.891197	0.167531	0.187600
O3	O	1.141197	0.417531	0.437600
O4	O	1.391197	0.667531	0.687600
O5	O	0.500438	-0.095075	-0.062447
O6	O	0.750438	0.154925	0.187553
O7	O	1.000438	0.404925	0.437553
O8	O	1.250438	0.654925	0.687553
O9	O	0.574885	0.012385	-0.062407
O10	O	0.824885	0.262385	0.187593
O11	O	1.074885	0.512385	0.437593
O12	O	1.324885	0.762385	0.687593
O13	O	0.566750	-0.189929	-0.062440
O14	O	0.816750	0.060071	0.187560
O15	O	1.066750	0.310071	0.437560
O16	O	1.316750	0.560071	0.687560
O17	O	0.574872	0.012390	0.062781
O18	O	0.824872	0.262390	0.312781
O19	O	1.074872	0.512390	0.562781
O20	O	1.324872	0.762390	0.812781
O21	O	0.500425	-0.095070	0.062741
O22	O	0.750425	0.154930	0.312741
O23	O	1.000425	0.404930	0.562741
O24	O	1.250425	0.654930	0.812741
O25	O	0.641184	-0.082464	0.062788
O26	O	0.891184	0.167536	0.312788
O27	O	1.141184	0.417536	0.562788
O28	O	1.391184	0.667536	0.812788
Cu29	Cu	0.570803	-0.088766	0.074196
Cu30	Cu	0.820803	0.161234	0.324196
Cu31	Cu	1.070803	0.411234	0.574196
Cu32	Cu	1.320803	0.661234	0.824196
Cu33	Cu	0.570819	-0.088772	-0.073854
Cu34	Cu	0.820819	0.161228	0.176146
Cu35	Cu	1.070819	0.411228	0.426146
Cu36	Cu	1.320819	0.661228	0.676146
O37	O	0.566737	-0.189924	0.062749
O38	O	0.816737	0.060076	0.312749
O39	O	1.066737	0.310076	0.562749
O40	O	1.316737	0.560076	0.812749
C41	C	0.482423	-0.094814	0.000141
C42	C	0.732423	0.155186	0.250141
C43	C	0.982423	0.405186	0.500141
C44	C	1.232423	0.655186	0.750141
C45	C	0.428764	-0.094035	0.000124
C46	C	0.678764	0.155965	0.250124
C47	C	0.928764	0.405965	0.500124
C48	C	1.178764	0.655965	0.750124
C49	C	0.045594	-0.088389	-0.068079
C50	C	0.295594	0.161611	0.181921
C51	C	0.545594	0.411611	0.431921
C52	C	0.795594	0.661611	0.681921
C53	C	0.247261	-0.091360	-0.068100
C54	C	0.497261	0.158640	0.181900
C55	C	0.747261	0.408640	0.431900
C56	C	0.997261	0.658640	0.681900
O57	O	0.273341	-0.091718	-0.126137
O58	O	0.523341	0.158282	0.123863
O59	O	0.773341	0.408282	0.373863
O60	O	1.023341	0.658282	0.623863
N61	N	0.272475	-0.091728	0.000139
N62	N	0.522475	0.158272	0.250139
N63	N	0.772475	0.408272	0.500139
N64	N	1.022475	0.658272	0.750139
C65	C	0.247270	-0.091350	0.068388
C66	C	0.497270	0.158650	0.318388
C67	C	0.747270	0.408650	0.568388
C68	C	0.997270	0.658650	0.818388
O69	O	0.273344	-0.091724	0.126428
O70	O	0.523344	0.158276	0.376428
O71	O	0.773344	0.408276	0.626428
O72	O	1.023344	0.658276	0.876428
C73	C	0.045605	-0.088375	0.068408
C74	C	0.295605	0.161625	0.318408
C75	C	0.545605	0.411625	0.568408
C76	C	0.795605	0.661625	0.818408
C77	C	0.020393	-0.088013	0.000164
C78	C	0.270393	0.161987	0.250164
C79	C	0.520393	0.411987	0.500164
C80	C	0.770393	0.661987	0.750164
C81	C	0.020382	-0.088027	-0.136317
C82	C	0.270382	0.161973	0.113683
C83	C	0.520382	0.411973	0.363683
C84	C	0.770382	0.661973	0.613683
C85	C	-0.030032	-0.087288	-0.136311
C86	C	0.219968	0.162712	0.113689
C87	C	0.469968	0.412712	0.363689
C88	C	0.719968	0.662712	0.613689
C89	C	-0.055234	-0.086912	-0.068067
C90	C	0.194766	0.163088	0.181933
C91	C	0.444766	0.413088	0.431933
C92	C	0.694766	0.663088	0.681933
C93	C	-0.030021	-0.087274	0.000170
C94	C	0.219979	0.162726	0.250170
C95	C	0.469979	0.412726	0.500170
C96	C	0.719979	0.662726	0.750170
C97	C	0.020401	-0.087991	0.136656
C98	C	0.270401	0.162009	0.386656
C99	C	0.520401	0.412009	0.636656
C100	C	0.770401	0.662009	0.886656
C101	C	-0.030018	-0.087246	0.136655
C102	C	0.219982	0.162754	0.386655
C103	C	0.469982	0.412754	0.636655
C104	C	0.719982	0.662754	0.886655
C105	C	-0.055230	-0.086884	0.068411
C106	C	0.194770	0.163116	0.318411
C107	C	0.444770	0.413116	0.568411
C108	C	0.694770	0.663116	0.818411
C109	C	-0.105637	-0.086159	0.068420
C110	C	0.144363	0.163841	0.318420
C111	C	0.394363	0.413841	0.568420
C112	C	0.644363	0.663841	0.818420
N113	N	-0.130851	-0.085791	0.000181
N114	N	0.119149	0.164209	0.250181
N115	N	0.369149	0.414209	0.500181
N116	N	0.619149	0.664209	0.750181
C117	C	-0.105650	-0.086167	-0.068062
C118	C	0.144350	0.163833	0.181938
C119	C	0.394350	0.413833	0.431938
C120	C	0.644350	0.663833	0.681938
C121	C	0.353147	-0.092913	0.068372
C122	C	0.603147	0.157087	0.318372
C123	C	0.853147	0.407087	0.568372
C124	C	1.103147	0.657087	0.818372
C125	C	0.403563	-0.093658	0.068367
C126	C	0.653563	0.156342	0.318367
C127	C	0.903563	0.406342	0.568367
C128	C	1.153563	0.656342	0.818367
C129	C	0.403550	-0.093667	-0.068120
C130	C	0.653550	0.156333	0.181880
C131	C	0.903550	0.406333	0.431880
C132	C	1.153550	0.656333	0.681880
C133	C	0.353133	-0.092927	-0.068115
C134	C	0.603133	0.157073	0.181885
C135	C	0.853133	0.407073	0.431885
C136	C	1.103133	0.657073	0.681885
C137	C	0.327933	-0.092545	0.000133
C138	C	0.577933	0.157455	0.250133
C139	C	0.827933	0.407455	0.500133
C140	C	1.077933	0.657455	0.750133
C141	C	-0.211522	-0.084616	-0.068045
C142	C	0.038478	0.165384	0.181955
C143	C	0.288478	0.415384	0.431955
C144	C	0.538478	0.665384	0.681955
C145	C	-0.261941	-0.083880	-0.068033
C146	C	-0.011941	0.166120	0.181967
C147	C	0.238059	0.416120	0.431967
C148	C	0.488059	0.666120	0.681967
C149	C	-0.261924	-0.083868	0.068454
C150	C	-0.011924	0.166132	0.318454
C151	C	0.238076	0.416132	0.568454
C152	C	0.488076	0.666132	0.818454
C153	C	-0.211510	-0.084608	0.068443
C154	C	0.038490	0.165392	0.318443
C155	C	0.288490	0.415392	0.568443
C156	C	0.538490	0.665392	0.818443
C157	C	-0.186310	-0.084979	0.000187
C158	C	0.063690	0.165021	0.250187
C159	C	0.313690	0.415021	0.500187
C160	C	0.563690	0.665021	0.750187
O161	O	-0.131747	-0.085793	0.126427
O162	O	0.118253	0.164207	0.376427
O163	O	0.368253	0.414207	0.626427
O164	O	0.618253	0.664207	0.876427
O165	O	-0.131731	-0.085777	-0.126094
O166	O	0.118269	0.164223	0.123906
O167	O	0.368269	0.414223	0.373906
O168	O	0.618269	0.664223	0.623906
C169	C	0.096008	-0.089128	-0.068085
C170	C	0.346008	0.160872	0.181915
C171	C	0.596008	0.410872	0.431915
C172	C	0.846008	0.660872	0.681915
C173	C	0.121220	-0.089490	0.000153
C174	C	0.371220	0.160510	0.250153
C175	C	0.621220	0.410510	0.500153
C176	C	0.871220	0.660510	0.750153
C177	C	0.096019	-0.089114	0.068396
C178	C	0.346019	0.160886	0.318396
C179	C	0.596019	0.410886	0.568396
C180	C	0.846019	0.660886	0.818396
C181	C	0.171636	-0.090236	0.000148
C182	C	0.421636	0.159764	0.250148
C183	C	0.671636	0.409764	0.500148
C184	C	0.921636	0.659764	0.750148
C185	C	0.196838	-0.090612	-0.068096
C186	C	0.446838	0.159388	0.181904
C187	C	0.696838	0.409388	0.431904
C188	C	0.946838	0.659388	0.681904
C189	C	0.171624	-0.090243	-0.136334
C190	C	0.421624	0.159757	0.113666
C191	C	0.671624	0.409757	0.363666
C192	C	0.921624	0.659757	0.613666
C193	C	0.121210	-0.089504	-0.136328
C194	C	0.371210	0.160496	0.113672
C195	C	0.621210	0.410496	0.363672
C196	C	0.871210	0.660496	0.613672
C197	C	0.121233	-0.089483	0.136635
C198	C	0.371233	0.160517	0.386635
C199	C	0.621233	0.410517	0.636635
C200	C	0.871233	0.660517	0.886635
C201	C	0.171647	-0.090222	0.136623
C202	C	0.421647	0.159778	0.386623
C203	C	0.671647	0.409778	0.636623
C204	C	0.921647	0.659778	0.886623
C205	C	0.196849	-0.090599	0.068380
C206	C	0.446849	0.159401	0.318380
C207	C	0.696849	0.409401	0.568380
C208	C	0.946849	0.659401	0.818380
C209	C	0.574616	0.038262	0.000189
C210	C	0.824616	0.288262	0.250189
C211	C	1.074616	0.538262	0.500189
C212	C	1.324616	0.788262	0.750189
C213	C	0.573831	0.115361	0.000195
C214	C	0.823831	0.365361	0.250195
C215	C	1.073831	0.615361	0.500195
C216	C	1.323831	0.865361	0.750195
C217	C	0.659199	-0.082725	0.000198
C218	C	0.909199	0.167275	0.250198
C219	C	1.159199	0.417275	0.500198
C220	C	1.409199	0.667275	0.750198
C221	C	0.712857	-0.083504	0.000211
C222	C	0.962857	0.166496	0.250211
C223	C	1.212857	0.416496	0.500211
C224	C	1.462857	0.666496	0.750211
C225	C	0.567005	-0.215801	0.000150
C226	C	0.817005	0.034199	0.250150
C227	C	1.067005	0.284199	0.500150
C228	C	1.317005	0.534199	0.750150
C229	C	0.567791	-0.292899	0.000139
C230	C	0.817791	-0.042899	0.250139
C231	C	1.067791	0.207101	0.500139
C232	C	1.317791	0.457101	0.750139
N233	N	0.570796	-0.088761	0.178326
N234	N	0.820796	0.161239	0.428326
N235	N	1.070796	0.411239	0.678326
N236	N	1.320796	0.661239	0.928326
C237	C	0.617513	0.160342	0.000214
C238	C	0.867513	0.410342	0.250214
C239	C	1.117513	0.660342	0.500214
C240	C	1.367513	0.910342	0.750214
C241	C	0.616775	0.232784	0.000202
C242	C	0.866775	0.482784	0.250202
C243	C	1.116775	0.732784	0.500202
C244	C	1.366775	0.982784	0.750202
C245	C	0.572352	0.260242	0.000186
C246	C	0.822352	0.510242	0.250186
C247	C	1.072352	0.760242	0.500186
C248	C	1.322352	1.010242	0.750186
C249	C	0.528664	0.215251	0.000164
C250	C	0.778664	0.465251	0.250164
C251	C	1.028664	0.715251	0.500164
C252	C	1.278664	0.965251	0.750164
C253	C	0.529403	0.142810	0.000168
C254	C	0.779403	0.392810	0.250168
C255	C	1.029403	0.642810	0.500168
C256	C	1.279403	0.892810	0.750168
C257	C	0.537426	0.368304	0.044025
C258	C	0.787426	0.618304	0.294025
C259	C	1.037426	0.868304	0.544025
C260	C	1.287426	1.118304	0.794025
C261	C	0.536688	0.440743	0.044025
C262	C	0.786688	0.690743	0.294025
C263	C	1.036688	0.940743	0.544025
C264	C	1.286688	1.190743	0.794025
C265	C	0.570069	0.483673	0.000169
C266	C	0.820069	0.733673	0.250169
C267	C	1.070069	0.983673	0.500169
C268	C	1.320069	1.233673	0.750169
C269	C	0.604196	0.454155	-0.043679
C270	C	0.854196	0.704155	0.206321
C271	C	1.104196	0.954155	0.456321
C272	C	1.354196	1.204155	0.706321
C273	C	0.604936	0.381714	-0.043674
C274	C	0.854936	0.631714	0.206326
C275	C	1.104936	0.881714	0.456326
C276	C	1.354936	1.131714	0.706326
C277	C	0.571545	0.338791	0.000181
C278	C	0.821545	0.588791	0.250181
C279	C	1.071545	0.838791	0.500181
C280	C	1.321545	1.088791	0.750181
C281	C	0.612954	0.607204	0.000173
C282	C	0.862954	0.857204	0.250173
C283	C	1.112954	1.107204	0.500173
C284	C	1.362954	1.357204	0.750173
C285	C	0.612214	0.679648	0.000156
C286	C	0.862214	0.929648	0.250156
C287	C	1.112214	1.179648	0.500156
C288	C	1.362214	1.429648	0.750156
C289	C	0.524102	0.662113	0.000125
C290	C	0.774102	0.912113	0.250125
C291	C	1.024102	1.162113	0.500125
C292	C	1.274102	1.412113	0.750125
C293	C	0.524844	0.589672	0.000135
C294	C	0.774844	0.839672	0.250135
C295	C	1.024844	1.089672	0.500135
C296	C	1.274844	1.339672	0.750135
C297	C	0.569271	0.562222	0.000162
C298	C	0.819271	0.812222	0.250162
C299	C	1.069271	1.062222	0.500162
C300	C	1.319271	1.312222	0.750162
N301	N	0.570830	-0.088772	-0.177985
N302	N	0.820830	0.161228	0.072015
N303	N	1.070830	0.411228	0.322015
N304	N	1.320830	0.661228	0.572015
C305	C	0.603771	-0.041201	0.217730
C306	C	0.853771	0.208799	0.467730
C307	C	1.103771	0.458799	0.717730
C308	C	1.353771	0.708799	0.967730
C309	C	0.603774	-0.041198	0.296532
C310	C	0.853774	0.208802	0.546532
C311	C	1.103774	0.458802	0.796532
C312	C	1.353774	0.708802	1.046532
C313	C	0.570806	-0.088767	0.335926
C314	C	0.820806	0.161233	0.585926
C315	C	1.070806	0.411233	0.835926
C316	C	1.320806	0.661233	1.085926
C317	C	0.537824	-0.136331	0.296512
C318	C	0.787824	0.113669	0.546512
C319	C	1.037824	0.363669	0.796512
C320	C	1.287824	0.613669	1.046512
C321	C	0.537819	-0.136328	0.217712
C322	C	0.787819	0.113672	0.467712
C323	C	1.037819	0.363672	0.717712
C324	C	1.287819	0.613672	0.967712
C325	C	0.564335	-0.152097	0.460753
C326	C	0.814335	0.097903	0.710753
C327	C	1.064335	0.347903	0.960753
C328	C	1.314335	0.597903	1.210753
C329	C	0.564343	-0.152100	0.539552
C330	C	0.814343	0.097900	0.789552
C331	C	1.064343	0.347900	1.039552
C332	C	1.314343	0.597900	1.289552
C333	C	0.570819	-0.088775	0.578973
C334	C	0.820819	0.161225	0.828973
C335	C	1.070819	0.411225	1.078973
C336	C	1.320819	0.661225	1.328973
C337	C	0.577296	-0.025443	0.539585
C338	C	0.827296	0.224557	0.789585
C339	C	1.077296	0.474557	1.039585
C340	C	1.327296	0.724557	1.289585
C341	C	0.577291	-0.025441	0.460785
C342	C	0.827291	0.224559	0.710785
C343	C	1.077291	0.474559	0.960785
C344	C	1.327291	0.724559	1.210785
C345	C	0.570808	-0.088775	0.421372
C346	C	0.820808	0.161225	0.671372
C347	C	1.070808	0.411225	0.921372
C348	C	1.320808	0.661225	1.171372
C349	C	0.603799	-0.041207	0.703823
C350	C	0.853799	0.208793	0.953823
C351	C	1.103799	0.458793	1.203823
C352	C	1.353799	0.708793	1.453823
C353	C	0.603799	-0.041203	0.782627
C354	C	0.853799	0.208797	1.032627
C355	C	1.103799	0.458797	1.282627
C356	C	1.353799	0.708797	1.532627
C357	C	0.537851	-0.136342	0.782605
C358	C	0.787851	0.113658	1.032605
C359	C	1.037851	0.363658	1.282605
C360	C	1.287851	0.613658	1.532605
C361	C	0.537849	-0.136340	0.703803
C362	C	0.787849	0.113660	0.953803
C363	C	1.037849	0.363660	1.203803
C364	C	1.287849	0.613660	1.453803
C365	C	0.570826	-0.088774	0.664417
C366	C	0.820826	0.161226	0.914417
C367	C	1.070826	0.411226	1.164417
C368	C	1.320826	0.661226	1.414417
H369	H	-0.191011	-0.084920	-0.123625
H370	H	0.058989	0.165080	0.126375
H371	H	0.308989	0.415080	0.376375
H372	H	0.558989	0.665080	0.626375
Cl373	Cl	-0.179814	-0.085071	0.154235
Cl374	Cl	0.070186	0.164929	0.404235
Cl375	Cl	0.320186	0.414929	0.654235
Cl376	Cl	0.570186	0.664929	0.904235
Cl377	Cl	-0.293615	-0.083397	0.154242
Cl378	Cl	-0.043615	0.166603	0.404242
Cl379	Cl	0.206385	0.416603	0.654242
Cl380	Cl	0.456385	0.666603	0.904242
H381	H	0.653689	0.137997	0.000233
H382	H	0.903689	0.387997	0.250233
H383	H	1.153689	0.637997	0.500233
H384	H	1.403689	0.887997	0.750233
H385	H	0.424085	-0.093964	0.123938
H386	H	0.674085	0.156036	0.373938
H387	H	0.924085	0.406036	0.623938
H388	H	1.174085	0.656036	0.873938
Cl389	Cl	0.671693	0.289342	0.000224
Cl390	Cl	0.921693	0.539342	0.250224
Cl391	Cl	1.171693	0.789342	0.500224
Cl392	Cl	1.421693	1.039342	0.750224
H393	H	-0.050555	-0.086991	-0.191881
H394	H	0.199445	0.163009	0.058119
H395	H	0.449445	0.413009	0.308119
H396	H	0.699445	0.663009	0.558119
H397	H	0.631378	0.489107	-0.079391
H398	H	0.881378	0.739107	0.170609
H399	H	1.131378	0.989107	0.420609
H400	H	1.381378	1.239107	0.670609
Cl401	Cl	0.435241	-0.094141	-0.153912
Cl402	Cl	0.685241	0.155859	0.096088
Cl403	Cl	0.935241	0.405859	0.346088
Cl404	Cl	1.185241	0.655859	0.596088
H405	H	0.040896	-0.088331	-0.191892
H406	H	0.290896	0.161669	0.058108
H407	H	0.540896	0.411669	0.308108
H408	H	0.790896	0.661669	0.558108
H409	H	0.493831	0.106186	0.000154
H410	H	0.743831	0.356186	0.250154
H411	H	0.993831	0.606186	0.500154
H412	H	1.243831	0.856186	0.750154
Cl413	Cl	0.089558	-0.089018	0.222436
Cl414	Cl	0.339558	0.160982	0.472436
Cl415	Cl	0.589558	0.410982	0.722436
Cl416	Cl	0.839558	0.660982	0.972436
H417	H	0.508898	0.464770	0.079724
H418	H	0.758898	0.714770	0.329724
H419	H	1.008898	0.964770	0.579724
H420	H	1.258898	1.214770	0.829724
Cl421	Cl	0.089522	-0.089048	-0.222125
Cl422	Cl	0.339522	0.160952	0.027875
Cl423	Cl	0.589522	0.410952	0.277875
Cl424	Cl	0.839522	0.660952	0.527875
H425	H	0.630622	-0.002468	0.185664
H426	H	0.880622	0.247532	0.435664
H427	H	1.130622	0.497532	0.685664
H428	H	1.380622	0.747532	0.935664
H429	H	-0.050534	-0.086941	0.192232
H430	H	0.199466	0.163059	0.442232
H431	H	0.449466	0.413059	0.692232
H432	H	0.699466	0.663059	0.942232
H433	H	0.192151	-0.090554	-0.191901
H434	H	0.442151	0.159446	0.058099
H435	H	0.692151	0.409446	0.308099
H436	H	0.942151	0.659446	0.558099
H437	H	0.511006	-0.175071	0.814679
H438	H	0.761006	0.074929	1.064679
H439	H	1.011006	0.324929	1.314679
H440	H	1.261006	0.574929	1.564679
H441	H	0.630628	-0.002467	0.328621
H442	H	0.880628	0.247533	0.578621
H443	H	1.130628	0.497533	0.828621
H444	H	1.380628	0.747533	1.078621
H445	H	0.332608	-0.092632	-0.123684
H446	H	0.582608	0.157368	0.126316
H447	H	0.832608	0.407368	0.376316
H448	H	1.082608	0.657368	0.626316
H449	H	0.649129	0.584854	0.000191
H450	H	0.899129	0.834854	0.250191
H451	H	1.149129	1.084854	0.500191
H452	H	1.399129	1.334854	0.750191
H453	H	0.647787	0.716271	0.000167
H454	H	0.897787	0.966271	0.250167
H455	H	1.147787	1.216271	0.500167
H456	H	1.397787	1.466271	0.750167
H457	H	0.630650	-0.002474	0.671754
H458	H	0.880650	0.247526	0.921754
H459	H	1.130650	0.497526	1.171754
H460	H	1.380650	0.747526	1.421754
Cl461	Cl	0.585429	0.054172	0.411272
Cl462	Cl	0.835429	0.304172	0.661272
Cl463	Cl	1.085429	0.554172	0.911272
Cl464	Cl	1.335429	0.804172	1.161272
Cl465	Cl	0.585442	0.054171	0.589134
Cl466	Cl	0.835442	0.304171	0.839134
Cl467	Cl	1.085442	0.554171	1.089134
Cl468	Cl	1.335442	0.804171	1.339134
H469	H	0.040921	-0.088284	0.192227
H470	H	0.290921	0.161716	0.442227
H471	H	0.540921	0.411716	0.692227
H472	H	0.790921	0.661716	0.942227
H473	H	0.630650	-0.002470	0.814710
H474	H	0.880650	0.247530	1.064710
H475	H	1.130650	0.497530	1.314710
H476	H	1.380650	0.747530	1.564710
Cl477	Cl	0.496361	-0.196124	0.168172
Cl478	Cl	0.746361	0.053876	0.418172
Cl479	Cl	0.996361	0.303876	0.668172
Cl480	Cl	1.246361	0.553876	0.918172
H481	H	0.332634	-0.092600	0.123951
H482	H	0.582634	0.157400	0.373951
H483	H	0.832634	0.407400	0.623951
H484	H	1.082634	0.657400	0.873951
Cl485	Cl	0.468256	0.696625	0.000102
Cl486	Cl	0.718256	0.946625	0.250102
Cl487	Cl	0.968256	1.196625	0.500102
Cl488	Cl	1.218256	1.446625	0.750102
H489	H	0.192170	-0.090523	0.192199
H490	H	0.442170	0.159477	0.442199
H491	H	0.692170	0.409477	0.692199
H492	H	0.942170	0.659477	0.942199
Cl493	Cl	0.647833	0.344608	-0.098798
Cl494	Cl	0.897833	0.594608	0.151202
Cl495	Cl	1.147833	0.844608	0.401202
Cl496	Cl	1.397833	1.094608	0.651202
H497	H	0.492495	0.237612	0.000149
H498	H	0.742495	0.487612	0.250149
H499	H	0.992495	0.737612	0.500149
H500	H	1.242495	0.987612	0.750149
H501	H	0.489273	0.553047	0.000124
H502	H	0.739273	0.803047	0.250124
H503	H	0.989273	1.053047	0.500124
H504	H	1.239273	1.303047	0.750124
Cl505	Cl	0.495458	0.314342	0.099167
Cl506	Cl	0.745458	0.564342	0.349167
Cl507	Cl	0.995458	0.814342	0.599167
Cl508	Cl	1.245458	1.064342	0.849167
H509	H	0.510999	-0.175071	0.671718
H510	H	0.760999	0.074929	0.921718
H511	H	1.010999	0.324929	1.171718
H512	H	1.260999	0.574929	1.421718
Cl513	Cl	0.556204	-0.231716	0.589059
Cl514	Cl	0.806204	0.018284	0.839059
Cl515	Cl	1.056204	0.268284	1.089059
Cl516	Cl	1.306204	0.518284	1.339059
H517	H	0.559053	-0.203667	0.428663
H518	H	0.809053	0.046333	0.678663
H519	H	1.059053	0.296333	0.928663
H520	H	1.309053	0.546333	1.178663
Cl521	Cl	0.496376	-0.196129	0.346035
Cl522	Cl	0.746376	0.053871	0.596035
Cl523	Cl	0.996376	0.303871	0.846035
Cl524	Cl	1.246376	0.553871	1.096035
H525	H	-0.282467	-0.083588	-0.123607
H526	H	-0.032467	0.166412	0.126393
H527	H	0.217533	0.416412	0.376393
H528	H	0.467533	0.666412	0.626393
