data_functionalizedCrystal
_audit_creation_method	'MofGen! by Chris Wilmer'
_symmetry_space_group_name_H-M	'P1'
_symmetry_Int_Tables_number	1
_symmetry_cell_setting	triclinic
loop_
_symmetry_equiv_pos_as_xyz
  x,y,z
_cell_length_a	27.440280
_cell_length_b	16.704494
_cell_length_c	16.704494
_cell_angle_alpha	60.174809
_cell_angle_beta	90.004705
_cell_angle_gamma	63.425370
loop_
_atom_site_label
_atom_site_type_symbol
_atom_site_fract_x
_atom_site_fract_y
_atom_site_fract_z
Zr1	Zr	0.500950	0.863814	-0.142356
O2	O	0.431994	1.017953	-0.271803
O3	O	0.518301	0.701027	-0.097020
O4	O	0.528205	0.851325	-0.263629
O5	O	0.418587	0.880522	0.019799
O6	O	0.608407	0.851311	-0.263612
O7	O	0.422090	0.867655	-0.105194
O8	O	0.590691	0.582456	0.034421
O9	O	0.436303	1.149378	-0.278234
O10	O	0.590131	0.771177	-0.084503
O11	O	0.527663	0.780790	0.008765
O12	O	0.539324	0.957746	-0.187395
O13	O	0.476856	0.967359	-0.094127
Zr14	Zr	0.623276	0.884314	0.057019
Zr15	Zr	0.628863	0.863792	-0.142330
Zr16	Zr	0.495363	0.884336	0.056993
Zr17	Zr	0.507823	1.073422	-0.152613
Zr18	Zr	0.616403	0.674707	0.067276
O19	O	0.605925	1.047101	0.011683
O20	O	0.613870	1.017921	-0.271766
O21	O	0.424050	1.047132	0.011646
O22	O	0.692232	0.730176	0.186466
O23	O	0.700177	0.700996	-0.096983
O24	O	0.510357	0.730207	0.186429
O25	O	0.705639	0.867606	-0.105136
O26	O	0.596021	0.896803	0.178292
O27	O	0.515819	0.896817	0.178275
O28	O	0.702136	0.880474	0.019857
O29	O	0.537977	1.149360	-0.278213
O30	O	0.586249	0.598768	0.192876
O31	O	0.687923	0.598751	0.192897
O32	O	0.692364	0.582439	0.034442
O33	O	0.431862	1.165690	-0.119778
O34	O	0.533535	1.165672	-0.119758
O35	O	0.584902	0.790382	0.102058
O36	O	0.647371	0.780769	0.008790
O37	O	0.596563	0.967339	-0.094102
O38	O	0.534095	0.976952	-0.000834
C39	C	0.553517	0.611877	-0.029838
C40	C	0.550599	0.522893	-0.025484
C41	C	0.610348	0.345631	-0.114667
C42	C	0.607608	0.262023	-0.110578
C43	C	0.542384	0.272061	-0.013211
C44	C	0.545124	0.355669	-0.017300
C45	C	0.579106	0.392453	-0.068031
C46	C	0.581842	0.476068	-0.072125
C47	C	0.516621	0.486099	0.025247
C48	C	0.513882	0.402491	0.029336
C49	C	0.402114	0.874092	-0.042701
C50	C	0.347812	0.874101	-0.042712
C51	C	0.037631	0.776661	0.011067
C52	C	-0.013388	0.776656	0.011075
O53	O	-0.017221	0.693834	0.056781
N54	N	-0.065426	0.874042	-0.042634
C55	C	-0.066444	0.971440	-0.096348
O56	O	-0.115391	1.054274	-0.142031
C57	C	-0.015426	0.971445	-0.096351
C58	C	0.036611	0.874052	-0.042645
C59	C	0.089666	0.679276	0.064769
C60	C	0.140681	0.679282	0.064758
C61	C	0.139662	0.776672	0.011046
C62	C	0.087627	0.874058	-0.042655
C63	C	-0.016445	1.068843	-0.150058
C64	C	0.034579	1.068840	-0.150056
C65	C	0.086616	0.971446	-0.096350
C66	C	0.137622	0.971454	-0.096378
N67	N	0.189660	0.874068	-0.042668
C68	C	0.190680	0.776677	0.011044
C69	C	-0.173583	0.971423	-0.096337
C70	C	-0.224601	0.971419	-0.096341
C71	C	-0.171541	0.776634	0.011084
C72	C	-0.120523	0.776639	0.011082
C73	C	-0.121546	0.874037	-0.042628
C74	C	0.297814	0.776696	0.011018
C75	C	0.348831	0.776710	0.011000
C76	C	0.295767	0.971495	-0.096421
C77	C	0.244754	0.971481	-0.096407
C78	C	0.245781	0.874073	-0.042680
O79	O	0.141500	1.054233	-0.142057
O80	O	0.239629	0.693858	0.056729
C81	C	0.722112	0.874037	-0.042636
C82	C	0.776415	0.874027	-0.042625
C83	C	0.569102	0.848394	-0.292023
C84	C	0.571474	0.839682	-0.376652
C85	C	0.570709	1.136251	-0.055499
C86	C	0.573627	1.225235	-0.059853
C87	C	0.522893	1.018107	-0.643109
C88	C	0.525120	1.009926	-0.722629
C89	C	0.578160	0.815141	-0.615212
C90	C	0.575932	0.823322	-0.535693
C91	C	0.548297	0.924808	-0.549646
C92	C	0.546066	0.932988	-0.470125
C93	C	0.599109	0.738204	-0.362710
C94	C	0.601337	0.730023	-0.442229
C95	C	0.555124	0.899734	0.206687
C96	C	0.552752	0.908446	0.291315
C97	C	0.713516	0.611850	-0.029805
C98	C	0.764901	0.522856	-0.025440
C99	C	0.546528	0.637547	0.219517
C100	C	0.541238	0.557275	0.308500
C101	C	0.706527	0.637520	0.219550
C102	C	0.755540	0.557239	0.308544
C103	C	0.417699	1.110609	-0.304887
C104	C	0.368686	1.190890	-0.393881
C105	C	0.410710	1.136279	-0.055532
C106	C	0.359325	1.225272	-0.059897
C107	C	0.577698	1.110581	-0.304854
C108	C	0.582988	1.190853	-0.393837
C109	C	0.759154	0.476056	-0.072096
C110	C	0.807431	0.392447	-0.068013
C111	C	0.861455	0.355635	-0.017268
C112	C	0.867201	0.402444	0.029389
C113	C	0.818925	0.486056	0.025300
C114	C	0.568632	0.524587	0.398994
C115	C	0.563660	0.449176	0.482610
C116	C	0.531297	0.406448	0.475731
C117	C	0.503900	0.439144	0.385228
C118	C	0.508869	0.514560	0.301613
C119	C	0.811170	0.514520	0.301652
C120	C	0.857228	0.439098	0.385263
C121	C	0.847655	0.406391	0.475767
C122	C	0.792019	0.449118	0.482657
C123	C	0.745962	0.524544	0.399046
C124	C	0.313057	1.233619	-0.386989
C125	C	0.266999	1.309067	-0.470602
C126	C	0.276573	1.341778	-0.561105
C127	C	0.332208	1.299046	-0.567995
C128	C	0.378265	1.223606	-0.484384
C129	C	0.365073	1.272080	-0.013250
C130	C	0.316797	1.355710	-0.017356
C131	C	0.262773	1.392525	-0.068104
C132	C	0.257027	1.345713	-0.114757
C133	C	0.305303	1.262090	-0.110656
C134	C	0.615355	1.233557	-0.386927
C135	C	0.620337	1.308971	-0.470528
C136	C	0.592947	1.341685	-0.561039
C137	C	0.560578	1.298973	-0.567947
C138	C	0.555600	1.223555	-0.484346
H139	H	0.486217	0.372527	0.070643
H140	H	0.477550	0.404344	0.379641
H141	H	0.300615	1.223981	-0.148640
H142	H	0.202383	1.050785	-0.140151
H143	H	0.609510	0.506019	-0.113436
H144	H	0.223469	1.460617	-0.071435
H145	H	0.646693	1.343740	-0.464884
H146	H	0.885162	0.344973	0.543840
H147	H	0.294947	1.050788	-0.140155
H148	H	0.213034	1.375701	-0.156075
H149	H	0.491180	0.524234	0.063217
H150	H	0.527255	0.345041	0.543823
H151	H	-0.170719	0.697332	0.054816
H152	H	0.183048	0.599973	0.108487
H153	H	0.321487	1.393811	0.020639
H154	H	0.594985	0.559368	0.404614
H155	H	0.486562	0.541164	0.227933
H156	H	-0.266967	1.050725	-0.140085
H157	H	0.523562	1.015624	-0.481490
H158	H	0.090506	0.599964	0.108512
H159	H	0.585973	0.422564	0.556294
H160	H	0.818975	0.541138	0.227967
H161	H	0.902525	0.404317	0.379636
H162	H	0.637661	1.206934	-0.313236
H163	H	0.638013	0.375588	-0.155982
H164	H	0.391202	0.697398	0.054736
H165	H	0.221703	1.343847	-0.464973
H166	H	0.784232	0.422476	0.556356
H167	H	0.597004	1.403096	-0.629104
H168	H	0.538278	1.325620	-0.641652
H169	H	0.500385	1.100741	-0.654472
H170	H	0.529241	1.188793	-0.489987
H171	H	0.700667	0.559316	0.404671
H172	H	0.633049	0.223901	-0.148552
H173	H	0.298658	0.697378	0.054768
H174	H	0.305251	1.206989	-0.313304
H175	H	0.514725	0.242086	0.028104
H176	H	0.504434	1.085900	-0.798728
H177	H	-0.078156	0.697333	0.054822
H178	H	0.239066	1.403207	-0.629180
H179	H	-0.058807	1.148151	-0.193790
H180	H	-0.174423	1.050741	-0.140079
H181	H	0.033740	1.148156	-0.193781
H182	H	0.339997	1.325690	-0.641693
H183	H	0.600666	0.732516	-0.603868
H184	H	0.619792	0.662233	-0.286600
H185	H	0.623839	0.647396	-0.430882
H186	H	0.423560	1.188815	-0.490006
H187	H	0.715170	0.506026	-0.113430
H188	H	0.900760	0.287551	-0.013945
H189	H	0.802741	0.354345	-0.106007
H190	H	0.911194	0.372459	0.070704
H191	H	0.823612	0.524151	0.063299
H192	H	0.409057	1.242113	0.028081
