data_functionalizedCrystal
_audit_creation_method	'MofGen! by Chris Wilmer'
_symmetry_space_group_name_H-M	'P1'
_symmetry_Int_Tables_number	1
_symmetry_cell_setting	triclinic
loop_
_symmetry_equiv_pos_as_xyz
  x,y,z
_cell_length_a	16.959454
_cell_length_b	19.805407
_cell_length_c	19.805399
_cell_angle_alpha	89.980427
_cell_angle_beta	90.017367
_cell_angle_gamma	89.999010
loop_
_atom_site_label
_atom_site_type_symbol
_atom_site_fract_x
_atom_site_fract_y
_atom_site_fract_z
Zn1	Zn	0.314700	1.034855	-0.382768
Zn2	Zn	0.564700	1.284855	-0.132768
Zn3	Zn	0.814700	1.534855	0.117232
Zn4	Zn	1.064700	1.784855	0.367232
Zn5	Zn	0.446882	1.034820	-0.269600
Zn6	Zn	0.696882	1.284820	-0.019600
Zn7	Zn	0.946882	1.534820	0.230400
Zn8	Zn	1.196882	1.784820	0.480400
Zn9	Zn	0.314722	0.921670	-0.269592
Zn10	Zn	0.564722	1.171670	-0.019592
Zn11	Zn	0.814722	1.421670	0.230408
Zn12	Zn	1.064722	1.671670	0.480408
Zn13	Zn	0.446840	0.921684	-0.382746
Zn14	Zn	0.696840	1.171684	-0.132746
Zn15	Zn	0.946840	1.421684	0.117254
Zn16	Zn	1.196840	1.671684	0.367254
O17	O	0.380786	0.978257	-0.326177
O18	O	0.630786	1.228257	-0.076177
O19	O	0.880786	1.478257	0.173823
O20	O	1.130786	1.728257	0.423823
O21	O	0.332243	1.129567	-0.367768
O22	O	0.582243	1.379567	-0.117768
O23	O	0.832243	1.629567	0.132232
O24	O	1.082243	1.879567	0.382232
O25	O	0.429378	1.019790	-0.174882
O26	O	0.679378	1.269790	0.075118
O27	O	0.929378	1.519790	0.325118
O28	O	1.179378	1.769790	0.575118
O29	O	0.204108	0.936693	-0.284611
O30	O	0.454108	1.186693	-0.034611
O31	O	0.704108	1.436693	0.215389
O32	O	0.954108	1.686693	0.465389
O33	O	0.429356	1.129542	-0.284624
O34	O	0.679356	1.379542	-0.034624
O35	O	0.929356	1.629542	0.215376
O36	O	1.179356	1.879542	0.465376
O37	O	0.204092	1.019850	-0.367761
O38	O	0.454092	1.269850	-0.117761
O39	O	0.704092	1.519850	0.132239
O40	O	0.954092	1.769850	0.382239
O41	O	0.332280	0.936659	-0.174877
O42	O	0.582280	1.186659	0.075123
O43	O	0.832280	1.436659	0.325123
O44	O	1.082280	1.686659	0.575123
O45	O	0.332239	0.826955	-0.284590
O46	O	0.582239	1.076955	-0.034590
O47	O	0.832239	1.326955	0.215410
O48	O	1.082239	1.576955	0.465410
O49	O	0.429285	0.936716	-0.477466
O50	O	0.679285	1.186716	-0.227466
O51	O	0.929285	1.436716	0.022534
O52	O	1.179285	1.686716	0.272534
O53	O	0.429306	0.826965	-0.367724
O54	O	0.679306	1.076965	-0.117724
O55	O	0.929306	1.326965	0.132276
O56	O	1.179306	1.576965	0.382276
O57	O	0.332202	1.019863	-0.477482
O58	O	0.582202	1.269863	-0.227482
O59	O	0.832202	1.519863	0.022518
O60	O	1.082202	1.769863	0.272518
O61	O	0.557487	1.019804	-0.284603
O62	O	0.807487	1.269804	-0.034603
O63	O	1.057487	1.519804	0.215397
O64	O	1.307487	1.769804	0.465397
O65	O	0.557457	0.936683	-0.367731
O66	O	0.807457	1.186683	-0.117731
O67	O	1.057457	1.436683	0.132269
O68	O	1.307457	1.686683	0.382269
C69	C	0.380771	0.802401	-0.326155
C70	C	0.630771	1.052401	-0.076155
C71	C	0.880771	1.302401	0.173845
C72	C	1.130771	1.552401	0.423845
C73	C	0.380783	0.727169	-0.326161
C74	C	0.630783	0.977169	-0.076161
C75	C	0.880783	1.227169	0.173839
C76	C	1.130783	1.477169	0.423839
C77	C	0.174618	0.978274	-0.326187
C78	C	0.424618	1.228274	-0.076187
C79	C	0.674618	1.478274	0.173813
C80	C	0.924618	1.728274	0.423813
C81	C	0.086761	0.978281	-0.326192
C82	C	0.336761	1.228281	-0.076192
C83	C	0.586761	1.478281	0.173808
C84	C	0.836761	1.728281	0.423808
C85	C	0.431402	0.691848	-0.369379
C86	C	0.681402	0.941848	-0.119379
C87	C	0.931402	1.191848	0.130621
C88	C	1.181402	1.441848	0.380621
C89	C	0.431404	0.621160	-0.369389
C90	C	0.681404	0.871160	-0.119389
C91	C	0.931404	1.121160	0.130611
C92	C	1.181404	1.371160	0.380611
C93	C	0.380790	0.585794	-0.326177
C94	C	0.630790	0.835794	-0.076177
C95	C	0.880790	1.085794	0.173823
C96	C	1.130790	1.335794	0.423823
C97	C	0.330165	0.621120	-0.282957
C98	C	0.580165	0.871120	-0.032957
C99	C	0.830165	1.121120	0.217043
C100	C	1.080165	1.371120	0.467043
C101	C	0.330160	0.691807	-0.282951
C102	C	0.580160	0.941807	-0.032951
C103	C	0.830160	1.191807	0.217049
C104	C	1.080160	1.441807	0.467049
C105	C	0.330183	0.336047	-0.282979
C106	C	0.580183	0.586047	-0.032979
C107	C	0.830183	0.836047	0.217021
C108	C	1.080183	1.086047	0.467021
C109	C	0.330193	0.265354	-0.282987
C110	C	0.580193	0.515354	-0.032987
C111	C	0.830193	0.765354	0.217013
C112	C	1.080193	1.015354	0.467013
C113	C	0.431426	0.265399	-0.369417
C114	C	0.681426	0.515399	-0.119417
C115	C	0.931426	0.765399	0.130583
C116	C	1.181426	1.015399	0.380583
C117	C	0.431421	0.336086	-0.369411
C118	C	0.681421	0.586086	-0.119411
C119	C	0.931421	0.836086	0.130589
C120	C	1.181421	1.086086	0.380589
C121	C	0.380794	0.371406	-0.326194
C122	C	0.630794	0.621406	-0.076194
C123	C	0.880794	0.871406	0.173806
C124	C	1.130794	1.121406	0.423806
C125	C	0.380792	0.448055	-0.326185
C126	C	0.630792	0.698055	-0.076185
C127	C	0.880792	0.948055	0.173815
C128	C	1.130792	1.198055	0.423815
C129	C	0.380795	0.509147	-0.326182
C130	C	0.630795	0.759147	-0.076182
C131	C	0.880795	1.009147	0.173818
C132	C	1.130795	1.259147	0.423818
C133	C	-0.284725	1.021614	-0.369496
C134	C	-0.034725	1.271614	-0.119496
C135	C	0.215275	1.521614	0.130504
C136	C	0.465275	1.771614	0.380504
C137	C	-0.284704	0.935022	-0.282911
C138	C	-0.034704	1.185022	-0.032911
C139	C	0.215296	1.435022	0.217089
C140	C	0.465296	1.685022	0.467089
C141	C	-0.202158	0.935013	-0.282909
C142	C	0.047842	1.185013	-0.032909
C143	C	0.297842	1.435013	0.217091
C144	C	0.547842	1.685013	0.467091
C145	C	-0.160892	0.978305	-0.326200
C146	C	0.089108	1.228305	-0.076200
C147	C	0.339108	1.478305	0.173800
C148	C	0.589108	1.728305	0.423800
C149	C	-0.202172	1.021607	-0.369493
C150	C	0.047828	1.271607	-0.119493
C151	C	0.297828	1.521607	0.130507
C152	C	0.547828	1.771607	0.380507
C153	C	-0.160872	0.891716	-0.239611
C154	C	0.089128	1.141716	0.010389
C155	C	0.339128	1.391716	0.260389
C156	C	0.589128	1.641716	0.510389
C157	C	-0.078321	0.891705	-0.239607
C158	C	0.171679	1.141705	0.010393
C159	C	0.421679	1.391705	0.260393
C160	C	0.671679	1.641705	0.510393
C161	C	-0.037053	0.934994	-0.282901
C162	C	0.212947	1.184994	-0.032901
C163	C	0.462947	1.434994	0.217099
C164	C	0.712947	1.684994	0.467099
C165	C	-0.078338	0.978298	-0.326197
C166	C	0.171662	1.228298	-0.076197
C167	C	0.421662	1.478298	0.173803
C168	C	0.671662	1.728298	0.423803
C169	C	-0.037072	1.021590	-0.369488
C170	C	0.212928	1.271590	-0.119488
C171	C	0.462928	1.521590	0.130512
C172	C	0.712928	1.771590	0.380512
C173	C	-0.078356	1.064891	-0.412788
C174	C	0.171644	1.314891	-0.162788
C175	C	0.421644	1.564891	0.087212
C176	C	0.671644	1.814891	0.337212
C177	C	-0.160904	1.064897	-0.412788
C178	C	0.089096	1.314897	-0.162788
C179	C	0.339096	1.564897	0.087212
C180	C	0.589096	1.814897	0.337212
C181	C	0.045495	0.934989	-0.282901
C182	C	0.295495	1.184989	-0.032901
C183	C	0.545495	1.434989	0.217099
C184	C	0.795495	1.684989	0.467099
C185	C	0.045481	1.021583	-0.369485
C186	C	0.295481	1.271583	-0.119485
C187	C	0.545481	1.521583	0.130515
C188	C	0.795481	1.771583	0.380515
C189	C	0.586152	0.978259	-0.326180
C190	C	0.836152	1.228259	-0.076180
C191	C	1.086152	1.478259	0.173820
C192	C	1.336152	1.728259	0.423820
C193	C	0.674009	0.978322	-0.326205
C194	C	0.924009	1.228322	-0.076205
C195	C	1.174009	1.478322	0.173795
C196	C	1.424009	1.728322	0.423795
C197	C	0.380736	0.978295	-0.502719
C198	C	0.630736	1.228295	-0.252719
C199	C	0.880736	1.478295	-0.002719
C200	C	1.130736	1.728295	0.247281
C201	C	0.380715	0.978311	-0.577951
C202	C	0.630715	1.228311	-0.327951
C203	C	0.880715	1.478311	-0.077951
C204	C	1.130715	1.728311	0.172049
C205	C	0.380802	1.154800	-0.326199
C206	C	0.630802	1.404800	-0.076199
C207	C	0.880802	1.654800	0.173801
C208	C	1.130802	1.904800	0.423801
C209	C	0.380808	1.230032	-0.326208
C210	C	0.630808	1.480032	-0.076208
C211	C	0.880808	1.730032	0.173792
C212	C	1.130808	1.980032	0.423792
C213	C	0.330161	1.021607	-0.613305
C214	C	0.580161	1.271607	-0.363305
C215	C	0.830161	1.521607	-0.113305
C216	C	1.080161	1.771607	0.136695
C217	C	0.330138	1.021614	-0.683993
C218	C	0.580138	1.271614	-0.433993
C219	C	0.830138	1.521614	-0.183993
C220	C	1.080138	1.771614	0.066007
C221	C	0.380674	0.978328	-0.719327
C222	C	0.630674	1.228328	-0.469327
C223	C	0.880674	1.478328	-0.219327
C224	C	1.130674	1.728328	0.030673
C225	C	0.431230	0.935028	-0.683969
C226	C	0.681230	1.185028	-0.433969
C227	C	0.931230	1.435028	-0.183969
C228	C	1.181230	1.685028	0.066031
C229	C	0.431248	0.935018	-0.613281
C230	C	0.681248	1.185018	-0.363281
C231	C	0.931248	1.435018	-0.113281
C232	C	1.181248	1.685018	0.136719
C233	C	0.431156	0.935066	-0.969042
C234	C	0.681156	1.185066	-0.719042
C235	C	0.931156	1.435066	-0.469042
C236	C	1.181156	1.685066	-0.219042
C237	C	0.431135	0.935081	-1.039734
C238	C	0.681135	1.185081	-0.789734
C239	C	0.931135	1.435081	-0.539734
C240	C	1.181135	1.685081	-0.289734
C241	C	0.330046	1.021662	-1.039754
C242	C	0.580046	1.271662	-0.789754
C243	C	0.830046	1.521662	-0.539754
C244	C	1.080046	1.771662	-0.289754
C245	C	0.330065	1.021652	-0.969067
C246	C	0.580065	1.271652	-0.719067
C247	C	0.830065	1.521652	-0.469067
C248	C	1.080065	1.771652	-0.219067
C249	C	0.380617	0.978350	-0.933714
C250	C	0.630617	1.228350	-0.683714
C251	C	0.880617	1.478350	-0.433714
C252	C	1.130617	1.728350	-0.183714
C253	C	0.380640	0.978342	-0.857066
C254	C	0.630640	1.228342	-0.607066
C255	C	0.880640	1.478342	-0.357066
C256	C	1.130640	1.728342	-0.107066
C257	C	0.380655	0.978339	-0.795974
C258	C	0.630655	1.228339	-0.545974
C259	C	0.880655	1.478339	-0.295974
C260	C	1.130655	1.728339	-0.045974
C261	C	0.380778	0.978258	-0.150321
C262	C	0.630778	1.228258	0.099679
C263	C	0.880778	1.478258	0.349679
C264	C	1.130778	1.728258	0.599679
C265	C	0.380577	0.978373	-0.075089
C266	C	0.630577	1.228373	0.174911
C267	C	0.880577	1.478373	0.424911
C268	C	1.130577	1.728373	0.674911
H269	H	0.472621	0.720638	-0.404565
H270	H	0.722621	0.970638	-0.154565
H271	H	0.972621	1.220638	0.095435
H272	H	1.222621	1.470638	0.345435
F273	F	0.276378	1.067682	-0.575706
F274	F	0.526378	1.317682	-0.325706
F275	F	0.776378	1.567682	-0.075706
F276	F	1.026378	1.817682	0.174294
F277	F	0.276299	0.373628	-0.236986
F278	F	0.526299	0.623628	0.013014
F279	F	0.776299	0.873628	0.263014
F280	F	1.026299	1.123628	0.513014
H281	H	0.472623	0.592404	-0.404580
H282	H	0.722623	0.842404	-0.154580
H283	H	0.972623	1.092404	0.095420
H284	H	1.222623	1.342404	0.345420
F285	F	0.485052	0.888935	-0.575656
F286	F	0.735052	1.138935	-0.325656
F287	F	0.985052	1.388935	-0.075656
F288	F	1.235052	1.638935	0.174344
F289	F	-0.328624	0.888954	-0.236837
F290	F	-0.078624	1.138954	0.013163
F291	F	0.171376	1.388954	0.263163
F292	F	0.421376	1.638954	0.513163
F293	F	0.485308	0.227804	-0.415413
F294	F	0.735308	0.477804	-0.165413
F295	F	0.985308	0.727804	0.084587
F296	F	1.235308	0.977804	0.334587
H297	H	-0.044746	1.100142	-0.448032
H298	H	0.205254	1.350142	-0.198032
H299	H	0.455254	1.600142	0.051968
H300	H	0.705254	1.850142	0.301968
F301	F	0.484958	0.888980	-0.931427
F302	F	0.734958	1.138980	-0.681427
F303	F	0.984958	1.388980	-0.431427
F304	F	1.234958	1.638980	-0.181427
H305	H	-0.318340	1.056867	-0.404752
H306	H	-0.068340	1.306867	-0.154752
H307	H	0.181660	1.556867	0.095248
H308	H	0.431660	1.806867	0.345248
F309	F	-0.204793	0.845648	-0.193539
F310	F	0.045207	1.095648	0.056461
F311	F	0.295207	1.345648	0.306461
F312	F	0.545207	1.595648	0.556461
F313	F	0.485294	0.373722	-0.415400
F314	F	0.735294	0.623722	-0.165400
F315	F	0.985294	0.873722	0.084600
F316	F	1.235294	1.123722	0.334600
H317	H	0.472373	0.899782	-0.712743
H318	H	0.722373	1.149782	-0.462743
H319	H	0.972373	1.399782	-0.212743
H320	H	1.222373	1.649782	0.037257
H321	H	0.288916	1.056902	-0.940301
H322	H	0.538916	1.306902	-0.690301
H323	H	0.788916	1.556902	-0.440301
H324	H	1.038916	1.806902	-0.190301
F325	F	-0.204846	1.110973	-0.458869
F326	F	0.045154	1.360973	-0.208869
F327	F	0.295154	1.610973	0.041131
F328	F	0.545154	1.860973	0.291131
F329	F	0.276293	0.583479	-0.236971
F330	F	0.526293	0.833479	0.013029
F331	F	0.776293	1.083479	0.263029
F332	F	1.026293	1.333479	0.513029
F333	F	0.276319	0.227717	-0.236993
F334	F	0.526319	0.477717	0.013007
F335	F	0.776319	0.727717	0.263007
F336	F	1.026319	0.977717	0.513007
F337	F	0.089393	1.067658	-0.415566
F338	F	0.339393	1.317658	-0.165566
F339	F	0.589393	1.567658	0.084434
F340	F	0.839393	1.817658	0.334434
F341	F	0.484924	0.889007	-1.077338
F342	F	0.734924	1.139007	-0.827338
F343	F	0.984924	1.389007	-0.577338
F344	F	1.234924	1.639007	-0.327338
F345	F	-0.034391	0.845620	-0.193526
F346	F	0.215609	1.095620	0.056474
F347	F	0.465609	1.345620	0.306474
F348	F	0.715609	1.595620	0.556474
F349	F	0.276241	1.067746	-1.077384
F350	F	0.526241	1.317746	-0.827384
F351	F	0.776241	1.567746	-0.577384
F352	F	1.026241	1.817746	-0.327384
F353	F	0.276283	0.729398	-0.236954
F354	F	0.526283	0.979398	0.013046
F355	F	0.776283	1.229398	0.263046
F356	F	1.026283	1.479398	0.513046
H357	H	0.079105	0.899736	-0.247645
H358	H	0.329105	1.149736	0.002355
H359	H	0.579105	1.399736	0.252355
H360	H	0.829105	1.649736	0.502355
F361	F	0.276359	1.067718	-0.721616
F362	F	0.526359	1.317718	-0.471616
F363	F	0.776359	1.567718	-0.221616
F364	F	1.026359	1.817718	0.028384
