data_functionalizedCrystal
_audit_creation_method	'MofGen! by Chris Wilmer'
_symmetry_space_group_name_H-M	'P1'
_symmetry_Int_Tables_number	1
_symmetry_cell_setting	triclinic
loop_
_symmetry_equiv_pos_as_xyz
  x,y,z
_cell_length_a	19.188930
_cell_length_b	19.188930
_cell_length_c	9.565339
_cell_angle_alpha	89.982345
_cell_angle_beta	90.004134
_cell_angle_gamma	96.855221
loop_
_atom_site_label
_atom_site_type_symbol
_atom_site_fract_x
_atom_site_fract_y
_atom_site_fract_z
O1	O	0.087162	-0.926145	0.116725
O2	O	0.587162	-0.426145	0.616725
O3	O	0.098896	-0.722833	0.116631
O4	O	0.598896	-0.222833	0.616631
O5	O	-0.008627	-0.830356	0.116654
O6	O	0.491373	-0.330356	0.616654
O7	O	0.194685	-0.818622	0.116703
O8	O	0.694685	-0.318622	0.616703
O9	O	-0.008618	-0.830347	-0.115867
O10	O	0.491382	-0.330347	0.384133
O11	O	0.098904	-0.722824	-0.115889
O12	O	0.598904	-0.222824	0.384111
O13	O	0.087170	-0.926136	-0.115795
O14	O	0.587170	-0.426136	0.384205
Zn15	Zn	0.093039	-0.824479	-0.152760
Zn16	Zn	0.593039	-0.324479	0.347240
Zn17	Zn	0.093028	-0.824491	0.153596
Zn18	Zn	0.593028	-0.324491	0.653596
O19	O	0.194693	-0.818613	-0.115817
O20	O	0.694693	-0.318613	0.384183
C21	C	-0.034634	-0.829972	0.000389
C22	C	0.465366	-0.329972	0.500389
C23	C	-0.112138	-0.828831	0.000377
C24	C	0.387862	-0.328831	0.500377
C25	C	0.098520	-0.696818	0.000359
C26	C	0.598520	-0.196818	0.500359
C27	C	0.097380	-0.619313	0.000322
C28	C	0.597380	-0.119313	0.500322
C29	C	0.087546	-0.952151	0.000480
C30	C	0.587546	-0.452151	0.500480
C31	C	0.088687	-1.029656	0.000527
C32	C	0.588687	-0.529656	0.500527
C33	C	-0.157062	-0.891922	0.000399
C34	C	0.342938	-0.391922	0.500399
C35	C	-0.229886	-0.890850	0.000421
C36	C	0.270114	-0.390850	0.500421
C37	C	-0.257782	-0.826684	0.000392
C38	C	0.242218	-0.326684	0.500392
C39	C	-0.212849	-0.763585	0.000378
C40	C	0.287151	-0.263585	0.500378
C41	C	-0.140026	-0.764658	0.000370
C42	C	0.359974	-0.264658	0.500370
N43	N	-0.365785	-0.777634	-0.078761
N44	N	0.134215	-0.277634	0.421239
N45	N	-0.434963	-0.776618	-0.078757
N46	N	0.065037	-0.276618	0.421243
C47	C	-0.477191	-0.823446	0.000419
C48	C	0.022809	-0.323446	0.500419
N49	N	-0.447628	-0.871338	0.079573
N50	N	0.052372	-0.371338	0.579573
N51	N	-0.378444	-0.872356	0.079562
N52	N	0.121556	-0.372356	0.579562
C53	C	-0.336745	-0.825513	0.000402
C54	C	0.163255	-0.325513	0.500402
C55	C	-0.601079	-0.885379	0.000467
C56	C	-0.101079	-0.385379	0.500467
C57	C	-0.673904	-0.884305	0.000498
C58	C	-0.173904	-0.384305	0.500498
C59	C	-0.656865	-0.757038	0.000441
C60	C	-0.156865	-0.257038	0.500441
C61	C	-0.584042	-0.758114	0.000424
C62	C	-0.084042	-0.258114	0.500424
C63	C	-0.556154	-0.822286	0.000431
C64	C	-0.056154	-0.322286	0.500431
C65	C	0.220700	-0.818997	0.000450
C66	C	0.720700	-0.318997	0.500450
C67	C	0.298204	-0.820138	0.000472
C68	C	0.798204	-0.320138	0.500472
N69	N	0.093046	-0.824475	-0.361839
N70	N	0.593046	-0.324475	0.138161
C71	C	0.160470	-0.574389	0.000359
C72	C	0.660470	-0.074389	0.500359
C73	C	0.159399	-0.501566	0.000374
C74	C	0.659399	-0.001566	0.500374
C75	C	0.095233	-0.473669	0.000380
C76	C	0.595233	0.026331	0.500380
C77	C	0.032133	-0.518603	0.000335
C78	C	0.532133	-0.018603	0.500335
C79	C	0.033207	-0.591425	0.000306
C80	C	0.533207	-0.091425	0.500306
N81	N	0.046183	-0.365692	0.079561
N82	N	0.546183	0.134308	0.579561
N83	N	0.045167	-0.296513	0.079592
N84	N	0.545167	0.203487	0.579592
C85	C	0.091994	-0.254260	0.000465
C86	C	0.591994	0.245740	0.500465
N87	N	0.139886	-0.283798	-0.078677
N88	N	0.639886	0.216202	0.421323
N89	N	0.140904	-0.352983	-0.078701
N90	N	0.640904	0.147017	0.421299
C91	C	0.094062	-0.394707	0.000411
C92	C	0.594062	0.105293	0.500411
C93	C	0.153928	-0.130372	0.000516
C94	C	0.653928	0.369628	0.500516
C95	C	0.152853	-0.057547	0.000523
C96	C	0.652853	0.442453	0.500523
C97	C	0.025586	-0.074586	0.000498
C98	C	0.525586	0.425414	0.500498
C99	C	0.026662	-0.147409	0.000477
C100	C	0.526662	0.352591	0.500477
C101	C	0.090835	-0.175298	0.000493
C102	C	0.590835	0.324702	0.500493
C103	C	0.143149	-0.775154	-0.546222
C104	C	0.643149	-0.275154	-0.046222
C105	C	0.080298	-0.761224	-0.453019
C106	C	0.580298	-0.261224	0.046981
C107	C	0.155892	-0.838374	-0.452972
C108	C	0.655892	-0.338374	0.047028
C109	C	0.030132	-0.810538	-0.546174
C110	C	0.530132	-0.310538	-0.046174
C111	C	0.105767	-0.887716	-0.546135
C112	C	0.605767	-0.387716	-0.046135
C113	C	0.042870	-0.873813	-0.452975
C114	C	0.542870	-0.373813	0.047025
N115	N	0.093015	-0.824499	0.362675
N116	N	0.593015	-0.324499	0.862675
H117	H	-0.134360	-0.944176	0.000409
H118	H	0.365640	-0.444176	0.500409
H119	H	0.185485	-0.733406	-0.587164
H120	H	0.685485	-0.233406	-0.087164
O121	O	0.226312	-0.853946	-0.398774
O122	O	0.726312	-0.353946	0.101226
H123	H	0.219236	-0.902580	-0.334908
H124	H	0.719236	-0.402580	0.165092
H125	H	0.069523	-0.707754	-0.412107
H126	H	0.569523	-0.207754	0.087893
O127	O	-0.041388	-0.195866	0.000454
O128	O	0.458612	0.304134	0.500454
H129	H	-0.043941	-0.229422	-0.094338
H130	H	0.456059	0.270578	0.405662
O131	O	-0.013326	-0.929083	-0.399080
O132	O	0.486674	-0.429083	0.100920
H133	H	-0.012620	-0.928991	-0.283050
H134	H	0.487380	-0.428991	0.216950
O135	O	-0.535582	-0.690065	0.000386
O136	O	-0.035582	-0.190065	0.500386
H137	H	-0.501999	-0.687512	-0.094386
H138	H	-0.001999	-0.187512	0.405614
O139	O	-0.040302	-0.794889	-0.600156
O140	O	0.459698	-0.294889	-0.100156
H141	H	-0.039752	-0.794993	-0.716188
H142	H	0.460248	-0.294993	-0.216188
O143	O	-0.686947	-0.687830	0.000401
O144	O	-0.186947	-0.187830	0.500401
H145	H	-0.668884	-0.657528	0.095161
H146	H	-0.168884	-0.157528	0.595161
O147	O	-0.570997	-0.954592	0.000495
O148	O	-0.070997	-0.454592	0.500495
H149	H	-0.512811	-0.944740	0.000466
H150	H	-0.012811	-0.444740	0.500466
H151	H	-0.103449	-0.713281	0.000351
H152	H	0.396551	-0.213281	0.500351
O153	O	-0.278350	-0.958902	0.000420
O154	O	0.221650	-0.458902	0.500420
H155	H	-0.311932	-0.961473	0.095194
H156	H	0.188068	-0.461473	0.595194
O157	O	0.120067	-0.958520	-0.600381
O158	O	0.620067	-0.458520	-0.100381
H159	H	0.172305	-0.969927	-0.563124
H160	H	0.672305	-0.469927	-0.063124
O161	O	-0.037075	-0.488518	0.000330
O162	O	0.462925	0.011482	0.500330
H163	H	-0.067391	-0.506610	0.095078
H164	H	0.432609	-0.006610	0.595078
H165	H	0.210776	-0.464982	0.000401
H166	H	0.710776	0.035018	0.500401
O167	O	-0.242930	-0.694375	0.000331
O168	O	0.257070	-0.194375	0.500331
H169	H	-0.301116	-0.704227	0.000321
H170	H	0.198884	-0.204227	0.500321
H171	H	-0.710481	-0.935683	0.000524
H172	H	-0.210481	-0.435683	0.500524
H173	H	0.212725	-0.597091	0.000375
H174	H	0.712725	-0.097091	0.500375
O175	O	-0.034843	-0.639886	0.000273
O176	O	0.465157	-0.139886	0.500273
H177	H	-0.079644	-0.608257	0.000283
H178	H	0.420356	-0.108257	0.500283
H179	H	0.206181	-0.153080	0.000509
H180	H	0.706181	0.346920	0.500509
O181	O	0.220904	-0.009087	0.000558
O182	O	0.720904	0.490913	0.500558
H183	H	0.265704	-0.040718	0.000575
H184	H	0.765704	0.459282	0.500575
H185	H	-0.026659	-0.051874	0.000589
H186	H	0.473341	0.448126	0.500589
