data_functionalizedCrystal
_audit_creation_method	'MofGen! by Chris Wilmer'
_symmetry_space_group_name_H-M	'P1'
_symmetry_Int_Tables_number	1
_symmetry_cell_setting	triclinic
loop_
_symmetry_equiv_pos_as_xyz
  x,y,z
_cell_length_a	19.805407
_cell_length_b	19.805405
_cell_length_c	12.759393
_cell_angle_alpha	89.965008
_cell_angle_beta	89.977411
_cell_angle_gamma	90.026726
loop_
_atom_site_label
_atom_site_type_symbol
_atom_site_fract_x
_atom_site_fract_y
_atom_site_fract_z
Zn1	Zn	1.034754	-0.269423	-0.594073
Zn2	Zn	1.034663	-0.382628	-0.418382
Zn3	Zn	0.921563	-0.269458	-0.418399
Zn4	Zn	0.921532	-0.382575	-0.594011
O5	O	0.978128	-0.326021	-0.506216
O6	O	1.129459	-0.284447	-0.570786
O7	O	1.019634	-0.367652	-0.271363
O8	O	0.936630	-0.174737	-0.441736
O9	O	1.129391	-0.367618	-0.441707
O10	O	1.019791	-0.174711	-0.570802
O11	O	0.936541	-0.284507	-0.271376
O12	O	0.826842	-0.284456	-0.441676
O13	O	0.936576	-0.367529	-0.741040
O14	O	0.826819	-0.367563	-0.570697
O15	O	1.019761	-0.284396	-0.741086
O16	O	1.019604	-0.477337	-0.441647
O17	O	0.936487	-0.477299	-0.570681
C18	C	0.802272	-0.326008	-0.506182
C19	C	0.727040	-0.326019	-0.506193
C20	C	0.691702	-0.369358	-0.573265
C21	C	0.621013	-0.369359	-0.573280
C22	C	0.585664	-0.326024	-0.506216
C23	C	0.621008	-0.282681	-0.439141
C24	C	0.691695	-0.282676	-0.439132
C25	C	0.335934	-0.282695	-0.439175
C26	C	0.265242	-0.282704	-0.439187
C27	C	0.265253	-0.369378	-0.573324
C28	C	0.335940	-0.369374	-0.573315
C29	C	0.371277	-0.326028	-0.506244
C30	C	0.447925	-0.326026	-0.506230
C31	C	0.509017	-0.326029	-0.506224
C32	C	0.978051	-0.501877	-0.506178
C33	C	0.978080	-0.577109	-0.506197
C34	C	1.021356	-0.612381	-0.573455
C35	C	1.021381	-0.683070	-0.573474
C36	C	0.978132	-0.718485	-0.506230
C37	C	0.934850	-0.683207	-0.438970
C38	C	0.934823	-0.612520	-0.438956
C39	C	0.934959	-0.968280	-0.439024
C40	C	0.934991	-1.038973	-0.439040
C41	C	1.021517	-1.038830	-0.573542
C42	C	1.021489	-0.968143	-0.573528
C43	C	0.978206	-0.932872	-0.506272
C44	C	0.978179	-0.856224	-0.506253
C45	C	0.978161	-0.795132	-0.506243
C46	C	1.154671	-0.326035	-0.506251
C47	C	1.229903	-0.326040	-0.506266
C48	C	0.978175	-0.325953	-0.780250
C49	C	0.978195	-0.325923	-0.897027
C50	C	0.978224	-0.149478	-0.506278
C51	C	0.978265	-0.074246	-0.506304
C52	C	0.934944	-0.282622	-0.951895
C53	C	0.934960	-0.282601	-1.061619
C54	C	1.021484	-0.369185	-1.061597
C55	C	1.021464	-0.369209	-0.951875
C56	C	0.978120	-0.326040	-0.233249
C57	C	0.978231	-0.325879	-0.116473
H58	H	0.364717	-0.404664	-0.627922
H59	H	0.236473	-0.404670	-0.627940
H60	H	0.899711	-0.247376	-0.907240
O61	O	0.725932	-0.411475	-0.638512
C62	C	0.679579	-0.449738	-0.697698
H63	H	0.629204	-0.422019	-0.701415
H64	H	0.700024	-0.457017	-0.780454
H65	H	0.672029	-0.501115	-0.659086
O66	O	0.586659	-0.411366	-0.638544
C67	C	0.545796	-0.372893	-0.706508
H68	H	0.567118	-0.319587	-0.713148
H69	H	0.545016	-0.397440	-0.787290
H70	H	0.492212	-0.370542	-0.674046
O71	O	0.892941	-0.933919	-0.373787
C72	C	0.902195	-0.863934	-0.388172
H73	H	0.924329	-0.854219	-0.469282
H74	H	0.851486	-0.837121	-0.380965
H75	H	0.938252	-0.843872	-0.325902
H76	H	1.056709	-0.939311	-0.628281
H77	H	0.592221	-0.247394	-0.384541
H78	H	1.056687	-0.404473	-0.907200
O79	O	1.063652	-1.073061	-0.638781
C80	C	1.131113	-1.055730	-0.615935
H81	H	1.134556	-1.036343	-0.532000
H82	H	1.164568	-1.102182	-0.625059
H83	H	1.148767	-1.014651	-0.672273
O84	O	0.370150	-0.240569	-0.373927
C85	C	0.323790	-0.202312	-0.314758
H86	H	0.273393	-0.230042	-0.311045
H87	H	0.344191	-0.195021	-0.232000
H88	H	0.316298	-0.150940	-0.353383
H89	H	0.899582	-0.583802	-0.384190
O90	O	0.892925	-0.240472	-1.114755
C91	C	0.854721	-0.202288	-1.042811
H92	H	0.882434	-0.199965	-0.964605
H93	H	0.847537	-0.148952	-1.074535
H94	H	0.803299	-0.227070	-1.031117
O95	O	0.230877	-0.240704	-0.373919
C96	C	0.189948	-0.279195	-0.305973
H97	H	0.211230	-0.332496	-0.299342
H98	H	0.189135	-0.254657	-0.225185
H99	H	0.136382	-0.281557	-0.338448
H100	H	0.720466	-0.247382	-0.384520
O101	O	1.063389	-0.578087	-0.638879
C102	C	1.101601	-0.624381	-0.698230
H103	H	1.073895	-0.674792	-0.701830
H104	H	1.108780	-0.603914	-0.781016
H105	H	1.153024	-0.631872	-0.659838
H106	H	1.056626	-0.711786	-0.628234
H107	H	1.056713	-0.404426	-1.106268
H108	H	0.899769	-1.067805	-0.384280
H109	H	0.899633	-0.712047	-0.384223
