data_functionalizedCrystal
_audit_creation_method	'MofGen! by Chris Wilmer'
_symmetry_space_group_name_H-M	'P1'
_symmetry_Int_Tables_number	1
_symmetry_cell_setting	triclinic
loop_
_symmetry_equiv_pos_as_xyz
  x,y,z
_cell_length_a	25.639242
_cell_length_b	29.839131
_cell_length_c	25.639233
_cell_angle_alpha	89.972761
_cell_angle_beta	89.977834
_cell_angle_gamma	90.030754
loop_
_atom_site_label
_atom_site_type_symbol
_atom_site_fract_x
_atom_site_fract_y
_atom_site_fract_z
Zn1	Zn	0.799238	-0.178962	-0.295711
Zn2	Zn	0.799166	-0.254076	-0.208263
Zn3	Zn	0.711814	-0.178955	-0.208275
Zn4	Zn	0.711764	-0.254059	-0.295653
O5	O	0.755496	-0.216513	-0.251976
O6	O	0.872393	-0.188935	-0.284130
O7	O	0.787570	-0.244115	-0.135099
O8	O	0.723461	-0.116089	-0.219904
O9	O	0.872341	-0.244122	-0.219882
O10	O	0.787691	-0.116094	-0.284143
O11	O	0.723392	-0.188924	-0.135109
O12	O	0.638642	-0.188908	-0.219847
O13	O	0.723377	-0.244093	-0.368826
O14	O	0.638606	-0.244087	-0.284043
O15	O	0.787643	-0.188919	-0.368869
O16	O	0.787522	-0.316941	-0.219825
O17	O	0.723308	-0.316929	-0.284030
C18	C	0.619653	-0.216495	-0.251940
C19	C	0.561539	-0.216499	-0.251937
C20	C	0.755416	-0.333236	-0.251931
C21	C	0.755430	-0.383170	-0.251930
C22	C	0.201166	-0.245293	-0.285371
C23	C	0.146561	-0.245295	-0.285379
O24	O	0.118316	-0.269755	-0.313775
N25	N	0.119256	-0.216525	-0.252010
C26	C	0.146559	-0.187748	-0.218634
O27	O	0.118320	-0.163276	-0.190252
C28	C	0.201162	-0.187743	-0.218629
C29	C	0.228464	-0.216518	-0.251996
C30	C	0.228468	-0.274065	-0.318736
C31	C	0.283069	-0.274063	-0.318727
C32	C	0.310367	-0.245288	-0.285352
C33	C	0.283065	-0.216516	-0.251987
C34	C	0.228463	-0.158963	-0.185256
C35	C	0.283070	-0.158961	-0.185254
C36	C	0.310372	-0.187736	-0.218621
C37	C	0.364964	-0.187739	-0.218604
N38	N	0.392269	-0.216509	-0.251973
C39	C	0.364970	-0.245283	-0.285347
C40	C	0.031888	-0.187759	-0.218648
C41	C	-0.022714	-0.187766	-0.218650
C42	C	-0.022708	-0.245313	-0.285396
C43	C	0.031896	-0.245308	-0.285391
C44	C	0.059193	-0.216529	-0.252017
C45	C	0.479635	-0.245277	-0.285325
C46	C	0.534241	-0.245273	-0.285312
C47	C	0.534229	-0.187724	-0.218568
C48	C	0.479629	-0.187729	-0.218580
C49	C	0.452333	-0.216507	-0.251962
O50	O	0.393244	-0.163290	-0.190224
O51	O	0.393216	-0.269746	-0.313729
C52	C	0.788933	-0.692781	-0.285472
C53	C	0.788989	-0.880454	-0.285504
O54	O	0.817397	-0.904691	-0.313990
N55	N	0.755584	-0.903955	-0.252034
C56	C	0.722160	-0.880535	-0.218556
O57	O	0.693745	-0.904830	-0.190092
C58	C	0.722101	-0.692863	-0.218527
C59	C	0.755512	-0.669364	-0.251996
C60	C	0.822341	-0.669282	-0.318939
C61	C	0.822328	-0.622367	-0.318928
C62	C	0.788908	-0.598950	-0.285452
C63	C	0.755500	-0.622449	-0.251986
C64	C	0.688675	-0.669444	-0.185052
C65	C	0.688662	-0.622522	-0.185049
C66	C	0.722073	-0.599024	-0.218518
C67	C	0.722067	-0.552116	-0.218499
N68	N	0.755472	-0.528615	-0.251969
C69	C	0.788892	-0.552032	-0.285446
C70	C	0.722194	-0.979066	-0.218572
C71	C	0.722210	-1.025983	-0.218578
C72	C	0.789038	-1.025899	-0.285527
C73	C	0.789025	-0.978981	-0.285518
C74	C	0.755599	-0.955565	-0.252042
C75	C	0.788864	-0.453506	-0.285421
C76	C	0.788850	-0.406587	-0.285407
C77	C	0.722020	-0.406675	-0.218460
C78	C	0.722035	-0.453591	-0.218472
C79	C	0.755459	-0.477005	-0.251957
O80	O	0.693670	-0.527850	-0.190032
O81	O	0.817296	-0.527729	-0.313913
C82	C	0.788945	-0.739696	-0.285483
C83	C	0.755537	-0.763195	-0.252016
C84	C	0.722117	-0.739778	-0.218540
C85	C	0.755553	-0.810113	-0.252023
C86	C	0.788973	-0.833530	-0.285499
C87	C	0.822378	-0.810029	-0.318969
C88	C	0.822366	-0.763113	-0.318959
C89	C	0.688712	-0.763279	-0.185070
C90	C	0.688727	-0.810195	-0.185082
C91	C	0.722148	-0.833612	-0.218559
C92	C	0.891869	-0.216531	-0.252011
C93	C	0.949983	-0.216539	-0.252027
C94	C	0.755512	-0.216505	-0.388349
C95	C	0.755520	-0.216502	-0.446463
C96	C	0.755590	-0.099335	-0.252031
C97	C	0.755630	-0.049400	-0.252055
C98	C	0.789025	-0.187687	-0.806854
C99	C	0.789032	-0.187675	-0.861458
O100	O	0.817478	-0.163229	-0.889719
N101	N	0.755577	-0.216396	-0.888745
C102	C	0.722110	-0.245129	-0.861425
O103	O	0.693655	-0.269558	-0.889649
C104	C	0.722101	-0.245139	-0.806822
C105	C	0.755562	-0.216419	-0.779538
C106	C	0.822483	-0.158969	-0.779570
C107	C	0.822477	-0.158982	-0.724969
C108	C	0.789014	-0.187714	-0.697653
C109	C	0.755556	-0.216432	-0.724937
C110	C	0.688632	-0.273869	-0.779503
C111	C	0.688626	-0.273876	-0.724896
C112	C	0.722087	-0.245156	-0.697611
C113	C	0.722087	-0.245176	-0.643020
N114	N	0.755542	-0.216455	-0.615733
C115	C	0.789005	-0.187723	-0.643050
C116	C	0.722130	-0.245106	-0.976096
C117	C	0.722141	-0.245099	-1.030698
C118	C	0.789063	-0.187644	-1.030728
C119	C	0.789054	-0.187653	-0.976124
C120	C	0.755585	-0.216384	-0.948809
C121	C	0.788990	-0.187753	-0.528384
C122	C	0.788983	-0.187770	-0.473779
C123	C	0.722060	-0.245223	-0.473754
C124	C	0.722069	-0.245208	-0.528355
C125	C	0.755536	-0.216470	-0.555669
O126	O	0.693654	-0.269609	-0.614725
O127	O	0.817451	-0.163295	-0.614819
C128	C	0.755509	-0.216488	-0.116133
C129	C	0.755603	-0.216365	-0.058019
H130	H	0.556468	-0.268707	-0.312484
H131	H	-0.044944	-0.268742	-0.312573
H132	H	0.816251	-1.044973	-0.312785
H133	H	0.816059	-0.387456	-0.312661
O134	O	0.689572	-0.383854	-0.185992
C135	C	0.696737	-0.337405	-0.193157
H136	H	0.713836	-0.330969	-0.233523
H137	H	0.724595	-0.324087	-0.162171
C138	C	0.622832	-0.321256	-0.138736
C139	C	0.643830	-0.313351	-0.188316
H140	H	0.590198	-0.306418	-0.135747
H141	H	0.618006	-0.352550	-0.133907
H142	H	0.646053	-0.310158	-0.112920
H143	H	0.620613	-0.324454	-0.214131
H144	H	0.648651	-0.282059	-0.193149
O145	O	0.821379	-0.476178	-0.317967
C146	C	0.850848	-0.445368	-0.347510
H147	H	0.852662	-0.411937	-0.326083
H148	H	0.831669	-0.440365	-0.387195
C149	C	0.904267	-0.504694	-0.381433
C150	C	0.906499	-0.463634	-0.355114
H151	H	0.938595	-0.515961	-0.386126
H152	H	0.884412	-0.525451	-0.361531
H153	H	0.888283	-0.500519	-0.414501
H154	H	0.922477	-0.467811	-0.322045
H155	H	0.926358	-0.442878	-0.375011
H156	H	0.849592	-0.829103	-0.346225
O157	O	0.453206	-0.273273	-0.317770
C158	C	0.489022	-0.298656	-0.347223
H159	H	0.527930	-0.300179	-0.325793
H160	H	0.494863	-0.282253	-0.386968
C161	C	0.419908	-0.344611	-0.380978
C162	C	0.467694	-0.346485	-0.354655
H163	H	0.406752	-0.374114	-0.385565
H164	H	0.395778	-0.327510	-0.361137
H165	H	0.424783	-0.330941	-0.414096
H166	H	0.462818	-0.360150	-0.321536
H167	H	0.491823	-0.363590	-0.374491
H168	H	0.661521	-0.829323	-0.157823
H169	H	0.849733	-0.135570	-0.801805
H170	H	0.661496	-0.744217	-0.157809
O171	O	0.560731	-0.159824	-0.186074
C172	C	0.547351	-0.169565	-0.133942
H173	H	0.532313	-0.205451	-0.131219
H174	H	0.515668	-0.145459	-0.120331
C175	C	0.614317	-0.120221	-0.102405
C176	C	0.595851	-0.164297	-0.099060
H177	H	0.644233	-0.116969	-0.080887
H178	H	0.623330	-0.113656	-0.137527
H179	H	0.587910	-0.100137	-0.091063
H180	H	0.622255	-0.184379	-0.110407
H181	H	0.586844	-0.170865	-0.063938
H182	H	0.206247	-0.297497	-0.345916
O183	O	0.656176	-0.301854	-0.698383
C184	C	0.667563	-0.346626	-0.711731
H185	H	0.709331	-0.348892	-0.726756
H186	H	0.639525	-0.358359	-0.743414
C187	C	0.610157	-0.373838	-0.644764
C188	C	0.661458	-0.376622	-0.663213
H189	H	0.606389	-0.392342	-0.614837
H190	H	0.602483	-0.343675	-0.635772
H191	H	0.586797	-0.383615	-0.671171
H192	H	0.684816	-0.366840	-0.636809
H193	H	0.669136	-0.406785	-0.672200
H194	H	0.694875	-0.268504	-0.953859
H195	H	0.457398	-0.164299	-0.191408
H196	H	0.816300	-0.164266	-0.953913
H197	H	0.816309	-0.164248	-1.052978
H198	H	-0.044939	-0.164338	-0.191474
H199	H	0.305293	-0.297494	-0.345899
H200	H	0.849723	-0.135594	-0.702759
H201	H	0.661441	-0.603459	-0.157790
O202	O	0.656203	-0.301820	-0.806017
C203	C	0.685945	-0.330833	-0.837608
H204	H	0.727123	-0.333612	-0.821171
H205	H	0.687753	-0.316944	-0.879000
C206	C	0.609789	-0.374119	-0.858596
C207	C	0.660364	-0.377536	-0.838405
H208	H	0.594009	-0.402927	-0.859090
H209	H	0.589751	-0.354572	-0.837315
H210	H	0.611303	-0.362544	-0.893088
H211	H	0.658849	-0.389106	-0.803912
H212	H	0.680401	-0.397087	-0.859681
O213	O	0.689534	-0.476350	-0.185942
C214	C	0.660046	-0.445619	-0.156382
H215	H	0.658216	-0.412162	-0.177787
H216	H	0.679217	-0.440642	-0.116692
C217	C	0.606654	-0.505058	-0.122504
C218	C	0.604403	-0.463967	-0.148795
H219	H	0.572332	-0.516377	-0.117821
H220	H	0.626522	-0.525763	-0.142417
H221	H	0.622633	-0.500905	-0.089431
H222	H	0.588431	-0.468121	-0.181869
H223	H	0.584531	-0.443263	-0.128887
H224	H	0.694828	-0.268599	-0.550571
H225	H	0.694817	-0.268617	-0.451504
H226	H	0.054121	-0.268739	-0.312562
O227	O	0.058322	-0.159792	-0.186171
C228	C	0.022508	-0.134395	-0.156732
H229	H	-0.016425	-0.152800	-0.154891
H230	H	0.016727	-0.100299	-0.175954
C231	C	0.091603	-0.105246	-0.103356
C232	C	0.043787	-0.127852	-0.101091
H233	H	0.104730	-0.101207	-0.069034
H234	H	0.115732	-0.122354	-0.123190
H235	H	0.086779	-0.076835	-0.119376
H236	H	0.048613	-0.156265	-0.085076
H237	H	0.019659	-0.110749	-0.081252
O238	O	0.821504	-0.159827	-0.447357
C239	C	0.851047	-0.134473	-0.483180
H240	H	0.829635	-0.132907	-0.522097
H241	H	0.890744	-0.150928	-0.488996
C242	C	0.884918	-0.088587	-0.414088
C243	C	0.858617	-0.086661	-0.461885
H244	H	0.889590	-0.059095	-0.400952
H245	H	0.865016	-0.105669	-0.389953
H246	H	0.917996	-0.102302	-0.418941
H247	H	0.825538	-0.072951	-0.457031
H248	H	0.878514	-0.069575	-0.486019
H249	H	0.206243	-0.135532	-0.158083
H250	H	0.849533	-0.603237	-0.346183
H251	H	0.305293	-0.135522	-0.158079
O252	O	0.821527	-0.159901	-0.554970
C253	C	0.855290	-0.185475	-0.586546
H254	H	0.836822	-0.219515	-0.594720
H255	H	0.894027	-0.190425	-0.565507
C256	C	0.887474	-0.118934	-0.628379
C257	C	0.864789	-0.160740	-0.638422
H258	H	0.893336	-0.103676	-0.660378
H259	H	0.864728	-0.101703	-0.607104
H260	H	0.919752	-0.123064	-0.610845
H261	H	0.832509	-0.156609	-0.655949
H262	H	0.887529	-0.177969	-0.659701
H263	H	0.849555	-0.688343	-0.346202
H264	H	0.816231	-0.959851	-0.312771
O265	O	0.656167	-0.692193	-0.152526
C266	C	0.626678	-0.661455	-0.122976
H267	H	0.624853	-0.628002	-0.144388
H268	H	0.645845	-0.656472	-0.083285
C269	C	0.573278	-0.720886	-0.089089
C270	C	0.571033	-0.679799	-0.115391
H271	H	0.538955	-0.732202	-0.084408
H272	H	0.593147	-0.741595	-0.108996
H273	H	0.589254	-0.716728	-0.056016
H274	H	0.555064	-0.683958	-0.148466
H275	H	0.551161	-0.659091	-0.095489
H276	H	0.695009	-1.045112	-0.191319
H277	H	0.694900	-0.268490	-1.052908
O278	O	0.689709	-0.956392	-0.185998
C279	C	0.660225	-0.987201	-0.156470
H280	H	0.681657	-1.020630	-0.154696
H281	H	0.620503	-0.992210	-0.175571
C282	C	0.626402	-0.927874	-0.102988
C283	C	0.652727	-0.968931	-0.100806
H284	H	0.621775	-0.916603	-0.068653
H285	H	0.646265	-0.907117	-0.122883
H286	H	0.593304	-0.932053	-0.118908
H287	H	0.685828	-0.964750	-0.084892
H288	H	0.632870	-0.989687	-0.080907
O289	O	0.854835	-0.740360	-0.351523
C290	C	0.884341	-0.771097	-0.381059
H291	H	0.862929	-0.804553	-0.382846
H292	H	0.924064	-0.776071	-0.361957
C293	C	0.918131	-0.711666	-0.434518
C294	C	0.891831	-0.752757	-0.436717
H295	H	0.922754	-0.700353	-0.468850
H296	H	0.898254	-0.690958	-0.414618
H297	H	0.951231	-0.715817	-0.418597
H298	H	0.858729	-0.748605	-0.452632
H299	H	0.911702	-0.773465	-0.456621
