data_functionalizedCrystal
_audit_creation_method	'MofGen! by Chris Wilmer'
_symmetry_space_group_name_H-M	'P1'
_symmetry_Int_Tables_number	1
_symmetry_cell_setting	triclinic
loop_
_symmetry_equiv_pos_as_xyz
  x,y,z
_cell_length_a	10.654541
_cell_length_b	14.421503
_cell_length_c	10.654545
_cell_angle_alpha	89.993320
_cell_angle_beta	84.484678
_cell_angle_gamma	90.006362
loop_
_atom_site_label
_atom_site_type_symbol
_atom_site_fract_x
_atom_site_fract_y
_atom_site_fract_z
O1	O	1.667852	0.077078	0.176367
O2	O	1.302373	0.077086	0.193176
O3	O	1.493515	0.077081	0.002032
O4	O	1.476710	0.077083	0.367511
O5	O	1.493483	-0.077142	0.002061
O6	O	1.302341	-0.077138	0.193205
O7	O	1.667820	-0.077145	0.176396
Cu8	Cu	1.485078	-0.091223	0.184803
Cu9	Cu	1.485116	0.091164	0.184769
O10	O	1.476679	-0.077141	0.367540
C11	C	1.255559	-0.000025	0.191957
C12	C	1.116116	-0.000022	0.188266
N13	N	1.485061	-0.219505	0.184826
C14	C	1.088146	-0.000009	0.416831
C15	C	1.008652	0.000001	0.529374
C16	C	0.877634	0.000002	0.525898
C17	C	0.826108	-0.000010	0.409867
C18	C	0.905602	-0.000020	0.297324
C19	C	1.036622	-0.000019	0.300812
C20	C	0.933572	-0.000040	0.068763
C21	C	1.064590	-0.000034	0.072235
C22	C	0.882046	-0.000052	-0.047269
C23	C	0.961540	-0.000055	-0.159814
C24	C	1.092565	-0.000055	-0.156334
C25	C	1.144084	-0.000044	-0.040308
C26	C	1.396661	-0.469156	0.273170
C27	C	1.510358	-0.530961	0.298534
C28	C	1.485091	-0.408666	0.184796
C29	C	1.371423	-0.530955	0.159462
C30	C	1.485110	-0.591388	0.184770
C31	C	1.598846	-0.469110	0.210217
C32	C	1.459836	-0.469099	0.071094
C33	C	1.573615	-0.530876	0.096411
C34	C	1.485078	-0.303405	0.184814
C35	C	1.485136	-0.696646	0.184751
C36	C	1.714634	-0.000033	0.177615
C37	C	1.854078	-0.000030	0.181306
C38	C	1.492265	-0.000029	-0.044751
C39	C	1.488572	-0.000023	-0.184195
N40	N	1.485143	0.219445	0.184736
C41	C	1.488622	0.168116	-0.184234
C42	C	1.486917	0.252185	-0.249764
C43	C	1.483448	0.252186	-0.380782
C44	C	1.481680	0.168109	-0.446274
C45	C	1.483385	0.084040	-0.380744
C46	C	1.486858	0.084048	-0.249723
C47	C	1.483327	-0.084097	-0.380704
C48	C	1.486805	-0.084101	-0.249686
C49	C	1.481559	-0.168175	-0.446196
C50	C	1.483273	-0.252246	-0.380667
C51	C	1.486744	-0.252243	-0.249640
C52	C	1.488510	-0.168170	-0.184157
C53	C	1.477929	-0.000029	0.414323
C54	C	1.481621	-0.000028	0.553766
H55	H	1.194826	0.000010	0.419672
O56	O	1.488823	0.342867	-0.179131
H57	H	1.491532	0.328748	-0.077017
H58	H	1.482048	0.320642	-0.434135
H59	H	1.478840	0.168117	-0.552955
H60	H	1.478727	-0.168168	-0.552877
H61	H	1.491342	-0.168160	-0.077475
O62	O	0.684797	-0.000026	0.406112
H63	H	0.644213	0.062836	0.454502
H64	H	1.157283	-0.000067	-0.247981
H65	H	1.481825	-0.320694	-0.434000
H66	H	1.050619	0.000008	0.623844
H67	H	0.775363	-0.000056	-0.050090
O68	O	1.538702	-0.566981	0.425865
H69	H	1.539352	-0.643937	0.424367
O70	O	1.431487	-0.433068	-0.056221
H71	H	1.345135	-0.389644	-0.044972
O72	O	1.285396	-0.000056	-0.036558
H73	H	1.313929	0.062801	0.013680
H74	H	1.488113	-0.320703	-0.196292
O75	O	0.791892	0.000003	0.647285
H76	H	0.692133	-0.000007	0.625366
O77	O	0.905971	-0.000076	-0.284952
H78	H	0.846958	0.062780	-0.292031
H79	H	1.321956	-0.442057	0.347967
O80	O	1.726220	-0.433291	0.238746
H81	H	1.725196	-0.356330	0.238583
H82	H	1.648488	-0.557805	0.021660
H83	H	1.275289	-0.558123	0.138046
O84	O	1.492495	0.168111	-0.042937
H85	H	1.493477	0.240695	-0.008410
