data_functionalizedCrystal
_audit_creation_method	'MofGen! by Chris Wilmer'
_symmetry_space_group_name_H-M	'P1'
_symmetry_Int_Tables_number	1
_symmetry_cell_setting	triclinic
loop_
_symmetry_equiv_pos_as_xyz
  x,y,z
_cell_length_a	14.519709
_cell_length_b	12.811457
_cell_length_c	11.892095
_cell_angle_alpha	91.498327
_cell_angle_beta	86.097450
_cell_angle_gamma	96.137891
loop_
_atom_site_label
_atom_site_type_symbol
_atom_site_fract_x
_atom_site_fract_y
_atom_site_fract_z
O1	O	-0.127233	1.389438	0.048453
O2	O	0.372767	1.889438	0.548453
O3	O	-0.138800	1.086099	0.017356
O4	O	0.361200	1.586099	0.517356
O5	O	0.001152	1.245812	0.033719
O6	O	0.501152	1.745812	0.533719
O7	O	-0.267185	1.229725	0.032090
O8	O	0.232815	1.729725	0.532090
O9	O	-0.010499	1.232495	0.220362
O10	O	0.489501	1.732495	0.720362
O11	O	-0.150451	1.072783	0.203999
O12	O	0.349549	1.572783	0.703999
O13	O	-0.138884	1.376121	0.235097
O14	O	0.361116	1.876121	0.735097
Zn15	Zn	-0.146517	1.222338	0.249181
Zn16	Zn	0.353483	1.722338	0.749181
Zn17	Zn	-0.131167	1.239883	0.003271
Zn18	Zn	0.368833	1.739883	0.503271
O19	O	-0.278836	1.216409	0.218733
O20	O	0.221164	1.716409	0.718733
C21	C	-0.143621	1.040619	0.106697
C22	C	0.356379	1.540619	0.606697
C23	C	-0.140614	0.924944	0.094837
C24	C	0.359386	1.424944	0.594837
C25	C	-0.147651	0.693059	0.276053
C26	C	0.352349	1.193059	0.776053
C27	C	-0.144826	0.584371	0.264915
C28	C	0.355174	1.084371	0.764915
C29	C	-0.132134	0.598880	0.061426
C30	C	0.367866	1.098880	0.561426
C31	C	-0.134959	0.707567	0.072563
C32	C	0.365041	1.207567	0.572563
C33	C	-0.142719	0.754653	0.179880
C34	C	0.357281	1.254653	0.679880
C35	C	-0.145550	0.863342	0.191017
C36	C	0.354450	1.363342	0.691017
C37	C	-0.132851	0.877849	-0.012472
C38	C	0.367149	1.377849	0.487528
C39	C	-0.130026	0.769161	-0.023609
C40	C	0.369974	1.269161	0.476391
C41	C	-0.307377	1.223816	0.125491
C42	C	0.192623	1.723816	0.625491
C43	C	-0.409778	1.226062	0.125729
C44	C	0.090222	1.726062	0.625729
C45	C	-0.784744	1.234335	0.126532
C46	C	-0.284744	1.734335	0.626532
C47	C	-0.680417	1.232038	0.126310
C48	C	-0.180417	1.732038	0.626310
C49	C	-0.597265	1.230199	0.126132
C50	C	-0.097265	1.730199	0.626132
C51	C	-0.492931	1.227901	0.125907
C52	C	0.007069	1.727901	0.625907
C53	C	0.029693	1.238404	0.126959
C54	C	0.529693	1.738404	0.626959
C55	C	0.132095	1.236159	0.126713
C56	C	0.632095	1.736159	0.626713
C57	C	-0.134064	1.421601	0.145753
C58	C	0.365936	1.921601	0.645753
C59	C	-0.137069	1.537277	0.157605
C60	C	0.362931	2.037277	0.657605
N61	N	-0.156993	1.210371	0.417009
N62	N	0.343007	1.710371	0.917009
N63	N	-0.120684	1.251858	-0.164556
N64	N	0.379316	1.751858	0.335444
C65	C	-0.047736	1.335126	0.666439
C66	C	0.452264	1.835126	1.166439
C67	C	-0.055065	1.326769	0.783925
C68	C	0.444935	1.826769	1.283925
C69	C	-0.178976	1.185296	0.769468
C70	C	0.321024	1.685296	1.269468
C71	C	-0.171646	1.193653	0.651982
C72	C	0.328354	1.693653	1.151982
C73	C	-0.106026	1.268571	0.600472
C74	C	0.393974	1.768571	1.100472
C75	C	-0.098701	1.276933	0.482985
C76	C	0.401299	1.776933	0.982985
C77	C	-0.222607	1.135455	0.468530
C78	C	0.277393	1.635455	0.968530
C79	C	-0.229936	1.127099	0.586016
C80	C	0.270064	1.627099	1.086016
H81	H	-0.123704	0.730810	-0.110984
H82	H	0.376296	1.230810	0.389016
H83	H	-0.125800	0.560526	-0.025947
H84	H	0.374200	1.060526	0.474053
C85	C	-0.127432	0.945603	-0.118266
C86	C	0.372568	1.445603	0.381734
H87	H	-0.130224	1.017078	-0.096266
H88	H	0.369776	1.517078	0.403734
H89	H	-0.178029	0.922918	-0.162686
H90	H	0.321971	1.422918	0.337314
H91	H	-0.070691	0.938625	-0.161104
H92	H	0.429309	1.438625	0.338896
C93	C	-0.026529	1.359342	0.426320
C94	C	0.473471	1.859342	0.926320
H95	H	-0.030518	1.354798	0.346902
H96	H	0.469482	1.854798	0.846902
H97	H	0.033945	1.346548	0.444395
H98	H	0.533945	1.846548	0.944395
H99	H	-0.038502	1.427531	0.452695
H100	H	0.461498	1.927531	0.952695
C101	C	-0.302116	1.044700	0.642684
C102	C	0.197884	1.544700	1.142684
H103	H	-0.298138	1.049258	0.722103
H104	H	0.201862	1.549258	1.222103
H105	H	-0.290162	0.976509	0.616314
H106	H	0.209838	1.476509	1.116314
H107	H	-0.362589	1.057514	0.624607
H108	H	0.137411	1.557514	1.124607
H109	H	0.005689	1.396134	0.624500
H110	H	0.505689	1.896134	1.124500
C111	C	-0.156168	0.744859	0.394093
C112	C	0.343832	1.244859	0.894093
H113	H	-0.158692	0.692610	0.449777
H114	H	0.341308	1.192610	0.949777
H115	H	-0.211193	0.779122	0.401885
H116	H	0.288807	1.279122	0.901885
H117	H	-0.103853	0.794794	0.403447
H118	H	0.396147	1.294794	0.903447
C119	C	0.009050	1.399981	0.856485
C120	C	0.509050	1.899981	1.356485
H121	H	0.049175	1.445798	0.808977
H122	H	0.549175	1.945798	1.308977
H123	H	0.044983	1.359170	0.898473
H124	H	0.544983	1.859170	1.398473
H125	H	-0.027456	1.440161	0.906759
H126	H	0.472544	1.940161	1.406759
C127	C	-0.251148	1.102893	0.826143
C128	C	0.248852	1.602893	1.326143
H129	H	-0.247164	1.107454	0.905561
H130	H	0.252836	1.607454	1.405561
H131	H	-0.239189	1.034704	0.799773
H132	H	0.260811	1.534704	1.299773
H133	H	-0.311625	1.115699	0.808073
H134	H	0.188375	1.615699	1.308073
H135	H	-0.270072	1.081265	0.414807
H136	H	0.229928	1.581265	0.914807
H137	H	-0.148848	0.534224	0.343229
H138	H	0.351152	1.034224	0.843229
C139	C	-0.154066	0.915138	0.309059
C140	C	0.345934	1.415138	0.809059
H141	H	-0.156584	0.862886	0.364740
H142	H	0.343416	1.362886	0.864740
H143	H	-0.209092	0.949397	0.316857
H144	H	0.290908	1.449397	0.816857
H145	H	-0.101752	0.965076	0.318412
H146	H	0.398248	1.465076	0.818412
