data_functionalizedCrystal
_audit_creation_method	'MofGen! by Chris Wilmer'
_symmetry_space_group_name_H-M	'P1'
_symmetry_Int_Tables_number	1
_symmetry_cell_setting	triclinic
loop_
_symmetry_equiv_pos_as_xyz
  x,y,z
_cell_length_a	12.645331
_cell_length_b	19.805405
_cell_length_c	19.805399
_cell_angle_alpha	89.970699
_cell_angle_beta	90.018819
_cell_angle_gamma	89.974611
loop_
_atom_site_label
_atom_site_type_symbol
_atom_site_fract_x
_atom_site_fract_y
_atom_site_fract_z
Zn1	Zn	1.620627	0.269497	0.382698
Zn2	Zn	2.120627	0.769497	0.882698
Zn3	Zn	1.620493	0.382686	0.269506
Zn4	Zn	2.120493	0.882686	0.769506
Zn5	Zn	1.443353	0.269514	0.269524
Zn6	Zn	1.943353	0.769514	0.769524
Zn7	Zn	1.443296	0.382648	0.382655
Zn8	Zn	1.943296	0.882648	0.882655
O9	O	1.531942	0.326086	0.326096
O10	O	2.031942	0.826086	0.826096
O11	O	1.768956	0.284521	0.367694
O12	O	2.268956	0.784521	0.867694
O13	O	1.596963	0.367696	0.174792
O14	O	2.096963	0.867696	0.674792
O15	O	1.466949	0.174795	0.284562
O16	O	1.966949	0.674795	0.784562
O17	O	1.768858	0.367680	0.284532
O18	O	2.268858	0.867680	0.784532
O19	O	1.597191	0.174783	0.367711
O20	O	2.097191	0.674783	0.867711
O21	O	1.466819	0.284549	0.174805
O22	O	1.966819	0.784549	0.674805
O23	O	1.294998	0.284512	0.284520
O24	O	1.794998	0.784512	0.784520
O25	O	1.466851	0.367615	0.477377
O26	O	1.966851	0.867615	0.977377
O27	O	1.294956	0.367631	0.367637
O28	O	1.794956	0.867631	0.867637
O29	O	1.597135	0.284484	0.477409
O30	O	2.097135	0.784484	0.977409
O31	O	1.596908	0.477397	0.284490
O32	O	2.096908	0.977397	0.784490
O33	O	1.466722	0.477369	0.367620
O34	O	1.966722	0.977369	0.867620
C35	C	1.256513	0.326070	0.326076
C36	C	1.756513	0.826070	0.826076
C37	C	1.138683	0.326079	0.326084
C38	C	1.638683	0.826079	0.826084
C39	C	1.531823	0.501942	0.326063
C40	C	2.031823	1.001942	0.826063
C41	C	1.531869	0.577174	0.326072
C42	C	2.031869	1.077174	0.826072
C43	C	1.532002	0.326044	0.502638
C44	C	2.032002	0.826044	1.002638
C45	C	1.532027	0.326025	0.577871
C46	C	2.032027	0.826025	1.077871
C47	C	0.971110	0.273549	0.274084
C48	C	1.471110	0.773549	0.774084
C49	C	1.093669	0.273685	0.273855
C50	C	1.593669	0.773685	0.773855
C51	C	1.094147	0.397380	0.306591
C52	C	1.594147	0.897380	0.806591
C53	C	0.971549	0.397093	0.306236
C54	C	1.471549	0.897093	0.806236
C55	C	0.971530	0.307988	0.397777
C56	C	1.471530	0.807988	0.897777
C57	C	1.094136	0.306395	0.397379
C58	C	1.594136	0.806395	0.897379
C59	C	1.808447	0.326103	0.326116
C60	C	2.308447	0.826103	0.826116
C61	C	1.926278	0.326110	0.326124
C62	C	2.426278	0.826110	0.826124
C63	C	1.532091	0.149543	0.326143
C64	C	2.032091	0.649543	0.826143
C65	C	1.532154	0.074311	0.326164
C66	C	2.032154	0.574311	0.826164
C67	C	1.599723	0.612510	0.282831
C68	C	2.099723	1.112510	0.782831
C69	C	1.599768	0.683199	0.282846
C70	C	2.099768	1.183199	0.782846
C71	C	1.531953	0.718550	0.326099
C72	C	2.031953	1.218550	0.826099
C73	C	1.464096	0.683209	0.369344
C74	C	1.964096	1.183209	0.869344
C75	C	1.464057	0.612521	0.369332
C76	C	1.964057	1.112521	0.869332
C77	C	1.464253	0.968282	0.369394
C78	C	1.964253	1.468282	0.869394
C79	C	1.464294	1.038974	0.369401
C80	C	1.964294	1.538974	0.869401
C81	C	1.599963	1.038959	0.282909
C82	C	2.099963	1.538959	0.782909
C83	C	1.599924	0.968272	0.282896
C84	C	2.099924	1.468272	0.782896
C85	C	1.532072	0.932937	0.326144
C86	C	2.032072	1.432937	0.826144
C87	C	1.532025	0.856289	0.326128
C88	C	2.032025	1.356289	0.826128
C89	C	1.531993	0.795197	0.326111
C90	C	2.031993	1.295197	0.826111
C91	C	1.531944	0.326080	0.150240
C92	C	2.031944	0.826080	0.650240
C93	C	1.532124	0.325907	0.075008
C94	C	2.032124	0.825907	0.575008
C95	C	1.599867	0.282737	0.613232
C96	C	2.099867	0.782737	1.113232
C97	C	1.599878	0.282717	0.683921
C98	C	2.099878	0.782717	1.183921
C99	C	1.532053	0.325990	0.719246
C100	C	2.032053	0.825990	1.219246
C101	C	1.464205	0.369280	0.683879
C102	C	1.964205	0.869280	1.183879
C103	C	1.464190	0.369296	0.613192
C104	C	1.964190	0.869296	1.113192
C105	C	1.464265	0.369217	0.968953
C106	C	1.964265	0.869217	1.468953
C107	C	1.464288	0.369200	1.039645
C108	C	1.964288	0.869200	1.539645
C109	C	1.599954	0.282638	1.039681
C110	C	2.099954	0.782638	1.539681
C111	C	1.599938	0.282654	0.968994
C112	C	2.099938	0.782654	1.468994
C113	C	1.532087	0.325942	0.933634
C114	C	2.032087	0.825942	1.433634
C115	C	1.532074	0.325962	0.856985
C116	C	2.032074	0.825962	1.356985
C117	C	1.532070	0.325974	0.795893
C118	C	2.032070	0.825974	1.295893
H119	H	1.123781	0.220813	0.286073
H120	H	1.623781	0.720813	0.786073
Br121	Br	1.372168	0.920336	0.428087
Br122	Br	1.872168	1.420336	0.928087
H123	H	1.655141	0.939492	0.247674
H124	H	2.155141	1.439492	0.747674
H125	H	1.655102	0.247501	0.584476
H126	H	2.155102	0.747501	1.084476
H127	H	1.409073	1.067755	0.404627
H128	H	1.909073	1.567755	0.904627
Br129	Br	1.691995	0.223928	0.921056
Br130	Br	2.191995	0.723928	1.421056
Br131	Br	1.145239	0.423438	0.220221
Br132	Br	1.645239	0.923438	0.720221
H133	H	1.409032	0.404475	0.940171
H134	H	1.909032	0.904475	1.440171
H135	H	1.655123	0.247469	0.712709
H136	H	2.155123	0.747469	1.212709
H137	H	1.655198	0.247389	1.068481
H138	H	2.155198	0.747389	1.568481
H139	H	1.409052	0.404439	1.068405
H140	H	1.909052	0.904439	1.568405
H141	H	1.408977	0.404511	0.712647
H142	H	1.908977	0.904511	1.212647
Br143	Br	1.372111	0.428043	0.565200
Br144	Br	1.872111	0.928043	1.065200
H145	H	1.408885	0.711997	0.404563
H146	H	1.908885	1.211997	0.904563
Br147	Br	1.691865	0.731153	0.224165
Br148	Br	2.191865	1.231153	0.724165
H149	H	0.941657	0.220518	0.286171
H150	H	1.441657	0.720518	0.786171
H151	H	1.408805	0.583751	0.404543
H152	H	1.908805	1.083751	0.904543
H153	H	0.940264	0.285393	0.221299
H154	H	1.440264	0.785393	0.721299
H155	H	1.124781	0.341886	0.438228
H156	H	1.624781	0.841886	0.938228
Br157	Br	1.142482	0.293642	0.185353
Br158	Br	1.642482	0.793642	0.685353
H159	H	1.655216	1.067737	0.247697
H160	H	2.155216	1.567737	0.747697
Br161	Br	0.920056	0.222843	0.427321
Br162	Br	1.420056	0.722843	0.927321
H163	H	0.941891	0.437580	0.342487
H164	H	1.441891	0.937580	0.842487
Br165	Br	0.923801	0.422706	0.218930
Br166	Br	1.423801	0.922706	0.718930
H167	H	1.123303	0.437588	0.343305
H168	H	1.623303	0.937588	0.843305
Br169	Br	0.923210	0.371795	0.462405
Br170	Br	1.423210	0.871795	0.962405
Br171	Br	1.691753	0.564541	0.224122
Br172	Br	2.191753	1.064541	0.724122
Br173	Br	1.142680	0.218949	0.421888
Br174	Br	1.642680	0.718949	0.921888
