data_functionalizedCrystal
_audit_creation_method	'MofGen! by Chris Wilmer'
_symmetry_space_group_name_H-M	'P1'
_symmetry_Int_Tables_number	1
_symmetry_cell_setting	triclinic
loop_
_symmetry_equiv_pos_as_xyz
  x,y,z
_cell_length_a	19.288864
_cell_length_b	27.732048
_cell_length_c	18.366186
_cell_angle_alpha	89.988789
_cell_angle_beta	89.977106
_cell_angle_gamma	82.889449
loop_
_atom_site_label
_atom_site_type_symbol
_atom_site_fract_x
_atom_site_fract_y
_atom_site_fract_z
O1	O	0.920977	0.060300	-0.060791
O2	O	1.254310	0.393633	0.272542
O3	O	1.587643	0.726966	0.605876
O4	O	0.718665	0.068434	-0.060742
O5	O	1.051999	0.401767	0.272591
O6	O	1.385332	0.735101	0.605925
O7	O	0.826104	-0.006011	-0.060754
O8	O	1.159438	0.327323	0.272579
O9	O	1.492771	0.660656	0.605913
O10	O	0.813538	0.134745	-0.060779
O11	O	1.146871	0.468078	0.272555
O12	O	1.480204	0.801411	0.605888
O13	O	0.826086	-0.006014	0.060345
O14	O	1.159420	0.327319	0.393679
O15	O	1.492753	0.660652	0.727012
O16	O	0.718647	0.068430	0.060357
O17	O	1.051980	0.401764	0.393691
O18	O	1.385314	0.735097	0.727024
O19	O	0.920959	0.060296	0.060309
O20	O	1.254292	0.393629	0.393642
O21	O	1.587625	0.726963	0.726975
Zn22	Zn	0.819800	0.064363	0.079560
Zn23	Zn	1.153133	0.397696	0.412893
Zn24	Zn	1.486467	0.731029	0.746227
Zn25	Zn	0.819824	0.064368	-0.079994
Zn26	Zn	1.153157	0.397701	0.253340
Zn27	Zn	1.486490	0.731034	0.586673
O28	O	0.813520	0.134741	0.060321
O29	O	1.146853	0.468074	0.393654
O30	O	1.480186	0.801408	0.726987
C31	C	0.692781	0.068171	-0.000186
C32	C	1.026115	0.401504	0.333147
C33	C	1.359448	0.734837	0.666481
C34	C	0.615683	0.067385	-0.000167
C35	C	0.949016	0.400718	0.333167
C36	C	1.282349	0.734052	0.666500
C37	C	0.570714	0.111066	-0.000186
C38	C	0.904047	0.444399	0.333147
C39	C	1.237381	0.777732	0.666481
C40	C	0.498271	0.110328	-0.000194
C41	C	0.831605	0.443661	0.333140
C42	C	1.164938	0.776994	0.666473
C43	C	0.470801	0.065906	-0.000197
C44	C	0.804134	0.399239	0.333136
C45	C	1.137468	0.732573	0.666469
C46	C	0.515780	0.022219	-0.000174
C47	C	0.849113	0.355553	0.333159
C48	C	1.182446	0.688886	0.666493
C49	C	0.588220	0.022959	-0.000159
C50	C	0.921554	0.356292	0.333175
C51	C	1.254887	0.689626	0.666508
C52	C	0.362763	0.030987	-0.042642
C53	C	0.696097	0.364320	0.290691
C54	C	1.029430	0.697654	0.624025
C55	C	0.290323	0.030250	-0.042662
C56	C	0.623657	0.363583	0.290672
C57	C	0.956990	0.696916	0.624005
C58	C	0.247370	0.063624	-0.000241
C59	C	0.580703	0.396957	0.333092
C60	C	0.914036	0.730290	0.666426
C61	C	0.276863	0.097744	0.042190
C62	C	0.610197	0.431077	0.375524
C63	C	0.943530	0.764410	0.708857
C64	C	0.349304	0.098483	0.042206
C65	C	0.682637	0.431816	0.375539
C66	C	1.015971	0.765150	0.708872
C67	C	0.392252	0.065099	-0.000213
C68	C	0.725585	0.398433	0.333120
C69	C	1.058919	0.731766	0.666453
C70	C	0.123850	0.106507	-0.000268
C71	C	0.457183	0.439841	0.333066
C72	C	0.790517	0.773174	0.666399
C73	C	0.051406	0.105767	-0.000271
C74	C	0.384740	0.439101	0.333062
C75	C	0.718073	0.772434	0.666396
C76	C	0.068916	0.017658	-0.000258
C77	C	0.402250	0.350991	0.333075
C78	C	0.735583	0.684325	0.666408
C79	C	0.141358	0.018399	-0.000248
C80	C	0.474691	0.351732	0.333086
C81	C	0.808025	0.685066	0.666419
C82	C	0.168820	0.062825	-0.000256
C83	C	0.502154	0.396159	0.333078
C84	C	0.835487	0.729492	0.666411
C85	C	0.825831	-0.024020	-0.000202
C86	C	1.159165	0.309313	0.333131
C87	C	1.492498	0.642646	0.666464
C88	C	0.825037	-0.077678	-0.000196
C89	C	1.158371	0.255656	0.333137
C90	C	1.491704	0.588989	0.666470
C91	C	0.883526	-0.416316	-0.000248
C92	C	1.216859	-0.082983	0.333086
C93	C	1.550193	0.250351	0.666419
C94	C	0.880579	-0.617985	-0.000257
C95	C	1.213912	-0.284651	0.333076
C96	C	1.547245	0.048682	0.666410
O97	O	0.934063	-0.649079	-0.000302
O98	O	1.267396	-0.315745	0.333031
O99	O	1.600729	0.017588	0.666365
N100	N	0.816872	-0.637301	-0.000241
N101	N	1.150205	-0.303967	0.333092
N102	N	1.483539	0.029366	0.666426
C103	C	0.753897	-0.606196	-0.000227
C104	C	1.087231	-0.272863	0.333106
C105	C	1.420564	0.060470	0.666439
O106	O	0.699643	-0.627253	-0.000222
O107	O	1.032976	-0.293920	0.333112
O108	O	1.366310	0.039413	0.666445
C109	C	0.756845	-0.404529	-0.000223
C110	C	1.090178	-0.071195	0.333110
C111	C	1.423512	0.262138	0.666443
C112	C	0.820556	-0.385216	-0.000232
C113	C	1.153890	-0.051882	0.333101
C114	C	1.487223	0.281451	0.666435
C115	C	0.947232	-0.397002	-0.000257
C116	C	1.280565	-0.063669	0.333076
C117	C	1.613898	0.269664	0.666410
C118	C	0.947968	-0.346588	-0.000251
C119	C	1.281301	-0.013255	0.333083
C120	C	1.614635	0.320079	0.666416
C121	C	0.884998	-0.315488	-0.000235
C122	C	1.218331	0.017846	0.333098
C123	C	1.551665	0.351179	0.666432
C124	C	0.821292	-0.334801	-0.000226
C125	C	1.154626	-0.001468	0.333108
C126	C	1.487959	0.331865	0.666441
C127	C	0.693871	-0.373425	-0.000215
C128	C	1.027205	-0.040092	0.333119
C129	C	1.360538	0.293241	0.666452
C130	C	0.694614	-0.323006	-0.000216
C131	C	1.027947	0.010328	0.333118
C132	C	1.361281	0.343661	0.666451
C133	C	0.758325	-0.303693	-0.000224
C134	C	1.091658	0.029641	0.333109
C135	C	1.424992	0.362974	0.666442
C136	C	0.759059	-0.253287	-0.000203
C137	C	1.092392	0.080047	0.333130
C138	C	1.425725	0.413380	0.666463
N139	N	0.822766	-0.233971	-0.000219
N140	N	1.156099	0.099363	0.333114
N141	N	1.489432	0.432696	0.666447
C142	C	0.885735	-0.265071	-0.000235
C143	C	1.219069	0.068262	0.333098
C144	C	1.552402	0.401596	0.666431
C145	C	0.752354	-0.712075	-0.000228
C146	C	1.085687	-0.378742	0.333105
C147	C	1.419021	-0.045408	0.666438
C148	C	0.751617	-0.762492	-0.000228
C149	C	1.084950	-0.429158	0.333105
C150	C	1.418284	-0.095825	0.666439
C151	C	0.878299	-0.774276	-0.000259
C152	C	1.211632	-0.440943	0.333074
C153	C	1.544965	-0.107610	0.666408
C154	C	0.879035	-0.723859	-0.000254
C155	C	1.212368	-0.390526	0.333079
C156	C	1.545702	-0.057192	0.666413
C157	C	0.816061	-0.692759	-0.000244
C158	C	1.149394	-0.359426	0.333089
C159	C	1.482728	-0.026092	0.666422
C160	C	0.887276	-0.159197	-0.000221
C161	C	1.220610	0.174136	0.333112
C162	C	1.553943	0.507469	0.666445
C163	C	0.888007	-0.108778	-0.000212
C164	C	1.221340	0.224555	0.333121
C165	C	1.554674	0.557889	0.666455
C166	C	0.761325	-0.096998	-0.000185
C167	C	1.094659	0.236336	0.333149
C168	C	1.427992	0.569669	0.666482
C169	C	0.760595	-0.147412	-0.000190
C170	C	1.093928	0.185921	0.333143
C171	C	1.427261	0.519254	0.666476
C172	C	0.823576	-0.178511	-0.000211
C173	C	1.156909	0.154822	0.333122
C174	C	1.490242	0.488155	0.666456
O175	O	0.705603	-0.222164	-0.000167
O176	O	1.038937	0.111169	0.333166
O177	O	1.372270	0.444502	0.666500
O178	O	0.939982	-0.244005	-0.000257
O179	O	1.273315	0.089329	0.333076
O180	O	1.606648	0.422662	0.666409
C181	C	0.882790	-0.466730	-0.000254
C182	C	1.216123	-0.133397	0.333079
C183	C	1.549456	0.199936	0.666413
C184	C	0.819084	-0.486044	-0.000245
C185	C	1.152417	-0.152711	0.333089
C186	C	1.485751	0.180623	0.666422
C187	C	0.756114	-0.454943	-0.000229
C188	C	1.089448	-0.121610	0.333105
C189	C	1.422781	0.211723	0.666438
C190	C	0.818347	-0.536461	-0.000244
C191	C	1.151680	-0.203127	0.333089
C192	C	1.485013	0.130206	0.666422
C193	C	0.881317	-0.567561	-0.000260
C194	C	1.214650	-0.234228	0.333073
C195	C	1.547983	0.099106	0.666407
C196	C	0.945023	-0.548245	-0.000276
C197	C	1.278357	-0.214911	0.333057
C198	C	1.611690	0.118422	0.666391
C199	C	0.945760	-0.497831	-0.000270
C200	C	1.279093	-0.164497	0.333064
C201	C	1.612426	0.168836	0.666397
C202	C	0.692407	-0.474260	-0.000213
C203	C	1.025741	-0.140926	0.333121
C204	C	1.359074	0.192407	0.666454
C205	C	0.691676	-0.524674	-0.000218
C206	C	1.025010	-0.191341	0.333115
C207	C	1.358343	0.141992	0.666448
C208	C	0.754646	-0.555775	-0.000234
C209	C	1.087979	-0.222441	0.333099
C210	C	1.421313	0.110892	0.666433
C211	C	0.946842	0.060560	-0.000249
C212	C	1.280176	0.393893	0.333084
C213	C	1.613509	0.727226	0.666417
C214	C	1.023941	0.061345	-0.000273
C215	C	1.357274	0.394679	0.333060
C216	C	1.690608	0.728012	0.666393
C217	C	0.813792	0.152751	-0.000233
C218	C	1.147126	0.486084	0.333101
C219	C	1.480459	0.819417	0.666434
C220	C	0.814587	0.206408	-0.000244
C221	C	1.147920	0.539741	0.333090
C222	C	1.481253	0.873075	0.666423
N223	N	0.819789	0.064359	0.188451
N224	N	1.153122	0.397692	0.521785
N225	N	1.486455	0.731026	0.855118
N226	N	0.819841	0.064367	-0.188885
N227	N	1.153174	0.397701	0.144449
N228	N	1.486507	0.731034	0.477782
C229	C	0.867378	0.031411	0.226546
C230	C	1.200711	0.364744	0.559880
C231	C	1.534045	0.698078	0.893213
C232	C	0.867383	0.031409	0.302774
C233	C	1.200716	0.364742	0.636107
C234	C	1.534049	0.698076	0.969441
C235	C	0.819804	0.064363	0.340904
C236	C	1.153138	0.397696	0.674237
C237	C	1.486471	0.731030	1.007571
C238	C	0.772206	0.097314	0.302800
C239	C	1.105539	0.430647	0.636133
C240	C	1.438873	0.763980	0.969466
C241	C	0.772198	0.097312	0.226573
C242	C	1.105532	0.430645	0.559907
C243	C	1.438865	0.763978	0.893240
C244	C	0.810231	0.108406	0.461658
C245	C	1.143565	0.441739	0.794991
C246	C	1.476898	0.775073	1.128325
C247	C	0.810244	0.108409	0.537883
C248	C	1.143577	0.441742	0.871216
C249	C	1.476910	0.775075	1.204550
C250	C	0.819824	0.064369	0.576011
C251	C	1.153157	0.397703	0.909345
C252	C	1.486491	0.731036	1.242678
C253	C	0.829406	0.020325	0.537906
C254	C	1.162740	0.353659	0.871239
C255	C	1.496073	0.686992	1.204572
C256	C	0.829398	0.020323	0.461679
C257	C	1.162732	0.353657	0.795013
C258	C	1.496065	0.686990	1.128346
C259	C	0.819807	0.064369	0.423559
C260	C	1.153140	0.397702	0.756892
C261	C	1.486474	0.731035	1.090225
C262	C	0.867421	0.031416	0.696761
C263	C	1.200754	0.364749	1.030095
C264	C	1.534087	0.698083	1.363428
C265	C	0.867420	0.031413	0.772991
C266	C	1.200754	0.364747	1.106324
C267	C	1.534087	0.698080	1.439657
C268	C	0.772247	0.097322	0.773015
C269	C	1.105580	0.430656	1.106348
C270	C	1.438914	0.763989	1.439681
C271	C	0.772244	0.097321	0.696787
C272	C	1.105577	0.430654	1.030120
C273	C	1.438911	0.763988	1.363454
C274	C	0.819835	0.064368	0.658665
C275	C	1.153168	0.397702	0.991998
C276	C	1.486501	0.731035	1.325332
H277	H	0.397731	0.003809	-0.077191
H278	H	0.731064	0.337142	0.256143
H279	H	1.064398	0.670475	0.589476
H280	H	0.146211	0.142682	-0.000263
H281	H	0.479544	0.476015	0.333070
H282	H	0.812877	0.809348	0.666403
F283	F	0.955820	-0.088227	-0.000222
F284	F	1.289153	0.245106	0.333112
F285	F	1.622486	0.578440	0.666445
F286	F	0.954308	-0.192288	-0.000244
F287	F	1.287641	0.141045	0.333090
F288	F	1.620975	0.474378	0.666423
F289	F	0.918070	-0.003659	0.813536
F290	F	1.251403	0.329675	1.146869
F291	F	1.584736	0.663008	1.480202
F292	F	1.014259	-0.430095	-0.000274
F293	F	1.347592	-0.096762	0.333059
F294	F	1.680926	0.236572	0.666392
F295	F	0.003547	0.152261	-0.000288
F296	F	0.336880	0.485595	0.333046
F297	F	0.670213	0.818928	0.666379
H298	H	0.906127	0.004578	0.195509
H299	H	1.239461	0.337911	0.528843
H300	H	1.572794	0.671245	0.862176
F301	F	0.039685	-0.029619	-0.000255
F302	F	0.373018	0.303714	0.333078
F303	F	0.706352	0.637047	0.666412
F304	F	0.692787	-0.167968	-0.000168
F305	F	1.026120	0.165366	0.333165
F306	F	1.359453	0.498699	0.666499
F307	F	0.625382	-0.441166	-0.000198
F308	F	0.958716	-0.107833	0.333135
F309	F	1.292049	0.225501	0.666469
H310	H	0.906137	0.004578	0.333797
H311	H	1.239470	0.337911	0.667130
H312	H	1.572803	0.671244	1.000463
F313	F	0.626060	-0.393969	-0.000209
F314	F	0.959393	-0.060635	0.333125
F315	F	1.292727	0.272698	0.666458
H316	H	0.639791	-0.540394	-0.000205
H317	H	0.973125	-0.207060	0.333129
H318	H	1.306458	0.126273	0.666462
H319	H	0.997640	-0.482111	-0.000277
H320	H	1.330973	-0.148778	0.333056
H321	H	1.664306	0.184556	0.666390
F322	F	0.721606	0.132392	0.813592
F323	F	1.054940	0.465725	1.146925
F324	F	1.388273	0.799058	1.480258
F325	F	1.012041	-0.581353	-0.000289
F326	F	1.345374	-0.248020	0.333044
F327	F	1.678707	0.085314	0.666378
F328	F	0.627586	-0.289909	-0.000207
F329	F	0.960919	0.043424	0.333127
F330	F	1.294253	0.376757	0.666460
F331	F	0.599937	0.158348	-0.000192
F332	F	0.933270	0.491681	0.333141
F333	F	1.266604	0.825015	0.666474
F334	F	0.380691	0.134794	0.087365
F335	F	0.714024	0.468127	0.420698
F336	F	1.047358	0.801460	0.754031
F337	F	0.694312	-0.063890	-0.000168
F338	F	1.027645	0.269444	0.333166
F339	F	1.360979	0.602777	0.666499
H340	H	0.837199	-0.015539	0.430657
H341	H	1.170532	0.317795	0.763990
H342	H	1.503866	0.651128	1.097323
F343	F	0.946844	-0.703309	-0.000263
F344	F	1.280178	-0.369976	0.333070
F345	F	1.613511	-0.036642	0.666403
F346	F	0.721596	0.132391	0.656240
F347	F	1.054929	0.465724	0.989574
F348	F	1.388263	0.799058	1.322907
H349	H	0.493409	-0.013949	-0.000187
H350	H	0.826742	0.319384	0.333147
H351	H	1.160075	0.652718	0.666480
F352	F	0.450404	0.156821	-0.000212
F353	F	0.783737	0.490154	0.333121
F354	F	1.117070	0.823487	0.666454
F355	F	1.015778	-0.326040	-0.000276
F356	F	1.349112	0.007293	0.333058
F357	F	1.682445	0.340626	0.666391
F358	F	0.839607	-0.026548	0.578478
F359	F	1.172941	0.306785	0.911812
F360	F	1.506274	0.640118	1.245145
F361	F	0.918068	-0.003657	0.656188
F362	F	1.251401	0.329676	0.989522
F363	F	1.584734	0.663010	1.322855
F364	F	0.800050	0.155283	0.578431
F365	F	1.133384	0.488617	0.911764
F366	F	1.466717	0.821950	1.245097
F367	F	0.636082	-0.023534	-0.000138
F368	F	0.969415	0.309799	0.333195
F369	F	1.302748	0.643132	0.666528
F370	F	0.685324	-0.678981	-0.000218
F371	F	1.018657	-0.345648	0.333115
F372	F	1.351990	-0.012315	0.666449
H373	H	0.929571	-0.799607	-0.000271
H374	H	1.262904	-0.466274	0.333062
H375	H	1.596238	-0.132941	0.666395
F376	F	0.189219	-0.028093	-0.000231
F377	F	0.522553	0.305241	0.333102
F378	F	0.855886	0.638574	0.666436
F379	F	0.800085	0.155283	0.421086
F380	F	1.133418	0.488616	0.754419
F381	F	1.466751	0.821949	1.087753
F382	F	0.721567	0.132385	0.343381
F383	F	1.054901	0.465718	0.676714
F384	F	1.388234	0.799051	1.010047
H385	H	0.733444	0.124142	0.195556
H386	H	1.066778	0.457476	0.528889
H387	H	1.400111	0.790809	0.862222
H388	H	0.241891	0.124920	0.076734
H389	H	0.575225	0.458253	0.410067
H390	H	0.908558	0.791587	0.743401
F391	F	0.683807	-0.783040	-0.000206
F392	F	1.017140	-0.449707	0.333128
F393	F	1.350474	-0.116374	0.666461
H394	H	0.266315	0.002469	-0.077215
H395	H	0.599649	0.335802	0.256119
H396	H	0.932982	0.669136	0.589452
