data_functionalizedCrystal
_audit_creation_method	'MofGen! by Chris Wilmer'
_symmetry_space_group_name_H-M	'P1'
_symmetry_Int_Tables_number	1
_symmetry_cell_setting	triclinic
loop_
_symmetry_equiv_pos_as_xyz
  x,y,z
_cell_length_a	17.038272
_cell_length_b	15.500235
_cell_length_c	10.723024
_cell_angle_alpha	92.869154
_cell_angle_beta	92.210287
_cell_angle_gamma	93.030811
loop_
_atom_site_label
_atom_site_type_symbol
_atom_site_fract_x
_atom_site_fract_y
_atom_site_fract_z
O1	O	1.042454	0.071832	-0.265700
O2	O	1.542454	0.571832	0.234300
O3	O	0.814800	0.071857	-0.261393
O4	O	1.314800	0.571857	0.238607
O5	O	0.933878	0.071841	-0.082456
O6	O	1.433878	0.571841	0.417544
O7	O	0.923376	0.071848	-0.444637
O8	O	1.423376	0.571848	0.055363
O9	O	0.926680	-0.072047	-0.093314
O10	O	1.426680	0.427953	0.406686
O11	O	0.807603	-0.072030	-0.272251
O12	O	1.307603	0.427970	0.227749
O13	O	1.035256	-0.072056	-0.276558
O14	O	1.535256	0.427944	0.223442
Cu15	Cu	0.920772	-0.085181	-0.275395
Cu16	Cu	1.420772	0.414819	0.224605
Cu17	Cu	0.929284	0.084983	-0.262555
Cu18	Cu	1.429284	0.584983	0.237445
O19	O	0.916178	-0.072039	-0.455494
O20	O	1.416178	0.427961	0.044506
C21	C	0.782052	-0.000083	-0.262906
C22	C	1.282052	0.499917	0.237094
C23	C	0.695195	-0.000073	-0.251223
C24	C	1.195195	0.499927	0.248777
N25	N	0.914791	-0.204865	-0.284426
N26	N	1.414791	0.295135	0.215574
C27	C	0.645674	-0.000072	-0.358479
C28	C	1.145674	0.499928	0.141521
C29	C	0.564062	-0.000084	-0.347495
C30	C	1.064062	0.499916	0.152505
C31	C	0.531973	-0.000092	-0.229255
C32	C	1.031973	0.499908	0.270745
C33	C	0.581500	-0.000096	-0.121992
C34	C	1.081500	0.499904	0.378008
C35	C	0.663110	-0.000090	-0.132977
C36	C	1.163110	0.499910	0.367023
C37	C	0.285999	-0.000115	-0.190449
C38	C	0.785999	0.499885	0.309551
C39	C	0.204383	-0.000119	-0.179472
C40	C	0.704383	0.499881	0.320528
C41	C	0.186950	-0.000109	-0.404976
C42	C	0.686950	0.499891	0.095024
C43	C	0.268562	-0.000098	-0.415950
C44	C	0.768562	0.499902	0.084050
C45	C	0.318083	-0.000106	-0.308687
C46	C	0.818083	0.499894	0.191313
C47	C	0.448553	-0.000101	-0.218026
C48	C	0.948553	0.499899	0.281974
C49	C	0.401501	-0.000103	-0.319918
C50	C	0.901501	0.499897	0.180082
C51	C	0.884803	-0.750048	-0.329314
C52	C	1.384803	-0.250048	0.170686
C53	C	0.889344	-0.659476	-0.322510
C54	C	1.389344	-0.159476	0.177490
C55	C	0.944358	-0.614191	-0.239912
C56	C	1.444358	-0.114191	0.260088
C57	C	0.994829	-0.659482	-0.164105
C58	C	1.494829	-0.159482	0.335895
C59	C	0.990284	-0.750053	-0.170903
C60	C	1.490284	-0.250053	0.329097
C61	C	0.960717	-0.340727	-0.215417
C62	C	1.460717	0.159273	0.284583
C63	C	0.965260	-0.250150	-0.208627
C64	C	1.465260	0.249850	0.291373
C65	C	0.859773	-0.250150	-0.367032
C66	C	1.359773	0.249850	0.132968
C67	C	0.855235	-0.340723	-0.373828
C68	C	1.355235	0.159277	0.126172
C69	C	0.905704	-0.386006	-0.298016
C70	C	1.405704	0.113994	0.201984
C71	C	0.949002	-0.521612	-0.232958
C72	C	1.449002	-0.021612	0.267042
C73	C	0.901055	-0.478583	-0.304964
C74	C	1.401055	0.021417	0.195036
C75	C	1.068005	-0.000113	-0.275045
C76	C	1.568005	0.499887	0.224955
C77	C	1.154862	-0.000117	-0.286727
C78	C	1.654862	0.499883	0.213273
C79	C	0.929515	-0.000102	-0.041315
C80	C	1.429515	0.499898	0.458685
C81	C	0.927228	-0.000099	0.097451
C82	C	1.427228	0.499901	0.597451
N83	N	0.935272	0.204667	-0.253515
N84	N	1.435272	0.704667	0.246485
C85	C	0.920541	-0.000095	-0.496636
C86	C	1.420541	0.499905	0.003364
C87	C	0.922828	-0.000092	-0.635401
C88	C	1.422828	0.499908	-0.135401
C89	C	0.993858	-0.000105	0.166270
C90	C	1.493858	0.499895	0.666270
C91	C	0.991496	-0.000101	0.309692
C92	C	1.491496	0.499899	0.809692
H93	H	0.671793	-0.000065	-0.454762
H94	H	1.171793	0.499935	0.045238
H95	H	0.868436	-0.000086	0.144713
H96	H	1.368436	0.499914	0.644713
H97	H	0.326309	-0.000123	-0.103107
H98	H	0.826309	0.499877	0.396893
H99	H	0.146622	-0.000103	-0.492303
H100	H	0.646622	0.499897	0.007697
H101	H	0.523744	-0.000082	-0.434835
H102	H	1.023744	0.499918	0.065165
H103	H	0.178260	-0.000124	-0.083182
H104	H	0.678260	0.499876	0.416818
H105	H	1.048536	-0.000111	0.368848
H106	H	1.548536	0.499889	0.868848
H107	H	0.818683	-0.213272	-0.428753
H108	H	1.318683	0.286728	0.071247
H109	H	0.865785	-0.000093	0.305450
H110	H	1.365785	0.499907	0.805450
H111	H	0.810438	-0.377592	-0.441086
H112	H	1.310438	0.122408	0.058914
H113	H	0.555367	-0.000114	-0.025719
H114	H	1.055367	0.499886	0.474281
H115	H	0.294683	-0.000081	-0.512233
H116	H	0.794683	0.499919	-0.012233
H117	H	0.703430	-0.000090	-0.045638
H118	H	1.203430	0.499910	0.454362
H119	H	0.427631	-0.000101	-0.416189
H120	H	0.927631	0.499899	0.083811
H121	H	1.001812	-0.377589	-0.153690
H122	H	1.501812	0.122411	0.346310
H123	H	1.052650	-0.000117	0.119009
H124	H	1.552650	0.499883	0.619009
H125	H	0.422416	-0.000132	-0.121756
H126	H	0.922416	0.499868	0.378244
H127	H	0.840008	-0.786914	-0.396580
H128	H	1.340008	-0.286914	0.103420
H129	H	0.848247	-0.622606	-0.384231
H130	H	1.348247	-0.122606	0.115769
H131	H	1.010062	-0.213282	-0.141362
H132	H	1.510062	0.286718	0.358638
H133	H	1.031380	-0.786923	-0.109178
H134	H	1.531380	-0.286923	0.390822
H135	H	0.856259	-0.515457	-0.372211
H136	H	1.356259	-0.015457	0.127789
H137	H	1.039621	-0.622605	-0.096845
H138	H	1.539621	-0.122605	0.403155
H139	H	0.993798	-0.484733	-0.165708
H140	H	1.493798	0.015267	0.334292
