data_functionalizedCrystal
_audit_creation_method	'MofGen! by Chris Wilmer'
_symmetry_space_group_name_H-M	'P1'
_symmetry_Int_Tables_number	1
_symmetry_cell_setting	triclinic
loop_
_symmetry_equiv_pos_as_xyz
  x,y,z
_cell_length_a	18.050591
_cell_length_b	18.050589
_cell_length_c	18.050582
_cell_angle_alpha	89.981795
_cell_angle_beta	89.979078
_cell_angle_gamma	90.024227
loop_
_atom_site_label
_atom_site_type_symbol
_atom_site_fract_x
_atom_site_fract_y
_atom_site_fract_z
Zn1	Zn	1.135293	-0.295786	-0.420054
Zn2	Zn	1.468626	0.037548	-0.086721
Zn3	Zn	1.801959	0.370881	0.246613
Zn4	Zn	1.135203	-0.419969	-0.295873
Zn5	Zn	1.468537	-0.086636	0.037460
Zn6	Zn	1.801870	0.246698	0.370793
Zn7	Zn	1.011112	-0.295789	-0.295865
Zn8	Zn	1.344445	0.037545	0.037468
Zn9	Zn	1.677778	0.370878	0.370802
Zn10	Zn	1.011060	-0.419930	-0.420009
Zn11	Zn	1.344393	-0.086596	-0.086676
Zn12	Zn	1.677726	0.246737	0.246658
O13	O	1.073167	-0.357868	-0.357950
O14	O	1.406500	-0.024535	-0.024617
O15	O	1.739833	0.308798	0.308716
O16	O	1.239205	-0.312274	-0.403603
O17	O	1.572539	0.021059	-0.070270
O18	O	1.905872	0.354393	0.263063
O19	O	1.118727	-0.403514	-0.191948
O20	O	1.452060	-0.070181	0.141386
O21	O	1.785393	0.263153	0.474719
O22	O	1.027644	-0.191864	-0.312354
O23	O	1.360977	0.141470	0.020979
O24	O	1.694310	0.474803	0.354312
O25	O	1.239140	-0.403511	-0.312369
O26	O	1.572473	-0.070178	0.020965
O27	O	1.905806	0.263156	0.354298
O28	O	1.118879	-0.191862	-0.403595
O29	O	1.452212	0.141472	-0.070262
O30	O	1.785545	0.474805	0.263071
O31	O	1.027557	-0.312279	-0.191942
O32	O	1.360890	0.021054	0.141392
O33	O	1.694224	0.354387	0.474725
O34	O	0.907180	-0.312241	-0.312311
O35	O	1.240514	0.021092	0.021023
O36	O	1.573847	0.354426	0.354356
O37	O	1.027555	-0.403444	-0.523940
O38	O	1.360888	-0.070111	-0.190606
O39	O	1.694222	0.263223	0.142727
O40	O	0.907142	-0.403447	-0.403519
O41	O	1.240475	-0.070114	-0.070185
O42	O	1.573809	0.263220	0.263148
O43	O	1.118828	-0.312236	-0.523973
O44	O	1.452162	0.021097	-0.190639
O45	O	1.785495	0.354431	0.142694
O46	O	1.118676	-0.523888	-0.312325
O47	O	1.452010	-0.190555	0.021008
O48	O	1.785343	0.142778	0.354342
O49	O	1.027468	-0.523860	-0.403527
O50	O	1.360802	-0.190526	-0.070193
O51	O	1.694135	0.142807	0.263140
C52	C	0.880215	-0.357841	-0.357909
C53	C	1.213548	-0.024507	-0.024576
C54	C	1.546881	0.308826	0.308757
C55	C	0.797669	-0.357847	-0.357909
C56	C	1.131002	-0.024513	-0.024576
C57	C	1.464336	0.308820	0.308757
C58	C	0.598217	-0.308191	-0.308425
C59	C	0.931551	0.025142	0.024909
C60	C	1.264884	0.358475	0.358242
C61	C	0.548798	-0.375927	-0.290154
C62	C	0.882131	-0.042594	0.043180
C63	C	1.215464	0.290739	0.376513
C64	C	0.646539	-0.357869	-0.357943
C65	C	0.979872	-0.024536	-0.024610
C66	C	1.313205	0.308797	0.308724
C67	C	0.548877	-0.290157	-0.376212
C68	C	0.882210	0.043176	-0.042879
C69	C	1.215543	0.376510	0.290455
C70	C	0.500553	-0.357885	-0.357974
C71	C	0.833887	-0.024552	-0.024641
C72	C	1.167220	0.308782	0.308693
C73	C	0.598206	-0.425641	-0.339637
C74	C	0.931539	-0.092307	-0.006303
C75	C	1.264873	0.241026	0.327030
C76	C	0.598289	-0.339825	-0.425726
C77	C	0.931622	-0.006491	-0.092393
C78	C	1.264956	0.326842	0.240940
C79	C	0.548892	-0.407607	-0.407481
C80	C	0.882225	-0.074274	-0.074148
C81	C	1.215558	0.259059	0.259186
C82	C	0.730637	-0.357859	-0.357923
C83	C	1.063970	-0.024526	-0.024590
C84	C	1.397303	0.308808	0.308744
C85	C	0.416457	-0.357903	-0.357994
C86	C	0.749790	-0.024569	-0.024660
C87	C	1.083124	0.308764	0.308673
C88	C	1.073077	-0.550820	-0.357938
C89	C	1.406410	-0.217487	-0.024605
C90	C	1.739744	0.115846	0.308729
C91	C	1.073107	-0.633366	-0.357958
C92	C	1.406440	-0.300033	-0.024624
C93	C	1.739773	0.033300	0.308709
C94	C	1.023557	-0.832828	-0.407536
C95	C	1.356890	-0.499495	-0.074202
C96	C	1.690223	-0.166161	0.259131
C97	C	1.005459	-0.882261	-0.339767
C98	C	1.338792	-0.548928	-0.006433
C99	C	1.672126	-0.215594	0.326900
C100	C	1.073180	-0.784497	-0.357967
C101	C	1.406513	-0.451163	-0.024634
C102	C	1.739846	-0.117830	0.308699
C103	C	1.091314	-0.882146	-0.425744
C104	C	1.424647	-0.548812	-0.092411
C105	C	1.757981	-0.215479	0.240922
C106	C	1.073249	-0.930482	-0.357983
C107	C	1.406582	-0.597148	-0.024649
C108	C	1.739915	-0.263815	0.308684
C109	C	1.055046	-0.832842	-0.290162
C110	C	1.388380	-0.499509	0.043171
C111	C	1.721713	-0.166175	0.376505
C112	C	1.140933	-0.832722	-0.376186
C113	C	1.474266	-0.499389	-0.042852
C114	C	1.807600	-0.166056	0.290481
C115	C	1.122861	-0.882133	-0.308370
C116	C	1.456194	-0.548799	0.024964
C117	C	1.789527	-0.215466	0.358297
C118	C	1.073138	-0.700398	-0.357959
C119	C	1.406471	-0.367065	-0.024626
C120	C	1.739805	-0.033732	0.308707
C121	C	1.073291	-1.014578	-0.357983
C122	C	1.406624	-0.681245	-0.024649
C123	C	1.739957	-0.347911	0.308684
C124	C	1.266872	-0.357897	-0.357992
C125	C	1.600206	-0.024563	-0.024659
C126	C	1.933539	0.308770	0.308675
C127	C	1.349418	-0.357909	-0.358010
C128	C	1.682751	-0.024575	-0.024676
C129	C	2.016085	0.308758	0.308657
C130	C	1.073196	-0.357835	-0.551656
C131	C	1.406529	-0.024502	-0.218323
C132	C	1.739863	0.308831	0.115011
C133	C	1.073208	-0.357821	-0.634202
C134	C	1.406542	-0.024488	-0.300868
C135	C	1.739875	0.308845	0.032465
C136	C	1.073277	-0.164163	-0.357979
C137	C	1.406610	0.169171	-0.024646
C138	C	1.739944	0.502504	0.308688
C139	C	1.073324	-0.081617	-0.357991
C140	C	1.406657	0.251716	-0.024658
C141	C	1.739991	0.585050	0.308675
C142	C	1.023612	-0.407353	-0.833635
C143	C	1.356945	-0.074019	-0.500301
C144	C	1.690278	0.259314	-0.166968
C145	C	1.091367	-0.425511	-0.883034
C146	C	1.424700	-0.092177	-0.549701
C147	C	1.758034	0.241156	-0.216368
C148	C	1.073245	-0.357765	-0.785332
C149	C	1.406578	-0.024431	-0.451999
C150	C	1.739912	0.308902	-0.118666
C151	C	1.005527	-0.339586	-0.883014
C152	C	1.338860	-0.006253	-0.549681
C153	C	1.672194	0.327081	-0.216348
C154	C	1.073274	-0.357711	-0.931317
C155	C	1.406608	-0.024378	-0.597984
C156	C	1.739941	0.308955	-0.264651
C157	C	1.141036	-0.375958	-0.833645
C158	C	1.474369	-0.042625	-0.500312
C159	C	1.807702	0.290708	-0.166978
C160	C	1.055150	-0.290002	-0.833620
C161	C	1.388483	0.043331	-0.500287
C162	C	1.721816	0.376665	-0.166954
C163	C	1.122952	-0.308134	-0.882998
C164	C	1.456285	0.025199	-0.549665
C165	C	1.789619	0.358532	-0.216331
C166	C	1.073227	-0.357797	-0.701234
C167	C	1.406560	-0.024464	-0.367901
C168	C	1.739894	0.308869	-0.034567
C169	C	1.073300	-0.357679	-1.015414
C170	C	1.406633	-0.024345	-0.682081
C171	C	1.739967	0.308988	-0.348747
C172	C	1.073181	-0.357848	-0.164998
C173	C	1.406514	-0.024514	0.168335
C174	C	1.739847	0.308819	0.501668
C175	C	1.073312	-0.357652	-0.082453
C176	C	1.406645	-0.024319	0.250880
C177	C	1.739979	0.309014	0.584214
H178	H	0.527169	-0.232894	-0.391625
H179	H	0.860502	0.100439	-0.058292
H180	H	1.193835	0.433772	0.275041
H181	H	1.039807	-0.232736	-0.811899
H182	H	1.373141	0.100598	-0.478566
H183	H	1.706474	0.433931	-0.145232
H184	H	0.981678	-0.449342	-0.811961
H185	H	1.315012	-0.116009	-0.478628
H186	H	1.648345	0.217324	-0.145294
C187	C	1.111999	-0.911403	-0.503170
C188	C	1.445332	-0.578070	-0.169837
C189	C	1.778666	-0.244736	0.163497
N190	N	1.127574	-0.933436	-0.561489
N191	N	1.460907	-0.600103	-0.228155
N192	N	1.794240	-0.266770	0.105178
H193	H	0.620045	-0.324530	-0.483019
H194	H	0.953378	0.008804	-0.149686
H195	H	1.286711	0.342137	0.183648
H196	H	0.981531	-0.811178	-0.449395
H197	H	1.314864	-0.477845	-0.116062
H198	H	1.648197	-0.144512	0.217272
C199	C	0.928093	-0.911658	-0.318952
C200	C	1.261427	-0.578324	0.014381
C201	C	1.594760	-0.244991	0.347714
N202	N	0.869820	-0.933797	-0.303280
N203	N	1.203154	-0.600464	0.030054
N204	N	1.536487	-0.267130	0.363387
C205	C	1.179591	-0.911202	-0.251684
C206	C	1.512924	-0.577869	0.081649
C207	C	1.846257	-0.244535	0.414983
N208	N	1.222316	-0.933099	-0.208986
N209	N	1.555649	-0.599766	0.124347
N210	N	1.888982	-0.266433	0.457680
C211	C	0.627482	-0.251500	-0.251792
C212	C	0.960816	0.081833	0.081541
C213	C	1.294149	0.415167	0.414875
N214	N	0.649526	-0.208804	-0.209135
N215	N	0.982860	0.124529	0.124198
N216	N	1.316193	0.457863	0.457532
H217	H	1.198333	-0.391377	-0.812050
H218	H	1.531666	-0.058043	-0.478716
H219	H	1.865000	0.275290	-0.145383
C220	C	0.928143	-0.318840	-0.912308
C221	C	1.261476	0.014493	-0.578975
C222	C	1.594810	0.347826	-0.245641
N223	N	0.869856	-0.303220	-0.934369
N224	N	1.203189	0.030113	-0.601035
N225	N	1.536523	0.363447	-0.267702
C226	C	1.034269	-0.803708	-0.212715
C227	C	1.367602	-0.470375	0.120618
C228	C	1.700936	-0.137041	0.453952
N229	N	1.018616	-0.781762	-0.154384
N230	N	1.351950	-0.448429	0.178949
N231	N	1.685283	-0.115096	0.512283
H232	H	0.527060	-0.391202	-0.232844
H233	H	0.860393	-0.057868	0.100489
H234	H	1.193727	0.275465	0.433823
C235	C	1.112066	-0.502896	-0.912361
C236	C	1.445399	-0.169563	-0.579028
C237	C	1.778733	0.163771	-0.245694
N238	N	1.127651	-0.561184	-0.934448
N239	N	1.460984	-0.227851	-0.601115
N240	N	1.794318	0.105483	-0.267782
C241	C	0.627355	-0.503031	-0.318684
C242	C	0.960688	-0.169698	0.014649
C243	C	1.294022	0.163635	0.347983
N244	N	0.649312	-0.561320	-0.302899
N245	N	0.982645	-0.227987	0.030434
N246	N	1.315978	0.105347	0.363768
C247	C	0.519809	-0.464436	-0.464068
C248	C	0.853142	-0.131103	-0.130734
C249	C	1.186475	0.202231	0.202599
N250	N	0.497900	-0.507242	-0.506685
N251	N	0.831233	-0.173908	-0.173351
N252	N	1.164567	0.159425	0.159982
C253	C	1.218271	-0.803291	-0.397035
C254	C	1.551604	-0.469958	-0.063701
C255	C	1.884937	-0.136624	0.269632
N256	N	1.276520	-0.781117	-0.412748
N257	N	1.609853	-0.447784	-0.079415
N258	N	1.943186	-0.114451	0.253918
C259	C	1.179736	-0.251451	-0.912097
C260	C	1.513070	0.081882	-0.578763
C261	C	1.846403	0.415216	-0.245430
N262	N	1.222508	-0.208760	-0.934015
N263	N	1.555842	0.124573	-0.600682
N264	N	1.889175	0.457907	-0.267348
