data_functionalizedCrystal
_audit_creation_method	'MofGen! by Chris Wilmer'
_symmetry_space_group_name_H-M	'P1'
_symmetry_Int_Tables_number	1
_symmetry_cell_setting	triclinic
loop_
_symmetry_equiv_pos_as_xyz
  x,y,z
_cell_length_a	14.853558
_cell_length_b	14.853569
_cell_length_c	17.766277
_cell_angle_alpha	89.992474
_cell_angle_beta	89.991167
_cell_angle_gamma	83.633349
loop_
_atom_site_label
_atom_site_type_symbol
_atom_site_fract_x
_atom_site_fract_y
_atom_site_fract_z
O1	O	1.196377	0.117666	-0.062587
O2	O	0.933916	0.131696	-0.062591
O3	O	1.072156	-0.006549	-0.062582
O4	O	1.058137	0.255911	-0.062596
O5	O	1.072132	-0.006556	0.062607
O6	O	0.933892	0.131689	0.062598
O7	O	1.196352	0.117659	0.062601
Cu8	Cu	1.065120	0.124673	0.074030
Cu9	Cu	1.065149	0.124681	-0.074020
O10	O	1.058112	0.255903	0.062592
C11	C	0.900315	0.131058	0.000003
C12	C	0.800231	0.129158	0.000002
C13	C	0.753224	0.128270	-0.068241
C14	C	0.753196	0.128252	0.068244
C15	C	0.659162	0.126461	0.068245
C16	C	0.612155	0.125574	0.000002
C17	C	0.659182	0.126477	-0.068242
C18	C	0.612130	0.125549	0.136489
C19	C	0.518090	0.123757	0.136493
C20	C	0.471081	0.122876	0.068249
C21	C	0.518113	0.123780	0.000002
C22	C	0.471106	0.122893	-0.068241
C23	C	0.518136	0.123804	-0.136489
C24	C	0.612173	0.125596	-0.136486
C25	C	0.377045	0.121084	0.068245
C26	C	0.377064	0.121100	-0.068242
C27	C	1.071509	-0.040141	0.000013
C28	C	1.069604	-0.140225	0.000014
C29	C	0.986593	-0.176599	0.000014
C30	C	1.150826	-0.197894	0.000008
C31	C	1.149040	-0.291928	0.000005
C32	C	1.066029	-0.328302	0.000005
C33	C	0.984804	-0.270641	0.000008
C34	C	1.230263	-0.349595	-0.000006
C35	C	1.228480	-0.443635	-0.000010
C36	C	1.145468	-0.480011	-0.000005
C37	C	1.064240	-0.422344	-0.000001
C38	C	0.981229	-0.458718	-0.000001
C39	C	0.900000	-0.401053	0.000009
C40	C	0.901792	-0.307017	0.000014
C41	C	1.143675	-0.574047	-0.000010
C42	C	0.979439	-0.552760	-0.000006
C43	C	1.229953	0.118296	0.000006
C44	C	1.330038	0.120197	0.000002
C45	C	1.058760	0.289496	-0.000004
C46	C	1.060664	0.389579	-0.000010
N47	N	1.065106	0.124666	0.178161
N48	N	1.065170	0.124681	-0.178150
C49	C	1.126339	0.063482	0.217552
C50	C	1.126344	0.063478	0.296353
C51	C	1.065125	0.124674	0.335761
C52	C	1.003881	0.185863	0.296361
C53	C	1.003872	0.185859	0.217560
C54	C	1.053416	0.206766	0.460595
C55	C	1.053432	0.206771	0.539393
C56	C	1.065149	0.124685	0.578808
C57	C	1.076870	0.042590	0.539413
C58	C	1.076861	0.042587	0.460613
C59	C	1.065128	0.124684	0.421207
C60	C	1.126391	0.063490	0.703644
C61	C	1.126390	0.063485	0.782448
C62	C	1.003931	0.185878	0.782453
C63	C	1.003928	0.185876	0.703652
C64	C	1.065163	0.124683	0.664252
H65	H	0.338756	0.120351	0.123812
H66	H	1.176250	0.013656	0.814520
H67	H	1.176209	0.013652	0.328431
N68	N	1.040783	0.295309	0.581880
H69	H	1.090930	0.332998	0.568148
H70	H	0.980346	0.329320	0.568155
H71	H	1.086402	-0.024257	0.428541
H72	H	0.911841	-0.582368	0.000001
N73	N	1.089514	-0.045954	0.581911
H74	H	1.087738	-0.033499	0.637808
H75	H	1.039349	-0.083591	0.568150
N76	N	1.319790	-0.310363	-0.000002
H77	H	1.370974	-0.361159	-0.000010
H78	H	1.324111	-0.271794	-0.046406
H79	H	0.791520	0.129015	-0.123807
H80	H	1.209811	-0.620993	-0.000025
H81	H	0.791476	0.128967	0.123804
N82	N	1.192415	-0.002510	0.661129
H83	H	1.256415	0.007978	0.674822
H84	H	1.181873	-0.066487	0.674863
H85	H	1.176198	0.013653	0.185475
H86	H	0.650411	0.126263	0.192048
N87	N	0.810468	-0.440288	0.000002
H88	H	0.821666	-0.508610	-0.000006
H89	H	0.774914	-0.419222	0.046415
N90	N	0.814187	-0.244824	0.000042
H91	H	0.827919	-0.179733	0.000048
H92	H	0.778006	-0.256592	-0.046360
N93	N	0.326375	0.120138	-0.141852
H94	H	0.294605	0.063550	-0.144895
H95	H	0.280161	0.175272	-0.144853
H96	H	0.920459	-0.129644	0.000025
N97	N	0.467368	0.122776	0.210098
H98	H	0.511496	0.122983	0.253327
H99	H	0.421539	0.178198	0.213296
H100	H	1.218411	-0.168272	0.000023
N101	N	1.316085	-0.505827	-0.000016
H102	H	1.368942	-0.468514	-0.000014
H103	H	1.318911	-0.545312	0.046394
H104	H	0.954082	0.235702	0.814539
H105	H	0.954070	0.235702	0.671577
N106	N	1.040779	0.295307	0.418087
H107	H	1.033366	0.347312	0.454998
H108	H	1.095551	0.300663	0.385382
N109	N	0.937846	0.251864	0.338859
H110	H	0.947145	0.242584	0.394757
H111	H	0.948331	0.315840	0.325072
N112	N	0.937822	0.251851	0.175069
H113	H	0.899036	0.290617	0.211988
H114	H	0.972377	0.291771	0.142361
H115	H	0.650473	0.126336	-0.192050
N116	N	0.467434	0.122834	-0.210093
H117	H	0.400728	0.121555	-0.199732
H118	H	0.476624	0.178996	-0.239897
