data_functionalizedCrystal
_audit_creation_method	'MofGen! by Chris Wilmer'
_symmetry_space_group_name_H-M	'P1'
_symmetry_Int_Tables_number	1
_symmetry_cell_setting	triclinic
loop_
_symmetry_equiv_pos_as_xyz
  x,y,z
_cell_length_a	30.570296
_cell_length_b	30.570259
_cell_length_c	30.569014
_cell_angle_alpha	89.999461
_cell_angle_beta	60.001567
_cell_angle_gamma	119.999808
loop_
_atom_site_label
_atom_site_type_symbol
_atom_site_fract_x
_atom_site_fract_y
_atom_site_fract_z
O1	O	0.313096	-0.372837	-0.013022
O2	O	0.223521	-0.309228	0.012944
O3	O	0.313094	-0.309219	-0.076632
O4	O	0.223523	-0.372845	0.076554
O5	O	0.385843	-0.236468	-0.076625
O6	O	0.296271	-0.236476	0.012952
O7	O	0.385846	-0.300085	-0.013014
Zn8	Zn	0.352609	-0.256730	-0.000030
Zn9	Zn	0.256758	-0.352583	-0.000040
O10	O	0.296273	-0.300094	0.076562
C11	C	0.128233	-0.080463	0.031435
C12	C	0.154309	-0.107032	0.031808
C13	C	0.049018	-0.159678	0.031439
C14	C	0.075214	-0.186126	0.031812
C15	C	0.128229	-0.159678	0.031442
C16	C	0.075218	-0.107032	0.031806
C17	C	0.134459	0.005151	0.025000
C18	C	0.163453	0.059250	0.020939
C19	C	0.217652	0.086382	0.018903
C20	C	0.249093	0.145040	0.014497
C21	C	0.242863	0.059420	0.020932
C22	C	0.213869	0.005324	0.024995
C23	C	0.159670	-0.021808	0.027027
C24	C	0.214046	-0.159473	0.025016
C25	C	0.243207	-0.184409	0.020962
C26	C	0.218173	-0.236574	0.018930
C27	C	0.249791	-0.263613	0.014531
C28	C	0.163974	-0.263813	0.020957
C29	C	0.134813	-0.238880	0.025013
C30	C	0.159851	-0.186710	0.027041
C31	C	-0.030166	-0.159472	0.025009
C32	C	-0.080203	-0.184405	0.020946
C33	C	-0.105301	-0.236570	0.018914
C34	C	-0.159557	-0.263608	0.014513
C35	C	-0.080368	-0.263807	0.020941
C36	C	-0.030332	-0.238876	0.025002
C37	C	-0.005233	-0.186709	0.027036
O38	O	-0.304549	-0.300088	-0.013023
O39	O	-0.177320	-0.236471	0.012932
O40	O	-0.177325	-0.236478	-0.076639
O41	O	-0.304544	-0.300081	0.076548
O42	O	-0.177328	-0.309235	-0.076633
O43	O	-0.177323	-0.309227	0.012938
O44	O	-0.304552	-0.372844	-0.013017
Zn45	Zn	-0.240938	-0.352588	-0.000038
Zn46	Zn	-0.240934	-0.256728	-0.000046
O47	O	-0.304547	-0.372837	0.076555
C48	C	0.128230	-0.159699	-0.400688
C49	C	0.154310	-0.107054	-0.427138
C50	C	0.049018	-0.159696	-0.321479
C51	C	0.075218	-0.107051	-0.348050
C52	C	0.128234	-0.080485	-0.400694
C53	C	0.075214	-0.186145	-0.348043
C54	C	0.134448	-0.239092	-0.400474
C55	C	0.163439	-0.264200	-0.425405
C56	C	0.217639	-0.237135	-0.477568
C57	C	0.249077	-0.264354	-0.504601
C58	C	0.242854	-0.184961	-0.504810
C59	C	0.213864	-0.159856	-0.479881
C60	C	0.159663	-0.186921	-0.427714
C61	C	0.214056	0.005127	-0.480087
C62	C	0.243222	0.059224	-0.505195
C63	C	0.218191	0.086358	-0.478131
C64	C	0.249812	0.145015	-0.505352
C65	C	0.163990	0.059399	-0.425959
C66	C	0.134825	0.005304	-0.400853
C67	C	0.159860	-0.021830	-0.427917
C68	C	-0.030172	-0.239085	-0.235863
C69	C	-0.080209	-0.264187	-0.181763
C70	C	-0.105305	-0.237118	-0.154635
C71	C	-0.159562	-0.264334	-0.095978
C72	C	-0.080368	-0.184947	-0.181596
C73	C	-0.030330	-0.159842	-0.235694
C74	C	-0.005235	-0.186914	-0.262825
C75	C	0.447871	-0.499857	-0.027240
C76	C	0.417167	-0.557557	-0.023531
C77	C	0.500885	-0.473291	-0.027607
C78	C	0.447867	-0.420647	-0.027231
C79	C	0.417157	-0.393654	-0.023513
C80	C	0.500880	-0.394201	-0.027599
C81	C	0.527079	-0.420648	-0.027232
C82	C	0.581064	-0.393657	-0.023514
C83	C	0.421793	-0.473290	-0.027607
C84	C	0.624677	-0.371851	-0.020509
C85	C	0.392360	-0.604173	-0.020533
C86	C	0.392346	-0.371848	-0.020508
C87	C	0.679392	-0.344494	-0.016741
C88	C	0.361239	-0.662654	-0.016774
C89	C	0.361220	-0.344489	-0.016739
O90	O	0.385869	0.317569	-0.013055
O91	O	0.296293	0.164384	0.012912
O92	O	0.385862	0.253949	-0.076664
O93	O	0.296300	0.228004	0.076521
O94	O	0.313109	0.253950	-0.076666
O95	O	0.223540	0.164384	0.012910
O96	O	0.313116	0.317570	-0.013057
Zn97	Zn	0.256777	0.240977	-0.000074
Zn98	Zn	0.352632	0.240976	-0.000071
O99	O	0.223547	0.228005	0.076519
O100	O	0.313136	0.317550	-0.541109
O101	O	0.223549	0.164363	-0.477494
O102	O	0.313134	0.253926	-0.477500
O103	O	0.223552	0.227988	-0.541103
O104	O	0.385874	0.253917	-0.550260
O105	O	0.296289	0.164354	-0.550254
O106	O	0.385877	0.317541	-0.613869
Zn107	Zn	0.352632	0.240946	-0.593614
Zn108	Zn	0.256794	0.240958	-0.497749
O109	O	0.296292	0.227979	-0.613863
O110	O	0.385838	-0.300126	-0.613812
O111	O	0.296279	-0.236501	-0.550217
O112	O	0.385839	-0.236507	-0.550202
O113	O	0.296279	-0.300119	-0.613828
O114	O	0.313078	-0.309259	-0.477443
O115	O	0.223519	-0.309252	-0.477459
O116	O	0.313078	-0.372877	-0.541053
Zn117	Zn	0.256746	-0.352615	-0.497704
Zn118	Zn	0.352611	-0.256763	-0.593567
O119	O	0.223518	-0.372871	-0.541069
C120	C	0.161513	-0.420675	0.338354
C121	C	0.192219	-0.393684	0.365350
C122	C	0.108500	-0.473320	0.364798
C123	C	0.161513	-0.420669	0.259137
C124	C	0.192219	-0.393672	0.201436
C125	C	0.108500	-0.473314	0.285702
C126	C	0.082304	-0.499885	0.338347
C127	C	0.028321	-0.557587	0.365337
C128	C	0.187588	-0.394224	0.285708
C129	C	-0.015292	-0.604204	0.387142
C130	C	0.217028	-0.371879	0.387160
C131	C	0.217028	-0.371862	0.154818
C132	C	-0.070006	-0.662688	0.414497
C133	C	0.248151	-0.344523	0.414522
C134	C	0.248151	-0.344499	0.096335
C135	C	-0.552144	-0.499852	0.338344
C136	C	-0.582854	-0.557554	0.365341
C137	C	-0.578220	-0.473283	0.364788
C138	C	-0.472928	-0.420641	0.259129
C139	C	-0.418939	-0.393650	0.201428
C140	C	-0.499124	-0.394192	0.285693
C141	C	-0.552141	-0.420638	0.338338
C142	C	-0.582848	-0.393643	0.365327
C143	C	-0.499128	-0.473286	0.285700
C144	C	-0.607656	-0.371834	0.387131
C145	C	-0.607666	-0.604171	0.387150
C146	C	-0.375323	-0.371844	0.154811
C147	C	-0.638779	-0.344473	0.414485
C148	C	-0.638792	-0.662654	0.414512
C149	C	-0.320604	-0.344487	0.096328
C150	C	0.082343	0.213823	0.338312
C151	C	0.028359	0.217541	0.365305
C152	C	0.108543	0.213455	0.364760
C153	C	0.161549	0.213817	0.259100
C154	C	0.192252	0.217527	0.201398
C155	C	0.187628	0.213448	0.285667
C156	C	0.161555	0.213823	0.338312
C157	C	0.192266	0.217539	0.365305
C158	C	0.108536	0.213449	0.285667
C159	C	0.217077	0.220543	0.387113
C160	C	-0.015254	0.220545	0.387112
C161	C	0.217058	0.220525	0.154781
C162	C	0.248204	0.224311	0.414471
C163	C	-0.069968	0.224314	0.414471
C164	C	0.248177	0.224286	0.096297
C165	C	0.560348	-0.080442	-0.400683
C166	C	0.534153	-0.107006	-0.427134
C167	C	0.481139	-0.159658	-0.321474
C168	C	0.455064	-0.186103	-0.348045
C169	C	0.481140	-0.159652	-0.400690
C170	C	0.534152	-0.107013	-0.348038
C171	C	0.639528	0.005168	-0.400469
C172	C	0.689566	0.059266	-0.425401
C173	C	0.714661	0.086402	-0.477564
C174	C	0.768913	0.145059	-0.504598
C175	C	0.689728	0.059444	-0.504807
C176	C	0.639696	0.005349	-0.479878
C177	C	0.614595	-0.021787	-0.427709
C178	C	0.474919	-0.159439	-0.480085
C179	C	0.445929	-0.184371	-0.505194
C180	C	0.391732	-0.236535	-0.478130
C181	C	0.360295	-0.263570	-0.505351
C182	C	0.366521	-0.263777	-0.425956
C183	C	0.395511	-0.238848	-0.400850
C184	C	0.449708	-0.186679	-0.427914
C185	C	0.474916	-0.159460	-0.235856
C186	C	0.445921	-0.184396	-0.181756
C187	C	0.391724	-0.236560	-0.154627
C188	C	0.360286	-0.263602	-0.095970
C189	C	0.366514	-0.263793	-0.181590
C190	C	0.395505	-0.238860	-0.235688
C191	C	0.449706	-0.186693	-0.262819
O192	O	-0.213281	-0.835647	0.449751
O193	O	-0.086063	-0.682462	0.386146
O194	O	-0.086057	-0.772030	0.386138
O195	O	-0.213287	-0.746079	0.449759
O196	O	-0.086056	-0.772034	0.458895
O197	O	-0.086062	-0.682467	0.458903
O198	O	-0.213280	-0.835651	0.522509
Zn199	Zn	-0.149671	-0.759059	0.502258
Zn200	Zn	-0.149672	-0.759054	0.406397
O201	O	-0.213286	-0.746083	0.522517
C202	C	0.481136	0.272430	-0.400723
C203	C	0.534149	0.272798	-0.427170
C204	C	0.481142	0.272436	-0.321510
C205	C	0.534154	0.272804	-0.348077
C206	C	0.560348	0.272430	-0.400722
C207	C	0.455063	0.272805	-0.348078
C208	C	0.395318	0.266003	-0.400518
C209	C	0.366153	0.261944	-0.425453
C210	C	0.391181	0.259904	-0.477616
C211	C	0.359559	0.255501	-0.504654
C212	C	0.445378	0.261928	-0.504855
C213	C	0.474542	0.265989	-0.479922
C214	C	0.449510	0.268024	-0.427754
C215	C	0.639526	0.265995	-0.480112
C216	C	0.689564	0.261935	-0.505217
C217	C	0.714662	0.259901	-0.478149
C218	C	0.768914	0.255497	-0.505366
C219	C	0.689732	0.261932	-0.425976
C220	C	0.639698	0.265994	-0.400873
C221	C	0.614595	0.268023	-0.427941
C222	C	0.395330	0.266016	-0.235897
C223	C	0.366166	0.261956	-0.181797
C224	C	0.391200	0.259922	-0.154664
C225	C	0.359585	0.255525	-0.096007
C226	C	0.445392	0.261944	-0.181622
C227	C	0.474556	0.266001	-0.235720
C228	C	0.449522	0.268037	-0.262855
H229	H	0.286999	0.081520	0.019275
F230	F	0.079841	-0.501189	0.257821
H231	H	-0.100802	-0.162903	-0.159502
H232	H	0.710176	0.260277	-0.403940
H233	H	0.086635	0.212895	0.264325
H234	H	-0.477214	-0.494625	0.264371
F235	F	0.532602	-0.103917	-0.508892
F236	F	0.243348	-0.337688	0.257830
H237	H	0.522799	-0.350948	-0.028186
F238	F	0.472765	-0.155376	-0.560719
F239	F	0.529549	-0.501168	-0.028396
H240	H	-0.100806	-0.306286	0.019284
F241	F	-0.003458	-0.103952	0.027177
H242	H	0.556080	-0.085672	-0.470390
H243	H	0.379131	-0.494622	-0.028201
F244	F	0.243366	0.212640	0.257797
F245	F	0.308479	0.259794	-0.396464
H246	H	0.412401	-0.229356	-0.326713
F247	F	0.079887	0.212678	0.421298
H248	H	0.619096	-0.016924	-0.357992
F249	F	-0.633977	-0.501159	0.421327
H250	H	0.234394	-0.016628	0.026651
H251	H	0.234443	-0.016965	-0.502129
H252	H	0.086571	-0.494647	0.408057
H253	H	0.556067	-0.085678	-0.326702
F254	F	0.077144	-0.023387	-0.345330
H255	H	0.466455	-0.162219	-0.159809
F256	F	0.532603	-0.103940	-0.264730
F257	F	-0.470456	-0.337651	0.257815
F258	F	0.046555	-0.242664	0.032593
H259	H	0.234434	-0.116996	0.026673
F260	F	0.308823	-0.319313	-0.152712
H261	H	0.142911	-0.306675	-0.403218
H262	H	0.196968	-0.085730	-0.470395
H263	H	0.709862	0.081210	-0.403217
F264	F	0.716443	0.088330	-0.560329
F265	F	0.613158	-0.023340	-0.508868
H266	H	0.556084	0.273409	-0.326747
F267	F	0.308837	-0.319301	-0.397155
F268	F	0.137331	-0.319337	0.018796
H269	H	0.374984	-0.261030	-0.358371
F270	F	0.368672	-0.267843	-0.264382
F271	F	0.210067	-0.079153	0.032588
H272	H	0.556064	0.273382	-0.470423
H273	H	0.412404	0.273401	-0.326750
F274	F	0.308492	0.259804	-0.153110
F275	F	0.368686	0.268184	-0.264775
H276	H	-0.009743	-0.261132	-0.257952
H277	H	0.374934	0.267664	-0.358041
H278	H	0.465751	0.260264	-0.547332
H279	H	0.465776	0.260287	-0.159526
H280	H	0.518670	0.267637	-0.502100
H281	H	0.053293	-0.085700	0.032403
H282	H	0.619092	0.267650	-0.502157
H283	H	0.709856	0.260282	-0.547696
H284	H	0.090324	-0.016939	0.026659
F285	F	0.136619	0.087939	0.018782
H286	H	0.619405	0.267652	-0.358396
F287	F	0.532230	0.268150	-0.264410
H288	H	0.287335	-0.162226	0.019314
F289	F	-0.106739	-0.155417	0.018795
F290	F	0.046564	-0.079168	-0.320172
H291	H	-0.010032	-0.261056	0.026652
F292	F	0.046558	-0.242680	-0.320158
F293	F	-0.106748	-0.319711	-0.153073
F294	F	0.077130	-0.267868	0.027174
H295	H	0.286991	-0.162927	-0.547288
F296	F	0.240704	-0.104328	-0.508868
F297	F	0.300903	0.087910	-0.560719
F298	F	0.076761	-0.267902	-0.344954
F299	F	0.137350	0.088283	-0.397157
H300	H	-0.010023	-0.117360	-0.257644
