data_functionalizedCrystal
_audit_creation_method	'MofGen! by Chris Wilmer'
_symmetry_space_group_name_H-M	'P1'
_symmetry_Int_Tables_number	1
_symmetry_cell_setting	triclinic
loop_
_symmetry_equiv_pos_as_xyz
  x,y,z
_cell_length_a	14.519709
_cell_length_b	17.038272
_cell_length_c	12.996460
_cell_angle_alpha	89.993697
_cell_angle_beta	90.000034
_cell_angle_gamma	87.395851
loop_
_atom_site_label
_atom_site_type_symbol
_atom_site_fract_x
_atom_site_fract_y
_atom_site_fract_z
O1	O	1.231711	0.102503	-0.085433
O2	O	0.964158	0.114573	-0.085465
O3	O	1.096345	-0.005280	-0.085441
O4	O	1.099525	0.222356	-0.085457
O5	O	1.096329	-0.005287	0.085693
O6	O	0.964143	0.114567	0.085669
O7	O	1.231696	0.102496	0.085701
Cu8	Cu	1.097918	0.108531	0.101311
Cu9	Cu	1.097936	0.108539	-0.101075
O10	O	1.099510	0.222349	0.085677
C11	C	0.929748	0.114008	0.000098
C12	C	0.827237	0.112322	0.000086
C13	C	1.093444	-0.034416	0.000125
C14	C	1.084814	-0.121223	0.000124
C15	C	0.451867	0.106116	0.000134
C16	C	0.556307	0.107839	0.000120
C17	C	0.639549	0.109219	0.000109
C18	C	0.743995	0.110942	0.000098
C19	C	1.164047	-0.171209	0.000135
C20	C	1.155933	-0.252773	0.000124
C21	C	1.068585	-0.284349	0.000110
C22	C	0.989347	-0.234357	0.000097
C23	C	0.997462	-0.152795	0.000100
C24	C	1.039916	-0.530153	0.000093
C25	C	1.031807	-0.611722	0.000092
C26	C	1.198394	-0.630132	0.000118
C27	C	1.206502	-0.548568	0.000127
C28	C	1.127263	-0.498583	0.000108
C29	C	1.060289	-0.367720	0.000102
C30	C	1.135560	-0.415213	0.000109
C31	C	1.266107	0.103062	0.000135
C32	C	1.368617	0.104748	0.000141
C33	C	1.102410	0.251486	0.000108
C34	C	1.111040	0.338292	0.000103
N35	N	1.097912	0.108525	0.243658
N36	N	1.097949	0.108538	-0.243422
C37	C	1.097935	0.108539	0.663472
C38	C	1.097926	0.108538	0.546667
C39	C	1.097924	0.108533	0.453569
C40	C	1.097914	0.108530	0.336756
H41	H	1.220453	-0.293468	0.000135
H42	H	1.206678	-0.389500	0.000097
C43	C	0.825499	-0.207961	0.000058
C44	C	0.893331	-0.269062	0.000074
H45	H	0.766223	-0.229387	0.000039
H46	H	0.832119	-0.176539	0.059735
H47	H	0.832146	-0.176525	-0.059622
H48	H	0.886688	-0.300495	0.059758
H49	H	0.886708	-0.300497	-0.059609
H50	H	0.960675	-0.637427	0.000098
H51	H	1.235175	-0.145506	0.000152
C52	C	0.909957	-0.050385	-0.087888
C53	C	0.910367	-0.097847	0.000088
H54	H	0.856183	-0.016467	-0.087900
H55	H	0.963133	-0.019911	-0.087872
H56	H	0.910261	-0.082591	-0.147558
H57	H	0.910069	-0.065641	0.059758
H58	H	0.857177	-0.128323	0.000081
C59	C	0.954540	-0.448764	-0.087876
C60	C	0.964279	-0.402436	0.000098
H61	H	0.895270	-0.470202	-0.087875
H62	H	0.961159	-0.417319	-0.147541
H63	H	1.000580	-0.490199	-0.087866
H64	H	0.918243	-0.360998	0.000083
H65	H	0.957651	-0.433883	0.059778
C66	C	1.370351	-0.574961	0.000151
C67	C	1.302517	-0.513862	0.000144
H68	H	1.429627	-0.553533	0.000160
H69	H	1.363712	-0.606397	0.059821
H70	H	1.363726	-0.606384	-0.059536
H71	H	1.309138	-0.482442	0.059835
H72	H	1.309160	-0.482413	-0.059532
C73	C	1.259927	-0.763336	0.000113
C74	C	1.285489	-0.685077	0.000124
H75	H	1.313700	-0.797255	0.000107
H76	H	1.224379	-0.772924	0.059785
H77	H	1.224377	-0.772905	-0.059572
H78	H	1.321034	-0.675507	0.059813
H79	H	1.321052	-0.675485	-0.059554
H80	H	0.975394	-0.489465	0.000078
