data_functionalizedCrystal
_audit_creation_method	'MofGen! by Chris Wilmer'
_symmetry_space_group_name_H-M	'P1'
_symmetry_Int_Tables_number	1
_symmetry_cell_setting	triclinic
loop_
_symmetry_equiv_pos_as_xyz
  x,y,z
_cell_length_a	12.759395
_cell_length_b	16.625546
_cell_length_c	12.759387
_cell_angle_alpha	89.963284
_cell_angle_beta	89.981185
_cell_angle_gamma	90.024005
loop_
_atom_site_label
_atom_site_type_symbol
_atom_site_fract_x
_atom_site_fract_y
_atom_site_fract_z
Zn1	Zn	1.606194	-0.320917	-0.593970
Zn2	Zn	2.106194	0.179083	-0.093970
Zn3	Zn	1.606066	-0.455775	-0.418276
Zn4	Zn	2.106066	0.044225	0.081724
Zn5	Zn	1.430498	-0.320964	-0.418307
Zn6	Zn	1.930498	0.179036	0.081693
Zn7	Zn	1.430461	-0.455715	-0.593915
Zn8	Zn	1.930461	0.044285	-0.093915
O9	O	1.518305	-0.388343	-0.506117
O10	O	2.018305	0.111657	-0.006117
O11	O	1.753199	-0.338812	-0.570674
O12	O	2.253199	0.161188	-0.070674
O13	O	1.582739	-0.437937	-0.271259
O14	O	2.082739	0.062063	0.228741
O15	O	1.453873	-0.208125	-0.441645
O16	O	1.953873	0.291875	0.058355
O17	O	1.753104	-0.437891	-0.441592
O18	O	2.253104	0.062109	0.058408
O19	O	1.582957	-0.208091	-0.570704
O20	O	2.082957	0.291909	-0.070704
O21	O	1.453749	-0.338891	-0.271282
O22	O	1.953749	0.161109	0.228718
O23	O	1.283472	-0.338833	-0.441592
O24	O	1.783472	0.161167	0.058408
O25	O	1.453811	-0.437789	-0.740944
O26	O	1.953811	0.062211	-0.240944
O27	O	1.283445	-0.437834	-0.570610
O28	O	1.783445	0.062166	-0.070610
O29	O	1.582921	-0.338753	-0.740984
O30	O	2.082921	0.161247	-0.240984
O31	O	1.582703	-0.568599	-0.441539
O32	O	2.082703	-0.068599	0.058461
O33	O	1.453687	-0.568555	-0.570580
O34	O	1.953687	-0.068555	-0.070580
C35	C	1.245337	-0.388333	-0.506099
C36	C	1.745337	0.111667	-0.006099
C37	C	1.128561	-0.388348	-0.506116
C38	C	1.628561	0.111652	-0.006116
C39	C	1.518206	-0.597833	-0.506073
C40	C	2.018206	-0.097833	-0.006073
C41	C	1.518259	-0.687454	-0.506090
C42	C	2.018259	-0.187454	-0.006090
C43	C	1.128571	-0.491605	-0.640246
C44	C	1.628571	0.008395	-0.140246
C45	C	1.073716	-0.543239	-0.707314
C46	C	1.573716	-0.043239	-0.207314
C47	C	0.963994	-0.543249	-0.707327
C48	C	1.463994	-0.043249	-0.207327
C49	C	0.909126	-0.491617	-0.640267
C50	C	1.409126	0.008383	-0.140267
C51	C	0.963981	-0.439982	-0.573199
C52	C	1.463981	0.060018	-0.073199
C53	C	1.073705	-0.439980	-0.573191
C54	C	1.573705	0.060020	-0.073191
C55	C	0.963971	-0.336723	-0.439076
C56	C	1.463971	0.163277	0.060924
C57	C	1.073692	-0.336716	-0.439056
C58	C	1.573692	0.163284	0.060944
C59	C	0.909102	-0.285091	-0.372016
C60	C	1.409102	0.214909	0.127984
C61	C	0.963958	-0.233459	-0.304942
C62	C	1.463958	0.266541	0.195058
C63	C	1.073686	-0.233452	-0.304931
C64	C	1.573686	0.266548	0.195069
C65	C	1.128548	-0.285081	-0.371989
C66	C	1.628548	0.214919	0.128011
C67	C	1.518442	-1.015630	-0.506199
C68	C	2.018442	-0.515630	-0.006199
C69	C	1.518388	-0.924322	-0.506171
C70	C	2.018388	-0.424322	-0.006171
C71	C	1.518350	-0.851545	-0.506144
C72	C	2.018350	-0.351545	-0.006144
C73	C	1.518297	-0.760231	-0.506117
C74	C	2.018297	-0.260231	-0.006117
C75	C	1.792338	-0.388353	-0.506136
C76	C	2.292338	0.111647	-0.006136
C77	C	1.909115	-0.388357	-0.506144
C78	C	2.409115	0.111643	-0.006144
C79	C	1.518376	-0.388259	-0.780151
C80	C	2.018376	0.111741	-0.280151
C81	C	1.518407	-0.388224	-0.896928
C82	C	2.018407	0.111776	-0.396928
C83	C	1.518433	-0.178034	-0.506184
C84	C	2.018433	0.321966	-0.006184
C85	C	1.518488	-0.088412	-0.506213
C86	C	2.018488	0.411588	-0.006213
C87	C	1.384099	-0.285081	-0.896970
C88	C	1.884099	0.214919	-0.396970
C89	C	1.316964	-0.233493	-0.951852
C90	C	1.816964	0.266507	-0.451852
C91	C	1.316995	-0.233464	-1.061574
C92	C	1.816995	0.266536	-0.561574
C93	C	1.384167	-0.285030	-1.116416
C94	C	1.884167	0.214970	-0.616416
C95	C	1.451301	-0.336617	-1.061534
C96	C	1.951301	0.163383	-0.561534
C97	C	1.451265	-0.336639	-0.951810
C98	C	1.951265	0.163361	-0.451810
C99	C	1.585602	-0.439763	-1.061491
C100	C	2.085602	0.060237	-0.561491
C101	C	1.585578	-0.439789	-0.951770
C102	C	2.085578	0.060211	-0.451770
C103	C	1.652774	-0.491329	-1.116334
C104	C	2.152774	0.008671	-0.616334
C105	C	1.719915	-0.542913	-1.061451
C106	C	2.219915	-0.042913	-0.561451
C107	C	1.719882	-0.542940	-0.951723
C108	C	2.219882	-0.042940	-0.451723
C109	C	1.652713	-0.491377	-0.896888
C110	C	2.152713	0.008623	-0.396888
C111	C	1.518294	-0.388367	-0.233150
C112	C	2.018294	0.111633	0.266850
C113	C	1.518468	-0.388176	-0.116374
C114	C	2.018468	0.111824	0.383626
H115	H	1.217912	-0.491608	-0.640234
H116	H	1.717912	0.008392	-0.140234
H117	H	1.217889	-0.285083	-0.371983
H118	H	1.717889	0.214917	0.128017
Cl119	Cl	0.771165	-0.285098	-0.372038
Cl120	Cl	1.271165	0.214902	0.127962
Cl121	Cl	1.804342	-0.607736	-1.130400
Cl122	Cl	2.304342	-0.107736	-0.630400
H123	H	0.919331	-0.585290	-0.761944
H124	H	1.419331	-0.085290	-0.261944
H125	H	0.819784	-0.491623	-0.640292
H126	H	1.319784	0.008377	-0.140292
H127	H	1.118402	-0.585276	-0.761914
H128	H	1.618402	-0.085276	-0.261914
H129	H	0.919275	-0.191420	-0.250352
H130	H	1.419275	0.308580	0.249648
H131	H	1.384177	-0.285009	-1.205757
H132	H	1.884177	0.214991	-0.705757
H133	H	1.262327	-0.191458	-1.106259
H134	H	1.762327	0.308542	-0.606259
Cl135	Cl	1.652803	-0.491300	-1.254270
Cl136	Cl	2.152803	0.008700	-0.754270
H137	H	1.262272	-0.191512	-0.907188
H138	H	1.762272	0.308488	-0.407188
H139	H	1.118343	-0.191399	-0.250323
H140	H	1.618343	0.308601	0.249677
H141	H	1.384075	-0.285093	-0.807629
H142	H	1.884075	0.214907	-0.307629
H143	H	1.774555	-0.584946	-0.907044
H144	H	2.274555	-0.084946	-0.407044
Cl145	Cl	1.652669	-0.491403	-0.758951
Cl146	Cl	2.152669	0.008597	-0.258951
