data_functionalizedCrystal
_audit_creation_method	'MofGen! by Chris Wilmer'
_symmetry_space_group_name_H-M	'P1'
_symmetry_Int_Tables_number	1
_symmetry_cell_setting	triclinic
loop_
_symmetry_equiv_pos_as_xyz
  x,y,z
_cell_length_a	16.109301
_cell_length_b	8.965430
_cell_length_c	16.109301
_cell_angle_alpha	90.000690
_cell_angle_beta	83.461532
_cell_angle_gamma	89.994369
loop_
_atom_site_label
_atom_site_type_symbol
_atom_site_fract_x
_atom_site_fract_y
_atom_site_fract_z
O1	O	1.103123	0.123945	0.106863
O2	O	0.861062	0.123969	0.120162
O3	O	0.988742	0.123946	-0.007518
O4	O	0.975443	0.123967	0.234544
O5	O	0.988748	-0.124132	-0.007514
O6	O	0.861067	-0.124110	0.120166
O7	O	1.103129	-0.124134	0.106867
Cu8	Cu	0.982099	-0.146774	0.113517
Cu9	Cu	0.982092	0.146608	0.113512
O10	O	0.975449	-0.124111	0.234548
C11	C	0.830090	-0.000068	0.119626
C12	C	0.737794	-0.000059	0.118011
C13	C	0.515522	-0.000070	0.190018
C14	C	0.428802	-0.000080	0.188494
C15	C	0.448676	-0.000087	0.037006
C16	C	0.535395	-0.000087	0.038530
C17	C	0.568815	-0.000072	0.115039
C18	C	0.395376	-0.000080	0.111990
C19	C	0.301350	-0.000091	0.110337
C20	C	0.662847	-0.000064	0.116693
N21	N	0.982110	-0.353123	0.113520
C22	C	1.041177	-0.450399	0.054476
C23	C	0.966052	-0.549798	0.038348
C24	C	1.057206	-0.549851	0.129594
C25	C	0.906948	-0.450332	0.097355
C26	C	0.998150	-0.450377	0.188634
C27	C	0.922971	-0.549731	0.172538
C28	C	1.134101	-0.000094	0.107404
C29	C	1.226397	-0.000093	0.109019
C30	C	0.988206	-0.000092	-0.038491
C31	C	0.986591	-0.000090	-0.130786
N32	N	0.982088	0.352958	0.113503
C33	C	1.057074	-0.000071	-0.439785
C34	C	1.058600	-0.000080	-0.353064
C35	C	0.907111	-0.000085	-0.333191
C36	C	0.905586	-0.000087	-0.419910
C37	C	0.980571	-0.000073	-0.473205
C38	C	0.983620	-0.000079	-0.299766
C39	C	0.985274	-0.000089	-0.205740
C40	C	0.978917	-0.000066	-0.567237
C41	C	0.975985	-0.000069	0.265521
C42	C	0.977600	-0.000062	0.357816
H43	H	0.421454	-0.000108	-0.025285
Br44	Br	1.162430	-0.000078	-0.307712
Br45	Br	0.356477	-0.000085	0.290256
Br46	Br	1.124355	-0.377698	-0.028784
H47	H	0.846062	-0.000093	-0.289788
H48	H	0.843284	-0.000095	-0.447120
H49	H	0.843416	-0.406802	0.083680
H50	H	0.542730	-0.000068	0.252317
H51	H	0.578788	-0.000093	-0.022530
H52	H	0.952470	-0.593469	-0.025181
Br53	Br	0.839615	-0.621972	0.255757
Br54	Br	1.020828	-0.377524	0.294488
Br55	Br	1.158838	-0.000055	-0.512111
Br56	Br	1.163067	-0.622726	0.152265
