data_functionalizedCrystal
_audit_creation_method	'MofGen! by Chris Wilmer'
_symmetry_space_group_name_H-M	'P1'
_symmetry_Int_Tables_number	1
_symmetry_cell_setting	triclinic
loop_
_symmetry_equiv_pos_as_xyz
  x,y,z
_cell_length_a	14.044220
_cell_length_b	16.776229
_cell_length_c	17.699083
_cell_angle_alpha	89.992455
_cell_angle_beta	88.235946
_cell_angle_gamma	89.997978
loop_
_atom_site_label
_atom_site_type_symbol
_atom_site_fract_x
_atom_site_fract_y
_atom_site_fract_z
O1	O	1.257290	-0.066207	0.182444
O2	O	0.981336	-0.066227	0.175860
O3	O	1.127109	-0.066209	0.069500
O4	O	1.111516	-0.066224	0.288803
O5	O	1.127090	0.066367	0.069492
O6	O	0.981317	0.066350	0.175852
O7	O	1.257271	0.066370	0.182435
Zn8	Zn	1.119290	0.087409	0.179142
Zn9	Zn	1.119316	-0.087266	0.179153
O10	O	1.111497	0.066352	0.288795
C11	C	0.946018	0.000059	0.172974
C12	C	0.840812	0.000052	0.164378
N13	N	1.119280	0.206620	0.179134
N14	N	1.119334	-0.206477	0.179155
C15	C	0.648187	0.000069	0.148663
C16	C	0.590414	0.000068	0.209629
C17	C	0.483230	0.000077	0.200885
C18	C	0.755381	0.000059	0.157406
C19	C	1.292588	0.000082	0.185321
C20	C	1.397794	0.000085	0.193917
C21	C	1.126541	0.000079	0.041261
C22	C	1.124865	0.000079	-0.042873
C23	C	1.183848	0.248345	0.132061
C24	C	1.183853	0.331798	0.132061
C25	C	1.119294	0.373523	0.179138
C26	C	1.054719	0.331793	0.226214
C27	C	1.054710	0.248342	0.226210
C28	C	1.054754	0.668340	0.226231
C29	C	1.054770	0.751796	0.226233
C30	C	1.183897	0.751795	0.132082
C31	C	1.183888	0.668345	0.132078
C32	C	1.119310	0.626621	0.179150
C33	C	1.119304	0.536133	0.179149
C34	C	1.119304	0.464010	0.179144
C35	C	1.210431	0.000087	-0.085591
C36	C	1.208850	0.000080	-0.164644
C37	C	1.121702	0.000071	-0.200976
C38	C	1.036130	0.000061	-0.158252
C39	C	1.037712	0.000063	-0.079201
C40	C	1.029750	0.000054	-0.477055
C41	C	1.028175	0.000055	-0.556112
C42	C	1.200888	0.000071	-0.562498
C43	C	1.202470	0.000073	-0.483447
C44	C	1.116898	0.000059	-0.440730
C45	C	1.118613	0.000065	-0.355012
C46	C	1.119987	0.000070	-0.286692
C47	C	1.112066	0.000062	0.317035
C48	C	1.113742	0.000057	0.401168
H49	H	0.621449	0.000060	0.268391
H50	H	1.002149	0.365771	0.264543
H51	H	1.002174	0.634375	0.264561
O52	O	0.611013	0.000036	0.078619
C53	C	0.468724	0.000090	0.005936
C54	C	0.510711	0.000112	0.085303
H55	H	0.387625	0.000168	0.011313
H56	H	0.493671	-0.055408	-0.026134
H57	H	0.493802	0.055558	-0.026131
H58	H	0.485652	-0.055318	0.117433
H59	H	0.485769	0.055647	0.117316
O60	O	1.246616	0.372421	0.086445
C61	C	1.376122	0.466597	0.079155
C62	C	1.305080	0.420653	0.130902
H63	H	1.423422	0.505591	0.115079
H64	H	1.335354	0.505731	0.038582
H65	H	1.422227	0.422429	0.045491
H66	H	1.258956	0.464763	0.164616
H67	H	1.345906	0.381506	0.171427
H68	H	1.002131	0.214370	0.264541
H69	H	1.236423	0.214378	0.093728
H70	H	0.968035	0.000056	-0.044420
H71	H	1.236461	0.634374	0.093745
O72	O	0.943491	-0.000102	-0.591372
C73	C	0.795383	-0.068788	-0.610063
C74	C	0.891255	-0.068720	-0.570097
H75	H	0.753115	-0.124251	-0.592866
H76	H	0.808899	-0.068835	-0.673908
H77	H	0.753129	-0.013288	-0.592963
H78	H	0.933558	-0.124211	-0.587135
H79	H	0.877671	-0.068631	-0.506261
O80	O	0.951557	0.000088	-0.193663
C81	C	0.872571	0.000036	-0.312612
C82	C	0.968418	0.000021	-0.272609
H83	H	0.886171	-0.000035	-0.376446
H84	H	0.830274	0.055528	-0.295555
H85	H	0.830306	-0.055438	-0.295442
H86	H	1.010761	0.055457	-0.289758
H87	H	1.010644	-0.055508	-0.289667
H88	H	1.281396	0.000099	-0.056016
H89	H	1.236477	0.785776	0.093750
H90	H	1.278527	0.000087	-0.199422
H91	H	1.273434	0.000084	-0.453869
H92	H	1.002194	0.785768	0.264571
O93	O	1.283991	-0.000066	-0.604028
C94	C	1.382438	-0.068720	-0.697005
C95	C	1.288304	-0.068676	-0.650009
H96	H	1.385947	-0.124177	-0.734205
H97	H	1.445031	-0.068761	-0.657493
H98	H	1.385995	-0.013214	-0.734150
H99	H	1.284654	-0.124173	-0.612860
H100	H	1.225755	-0.068594	-0.689564
H101	H	0.960072	0.000043	-0.442284
