data_functionalizedCrystal
_audit_creation_method	'MofGen! by Chris Wilmer'
_symmetry_space_group_name_H-M	'P1'
_symmetry_Int_Tables_number	1
_symmetry_cell_setting	triclinic
loop_
_symmetry_equiv_pos_as_xyz
  x,y,z
_cell_length_a	17.019383
_cell_length_b	19.288865
_cell_length_c	18.366186
_cell_angle_alpha	90.011479
_cell_angle_beta	86.114979
_cell_angle_gamma	96.731905
loop_
_atom_site_label
_atom_site_type_symbol
_atom_site_fract_x
_atom_site_fract_y
_atom_site_fract_z
O1	O	1.046362	-0.088544	-0.126102
O2	O	0.816659	-0.099817	-0.111716
O3	O	0.938148	0.006938	-0.119310
O4	O	0.924873	-0.195299	-0.118508
O5	O	0.938127	0.006943	0.001790
O6	O	0.816638	-0.099811	0.009385
O7	O	1.046342	-0.088539	-0.005001
Zn8	Zn	0.931487	-0.094174	0.021419
Zn9	Zn	0.931514	-0.094181	-0.138136
O10	O	0.924853	-0.195293	0.002593
C11	C	0.787261	-0.099385	-0.049325
C12	C	0.699696	-0.098097	-0.043840
C13	C	0.658562	-0.097497	-0.107270
C14	C	0.576283	-0.096298	-0.102106
C15	C	0.535142	-0.095695	-0.033511
C16	C	0.576281	-0.096297	0.029924
C17	C	0.658558	-0.097501	0.024759
C18	C	0.286720	-0.092065	-0.014614
C19	C	0.204439	-0.090859	-0.009454
C20	C	0.204446	-0.090861	-0.141484
C21	C	0.286724	-0.092060	-0.146643
C22	C	0.327856	-0.092667	-0.083208
C23	C	0.451040	-0.094467	-0.028231
C24	C	0.411955	-0.093899	-0.088489
C25	C	0.937710	0.032818	-0.058731
C26	C	0.936428	0.109924	-0.058644
C27	C	1.075739	-0.088971	-0.067394
C28	C	1.163304	-0.090258	-0.072884
C29	C	0.925290	-0.221173	-0.057988
C30	C	0.926572	-0.298279	-0.058079
N31	N	0.931474	-0.094169	0.130311
C32	C	1.007712	0.154491	-0.063105
C33	C	1.006508	0.226940	-0.063041
C34	C	0.934015	0.254819	-0.058502
C35	C	0.862721	0.210242	-0.054044
C36	C	0.863928	0.137794	-0.054116
C37	C	0.877020	0.363211	-0.012514
C38	C	0.875816	0.435658	-0.012438
C39	C	0.930290	0.478271	-0.058285
C40	C	0.985982	0.448430	-0.104198
C41	C	0.987188	0.375983	-0.104270
C42	C	0.932699	0.333375	-0.058424
C43	C	1.000273	0.601397	-0.062678
C44	C	0.999066	0.673847	-0.062618
C45	C	0.855277	0.657147	-0.053613
C46	C	0.856487	0.584699	-0.053681
C47	C	0.928987	0.556828	-0.058209
N48	N	0.931533	-0.094181	-0.247029
C49	C	0.985287	-0.046921	0.165047
C50	C	0.985292	-0.046918	0.241275
C51	C	0.931491	-0.094175	0.282763
C52	C	0.877668	-0.141426	0.248017
C53	C	0.877660	-0.141423	0.171792
C54	C	0.920932	-0.157444	0.404175
C55	C	0.920946	-0.157447	0.480399
C56	C	0.931514	-0.094184	0.517869
C57	C	0.942084	-0.030913	0.479104
C58	C	0.942075	-0.030910	0.402878
C59	C	0.931495	-0.094183	0.365417
C60	C	0.985335	-0.046929	0.635260
C61	C	0.985335	-0.046925	0.711489
C62	C	0.877715	-0.141439	0.718230
C63	C	0.877712	-0.141437	0.642002
C64	C	0.931526	-0.094182	0.600521
H65	H	0.417534	-0.093974	0.027619
H66	H	1.057116	0.710134	-0.066255
H67	H	0.833862	-0.179902	0.281801
H68	H	0.542777	-0.095810	0.085775
H69	H	1.029114	-0.008442	0.269563
Cl70	Cl	0.771587	0.245289	-0.048343
Cl71	Cl	0.774306	0.081764	-0.048507
Cl72	Cl	1.091414	0.566356	-0.068367
H73	H	0.796252	0.679845	-0.049921
H74	H	0.833895	-0.179913	0.613718
H75	H	1.029104	-0.008443	0.131276
Cl76	Cl	0.766867	0.528668	-0.048069
Cl77	Cl	0.955354	0.048625	0.354148
H78	H	0.912344	-0.208966	0.511956
Cl79	Cl	0.955377	0.048624	0.526199
Cl80	Cl	1.052986	0.012482	0.755161
H81	H	1.029152	-0.008449	0.601485
H82	H	0.170947	-0.090369	-0.193128
Cl83	Cl	0.810074	-0.200842	0.770380
Cl84	Cl	0.907719	-0.236985	0.357074
H85	H	0.833838	-0.179899	0.143509
Cl86	Cl	1.054467	0.501993	-0.161840
Cl87	Cl	0.710275	-0.098251	-0.193508
H88	H	0.170940	-0.090387	0.046407
Cl89	Cl	0.463677	-0.094660	-0.174719
H90	H	0.542795	-0.095809	-0.153757
H91	H	0.320217	-0.092547	-0.202500
H92	H	0.692048	-0.097993	0.076410
Cl93	Cl	0.338418	-0.092826	0.065133
H94	H	1.066748	0.131804	-0.066795
Cl95	Cl	1.057191	0.338470	-0.161992
H96	H	0.830466	0.459948	0.024944
H97	H	0.832658	0.328521	0.024824
H98	H	1.064558	0.263234	-0.066677
