data_functionalizedCrystal
_audit_creation_method	'MofGen! by Chris Wilmer'
_symmetry_space_group_name_H-M	'P1'
_symmetry_Int_Tables_number	1
_symmetry_cell_setting	triclinic
loop_
_symmetry_equiv_pos_as_xyz
  x,y,z
_cell_length_a	16.109301
_cell_length_b	16.109301
_cell_length_c	15.186229
_cell_angle_alpha	89.994299
_cell_angle_beta	89.998755
_cell_angle_gamma	83.461481
loop_
_atom_site_label
_atom_site_type_symbol
_atom_site_fract_x
_atom_site_fract_y
_atom_site_fract_z
O1	O	-1.103131	-0.106867	0.073176
O2	O	-0.853131	0.143133	0.323176
O3	O	-0.603131	0.393133	0.573176
O4	O	-0.353131	0.643133	0.823176
O5	O	-0.861069	-0.120166	0.073190
O6	O	-0.611069	0.129834	0.323190
O7	O	-0.361069	0.379834	0.573190
O8	O	-0.111069	0.629834	0.823190
O9	O	-0.988750	0.007515	0.073174
O10	O	-0.738750	0.257515	0.323174
O11	O	-0.488750	0.507515	0.573174
O12	O	-0.238750	0.757515	0.823174
O13	O	-0.975451	-0.234547	0.073192
O14	O	-0.725451	0.015453	0.323192
O15	O	-0.475451	0.265453	0.573192
O16	O	-0.225451	0.515453	0.823192
O17	O	-0.988740	0.007518	-0.073284
O18	O	-0.738740	0.257518	0.176716
O19	O	-0.488740	0.507518	0.426716
O20	O	-0.238740	0.757518	0.676716
O21	O	-0.861059	-0.120163	-0.073267
O22	O	-0.611059	0.129837	0.176733
O23	O	-0.361059	0.379837	0.426733
O24	O	-0.111059	0.629837	0.676733
O25	O	-1.103121	-0.106864	-0.073282
O26	O	-0.853121	0.143136	0.176718
O27	O	-0.603121	0.393136	0.426718
O28	O	-0.353121	0.643136	0.676718
Zn29	Zn	-0.982089	-0.113513	-0.096528
Zn30	Zn	-0.732089	0.136487	0.153472
Zn31	Zn	-0.482089	0.386487	0.403472
Zn32	Zn	-0.232089	0.636487	0.653472
Zn33	Zn	-0.982102	-0.113517	0.096436
Zn34	Zn	-0.732102	0.136483	0.346436
Zn35	Zn	-0.482102	0.386483	0.596436
Zn36	Zn	-0.232102	0.636483	0.846436
O37	O	-0.975441	-0.234544	-0.073265
O38	O	-0.725441	0.015456	0.176735
O39	O	-0.475441	0.265456	0.426735
O40	O	-0.225441	0.515456	0.676735
C41	C	-0.830090	-0.119626	-0.000037
C42	C	-0.580090	0.130374	0.249963
C43	C	-0.330090	0.380374	0.499963
C44	C	-0.080090	0.630374	0.749963
C45	C	-0.737794	-0.118011	-0.000032
C46	C	-0.487794	0.131989	0.249968
C47	C	-0.237794	0.381989	0.499968
C48	C	0.012206	0.631989	0.749968
C49	C	-0.988206	0.038491	-0.000056
C50	C	-0.738206	0.288491	0.249944
C51	C	-0.488206	0.538491	0.499944
C52	C	-0.238206	0.788491	0.749944
C53	C	-0.986591	0.130786	-0.000057
C54	C	-0.736591	0.380786	0.249943
C55	C	-0.486591	0.630786	0.499943
C56	C	-0.236591	0.880786	0.749943
C57	C	-1.134101	-0.107404	-0.000053
C58	C	-0.884101	0.142596	0.249947
C59	C	-0.634101	0.392596	0.499947
C60	C	-0.384101	0.642596	0.749947
C61	C	-1.226397	-0.109019	-0.000052
C62	C	-0.976397	0.140981	0.249948
C63	C	-0.726397	0.390981	0.499948
C64	C	-0.476397	0.640981	0.749948
C65	C	-0.515522	-0.190018	-0.000036
C66	C	-0.265522	0.059982	0.249964
C67	C	-0.015522	0.309982	0.499964
C68	C	0.234478	0.559982	0.749964
C69	C	-0.428801	-0.188494	-0.000042
C70	C	-0.178801	0.061506	0.249958
C71	C	0.071199	0.311506	0.499958
C72	C	0.321199	0.561506	0.749958
C73	C	-0.448676	-0.037006	-0.000050
C74	C	-0.198676	0.212994	0.249950
C75	C	0.051324	0.462994	0.499950
C76	C	0.301324	0.712994	0.749950
C77	C	-0.535394	-0.038530	-0.000051
C78	C	-0.285394	0.211470	0.249949
C79	C	-0.035394	0.461470	0.499949
C80	C	0.214606	0.711470	0.749949
C81	C	-0.568815	-0.115039	-0.000039
C82	C	-0.318815	0.134961	0.249961
C83	C	-0.068815	0.384961	0.499961
C84	C	0.181185	0.634961	0.749961
C85	C	-0.395376	-0.111990	-0.000045
C86	C	-0.145376	0.138010	0.249955
C87	C	0.104624	0.388010	0.499955
C88	C	0.354624	0.638010	0.749955
C89	C	-0.301350	-0.110337	-0.000051
C90	C	-0.051350	0.139663	0.249949
C91	C	0.198650	0.389663	0.499949
C92	C	0.448650	0.639663	0.749949
C93	C	-0.662847	-0.116693	-0.000035
C94	C	-0.412847	0.133307	0.249965
C95	C	-0.162847	0.383307	0.499965
C96	C	0.087153	0.633307	0.749965
C97	C	-0.975984	-0.265521	-0.000034
C98	C	-0.725984	-0.015521	0.249966
C99	C	-0.475984	0.234479	0.499966
C100	C	-0.225984	0.484479	0.749966
C101	C	-0.977600	-0.357816	-0.000027
C102	C	-0.727600	-0.107816	0.249973
C103	C	-0.477600	0.142184	0.499973
C104	C	-0.227600	0.392184	0.749973
N105	N	-0.982086	-0.113510	-0.228220
N106	N	-0.732086	0.136490	0.021780
N107	N	-0.482086	0.386490	0.271780
N108	N	-0.232086	0.636490	0.521780
C109	C	-1.058599	0.353059	-0.000047
C110	C	-0.808599	0.603059	0.249953
C111	C	-0.558599	0.853059	0.499953
C112	C	-0.308599	1.103059	0.749953
C113	C	-1.057075	0.439779	-0.000040
C114	C	-0.807075	0.689779	0.249960
C115	C	-0.557075	0.939779	0.499960
C116	C	-0.307075	1.189779	0.749960
C117	C	-0.905586	0.419905	-0.000034
C118	C	-0.655586	0.669905	0.249966
C119	C	-0.405586	0.919905	0.499966
C120	C	-0.155586	1.169905	0.749966
C121	C	-0.907111	0.333186	-0.000035
C122	C	-0.657111	0.583186	0.249965
C123	C	-0.407111	0.833186	0.499965
C124	C	-0.157111	1.083186	0.749965
C125	C	-0.983620	0.299766	-0.000046
C126	C	-0.733620	0.549766	0.249954
C127	C	-0.483620	0.799766	0.499954
C128	C	-0.233620	1.049766	0.749954
C129	C	-0.980571	0.473205	-0.000038
C130	C	-0.730571	0.723205	0.249962
C131	C	-0.480571	0.973205	0.499962
C132	C	-0.230571	1.223205	0.749962
C133	C	-0.978918	0.567231	-0.000030
C134	C	-0.728918	0.817231	0.249970
C135	C	-0.478918	1.067231	0.499970
C136	C	-0.228918	1.317231	0.749970
C137	C	-0.985273	0.205734	-0.000052
C138	C	-0.735273	0.455734	0.249948
C139	C	-0.485273	0.705734	0.499948
C140	C	-0.235273	0.955734	0.749948
C141	C	-1.038646	-0.056992	-0.546146
C142	C	-0.788646	0.193008	-0.296146
C143	C	-0.538646	0.443008	-0.046146
C144	C	-0.288646	0.693008	0.203854
C145	C	-1.038644	-0.056992	-0.453956
C146	C	-0.788644	0.193008	-0.203956
C147	C	-0.538644	0.443008	0.046044
C148	C	-0.288644	0.693008	0.296044
C149	C	-0.925549	-0.170038	-0.453952
C150	C	-0.675549	0.079962	-0.203952
C151	C	-0.425549	0.329962	0.046048
C152	C	-0.175549	0.579962	0.296048
C153	C	-0.925556	-0.170041	-0.546140
C154	C	-0.675556	0.079959	-0.296140
C155	C	-0.425556	0.329959	-0.046140
C156	C	-0.175556	0.579959	0.203860
C157	C	-0.982103	-0.113513	-0.592235
C158	C	-0.732103	0.136487	-0.342235
C159	C	-0.482103	0.386487	-0.092235
C160	C	-0.232103	0.636487	0.157765
C161	C	-0.982094	-0.113510	-0.407857
C162	C	-0.732094	0.136490	-0.157857
C163	C	-0.482094	0.386490	0.092143
C164	C	-0.232094	0.636490	0.342143
C165	C	-0.982091	-0.113511	-0.307901
C166	C	-0.732091	0.136489	-0.057901
C167	C	-0.482091	0.386489	0.192099
C168	C	-0.232091	0.636489	0.442099
C169	C	-0.982107	-0.113513	-0.692197
C170	C	-0.732107	0.136487	-0.442197
C171	C	-0.482107	0.386487	-0.192197
C172	C	-0.232107	0.636487	0.057803
N173	N	-0.982111	-0.113513	0.228129
N174	N	-0.732111	0.136487	0.478129
N175	N	-0.482111	0.386487	0.728129
N176	N	-0.232111	0.636487	0.978129
H177	H	-0.542730	-0.252317	-0.000034
H178	H	-0.292730	-0.002317	0.249966
H179	H	-0.042730	0.247683	0.499966
H180	H	0.207270	0.497683	0.749966
H181	H	-0.385413	-0.249550	-0.000041
H182	H	-0.135413	0.000450	0.249959
H183	H	0.114587	0.250450	0.499959
H184	H	0.364587	0.500450	0.749959
F185	F	-0.413100	0.044416	-0.000058
F186	F	-0.163100	0.294416	0.249942
F187	F	0.086900	0.544416	0.499942
F188	F	0.336900	0.794416	0.749942
H189	H	-0.843295	0.447127	-0.000027
H190	H	-0.593295	0.697127	0.249973
H191	H	-0.343295	0.947127	0.499973
H192	H	-0.093295	1.197127	0.749973
H193	H	-1.120897	0.325851	-0.000054
H194	H	-0.870897	0.575851	0.249946
H195	H	-0.620897	0.825851	0.499946
H196	H	-0.370897	1.075851	0.749946
H197	H	-0.578788	0.022530	-0.000056
H198	H	-0.328788	0.272530	0.249944
H199	H	-0.078788	0.522530	0.499944
H200	H	0.171212	0.772530	0.749944
H201	H	-0.846050	0.289792	-0.000032
H202	H	-0.596050	0.539792	0.249968
H203	H	-0.346050	0.789792	0.499968
H204	H	-0.096050	1.039792	0.749968
F205	F	-1.098831	0.003168	-0.595200
F206	F	-0.848831	0.253168	-0.345200
F207	F	-0.598831	0.503168	-0.095200
F208	F	-0.348831	0.753168	0.154800
F209	F	-1.098826	0.003164	-0.404909
F210	F	-0.848826	0.253164	-0.154909
F211	F	-0.598826	0.503164	0.095091
F212	F	-0.348826	0.753164	0.345091
F213	F	-0.865367	-0.230194	-0.404889
F214	F	-0.615367	0.019806	-0.154889
F215	F	-0.365367	0.269806	0.095111
F216	F	-0.115367	0.519806	0.345111
H217	H	-0.879511	-0.216071	-0.583668
H218	H	-0.629511	0.033929	-0.333668
H219	H	-0.379511	0.283929	-0.083668
H220	H	-0.129511	0.533929	0.166332
H221	H	-1.118130	0.483168	-0.000039
H222	H	-0.868130	0.733168	0.249961
H223	H	-0.618130	0.983168	0.499961
H224	H	-0.368130	1.233168	0.749961
