data_functionalizedCrystal
_audit_creation_method	'MofGen! by Chris Wilmer'
_symmetry_space_group_name_H-M	'P1'
_symmetry_Int_Tables_number	1
_symmetry_cell_setting	triclinic
loop_
_symmetry_equiv_pos_as_xyz
  x,y,z
_cell_length_a	27.732048
_cell_length_b	14.853567
_cell_length_c	26.809956
_cell_angle_alpha	89.984534
_cell_angle_beta	90.015002
_cell_angle_gamma	96.861208
loop_
_atom_site_label
_atom_site_type_symbol
_atom_site_fract_x
_atom_site_fract_y
_atom_site_fract_z
O1	O	0.641439	-0.107287	0.041412
O2	O	0.500722	-0.123597	0.041426
O3	O	0.574839	0.015849	0.041420
O4	O	0.567322	-0.246733	0.041418
O5	O	0.574812	0.015887	-0.041539
O6	O	0.500695	-0.123560	-0.041533
O7	O	0.641412	-0.107249	-0.041548
Zn8	Zn	0.571049	-0.115398	-0.054712
Zn9	Zn	0.571085	-0.115448	0.054590
O10	O	0.567295	-0.246695	-0.041542
C11	C	0.482700	-0.123236	-0.000052
C12	C	0.429040	-0.122205	-0.000046
C13	C	0.574485	0.049451	-0.000058
C14	C	0.573464	0.149518	-0.000054
N15	N	0.571029	-0.115364	-0.129308
C16	C	0.090580	-0.198118	-0.000068
C17	C	-0.111097	-0.194293	-0.000073
O18	O	-0.142028	-0.263710	-0.000095
N19	N	-0.130608	-0.111607	-0.000071
C20	C	-0.099695	-0.029872	-0.000072
O21	O	-0.120918	0.040545	-0.000076
C22	C	0.101981	-0.033698	-0.000071
C23	C	0.121489	-0.116389	-0.000067
C24	C	0.110088	-0.280803	-0.000065
C25	C	0.160504	-0.281758	-0.000061
C26	C	0.191413	-0.200029	-0.000061
C27	C	0.171905	-0.117344	-0.000063
C28	C	0.132893	0.048036	-0.000075
C29	C	0.183314	0.047073	-0.000076
C30	C	0.202822	-0.035619	-0.000073
C31	C	0.253230	-0.036571	-0.000059
N32	N	0.272740	-0.119257	-0.000060
C33	C	0.241832	-0.200986	-0.000061
C34	C	-0.205579	-0.027869	-0.000071
C35	C	-0.255998	-0.026912	-0.000070
C36	C	-0.267396	-0.191334	-0.000072
C37	C	-0.216976	-0.192289	-0.000069
C38	C	-0.186068	-0.110555	-0.000073
C39	C	0.347710	-0.202986	-0.000053
C40	C	0.398132	-0.203934	-0.000047
C41	C	0.409526	-0.039513	-0.000048
C42	C	0.359109	-0.038564	-0.000051
C43	C	0.328202	-0.120308	-0.000055
O44	O	0.284189	0.032809	-0.000042
O45	O	0.263064	-0.271392	-0.000068
C46	C	0.040164	-0.197163	-0.000072
C47	C	0.020656	-0.114478	-0.000075
C48	C	0.051564	-0.032749	-0.000074
C49	C	-0.029763	-0.113521	-0.000074
C50	C	-0.060672	-0.195251	-0.000075
C51	C	-0.041161	-0.277936	-0.000077
C52	C	0.009255	-0.278892	-0.000073
C53	C	0.032054	0.049937	-0.000072
C54	C	-0.018363	0.050885	-0.000076
C55	C	-0.049272	-0.030844	-0.000077
C56	C	0.659434	-0.107610	-0.000069
C57	C	0.713094	-0.108641	-0.000071
C58	C	0.567649	-0.280297	-0.000062
C59	C	0.568670	-0.380364	-0.000064
C60	C	0.525122	0.561266	-0.000058
C61	C	0.613175	0.583979	-0.000067
C62	C	0.614135	0.489961	-0.000064
C63	C	0.570588	0.431591	-0.000059
C64	C	0.526081	0.467238	-0.000057
C65	C	0.658641	0.454306	-0.000072
C66	C	0.659603	0.360282	-0.000070
C67	C	0.616055	0.301910	-0.000061
C68	C	0.571546	0.337563	-0.000058
C69	C	0.527999	0.279193	-0.000053
C70	C	0.483489	0.314844	-0.000046
C71	C	0.482533	0.408866	-0.000048
C72	C	0.617012	0.207888	-0.000059
C73	C	0.528957	0.185166	-0.000051
C74	C	0.541725	-0.061103	-0.526197
C75	C	0.541702	-0.061078	-0.317320
O76	O	0.516754	-0.014867	-0.290324
N77	N	0.571048	-0.115378	-0.291187
C78	C	0.600405	-0.169683	-0.317276
O79	O	0.625369	-0.215861	-0.290255
C80	C	0.600430	-0.169702	-0.526153
C81	C	0.571078	-0.115406	-0.552283
C82	C	0.512376	-0.006810	-0.552328
C83	C	0.512380	-0.006820	-0.604544
C84	C	0.541733	-0.061124	-0.630630
C85	C	0.571082	-0.115416	-0.604500
C86	C	0.629789	-0.224002	-0.552241
C87	C	0.629793	-0.224001	-0.604464
C88	C	0.600442	-0.169704	-0.630594
C89	C	0.600439	-0.169730	-0.682802
N90	N	0.571093	-0.115430	-0.708935
C91	C	0.541740	-0.061127	-0.682849
C92	C	0.600389	-0.169671	-0.207613
C93	C	0.600382	-0.169667	-0.155394
C94	C	0.541680	-0.061060	-0.155441
C95	C	0.541685	-0.061069	-0.207661
C96	C	0.571043	-0.115371	-0.233746
C97	C	0.541751	-0.061154	-0.792507
C98	C	0.541756	-0.061172	-0.844728
C99	C	0.600460	-0.169775	-0.844676
C100	C	0.600453	-0.169760	-0.792460
C101	C	0.571097	-0.115443	-0.766376
O102	O	0.625378	-0.215909	-0.709829
O103	O	0.516788	-0.014941	-0.709879
C104	C	0.541721	-0.061092	-0.473981
C105	C	0.571070	-0.115385	-0.447851
C106	C	0.600423	-0.169688	-0.473936
C107	C	0.571063	-0.115382	-0.395632
C108	C	0.541710	-0.061078	-0.369546
C109	C	0.512364	-0.006779	-0.395679
C110	C	0.512368	-0.006789	-0.447895
C111	C	0.629769	-0.223988	-0.447803
C112	C	0.629763	-0.223974	-0.395587
C113	C	0.600409	-0.169671	-0.369501
N114	N	0.571109	-0.115475	0.129186
H115	H	0.414012	-0.271274	-0.000044
N116	N	0.662475	0.171485	-0.000073
N117	N	0.701353	0.223611	-0.000085
H118	H	0.733464	0.197904	-0.000096
H119	H	0.025133	-0.346227	-0.000071
N120	N	0.705062	0.323855	-0.000078
N121	N	0.715409	0.273933	-0.035046
H122	H	0.747514	0.248204	-0.035051
H123	H	0.343225	0.028769	-0.000046
H124	H	-0.034241	0.118227	-0.000075
H125	H	0.694095	0.501837	-0.000081
H126	H	0.517852	-0.016957	-0.866001
H127	H	0.434700	0.027028	-0.000045
N128	N	0.482395	0.048691	-0.474583
N129	N	0.501231	0.108544	-0.503723
H130	H	0.480062	0.147732	-0.522569
N131	N	0.511770	-0.005650	-0.765876
N132	N	0.485574	0.042826	-0.789222
H133	H	0.464401	0.082027	-0.770415
H134	H	0.488481	0.037397	-0.625815
N135	N	0.482389	0.048674	-0.525695
N136	N	0.456191	0.097142	-0.549042
H137	H	0.435008	0.136328	-0.530236
N138	N	0.511698	-0.005605	-0.234343
N139	N	0.485491	0.042868	-0.211039
H140	H	0.464312	0.082044	-0.229880
N141	N	0.180437	-0.366216	-0.000061
N142	N	0.207307	-0.385121	0.034906
H143	H	0.221382	-0.444772	0.034905
H144	H	-0.066336	-0.344483	-0.000076
N145	N	0.482390	0.048695	-0.369017
N146	N	0.501232	0.108536	-0.339882
H147	H	0.480067	0.147716	-0.321048
N148	N	0.511697	-0.005599	-0.128782
N149	N	0.511700	-0.005609	-0.082159
H150	H	0.490528	0.033562	-0.063328
H151	H	0.624277	-0.213892	-0.134123
N152	N	0.630383	-0.225146	-0.234246
N153	N	0.656581	-0.273619	-0.210901
H154	H	0.677764	-0.312802	-0.229708
H155	H	0.057215	0.116492	-0.000073
H156	H	0.653691	-0.268215	-0.530975
H157	H	0.653702	-0.268219	-0.625699
N158	N	0.484469	0.125558	-0.000039
N159	N	0.444736	0.157404	-0.000031
H160	H	0.413315	0.115307	-0.000021
H161	H	0.624346	-0.213986	-0.771183
H162	H	0.624357	-0.213989	-0.865924
H163	H	-0.201097	-0.259624	-0.000069
H164	H	0.653663	-0.268198	-0.374316
N165	N	0.659759	-0.279463	-0.474437
N166	N	0.685958	-0.327934	-0.451092
H167	H	0.707140	-0.367120	-0.469900
H168	H	0.322551	-0.269550	-0.000058
H169	H	0.084927	-0.347360	-0.000068
H170	H	-0.292571	-0.257881	-0.000073
H171	H	-0.180417	0.038693	-0.000074
N172	N	-0.275912	0.057564	-0.000074
N173	N	-0.266465	0.112513	-0.035044
H174	H	-0.280527	0.172178	-0.035050
H175	H	0.208478	0.113633	-0.000079
N176	N	0.112983	0.132513	-0.000076
N177	N	0.140594	0.205471	-0.000078
H178	H	0.126535	0.265138	-0.000079
H179	H	0.448033	0.267307	-0.000046
H180	H	0.446296	0.437903	-0.000044
H181	H	0.488884	0.590297	-0.000051
H182	H	0.648630	0.631509	-0.000076
