data_functionalizedCrystal
_audit_creation_method	'MofGen! by Chris Wilmer'
_symmetry_space_group_name_H-M	'P1'
_symmetry_Int_Tables_number	1
_symmetry_cell_setting	triclinic
loop_
_symmetry_equiv_pos_as_xyz
  x,y,z
_cell_length_a	12.837943
_cell_length_b	15.625429
_cell_length_c	11.892095
_cell_angle_alpha	75.870647
_cell_angle_beta	85.689438
_cell_angle_gamma	89.268331
loop_
_atom_site_label
_atom_site_type_symbol
_atom_site_fract_x
_atom_site_fract_y
_atom_site_fract_z
O1	O	1.388877	0.224125	-0.185840
O2	O	1.086729	0.212802	-0.181206
O3	O	1.242181	0.090810	-0.131198
O4	O	1.233425	0.346116	-0.235849
O5	O	1.229220	0.100965	0.052647
O6	O	1.073767	0.222956	0.002639
O7	O	1.375916	0.234279	-0.001995
Zn8	Zn	1.222783	0.230229	0.029511
Zn9	Zn	1.239861	0.216851	-0.212713
O10	O	1.220463	0.356270	-0.052004
C11	C	1.041511	0.214054	-0.087717
C12	C	0.926089	0.202646	-0.083044
C13	C	0.689289	0.339786	-0.139242
C14	C	0.580838	0.329071	-0.134852
C15	C	0.600734	0.170505	-0.069867
C16	C	0.709185	0.181219	-0.074257
C17	C	0.753458	0.265862	-0.108947
C18	C	0.861911	0.276575	-0.113345
C19	C	0.881805	0.118010	-0.048352
C20	C	0.773354	0.107296	-0.043962
C21	C	1.234020	0.062982	-0.025790
C22	C	1.229002	-0.035065	0.014393
C23	C	1.247793	-0.385208	-0.354477
C24	C	1.243070	-0.477336	-0.316685
C25	C	1.228940	-0.466253	-0.116270
C26	C	1.233667	-0.374122	-0.154046
C27	C	1.243092	-0.333607	-0.273151
C28	C	1.228966	-0.322521	-0.072719
C29	C	1.233687	-0.230398	-0.110492
C30	C	1.243108	-0.189875	-0.229592
C31	C	1.247812	-0.241483	-0.310924
C32	C	1.219534	-0.363038	0.046385
C33	C	1.214833	-0.311437	0.127712
C34	C	1.219561	-0.219312	0.089940
C35	C	1.228982	-0.178790	-0.029160
C36	C	1.214857	-0.167704	0.171271
C37	C	1.219577	-0.075581	0.133498
C38	C	1.233703	-0.086666	-0.066933
C39	C	1.421133	0.233026	-0.095487
C40	C	1.536557	0.244434	-0.100167
C41	C	1.228624	0.384098	-0.157415
C42	C	1.233643	0.482145	-0.197605
N43	N	1.211136	0.239360	0.194822
N44	N	1.251517	0.207714	-0.378021
C45	C	1.332564	0.144130	0.470508
C46	C	1.324431	0.150519	0.586231
C47	C	1.186730	0.258522	0.541995
C48	C	1.194864	0.252133	0.426272
C49	C	1.267784	0.194936	0.390533
C50	C	1.275923	0.188552	0.274806
C51	C	1.138217	0.296550	0.230574
C52	C	1.130084	0.302939	0.346297
H53	H	0.897956	0.345496	-0.141590
Cl54	Cl	1.095053	0.330413	0.586940
Cl55	Cl	0.744952	0.446190	-0.182867
H56	H	1.335301	0.141982	0.245709
H57	H	0.528594	0.389268	-0.159519
H58	H	0.564661	0.101597	-0.041532
H59	H	1.255477	-0.352218	-0.451464
Cl60	Cl	0.717685	0.000893	-0.000350
Cl61	Cl	1.202988	-0.218648	0.320997
H62	H	0.934064	0.057815	-0.023691
H63	H	1.377180	0.109146	0.651346
H64	H	1.241387	-0.053677	-0.163920
Cl65	Cl	1.424245	0.072236	0.425574
Cl66	Cl	1.249048	-0.074061	-0.277081
H67	H	1.070710	0.349506	0.375410
Cl68	Cl	1.259677	-0.190543	-0.460659
Cl69	Cl	1.213674	-0.010706	0.235738
H70	H	1.246889	-0.519347	-0.382920
H71	H	1.085472	0.337923	0.165442
H72	H	1.221263	-0.499254	-0.019294
H73	H	1.215679	-0.438051	0.077136
H74	H	1.207155	-0.344437	0.224688
