data_functionalizedCrystal
_audit_creation_method	'MofGen! by Chris Wilmer'
_symmetry_space_group_name_H-M	'P1'
_symmetry_Int_Tables_number	1
_symmetry_cell_setting	triclinic
loop_
_symmetry_equiv_pos_as_xyz
  x,y,z
_cell_length_a	9.065215
_cell_length_b	10.489716
_cell_length_c	8.140239
_cell_angle_alpha	90.000891
_cell_angle_beta	89.997013
_cell_angle_gamma	84.771917
loop_
_atom_site_label
_atom_site_type_symbol
_atom_site_fract_x
_atom_site_fract_y
_atom_site_fract_z
O1	O	1.959479	0.187026	-0.136578
O2	O	1.530118	0.202372	-0.136584
O3	O	1.754588	0.009135	-0.136586
O4	O	1.735010	0.380264	-0.136575
O5	O	1.754572	0.009134	0.136641
O6	O	1.530102	0.202372	0.136643
O7	O	1.959463	0.187026	0.136649
Zn8	Zn	1.744780	0.194699	0.180027
Zn9	Zn	1.744801	0.194699	-0.179961
O10	O	1.734994	0.380263	0.136652
C11	C	1.475131	0.200898	0.000029
C12	C	1.311310	0.196491	0.000026
C13	C	1.753109	-0.038403	0.000022
C14	C	1.748708	-0.180050	0.000007
C15	C	1.886359	-0.277228	0.000024
C16	C	1.813629	-0.354850	-0.134688
C17	C	1.813581	-0.354815	0.134692
C18	C	1.676035	-0.255807	-0.134816
C19	C	1.676008	-0.255766	0.134685
C20	C	1.603176	-0.333340	-0.000060
C21	C	2.014451	0.188500	0.000033
C22	C	2.178272	0.192907	0.000025
C23	C	1.736473	0.427801	0.000040
C24	C	1.740874	0.569448	0.000044
N25	N	1.744777	0.194697	0.425710
N26	N	1.744804	0.194697	0.574356
H27	H	2.006093	-0.252120	-0.000111
H28	H	1.871744	-0.398136	-0.248578
H29	H	1.617965	-0.212712	-0.248831
F30	F	1.889558	-0.411361	0.283552
F31	F	1.446560	-0.365840	-0.000152
F32	F	1.600137	-0.199132	0.283555
