data_functionalizedCrystal
_audit_creation_method	'MofGen! by Chris Wilmer'
_symmetry_space_group_name_H-M	'P1'
_symmetry_Int_Tables_number	1
_symmetry_cell_setting	triclinic
loop_
_symmetry_equiv_pos_as_xyz
  x,y,z
_cell_length_a	15.944551
_cell_length_b	17.699083
_cell_length_c	16.776229
_cell_angle_alpha	90.007545
_cell_angle_beta	90.002650
_cell_angle_gamma	83.390876
loop_
_atom_site_label
_atom_site_type_symbol
_atom_site_fract_x
_atom_site_fract_y
_atom_site_fract_z
O1	O	-1.114322	-0.097616	-0.066207
O2	O	-0.780989	0.235717	0.267127
O3	O	-0.447655	0.569051	0.600460
O4	O	-0.869747	-0.109651	-0.066227
O5	O	-0.536414	0.223683	0.267107
O6	O	-0.203080	0.557016	0.600440
O7	O	-0.998944	0.006544	-0.066209
O8	O	-0.665611	0.339877	0.267124
O9	O	-0.332278	0.673211	0.600458
O10	O	-0.985125	-0.213811	-0.066224
O11	O	-0.651791	0.119523	0.267109
O12	O	-0.318458	0.452856	0.600442
O13	O	-0.998927	0.006551	0.066367
O14	O	-0.665594	0.339885	0.399701
O15	O	-0.332260	0.673218	0.733034
O16	O	-0.869730	-0.109643	0.066350
O17	O	-0.536396	0.223690	0.399683
O18	O	-0.203063	0.557023	0.733016
O19	O	-1.114305	-0.097609	0.066370
O20	O	-0.780971	0.235725	0.399703
O21	O	-0.447638	0.569058	0.733036
Zn22	Zn	-0.992015	-0.103625	0.087409
Zn23	Zn	-0.658681	0.229708	0.420743
Zn24	Zn	-0.325348	0.563042	0.754076
Zn25	Zn	-0.992037	-0.103634	-0.087266
Zn26	Zn	-0.658704	0.229699	0.246067
Zn27	Zn	-0.325370	0.563032	0.579401
O28	O	-0.985107	-0.213803	0.066352
O29	O	-0.651774	0.119530	0.399686
O30	O	-0.318441	0.452863	0.733019
C31	C	-0.998440	0.034746	0.000079
C32	C	-0.665107	0.368079	0.333413
C33	C	-0.331774	0.701412	0.666746
C34	C	-0.996955	0.118766	0.000079
C35	C	-0.663622	0.452100	0.333413
C36	C	-0.330288	0.785433	0.666746
C37	C	-0.838445	-0.109147	0.000059
C38	C	-0.505112	0.224186	0.333392
C39	C	-0.171779	0.557519	0.666726
C40	C	-0.745203	-0.107650	0.000052
C41	C	-0.411869	0.225684	0.333385
C42	C	-0.078536	0.559017	0.666718
C43	C	-1.145606	-0.098112	0.000082
C44	C	-0.812273	0.235221	0.333416
C45	C	-0.478940	0.568555	0.666749
C46	C	-1.238849	-0.099610	0.000084
C47	C	-0.905516	0.233724	0.333418
C48	C	-0.572182	0.567057	0.666751
C49	C	-0.530505	-0.032046	0.000072
C50	C	-0.197171	0.301287	0.333406
C51	C	0.136162	0.634620	0.666739
C52	C	-0.469419	-0.067158	-0.065297
C53	C	-0.136086	0.266176	0.268036
C54	C	0.197247	0.599509	0.601369
C55	C	-0.574482	-0.104940	0.000061
C56	C	-0.241149	0.228393	0.333395
C57	C	0.092184	0.561727	0.666728
C58	C	-0.469425	-0.067168	0.065413
C59	C	-0.136091	0.266166	0.398746
C60	C	0.197242	0.599499	0.732079
C61	C	-0.409575	-0.102317	0.000074
C62	C	-0.076242	0.231016	0.333407
C63	C	0.257091	0.564350	0.666741
C64	C	-0.514625	-0.140071	-0.065362
C65	C	-0.181292	0.193262	0.267971
C66	C	0.152042	0.526596	0.601304
C67	C	-0.514637	-0.140071	0.065406
C68	C	-0.181303	0.193262	0.398740
C69	C	0.152030	0.526596	0.732073
C70	C	-0.453569	-0.175235	0.000021
C71	C	-0.120235	0.158098	0.333354
C72	C	0.213098	0.491432	0.666687
C73	C	-0.669481	-0.106449	0.000053
C74	C	-0.336148	0.226885	0.333387
C75	C	-0.002815	0.560218	0.666720
C76	C	-0.314577	-0.100814	0.000076
C77	C	0.018756	0.232519	0.333410
C78	C	0.352089	0.565853	0.666743
C79	C	-0.985611	-0.242005	0.000062
C80	C	-0.652278	0.091328	0.333395
C81	C	-0.318944	0.424662	0.666729
C82	C	-0.987097	-0.326026	0.000057
C83	C	-0.653763	0.007308	0.333390
C84	C	-0.320430	0.340641	0.666723
N85	N	-0.992005	-0.103618	0.206620
N86	N	-0.658672	0.229715	0.539954
N87	N	-0.325339	0.563049	0.873287
C88	C	-1.072791	0.167258	0.000087
C89	C	-0.739458	0.500591	0.333420
C90	C	-0.406124	0.833924	0.666753
C91	C	-1.071390	0.246203	0.000080
C92	C	-0.738057	0.579537	0.333413
C93	C	-0.404723	0.912870	0.666746
C94	C	-0.994152	0.276656	0.000071
C95	C	-0.660819	0.609989	0.333404
C96	C	-0.327486	0.943323	0.666737
C97	C	-0.918310	0.228158	0.000061
C98	C	-0.584977	0.561492	0.333394
C99	C	-0.251644	0.894825	0.666728
C100	C	-0.919712	0.149214	0.000063
C101	C	-0.586379	0.482548	0.333396
C102	C	-0.253045	0.815881	0.666729
C103	C	-0.912656	0.546531	0.000054
C104	C	-0.579322	0.879864	0.333387
C105	C	-0.245989	1.213198	0.666721
C106	C	-0.911260	0.625481	0.000055
C107	C	-0.577926	0.958815	0.333388
C108	C	-0.244593	1.292148	0.666722
C109	C	-1.064334	0.643520	0.000071
C110	C	-0.731000	0.976854	0.333405
C111	C	-0.397667	1.310187	0.666738
C112	C	-1.065735	0.564576	0.000073
C113	C	-0.732402	0.897909	0.333406
C114	C	-0.399069	1.231243	0.666739
C115	C	-0.989894	0.516085	0.000059
C116	C	-0.656561	0.849419	0.333392
C117	C	-0.323227	1.182752	0.666725
C118	C	-0.991414	0.430484	0.000065
C119	C	-0.658081	0.763817	0.333398
C120	C	-0.324747	1.097150	0.666732
C121	C	-0.992632	0.362256	0.000070
C122	C	-0.659298	0.695590	0.333404
C123	C	-0.325965	1.028923	0.666737
N124	N	-0.992053	-0.103635	-0.206477
N125	N	-0.658720	0.229698	0.126856
N126	N	-0.325386	0.563031	0.460189
C127	C	-1.049231	-0.052188	0.248345
C128	C	-0.715898	0.281145	0.581679
C129	C	-0.382565	0.614479	0.915012
C130	C	-1.049236	-0.052187	0.331797
C131	C	-0.715903	0.281146	0.665131
C132	C	-0.382569	0.614479	0.998464
C133	C	-0.992018	-0.103621	0.373523
C134	C	-0.658685	0.229712	0.706857
C135	C	-0.325351	0.563046	1.040190
C136	C	-0.934786	-0.155053	0.331793
C137	C	-0.601453	0.178280	0.665126
C138	C	-0.268119	0.511613	0.998459
C139	C	-0.934778	-0.155050	0.248342
C140	C	-0.601445	0.178284	0.581675
C141	C	-0.268111	0.511617	0.915009
C142	C	-0.934816	-0.155068	0.668340
C143	C	-0.601483	0.178265	1.001673
C144	C	-0.268150	0.511598	1.335006
C145	C	-0.934830	-0.155069	0.751796
C146	C	-0.601497	0.178264	1.085130
C147	C	-0.268164	0.511597	1.418463
C148	C	-1.049274	-0.052206	0.751795
C149	C	-0.715941	0.281127	1.085129
C150	C	-0.382608	0.614461	1.418462
C151	C	-1.049266	-0.052202	0.668345
C152	C	-0.715933	0.281131	1.001678
C153	C	-0.382600	0.614464	1.335011
C154	C	-0.992032	-0.103632	0.626621
C155	C	-0.658698	0.229702	0.959955
C156	C	-0.325365	0.563035	1.293288
C157	C	-0.992026	-0.103631	0.536133
C158	C	-0.658693	0.229702	0.869466
C159	C	-0.325360	0.563036	1.202800
C160	C	-0.992027	-0.103626	0.464010
C161	C	-0.658693	0.229707	0.797343
C162	C	-0.325360	0.563041	1.130677
H163	H	-0.563965	0.028449	-0.000004
H164	H	-0.230632	0.361783	0.333329
H165	H	0.102702	0.695116	0.666662
H166	H	-0.449396	-0.036320	0.120676
H167	H	-0.116063	0.297013	0.454009
H168	H	0.217270	0.630346	0.787342
H169	H	-1.126087	0.683011	0.000078
H170	H	-0.792754	1.016345	0.333412
H171	H	-0.459421	1.349678	0.666745
H172	H	-0.848360	0.650272	0.000049
H173	H	-0.515026	0.983606	0.333383
H174	H	-0.181693	1.316939	0.666716
H175	H	-0.449381	-0.036330	-0.120559
H176	H	-0.116048	0.297004	0.212775
H177	H	0.217286	0.630337	0.546108
H178	H	-0.420283	-0.235793	-0.000020
H179	H	-0.086949	0.097540	0.333313
H180	H	0.246384	0.430874	0.666647
H181	H	-1.095861	-0.010323	0.634374
H182	H	-0.762528	0.323010	0.967707
H183	H	-0.429194	0.656344	1.301041
H184	H	-0.534555	-0.170882	-0.120688
H185	H	-0.201222	0.162452	0.212646
H186	H	0.132112	0.495785	0.545979
N187	N	-0.541182	-0.180894	0.138606
N188	N	-0.207849	0.152439	0.471939
N189	N	0.125484	0.485773	0.805272
H190	H	-0.524924	-0.153313	0.187961
H191	H	-0.191591	0.180020	0.521295
H192	H	0.141743	0.513354	0.854628
H193	H	-0.604358	-0.182041	0.137727
H194	H	-0.271025	0.151292	0.471060
H195	H	0.062308	0.484625	0.804394
H196	H	-1.095833	-0.010309	0.365770
H197	H	-0.762500	0.323024	0.699103
H198	H	-0.429166	0.656358	1.032436
N199	N	-0.830859	0.494237	0.000044
N200	N	-0.497526	0.827570	0.333377
N201	N	-0.164192	1.160904	0.666711
H202	H	-0.797162	0.504033	-0.049104
H203	H	-0.463828	0.837366	0.284229
H204	H	-0.130495	1.170699	0.617562
H205	H	-0.797216	0.504064	0.049220
H206	H	-0.463883	0.837397	0.382554
H207	H	-0.130549	1.170731	0.715887
N208	N	-1.156098	0.134415	0.000104
N209	N	-0.822765	0.467748	0.333437
N210	N	-0.489432	0.801082	0.666770
H211	H	-1.203927	0.177116	0.000106
H212	H	-0.870594	0.510450	0.333439
H213	H	-0.537260	0.843783	0.666773
H214	H	-1.160022	0.102046	-0.049042
H215	H	-0.826689	0.435380	0.284291
H216	H	-0.493356	0.768713	0.617625
N217	N	-1.153184	0.298506	0.000092
N218	N	-0.819851	0.631839	0.333425
N219	N	-0.486518	0.965172	0.666759
H220	H	-1.202326	0.267235	0.000105
H221	H	-0.868993	0.600568	0.333438
H222	H	-0.535660	0.933902	0.666772
H223	H	-1.155923	0.331658	0.049240
H224	H	-0.822590	0.664991	0.382574
H225	H	-0.489256	0.998325	0.715907
H226	H	-1.128630	0.539786	0.000084
H227	H	-0.795297	0.873120	0.333417
H228	H	-0.461964	1.206453	0.666750
H229	H	-0.855422	0.252959	0.000049
H230	H	-0.522089	0.586292	0.333382
H231	H	-0.188755	0.919626	0.666716
H232	H	-1.095828	-0.010308	0.214378
H233	H	-0.762495	0.323025	0.547711
H234	H	-0.429161	0.656358	0.881044
H235	H	-0.857958	0.109733	0.000056
H236	H	-0.524625	0.443066	0.333390
H237	H	-0.191292	0.776399	0.666723
H238	H	-1.095875	-0.010327	0.785775
H239	H	-0.762542	0.323006	1.119109
H240	H	-0.429209	0.656340	1.452442
N241	N	-0.873109	-0.210542	0.796804
N242	N	-0.539776	0.122791	1.130137
N243	N	-0.206443	0.456125	1.463470
H244	H	-0.836846	-0.243120	0.757710
H245	H	-0.503513	0.090214	1.091043
H246	H	-0.170180	0.423547	1.424377
H247	H	-0.836051	-0.181536	0.831439
H248	H	-0.502718	0.151797	1.164772
H249	H	-0.169385	0.485131	1.498105
N250	N	-0.873084	-0.210532	0.623344
N251	N	-0.539750	0.122802	0.956677
N252	N	-0.206417	0.456135	1.290011
H253	H	-0.836840	-0.243114	0.662442
H254	H	-0.503507	0.090219	0.995776
H255	H	-0.170174	0.423553	1.329109
H256	H	-0.905156	-0.244013	0.588704
H257	H	-0.571823	0.089321	0.922037
H258	H	-0.238490	0.422654	1.255371
N259	N	-0.873065	-0.210524	0.376792
N260	N	-0.539732	0.122809	0.710126
N261	N	-0.206398	0.456142	1.043459
H262	H	-0.881754	-0.202725	0.435990
H263	H	-0.548420	0.130609	0.769323
H264	H	-0.215087	0.463942	1.102656
H265	H	-0.882650	-0.264223	0.362193
H266	H	-0.549317	0.069110	0.695526
H267	H	-0.215984	0.402444	1.028859
N268	N	-0.873052	-0.210516	0.203334
N269	N	-0.539718	0.122817	0.536668
N270	N	-0.206385	0.456150	0.870001
H271	H	-0.836805	-0.243101	0.242429
H272	H	-0.503472	0.090233	0.575762
H273	H	-0.170139	0.423566	0.909095
H274	H	-0.905129	-0.243995	0.168696
H275	H	-0.571796	0.089338	0.502030
H276	H	-0.238462	0.422671	0.835363
