data_functionalizedCrystal
_audit_creation_method	'MofGen! by Chris Wilmer'
_symmetry_space_group_name_H-M	'P1'
_symmetry_Int_Tables_number	1
_symmetry_cell_setting	triclinic
loop_
_symmetry_equiv_pos_as_xyz
  x,y,z
_cell_length_a	17.699104
_cell_length_b	14.853559
_cell_length_c	16.776229
_cell_angle_alpha	89.995543
_cell_angle_beta	89.991971
_cell_angle_gamma	83.461486
loop_
_atom_site_label
_atom_site_type_symbol
_atom_site_fract_x
_atom_site_fract_y
_atom_site_fract_z
O1	O	1.004362	0.114098	-0.066300
O2	O	1.504362	0.614098	0.433700
O3	O	0.784024	0.128911	-0.066298
O4	O	1.284024	0.628911	0.433702
O5	O	0.900082	-0.009747	-0.066299
O6	O	1.400082	0.490253	0.433701
O7	O	0.888304	0.252756	-0.066300
O8	O	1.388304	0.752756	0.433700
O9	O	0.900066	-0.009755	0.066278
O10	O	1.400066	0.490245	0.566278
O11	O	0.784008	0.128903	0.066278
O12	O	1.284008	0.628903	0.566278
O13	O	1.004346	0.114090	0.066276
O14	O	1.504346	0.614090	0.566276
Zn15	Zn	0.894175	0.121495	0.087327
Zn16	Zn	1.394175	0.621495	0.587327
Zn17	Zn	0.894195	0.121506	-0.087349
Zn18	Zn	1.394195	0.621506	0.412651
O19	O	0.888288	0.252748	0.066276
O20	O	1.388288	0.752748	0.566276
C21	C	0.755818	0.128373	-0.000010
C22	C	1.255818	0.628373	0.499990
C23	C	0.671796	0.126771	-0.000009
C24	C	1.171796	0.626771	0.499991
C25	C	0.147111	0.199126	-0.000018
C26	C	0.647111	0.699126	0.499982
C27	C	0.226059	0.200626	-0.000020
C28	C	0.726059	0.700626	0.499980
C29	C	0.274467	0.119228	-0.000019
C30	C	0.774467	0.619228	0.499981
C31	C	0.243925	0.036326	-0.000024
C32	C	0.743925	0.536326	0.499976
C33	C	0.164978	0.034827	-0.000028
C34	C	0.664978	0.534827	0.499972
C35	C	0.562306	0.042368	-0.000012
C36	C	1.062306	0.542368	0.499988
C37	C	0.641257	0.043874	-0.000006
C38	C	1.141257	0.543874	0.499994
C39	C	0.623387	0.208167	-0.000004
C40	C	1.123387	0.708167	0.499996
C41	C	0.544440	0.206669	-0.000007
C42	C	1.044440	0.706669	0.499993
C43	C	0.513905	0.123767	-0.000016
C44	C	1.013905	0.623767	0.499984
C45	C	0.428301	0.122141	-0.000015
C46	C	0.928301	0.622141	0.499985
C47	C	0.360070	0.120853	-0.000014
C48	C	0.860070	0.620853	0.499986
C49	C	0.899541	-0.043338	-0.000012
C50	C	1.399541	0.456662	0.499988
C51	C	0.897946	-0.143416	-0.000016
C52	C	1.397946	0.356584	0.499984
C53	C	0.891184	-0.566563	-0.072284
C54	C	1.391184	-0.066563	0.427716
C55	C	0.891167	-0.566566	0.072256
C56	C	1.391167	-0.066566	0.572256
C57	C	0.892673	-0.472539	0.072257
C58	C	1.392673	0.027461	0.572257
C59	C	0.893433	-0.425518	-0.000014
C60	C	1.393433	0.074482	0.499986
C61	C	0.892688	-0.472526	-0.072285
C62	C	1.392688	0.027474	0.427715
C63	C	0.893411	-0.425523	0.144527
C64	C	1.393411	0.074477	0.644527
C65	C	0.894916	-0.331489	0.144531
C66	C	1.394916	0.168511	0.644531
C67	C	0.895681	-0.284468	0.072259
C68	C	1.395681	0.215532	0.572259
C69	C	0.894937	-0.331481	-0.000015
C70	C	1.394937	0.168519	0.499985
C71	C	0.895697	-0.284461	-0.072286
C72	C	1.395697	0.215539	0.427714
C73	C	0.894958	-0.331473	-0.144561
C74	C	1.394958	0.168527	0.355439
C75	C	0.893453	-0.425504	-0.144557
C76	C	1.393453	0.074496	0.355443
C77	C	0.897185	-0.190437	0.072255
C78	C	1.397185	0.309563	0.572255
C79	C	0.897200	-0.190424	-0.072288
C80	C	1.397200	0.309576	0.427712
C81	C	1.032552	0.114628	-0.000014
C82	C	1.532552	0.614628	0.499986
C83	C	1.116573	0.116230	-0.000020
C84	C	1.616573	0.616230	0.499980
C85	C	0.888828	0.286339	-0.000012
C86	C	1.388828	0.786339	0.499988
C87	C	0.890424	0.386417	-0.000013
C88	C	1.390424	0.886417	0.499987
N89	N	0.894166	0.121487	0.206538
N90	N	1.394166	0.621487	0.706538
N91	N	0.894209	0.121507	-0.206560
N92	N	1.394209	0.621507	0.293440
C93	C	0.945573	0.060114	0.248255
C94	C	1.445573	0.560114	0.748255
C95	C	0.945577	0.060113	0.331707
C96	C	1.445577	0.560113	0.831707
C97	C	0.894178	0.121490	0.373441
C98	C	1.394178	0.621490	0.873441
C99	C	0.842766	0.182866	0.331718
C100	C	1.342766	0.682866	0.831718
C101	C	0.842759	0.182861	0.248267
C102	C	1.342759	0.682861	0.748267
C103	C	0.842794	0.182883	0.668265
C104	C	1.342794	0.682883	1.168265
C105	C	0.842806	0.182885	0.751722
C106	C	1.342806	0.682885	1.251722
C107	C	0.945611	0.060135	0.751705
C108	C	1.445611	0.560135	1.251705
C109	C	0.945604	0.060131	0.668254
C110	C	1.445604	0.560131	1.168254
C111	C	0.894190	0.121503	0.626539
C112	C	1.394190	0.621503	1.126539
C113	C	0.894185	0.121502	0.536050
C114	C	1.394185	0.621502	1.036050
C115	C	0.894186	0.121496	0.463928
C116	C	1.394186	0.621496	0.963928
H117	H	0.537454	-0.025135	-0.000017
H118	H	1.037454	0.474865	0.499983
H119	H	0.895571	-0.293176	-0.203404
H120	H	1.395571	0.206824	0.296596
C121	C	1.002140	-0.007386	0.622351
C122	C	1.502140	0.492614	1.122351
H123	H	1.032753	-0.043945	0.659149
H124	H	1.532753	0.456055	1.159149
H125	H	1.033673	0.024996	0.589783
H126	H	1.533673	0.524996	1.089783
H127	H	0.974868	-0.044880	0.589811
H128	H	1.474868	0.455120	1.089811
C129	C	0.786215	0.250371	0.202375
C130	C	1.286215	0.750371	0.702375
H131	H	0.793567	0.241573	0.146698
H132	H	1.293567	0.741573	0.646698
H133	H	0.794492	0.310531	0.216041
H134	H	1.294492	0.810531	0.716041
H135	H	0.735696	0.240644	0.216066
H136	H	1.235696	0.740644	0.716066
C137	C	0.491192	0.296203	-0.000010
C138	C	0.991192	0.796203	0.499990
H139	H	0.439801	0.283437	-0.000007
H140	H	0.939801	0.783437	0.499993
H141	H	0.500468	0.330204	-0.046243
H142	H	1.000468	0.830204	0.453757
H143	H	0.500450	0.330200	0.046228
H144	H	1.000450	0.830200	0.546228
H145	H	0.987435	0.010138	0.365672
H146	H	1.487435	0.510138	0.865672
C147	C	0.786263	0.250396	0.797631
C148	C	1.286263	0.750396	1.297631
H149	H	0.793639	0.241613	0.853306
H150	H	1.293639	0.741613	1.353306
H151	H	0.735743	0.240672	0.783974
H152	H	1.235743	0.740672	1.283974
H153	H	0.794539	0.310559	0.783946
H154	H	1.294539	0.810559	1.283946
C155	C	0.897996	-0.138722	0.151744
C156	C	1.397996	0.361278	0.651744
H157	H	0.898997	-0.075986	0.141394
H158	H	1.398997	0.424014	0.641394
H159	H	0.941843	-0.161105	0.181444
H160	H	1.441843	0.338895	0.681444
H161	H	0.853636	-0.147162	0.181433
H162	H	1.353636	0.352838	0.681433
C163	C	1.002111	-0.007403	0.202355
C164	C	1.502111	0.492597	0.702355
H165	H	1.032722	-0.043960	0.239155
H166	H	1.532722	0.456040	0.739155
H167	H	1.033645	0.024979	0.169788
H168	H	1.533645	0.524979	0.669788
H169	H	0.974841	-0.044899	0.169814
H170	H	1.474841	0.455101	0.669814
H171	H	0.890585	-0.604845	-0.131128
H172	H	1.390585	-0.104845	0.368872
H173	H	0.895520	-0.293220	0.203382
H174	H	1.395520	0.206780	0.703382
C175	C	0.656978	0.299360	-0.000006
C176	C	1.156978	0.799360	0.499994
H177	H	0.710928	0.288599	-0.000013
H178	H	1.210928	0.788599	0.499987
H179	H	0.640363	0.332864	0.046226
H180	H	1.140363	0.832864	0.546226
H181	H	0.640374	0.332868	-0.046244
H182	H	1.140374	0.832868	0.453756
C183	C	0.890334	-0.618286	0.151747
C184	C	1.390334	-0.118286	0.651747
H185	H	0.889337	-0.681022	0.141397
H186	H	1.389337	-0.181022	0.641397
H187	H	0.846480	-0.595909	0.181448
H188	H	1.346480	-0.095909	0.681448
H189	H	0.934687	-0.609851	0.181435
H190	H	1.434687	-0.109851	0.681435
H191	H	0.800932	0.232856	0.634307
H192	H	1.300932	0.732856	1.134307
C193	C	0.892630	-0.477217	-0.224050
C194	C	1.392630	0.022783	0.275950
H195	H	0.891616	-0.539951	-0.213696
H196	H	1.391616	-0.039951	0.286304
H197	H	0.936979	-0.468782	-0.253751
H198	H	1.436979	0.031218	0.246249
H199	H	0.848772	-0.454832	-0.253739
H200	H	1.348772	0.045168	0.246261
H201	H	0.680671	-0.022414	-0.000007
H202	H	1.180671	0.477586	0.499993
H203	H	0.107702	0.265410	-0.000012
H204	H	0.607702	0.765410	0.499988
C205	C	0.892581	-0.477246	0.224017
C206	C	1.392581	0.022754	0.724017
H207	H	0.891592	-0.539982	0.213665
H208	H	1.391592	-0.039982	0.713665
H209	H	0.848725	-0.454876	0.253718
H210	H	1.348725	0.045124	0.753718
H211	H	0.936932	-0.468803	0.253706
H212	H	1.436932	0.031197	0.753706
H213	H	0.283345	-0.029950	-0.000029
H214	H	0.783345	0.470050	0.499971
C215	C	0.131386	-0.056359	-0.000028
C216	C	0.631386	0.443641	0.499972
H217	H	0.171522	-0.104622	-0.000021
H218	H	0.671522	0.395378	0.499979
H219	H	0.100969	-0.060355	-0.046262
H220	H	0.600969	0.439645	0.453738
H221	H	0.100954	-0.060362	0.046208
H222	H	0.600954	0.439638	0.546208
C223	C	0.898036	-0.138708	-0.151787
C224	C	1.398036	0.361292	0.348213
H225	H	0.897375	-0.180175	-0.194827
H226	H	1.397375	0.319825	0.305173
H227	H	0.942721	-0.108991	-0.154793
H228	H	1.442721	0.391009	0.345207
H229	H	0.854513	-0.095060	-0.154792
H230	H	1.354513	0.404940	0.345208
H231	H	0.250919	0.268128	-0.000025
H232	H	0.750919	0.768128	0.499975
H233	H	0.987473	0.010160	0.785678
H234	H	1.487473	0.510160	1.285678
H235	H	0.800912	0.232837	0.365702
H236	H	1.300912	0.732837	0.865702
