data_functionalizedCrystal
_audit_creation_method	'MofGen! by Chris Wilmer'
_symmetry_space_group_name_H-M	'P1'
_symmetry_Int_Tables_number	1
_symmetry_cell_setting	triclinic
loop_
_symmetry_equiv_pos_as_xyz
  x,y,z
_cell_length_a	14.853567
_cell_length_b	15.995350
_cell_length_c	13.930277
_cell_angle_alpha	89.997676
_cell_angle_beta	89.995755
_cell_angle_gamma	83.563653
loop_
_atom_site_label
_atom_site_type_symbol
_atom_site_fract_x
_atom_site_fract_y
_atom_site_fract_z
O1	O	1.196221	0.109317	-0.079760
O2	O	0.933744	0.122339	-0.079776
O3	O	1.072157	-0.006051	-0.079766
O4	O	1.057808	0.237707	-0.079769
O5	O	1.072138	-0.006054	0.079895
O6	O	0.933725	0.122336	0.079886
O7	O	1.196202	0.109314	0.079902
Zn8	Zn	1.064960	0.115825	0.105244
Zn9	Zn	1.064986	0.115828	-0.105117
O10	O	1.057788	0.237705	0.079893
C11	C	0.900146	0.121748	0.000053
C12	C	0.800065	0.119980	0.000047
C13	C	0.387644	0.036238	0.000069
C14	C	0.366158	0.188769	0.000067
C15	C	0.460189	0.190432	0.000064
C16	C	0.517953	0.114996	0.000062
C17	C	0.481685	0.037899	0.000063
C18	C	0.496464	0.267528	0.000053
C19	C	0.590501	0.269194	0.000048
C20	C	0.648266	0.193758	0.000054
C21	C	0.611993	0.116657	0.000056
C22	C	0.669757	0.041221	0.000054
C23	C	0.633485	-0.035880	0.000064
C24	C	0.539450	-0.037538	0.000069
C25	C	0.742302	0.195415	0.000049
C26	C	0.763797	0.042882	0.000048
C27	C	1.071555	-0.037248	0.000063
C28	C	1.069776	-0.130201	0.000057
C29	C	1.063389	-0.467956	0.000060
C30	C	0.964813	-0.420636	-0.000304
C31	C	0.966592	-0.323944	0.000056
C32	C	1.066557	-0.300391	0.000058
C33	C	1.115167	-0.341414	0.091234
C34	C	1.112691	-0.438052	0.091310
C35	C	1.114749	-0.438405	-0.090255
C36	C	1.114726	-0.341460	-0.091460
C37	C	1.068353	-0.205692	0.000060
C38	C	1.061596	-0.562655	0.000064
C39	C	1.229799	0.109906	0.000071
C40	C	1.329881	0.111674	0.000071
C41	C	1.058391	0.268901	0.000062
C42	C	1.060170	0.361854	0.000061
N43	N	1.064950	0.115822	0.248810
N44	N	1.065003	0.115825	-0.248684
C45	C	1.003694	0.172657	0.701075
C46	C	1.126302	0.058993	0.701053
C47	C	1.126292	0.058990	0.600557
C48	C	1.064982	0.115823	0.550316
C49	C	1.003683	0.172658	0.600570
C50	C	1.187595	0.002162	0.550295
C51	C	1.187588	0.002158	0.449793
C52	C	1.126273	0.058987	0.399550
C53	C	1.064971	0.115824	0.449811
C54	C	1.003661	0.172656	0.399569
C55	C	0.942354	0.229490	0.449828
C56	C	0.942368	0.229487	0.550327
C57	C	1.126259	0.058989	0.299051
C58	C	1.003651	0.172657	0.299064
H59	H	0.620025	0.331975	0.000041
N60	N	0.915627	-0.287092	0.086778
H61	H	0.957651	-0.257203	0.128322
H62	H	0.863165	-0.245750	0.065120
N63	N	0.826097	-0.038482	0.000058
H64	H	0.788848	-0.087572	0.000066
H65	H	0.865582	-0.041120	-0.059134
N66	N	0.915977	-0.286351	-0.086518
H67	H	0.945838	-0.310852	-0.146953
H68	H	0.851153	-0.299704	-0.084063
H69	H	0.509909	-0.100310	0.000099
H70	H	0.953721	0.218934	0.258164
N71	N	0.348531	-0.046919	0.000092
H72	H	0.280195	-0.036529	0.000102
H73	H	0.369658	-0.079936	-0.059095
N74	N	0.876255	0.290780	0.604542
H75	H	0.910713	0.327910	0.646226
H76	H	0.837424	0.326728	0.557412
H77	H	0.319121	0.250185	0.000060
H78	H	1.079186	-0.314251	-0.158910
N79	N	0.434166	0.348886	0.000044
H80	H	0.369093	0.336133	0.000054
H81	H	0.445910	0.382483	0.059228
N82	N	0.781426	0.278563	0.000028
H83	H	0.730564	0.326098	0.000024
H84	H	0.819971	0.282579	0.059215
H85	H	0.680529	-0.097299	0.000056
H86	H	0.925421	-0.439212	-0.065688
H87	H	0.925581	-0.440277	0.064711
H88	H	1.077228	-0.456396	0.159464
H89	H	1.188608	-0.327203	0.094626
H90	H	1.185063	-0.470216	0.095448
H91	H	0.892439	0.275767	0.408910
N92	N	0.937567	0.233950	0.755274
H93	H	0.946870	0.225327	0.826564
H94	H	0.947974	0.293368	0.737704
H95	H	1.081389	-0.313073	0.159082
H96	H	1.082528	-0.458981	-0.159361
N97	N	1.253699	-0.059136	0.604499
H98	H	1.243312	-0.118579	0.587011
H99	H	1.317658	-0.049323	0.586996
N100	N	1.192433	-0.002296	0.755236
H101	H	1.183141	0.006330	0.826528
H102	H	1.182021	-0.061714	0.737679
H103	H	1.187625	-0.326013	-0.096963
H104	H	1.187428	-0.470081	-0.090866
N105	N	1.253706	-0.059138	0.395589
H106	H	1.292547	-0.095140	0.442668
H107	H	1.219189	-0.096215	0.353904
H108	H	1.176179	0.012720	0.258135
