data_functionalizedCrystal
_audit_creation_method	'MofGen! by Chris Wilmer'
_symmetry_space_group_name_H-M	'P1'
_symmetry_Int_Tables_number	1
_symmetry_cell_setting	triclinic
loop_
_symmetry_equiv_pos_as_xyz
  x,y,z
_cell_length_a	14.853569
_cell_length_b	13.330367
_cell_length_c	14.853567
_cell_angle_alpha	90.000844
_cell_angle_beta	83.635376
_cell_angle_gamma	90.005194
loop_
_atom_site_label
_atom_site_type_symbol
_atom_site_fract_x
_atom_site_fract_y
_atom_site_fract_z
O1	O	-1.196368	-0.083360	-0.117713
O2	O	-0.933908	-0.083373	-0.131732
O3	O	-1.072149	-0.083369	0.006507
O4	O	-1.058127	-0.083364	-0.255952
O5	O	-1.072129	0.083478	0.006510
O6	O	-0.933888	0.083474	-0.131729
O7	O	-1.196348	0.083487	-0.117710
Cu8	Cu	-1.065116	0.098715	-0.124719
Cu9	Cu	-1.065140	-0.098601	-0.124723
O10	O	-1.058107	0.083483	-0.255949
C11	C	-0.900310	0.000049	-0.131095
C12	C	-0.800226	0.000043	-0.129191
N13	N	-1.065106	0.237497	-0.124716
C14	C	-1.071503	0.000051	0.040097
C15	C	-1.069599	0.000043	0.140181
C16	C	-0.763850	0.000038	-0.046180
C17	C	-0.742560	0.000052	-0.210412
C18	C	-0.648526	0.000053	-0.208626
C19	C	-0.612149	0.000047	-0.125615
C20	C	-0.669807	0.000041	-0.044390
C21	C	-0.590861	0.000069	-0.289848
C22	C	-0.496821	0.000071	-0.288065
C23	C	-0.460443	0.000058	-0.205053
C24	C	-0.518107	0.000051	-0.123825
C25	C	-0.481730	0.000045	-0.040814
C26	C	-0.539393	0.000031	0.040414
C27	C	-0.633429	0.000029	0.038622
C28	C	-0.366407	0.000060	-0.203260
C29	C	-0.387688	0.000049	-0.039025
C30	C	-0.229946	0.000061	-0.118346
C31	C	-0.330030	0.000055	-0.120249
N32	N	-1.065157	-0.237382	-0.124719
C33	C	-1.003924	0.710118	-0.185911
C34	C	-1.126380	0.710089	-0.063528
C35	C	-1.126369	0.605071	-0.063525
C36	C	-1.065137	0.552571	-0.124717
C37	C	-1.003914	0.605090	-0.185912
C38	C	-1.187597	0.552544	-0.002337
C39	C	-1.187590	0.447520	-0.002332
C40	C	-1.126352	0.395018	-0.063521
C41	C	-1.065126	0.447543	-0.124718
C42	C	-1.003894	0.395043	-0.185910
C43	C	-0.942663	0.447567	-0.247104
C44	C	-0.942676	0.552588	-0.247101
C45	C	-1.126339	0.289996	-0.063524
C46	C	-1.003883	0.290015	-0.185911
C47	C	-1.058753	0.000061	-0.289539
C48	C	-1.060656	0.000063	-0.389623
C49	C	-0.979434	0.000057	0.552716
C50	C	-1.143667	0.000065	0.573995
C51	C	-1.145457	0.000060	0.479962
C52	C	-1.064234	0.000054	0.422300
C53	C	-0.981222	0.000055	0.458673
C54	C	-1.228468	0.000069	0.443582
C55	C	-1.230261	0.000065	0.349543
C56	C	-1.149038	0.000052	0.291880
C57	C	-1.066022	0.000051	0.328258
C58	C	-0.984799	0.000046	0.270596
C59	C	-0.901782	0.000038	0.306972
C60	C	-0.899998	0.000042	0.401010
C61	C	-1.150822	0.000048	0.197842
C62	C	-0.986587	0.000043	0.176554
H63	H	-0.358078	0.000039	0.028573
Cl64	Cl	-0.705922	0.000022	0.140727
H65	H	-0.911843	0.000047	0.582337
H66	H	-1.237446	0.404762	0.047495
Cl67	Cl	-0.865710	0.618619	-0.324026
H68	H	-0.509762	0.000020	0.108002
Cl69	Cl	-0.926896	0.224024	-0.262839
Cl70	Cl	-0.884472	0.000028	0.104072
H71	H	-0.772184	0.000064	-0.277996
Cl72	Cl	-0.799679	0.000040	0.234474
Cl73	Cl	-0.636596	0.000072	-0.394197
Cl74	Cl	-1.245769	0.000089	0.646484
H75	H	-1.294595	0.000083	0.490536
Cl76	Cl	-0.795644	0.000029	0.446746
H77	H	-0.892810	0.404809	-0.296931
H78	H	-0.449880	0.000080	-0.354206
Cl79	Cl	-1.203361	0.776086	0.013391
H80	H	-1.297858	0.000070	0.319934
Cl81	Cl	-0.926948	0.776141	-0.262833
H82	H	-0.810802	0.000022	0.019955
Cl83	Cl	-1.264578	0.618541	0.074582
Cl84	Cl	-1.203314	0.223974	0.013394
H85	H	-1.218413	0.000061	0.168229
H86	H	-0.319462	0.000080	-0.269395
