data_functionalizedCrystal
_audit_creation_method	'MofGen! by Chris Wilmer'
_symmetry_space_group_name_H-M	'P1'
_symmetry_Int_Tables_number	1
_symmetry_cell_setting	triclinic
loop_
_symmetry_equiv_pos_as_xyz
  x,y,z
_cell_length_a	16.109301
_cell_length_b	11.295501
_cell_length_c	16.109301
_cell_angle_alpha	85.398843
_cell_angle_beta	96.538519
_cell_angle_gamma	94.597193
loop_
_atom_site_label
_atom_site_type_symbol
_atom_site_fract_x
_atom_site_fract_y
_atom_site_fract_z
O1	O	1.108123	0.098954	-0.111857
O2	O	1.608123	0.598954	0.388143
O3	O	0.866062	0.098973	-0.125158
O4	O	1.366062	0.598973	0.374842
O5	O	0.993741	0.098951	0.002524
O6	O	1.493741	0.598951	0.502524
O7	O	0.980443	0.098976	-0.239539
O8	O	1.480443	0.598976	0.260461
O9	O	0.983741	-0.099100	0.012516
O10	O	1.483741	0.400900	0.512516
O11	O	0.856062	-0.099078	-0.115166
O12	O	1.356062	0.400922	0.384834
O13	O	1.098123	-0.099097	-0.101866
O14	O	1.598123	0.400903	0.398134
Cu15	Cu	0.976179	-0.117171	-0.107604
Cu16	Cu	1.476179	0.382829	0.392396
Cu17	Cu	0.988005	0.117047	-0.119420
Cu18	Cu	1.488005	0.617047	0.380580
O19	O	0.970443	-0.099075	-0.229548
O20	O	1.470443	0.400925	0.270452
C21	C	0.830087	-0.000050	-0.119623
C22	C	1.330087	0.499950	0.380377
C23	C	0.737792	-0.000043	-0.118008
C24	C	1.237792	0.499957	0.381992
N25	N	0.967868	-0.281907	-0.099292
N26	N	1.467868	0.218093	0.400708
C27	C	0.515519	-0.000049	-0.190016
C28	C	1.015519	0.499951	0.309984
C29	C	0.428799	-0.000057	-0.188491
C30	C	0.928799	0.499943	0.311509
C31	C	0.448672	-0.000068	-0.037002
C32	C	0.948672	0.499932	0.462998
C33	C	0.535391	-0.000068	-0.038527
C34	C	1.035391	0.499932	0.461473
C35	C	0.568812	-0.000053	-0.115037
C36	C	1.068812	0.499947	0.384963
C37	C	0.395373	-0.000060	-0.111987
C38	C	0.895373	0.499940	0.388013
C39	C	0.301346	-0.000069	-0.110334
C40	C	0.801346	0.499931	0.389666
C41	C	0.662845	-0.000047	-0.116690
C42	C	1.162845	0.499953	0.383310
C43	C	1.056147	-0.531196	-0.187595
C44	C	1.556147	-0.031196	0.312405
C45	C	1.049872	-0.655859	-0.181307
C46	C	1.549872	-0.155859	0.318693
C47	C	0.949048	-0.655901	-0.080425
C48	C	1.449048	-0.155901	0.419575
C49	C	0.955323	-0.531237	-0.086712
C50	C	1.455323	-0.031237	0.413288
C51	C	1.008873	-0.468889	-0.140300
C52	C	1.508873	0.031111	0.359700
C53	C	1.015143	-0.344223	-0.146592
C54	C	1.515143	0.155777	0.353408
C55	C	0.914324	-0.344267	-0.045706
C56	C	1.414324	0.155733	0.454294
C57	C	0.908050	-0.468930	-0.039418
C58	C	1.408050	0.031070	0.460582
C59	C	1.134098	-0.000071	-0.107400
C60	C	1.634098	0.499929	0.392600
C61	C	1.226393	-0.000070	-0.109015
C62	C	1.726393	0.499930	0.390985
C63	C	0.988203	-0.000075	0.038495
C64	C	1.488203	0.499925	0.538495
C65	C	0.986587	-0.000077	0.130790
C66	C	1.486587	0.499923	0.630790
N67	N	0.996323	0.281784	-0.127725
N68	N	1.496323	0.781784	0.372275
C69	C	0.975982	-0.000046	-0.265518
C70	C	1.475982	0.499954	0.234482
C71	C	0.977598	-0.000037	-0.357814
C72	C	1.477598	0.499963	0.142186
C73	C	1.058596	-0.000064	0.353062
C74	C	1.558596	0.499936	0.853062
C75	C	1.057072	-0.000054	0.439782
C76	C	1.557072	0.499946	0.939782
C77	C	0.905584	-0.000046	0.419907
C78	C	1.405584	0.499954	0.919907
C79	C	0.907109	-0.000048	0.333188
C80	C	1.407109	0.499952	0.833188
C81	C	0.983617	-0.000062	0.299769
C82	C	1.483617	0.499938	0.799769
C83	C	0.980568	-0.000051	0.473207
C84	C	1.480568	0.499949	0.973207
C85	C	0.978916	-0.000040	0.567233
C86	C	1.478916	0.499960	1.067233
C87	C	0.985270	-0.000071	0.205737
C88	C	1.485270	0.499929	0.705737
H89	H	0.542727	-0.000046	-0.252314
H90	H	1.042727	0.499954	0.247686
O91	O	1.141112	-0.000055	0.317010
O92	O	1.641112	0.499945	0.817010
H93	H	1.192993	-0.000039	0.368640
H94	H	1.692993	0.499961	0.868640
O95	O	1.113890	-0.463938	-0.245400
O96	O	1.613890	0.036062	0.254600
H97	H	1.161439	-0.407125	-0.208425
H98	H	1.661439	0.092875	0.291575
O99	O	0.823068	-0.000057	0.455959
O100	O	1.323068	0.499943	0.955959
H101	H	0.822821	0.080656	0.490926
H102	H	1.322821	0.580656	0.990926
H103	H	0.864453	-0.519711	0.004215
H104	H	1.364453	-0.019711	0.504215
O105	O	0.371315	-0.000049	-0.269361
O106	O	0.871315	0.499951	0.230639
H107	H	0.409128	-0.000031	-0.322816
H108	H	0.909128	0.499969	0.177184
H109	H	0.421450	-0.000087	0.025290
H110	H	0.921450	0.499913	0.525290
O111	O	0.863344	-0.277056	0.005317
O112	O	1.363344	0.222944	0.505317
H113	H	0.821514	-0.220256	-0.037393
H114	H	1.321514	0.279744	0.462607
O115	O	0.826235	-0.000060	0.275698
O116	O	1.326235	0.499940	0.775698
H117	H	0.772776	-0.000071	0.313505
H118	H	1.272776	0.499929	0.813505
H119	H	1.118128	-0.000052	0.483170
H120	H	1.618128	0.499948	0.983170
H121	H	0.578785	-0.000075	0.022534
H122	H	1.078785	0.499925	0.522534
H123	H	1.058742	-0.293461	-0.190230
H124	H	1.558742	0.206539	0.309770
H125	H	0.905459	-0.706686	-0.036787
H126	H	1.405459	-0.206686	0.463213
O127	O	1.100854	-0.723068	-0.232321
O128	O	1.600854	-0.223068	0.267679
H129	H	1.139138	-0.658765	-0.270642
H130	H	1.639138	-0.158765	0.229358
