data_functionalizedCrystal
_audit_creation_method	'MofGen! by Chris Wilmer'
_symmetry_space_group_name_H-M	'P1'
_symmetry_Int_Tables_number	1
_symmetry_cell_setting	triclinic
loop_
_symmetry_equiv_pos_as_xyz
  x,y,z
_cell_length_a	15.944551
_cell_length_b	10.654550
_cell_length_c	9.730223
_cell_angle_alpha	90.004253
_cell_angle_beta	89.998800
_cell_angle_gamma	83.991834
loop_
_atom_site_label
_atom_site_type_symbol
_atom_site_fract_x
_atom_site_fract_y
_atom_site_fract_z
O1	O	-1.115460	-0.161966	-0.114146
O2	O	-0.871026	-0.181935	-0.114180
O3	O	-0.998863	0.010862	-0.114154
O4	O	-0.987623	-0.354762	-0.114173
O5	O	-0.998855	0.010867	0.114426
O6	O	-0.871018	-0.181929	0.114400
O7	O	-1.115452	-0.161961	0.114434
Zn8	Zn	-0.993234	-0.171944	0.150709
Zn9	Zn	-0.993244	-0.171951	-0.150455
O10	O	-0.987615	-0.354757	0.114407
C11	C	-0.839723	-0.181103	0.000105
C12	C	-0.746463	-0.178618	0.000093
C13	C	-0.998034	0.057652	0.000135
C14	C	-0.995565	0.197063	0.000133
C15	C	-1.146755	-0.162792	0.000145
C16	C	-1.240015	-0.165278	0.000149
C17	C	-0.530880	-0.053173	0.000126
C18	C	-0.470201	-0.111428	-0.112579
C19	C	-0.575711	-0.174122	0.000109
C20	C	-0.470215	-0.111451	0.112783
C21	C	-0.410773	-0.169770	0.000131
C22	C	-0.516260	-0.232410	-0.112689
C23	C	-0.516281	-0.232416	0.112774
C24	C	-0.455620	-0.290759	0.000042
C25	C	-0.670728	-0.176625	0.000095
C26	C	-0.315757	-0.167276	0.000135
C27	C	-0.988444	-0.401547	0.000115
C28	C	-0.990913	-0.540958	0.000109
N29	N	-0.993232	-0.171939	0.356245
C30	C	-1.070833	0.277522	0.000143
C31	C	-1.068508	0.408513	0.000126
C32	C	-0.915639	0.378572	0.000095
C33	C	-0.917965	0.247584	0.000102
N34	N	-0.993252	-0.171947	-0.355992
C35	C	-1.049858	-0.086604	0.428183
C36	C	-1.049866	-0.086605	0.572066
C37	C	-0.936621	-0.257285	0.572061
C38	C	-0.936609	-0.257278	0.428180
H39	H	-0.563632	0.047204	-0.000009
H40	H	-1.095963	-0.017115	0.369617
H41	H	-0.890520	-0.326768	0.630645
H42	H	-1.095975	-0.017116	0.630634
H43	H	-0.856669	0.182070	0.000090
H44	H	-0.852460	0.419723	0.000072
H45	H	-0.890493	-0.326768	0.369605
H46	H	-0.536547	-0.283530	-0.208076
H47	H	-0.449798	-0.060274	-0.207858
H48	H	-0.536705	-0.283528	0.208058
H49	H	-0.423043	-0.391240	-0.000026
H50	H	-0.449830	-0.060271	0.208063
H51	H	-1.134019	0.236393	0.000165
H52	H	-1.129799	0.474019	0.000131
