data_functionalizedCrystal
_audit_creation_method	'MofGen! by Chris Wilmer'
_symmetry_space_group_name_H-M	'P1'
_symmetry_Int_Tables_number	1
_symmetry_cell_setting	triclinic
loop_
_symmetry_equiv_pos_as_xyz
  x,y,z
_cell_length_a	11.792254
_cell_length_b	10.540539
_cell_length_c	10.868271
_cell_angle_alpha	89.997005
_cell_angle_beta	89.995741
_cell_angle_gamma	84.362045
loop_
_atom_site_label
_atom_site_type_symbol
_atom_site_fract_x
_atom_site_fract_y
_atom_site_fract_z
O1	O	1.507353	0.174069	-0.102315
O2	O	1.177060	0.191983	-0.102317
O3	O	1.349742	-0.001705	-0.102314
O4	O	1.334671	0.367757	-0.102318
O5	O	1.349728	-0.001712	0.102330
O6	O	1.177046	0.191976	0.102328
O7	O	1.507339	0.174061	0.102330
Zn8	Zn	1.342190	0.183017	0.134820
Zn9	Zn	1.342209	0.183027	-0.134808
O10	O	1.334657	0.367749	0.102327
C11	C	1.134760	0.190851	0.000005
C12	C	1.008738	0.187473	0.000004
C13	C	0.906394	0.184729	-0.000001
C14	C	0.777999	0.181297	-0.000002
C15	C	1.348605	-0.049008	0.000006
C16	C	1.345223	-0.189945	-0.000001
C17	C	1.215653	-0.372957	-0.000461
C18	C	1.219081	-0.226349	-0.000000
C19	C	1.405921	-0.251802	0.116862
C20	C	1.401616	-0.398332	0.116960
C21	C	1.404198	-0.398850	-0.115759
C22	C	1.405359	-0.251872	-0.117304
C23	C	1.549639	0.175193	0.000005
C24	C	1.675661	0.178571	-0.000002
C25	C	1.335794	0.415052	0.000004
C26	C	1.339176	0.555989	0.000003
N27	N	1.342185	0.183009	0.318834
N28	N	1.342223	0.183025	-0.318822
C29	C	1.342203	0.183024	0.569840
C30	C	1.342190	0.183020	0.430163
H31	H	1.171320	-0.183590	-0.083772
C32	C	1.148603	-0.413534	0.112120
H33	H	1.195561	-0.473587	0.159407
H34	H	1.082967	-0.451199	0.085252
H35	H	1.125935	-0.340844	0.161173
C36	C	1.148334	-0.411363	-0.113668
H37	H	1.074034	-0.367439	-0.112230
H38	H	1.142859	-0.500663	-0.112122
H39	H	1.186574	-0.389661	-0.186505
H40	H	1.170974	-0.184442	0.083910
H41	H	1.356745	-0.426391	0.204316
H42	H	1.363378	-0.430269	-0.204334
C43	C	1.345468	-0.196363	-0.234104
H44	H	1.382236	-0.234198	-0.304750
H45	H	1.349249	-0.106783	-0.236250
H46	H	1.267968	-0.213879	-0.233375
C47	C	1.524162	-0.463533	0.124147
H48	H	1.576354	-0.400433	0.127003
H49	H	1.539403	-0.515755	0.053682
H50	H	1.532335	-0.514619	0.196215
C51	C	1.529603	-0.219561	-0.126839
H52	H	1.546504	-0.167657	-0.059098
H53	H	1.539584	-0.175002	-0.201426
H54	H	1.579378	-0.296102	-0.125846
C55	C	1.531059	-0.222001	0.122746
H56	H	1.547437	-0.171443	0.053823
H57	H	1.579644	-0.299416	0.121665
H58	H	1.543291	-0.176731	0.196379
C59	C	1.348939	-0.194098	0.234346
H60	H	1.288168	-0.132326	0.212429
H61	H	1.403456	-0.154702	0.281632
H62	H	1.320011	-0.259678	0.281447
C63	C	1.527276	-0.463051	-0.116834
H64	H	1.539026	-0.517121	-0.047118
H65	H	1.579066	-0.399532	-0.114270
H66	H	1.539654	-0.512136	-0.189768
