data_functionalizedCrystal
_audit_creation_method	'MofGen! by Chris Wilmer'
_symmetry_space_group_name_H-M	'P1'
_symmetry_Int_Tables_number	1
_symmetry_cell_setting	triclinic
loop_
_symmetry_equiv_pos_as_xyz
  x,y,z
_cell_length_a	6.817900
_cell_length_b	17.078472
_cell_length_c	9.514088
_cell_angle_alpha	93.258389
_cell_angle_beta	118.843545
_cell_angle_gamma	99.306020
loop_
_atom_site_label
_atom_site_type_symbol
_atom_site_fract_x
_atom_site_fract_y
_atom_site_fract_z
V1	V	-4.196319	-0.111173	-0.500580
O2	O	-4.202103	0.003895	-0.491217
O3	O	-4.125999	-0.219046	-0.496996
O4	O	-4.231301	-0.110098	-0.718973
O5	O	-4.096072	-0.105807	-0.267704
V6	V	-4.671982	-0.097335	-0.472745
O7	O	-4.474817	-0.141529	-0.561637
O8	O	-4.843681	-0.066979	-0.411688
O9	O	-4.519095	0.010538	-0.476328
O10	O	-4.783595	-0.212403	-0.482108
O11	O	-4.889626	-0.102701	-0.705621
O12	O	-4.413793	-0.098410	-0.254352
C13	C	-3.962969	-0.245323	-0.489058
C14	C	-3.987317	-0.333515	-0.487584
C15	C	-4.097291	-0.106349	-0.772209
C16	C	-4.207031	-0.106183	-0.950745
C17	C	-4.183141	-0.379010	-0.494897
C18	C	-4.206013	-0.461876	-0.493521
C19	C	-4.033051	-0.499244	-0.484822
C20	C	-3.837215	-0.453742	-0.477514
C21	C	-3.814353	-0.370879	-0.478901
C22	C	-4.081660	-0.746634	-0.479826
C23	C	-4.104535	-0.829503	-0.478434
C24	C	-4.473334	-0.837631	-0.494445
C25	C	-4.450449	-0.754765	-0.495821
C26	C	-4.254621	-0.709272	-0.488522
N27	N	-4.056422	-0.583945	-0.483411
N28	N	-4.231260	-0.624573	-0.489945
C29	C	-4.345465	0.036811	-0.484262
C30	C	-4.300359	0.125002	-0.485746
C31	C	-4.211142	-0.102162	-0.201108
C32	C	-4.080640	-0.102323	-0.022570
H33	H	-4.365472	-0.498916	-0.499479
C34	C	-4.685664	-0.887104	-0.502124
C35	C	-4.620825	-0.923847	-0.363021
C36	C	-4.816370	-0.969436	-0.370056
H37	H	-4.785541	-0.853069	-0.507429
H38	H	-4.762402	-0.927152	-0.595948
H39	H	-4.544124	-0.883804	-0.269223
H40	H	-4.520976	-0.957895	-0.357689
H41	H	-4.893107	-1.009484	-0.463879
H42	H	-4.916233	-0.935395	-0.375364
H43	H	-4.772402	-0.994378	-0.275685
C44	C	-3.601697	-0.321361	-0.470711
C45	C	-3.489083	-0.262454	-0.332268
C46	C	-3.293195	-0.216818	-0.324689
H47	H	-3.501708	-0.355380	-0.465239
H48	H	-3.645211	-0.296331	-0.564952
H49	H	-3.445565	-0.287483	-0.238051
H50	H	-3.589007	-0.228417	-0.337709
H51	H	-3.336708	-0.191787	-0.418930
H52	H	-3.193224	-0.250843	-0.319223
H53	H	-3.216773	-0.176839	-0.230766
C54	C	-3.869303	-0.697227	-0.472204
C55	C	-3.934114	-0.660513	-0.611342
C56	C	-3.738536	-0.614995	-0.604378
H57	H	-3.792436	-0.657161	-0.378434
H58	H	-3.769546	-0.731327	-0.466897
H59	H	-4.033832	-0.626415	-0.616633
H60	H	-4.010954	-0.700559	-0.705134
H61	H	-3.638780	-0.649096	-0.599070
H62	H	-3.661684	-0.574935	-0.510602
H63	H	-3.782481	-0.590086	-0.698786
C64	C	-3.824500	-0.098237	-0.922320
C65	C	-3.787847	-0.166732	-0.847085
C66	C	-3.551917	-0.162999	-0.754707
H67	H	-3.759685	-0.095836	-0.991156
H68	H	-3.754137	-0.051644	-0.841826
H69	H	-3.858181	-0.213312	-0.927569
H70	H	-3.852608	-0.169146	-0.778222
H71	H	-3.481554	-0.116407	-0.674213
H72	H	-3.487123	-0.160596	-0.823554
H73	H	-3.527016	-0.209467	-0.703637
H74	H	-4.323980	-0.348591	-0.501965
H75	H	-4.591304	-0.724348	-0.502917
H76	H	-3.963701	-0.859927	-0.471388
C77	C	-4.463314	-0.110541	-1.051111
C78	C	-4.566255	-0.179302	-1.169476
C79	C	-4.802329	-0.183338	-1.261978
H80	H	-4.528201	-0.113030	-0.982321
H81	H	-4.488737	-0.064147	-1.102387
H82	H	-4.540849	-0.225684	-1.118203
H83	H	-4.501437	-0.176828	-1.238303
H84	H	-4.827752	-0.136944	-1.313254
H85	H	-4.867192	-0.185824	-1.193175
H86	H	-4.872200	-0.229987	-1.342308
H87	H	-3.696394	-0.484174	-0.470441
