data_functionalizedCrystal
_audit_creation_method	'MofGen! by Chris Wilmer'
_symmetry_space_group_name_H-M	'P1'
_symmetry_Int_Tables_number	1
_symmetry_cell_setting	triclinic
loop_
_symmetry_equiv_pos_as_xyz
  x,y,z
_cell_length_a	14.560438
_cell_length_b	19.377372
_cell_length_c	14.560438
_cell_angle_alpha	90.002722
_cell_angle_beta	60.005846
_cell_angle_gamma	48.621341
loop_
_atom_site_label
_atom_site_type_symbol
_atom_site_fract_x
_atom_site_fract_y
_atom_site_fract_z
Zr1	Zr	0.609477	0.840261	0.077517
O2	O	0.866643	0.701006	-0.101900
O3	O	0.397790	0.882945	0.132497
O4	O	0.589370	0.882956	-0.059076
O5	O	0.675064	0.700993	0.240812
O6	O	0.521775	1.026487	-0.025272
O7	O	0.675063	0.700995	0.089673
O8	O	0.179074	1.026468	0.317416
O9	O	1.017766	0.701012	-0.101876
O10	O	0.417570	1.008271	0.181197
O11	O	0.468016	0.901154	0.268763
O12	O	0.693577	0.901166	0.043212
O13	O	0.744023	0.794049	0.130778
Zr14	Zr	0.501672	1.069172	0.372479
Zr15	Zr	0.501671	1.069177	0.131430
Zr16	Zr	0.609478	0.840257	0.318566
Zr17	Zr	0.850500	0.840270	0.077554
Zr18	Zr	0.260649	1.069163	0.372441
O19	O	0.713359	1.026488	0.317499
O20	O	0.713357	1.026495	-0.025242
O21	O	0.866645	0.701000	0.240841
O22	O	0.244506	1.208427	0.551895
O23	O	0.244504	1.208434	0.209154
O24	O	0.397792	0.882939	0.475238
O25	O	0.436085	1.208441	0.209184
O26	O	0.521779	1.026477	0.509071
O27	O	0.589374	0.882946	0.475267
O28	O	0.436086	1.208438	0.360323
O29	O	0.932074	0.882969	-0.059022
O30	O	0.179075	1.026464	0.509018
O31	O	0.093383	1.208422	0.551871
O32	O	0.093382	1.208425	0.360269
O33	O	1.017767	0.701008	0.089726
O34	O	0.932076	0.882966	0.132580
O35	O	0.417572	1.008267	0.406784
O36	O	0.367126	1.115385	0.319218
O37	O	0.643133	1.008280	0.181232
O38	O	0.693579	0.901162	0.268798
C39	C	0.254091	0.954705	0.224951
C40	C	0.151770	0.954701	0.224935
C41	C	0.224132	0.875637	0.123093
C42	C	0.127935	0.875654	0.123153
C43	C	-0.112986	1.033805	0.326909
C44	C	-0.016792	1.033791	0.326844
C45	C	0.363227	0.784327	0.005458
C46	C	0.267030	0.784344	0.005519
C47	C	0.690424	0.668378	0.157561
C48	C	0.736190	0.571198	0.134673
C49	C	0.166363	0.531115	0.419591
C50	C	0.209406	0.439784	0.398081
C51	C	0.497536	0.327984	0.254035
C52	C	0.454518	0.419307	0.275528
C53	C	0.288929	0.520867	0.358309
C54	C	0.577083	0.409060	0.214246
C55	C	0.534067	0.500375	0.235743
C56	C	0.368486	0.601938	0.318522
C57	C	0.245913	0.612183	0.379806
C58	C	0.742671	0.307498	0.131472
C59	C	0.865236	0.297251	0.070190
C60	C	0.822221	0.388567	0.091680
C61	C	0.656641	0.490130	0.174459
C62	C	0.944795	0.378322	0.030396
C63	C	0.901779	0.469637	0.051893
C64	C	0.613625	0.581445	0.195956
C65	C	0.857058	0.954728	0.225045
C66	C	0.959379	0.954732	0.225061
C67	C	0.555572	0.954723	-0.076518
C68	C	0.555572	0.954725	-0.178850
C69	C	0.420726	1.241055	0.292435
C70	C	0.374959	1.338236	0.315322
C71	C	0.518341	1.033792	-0.208312
C72	C	0.518338	1.033787	-0.304463
C73	C	0.592806	0.875637	-0.341685
C74	C	0.592798	0.875648	-0.245530
C75	C	0.475354	1.125096	-0.186827
C76	C	0.475351	1.125091	-0.282977
C77	C	0.555577	0.954711	0.526514
C78	C	0.555577	0.954709	0.628845
C79	C	0.119242	1.241044	0.292388
C80	C	-0.028845	1.338221	0.315259
C81	C	0.254093	0.954700	0.526467
C82	C	0.151773	0.954694	0.628782
C83	C	0.119244	1.241038	0.593904
C84	C	-0.028842	1.338213	0.719107
C85	C	0.991905	0.668396	-0.143908
C86	C	1.139991	0.571221	-0.269112
C87	C	0.991907	0.668390	0.157608
C88	C	1.139994	0.571213	0.134736
C89	C	0.857056	0.954734	-0.076471
C90	C	0.959376	0.954740	-0.178787
C91	C	-0.072057	1.327944	0.253945
C92	C	-0.211183	1.419243	0.275410
C93	C	-0.307102	1.520818	0.358198
C94	C	-0.263880	1.531093	0.419514
C95	C	-0.124749	1.439794	0.398041
C96	C	-0.124722	1.439771	0.732198
C97	C	-0.263856	1.531086	0.849832
C98	C	-0.307113	1.520840	0.954375
C99	C	-0.211219	1.419271	0.941280
C100	C	-0.072082	1.327959	0.823646
C101	C	1.235883	0.469662	-0.282202
C102	C	1.375047	0.378348	-0.399837
C103	C	1.418309	0.388594	-0.504379
C104	C	1.322409	0.490163	-0.491284
C105	C	1.183254	0.581475	-0.373651
C106	C	1.183216	0.581490	0.196041
C107	C	1.322369	0.490191	0.174548
C108	C	1.418291	0.388616	0.091758
C109	C	1.375064	0.378341	0.030446
C110	C	1.235920	0.469639	0.051932
C111	C	0.077366	1.010605	0.748896
C112	C	-0.018765	1.010591	0.845027
C113	C	0.033923	0.898753	0.700916
C114	C	0.130062	0.898762	0.604786
C115	C	0.046940	1.075177	0.832100
C116	C	-0.049191	1.075163	0.928231
H117	H	0.478786	0.664144	0.263377
Cl118	Cl	-0.482009	1.635583	0.385181
H119	H	0.006997	1.032567	0.969127
H120	H	1.531621	0.314232	-0.600157
Cl121	Cl	-0.250314	1.207152	1.039912
Cl122	Cl	0.278560	1.237203	-0.230647
Cl123	Cl	1.495576	0.250674	-0.416270
Cl124	Cl	1.181528	0.456754	-0.150795
H125	H	0.190662	0.853221	0.506983
Cl126	Cl	0.314405	0.716737	0.345556
H127	H	-0.089585	1.448177	0.447981
Cl128	Cl	1.073397	0.169571	-0.033868
Cl129	Cl	-0.384487	1.658795	0.523592
H130	H	1.357651	0.498492	-0.576417
H131	H	1.105179	0.664166	-0.363006
Cl132	Cl	-0.070366	1.452680	0.600791
H133	H	-0.246353	1.410856	0.225475
Cl134	Cl	0.340410	0.663958	-0.010004
Cl135	Cl	1.593210	0.273850	0.064763
H136	H	-0.075728	1.098182	0.409766
H137	H	0.111074	0.694882	0.447227
H138	H	0.031524	0.613814	0.487013
H139	H	1.453184	0.295626	-0.036963
Cl140	Cl	-0.324891	1.133225	0.455016
Cl141	Cl	1.062660	0.709173	0.300121
H142	H	1.357538	0.498578	0.224484
Cl143	Cl	-0.384388	1.658759	0.866266
H144	H	0.348236	1.203080	-0.097186
H145	H	-0.420412	1.595201	1.050152
Cl146	Cl	0.454743	0.796466	-0.118482
Cl147	Cl	1.181596	0.456701	-0.025140
Cl148	Cl	0.055304	0.452676	0.475128
H149	H	0.632358	0.245284	0.186640
Cl150	Cl	0.006621	0.828442	0.670760
H151	H	0.006038	1.245244	0.186519
Cl152	Cl	0.630958	1.100453	-0.218566
H153	H	0.777688	0.233147	0.113974
H154	H	-0.246461	1.410945	1.026415
H155	H	0.457100	0.711707	0.005151
H156	H	1.079616	0.295621	-0.036994
H157	H	0.153855	1.039268	0.823674
Cl158	Cl	0.048432	1.200289	0.807211
Cl159	Cl	-0.068938	1.202804	0.848665
H160	H	1.001584	0.461290	0.002012
Cl161	Cl	0.255375	0.808970	-0.106723
H162	H	0.623093	0.811273	-0.221534
H163	H	0.569460	1.117217	-0.356121
Cl164	Cl	0.639602	0.776232	-0.425515
