data_functionalizedCrystal
_audit_creation_method	'MofGen! by Chris Wilmer'
_symmetry_space_group_name_H-M	'P1'
_symmetry_Int_Tables_number	1
_symmetry_cell_setting	triclinic
loop_
_symmetry_equiv_pos_as_xyz
  x,y,z
_cell_length_a	10.723023
_cell_length_b	8.597340
_cell_length_c	7.088929
_cell_angle_alpha	103.954719
_cell_angle_beta	96.281107
_cell_angle_gamma	95.098408
loop_
_atom_site_label
_atom_site_type_symbol
_atom_site_fract_x
_atom_site_fract_y
_atom_site_fract_z
O1	O	-0.171369	2.103244	0.187489
O2	O	-0.191739	1.638784	0.110975
O3	O	0.000106	1.881728	0.151001
O4	O	-0.363214	1.860299	0.147463
O5	O	0.025802	1.914195	0.474325
O6	O	-0.166043	1.671250	0.434299
O7	O	-0.145673	2.135710	0.510813
Cu8	Cu	-0.153512	1.906444	0.502078
Cu9	Cu	-0.183900	1.868049	0.119710
O10	O	-0.337518	1.892766	0.470788
C11	C	-0.178135	1.595546	0.262840
C12	C	-0.175867	1.418339	0.233647
C13	C	-0.396854	1.878091	0.309381
C14	C	-0.535372	1.882756	0.310147
C15	C	-0.583817	1.901654	0.477979
C16	C	-0.726982	1.906475	0.478774
C17	C	0.059441	1.896402	0.312402
C18	C	0.197958	1.891736	0.311624
C19	C	-0.159278	2.178948	0.358944
C20	C	-0.161547	2.356153	0.388124
N21	N	-0.132137	1.933461	0.771017
N22	N	-0.205265	1.841045	-0.149227
H23	H	-0.151012	1.438482	0.542718
O24	O	-0.295601	1.726575	0.734732
C25	C	-0.271663	1.573253	0.758240
H26	H	-0.211913	1.587588	0.905989
H27	H	-0.365047	1.496509	0.752254
H28	H	-0.218676	1.511683	0.635491
H29	H	-0.768694	1.922671	0.622464
H30	H	-0.760337	1.875556	0.167929
H31	H	-0.599888	1.870133	0.167046
O32	O	-0.041572	2.047648	0.887022
C33	C	0.077979	2.015156	0.832942
H34	H	0.066058	1.938881	0.675005
H35	H	0.139099	2.133679	0.845800
H36	H	0.125451	1.946639	0.934290
H37	H	-0.186394	1.336002	0.079043
O38	O	-0.506970	1.916931	0.648868
C39	C	-0.515853	2.066778	0.779039
H40	H	-0.609597	2.110952	0.737211
H41	H	-0.510573	2.052084	0.935198
H42	H	-0.434574	2.158465	0.769972
