data_functionalizedCrystal
_audit_creation_method	'MofGen! by Chris Wilmer'
_symmetry_space_group_name_H-M	'P1'
_symmetry_Int_Tables_number	1
_symmetry_cell_setting	triclinic
loop_
_symmetry_equiv_pos_as_xyz
  x,y,z
_cell_length_a	19.188930
_cell_length_b	19.188905
_cell_length_c	18.266242
_cell_angle_alpha	89.983837
_cell_angle_beta	89.988525
_cell_angle_gamma	83.139668
loop_
_atom_site_label
_atom_site_type_symbol
_atom_site_fract_x
_atom_site_fract_y
_atom_site_fract_z
O1	O	0.087085	0.926160	-0.061010
O2	O	0.420419	1.259494	0.272324
O3	O	0.753752	1.592827	0.605657
O4	O	0.098838	0.722847	-0.060986
O5	O	0.432171	1.056180	0.272348
O6	O	0.765505	1.389513	0.605681
O7	O	-0.008694	0.830371	-0.060984
O8	O	0.324639	1.163704	0.272349
O9	O	0.657972	1.497037	0.605682
O10	O	0.194618	0.818636	-0.061011
O11	O	0.527951	1.151970	0.272322
O12	O	0.861285	1.485303	0.605655
O13	O	-0.008700	0.830353	0.060778
O14	O	0.324633	1.163686	0.394111
O15	O	0.657967	1.497019	0.727444
O16	O	0.098833	0.722828	0.060776
O17	O	0.432166	1.056162	0.394109
O18	O	0.765499	1.389495	0.727443
O19	O	0.087080	0.926142	0.060752
O20	O	0.420413	1.259476	0.394086
O21	O	0.753747	1.592809	0.727419
Zn22	Zn	0.092955	0.824482	0.080097
Zn23	Zn	0.426289	1.157816	0.413430
Zn24	Zn	0.759622	1.491149	0.746763
Zn25	Zn	0.092963	0.824506	-0.080330
Zn26	Zn	0.426296	1.157840	0.253003
Zn27	Zn	0.759629	1.491173	0.586337
O28	O	0.194612	0.818618	0.060751
O29	O	0.527946	1.151952	0.394084
O30	O	0.861279	1.485285	0.727417
C31	C	0.098458	0.696826	-0.000102
C32	C	0.431791	1.030160	0.333232
C33	C	0.765124	1.363493	0.666565
C34	C	0.097324	0.619321	-0.000092
C35	C	0.430657	0.952654	0.333242
C36	C	0.763991	1.285987	0.666575
C37	C	0.096782	0.582939	-0.066466
C38	C	0.430116	0.916272	0.266867
C39	C	0.763449	1.249606	0.600201
C40	C	0.095709	0.510115	-0.066475
C41	C	0.429043	0.843449	0.266858
C42	C	0.762376	1.176782	0.600192
C43	C	0.095164	0.473678	-0.000106
C44	C	0.428497	0.807012	0.333227
C45	C	0.761830	1.140345	0.666561
C46	C	0.095709	0.510068	0.066277
C47	C	0.429043	0.843402	0.399610
C48	C	0.762376	1.176735	0.732944
C49	C	0.096789	0.582890	0.066284
C50	C	0.430123	0.916223	0.399618
C51	C	0.763456	1.249556	0.732951
N52	N	0.053733	0.364651	0.049292
N53	N	0.387066	0.697984	0.382625
N54	N	0.720400	1.031317	0.715958
N55	N	0.052705	0.295474	0.049280
N56	N	0.386039	0.628807	0.382614
N57	N	0.719372	0.962140	0.715947
C58	C	0.091911	0.254272	-0.000123
C59	C	0.425245	0.587605	0.333210
C60	C	0.758578	0.920938	0.666543
N61	N	0.132174	0.284861	-0.049526
N62	N	0.465508	0.618194	0.283807
N63	N	0.798841	0.951528	0.617140
N64	N	0.133199	0.354045	-0.049517
N65	N	0.466532	0.687378	0.283816
N66	N	0.799866	1.020711	0.617149
C67	C	0.093993	0.394716	-0.000106
C68	C	0.427326	0.728049	0.333227
C69	C	0.760660	1.061382	0.666560
C70	C	0.090207	0.138926	-0.066512
C71	C	0.423540	0.472259	0.266822
C72	C	0.756874	0.805593	0.600155
C73	C	0.089138	0.066100	-0.066518
C74	C	0.422472	0.399434	0.266815
C75	C	0.755805	0.732767	0.600149
C76	C	0.089132	0.066056	0.066236
C77	C	0.422465	0.399389	0.399569
C78	C	0.755798	0.732722	0.732903
C79	C	0.090207	0.138879	0.066240
C80	C	0.423541	0.472212	0.399574
C81	C	0.756874	0.805546	0.732907
C82	C	0.090742	0.175310	-0.000136
C83	C	0.424075	0.508643	0.333198
C84	C	0.757408	0.841977	0.666531
C85	C	-0.034708	0.829982	-0.000101
C86	C	0.298625	1.163315	0.333232
C87	C	0.631959	1.496648	0.666566
C88	C	-0.112213	0.828841	-0.000095
C89	C	0.221121	1.162174	0.333239
C90	C	0.554454	1.495508	0.666572
C91	C	-0.157142	0.891933	-0.000099
C92	C	0.176191	1.225266	0.333235
C93	C	0.509525	1.558599	0.666568
C94	C	-0.229966	0.890861	-0.000110
C95	C	0.103367	1.224194	0.333223
C96	C	0.436701	1.557528	0.666557
C97	C	-0.257857	0.826694	-0.000103
C98	C	0.075477	1.160027	0.333230
C99	C	0.408810	1.493361	0.666564
C100	C	-0.212917	0.763594	-0.000103
C101	C	0.120416	1.096927	0.333230
C102	C	0.453749	1.430261	0.666563
C103	C	-0.140095	0.764668	-0.000099
C104	C	0.193238	1.098001	0.333234
C105	C	0.526572	1.431334	0.666568
N106	N	-0.365859	0.777640	0.041341
N107	N	-0.032526	1.110973	0.374674
N108	N	0.300808	1.444307	0.708007
N109	N	-0.435038	0.776624	0.041338
N110	N	-0.101704	1.109958	0.374671
N111	N	0.231629	1.443291	0.708005
C112	C	-0.477265	0.823456	-0.000118
C113	C	-0.143932	1.156789	0.333216
C114	C	0.189402	1.490122	0.666549
N115	N	-0.447702	0.871352	-0.041561
N116	N	-0.114369	1.204685	0.291772
N117	N	0.218965	1.538018	0.625105
N118	N	-0.378517	0.872369	-0.041556
N119	N	-0.045184	1.205703	0.291778
N120	N	0.288149	1.539036	0.625111
C121	C	-0.336819	0.825523	-0.000108
C122	C	-0.003486	1.158856	0.333225
C123	C	0.329848	1.492190	0.666558
C124	C	-0.601159	0.885390	-0.000135
C125	C	-0.267826	1.218723	0.333198
C126	C	0.065508	1.552056	0.666532
C127	C	-0.673984	0.884315	-0.000151
C128	C	-0.340650	1.217649	0.333182
C129	C	-0.007317	1.550982	0.666515
C130	C	-0.656933	0.757047	-0.000137
C131	C	-0.323600	1.090380	0.333196
C132	C	0.009733	1.423714	0.666530
C133	C	-0.584110	0.758123	-0.000128
C134	C	-0.250777	1.091456	0.333205
C135	C	0.082556	1.424790	0.666538
C136	C	-0.556228	0.822296	-0.000124
C137	C	-0.222894	1.155630	0.333210
C138	C	0.110439	1.488963	0.666543
C139	C	0.220626	0.819007	-0.000134
C140	C	0.553959	1.152341	0.333199
C141	C	0.887293	1.485674	0.666532
C142	C	0.298131	0.820148	-0.000145
C143	C	0.631464	1.153481	0.333188
C144	C	0.964797	1.486815	0.666521
C145	C	0.087460	0.952163	-0.000134
C146	C	0.420794	1.285496	0.333200
C147	C	0.754127	1.618829	0.666533
C148	C	0.088594	1.029668	-0.000148
C149	C	0.421927	1.363001	0.333185
C150	C	0.755261	1.696335	0.666518
N151	N	0.092950	0.824471	0.189583
N152	N	0.426283	1.157805	0.522917
N153	N	0.759617	1.491138	0.856250
N154	N	0.092962	0.824523	-0.189817
N155	N	0.426296	1.157857	0.143516
N156	N	0.759629	1.491190	0.476850
C157	C	0.045358	0.872098	0.227893
C158	C	0.378691	1.205432	0.561226
C159	C	0.712025	1.538765	0.894560
C160	C	0.045355	0.872103	0.304538
C161	C	0.378688	1.205436	0.637871
C162	C	0.712021	1.538770	0.971205
C163	C	0.092956	0.824487	0.342870
C164	C	0.426289	1.157820	0.676204
C165	C	0.759622	1.491153	1.009537
C166	C	0.140551	0.776851	0.304552
C167	C	0.473885	1.110184	0.637885
C168	C	0.807218	1.443517	0.971218
C169	C	0.140549	0.776843	0.227908
C170	C	0.473882	1.110176	0.561241
C171	C	0.807215	1.443510	0.894575
N172	N	0.154764	0.815411	0.463195
N173	N	0.488097	1.148744	0.796528
N174	N	0.821431	1.482078	1.129862
N175	N	0.154764	0.815423	0.536003
N176	N	0.488098	1.148756	0.869337
N177	N	0.821431	1.482089	1.202670
C178	C	0.092966	0.824506	0.573793
C179	C	0.426299	1.157840	0.907126
C180	C	0.759632	1.491173	1.240459
N181	N	0.031165	0.833592	0.536024
N182	N	0.364498	1.166925	0.869357
N183	N	0.697831	1.500258	1.202690
N184	N	0.031165	0.833584	0.463209
N185	N	0.364498	1.166917	0.796542
N186	N	0.697831	1.500250	1.129876
C187	C	0.092963	0.824490	0.425977
C188	C	0.426297	1.157823	0.759311
C189	C	0.759630	1.491156	1.092644
C190	C	0.045366	0.872141	0.695210
C191	C	0.378699	1.205474	1.028543
C192	C	0.712033	1.538808	1.361876
C193	C	0.045362	0.872141	0.771856
C194	C	0.378695	1.205474	1.105189
C195	C	0.712029	1.538807	1.438523
C196	C	0.140565	0.776892	0.771868
C197	C	0.473898	1.110225	1.105201
C198	C	0.807231	1.443558	1.438535
C199	C	0.140563	0.776889	0.695223
C200	C	0.473896	1.110222	1.028556
C201	C	0.807229	1.443555	1.361890
C202	C	0.092964	0.824517	0.656898
C203	C	0.426298	1.157850	0.990232
C204	C	0.759631	1.491184	1.323565
H205	H	0.090644	0.168502	0.120290
H206	H	0.423977	0.501835	0.453623
H207	H	0.757310	0.835169	0.786956
O208	O	0.088582	0.026711	0.137792
O209	O	0.421916	0.360045	0.471126
O210	O	0.755249	0.693378	0.804459
H211	H	0.041226	0.047007	0.169675
H212	H	0.374559	0.380341	0.503008
H213	H	0.707892	0.713674	0.836342
O214	O	-0.005968	0.923522	0.813174
O215	O	0.327365	1.256855	1.146508
O216	O	0.660699	1.590189	1.479841
H217	H	-0.060378	0.914810	0.798475
H218	H	0.272955	1.248143	1.131808
H219	H	0.606288	1.581476	1.465142
H220	H	0.095267	0.480396	0.120315
H221	H	0.428600	0.813730	0.453649
H222	H	0.761934	1.147063	0.786982
H223	H	-0.547527	0.706747	-0.000121
H224	H	-0.214194	1.040080	0.333212
H225	H	0.119139	1.373413	0.666546
H226	H	0.097231	0.612511	0.120336
H227	H	0.430564	0.945845	0.453669
H228	H	0.763898	1.279178	0.787003
O229	O	-0.127066	0.961145	-0.000114
O230	O	0.206267	1.294478	0.333219
O231	O	0.539600	1.627811	0.666552
H232	H	-0.170548	1.004837	-0.000130
H233	H	0.162785	1.338170	0.333204
H234	H	0.496118	1.671503	0.666537
O235	O	-0.278440	0.958911	-0.000104
O236	O	0.054893	1.292245	0.333229
O237	O	0.388227	1.625578	0.666562
H238	H	-0.246817	1.003714	-0.000095
H239	H	0.086517	1.337048	0.333239
H240	H	0.419850	1.670381	0.666572
H241	H	-0.235631	0.711349	-0.000099
H242	H	0.097703	1.044682	0.333234
H243	H	0.431036	1.378016	0.666567
H244	H	0.097218	0.612597	-0.120515
H245	H	0.430551	0.945930	0.212819
H246	H	0.763884	1.279263	0.546152
H247	H	-0.710565	0.935694	-0.000158
H248	H	-0.377232	1.269028	0.333175
H249	H	-0.043899	1.602361	0.666508
H250	H	-0.679641	0.704801	-0.000135
H251	H	-0.346308	1.038134	0.333198
H252	H	-0.012975	1.371468	0.666532
O253	O	-0.005987	0.923457	0.186555
O254	O	0.327347	1.256791	0.519889
O255	O	0.660680	1.590124	0.853222
H256	H	-0.039087	0.956571	0.226076
H257	H	0.294247	1.289905	0.559409
H258	H	0.627580	1.623238	0.892743
H259	H	0.095269	0.480487	-0.120527
H260	H	0.428603	0.813821	0.212807
H261	H	0.761936	1.147154	0.546140
O262	O	0.191910	0.725533	0.813199
O263	O	0.525243	1.058866	1.146533
O264	O	0.858576	1.392200	1.479866
H265	H	0.183920	0.733542	0.872931
H266	H	0.517253	1.066875	1.206265
H267	H	0.850587	1.400208	1.539598
H268	H	0.006598	0.910888	0.335735
H269	H	0.339931	1.244221	0.669069
H270	H	0.673265	1.577555	1.002402
H271	H	0.179308	0.738080	0.335766
H272	H	0.512641	1.071413	0.669099
H273	H	0.845974	1.404746	1.002432
H274	H	0.179304	0.738058	0.196716
H275	H	0.512638	1.071392	0.530049
H276	H	0.845971	1.404725	0.863382
H277	H	0.006606	0.910921	0.664004
H278	H	0.339940	1.244254	0.997338
H279	H	0.673273	1.577588	1.330671
H280	H	-0.103513	0.713289	-0.000096
H281	H	0.229821	1.046622	0.333238
H282	H	0.563154	1.379956	0.666571
H283	H	-0.578456	0.937644	-0.000135
H284	H	-0.245123	1.270977	0.333199
H285	H	0.088211	1.604310	0.666532
O286	O	0.090789	0.178232	-0.138095
O287	O	0.424122	0.511565	0.195238
O288	O	0.757456	0.844898	0.528572
H289	H	0.138165	0.157900	-0.169929
H290	H	0.471499	0.491233	0.163405
H291	H	0.804832	0.824567	0.496738
O292	O	0.088530	0.026857	-0.138111
O293	O	0.421863	0.360191	0.195223
O294	O	0.755196	0.693524	0.528556
H295	H	0.089067	0.064430	-0.184261
H296	H	0.422400	0.397763	0.149072
H297	H	0.755734	0.731096	0.482406
O298	O	0.191902	0.725527	0.653895
O299	O	0.525236	1.058861	0.987229
O300	O	0.858569	1.392194	1.320562
H301	H	0.225007	0.692421	0.693424
H302	H	0.558340	1.025754	1.026758
H303	H	0.891674	1.359087	1.360091
