data_functionalizedCrystal
_audit_creation_method	'MofGen! by Chris Wilmer'
_symmetry_space_group_name_H-M	'P1'
_symmetry_Int_Tables_number	1
_symmetry_cell_setting	triclinic
loop_
_symmetry_equiv_pos_as_xyz
  x,y,z
_cell_length_a	14.909383
_cell_length_b	14.908610
_cell_length_c	12.759393
_cell_angle_alpha	93.316892
_cell_angle_beta	93.267701
_cell_angle_gamma	96.378729
loop_
_atom_site_label
_atom_site_type_symbol
_atom_site_fract_x
_atom_site_fract_y
_atom_site_fract_z
Zn1	Zn	-0.440310	-1.404650	-0.717943
Zn2	Zn	-0.591678	-1.413273	-0.553022
Zn3	Zn	-0.431600	-1.253275	-0.531529
Zn4	Zn	-0.582861	-1.261978	-0.717908
O5	O	-0.511613	-1.333294	-0.630100
O6	O	-0.467725	-1.532463	-0.705076
O7	O	-0.570488	-1.392015	-0.403150
O8	O	-0.306105	-1.266104	-0.547277
O9	O	-0.578934	-1.538798	-0.583909
O10	O	-0.312504	-1.377319	-0.684235
O11	O	-0.452879	-1.274465	-0.387360
O12	O	-0.444330	-1.127760	-0.547243
O13	O	-0.563907	-1.280937	-0.864933
O14	O	-0.555461	-1.134154	-0.684174
O15	O	-0.459176	-1.385758	-0.864959
O16	O	-0.717160	-1.400454	-0.583874
O17	O	-0.710682	-1.289298	-0.705015
C18	C	-0.746762	-1.346781	-0.646798
C19	C	-0.847364	-1.352633	-0.653982
C20	C	-0.497995	-1.098113	-0.613373
C21	C	-0.492191	-0.997503	-0.606244
C22	C	-0.511530	-1.333357	-0.904133
C23	C	-0.511494	-1.333383	-1.020909
C24	C	-1.029903	-1.247928	-0.524752
C25	C	-1.124428	-1.253424	-0.531499
C26	C	-1.130941	-1.369125	-0.674217
C27	C	-1.036416	-1.363629	-0.667470
C28	C	-0.985900	-1.303028	-0.592736
C29	C	-0.891373	-1.297528	-0.585995
C30	C	-0.897888	-1.413233	-0.728707
C31	C	-0.992413	-1.418729	-0.735454
C32	C	-0.275547	-1.319779	-0.613362
C33	C	-0.174950	-1.314020	-0.606230
C34	C	-0.426066	-0.852338	-0.525006
C35	C	-0.431514	-0.946870	-0.531700
C36	C	-0.547420	-0.953599	-0.674100
C37	C	-0.541971	-0.859067	-0.667405
C38	C	-0.481293	-0.808440	-0.592855
C39	C	-0.475849	-0.713907	-0.586157
C40	C	-0.591750	-0.720637	-0.728560
C41	C	-0.597199	-0.815169	-0.735254
C42	C	-0.525276	-0.569392	-0.646884
C43	C	-0.531079	-0.670002	-0.654013
C44	C	-0.456951	-1.387967	-1.075786
C45	C	-0.456913	-1.387980	-1.185508
C46	C	-0.565968	-1.278823	-1.185467
C47	C	-0.566001	-1.278806	-1.075746
C48	C	-0.352004	-1.414237	-1.330194
C49	C	-0.297470	-1.468836	-1.385076
C50	C	-0.288701	-1.556358	-1.354771
C51	C	-0.334481	-1.589301	-1.269589
C52	C	-0.389022	-1.534707	-1.214713
C53	C	-0.397773	-1.447171	-1.245014
C54	C	-0.670912	-1.252559	-0.931059
C55	C	-0.725459	-1.197970	-0.876182
C56	C	-0.734236	-1.110446	-0.906485
C57	C	-0.688473	-1.077508	-0.991673
C58	C	-0.633927	-1.132097	-1.046550
C59	C	-0.625147	-1.219620	-1.016239
C60	C	-0.511633	-1.333280	-0.357133
C61	C	-0.511423	-1.333414	-0.240352
H62	H	-0.850244	-1.248181	-0.525146
H63	H	-1.160251	-1.208557	-0.476139
H64	H	-0.695623	-1.006240	-1.016349
H65	H	-0.663763	-1.323826	-0.906372
Cl66	Cl	-0.576392	-1.090687	-1.153643
Cl67	Cl	-0.673482	-0.878823	-0.828962
H68	H	-0.412566	-1.432405	-1.031140
H69	H	-1.172087	-1.418471	-0.735054
Cl70	Cl	-0.661176	-0.665445	-0.813868
Cl71	Cl	-0.623708	-1.017260	-0.767797
Cl72	Cl	-0.446571	-1.576112	-1.107633
Cl73	Cl	-0.363011	-1.304198	-1.368287
Cl74	Cl	-0.783000	-1.239384	-0.769096
Cl75	Cl	-0.239921	-1.427423	-1.492159
H76	H	-1.033556	-1.468071	-0.796297
H77	H	-0.862050	-1.458096	-0.784067
H78	H	-0.988772	-1.198578	-0.463908
H79	H	-0.778662	-1.066004	-0.861801
H80	H	-0.376661	-0.811117	-0.464303
Cl81	Cl	-0.220145	-1.624995	-1.423770
H82	H	-0.426441	-0.672687	-0.525455
Cl83	Cl	-0.362080	-1.002053	-0.446403
Cl84	Cl	-0.323467	-1.699342	-1.231509
H85	H	-0.610348	-1.234391	-1.230130
