data_functionalizedCrystal
_audit_creation_method	'MofGen! by Chris Wilmer'
_symmetry_space_group_name_H-M	'P1'
_symmetry_Int_Tables_number	1
_symmetry_cell_setting	triclinic
loop_
_symmetry_equiv_pos_as_xyz
  x,y,z
_cell_length_a	19.121063
_cell_length_b	16.120542
_cell_length_c	16.120297
_cell_angle_alpha	90.127087
_cell_angle_beta	84.820568
_cell_angle_gamma	90.317046
loop_
_atom_site_label
_atom_site_type_symbol
_atom_site_fract_x
_atom_site_fract_y
_atom_site_fract_z
Zn1	Zn	-0.355825	-1.228532	0.551617
Zn2	Zn	0.144175	-0.728532	1.051617
Zn3	Zn	-0.467608	-1.229541	0.417908
Zn4	Zn	0.032392	-0.729541	0.917908
Zn5	Zn	-0.343951	-1.097153	0.404964
Zn6	Zn	0.156049	-0.597153	0.904964
Zn7	Zn	-0.466953	-1.083532	0.549843
Zn8	Zn	0.033047	-0.583532	1.049843
O9	O	-0.408584	-1.159690	0.481083
O10	O	0.091416	-0.659690	0.981083
O11	O	-0.375897	-1.344754	0.540040
O12	O	0.124103	-0.844754	1.040040
O13	O	-0.446510	-1.218102	0.299601
O14	O	0.053490	-0.718102	0.799601
O15	O	-0.247268	-1.119858	0.419744
O16	O	0.252732	-0.619858	0.919744
O17	O	-0.458024	-1.345495	0.441805
O18	O	0.041976	-0.845495	0.941805
O19	O	-0.255991	-1.216382	0.527489
O20	O	0.244009	-0.716382	1.027489
O21	O	-0.355660	-1.120837	0.290092
O22	O	0.144340	-0.620837	0.790092
O23	O	-0.355024	-0.979258	0.418023
O24	O	0.144976	-0.479258	0.918023
O25	O	-0.456906	-1.096644	0.666668
O26	O	0.043094	-0.596644	1.166668
O27	O	-0.445392	-0.969251	0.524465
O28	O	0.054608	-0.469251	1.024465
O29	O	-0.375261	-1.203175	0.667972
O30	O	0.124739	-0.703175	1.167972
O31	O	-0.565780	-1.204895	0.440085
O32	O	-0.065780	-0.704895	0.940085
O33	O	-0.565298	-1.097623	0.537016
O34	O	-0.065298	-0.597623	1.037016
C35	C	-0.591018	-1.149912	0.489782
C36	C	-0.091018	-0.649912	0.989782
C37	C	-0.669068	-1.145803	0.493535
C38	C	-0.169068	-0.645803	0.993535
C39	C	-0.398849	-0.944154	0.469647
C40	C	0.101151	-0.444154	0.969647
C41	C	-0.394702	-0.851945	0.464776
C42	C	0.105298	-0.351945	0.964776
C43	C	-0.417335	-1.148277	0.698396
C44	C	0.082665	-0.648277	1.198396
C45	C	-0.421064	-1.143414	0.791002
C46	C	0.078936	-0.643414	1.291002
C47	C	-0.705968	-1.199763	0.444877
C48	C	-0.205968	-0.699763	0.944877
C49	C	-0.779305	-1.195904	0.448412
C50	C	-0.279305	-0.695904	0.948412
C51	C	-0.815741	-1.138080	0.500601
C52	C	-0.315741	-0.638080	1.000601
C53	C	-0.778836	-1.084118	0.549264
C54	C	-0.278836	-0.584118	1.049264
C55	C	-0.705501	-1.087982	0.545733
C56	C	-0.205501	-0.587982	1.045733
C57	C	-1.037155	-1.123621	0.513789
C58	C	-0.537155	-0.623621	1.013789
C59	C	-1.110495	-1.119759	0.517315
C60	C	-0.610495	-0.619759	1.017315
C61	C	-1.110959	-1.231547	0.416464
C62	C	-0.610959	-0.731547	0.916464
C63	C	-1.037622	-1.235402	0.412934
C64	C	-0.537622	-0.735402	0.912934
C65	C	-1.000724	-1.181443	0.461600
C66	C	-0.500724	-0.681443	0.961600
C67	C	-0.890703	-1.134132	0.504214
C68	C	-0.390703	-0.634132	1.004214
C69	C	-0.925764	-1.185396	0.457991
C70	C	-0.425764	-0.685396	0.957991
C71	C	-0.225440	-1.169527	0.472370
C72	C	0.274560	-0.669527	0.972370
C73	C	-0.147395	-1.173719	0.468657
C74	C	0.352605	-0.673719	0.968657
C75	C	-0.430074	-0.637104	0.506308
C76	C	0.069926	-0.137104	1.006308
C77	C	-0.387137	-0.683123	0.455880
C78	C	0.112863	-0.183123	0.955880
C79	C	-0.391347	-0.777064	0.460831
C80	C	0.108653	-0.277064	0.960831
C81	C	-0.425864	-0.543154	0.501358
C82	C	0.074136	-0.043154	1.001358
C83	C	-0.418354	-0.376067	0.492553
C84	C	0.081646	0.123933	0.992553
C85	C	-0.422506	-0.468277	0.497410
C86	C	0.077494	0.031723	0.997410
C87	C	-0.399819	-1.171108	0.264616
C88	C	0.100181	-0.671108	0.764616
C89	C	-0.395899	-1.176142	0.172010
C90	C	0.104101	-0.676142	0.672010
C91	C	-0.427855	-1.134505	0.960551
C92	C	0.072145	-0.634505	1.460551
C93	C	-0.389110	-1.185048	1.002466
C94	C	0.110890	-0.685048	1.502466
C95	C	-0.392889	-1.180092	1.096809
C96	C	0.107111	-0.680092	1.596809
C97	C	-0.424077	-1.139461	0.866199
C98	C	0.075923	-0.639461	1.366199
H99	H	-0.809345	-1.239843	0.408789
H100	H	-0.309345	-0.739843	0.908789
N101	N	-0.343929	-1.243997	0.958606
N102	N	0.156071	-0.743997	1.458606
N103	N	-0.295956	-1.219721	0.906338
N104	N	0.204044	-0.719721	1.406338
H105	H	-0.264048	-1.261352	0.875359
H106	H	0.235952	-0.761352	1.375359
N107	N	-0.337069	-0.644046	0.397038
N108	N	0.162931	-0.144046	0.897038
N109	N	-0.338962	-0.657421	0.320863
N110	N	0.161038	-0.157421	0.820863
H111	H	-0.303605	-0.629819	0.279305
H112	H	0.196395	-0.129819	0.779305
H113	H	-0.469992	-0.668256	0.553194
H114	H	0.030008	-0.168256	1.053194
N115	N	-0.999478	-1.068510	0.563511
N116	N	-0.499478	-0.568510	1.063511
N117	N	-1.010989	-1.069489	0.641075
N118	N	-0.510989	-0.569489	1.141075
H119	H	-0.984379	-1.030564	0.676197
H120	H	-0.484379	-0.530564	1.176197
N121	N	-0.473017	-1.075541	1.004405
N122	N	0.026983	-0.575541	1.504405
N123	N	-0.464517	-0.999740	0.990475
N124	N	0.035483	-0.499740	1.490475
H125	H	-0.496409	-0.958094	1.021458
H126	H	0.003591	-0.458094	1.521458
H127	H	-0.676306	-1.246846	0.402376
H128	H	-0.176306	-0.746846	0.902376
H129	H	-1.140160	-1.072682	0.559828
H130	H	-0.640160	-0.572682	1.059828
N131	N	-1.000416	-1.294470	0.359616
N132	N	-0.500416	-0.794470	0.859616
N133	N	-1.033371	-1.342645	0.316174
N134	N	-0.533371	-0.842645	0.816174
H135	H	-1.007095	-1.384361	0.278515
H136	H	-0.507095	-0.884361	0.778515
N137	N	-0.888559	-1.244468	0.404683
N138	N	-0.388559	-0.744468	0.904683
N139	N	-0.900369	-1.320292	0.414716
N140	N	-0.400369	-0.820292	0.914716
H141	H	-0.874088	-1.362011	0.377064
H142	H	-0.374088	-0.862011	0.877064
N143	N	-1.148660	-1.286654	0.366760
N144	N	-0.648660	-0.786654	0.866760
N145	N	-1.214137	-1.283199	0.369915
N146	N	-0.714137	-0.783199	0.869915
H147	H	-1.240765	-1.322121	0.334812
H148	H	-0.740765	-0.822121	0.834812
H149	H	-0.675458	-1.044043	0.585357
H150	H	-0.175458	-0.544043	1.085357
N151	N	-0.816064	-1.025052	0.602563
N152	N	-0.316064	-0.525052	1.102563
N153	N	-0.853467	-0.971598	0.572372
N154	N	-0.353467	-0.471598	1.072372
H155	H	-0.879760	-0.929880	0.610013
H156	H	-0.379760	-0.429880	1.110013
N157	N	-0.927935	-1.075064	0.557506
N158	N	-0.427935	-0.575064	1.057506
N159	N	-0.965343	-1.021619	0.527309
N160	N	-0.465343	-0.521619	1.027309
H161	H	-0.991643	-0.979903	0.564947
H162	H	-0.491643	-0.479903	1.064947
