data_functionalizedCrystal
_audit_creation_method	'MofGen! by Chris Wilmer'
_symmetry_space_group_name_H-M	'P1'
_symmetry_Int_Tables_number	1
_symmetry_cell_setting	triclinic
loop_
_symmetry_equiv_pos_as_xyz
  x,y,z
_cell_length_a	6.817900
_cell_length_b	10.943624
_cell_length_c	19.551823
_cell_angle_alpha	94.462887
_cell_angle_beta	101.663376
_cell_angle_gamma	108.838799
loop_
_atom_site_label
_atom_site_type_symbol
_atom_site_fract_x
_atom_site_fract_y
_atom_site_fract_z
V1	V	-4.079292	-0.403155	-0.096657
O2	O	-4.074951	-0.394859	0.004664
O3	O	-4.021653	-0.400995	-0.191672
O4	O	-4.057814	-0.578712	-0.095161
O5	O	-4.038540	-0.215912	-0.092515
V6	V	-4.560628	-0.380686	-0.084538
O7	O	-4.345346	-0.452441	-0.123239
O8	O	-4.744771	-0.331400	-0.057956
O9	O	-4.395060	-0.382846	0.010477
O10	O	-4.682366	-0.388982	-0.185859
O11	O	-4.718777	-0.567929	-0.088680
O12	O	-4.358899	-0.205129	-0.086034
C13	C	-3.863535	-0.394789	-0.214835
C14	C	-3.897876	-0.394193	-0.292511
C15	C	-4.096764	-0.400370	-0.332556
C16	C	-4.129037	-0.399823	-0.405542
C17	C	-3.962397	-0.393074	-0.438478
C18	C	-3.763484	-0.386904	-0.398424
C19	C	-3.731223	-0.387464	-0.325440
C20	C	-3.836613	-0.311204	-0.544970
C21	C	-3.868877	-0.310636	-0.617951
C22	C	-4.061895	-0.391353	-0.663584
C23	C	-4.222671	-0.472621	-0.636225
C24	C	-4.190411	-0.473181	-0.563242
C25	C	-3.997358	-0.392467	-0.517616
C26	C	-4.295791	-0.396939	-0.782770
C27	C	-4.328061	-0.396400	-0.855758
C28	C	-3.962496	-0.383467	-0.848637
C29	C	-3.930238	-0.384019	-0.775651
C30	C	-4.096891	-0.390749	-0.742722
C31	C	-3.909661	-0.621483	-0.091725
C32	C	-3.973323	-0.765006	-0.091132
C33	C	-3.819651	-0.842128	-0.087134
C34	C	-3.986783	-0.948489	-0.146473
C35	C	-3.919650	-0.914380	-0.030741
C36	C	-4.139646	-0.869490	-0.150527
C37	C	-4.072452	-0.835357	-0.034742
C38	C	-4.239715	-0.941688	-0.094098
C39	C	-4.216519	-0.389048	0.033636
C40	C	-4.161418	-0.389653	0.111311
C41	C	-4.170393	-0.162351	-0.089472
C42	C	-4.085969	-0.018827	-0.090062
H43	H	-4.291001	-0.404852	-0.438154
H44	H	-4.232473	-0.405858	-0.305751
H45	H	-4.107923	-0.786078	0.012496
O46	O	-3.607224	-0.790133	-0.083810
C47	C	-3.336433	-0.671548	-0.140198
C48	C	-3.577053	-0.730346	-0.144039
H49	H	-3.311965	-0.623219	-0.188894
H50	H	-3.254282	-0.595538	-0.090610
H51	H	-3.264916	-0.752452	-0.138266
H52	H	-3.648758	-0.649532	-0.145998
H53	H	-3.659051	-0.806387	-0.193620
H54	H	-3.627808	-0.381412	-0.425245
H55	H	-4.417921	-0.984951	-0.097057
H56	H	-4.321320	-0.539355	-0.540970
H57	H	-3.951228	-0.997733	-0.193709
H58	H	-4.232045	-0.849262	-0.201207
O59	O	-3.809104	-0.938557	0.029643
C60	C	-3.463597	-0.915285	0.101502
C61	C	-3.588539	-0.887798	0.033105
H62	H	-3.285251	-0.874284	0.104316
H63	H	-3.498253	-0.866763	0.149176
H64	H	-3.514823	-1.025254	0.101625
H65	H	-3.537387	-0.777854	0.032913
H66	H	-3.553877	-0.936408	-0.014539
H67	H	-4.431489	-0.402416	-0.755957
H68	H	-4.490028	-0.401438	-0.888363
H69	H	-4.379691	-0.538526	-0.673390
H70	H	-3.826817	-0.377980	-0.875453
H71	H	-3.737968	-0.244454	-0.640220
O72	O	-3.649019	-0.232658	-0.500741
C73	C	-3.301482	-0.071963	-0.490320
C74	C	-3.513834	-0.160825	-0.540485
H75	H	-3.192109	-0.013883	-0.522435
H76	H	-3.333898	-0.001719	-0.451601
H77	H	-3.221177	-0.134583	-0.459785
H78	H	-3.594249	-0.098310	-0.571068
H79	H	-3.481279	-0.231076	-0.579160
H80	H	-3.768279	-0.378981	-0.743045
O81	O	-3.538015	-0.381283	-0.286447
C82	C	-3.234857	-0.261920	-0.190469
C83	C	-3.453664	-0.268783	-0.234563
H84	H	-3.166573	-0.170957	-0.148520
H85	H	-3.254569	-0.352612	-0.163720
H86	H	-3.121365	-0.257069	-0.226563
H87	H	-3.567270	-0.273591	-0.198518
H88	H	-3.433784	-0.178092	-0.261319
