data_functionalizedCrystal
_audit_creation_method	'MofGen! by Chris Wilmer'
_symmetry_space_group_name_H-M	'P1'
_symmetry_Int_Tables_number	1
_symmetry_cell_setting	triclinic
loop_
_symmetry_equiv_pos_as_xyz
  x,y,z
_cell_length_a	19.188905
_cell_length_b	19.188930
_cell_length_c	12.503572
_cell_angle_alpha	93.506241
_cell_angle_beta	86.486933
_cell_angle_gamma	83.139668
loop_
_atom_site_label
_atom_site_type_symbol
_atom_site_fract_x
_atom_site_fract_y
_atom_site_fract_z
O1	O	0.930203	0.083024	-0.089510
O2	O	0.726888	0.094778	-0.089475
O3	O	0.834412	-0.012754	-0.089472
O4	O	0.822679	0.190556	-0.089512
O5	O	0.826325	-0.004654	0.089169
O6	O	0.718801	0.102878	0.089167
O7	O	0.922117	0.091124	0.089132
Cu8	Cu	0.819721	0.097741	0.105461
Cu9	Cu	0.829284	0.088161	-0.105804
O10	O	0.814593	0.198657	0.089130
C11	C	0.696833	0.098451	-0.000149
C12	C	0.619327	0.097318	-0.000135
C13	C	0.587343	0.092358	-0.097515
C14	C	0.514520	0.091284	-0.097528
C15	C	0.473685	0.095157	-0.000155
C16	C	0.505677	0.100122	0.097238
C17	C	0.578497	0.101202	0.097248
N18	N	0.361384	0.057014	0.072318
N19	N	0.292208	0.055986	0.072301
C20	C	0.254280	0.091903	-0.000181
N21	N	0.288143	0.128877	-0.072662
N22	N	0.357326	0.129902	-0.072649
C23	C	0.394723	0.093986	-0.000156
C24	C	0.143333	0.085779	-0.097582
C25	C	0.070508	0.084710	-0.097591
C26	C	0.061667	0.093541	0.097178
C27	C	0.134490	0.094617	0.097184
C28	C	0.175319	0.090733	-0.000199
C29	C	0.829988	-0.034715	-0.000148
C30	C	0.828847	-0.112219	-0.000139
C31	C	0.891939	-0.157149	-0.000145
C32	C	0.890868	-0.229973	-0.000162
C33	C	0.826701	-0.257864	-0.000151
C34	C	0.763601	-0.212924	-0.000152
C35	C	0.764674	-0.140102	-0.000145
N36	N	0.774901	-0.363107	0.060652
N37	N	0.773885	-0.432286	0.060649
C38	C	0.823464	-0.477273	-0.000172
N39	N	0.874106	-0.450469	-0.060976
N40	N	0.875123	-0.381284	-0.060968
C41	C	0.825530	-0.336826	-0.000159
C42	C	0.885399	-0.601168	-0.000198
C43	C	0.884325	-0.673994	-0.000222
C44	C	0.757056	-0.656943	-0.000201
C45	C	0.758131	-0.584119	-0.000188
C46	C	0.822305	-0.556236	-0.000182
C47	C	0.952171	0.087452	-0.000196
C48	C	1.029678	0.088584	-0.000217
C49	C	0.819016	0.220617	-0.000197
C50	C	0.820158	0.298121	-0.000213
N51	N	0.812999	0.104478	0.254053
N52	N	0.836011	0.081418	-0.254396
C53	C	0.803112	0.114395	0.473168
C54	C	0.845895	0.071504	0.526496
C55	C	0.840394	0.077022	0.648419
C56	C	0.808613	0.108878	0.351234
H57	H	0.620582	0.089195	-0.176812
Br58	Br	0.969959	-0.734973	-0.000241
Br59	Br	0.676516	-0.250774	-0.000151
Br60	Br	0.471103	0.084553	-0.229697
H61	H	0.886655	0.030640	0.480584
Br62	Br	0.177900	0.101347	0.229351
Br63	Br	0.450259	0.105385	0.229388
Br64	Br	0.976499	-0.290962	-0.000174
H65	H	0.604537	0.105242	0.176549
Br66	Br	0.198748	0.080513	-0.229741
H67	H	0.762356	0.155258	0.519075
Br68	Br	0.679043	-0.079121	-0.000141
H69	H	0.044468	0.080675	-0.176893
Br70	Br	0.972488	-0.563322	-0.000178
H71	H	0.944194	-0.134452	-0.000143
H72	H	0.704810	-0.679650	-0.000198
Br73	Br	0.672502	-0.523138	-0.000179
H74	H	0.028419	0.096699	0.176460
