data_functionalizedCrystal
_audit_creation_method	'MofGen! by Chris Wilmer'
_symmetry_space_group_name_H-M	'P1'
_symmetry_Int_Tables_number	1
_symmetry_cell_setting	triclinic
loop_
_symmetry_equiv_pos_as_xyz
  x,y,z
_cell_length_a	19.121102
_cell_length_b	25.639239
_cell_length_c	19.121175
_cell_angle_alpha	92.412705
_cell_angle_beta	85.212968
_cell_angle_gamma	87.592882
loop_
_atom_site_label
_atom_site_type_symbol
_atom_site_fract_x
_atom_site_fract_y
_atom_site_fract_z
Zn1	Zn	1.092540	-0.257000	-0.443656
Zn2	Zn	1.592540	0.243000	0.056344
Zn3	Zn	1.087414	-0.340536	-0.325985
Zn4	Zn	1.587414	0.159464	0.174015
Zn5	Zn	0.969867	-0.249219	-0.320995
Zn6	Zn	1.469867	0.250781	0.179005
Zn7	Zn	0.974814	-0.340501	-0.438597
Zn8	Zn	1.474814	0.159499	0.061403
O9	O	1.031158	-0.296814	-0.382308
O10	O	1.531158	0.203186	0.117692
O11	O	1.190322	-0.271353	-0.432253
O12	O	1.690322	0.228647	0.067747
O13	O	1.067605	-0.325180	-0.226860
O14	O	1.567605	0.174820	0.273140
O15	O	0.986215	-0.177089	-0.337295
O16	O	1.486215	0.322911	0.162705
O17	O	1.186556	-0.332726	-0.345800
O18	O	1.686556	0.167274	0.154200
O19	O	1.076342	-0.182806	-0.427414
O20	O	1.576342	0.317194	0.072586
O21	O	0.981244	-0.258090	-0.223194
O22	O	1.481244	0.241910	0.276806
O23	O	0.872061	-0.258056	-0.332389
O24	O	1.372061	0.241944	0.167611
O25	O	0.994646	-0.332667	-0.537731
O26	O	1.494646	0.167333	-0.037731
O27	O	0.875695	-0.325121	-0.418791
O28	O	1.375695	0.174879	0.081209
O29	O	1.081138	-0.271319	-0.541448
O30	O	1.581138	0.228681	-0.041448
O31	O	1.072402	-0.413693	-0.340895
O32	O	1.572402	0.086307	0.159105
O33	O	0.989675	-0.413668	-0.423630
O34	O	1.489675	0.086332	0.076370
C35	C	0.848348	-0.290741	-0.374500
C36	C	1.348348	0.209259	0.125500
C37	C	0.770141	-0.288156	-0.371176
C38	C	1.270141	0.211844	0.128824
C39	C	1.031039	-0.432652	-0.382271
C40	C	1.531039	0.067348	0.117729
C41	C	1.031053	-0.490766	-0.382281
C42	C	1.531053	0.009234	0.117719
C43	C	0.735307	-0.321907	-0.414529
C44	C	1.235307	0.178093	0.085471
C45	C	0.661824	-0.319471	-0.411409
C46	C	1.161824	0.180529	0.088591
C47	C	0.623176	-0.283287	-0.364933
C48	C	1.123176	0.216713	0.135067
C49	C	0.658015	-0.249533	-0.321578
C50	C	1.158015	0.250467	0.178422
C51	C	0.731497	-0.251966	-0.324702
C52	C	1.231497	0.248034	0.175298
C53	C	0.401212	-0.274188	-0.353257
C54	C	0.901212	0.225812	0.146743
C55	C	0.327725	-0.271758	-0.350136
C56	C	0.827725	0.228242	0.149864
C57	C	0.331539	-0.341697	-0.439968
C58	C	0.831539	0.158303	0.060032
C59	C	0.405022	-0.344129	-0.443084
C60	C	0.905022	0.155871	0.056916
C61	C	0.439855	-0.310373	-0.399733
C62	C	0.939855	0.189627	0.100267
C63	C	0.548064	-0.280798	-0.361741
C64	C	1.048064	0.219202	0.138259
C65	C	0.514965	-0.312860	-0.402928
C66	C	1.014965	0.187140	0.097072
C67	C	1.074355	-0.851141	-0.339310
C68	C	1.574355	-0.351141	0.160690
C69	C	1.074383	-0.905746	-0.339320
C70	C	1.574383	-0.405746	0.160680
O71	O	1.111075	-0.933987	-0.302743
O72	O	1.611075	-0.433987	0.197257
N73	N	1.031284	-0.933059	-0.382360
N74	N	1.531284	-0.433059	0.117640
C75	C	0.988160	-0.905763	-0.425398
C76	C	1.488160	-0.405763	0.074602
O77	O	0.951505	-0.934009	-0.462008
O78	O	1.451505	-0.434009	0.037992
C79	C	0.988137	-0.851159	-0.425390
C80	C	1.488137	-0.351159	0.074610
C81	C	1.031233	-0.823849	-0.382342
C82	C	1.531233	-0.323849	0.117658
C83	C	1.117448	-0.823831	-0.296265
C84	C	1.617448	-0.323831	0.203735
C85	C	1.117419	-0.769229	-0.296254
C86	C	1.617419	-0.269229	0.203746
C87	C	1.074297	-0.741937	-0.339287
C88	C	1.574297	-0.241937	0.160713
C89	C	1.031204	-0.769247	-0.382331
C90	C	1.531204	-0.269247	0.117669
C91	C	0.945017	-0.823865	-0.468431
C92	C	1.445017	-0.323865	0.031569
C93	C	0.944998	-0.769257	-0.468420
C94	C	1.444998	-0.269257	0.031580
C95	C	0.988094	-0.741947	-0.425372
C96	C	1.488094	-0.241947	0.074628
C97	C	0.988053	-0.687353	-0.425352
C98	C	1.488053	-0.187353	0.074648
N99	N	1.031152	-0.660041	-0.382312
N100	N	1.531152	-0.160041	0.117688
C101	C	1.074274	-0.687333	-0.339279
C102	C	1.574274	-0.187333	0.160721
C103	C	0.988214	-1.020436	-0.425411
C104	C	1.488214	-0.520436	0.074589
C105	C	0.988233	-1.075039	-0.425415
C106	C	1.488233	-0.575039	0.074585
C107	C	1.074457	-1.075018	-0.339338
C108	C	1.574457	-0.575018	0.160662
C109	C	1.074433	-1.020414	-0.339331
C110	C	1.574433	-0.520414	0.160669
C111	C	1.031312	-0.993123	-0.382371
C112	C	1.531312	-0.493123	0.117629
C113	C	1.074210	-0.572665	-0.339258
C114	C	1.574210	-0.072665	0.160742
C115	C	1.074175	-0.518058	-0.339249
C116	C	1.574175	-0.018058	0.160751
C117	C	0.987954	-0.518084	-0.425328
C118	C	1.487954	-0.018084	0.074672
C119	C	0.987986	-0.572686	-0.425335
C120	C	1.487986	-0.072686	0.074665
C121	C	1.031119	-0.599975	-0.382298
C122	C	1.531119	-0.099975	0.117702
O123	O	0.951381	-0.659078	-0.461912
O124	O	1.451381	-0.159078	0.038088
O125	O	1.110930	-0.659081	-0.302682
O126	O	1.610930	-0.159081	0.197318
C127	C	1.214683	-0.302911	-0.390148
C128	C	1.714683	0.197089	0.109852
C129	C	1.292891	-0.305509	-0.393488
C130	C	1.792891	0.194491	0.106512
C131	C	1.039016	-0.302857	-0.565834
C132	C	1.539016	0.197143	-0.065834
C133	C	1.042364	-0.305433	-0.644042
C134	C	1.542364	0.194567	-0.144042
C135	C	1.031298	-0.160447	-0.382362
C136	C	1.531298	0.339553	0.117638
C137	C	1.031358	-0.102336	-0.382385
C138	C	1.531358	0.397664	0.117615
C139	C	0.998975	-0.271713	-0.678874
C140	C	1.498975	0.228287	-0.178874
C141	C	1.002119	-0.274137	-0.752359
C142	C	1.502119	0.225863	-0.252359
C143	C	1.048654	-0.310279	-0.791009
C144	C	1.548654	0.189721	-0.291009
C145	C	1.092045	-0.344002	-0.756171
C146	C	1.592045	0.155998	-0.256171
C147	C	1.088897	-0.341580	-0.682688
C148	C	1.588897	0.158420	-0.182688
C149	C	1.060404	-0.319341	-1.012976
C150	C	1.560404	0.180659	-0.512976
C151	C	1.063549	-0.321759	-1.086464
C152	C	1.563549	0.178241	-0.586464
C153	C	0.973622	-0.251895	-1.082646
C154	C	1.473622	0.248105	-0.582646
C155	C	0.970481	-0.249474	-1.009162
C156	C	1.470481	0.250526	-0.509162
C157	C	1.013869	-0.283199	-0.974331
C158	C	1.513869	0.216801	-0.474331
C159	C	1.051870	-0.312756	-0.866122
C160	C	1.551870	0.187244	-0.366122
C161	C	1.010649	-0.280724	-0.899219
C162	C	1.510649	0.219276	-0.399219
C163	C	1.023372	-0.290758	-0.199498
C164	C	1.523372	0.209242	0.300502
C165	C	1.020161	-0.288040	-0.121297
C166	C	1.520161	0.211960	0.378703
H167	H	0.766769	-0.351374	-0.452373
H168	H	1.266769	0.148626	0.047627
H169	H	0.633465	-0.346955	-0.446711
H170	H	1.133465	0.153045	0.053289
C171	C	0.954395	-0.237037	-0.790671
C172	C	1.454395	0.262963	-0.290671
N173	N	0.918449	-0.209091	-0.819528
N174	N	1.418449	0.290909	-0.319528
H175	H	0.932585	-0.220045	-0.977698
H176	H	1.432585	0.279955	-0.477698
C177	C	0.897609	-0.853894	-0.515791
C178	C	1.397609	-0.353894	-0.015791
N179	N	0.861900	-0.876510	-0.551466
N180	N	1.361900	-0.376510	-0.051466
H181	H	0.436484	-0.373595	-0.480929
H182	H	0.936484	0.126405	0.019071
H183	H	0.516588	-0.251338	-0.323899
H184	H	1.016588	0.248662	0.176101
H185	H	0.296260	-0.242287	-0.312293
H186	H	0.796260	0.257713	0.187707
H187	H	0.938297	-0.224438	-1.111014
H188	H	1.438297	0.275562	-0.611014
C189	C	1.121898	-1.105050	-0.292007
C190	C	1.621898	-0.605050	0.207993
N191	N	1.157629	-1.127672	-0.256360
N192	N	1.657629	-0.627672	0.243640
H193	H	0.429564	-0.246705	-0.317952
H194	H	0.929564	0.253295	0.182048
H195	H	1.109269	-0.495824	-0.304191
H196	H	1.609269	0.004176	0.195809
C197	C	0.293217	-0.378822	-0.487657
C198	C	0.793217	0.121178	0.012343
N199	N	0.264352	-0.406785	-0.523580
N200	N	0.764352	0.093215	-0.023580
C201	C	1.114742	-0.361522	-1.128978
C202	C	1.614742	0.138478	-0.628978
N203	N	1.153298	-0.391469	-1.161000
N204	N	1.653298	0.108531	-0.661000
H205	H	0.909885	-0.747039	-0.503471
H206	H	1.409885	-0.247039	-0.003471
H207	H	0.626542	-0.220069	-0.283739
H208	H	1.126542	0.279931	0.216261
H209	H	0.759858	-0.224480	-0.289403
H210	H	1.259858	0.275520	0.210597
H211	H	1.109526	-0.998181	-0.304278
H212	H	1.609526	-0.498181	0.195722
C213	C	1.108171	-0.356412	-0.974673
C214	C	1.608171	0.143588	-0.474673
N215	N	1.144166	-0.384326	-0.945821
N216	N	1.644166	0.115674	-0.445821
C217	C	1.121654	-0.602675	-0.291911
C218	C	1.621654	-0.102675	0.208089
N219	N	1.157385	-0.625278	-0.256245
N220	N	1.657385	-0.125278	0.243755
C221	C	1.143075	-0.383871	-0.798682
C222	C	1.643075	0.116129	-0.298682
N223	N	1.181457	-0.413941	-0.830698
N224	N	1.681457	0.086059	-0.330698
H225	H	1.124234	-0.369034	-0.654329
H226	H	1.624234	0.130966	-0.154329
H227	H	0.546436	-0.342319	-0.440772
H228	H	1.046436	0.157681	0.059228
H229	H	0.952896	-0.594923	-0.460391
H230	H	1.452896	-0.094923	0.039609
C231	C	1.164823	-0.739195	-0.248891
C232	C	1.664823	-0.239195	0.251109
N233	N	1.200528	-0.716576	-0.213213
N234	N	1.700528	-0.216576	0.286787
C235	C	1.164886	-0.853843	-0.248918
C236	C	1.664886	-0.353843	0.251082
N237	N	1.200615	-0.876444	-0.213247
N238	N	1.700615	-0.376444	0.286753
C239	C	0.940817	-1.105073	-0.472764
C240	C	1.440817	-0.605073	0.027236
N241	N	0.905104	-1.127694	-0.508433
N242	N	1.405104	-0.627694	-0.008433
C243	C	0.940778	-0.990421	-0.472764
C244	C	1.440778	-0.490421	0.027236
N245	N	0.905052	-0.967817	-0.508435
N246	N	1.405052	-0.467817	-0.008435
C247	C	0.940525	-0.488053	-0.472664
C248	C	1.440525	0.011947	0.027336
N249	N	0.904806	-0.465432	-0.508323
N250	N	1.404806	0.034568	-0.008323
C251	C	0.947781	-0.231954	-0.636365
C252	C	1.447781	0.268046	-0.136365
N253	N	0.909218	-0.202008	-0.604350
N254	N	1.409218	0.297992	-0.104350
H255	H	0.972758	-0.251299	-0.867747
H256	H	1.472758	0.248701	-0.367747
H257	H	1.089759	-0.342183	-0.897599
H258	H	1.589759	0.157817	-0.397599
