data_functionalizedCrystal
_audit_creation_method	'MofGen! by Chris Wilmer'
_symmetry_space_group_name_H-M	'P1'
_symmetry_Int_Tables_number	1
_symmetry_cell_setting	triclinic
loop_
_symmetry_equiv_pos_as_xyz
  x,y,z
_cell_length_a	17.077404
_cell_length_b	17.639999
_cell_length_c	17.077396
_cell_angle_alpha	78.772349
_cell_angle_beta	90.015921
_cell_angle_gamma	101.196076
loop_
_atom_site_label
_atom_site_type_symbol
_atom_site_fract_x
_atom_site_fract_y
_atom_site_fract_z
Zn1	Zn	1.263249	0.314698	0.380708
Zn2	Zn	1.763249	0.814698	0.880708
Zn3	Zn	1.289714	0.446884	0.222933
Zn4	Zn	1.789714	0.946884	0.722933
Zn5	Zn	1.131992	0.314724	0.249453
Zn6	Zn	1.631992	0.814724	0.749453
Zn7	Zn	1.158490	0.446828	0.354170
Zn8	Zn	1.658490	0.946828	0.854170
O9	O	1.210861	0.380784	0.301816
O10	O	1.710861	0.880784	0.801816
O11	O	1.376609	0.332245	0.359786
O12	O	1.876609	0.832245	0.859786
O13	O	1.268778	0.429387	0.116597
O14	O	1.768778	0.929387	0.616597
O15	O	1.127238	0.204115	0.289069
O16	O	1.627238	0.704115	0.789069
O17	O	1.396053	0.429362	0.243869
O18	O	1.896053	0.929362	0.743869
O19	O	1.223672	0.204096	0.385502
O20	O	1.723672	0.704096	0.885502
O21	O	1.152900	0.332290	0.136081
O22	O	1.652900	0.832290	0.636081
O23	O	1.025657	0.332236	0.263337
O24	O	1.525657	0.832236	0.763337
O25	O	1.172400	0.429266	0.467544
O26	O	1.672400	0.929266	0.967544
O27	O	1.045125	0.429292	0.340272
O28	O	1.545125	0.929292	0.840272
O29	O	1.249366	0.332191	0.487041
O30	O	1.749366	0.832191	0.987041
O31	O	1.294472	0.557483	0.218136
O32	O	1.794472	1.057483	0.718136
O33	O	1.198062	0.557442	0.314556
O34	O	1.698062	1.057442	0.814556
C35	C	1.006909	0.380761	0.301803
C36	C	1.506909	0.880761	0.801803
C37	C	0.919661	0.380771	0.301812
C38	C	1.419661	0.880771	0.801812
C39	C	0.868565	0.330292	0.362228
C40	C	1.368565	0.830292	0.862228
C41	C	0.786586	0.330297	0.362231
C42	C	1.286586	0.830297	0.862231
C43	C	0.755704	0.380785	0.301820
C44	C	1.255704	0.880785	0.801820
C45	C	0.806806	0.431266	0.241397
C46	C	1.306806	0.931266	0.741397
C47	C	0.888783	0.431257	0.241392
C48	C	1.388783	0.931257	0.741392
C49	C	0.635940	0.431284	0.241413
C50	C	1.135940	0.931284	0.741413
C51	C	0.553957	0.431295	0.241419
C52	C	1.053957	0.931295	0.741419
C53	C	0.533742	0.330325	0.362252
C54	C	1.033742	0.830325	0.862252
C55	C	0.615719	0.330315	0.362247
C56	C	1.115719	0.830315	0.862247
C57	C	0.666816	0.380797	0.301825
C58	C	1.166816	0.880797	0.801825
C59	C	1.252035	0.586141	0.260606
C60	C	1.752035	1.086141	0.760606
C61	C	1.269722	0.673994	0.243002
C62	C	1.769722	1.173994	0.743002
C63	C	1.076699	0.962961	0.435817
C64	C	1.576699	1.462961	0.935817
C65	C	1.093320	1.045512	0.419250
C66	C	1.593320	1.545512	0.919250
C67	C	1.193774	1.045490	0.318950
C68	C	1.693774	1.545490	0.818950
C69	C	1.177164	0.962937	0.335511
C70	C	1.677164	1.462937	0.835511
C71	C	1.118625	0.921679	0.393944
C72	C	1.618625	1.421679	0.893944
C73	C	1.219090	0.921655	0.293638
C74	C	1.719090	1.421655	0.793638
C75	C	1.202479	0.839109	0.310195
C76	C	1.702479	1.339109	0.810195
C77	C	1.143942	0.797846	0.368624
C78	C	1.643942	1.297846	0.868624
C79	C	1.102014	0.839134	0.410501
C80	C	1.602014	1.339134	0.910501
C81	C	1.277625	0.962914	0.235201
C82	C	1.777625	1.462914	0.735201
C83	C	1.319551	0.921632	0.193329
C84	C	1.819551	1.421632	0.693329
C85	C	1.302944	0.839085	0.209889
C86	C	1.802944	1.339085	0.709889
C87	C	1.244407	0.797821	0.268318
C88	C	1.744407	1.297821	0.768318
C89	C	1.344872	0.797797	0.168012
C90	C	1.844872	1.297797	0.668012
C91	C	1.328260	0.715251	0.184569
C92	C	1.828260	1.215251	0.684569
C93	C	1.227795	0.715276	0.284875
C94	C	1.727795	1.215276	0.784875
C95	C	1.415610	0.380807	0.301829
C96	C	1.915610	0.880807	0.801829
C97	C	1.502862	0.380817	0.301835
C98	C	2.002862	0.880817	0.801835
C99	C	1.210887	0.380720	0.506573
C100	C	1.710887	0.880720	1.006573
C101	C	1.210898	0.380692	0.593828
C102	C	1.710898	0.880692	1.093828
C103	C	1.169523	1.174624	0.343200
C104	C	1.669523	1.674624	0.843200
C105	C	1.151844	1.086772	0.360827
C106	C	1.651844	1.586772	0.860827
C107	C	1.210869	0.380790	0.097867
C108	C	1.710869	0.880790	0.597867
C109	C	1.210965	0.380595	0.010656
C110	C	1.710965	0.880595	0.510656
C111	C	1.271288	0.431159	0.959518
C112	C	1.771288	0.931159	1.459518
C113	C	1.271273	0.431182	0.877533
C114	C	1.771273	0.931182	1.377533
C115	C	1.210937	0.380637	0.846689
C116	C	1.710937	0.880637	1.346689
C117	C	1.150608	0.330071	0.897833
C118	C	1.650608	0.830071	1.397833
C119	C	1.150621	0.330052	0.979816
C120	C	1.650621	0.830052	1.479816
C121	C	1.150587	0.330111	0.726955
C122	C	1.650587	0.830111	1.226955
C123	C	1.150575	0.330129	0.644966
C124	C	1.650575	0.830129	1.144966
C125	C	1.271239	0.431241	0.624672
C126	C	1.771239	0.931241	1.124672
C127	C	1.271252	0.431223	0.706655
C128	C	1.771252	0.931223	1.206655
C129	C	1.210923	0.380655	0.757794
C130	C	1.710923	0.880655	1.257794
H131	H	0.677541	0.472390	0.192209
H132	H	1.177541	0.972390	0.692209
Br133	Br	1.353113	0.499869	0.555270
Br134	Br	1.853113	0.999869	1.055270
Br135	Br	1.353183	0.499753	1.001371
Br136	Br	1.853183	0.999753	1.501371
H137	H	0.930385	0.472361	0.192194
H138	H	1.430385	0.972361	0.692194
H139	H	0.640861	0.289208	0.411443
H140	H	1.140861	0.789208	0.911443
Br141	Br	1.148359	0.659275	0.364188
Br142	Br	1.648359	1.159275	0.864188
H143	H	1.320387	0.472366	0.835897
H144	H	1.820387	0.972366	1.335897
Br145	Br	1.068689	0.261532	0.603106
Br146	Br	1.568689	0.761532	1.103106
Br147	Br	1.068721	0.261472	0.796360
Br148	Br	1.568721	0.761472	1.296360
H149	H	1.054352	0.805540	0.458089
H150	H	1.554352	1.305540	0.958089
H151	H	0.781655	0.472371	0.192206
H152	H	1.281655	0.972371	0.692206
Br153	Br	0.997263	0.906961	0.515130
Br154	Br	1.497263	1.406961	1.015130
H155	H	1.101479	0.288919	0.872712
H156	H	1.601479	0.788919	1.372712
Br157	Br	1.353140	0.499817	0.748516
Br158	Br	1.853140	0.999817	1.248516
Br159	Br	1.424306	0.853799	0.088706
Br160	Br	1.924306	1.353799	0.588706
Br161	Br	1.385150	0.659220	0.127731
Br162	Br	1.885150	1.159220	0.627731
Br163	Br	1.068753	0.261425	1.049220
Br164	Br	1.568753	0.761425	1.549220
H165	H	0.893702	0.289181	0.411424
H166	H	1.393702	0.789181	0.911424
H167	H	0.492135	0.289219	0.411448
H168	H	0.992135	0.789219	0.911448
H169	H	1.059183	1.079121	0.453362
H170	H	1.559183	1.579121	0.953362
Br171	Br	0.717244	0.261788	0.444229
Br172	Br	1.217244	0.761788	0.944229
H173	H	1.130412	0.730632	0.382098
H174	H	1.630412	1.230632	0.882098
Br175	Br	0.512051	0.499838	0.159449
Br176	Br	1.012051	0.999838	0.659449
H177	H	1.291150	1.030128	0.221725
H178	H	1.791150	1.530128	0.721725
Br179	Br	1.273217	1.101489	0.239651
Br180	Br	1.773217	1.601489	0.739651
H181	H	1.367211	0.955235	0.145750
H182	H	1.867211	1.455235	0.645750
