data_functionalizedCrystal
_audit_creation_method	'MofGen! by Chris Wilmer'
_symmetry_space_group_name_H-M	'P1'
_symmetry_Int_Tables_number	1
_symmetry_cell_setting	triclinic
loop_
_symmetry_equiv_pos_as_xyz
  x,y,z
_cell_length_a	19.188930
_cell_length_b	14.519709
_cell_length_c	12.996460
_cell_angle_alpha	89.992910
_cell_angle_beta	89.980533
_cell_angle_gamma	83.412462
loop_
_atom_site_label
_atom_site_type_symbol
_atom_site_fract_x
_atom_site_fract_y
_atom_site_fract_z
O1	O	-0.926556	-0.115137	0.085900
O2	O	-0.426556	0.384863	0.585900
O3	O	-0.723300	-0.130636	0.085830
O4	O	-0.223300	0.369364	0.585830
O5	O	-0.830317	0.011385	0.085857
O6	O	-0.330317	0.511385	0.585857
O7	O	-0.819539	-0.257159	0.085872
O8	O	-0.319539	0.242841	0.585872
O9	O	-0.830306	0.011393	-0.085276
O10	O	-0.330306	0.511393	0.414724
O11	O	-0.723288	-0.130629	-0.085304
O12	O	-0.223288	0.369371	0.414696
O13	O	-0.926545	-0.115129	-0.085234
O14	O	-0.426545	0.384871	0.414766
Cu15	Cu	-0.824915	-0.122878	-0.100895
Cu16	Cu	-0.324915	0.377122	0.399105
Cu17	Cu	-0.824929	-0.122887	0.101491
Cu18	Cu	-0.324929	0.377113	0.601491
O19	O	-0.819527	-0.257151	-0.085262
O20	O	-0.319527	0.242849	0.414738
C21	C	-0.697281	-0.130131	0.000254
C22	C	-0.197281	0.369869	0.500254
C23	C	-0.619771	-0.128624	0.000227
C24	C	-0.119771	0.371376	0.500227
C25	C	-0.829809	0.045746	0.000290
C26	C	-0.329809	0.545746	0.500290
C27	C	-0.828304	0.148118	0.000289
C28	C	-0.328304	0.648118	0.500289
C29	C	-0.952563	-0.115635	0.000344
C30	C	-0.452563	0.384365	0.500344
C31	C	-1.030073	-0.117142	0.000378
C32	C	-0.530073	0.382858	0.500378
C33	C	-0.575144	-0.211957	0.000247
C34	C	-0.075144	0.288043	0.500247
C35	C	-0.502315	-0.210542	0.000259
C36	C	-0.002315	0.289458	0.500259
C37	C	-0.474117	-0.125788	0.000270
C38	C	0.025883	0.374212	0.500270
C39	C	-0.518754	-0.042444	0.000243
C40	C	-0.018754	0.457556	0.500243
C41	C	-0.591581	-0.043861	0.000222
C42	C	-0.091581	0.456139	0.500222
N43	N	-0.365910	-0.061007	0.058552
N44	N	0.134090	0.438993	0.558552
N45	N	-0.296727	-0.059666	0.058575
N46	N	0.203273	0.440334	0.558575
C47	C	-0.254693	-0.121511	0.000332
C48	C	0.245307	0.378489	0.500332
N49	N	-0.284455	-0.184762	-0.057920
N50	N	0.215545	0.315238	0.442080
N51	N	-0.353645	-0.186106	-0.057938
N52	N	0.146355	0.313894	0.442062
C53	C	-0.395149	-0.124241	0.000292
C54	C	0.104851	0.375759	0.500292
C55	C	-0.131096	-0.203315	0.000364
C56	C	0.368904	0.296685	0.500364
C57	C	-0.058266	-0.201896	0.000369
C58	C	0.441734	0.298104	0.500369
C59	C	-0.074706	-0.033796	0.000364
C60	C	0.425294	0.466204	0.500364
C61	C	-0.147535	-0.035217	0.000348
C62	C	0.352465	0.464783	0.500348
C63	C	-0.175725	-0.119980	0.000353
C64	C	0.324275	0.380020	0.500353
C65	C	-0.820035	-0.291511	0.000308
C66	C	-0.320035	0.208489	0.500308
C67	C	-0.821541	-0.393883	0.000316
C68	C	-0.321541	0.106117	0.500316
N69	N	-0.824911	-0.122871	-0.243242
N70	N	-0.324911	0.377129	0.256758
C71	C	-0.822762	0.522979	0.000314
C72	C	-0.322762	1.022979	0.500314
C73	C	-0.824301	0.418681	0.000307
C74	C	-0.324301	0.918681	0.500307
C75	C	-0.825533	0.335552	0.000300
C76	C	-0.325533	0.835552	0.500300
C77	C	-0.827072	0.231247	0.000295
C78	C	-0.327072	0.731247	0.500295
C79	C	-0.824928	-0.122888	-0.663056
C80	C	-0.324928	0.377112	-0.163056
C81	C	-0.824921	-0.122887	-0.546251
C82	C	-0.324921	0.377113	-0.046251
C83	C	-0.824920	-0.122880	-0.453153
C84	C	-0.324920	0.377120	0.046847
C85	C	-0.824913	-0.122877	-0.336340
C86	C	-0.324913	0.377123	0.163660
N87	N	-0.824938	-0.122887	0.243838
N88	N	-0.324938	0.377113	0.743838
H89	H	-0.598091	-0.280978	0.000253
H90	H	-0.098091	0.219022	0.500253
H91	H	-0.465973	-0.278404	0.000273
H92	H	0.034027	0.221596	0.500273
H93	H	-0.021931	-0.269760	0.000380
H94	H	0.478069	0.230240	0.500380
C95	C	-0.161750	-0.295310	0.000562
C96	C	0.338250	0.204690	0.500562
C97	C	-0.203096	-0.301055	0.088609
C98	C	0.296904	0.198945	0.588609
C99	C	-0.231336	-0.385791	0.088830
C100	C	0.268664	0.114209	0.588830
H101	H	-0.189847	-0.299438	-0.059054
H102	H	0.310153	0.200562	0.440946
H103	H	-0.124759	-0.344769	0.000622
H104	H	0.375241	0.155231	0.500622
H105	H	-0.240082	-0.251610	0.088540
H106	H	0.259918	0.248390	0.588540
H107	H	-0.175015	-0.296943	0.148239
H108	H	0.324985	0.203057	0.648239
H109	H	-0.194345	-0.435250	0.088889
H110	H	0.305655	0.064750	0.588889
H111	H	-0.259430	-0.389912	0.029210
H112	H	0.240570	0.110088	0.529210
H113	H	-0.259387	-0.389704	0.148572
H114	H	0.240613	0.110296	0.648572
H115	H	-0.051748	0.035213	0.000437
H116	H	0.448252	0.535213	0.500437
C117	C	-0.195957	0.055292	0.000552
C118	C	0.304043	0.555292	0.500552
C119	C	-0.183243	0.106326	0.088614
C120	C	0.316757	0.606326	0.588614
C121	C	-0.227843	0.189706	0.088840
C122	C	0.272157	0.689706	0.588840
H123	H	-0.187419	0.090172	-0.059053
H124	H	0.312581	0.590172	0.440947
H125	H	-0.243379	0.042350	0.000594
H126	H	0.256621	0.542350	0.500594
H127	H	-0.135832	0.119271	0.088563
H128	H	0.364168	0.619271	0.588563
H129	H	-0.191787	0.071474	0.148234
H130	H	0.308213	0.571474	0.648234
H131	H	-0.275265	0.176764	0.088882
H132	H	0.224735	0.676764	0.588882
H133	H	-0.219301	0.224578	0.029231
H134	H	0.280699	0.724578	0.529231
H135	H	-0.219227	0.224339	0.148593
H136	H	0.280773	0.724339	0.648593
C137	C	-0.488103	0.049549	0.000471
C138	C	0.011897	0.549549	0.500471
C139	C	-0.446822	0.055280	0.088543
C140	C	0.053178	0.555280	0.588543
C141	C	-0.418584	0.140017	0.088790
C142	C	0.081416	0.640017	0.588790
H143	H	-0.459962	0.053689	-0.059127
H144	H	0.040038	0.553689	0.440873
H145	H	-0.525095	0.099006	0.000511
H146	H	-0.025095	0.599006	0.500511
H147	H	-0.409835	0.005836	0.088493
H148	H	0.090165	0.505836	0.588493
H149	H	-0.474946	0.051155	0.148155
H150	H	0.025054	0.551155	0.648155
H151	H	-0.455576	0.189475	0.088831
H152	H	0.044424	0.689475	0.588831
H153	H	-0.390447	0.144150	0.029189
H154	H	0.109553	0.644150	0.529189
H155	H	-0.390577	0.143920	0.148551
H156	H	0.109423	0.643920	0.648551
C157	C	-0.639922	0.046720	0.000260
C158	C	-0.139922	0.546720	0.500260
C159	C	-0.599644	0.121250	0.000294
C160	C	-0.099644	0.621250	0.500294
C161	C	-0.644153	0.204708	0.000346
C162	C	-0.144153	0.704708	0.500346
H163	H	-0.668671	0.049795	-0.059407
H164	H	-0.168671	0.549795	0.440593
H165	H	-0.668682	0.049707	0.059957
H166	H	-0.168682	0.549707	0.559957
H167	H	-0.570896	0.118265	-0.059397
H168	H	-0.070896	0.618265	0.440603
H169	H	-0.570897	0.118206	0.059956
H170	H	-0.070897	0.618206	0.559956
H171	H	-0.672913	0.207694	0.060043
H172	H	-0.172913	0.707694	0.560043
H173	H	-0.672900	0.207773	-0.059322
H174	H	-0.172900	0.707773	0.440678
H175	H	-0.616831	0.255286	0.000378
H176	H	-0.116831	0.755286	0.500378
