data_functionalizedCrystal
_audit_creation_method	'MofGen! by Chris Wilmer'
_symmetry_space_group_name_H-M	'P1'
_symmetry_Int_Tables_number	1
_symmetry_cell_setting	triclinic
loop_
_symmetry_equiv_pos_as_xyz
  x,y,z
_cell_length_a	17.000383
_cell_length_b	15.944551
_cell_length_c	15.021413
_cell_angle_alpha	89.996935
_cell_angle_beta	89.990106
_cell_angle_gamma	100.450480
loop_
_atom_site_label
_atom_site_type_symbol
_atom_site_fract_x
_atom_site_fract_y
_atom_site_fract_z
O1	O	1.056106	-0.030266	-0.074094
O2	O	0.824376	-0.060749	-0.074083
O3	O	0.946569	0.077235	-0.074080
O4	O	0.933913	-0.168250	-0.074096
O5	O	0.946549	0.077215	0.073984
O6	O	0.824356	-0.060769	0.073982
O7	O	1.056087	-0.030286	0.073971
Zn8	Zn	0.940218	-0.045530	0.097485
Zn9	Zn	0.940244	-0.045504	-0.097596
O10	O	0.933893	-0.168270	0.073968
C11	C	0.794712	-0.062396	-0.000049
C12	C	0.706354	-0.067264	-0.000044
C13	C	0.206139	-0.098699	-0.000080
C14	C	0.289162	-0.094118	-0.000079
C15	C	0.340152	-0.014608	-0.000067
C16	C	0.308116	0.060325	-0.000065
C17	C	0.225095	0.055744	-0.000073
C18	C	0.591297	0.003088	-0.000050
C19	C	0.674323	0.007664	-0.000040
C20	C	0.655363	-0.146780	-0.000055
C21	C	0.572341	-0.151354	-0.000057
C22	C	0.540312	-0.076421	-0.000060
C23	C	0.425015	-0.009924	-0.000063
C24	C	0.455451	-0.081106	-0.000070
C25	C	0.946034	0.108480	-0.000048
C26	C	0.944459	0.201610	-0.000048
C27	C	1.085750	-0.028639	-0.000065
C28	C	1.174108	-0.023771	-0.000075
C29	C	0.934429	-0.199515	-0.000066
C30	C	0.936004	-0.292645	-0.000072
N31	N	0.940207	-0.045547	0.230622
C32	C	0.864952	0.410590	-0.000056
C33	C	0.901863	0.474327	0.072947
C34	C	0.941609	0.372125	-0.000054
C35	C	0.901900	0.474331	-0.073033
C36	C	0.938851	0.536834	-0.000065
C37	C	0.978540	0.434635	0.073009
C38	C	0.978567	0.434632	-0.073036
C39	C	1.015533	0.498355	-0.000016
C40	C	0.943196	0.277240	-0.000047
C41	C	0.937270	0.631718	-0.000065
N42	N	0.940262	-0.045480	-0.230734
C43	C	0.883696	-0.109324	0.470304
C44	C	0.955618	-0.120315	0.529634
C45	C	0.940227	-0.045525	0.412229
C46	C	0.868325	-0.034551	0.529641
C47	C	0.940240	-0.045506	0.587653
C48	C	1.012185	-0.056551	0.470252
C49	C	0.924845	0.029243	0.470254
C50	C	0.996819	0.018287	0.529557
C51	C	0.940218	-0.045538	0.311172
C52	C	0.940257	-0.045491	0.688708
H53	H	0.413931	-0.145842	-0.000084
O54	O	0.909427	0.104678	0.439061
C55	C	0.956979	0.230656	0.352058
C56	C	0.974562	0.145260	0.387346
H57	H	1.009622	0.263483	0.310224
H58	H	0.947581	0.273381	0.410497
H59	H	0.900680	0.218293	0.309277
H60	H	1.030868	0.157543	0.430112
H61	H	0.983910	0.102562	0.328866
H62	H	0.968640	-0.183535	0.555716
O63	O	0.795712	-0.023584	0.560654
C64	C	0.654064	-0.078508	0.565757
C65	C	0.736246	-0.091011	0.530565
H66	H	0.605965	-0.133021	0.541461
H67	H	0.640418	-0.015330	0.540286
H68	H	0.654980	-0.077940	0.641642
H69	H	0.735391	-0.091618	0.454683
H70	H	0.749859	-0.154177	0.556105
O71	O	0.474435	0.067379	-0.000088
C72	C	0.484490	0.220084	-0.000016
C73	C	0.428428	0.132596	-0.000003
H74	H	0.447316	0.272835	0.000072
H75	H	0.523829	0.226155	-0.061994
H76	H	0.523836	0.226027	0.061936
H77	H	0.389032	0.126593	-0.061912
H78	H	0.389144	0.126564	0.062016
H79	H	0.164627	-0.163444	-0.000082
O80	O	0.193884	0.128470	0.000052
C81	C	0.111170	0.212943	0.076782
C82	C	0.146446	0.130536	0.076747
H83	H	0.072822	0.214648	0.138793
H84	H	0.072741	0.214679	0.014855
H85	H	0.161887	0.270544	0.076750
H86	H	0.095780	0.072889	0.076811
H87	H	0.184896	0.128875	0.138669
O88	O	0.789033	0.365275	0.000187
C89	C	0.662858	0.333930	0.077405
C90	C	0.748817	0.385286	0.077247
H91	H	0.630313	0.350104	0.139692
H92	H	0.664716	0.262818	0.076826
H93	H	0.629889	0.350894	0.015770
H94	H	0.781837	0.368396	0.138872
H95	H	0.746902	0.456385	0.077780
O96	O	1.084753	-0.067842	0.439401
C97	C	1.183179	-0.159144	0.435314
C98	C	1.100994	-0.146443	0.470316
H99	H	1.196328	-0.222698	0.460279
H100	H	1.231436	-0.105101	0.460263
H101	H	1.182589	-0.159056	0.359424
H102	H	1.101505	-0.146550	0.546203
H103	H	1.052772	-0.200486	0.445299
H104	H	1.044683	0.072255	0.555410
H105	H	0.681450	-0.207787	-0.000054
H106	H	0.315236	-0.155132	-0.000091
O107	O	0.863230	0.495607	0.146550
C108	C	0.819031	0.607931	0.229334
C109	C	0.862825	0.583957	0.145958
H110	H	0.818675	0.679358	0.228873
H111	H	0.851083	0.590817	0.291579
H112	H	0.754858	0.571343	0.229243
H113	H	0.926999	0.620531	0.145963
H114	H	0.830711	0.601050	0.083750
H115	H	0.835937	-0.163314	0.444288
H116	H	1.010928	0.417030	0.134795
O117	O	0.863228	0.495306	-0.146729
C118	C	0.793042	0.445355	-0.281398
C119	C	0.836841	0.421492	-0.197992
H120	H	0.771681	0.385688	-0.322858
H121	H	0.835586	0.493669	-0.322731
H122	H	0.739381	0.474373	-0.260315
H123	H	0.890500	0.392438	-0.218996
H124	H	0.794244	0.373213	-0.156680
H125	H	0.715839	0.072413	-0.000035
O126	O	0.522925	-0.228660	-0.000109
C127	C	0.512883	-0.381363	-0.000064
C128	C	0.568938	-0.293871	-0.000033
H129	H	0.550062	-0.434110	0.000016
H130	H	0.473568	-0.387417	-0.062045
H131	H	0.473512	-0.387331	0.061884
H132	H	0.608359	-0.287844	-0.061939
H133	H	0.608198	-0.287856	0.061989
H134	H	1.079217	0.536220	0.000022
H135	H	0.565230	0.064104	-0.000050
H136	H	0.349640	0.125064	-0.000061
H137	H	1.010970	0.416904	-0.134761
