data_functionalizedCrystal
_audit_creation_method	'MofGen! by Chris Wilmer'
_symmetry_space_group_name_H-M	'P1'
_symmetry_Int_Tables_number	1
_symmetry_cell_setting	triclinic
loop_
_symmetry_equiv_pos_as_xyz
  x,y,z
_cell_length_a	10.489716
_cell_length_b	14.044220
_cell_length_c	12.503572
_cell_angle_alpha	86.156832
_cell_angle_beta	86.446389
_cell_angle_gamma	91.140993
loop_
_atom_site_label
_atom_site_type_symbol
_atom_site_fract_x
_atom_site_fract_y
_atom_site_fract_z
O1	O	1.714371	-0.128286	-0.089315
O2	O	1.964371	0.121714	0.160685
O3	O	2.214371	0.371714	0.410685
O4	O	2.464371	0.621714	0.660685
O5	O	1.344448	-0.140873	-0.089319
O6	O	1.594448	0.109127	0.160681
O7	O	1.844448	0.359127	0.410681
O8	O	2.094448	0.609127	0.660681
O9	O	1.523856	0.003442	-0.089307
O10	O	1.773856	0.253442	0.160693
O11	O	2.023856	0.503442	0.410693
O12	O	2.273856	0.753442	0.660693
O13	O	1.534963	-0.272601	-0.089328
O14	O	1.784963	-0.022601	0.160672
O15	O	2.034963	0.227399	0.410672
O16	O	2.284963	0.477399	0.660672
O17	O	1.510366	-0.007430	0.089334
O18	O	1.760366	0.242570	0.339334
O19	O	2.010366	0.492570	0.589334
O20	O	2.260366	0.742570	0.839334
O21	O	1.330958	-0.151744	0.089322
O22	O	1.580958	0.098256	0.339322
O23	O	1.830958	0.348256	0.589322
O24	O	2.080958	0.598256	0.839322
O25	O	1.700881	-0.139158	0.089326
O26	O	1.950881	0.110842	0.339326
O27	O	2.200881	0.360842	0.589326
O28	O	2.450881	0.610842	0.839326
Cu29	Cu	1.514687	-0.146444	0.105635
Cu30	Cu	1.764687	0.103556	0.355635
Cu31	Cu	2.014687	0.353556	0.605635
Cu32	Cu	2.264687	0.603556	0.855635
Cu33	Cu	1.530642	-0.133587	-0.105629
Cu34	Cu	1.780642	0.116413	0.144371
Cu35	Cu	2.030642	0.366413	0.394371
Cu36	Cu	2.280642	0.616413	0.644371
O37	O	1.521473	-0.283473	0.089313
O38	O	1.771473	-0.033473	0.339313
O39	O	2.021473	0.216527	0.589313
O40	O	2.271473	0.466527	0.839313
C41	C	1.290075	-0.145363	0.000001
C42	C	1.540075	0.104637	0.250001
C43	C	1.790075	0.354637	0.500001
C44	C	2.040075	0.604637	0.750001
C45	C	1.148157	-0.142533	-0.000001
C46	C	1.398157	0.107467	0.249999
C47	C	1.648157	0.357467	0.499999
C48	C	1.898157	0.607467	0.749999
C49	C	1.059460	-0.231032	-0.000010
C50	C	1.309460	0.018968	0.249990
C51	C	1.559460	0.268968	0.499990
C52	C	1.809460	0.518968	0.749990
C53	C	0.970719	-0.189628	0.088078
C54	C	1.220719	0.060372	0.338078
C55	C	1.470719	0.310372	0.588078
C56	C	1.720719	0.560372	0.838078
C57	C	0.984024	-0.178888	-0.088048
C58	C	1.234024	0.071112	0.161952
C59	C	1.484024	0.321112	0.411952
C60	C	1.734024	0.571112	0.661952
C61	C	1.061280	-0.101171	0.088160
C62	C	1.311280	0.148829	0.338160
C63	C	1.561280	0.398829	0.588160
C64	C	1.811280	0.648829	0.838160
C65	C	1.074597	-0.090440	-0.088045
C66	C	1.324597	0.159560	0.161955
C67	C	1.574597	0.409560	0.411955
C68	C	1.824597	0.659560	0.661955
C69	C	0.985897	-0.048972	0.000064
C70	C	1.235897	0.201028	0.250064
C71	C	1.485897	0.451028	0.500064
C72	C	1.735897	0.701028	0.750064
C73	C	1.512250	0.033353	0.000014
C74	C	1.762250	0.283353	0.250014
C75	C	2.012250	0.533353	0.500014
C76	C	2.262250	0.783353	0.750014
C77	C	1.497750	0.138677	0.000015
C78	C	1.747750	0.388677	0.250015
C79	C	1.997750	0.638677	0.500015
C80	C	2.247750	0.888677	0.750015
C81	C	1.755254	-0.134668	0.000003
C82	C	2.005254	0.115332	0.250003
C83	C	2.255254	0.365332	0.500003
C84	C	2.505254	0.615332	0.750003
C85	C	1.897172	-0.137497	-0.000002
C86	C	2.147172	0.112503	0.249998
C87	C	2.397172	0.362503	0.499998
C88	C	2.647172	0.612503	0.749998
C89	C	1.533079	-0.313384	-0.000010
C90	C	1.783079	-0.063384	0.249990
C91	C	2.033079	0.186616	0.499990
C92	C	2.283079	0.436616	0.749990
C93	C	1.547579	-0.418707	-0.000018
C94	C	1.797579	-0.168707	0.249982
C95	C	2.047579	0.081293	0.499982
C96	C	2.297579	0.331293	0.749982
N97	N	1.503475	-0.155486	0.254226
N98	N	1.753475	0.094514	0.504226
N99	N	2.003475	0.344514	0.754226
N100	N	2.253475	0.594514	1.004226
C101	C	1.471243	0.331519	-0.000000
C102	C	1.721243	0.581519	0.250000
C103	C	1.971243	0.831519	0.500000
C104	C	2.221243	1.081519	0.750000
C105	C	1.574081	0.388457	-0.000003
C106	C	1.824081	0.638457	0.249997
C107	C	2.074081	0.888457	0.499997
C108	C	2.324081	1.138457	0.749997
C109	C	1.559332	0.495761	-0.000011
C110	C	1.809332	0.745761	0.249989
C111	C	2.059332	0.995761	0.499989
C112	C	2.309332	1.245761	0.749989
C113	C	1.485990	0.224205	0.000008
C114	C	1.735990	0.474205	0.250008
C115	C	1.985990	0.724205	0.500008
C116	C	2.235990	0.974205	0.750008
N117	N	1.541863	-0.124537	-0.254220
N118	N	1.791863	0.125463	-0.004220
N119	N	2.041863	0.375463	0.245780
N120	N	2.291863	0.625463	0.495780
C121	C	1.486983	-0.168795	0.473341
C122	C	1.736983	0.081205	0.723341
C123	C	1.986983	0.331205	0.973341
C124	C	2.236983	0.581205	1.223341
C125	C	1.558351	-0.111231	0.526673
C126	C	1.808351	0.138769	0.776673
C127	C	2.058351	0.388769	1.026673
C128	C	2.308351	0.638769	1.276673
C129	C	1.549175	-0.118636	0.648595
C130	C	1.799175	0.131364	0.898595
C131	C	2.049175	0.381364	1.148595
C132	C	2.299175	0.631364	1.398595
C133	C	1.496158	-0.161391	0.351407
C134	C	1.746158	0.088609	0.601407
C135	C	1.996158	0.338609	0.851407
C136	C	2.246158	0.588609	1.101407
H137	H	1.091931	-0.308017	0.000066
H138	H	1.341931	-0.058017	0.250066
H139	H	1.591931	0.191983	0.500066
H140	H	1.841931	0.441983	0.750066
H141	H	1.673206	0.356620	-0.000073
H142	H	1.923206	0.606620	0.249927
H143	H	2.173206	0.856620	0.499927
H144	H	2.423206	1.106620	0.749927
H145	H	1.626344	-0.056387	0.480765
H146	H	1.876344	0.193613	0.730765
H147	H	2.126344	0.443613	0.980765
H148	H	2.376344	0.693613	1.230765
H149	H	1.372131	0.363358	-0.000004
H150	H	1.622131	0.613358	0.249996
H151	H	1.872131	0.863358	0.499996
H152	H	2.122131	1.113358	0.749996
H153	H	1.418996	-0.223637	0.519243
H154	H	1.668996	0.026363	0.769243
H155	H	1.918996	0.276363	1.019243
H156	H	2.168996	0.526363	1.269243
H157	H	0.925402	-0.231518	0.162542
H158	H	1.175402	0.018482	0.412542
H159	H	1.425402	0.268482	0.662542
H160	H	1.675402	0.518482	0.912542
H161	H	0.953649	0.028061	0.000121
H162	H	1.203649	0.278061	0.250121
H163	H	1.453649	0.528061	0.500121
H164	H	1.703649	0.778061	0.750121
H165	H	1.119930	-0.048577	-0.162514
H166	H	1.369930	0.201423	0.087486
H167	H	1.619930	0.451423	0.337486
H168	H	1.869930	0.701423	0.587486
H169	H	0.949954	-0.211734	-0.162509
H170	H	1.199954	0.038266	0.087491
H171	H	1.449954	0.288266	0.337491
H172	H	1.699954	0.538266	0.587491
H173	H	1.095179	-0.068370	0.162704
H174	H	1.345179	0.181630	0.412704
H175	H	1.595179	0.431630	0.662704
H176	H	1.845179	0.681630	0.912704
