data_functionalizedCrystal
_audit_creation_method	'MofGen! by Chris Wilmer'
_symmetry_space_group_name_H-M	'P1'
_symmetry_Int_Tables_number	1
_symmetry_cell_setting	triclinic
loop_
_symmetry_equiv_pos_as_xyz
  x,y,z
_cell_length_a	8.597340
_cell_length_b	11.026607
_cell_length_c	7.088929
_cell_angle_alpha	82.408099
_cell_angle_beta	103.954719
_cell_angle_gamma	96.851696
loop_
_atom_site_label
_atom_site_type_symbol
_atom_site_fract_x
_atom_site_fract_y
_atom_site_fract_z
O1	O	2.149236	0.166608	0.195062
O2	O	2.649236	0.666608	0.695062
O3	O	1.690244	0.186412	0.119449
O4	O	2.190244	0.686412	0.619449
O5	O	1.881700	-0.000103	0.150996
O6	O	2.381700	0.499897	0.650996
O7	O	1.957780	0.353123	0.163515
O8	O	2.457780	0.853123	0.663515
O9	O	1.907270	-0.025085	0.473184
O10	O	2.407270	0.474915	0.973184
O11	O	1.715814	0.161430	0.441637
O12	O	2.215814	0.661430	0.941637
O13	O	2.174806	0.141626	0.517251
O14	O	2.674806	0.641626	1.017251
Cu15	Cu	1.947645	0.149247	0.508862
Cu16	Cu	2.447645	0.649247	1.008862
Cu17	Cu	1.917405	0.178791	0.127837
Cu18	Cu	2.417405	0.678791	0.627837
O19	O	1.983350	0.328141	0.485704
O20	O	2.483350	0.828141	0.985704
C21	C	1.643354	0.173186	0.270713
C22	C	2.143354	0.673186	0.770713
C23	C	1.465539	0.170981	0.241420
C24	C	1.965539	0.670981	0.741420
C25	C	1.880449	-0.057790	0.309776
C26	C	2.380449	0.442210	0.809776
C27	C	1.838607	-0.192459	0.302876
C28	C	2.338607	0.307541	0.802876
C29	C	1.954137	-0.266387	0.321905
C30	C	2.454137	0.233613	0.821905
C31	C	1.910895	-0.405575	0.314775
C32	C	2.410895	0.094425	0.814775
C33	C	2.221695	0.154853	0.365983
C34	C	2.721695	0.654853	0.865983
C35	C	2.399509	0.157058	0.395263
C36	C	2.899509	0.657058	0.895263
C37	C	1.984601	0.385828	0.326920
C38	C	2.484601	0.885828	0.826920
C39	C	2.026442	0.520498	0.333807
C40	C	2.526442	1.020498	0.833807
N41	N	1.968925	0.128466	0.776857
N42	N	2.468925	0.628466	1.276857
N43	N	1.896135	0.199562	-0.140156
N44	N	2.396135	0.699562	0.359844
H45	H	1.386027	0.181215	0.087280
H46	H	1.886027	0.681215	0.587280
Cl47	Cl	2.085429	0.014721	0.922114
Cl48	Cl	2.585429	0.514721	1.422114
Cl49	Cl	1.522250	0.141244	0.633235
Cl50	Cl	2.022250	0.641244	1.133235
Cl51	Cl	2.156277	-0.205023	0.355193
Cl52	Cl	2.656277	0.294977	0.855193
H53	H	1.779962	-0.445320	0.293193
H54	H	2.279962	0.054680	0.793193
H55	H	1.707683	-0.232210	0.281295
H56	H	2.207683	0.267790	0.781295
Cl57	Cl	2.228592	-0.418147	0.367100
Cl58	Cl	2.728592	0.081853	0.867100
Cl59	Cl	1.779656	0.313315	0.714599
Cl60	Cl	2.279656	0.813315	1.214599
