data_functionalizedCrystal
_audit_creation_method	'MofGen! by Chris Wilmer'
_symmetry_space_group_name_H-M	'P1'
_symmetry_Int_Tables_number	1
_symmetry_cell_setting	triclinic
loop_
_symmetry_equiv_pos_as_xyz
  x,y,z
_cell_length_a	6.817900
_cell_length_b	7.190401
_cell_length_c	12.200722
_cell_angle_alpha	91.280454
_cell_angle_beta	107.140920
_cell_angle_gamma	60.610757
loop_
_atom_site_label
_atom_site_type_symbol
_atom_site_fract_x
_atom_site_fract_y
_atom_site_fract_z
V1	V	-4.241319	0.665221	-0.156869
V2	V	-3.741319	1.165221	0.343131
O3	O	-4.205632	0.652325	0.009435
O4	O	-3.705632	1.152325	0.509435
O5	O	-4.209753	0.660896	-0.312869
O6	O	-3.709753	1.160896	0.187131
O7	O	-4.278107	0.955245	-0.153624
O8	O	-3.778107	1.455245	0.346376
O9	O	-4.136806	0.355938	-0.150913
O10	O	-3.636806	0.855938	0.349087
V11	V	-4.711727	0.628201	-0.137076
V12	V	-4.211727	1.128201	0.362924
O13	O	-4.531346	0.746428	-0.200288
O14	O	-4.031346	1.246428	0.299712
O15	O	-4.871898	0.546995	-0.093657
O16	O	-4.371898	1.046995	0.406343
O17	O	-4.520086	0.632527	0.018924
O18	O	-4.020086	1.132527	0.518924
O19	O	-4.864811	0.641098	-0.303380
O20	O	-4.364811	1.141098	0.196620
O21	O	-4.933637	0.937485	-0.143032
O22	O	-4.433637	1.437485	0.356968
O23	O	-4.451733	0.338178	-0.140321
O24	O	-3.951733	0.838178	0.359679
C25	C	-4.056093	0.650460	-0.350925
C26	C	-3.556093	1.150460	0.149075
C27	C	-4.112139	0.648856	-0.478452
C28	C	-3.612139	1.148856	0.021548
C29	C	-4.256873	1.267484	-0.146161
C30	C	-3.756873	1.767484	0.353839
C31	C	-4.143283	1.025926	-0.147801
C32	C	-3.643283	1.525926	0.352199
C33	C	-4.157642	0.647534	-0.582016
C34	C	-3.657642	1.147534	-0.082016
C35	C	-4.214751	0.645886	-0.711943
C36	C	-3.714751	1.145886	-0.211943
C37	C	-4.337088	0.642957	0.056974
C38	C	-3.837088	1.142957	0.556974
C39	C	-4.260284	0.644575	0.184499
C40	C	-3.760284	1.144575	0.684499
