data_functionalizedCrystal
_audit_creation_method	'MofGen! by Chris Wilmer'
_symmetry_space_group_name_H-M	'P1'
_symmetry_Int_Tables_number	1
_symmetry_cell_setting	triclinic
loop_
_symmetry_equiv_pos_as_xyz
  x,y,z
_cell_length_a	17.038272
_cell_length_b	17.019372
_cell_length_c	13.930277
_cell_angle_alpha	86.130923
_cell_angle_beta	90.004143
_cell_angle_gamma	92.757580
loop_
_atom_site_label
_atom_site_type_symbol
_atom_site_fract_x
_atom_site_fract_y
_atom_site_fract_z
O1	O	-0.099573	1.053348	-0.007185
O2	O	0.400427	1.553348	0.492815
O3	O	-0.112280	0.824539	0.011714
O4	O	0.387720	1.324539	0.511714
O5	O	0.007888	0.937584	0.002385
O6	O	0.507888	1.437584	0.502385
O7	O	-0.219741	0.940304	0.002144
O8	O	0.280259	1.440304	0.502144
O9	O	0.007885	0.937566	-0.157275
O10	O	0.507885	1.437566	0.342725
O11	O	-0.112282	0.824522	-0.147946
O12	O	0.387718	1.324522	0.352054
O13	O	-0.099576	1.053331	-0.166845
O14	O	0.400424	1.553331	0.333155
Zn15	Zn	-0.105929	0.938923	-0.182745
Zn16	Zn	0.394071	1.438923	0.317255
Zn17	Zn	-0.105926	0.938947	0.027614
Zn18	Zn	0.394074	1.438947	0.527614
O19	O	-0.219743	0.940286	-0.157516
O20	O	0.280257	1.440286	0.342484
C21	C	-0.111800	0.795110	-0.065686
C22	C	0.388200	1.295110	0.434314
C23	C	-0.110358	0.707444	-0.058444
C24	C	0.389642	1.207444	0.441556
C25	C	-0.102174	0.211627	-0.013056
C26	C	0.397826	0.711627	0.486944
C27	C	-0.103529	0.293999	-0.019874
C28	C	0.396471	0.793999	0.480126
C29	C	-0.104214	0.335166	-0.110314
C30	C	0.395786	0.835166	0.389686
C31	C	-0.103535	0.293959	-0.193943
C32	C	0.396465	0.793959	0.306057
C33	C	-0.102175	0.211590	-0.187124
C34	C	0.397825	0.711590	0.312876
C35	C	-0.108318	0.583868	-0.135254
C36	C	0.391682	1.083868	0.364746
C37	C	-0.109681	0.666243	-0.142066
C38	C	0.390319	1.166243	0.357934
C39	C	-0.109674	0.666277	0.032003
C40	C	0.390326	1.166277	0.532003
C41	C	-0.108318	0.583905	0.038814
C42	C	0.391682	1.083905	0.538814
C43	C	-0.107635	0.542706	-0.044815
C44	C	0.392365	1.042706	0.455185
C45	C	-0.105602	0.419363	-0.117285
C46	C	0.394398	0.919363	0.382715
C47	C	-0.106242	0.458511	-0.037844
C48	C	0.393758	0.958511	0.462156
C49	C	-0.248868	0.942769	-0.077893
C50	C	0.251132	1.442769	0.422107
C51	C	-0.335654	0.950149	-0.078508
C52	C	0.164346	1.450149	0.421492
C53	C	-0.385828	0.882390	-0.072911
C54	C	0.114172	1.382390	0.427089
C55	C	-0.467373	0.889329	-0.073472
C56	C	0.032627	1.389329	0.426528
C57	C	-0.498742	0.964028	-0.079638
C58	C	0.001258	1.464028	0.420362
C59	C	-0.448561	1.031792	-0.085232
C60	C	0.051439	1.531792	0.414768
C61	C	-0.367018	1.024852	-0.084664
C62	C	0.132982	1.524852	0.415336
C63	C	-0.744478	0.988545	-0.081641
C64	C	-0.244478	1.488545	0.418359
C65	C	-0.826027	0.995480	-0.082211
C66	C	-0.326027	1.495480	0.417789
C67	C	-0.844833	0.853017	-0.070450
C68	C	-0.344833	1.353017	0.429550
C69	C	-0.763288	0.846083	-0.069888
C70	C	-0.263288	1.346083	0.430112
C71	C	-0.713115	0.913847	-0.075478
C72	C	-0.213115	1.413847	0.424522
C73	C	-0.582093	0.971123	-0.080214
C74	C	-0.082093	1.471123	0.419786
C75	C	-0.629765	0.906752	-0.074894
C76	C	-0.129765	1.406752	0.425106
C77	C	0.037012	0.935101	-0.077236
C78	C	0.537012	1.435101	0.422764
C79	C	0.123799	0.927721	-0.076614
C80	C	0.623799	1.427721	0.423386
C81	C	-0.100056	1.082760	-0.089443
C82	C	0.399944	1.582760	0.410557
C83	C	-0.101498	1.170426	-0.096679
C84	C	0.398502	1.670426	0.403321
N85	N	-0.105931	0.938913	-0.326311
N86	N	0.394069	1.438913	0.173689
C87	C	-0.058542	0.887897	-0.372356
C88	C	0.441458	1.387897	0.127644
C89	C	-0.153317	0.989940	-0.380771
C90	C	0.346683	1.489940	0.119229
C91	C	-0.153316	0.989950	-0.481267
C92	C	0.346684	1.489950	0.018733
C93	C	-0.105927	0.938933	-0.527313
C94	C	0.394073	1.438933	-0.027313
C95	C	-0.058538	0.887907	-0.472862
C96	C	0.441462	1.387907	0.027138
C97	C	-0.200698	1.040981	-0.535726
C98	C	0.299302	1.540981	-0.035726
C99	C	-0.200699	1.040993	-0.636229
C100	C	0.299301	1.540993	-0.136229
C101	C	-0.153313	0.989972	-0.682276
C102	C	0.346687	1.489972	-0.182276
C103	C	-0.105923	0.938943	-0.627819
C104	C	0.394077	1.438943	-0.127819
C105	C	-0.058533	0.887926	-0.673864
C106	C	0.441467	1.387926	-0.173864
C107	C	-0.011147	0.836893	-0.619408
C108	C	0.488853	1.336893	-0.119408
C109	C	-0.011152	0.836886	-0.518909
C110	C	0.488848	1.336886	-0.018909
C111	C	-0.153308	0.989979	-0.782776
C112	C	0.346692	1.489979	-0.282776
C113	C	-0.058529	0.887936	-0.774370
C114	C	0.441471	1.387936	-0.274370
N115	N	-0.105918	0.938962	0.171179
N116	N	0.394082	1.438962	0.671179
H117	H	-0.106161	0.452890	-0.190921
H118	H	0.393839	0.952890	0.309079
Br119	Br	-0.298924	1.116814	-0.092250
Br120	Br	0.201076	1.616814	0.407750
Br121	Br	0.053172	0.767665	-0.681911
Br122	Br	0.553172	1.267665	-0.181911
H123	H	0.027429	0.795338	-0.474562
H124	H	0.527429	1.295338	0.025438
H125	H	-0.360295	0.821562	-0.067902
H126	H	0.139705	1.321562	0.432098
Br127	Br	0.005760	0.818635	-0.298457
Br128	Br	0.505760	1.318635	0.201543
Br129	Br	-0.101246	0.155673	-0.300616
Br130	Br	0.398754	0.655673	0.199384
Br131	Br	-0.535464	0.797366	-0.065863
Br132	Br	-0.035464	1.297366	0.434137
H133	H	-0.737754	0.785256	-0.064856
H134	H	-0.237754	1.285256	0.435144
Br135	Br	-0.107413	0.527963	-0.248751
Br136	Br	0.392587	1.027963	0.251249
H137	H	-0.110229	0.699830	0.100089
H138	H	0.389771	1.199830	0.600089
H139	H	-0.019942	0.846388	-0.811853
H140	H	0.480058	1.346388	-0.311853
Br141	Br	-0.217620	1.059180	-0.318281
Br142	Br	0.282380	1.559180	0.181719
Br143	Br	-0.110612	0.722113	-0.264815
Br144	Br	0.389388	1.222113	0.235185
Br145	Br	-0.101253	0.155764	0.109690
Br146	Br	0.398747	0.655764	0.609690
H147	H	-0.885692	0.797847	-0.065898
H148	H	-0.385692	1.297847	0.434102
Br149	Br	-0.868599	1.096864	-0.090612
Br150	Br	-0.368599	1.596864	0.409388
Br151	Br	-0.265001	1.110220	-0.473233
Br152	Br	0.234999	1.610220	0.026767
Br153	Br	-0.217604	1.059241	-0.856677
Br154	Br	0.282396	1.559241	-0.356677
H155	H	-0.604221	0.845932	-0.069869
H156	H	-0.104221	1.345932	0.430131
Br157	Br	-0.676396	1.080512	-0.089235
Br158	Br	-0.176396	1.580512	0.410765
Br159	Br	-0.104461	0.349829	-0.316685
Br160	Br	0.395539	0.849829	0.183315
H161	H	-0.474108	1.092613	-0.090254
H162	H	0.025892	1.592613	0.409746
Br163	Br	-0.105296	0.402641	0.084893
Br164	Br	0.394704	0.902641	0.584893
H165	H	-0.607643	1.031943	-0.085266
H166	H	-0.107643	1.531943	0.414734
H167	H	-0.104075	0.327542	0.048221
H168	H	0.395925	0.827542	0.548221
Br169	Br	-0.107392	0.528040	0.161559
Br170	Br	0.392608	1.028040	0.661559
Br171	Br	-0.265010	1.110248	-0.710125
Br172	Br	0.234990	1.610248	-0.210125
