data_functionalizedCrystal
_audit_creation_method	'MofGen! by Chris Wilmer'
_symmetry_space_group_name_H-M	'P1'
_symmetry_Int_Tables_number	1
_symmetry_cell_setting	triclinic
loop_
_symmetry_equiv_pos_as_xyz
  x,y,z
_cell_length_a	14.908571
_cell_length_b	12.645330
_cell_length_c	14.908694
_cell_angle_alpha	93.269678
_cell_angle_beta	83.592472
_cell_angle_gamma	86.708920
loop_
_atom_site_label
_atom_site_type_symbol
_atom_site_fract_x
_atom_site_fract_y
_atom_site_fract_z
Zn1	Zn	1.413406	-0.558112	-0.591521
Zn2	Zn	1.404593	-0.724542	-0.440160
Zn3	Zn	1.253305	-0.536429	-0.431456
Zn4	Zn	1.262025	-0.724459	-0.582759
O5	O	1.333332	-0.635885	-0.511474
O6	O	1.538905	-0.589298	-0.578753
O7	O	1.377187	-0.690548	-0.312340
O8	O	1.274582	-0.390962	-0.452713
O9	O	1.532430	-0.711573	-0.467549
O10	O	1.392207	-0.406893	-0.570313
O11	O	1.266037	-0.552342	-0.305945
O12	O	1.127794	-0.552262	-0.444217
O13	O	1.289443	-0.711433	-0.710587
O14	O	1.134200	-0.690408	-0.555378
O15	O	1.400662	-0.589218	-0.717025
O16	O	1.385642	-0.872874	-0.459052
O17	O	1.280898	-0.872813	-0.563818
C18	C	1.098153	-0.618974	-0.497902
C19	C	0.997544	-0.611766	-0.492118
C20	C	0.815199	-0.742272	-0.596845
C21	C	0.720668	-0.735503	-0.591413
C22	C	0.713949	-0.591456	-0.475827
C23	C	0.808480	-0.598224	-0.481259
C24	C	0.859102	-0.673636	-0.541769
C25	C	0.953635	-0.680409	-0.547196
C26	C	0.946915	-0.536357	-0.431615
C27	C	0.852384	-0.529589	-0.426183
C28	C	1.333286	-0.911310	-0.511450
C29	C	1.333350	-1.029146	-0.511475
C30	C	1.399124	-1.196686	-0.445418
C31	C	1.399362	-1.074154	-0.445602
C32	C	1.364722	-1.082227	-0.608376
C33	C	1.365255	-1.204839	-0.608036
C34	C	1.236231	-1.187851	-0.481569
C35	C	1.236566	-1.065126	-0.479456
C36	C	1.569429	-0.652864	-0.525099
C37	C	1.670040	-0.660099	-0.530905
C38	C	1.347008	-0.652735	-0.747567
C39	C	1.352836	-0.659916	-0.848176
C40	C	1.333405	-0.359388	-0.511519
C41	C	1.333436	-0.241561	-0.511539
C42	C	1.248025	-0.529496	-1.030571
C43	C	1.253498	-0.536239	-1.125102
C44	C	1.369249	-0.680149	-1.131769
C45	C	1.363776	-0.673406	-1.037239
C46	C	1.303163	-0.598076	-0.986643
C47	C	1.297696	-0.591329	-0.892111
C48	C	1.413442	-0.735243	-0.898779
C49	C	1.418915	-0.741986	-0.993310
C50	C	1.319761	-0.619028	-0.276302
C51	C	1.314109	-0.611562	-0.175704
H52	H	0.811155	-0.468188	-0.376920
O53	O	0.664631	-0.518264	-0.417106
C54	C	0.516024	-0.443879	-0.357635
C55	C	0.571765	-0.526855	-0.424142
H56	H	0.440932	-0.450782	-0.363315
H57	H	0.530262	-0.458430	-0.285646
H58	H	0.535626	-0.360938	-0.374754
H59	H	0.552196	-0.609829	-0.407106
H60	H	0.557522	-0.512212	-0.496112
H61	H	0.982670	-0.480471	-0.386766
O62	O	1.375220	-1.031091	-0.360032
C63	C	1.330954	-1.063855	-0.204158
C64	C	1.358292	-1.112757	-0.301025
H65	H	1.317241	-1.129858	-0.156427
H66	H	1.388095	-1.016304	-0.181632
H67	H	1.267218	-1.009183	-0.202716
H68	H	1.422006	-1.167476	-0.302542
H69	H	1.301097	-1.160244	-0.323510
H70	H	0.994850	-0.741815	-0.596465
H71	H	1.418585	-0.741492	-1.172980
O72	O	0.677914	-0.802214	-0.644781
C73	C	0.571923	-0.938623	-0.650627
C74	C	0.620261	-0.863109	-0.590078
H75	H	0.525313	-0.987892	-0.606424
H76	H	0.530363	-0.890303	-0.695466
H77	H	0.624364	-0.993633	-0.694826
H78	H	0.567881	-0.808084	-0.545823
H79	H	0.661837	-0.911495	-0.545299
H80	H	1.208599	-0.480394	-1.160865
O81	O	1.477814	-0.815246	-1.042324
C82	C	1.592094	-0.957220	-1.038961
C83	C	1.525411	-0.874321	-0.983346
H84	H	1.630608	-1.004989	-0.991302
H85	H	1.553133	-1.012899	-1.080788
H86	H	1.641955	-0.915085	-1.085981
H87	H	1.475534	-0.916366	-0.936276
H88	H	1.564432	-0.818648	-0.941579
O89	O	0.864243	-0.815555	-0.655695
C90	C	0.860931	-0.957767	-0.769722
C91	C	0.805283	-0.874807	-0.703128
H92	H	0.813285	-1.005710	-0.808075
H93	H	0.907926	-0.915788	-0.819725
H94	H	0.902789	-1.013272	-0.730611
H95	H	0.763372	-0.819278	-0.742162
H96	H	0.758345	-0.916856	-0.653124
H97	H	1.379049	-1.220004	-0.373544
H98	H	1.458343	-0.791083	-0.863003
H99	H	1.187220	-1.216790	-0.529660
H100	H	1.470618	-1.233631	-0.465475
H101	H	1.471246	-1.051001	-0.465863
H102	H	1.436470	-1.239865	-0.632782
O103	O	1.311019	-1.240527	-0.669239
C104	C	1.212249	-1.194284	-0.780279
C105	C	1.273648	-1.153731	-0.711007
H106	H	1.182002	-1.124128	-0.814054
H107	H	1.253744	-1.250551	-0.833777
H108	H	1.155493	-1.238201	-0.744236
H109	H	1.330413	-1.109765	-0.746971
H110	H	1.232090	-1.097517	-0.657513
H111	H	1.318572	-1.053392	-0.659198
H112	H	1.435167	-1.057921	-0.633421
H113	H	1.208764	-1.212269	-0.411852
O114	O	1.208365	-1.023050	-0.394310
C115	C	1.089588	-1.008086	-0.269771
C116	C	1.121399	-1.055785	-0.366209
H117	H	1.019265	-1.034516	-0.247029
H118	H	1.138795	-1.036576	-0.221633
H119	H	1.087134	-0.917779	-0.269283
H120	H	1.123848	-1.146093	-0.366785
H121	H	1.072182	-1.027212	-0.414305
H122	H	1.184537	-1.033974	-0.523640
H123	H	1.248345	-0.529987	-0.850917
H124	H	1.198680	-0.468151	-0.989376
