data_functionalizedCrystal
_audit_creation_method	'MofGen! by Chris Wilmer'
_symmetry_space_group_name_H-M	'P1'
_symmetry_Int_Tables_number	1
_symmetry_cell_setting	triclinic
loop_
_symmetry_equiv_pos_as_xyz
  x,y,z
_cell_length_a	10.540495
_cell_length_b	15.072220
_cell_length_c	10.540539
_cell_angle_alpha	90.005916
_cell_angle_beta	95.483501
_cell_angle_gamma	89.993554
loop_
_atom_site_label
_atom_site_type_symbol
_atom_site_fract_x
_atom_site_fract_y
_atom_site_fract_z
O1	O	-1.685920	0.073811	0.178641
O2	O	-1.316500	0.073805	0.195555
O3	O	-1.509638	0.073807	0.002390
O4	O	-1.492782	0.073809	0.371806
O5	O	-1.509621	-0.073758	0.002372
O6	O	-1.316483	-0.073760	0.195537
O7	O	-1.685903	-0.073754	0.178622
Zn8	Zn	-1.501190	-0.097186	0.187077
Zn9	Zn	-1.501212	0.097237	0.187101
O10	O	-1.492765	-0.073756	0.371787
C11	C	-1.269187	0.000022	0.194289
C12	C	-1.128236	0.000020	0.190529
C13	C	-1.057530	0.000021	0.328674
C14	C	-0.910916	0.000359	0.324810
C15	C	-0.935907	0.084125	0.115426
C16	C	-1.082447	0.084193	0.120270
C17	C	-1.082831	-0.083622	0.118204
C18	C	-0.935851	-0.084725	0.116881
N19	N	-1.501184	-0.229875	0.187059
C20	C	-1.501199	-0.410872	0.187076
C21	C	-1.604568	-0.448513	0.083753
C22	C	-1.604949	-0.551338	0.084035
C23	C	-1.501214	-0.589076	0.187091
C24	C	-1.530798	-0.551730	0.319964
C25	C	-1.531533	-0.448872	0.319350
C26	C	-1.367943	-0.448794	0.158718
C27	C	-1.368816	-0.551658	0.155725
C28	C	-1.501219	-0.689790	0.187108
C29	C	-1.501196	-0.310159	0.187069
C30	C	-0.733213	0.000028	0.179905
C31	C	-0.874158	0.000026	0.183715
C32	C	-1.508365	0.000026	-0.044922
C33	C	-1.504583	0.000031	-0.185869
N34	N	-1.501228	0.229926	0.187108
C35	C	-1.359663	0.000360	-0.369273
C36	C	-1.363497	0.000028	-0.222656
C37	C	-1.572470	-0.084235	-0.247548
C38	C	-1.567655	-0.084306	-0.394092
C39	C	-1.570544	0.083503	-0.394590
C40	C	-1.571844	0.084617	-0.247608
C41	C	-1.494037	0.000027	0.419099
C42	C	-1.497819	0.000028	0.560047
H43	H	-1.110679	0.147299	0.170157
N44	N	-1.339082	-0.583991	0.026243
H45	H	-1.407466	-0.562963	-0.040654
H46	H	-1.336019	-0.650965	0.026151
N47	N	-1.581447	-0.415772	-0.047442
H48	H	-1.585515	-0.348829	-0.049274
H49	H	-1.648824	-0.440755	-0.112243
H50	H	-1.674707	0.089708	-0.223402
N51	N	-1.286118	-0.079237	-0.409265
H52	H	-1.280265	-0.077164	-0.504302
H53	H	-1.331385	-0.135318	-0.386783
H54	H	-0.893307	0.146950	0.162251
N55	N	-1.509978	-0.167304	-0.191144
H56	H	-1.554328	-0.221166	-0.231444
H57	H	-1.516481	-0.168182	-0.096176
H58	H	-1.309691	-0.060480	-0.180899
N59	N	-1.262070	-0.585688	0.248764
H60	H	-1.298183	-0.626020	0.312856
H61	H	-1.217357	-0.533939	0.294558
N62	N	-1.145427	-0.084716	-0.016766
H63	H	-1.121281	-0.029254	-0.062554
H64	H	-1.241034	-0.087058	-0.015300
H65	H	-0.894848	-0.146942	0.166787
N66	N	-1.734787	-0.414205	0.107571
H67	H	-1.727113	-0.374394	0.185008
H68	H	-1.792515	-0.465851	0.122641
H69	H	-0.869191	0.060999	0.378308
H70	H	-1.587236	-0.576590	-0.014681
N71	N	-0.903830	-0.091784	-0.019354
H72	H	-0.944727	-0.146805	-0.059791
H73	H	-0.808319	-0.095500	-0.020887
N74	N	-0.854382	-0.079465	0.395979
H75	H	-0.758817	-0.079393	0.393609
H76	H	-0.891249	-0.135393	0.354530
N77	N	-1.510081	0.168108	-0.436364
H78	H	-1.434926	0.153178	-0.485127
H79	H	-1.480211	0.204674	-0.358922
N80	N	-1.705536	0.084259	-0.457145
H81	H	-1.720336	0.140163	-0.509291
H82	H	-1.767047	0.082258	-0.389379
H83	H	-1.522171	0.146955	-0.206734
H84	H	-1.087765	0.060241	0.383898
N85	N	-1.330485	-0.414459	0.032992
H86	H	-1.325274	-0.347568	0.035872
H87	H	-1.396405	-0.433249	-0.037753
H88	H	-1.517469	-0.147298	-0.422291
N89	N	-1.266023	-0.416552	0.258483
H90	H	-1.286265	-0.437336	0.345384
H91	H	-1.262947	-0.349590	0.257027
H92	H	-0.913593	0.087014	0.011796
H93	H	-1.303938	0.060788	-0.397857
N94	N	-1.095327	-0.079842	0.402908
H95	H	-1.158652	-0.116802	0.347716
H96	H	-1.135347	-0.059471	0.481218
H97	H	-1.628736	-0.424873	0.344083
H98	H	-1.130454	0.087784	0.018794
H99	H	-1.114318	-0.147385	0.164178
N100	N	-1.735940	-0.583907	0.108231
H101	H	-1.758153	-0.561243	0.193533
H102	H	-1.736678	-0.650913	0.108435
N103	N	-1.435652	-0.415878	0.424368
H104	H	-1.393099	-0.468153	0.470859
H105	H	-1.480571	-0.378719	0.486102
H106	H	-1.457541	-0.576173	0.398776
N107	N	-1.292739	0.080037	-0.166189
H108	H	-1.258770	0.115839	-0.236536
H109	H	-1.219484	0.059839	-0.104146
N110	N	-1.658088	-0.585837	0.353485
H111	H	-1.696764	-0.625471	0.282798
H112	H	-1.716865	-0.534076	0.364622
H113	H	-1.669122	-0.088127	-0.442077
H114	H	-1.676080	-0.087366	-0.225211
