data_functionalizedCrystal
_audit_creation_method	'MofGen! by Chris Wilmer'
_symmetry_space_group_name_H-M	'P1'
_symmetry_Int_Tables_number	1
_symmetry_cell_setting	triclinic
loop_
_symmetry_equiv_pos_as_xyz
  x,y,z
_cell_length_a	15.995350
_cell_length_b	16.992695
_cell_length_c	15.455313
_cell_angle_alpha	87.138508
_cell_angle_beta	92.667328
_cell_angle_gamma	87.080299
loop_
_atom_site_label
_atom_site_type_symbol
_atom_site_fract_x
_atom_site_fract_y
_atom_site_fract_z
O1	O	0.174112	1.043826	-0.072089
O2	O	0.674112	1.543826	0.427911
O3	O	0.172164	0.815541	-0.072099
O4	O	0.672164	1.315541	0.427901
O5	O	0.051668	0.935924	-0.072093
O6	O	0.551668	1.435924	0.427907
O7	O	0.294608	0.923443	-0.072095
O8	O	0.794608	1.423443	0.427905
O9	O	0.058528	0.929040	0.072169
O10	O	0.558528	1.429040	0.572169
O11	O	0.179024	0.808657	0.072163
O12	O	0.679024	1.308657	0.572163
O13	O	0.180972	1.036942	0.072172
O14	O	0.680972	1.536942	0.572172
Cu15	Cu	0.180625	0.922171	0.085340
Cu16	Cu	0.680625	1.422171	0.585340
Cu17	Cu	0.172512	0.930312	-0.085266
Cu18	Cu	0.672512	1.430312	0.414734
O19	O	0.301468	0.916559	0.072167
O20	O	0.801468	1.416559	0.572167
C21	C	0.023869	0.931966	0.000036
C22	C	0.523869	1.431966	0.500036
C23	C	-0.069185	0.930420	0.000031
C24	C	0.430815	1.430420	0.500031
C25	C	0.173088	0.782887	0.000031
C26	C	0.673088	1.282887	0.500031
C27	C	0.165612	0.695843	0.000027
C28	C	0.665612	1.195843	0.500027
C29	C	0.180048	1.069597	0.000041
C30	C	0.680048	1.569597	0.500041
C31	C	0.187524	1.156641	0.000039
C32	C	0.687524	1.656641	0.500039
C33	C	-0.407304	0.924864	0.000034
C34	C	0.092696	1.424864	0.500034
C35	C	-0.365623	0.839145	-0.000293
C36	C	0.134377	1.339145	0.499707
C37	C	-0.268814	0.840677	0.000032
C38	C	0.231186	1.340677	0.500032
C39	C	-0.239560	0.927620	0.000032
C40	C	0.260440	1.427620	0.500032
C41	C	-0.273890	0.965976	0.082413
C42	C	0.226110	1.465976	0.582413
C43	C	-0.370667	0.963819	0.082482
C44	C	0.129333	1.463819	0.582482
C45	C	-0.378708	0.973418	-0.081571
C46	C	0.121292	1.473418	0.418429
C47	C	-0.281815	0.973450	-0.082659
C48	C	0.218185	1.473450	0.417341
C49	C	-0.144758	0.929182	0.000034
C50	C	0.355242	1.429182	0.500034
C51	C	-0.502106	0.923305	0.000038
C52	C	-0.002106	1.423305	0.500038
C53	C	0.329267	0.920517	0.000036
C54	C	0.829267	1.420517	0.500036
C55	C	0.422321	0.922064	0.000035
C56	C	0.922321	1.422064	0.500035
N57	N	0.186331	0.916451	0.205335
N58	N	0.686331	1.416451	0.705335
C59	C	0.115389	1.206882	0.000037
C60	C	0.615389	1.706882	0.500037
C61	C	0.122418	1.288668	0.000040
C62	C	0.622418	1.788668	0.500040
C63	C	0.201584	1.320213	0.000039
C64	C	0.701584	1.820213	0.500039
C65	C	0.273725	1.269966	0.000044
C66	C	0.773725	1.769966	0.500044
C67	C	0.266695	1.188180	0.000047
C68	C	0.766695	1.688180	0.500047
C69	C	0.230722	1.563811	0.000035
C70	C	0.730722	2.063811	0.500035
C71	C	0.237747	1.645602	0.000030
C72	C	0.737747	2.145602	0.500030
C73	C	0.086440	1.664299	0.000027
C74	C	0.586440	2.164299	0.500027
C75	C	0.079416	1.582512	0.000025
C76	C	0.579416	2.082512	0.500025
C77	C	0.151557	1.532272	0.000034
C78	C	0.651557	2.032272	0.500034
N79	N	0.208772	1.403811	0.000039
N80	N	0.708772	1.903811	0.500039
N81	N	0.144370	1.448674	0.000040
N82	N	0.644370	1.948674	0.500040
N83	N	0.166799	0.936039	-0.205262
N84	N	0.666799	1.436039	0.294738
C85	C	0.135161	0.967611	0.250732
C86	C	0.635161	1.467611	0.750732
C87	C	0.139485	0.963293	0.341540
C88	C	0.639485	1.463293	0.841540
C89	C	0.194983	0.907816	0.386949
C90	C	0.694983	1.407816	0.886949
C91	C	0.246154	0.856650	0.341546
C92	C	0.746154	1.356650	0.841546
C93	C	0.241826	0.860966	0.250740
C94	C	0.741826	1.360966	0.750740
C95	C	0.213643	0.889189	0.658530
C96	C	0.713643	1.389189	1.158530
C97	C	0.217969	0.884878	0.749342
C98	C	0.717969	1.384878	1.249342
C99	C	0.111298	0.991520	0.749329
C100	C	0.611298	1.491520	1.249329
C101	C	0.106978	0.995834	0.658521
C102	C	0.606978	1.495834	1.158521
C103	C	0.158146	0.944665	0.613126
C104	C	0.658146	1.444665	1.113126
N105	N	0.199405	0.903402	0.479769
N106	N	0.699405	1.403402	0.979769
N107	N	0.153719	0.949076	0.520308
N108	N	0.653719	1.449076	1.020308
H109	H	-0.245424	0.810254	-0.059022
H110	H	0.254576	1.310254	0.440978
F111	F	0.322010	1.679172	0.000029
F112	F	0.822010	2.179172	0.500029
H113	H	0.050923	1.181205	0.000032
H114	H	0.550923	1.681205	0.500032
F115	F	0.009668	1.717773	0.000022
F116	F	0.509668	2.217773	0.500022
F117	F	-0.396512	0.798037	-0.077512
F118	F	0.103488	1.298037	0.422488
H119	H	0.289465	1.522914	0.000039
H120	H	0.789465	2.022914	0.500039
H121	H	-0.240375	0.804390	0.059184
H122	H	0.259625	1.304390	0.559184
F123	F	0.305216	0.797604	0.389875
F124	F	0.805216	1.297604	0.889875
F125	F	0.296286	0.806511	0.202427
F126	F	0.796286	1.306511	0.702427
F127	F	0.357980	1.303540	0.000045
F128	F	0.857980	1.803540	0.500045
H129	H	0.063678	1.329571	0.000041
H130	H	0.563678	1.829571	0.500041
H131	H	0.325436	1.147274	0.000052
H132	H	0.825436	1.647274	0.500052
H133	H	-0.384706	0.802227	0.058452
H134	H	0.115294	1.302227	0.558452
F135	F	-0.393460	0.919670	0.162970
F136	F	0.106540	1.419670	0.662970
H137	H	-0.404092	0.948367	-0.144010
H138	H	0.095908	1.448367	0.355990
F139	F	-0.407082	1.045857	0.087377
F140	F	0.092918	1.545857	0.587377
H141	H	0.089973	1.012789	0.213765
H142	H	0.589973	1.512789	0.713765
F143	F	0.047912	1.054878	0.610194
F144	F	0.547912	1.554878	1.110194
H145	H	-0.259534	0.945441	-0.143603
H146	H	0.240466	1.445441	0.356397
H147	H	0.069638	1.033178	0.786298
H148	H	0.569638	1.533178	1.286298
H149	H	0.097818	1.004951	0.378501
H150	H	0.597818	1.504951	0.878501
F151	F	-0.249651	1.049274	0.086421
F152	F	0.250349	1.549274	0.586421
F153	F	0.277043	0.825830	0.797664
F154	F	0.777043	1.325830	1.297664
H155	H	0.255308	0.847526	0.621576
H156	H	0.755308	1.347526	1.121576
F157	F	-0.256497	1.056632	-0.089166
F158	F	0.243503	1.556632	0.410834
H159	H	-0.244559	0.933680	0.143718
H160	H	0.255441	1.433680	0.643718
H161	H	-0.406265	1.036656	-0.082124
H162	H	0.093735	1.536656	0.417876
F163	F	-0.004844	1.548947	0.000001
F164	F	0.495156	2.048947	0.500001
