data_functionalizedCrystal
_audit_creation_method	'MofGen! by Chris Wilmer'
_symmetry_space_group_name_H-M	'P1'
_symmetry_Int_Tables_number	1
_symmetry_cell_setting	triclinic
loop_
_symmetry_equiv_pos_as_xyz
  x,y,z
_cell_length_a	14.560438
_cell_length_b	23.096457
_cell_length_c	23.096457
_cell_angle_alpha	89.999456
_cell_angle_beta	119.992404
_cell_angle_gamma	59.999184
loop_
_atom_site_label
_atom_site_type_symbol
_atom_site_fract_x
_atom_site_fract_y
_atom_site_fract_z
Zr1	Zr	1.005207	0.557787	0.075909
O2	O	1.196791	0.465339	0.168338
O3	O	0.813623	0.586124	0.047587
O4	O	1.005209	0.586123	0.168360
O5	O	1.005203	0.465343	-0.047717
O6	O	1.005212	0.681404	0.168363
O7	O	1.005204	0.465340	0.047565
O8	O	0.662499	0.681404	-0.047677
O9	O	1.347916	0.465343	0.168324
O10	O	0.892427	0.669320	0.035496
O11	O	0.892424	0.598216	-0.035614
O12	O	1.117992	0.598216	0.106580
O13	O	1.117989	0.527112	0.035470
Zr14	Zr	1.005209	0.709754	-0.076048
Zr15	Zr	1.005211	0.709748	0.075915
Zr16	Zr	1.005205	0.557793	-0.076054
Zr17	Zr	1.246235	0.557793	0.075887
Zr18	Zr	0.764182	0.709748	-0.076026
O19	O	1.196794	0.681418	-0.047726
O20	O	1.196797	0.681409	0.168346
O21	O	1.196788	0.465348	-0.047734
O22	O	0.813626	0.802202	-0.168477
O23	O	0.813629	0.802193	0.047595
O24	O	0.813620	0.586133	-0.168485
O25	O	1.005213	0.802198	0.047577
O26	O	1.005208	0.681418	-0.168499
O27	O	1.005205	0.586137	-0.168503
O28	O	1.005212	0.802202	-0.047704
O29	O	1.347919	0.586132	0.168328
O30	O	0.662497	0.681409	-0.168467
O31	O	0.662500	0.802198	-0.168463
O32	O	0.662502	0.802193	-0.047673
O33	O	1.347915	0.465348	0.047533
O34	O	1.347918	0.586137	0.047538
O35	O	0.892425	0.669326	-0.106719
O36	O	0.892428	0.740429	-0.035609
O37	O	1.117993	0.669325	0.035475
O38	O	1.117990	0.598222	-0.035635
C39	C	0.703720	0.633763	-0.000042
C40	C	0.601397	0.633760	-0.000032
C41	C	0.636523	0.581272	0.052430
C42	C	0.540334	0.581283	0.052394
C43	C	0.373894	0.686275	-0.052572
C44	C	0.470082	0.686266	-0.052533
C45	C	0.767837	0.528766	0.104931
C46	C	0.802970	0.476273	0.157397
C47	C	0.706781	0.476284	0.157361
C48	C	0.575459	0.528789	0.104860
C49	C	1.005203	0.443690	-0.000077
C50	C	1.005202	0.379179	-0.000079
C51	C	0.887462	0.385989	-0.037177
C52	C	0.887460	0.325373	-0.037180
C53	C	1.005205	0.257948	-0.000071
C54	C	1.122959	0.251141	0.037029
C55	C	1.122958	0.311756	0.037025
N56	N	1.092848	0.135152	0.060332
N57	N	1.092842	0.077573	0.060334
C58	C	1.005216	0.075315	-0.000059
N59	N	0.917578	0.132819	-0.060453
N60	N	0.917581	0.190405	-0.060454
C61	C	1.005219	0.192217	-0.000063
C62	C	0.887467	0.016402	-0.037164
C63	C	0.887470	-0.044216	-0.037169
C64	C	1.122972	-0.118449	0.037047
C65	C	1.122966	-0.057831	0.037045
C66	C	1.005209	0.009592	-0.000059
C67	C	1.306697	0.633778	-0.000098
C68	C	1.409020	0.633781	-0.000107
C69	C	1.005211	0.633763	0.190013
C70	C	1.005212	0.633760	0.254525
C71	C	1.005213	0.823851	-0.000063
C72	C	1.005215	0.888362	-0.000060
C73	C	1.005228	0.581269	0.715040
C74	C	1.005218	0.581270	0.654421
C75	C	1.005220	0.633761	0.624110
C76	C	1.005199	0.686265	0.654413
C77	C	1.005196	0.686267	0.715027
N78	N	1.078746	0.649656	0.552110
N79	N	1.078752	0.649650	0.494531
C80	C	1.005228	0.633760	0.441484
N81	N	0.931713	0.617862	0.448197
N82	N	0.931713	0.617865	0.505783
C83	C	1.005223	0.633765	0.558385
C84	C	1.005229	0.581262	0.345455
C85	C	1.005211	0.581268	0.284832
C86	C	1.005206	0.686261	0.284830
C87	C	1.005210	0.686258	0.345447
C88	C	1.005228	0.633755	0.375758
C89	C	1.005208	0.633774	0.809848
C90	C	1.005214	0.633764	0.745338
C91	C	0.703725	0.823843	-0.000035
C92	C	0.601404	0.888352	-0.000023
C93	C	0.703717	0.633771	-0.190125
C94	C	0.601394	0.633771	-0.254627
C95	C	0.703722	0.823851	-0.190118
C96	C	0.601401	0.888363	-0.254618
C97	C	1.306695	0.443690	0.189978
C98	C	1.409016	0.379178	0.254479
C99	C	1.306692	0.443698	-0.000105
C100	C	1.409013	0.379189	-0.000116
C101	C	1.306700	0.633770	0.189985
C102	C	1.409023	0.633770	0.254488
C103	C	0.553352	0.881528	0.037105
C104	C	0.457224	0.942135	0.037130
C105	C	0.409143	1.009566	0.000023
C106	C	0.457204	1.016389	-0.037106
C107	C	0.553337	0.955782	-0.037127
C108	C	0.553342	0.670890	-0.322041
C109	C	0.457212	0.670887	-0.382654
C110	C	0.409129	0.633770	-0.375852
C111	C	0.457190	0.596646	-0.308431
C112	C	0.553325	0.596645	-0.247820
C113	C	0.553351	0.955780	-0.247789
C114	C	0.457222	1.016401	-0.308389
C115	C	0.409138	1.009604	-0.375816
C116	C	0.457198	0.942180	-0.382643
C117	C	0.553331	0.881560	-0.322045
C118	C	1.457078	0.311761	0.247650
C119	C	1.553236	0.251140	0.308249
C120	C	1.601325	0.257937	0.375676
C121	C	1.553259	0.325361	0.382504
C122	C	1.457109	0.385981	0.321905
C123	C	1.457074	0.386013	-0.037238
C124	C	1.553229	0.325406	-0.037247
C125	C	1.601314	0.257975	-0.000137
C126	C	1.553248	0.251152	0.036989
C127	C	1.457102	0.311759	0.037001
C128	C	1.457076	0.670895	0.247663
C129	C	1.553207	0.670909	0.308265
C130	C	1.601290	0.633793	0.375690
C131	C	1.553227	0.596667	0.382514
C132	C	1.457091	0.596658	0.321913
H133	H	0.909895	0.433529	0.200145
Br134	Br	1.391888	0.477474	0.331186
Br135	Br	0.727666	-0.034972	-0.087533
Br136	Br	1.391899	0.546263	0.331188
Br137	Br	1.391842	0.477519	-0.087604
H138	H	0.418092	0.701119	-0.437545
Br139	Br	0.278670	1.091882	-0.458051
H140	H	1.592348	0.330975	-0.067482
H141	H	1.417929	0.306213	0.192753
Br142	Br	1.618507	0.546293	0.474026
H143	H	1.679602	0.208631	-0.000153
H144	H	0.497142	0.528805	0.104846
Br145	Br	0.898384	0.528744	0.104977
Br146	Br	1.618445	0.159645	0.298967
H147	H	0.592436	0.566421	-0.192931
H148	H	0.592441	0.826668	-0.327615
H149	H	0.735392	0.433546	0.200086
Br150	Br	0.727651	0.477488	-0.087536
H151	H	0.418105	0.936566	0.067365
H152	H	1.592413	0.196242	0.067202
Br153	Br	0.391919	0.546276	-0.299212
Br154	Br	1.391881	0.302484	0.087382
Br155	Br	0.391928	0.932967	-0.474157
H156	H	1.005198	0.729005	0.629731
H157	H	0.266969	0.729020	-0.095318
H158	H	0.441477	0.729006	-0.095254
H159	H	1.005200	0.729002	0.260149
H160	H	1.005214	0.538522	0.260161
Br161	Br	0.278675	1.091811	0.000058
Br162	Br	1.005175	0.757517	0.756149
Br163	Br	0.618593	0.965025	-0.156289
H164	H	1.679616	0.208571	0.425014
Br165	Br	1.282771	-0.209948	0.087403
Br166	Br	1.005247	0.510012	0.386591
Br167	Br	1.618419	0.721294	0.298987
Br168	Br	1.391843	0.721272	0.156164
H169	H	1.218842	-0.063379	0.067260
Br170	Br	1.282760	0.302513	0.087376
H171	H	1.592426	0.330888	0.437410
Br172	Br	0.391933	1.107908	-0.087465
H173	H	0.791580	0.330918	-0.067391
Br174	Br	1.005245	0.510020	0.756175
H175	H	0.791583	0.071301	-0.067391
Br176	Br	1.282757	0.159637	0.087385
Br177	Br	1.731763	0.633812	0.457928
H178	H	1.005229	0.538521	0.629748
H179	H	0.330849	0.633776	-0.425212
H180	H	0.592499	0.826628	0.067331
Br181	Br	1.005198	0.757502	0.386573
H182	H	0.592448	0.961349	-0.067365
Br183	Br	0.618571	0.721273	-0.331292
Br184	Br	0.392016	1.107896	-0.299106
