data_functionalizedCrystal
_audit_creation_method	'MofGen! by Chris Wilmer'
_symmetry_space_group_name_H-M	'P1'
_symmetry_Int_Tables_number	1
_symmetry_cell_setting	triclinic
loop_
_symmetry_equiv_pos_as_xyz
  x,y,z
_cell_length_a	19.077236
_cell_length_b	12.827892
_cell_length_c	19.077174
_cell_angle_alpha	92.275857
_cell_angle_beta	85.294282
_cell_angle_gamma	92.308321
loop_
_atom_site_label
_atom_site_type_symbol
_atom_site_fract_x
_atom_site_fract_y
_atom_site_fract_z
Zn1	Zn	1.093780	-0.377307	-0.441990
Zn2	Zn	1.593780	0.122693	0.058010
Zn3	Zn	1.088983	-0.545319	-0.324109
Zn4	Zn	1.588983	-0.045319	0.175891
Zn5	Zn	0.971161	-0.377323	-0.319373
Zn6	Zn	1.471161	0.122677	0.180627
Zn7	Zn	0.975875	-0.558740	-0.437214
Zn8	Zn	1.475875	-0.058740	0.062786
O9	O	1.032450	-0.464672	-0.380671
O10	O	1.532450	0.035328	0.119329
O11	O	1.191796	-0.393971	-0.430333
O12	O	1.691796	0.106029	0.069667
O13	O	1.069373	-0.517424	-0.224830
O14	O	1.569373	-0.017424	0.275170
O15	O	0.987461	-0.231084	-0.335655
O16	O	1.487461	0.268916	0.164345
O17	O	1.188272	-0.517408	-0.343727
O18	O	1.688272	-0.017408	0.156273
O19	O	1.077549	-0.231072	-0.425741
O20	O	1.577549	0.268928	0.074259
O21	O	0.982810	-0.393998	-0.221350
O22	O	1.482810	0.106002	0.278650
O23	O	0.873134	-0.407012	-0.331024
O24	O	1.373134	0.092988	0.168976
O25	O	0.995495	-0.540283	-0.536498
O26	O	1.495495	-0.040283	-0.036498
O27	O	0.876597	-0.540298	-0.417601
O28	O	1.376597	-0.040298	0.082399
O29	O	1.082119	-0.406985	-0.540007
O30	O	1.582119	0.093015	-0.040007
O31	O	1.073944	-0.693336	-0.339096
O32	O	1.573944	-0.193336	0.160904
O33	O	0.990844	-0.703197	-0.422193
O34	O	1.490844	-0.203197	0.077807
C35	C	0.849286	-0.475114	-0.373281
C36	C	1.349286	0.024886	0.126719
C37	C	0.770929	-0.479607	-0.370136
C38	C	1.270929	0.020393	0.129864
C39	C	0.735954	-0.417561	-0.413818
C40	C	1.235954	0.082439	0.086182
C41	C	0.662329	-0.421778	-0.410857
C42	C	1.162329	0.078222	0.089143
C43	C	0.623679	-0.488046	-0.364216
C44	C	1.123679	0.011954	0.135784
C45	C	0.658658	-0.550095	-0.320529
C46	C	1.158658	-0.050095	0.179471
C47	C	0.732282	-0.545873	-0.323487
C48	C	1.232282	-0.045873	0.176513
C49	C	0.403290	-0.507550	-0.350524
C50	C	0.903290	-0.007550	0.149476
C51	C	0.329661	-0.511770	-0.347570
C52	C	0.829661	-0.011770	0.152430
C53	C	0.333336	-0.383451	-0.437898
C54	C	0.833336	0.116549	0.062102
C55	C	0.406962	-0.379238	-0.440855
C56	C	0.906962	0.120762	0.059145
C57	C	0.441934	-0.441283	-0.397165
C58	C	0.941934	0.058717	0.102835
N59	N	0.548422	-0.492360	-0.361190
N60	N	1.048422	0.007640	0.138810
N61	N	0.517190	-0.436963	-0.400188
N62	N	1.017190	0.063037	0.099812
C63	C	1.032405	-0.736184	-0.380656
C64	C	1.532405	-0.236184	0.119344
C65	C	1.032451	-0.852336	-0.380676
C66	C	1.532451	-0.352336	0.119324
C67	C	1.077012	-0.904034	-0.425291
C68	C	1.577012	-0.404034	0.074709
C69	C	1.077061	-1.024083	-0.425313
C70	C	1.577061	-0.524083	0.074687
C71	C	1.216328	-0.454191	-0.388091
C72	C	1.716328	0.045809	0.111909
C73	C	1.294686	-0.449724	-0.391253
C74	C	1.794686	0.050276	0.108747
C75	C	1.039868	-0.475129	-0.564546
C76	C	1.539868	0.024871	-0.064546
C77	C	1.043030	-0.479585	-0.642903
C78	C	1.543030	0.020415	-0.142903
C79	C	1.032514	-0.192100	-0.380702
C80	C	1.532514	0.307900	0.119298
C81	C	1.032542	-0.075946	-0.380716
C82	C	1.532542	0.424054	0.119284
C83	C	0.999448	-0.417419	-0.677903
C84	C	1.499448	0.082581	-0.177903
C85	C	1.002416	-0.421615	-0.751527
C86	C	1.502416	0.078385	-0.251527
C87	C	1.048969	-0.487972	-0.790150
C88	C	1.548969	0.012028	-0.290150
C89	C	1.092553	-0.550146	-0.755145
C90	C	1.592553	-0.050146	-0.255145
C91	C	1.089581	-0.545955	-0.681522
C92	C	1.589581	-0.045955	-0.181522
C93	C	1.062687	-0.507403	-1.010534
C94	C	1.562687	-0.007403	-0.510534
C95	C	1.065657	-0.511587	-1.084162
C96	C	1.565657	-0.011587	-0.584162
C97	C	0.975519	-0.383057	-1.080539
C98	C	1.475519	0.116943	-0.580539
C99	C	0.972554	-0.378867	-1.006915
C100	C	1.472554	0.121133	-0.506915
C101	C	1.016135	-0.441044	-0.971916
C102	C	1.516135	0.058956	-0.471916
N103	N	1.052006	-0.492260	-0.865406
N104	N	1.552006	0.007740	-0.365406
N105	N	1.013094	-0.436761	-0.896661
N106	N	1.513094	0.063239	-0.396661
C107	C	1.025100	-0.454178	-0.197513
C108	C	1.525100	0.045822	0.302487
C109	C	1.022075	-0.449420	-0.119162
C110	C	1.522075	0.050580	0.380838
H111	H	0.767418	-0.363601	-0.451800
H112	H	1.267418	0.136399	0.048200
H113	H	0.438426	-0.325279	-0.478837
H114	H	0.938426	0.174721	0.021163
Br115	Br	0.968955	-1.001857	-0.317040
Br116	Br	1.468955	-0.501857	0.182960
Br117	Br	0.936271	-0.327350	-0.625493
Br118	Br	1.436271	0.172650	-0.125493
H119	H	1.115213	-1.068543	-0.463507
H120	H	1.615213	-0.568543	0.036493
Br121	Br	0.943228	-0.337301	-0.799023
Br122	Br	1.443228	0.162699	-0.299023
Br123	Br	1.140532	-0.829687	-0.488942
Br124	Br	1.640532	-0.329687	0.011058
H125	H	0.940037	-0.332436	-1.109043
H126	H	1.440037	0.167564	-0.609043
H127	H	0.994334	-0.896950	-0.342499
H128	H	1.494334	-0.396950	0.157501
H129	H	0.760757	-0.596397	-0.287915
H130	H	1.260757	-0.096397	0.212085
Br131	Br	0.285870	-0.299252	-0.497188
Br132	Br	0.785870	0.200748	0.002812
H133	H	0.934643	-0.324834	-0.975473
H134	H	1.434643	0.175166	-0.475473
H135	H	1.103570	-0.565624	-1.115608
H136	H	1.603570	-0.065624	-0.615608
H137	H	0.627184	-0.604048	-0.282550
H138	H	1.127184	-0.104048	0.217450
Br139	Br	0.614866	-0.337569	-0.470144
Br140	Br	1.114866	0.162431	0.029856
Br141	Br	1.121837	-0.591780	-0.963045
Br142	Br	1.621837	-0.091780	-0.463045
Br143	Br	1.155727	-0.640214	-0.807561
Br144	Br	1.655727	-0.140214	-0.307561
H145	H	1.125075	-0.596569	-0.653026
H146	H	1.625075	-0.096569	-0.153026
H147	H	0.298194	-0.565739	-0.309589
H148	H	0.798194	-0.065739	0.190411
H149	H	0.431755	-0.558072	-0.314949
H150	H	0.931755	-0.058072	0.185051
