data_functionalizedCrystal
_audit_creation_method	'MofGen! by Chris Wilmer'
_symmetry_space_group_name_H-M	'P1'
_symmetry_Int_Tables_number	1
_symmetry_cell_setting	triclinic
loop_
_symmetry_equiv_pos_as_xyz
  x,y,z
_cell_length_a	6.817900
_cell_length_b	10.992668
_cell_length_c	10.992410
_cell_angle_alpha	91.832960
_cell_angle_beta	108.764651
_cell_angle_gamma	108.769342
loop_
_atom_site_label
_atom_site_type_symbol
_atom_site_fract_x
_atom_site_fract_y
_atom_site_fract_z
V1	V	-4.114280	-0.177763	-0.400588
O2	O	-4.072374	0.008542	-0.392968
O3	O	-4.091890	-0.352475	-0.397843
O4	O	-4.091871	-0.175029	-0.575300
O5	O	-4.072393	-0.170132	-0.214282
V6	V	-4.591170	-0.155479	-0.378305
O7	O	-4.390089	-0.226646	-0.449467
O8	O	-4.765558	-0.106597	-0.329425
O9	O	-4.390353	0.019232	-0.381050
O10	O	-4.750472	-0.341785	-0.385925
O11	O	-4.750453	-0.163110	-0.564611
O12	O	-4.390371	-0.158213	-0.203592
C13	C	-3.942377	-0.395066	-0.391522
C14	C	-4.005531	-0.537895	-0.390442
C15	C	-4.252012	-0.600203	-0.397771
C16	C	-4.317510	-0.748689	-0.396139
C17	C	-3.920752	-0.718266	-0.261985
C18	C	-3.856485	-0.569698	-0.263077
C19	C	-3.980036	-0.607725	-0.508433
C20	C	-4.050700	-0.756740	-0.509050
C21	C	-3.942352	-0.168714	-0.617885
C22	C	-4.005486	-0.167635	-0.760713
C23	C	-3.872608	-0.157798	-0.955837
C24	C	-3.807058	-0.159453	-0.807354
C25	C	-4.203525	-0.294317	-0.837814
C26	C	-4.267838	-0.293197	-0.986380
C27	C	-4.145561	-0.047894	-0.948356
C28	C	-4.074851	-0.047294	-0.799343
C29	C	-4.203208	0.061817	-0.387367
C30	C	-4.119294	0.204644	-0.388455
C31	C	-4.203232	-0.164532	-0.161001
C32	C	-4.119335	-0.165605	-0.018171
H33	H	-4.374121	-0.773496	-0.310189
H34	H	-4.276404	-0.552199	-0.312984
C35	C	-4.141754	-0.415026	-0.803229
H36	H	-4.262668	-0.491205	-0.850374
H37	H	-4.016342	-0.411124	-0.825303
H38	H	-4.108173	-0.417224	-0.712666
H39	H	-3.871482	-0.523419	-0.173753
C40	C	-3.610823	-0.512122	-0.248658
H41	H	-3.550702	-0.579550	-0.242150
H42	H	-3.598013	-0.472095	-0.322423
H43	H	-3.532184	-0.449215	-0.172471
C44	C	-3.838919	-0.272054	-1.020646
H45	H	-3.689420	-0.266598	-0.982418
H46	H	-3.933819	-0.351773	-1.008527
H47	H	-3.872704	-0.268265	-1.110981
C48	C	-3.858997	-0.800691	-0.511571
H49	H	-3.821063	-0.776106	-0.585396
H50	H	-3.734354	-0.760628	-0.434793
H51	H	-3.903320	-0.892466	-0.516096
C52	C	-4.119608	-0.580187	-0.638193
H53	H	-4.194751	-0.525842	-0.621620
H54	H	-4.025584	-0.537925	-0.683438
H55	H	-4.224631	-0.659802	-0.689564
H56	H	-4.042629	0.048305	-0.968717
C57	C	-4.244742	-0.827440	-0.635447
H58	H	-4.202229	-0.803676	-0.708047
H59	H	-4.283243	-0.918703	-0.636929
H60	H	-4.368469	-0.803540	-0.639352
C61	C	-4.266822	-0.045266	-0.755421
H62	H	-4.305224	0.028414	-0.780015
H63	H	-4.391164	-0.122190	-0.795493
H64	H	-4.222499	-0.040753	-0.663647
C65	C	-3.717788	-0.757206	-0.248193
H66	H	-3.752418	-0.820981	-0.319611
H67	H	-3.597370	-0.682870	-0.246962
H68	H	-3.678388	-0.791817	-0.169501
H69	H	-3.749893	-0.245204	-0.782536
H70	H	-4.466340	-0.802018	-0.487059
C71	C	-3.981769	-0.752842	-0.141039
H72	H	-4.128079	-0.814199	-0.167352
H73	H	-3.881599	-0.789155	-0.087694
H74	H	-3.973317	-0.676497	-0.093467
H75	H	-3.801239	-0.566899	-0.504187
C76	C	-4.246826	-0.413593	-1.048890
H77	H	-4.199132	-0.462722	-0.983426
H78	H	-4.386405	-0.465668	-1.110553
H79	H	-4.141929	-0.386659	-1.091233
H80	H	-4.353903	-0.304879	-0.809010
C81	C	-3.606465	-0.036413	-0.735293
H82	H	-3.564389	0.015034	-0.796712
H83	H	-3.644686	0.012287	-0.679489
H84	H	-3.486535	-0.060656	-0.685240
H85	H	-3.931581	0.046420	-0.746988
H86	H	-4.324546	-0.052498	-0.989196
C87	C	-3.714243	-0.033909	-0.981289
H88	H	-3.797168	0.014164	-1.030165
H89	H	-3.613967	0.017772	-0.900754
H90	H	-3.633918	-0.057238	-1.028684
C91	C	-4.513696	-0.308067	-1.043983
H92	H	-4.554627	-0.307476	-1.135085
H93	H	-4.601619	-0.387892	-1.027651
H94	H	-4.536508	-0.237990	-1.004758
C95	C	-4.410887	-0.574745	-0.521417
H96	H	-4.328330	-0.525880	-0.569679
H97	H	-4.511352	-0.655279	-0.573023
H98	H	-4.490971	-0.527336	-0.497828
