data_functionalizedCrystal
_audit_creation_method	'MofGen! by Chris Wilmer'
_symmetry_space_group_name_H-M	'P1'
_symmetry_Int_Tables_number	1
_symmetry_cell_setting	triclinic
loop_
_symmetry_equiv_pos_as_xyz
  x,y,z
_cell_length_a	14.908783
_cell_length_b	19.120786
_cell_length_c	19.121283
_cell_angle_alpha	90.122160
_cell_angle_beta	91.006590
_cell_angle_gamma	95.607498
loop_
_atom_site_label
_atom_site_type_symbol
_atom_site_fract_x
_atom_site_fract_y
_atom_site_fract_z
Zn1	Zn	1.341484	-0.238637	0.447275
Zn2	Zn	1.841484	0.261363	0.947275
Zn3	Zn	1.341963	-0.350835	0.325058
Zn4	Zn	1.841963	0.149165	0.825058
Zn5	Zn	1.197388	-0.239806	0.323308
Zn6	Zn	1.697388	0.260194	0.823308
Zn7	Zn	1.184464	-0.362571	0.434879
Zn8	Zn	1.684464	0.137429	0.934879
O9	O	1.266325	-0.297962	0.382630
O10	O	1.766325	0.202038	0.882630
O11	O	1.467766	-0.248119	0.436982
O12	O	1.967766	0.251881	0.936982
O13	O	1.328394	-0.331684	0.226984
O14	O	1.828394	0.168316	0.726984
O15	O	1.221711	-0.141318	0.344208
O16	O	1.721711	0.358682	0.844208
O17	O	1.468118	-0.330550	0.347190
O18	O	1.968118	0.169450	0.847190
O19	O	1.327578	-0.140459	0.435286
O20	O	1.827578	0.359541	0.935286
O21	O	1.222175	-0.250112	0.225699
O22	O	1.722175	0.249888	0.725699
O23	O	1.069455	-0.261493	0.332188
O24	O	1.569455	0.238507	0.832188
O25	O	1.199684	-0.350553	0.534364
O26	O	1.699684	0.149447	1.034364
O27	O	1.059960	-0.351688	0.414159
O28	O	1.559960	0.148312	0.914159
O29	O	1.315046	-0.259499	0.543471
O30	O	1.815046	0.240501	1.043471
O31	O	1.315862	-0.450725	0.335170
O32	O	1.815862	0.049275	0.835170
O33	O	1.200149	-0.459347	0.415855
O34	O	1.700149	0.040653	0.915855
C35	C	1.031981	-0.307991	0.371639
C36	C	1.531981	0.192009	0.871639
C37	C	0.931725	-0.312299	0.366953
C38	C	1.431725	0.187701	0.866953
C39	C	0.742952	-0.234688	0.451779
C40	C	1.242952	0.265312	0.951779
C41	C	0.648754	-0.238733	0.447379
C42	C	1.148754	0.261267	0.947379
C43	C	0.649127	-0.324432	0.353749
C44	C	1.149127	0.175568	0.853749
C45	C	0.743326	-0.320386	0.358149
C46	C	1.243326	0.179614	0.858149
C47	C	0.790235	-0.275514	0.407167
C48	C	1.290235	0.224486	0.907167
C49	C	0.884436	-0.271472	0.411570
C50	C	1.384436	0.228528	0.911570
C51	C	0.884808	-0.357166	0.317937
C52	C	1.384808	0.142834	0.817937
C53	C	0.790609	-0.361212	0.313537
C54	C	1.290609	0.138788	0.813537
C55	C	1.256678	-0.480532	0.374374
C56	C	1.756678	0.019468	0.874374
C57	C	1.252633	-0.558634	0.370869
C58	C	1.752633	-0.058634	0.870869
C59	C	1.305806	-0.594822	0.416677
C60	C	1.805806	-0.094822	0.916677
C61	C	1.302001	-0.668207	0.413385
C62	C	1.802001	-0.168207	0.913385
C63	C	1.245027	-0.705402	0.364282
C64	C	1.745027	-0.205402	0.864282
C65	C	1.191847	-0.669209	0.318473
C66	C	1.691847	-0.169209	0.818473
C67	C	1.195648	-0.595826	0.321768
C68	C	1.695648	-0.095826	0.821768
C69	C	1.230791	-0.926998	0.351960
C70	C	1.730791	-0.426998	0.851960
C71	C	1.226996	-1.000387	0.348666
C72	C	1.726996	-0.500387	0.848666
C73	C	1.337149	-0.999379	0.443579
C74	C	1.837149	-0.499379	0.943579
C75	C	1.340949	-0.925994	0.446868
C76	C	1.840949	-0.425994	0.946868
C77	C	1.287766	-0.889808	0.401061
C78	C	1.787766	-0.389808	0.901061
C79	C	1.241138	-0.780414	0.360914
C80	C	1.741138	-0.280414	0.860914
C81	C	1.291651	-0.814798	0.404433
C82	C	1.791651	-0.314798	0.904433
C83	C	1.501584	-0.287895	0.393664
C84	C	2.001584	0.212105	0.893664
C85	C	1.601838	-0.283604	0.398366
C86	C	2.101838	0.216396	0.898366
C87	C	1.255870	-0.306205	0.564996
C88	C	1.755870	0.193795	1.064996
C89	C	1.251415	-0.309717	0.642710
C90	C	1.751415	0.190283	1.142710
C91	C	1.276033	-0.114679	0.390934
C92	C	1.776033	0.385321	0.890934
C93	C	1.280170	-0.036575	0.394473
C94	C	1.780170	0.463425	0.894473
C95	C	1.223212	-0.332000	1.082004
C96	C	1.723212	0.168000	1.582004
C97	C	1.227395	-0.328690	1.008984
C98	C	1.727395	0.171310	1.508984
C99	C	1.289554	-0.279631	0.977219
C100	C	1.789554	0.220369	1.477219
C101	C	1.347527	-0.233875	1.018478
C102	C	1.847527	0.266125	1.518478
C103	C	1.343338	-0.237183	1.091497
C104	C	1.843338	0.262817	1.591497
C105	C	1.305200	-0.267269	0.756988
C106	C	1.805200	0.232731	1.256988
C107	C	1.309386	-0.263967	0.683964
C108	C	1.809386	0.236033	1.183964
C109	C	1.189253	-0.358780	0.674475
C110	C	1.689253	0.141220	1.174475
C111	C	1.185074	-0.362087	0.747495
C112	C	1.685074	0.137913	1.247495
C113	C	1.243043	-0.316328	0.788748
C114	C	1.743043	0.183672	1.288748
C115	C	1.293833	-0.276248	0.902581
C116	C	1.793833	0.223752	1.402581
C117	C	1.238759	-0.319709	0.863384
C118	C	1.738759	0.180291	1.363384
C119	C	1.276730	-0.289766	1.200972
C120	C	1.776730	0.210234	1.700972
C121	C	1.281182	-0.286249	1.123258
C122	C	1.781182	0.213751	1.623258
H123	H	0.610260	-0.205487	0.483705
H124	H	1.110260	0.294513	0.983705
H125	H	1.380447	-1.028850	0.480873
H126	H	1.880447	-0.528850	0.980873
F127	F	0.599189	-0.372176	0.301578
F128	F	1.099189	0.127824	0.801578
H129	H	1.152348	-0.566363	0.284468
H130	H	1.652348	-0.066363	0.784468
F131	F	1.180499	-0.820006	0.308660
F132	F	1.680499	-0.320006	0.808660
H133	H	1.142056	-0.396033	0.640879
H134	H	1.642056	0.103967	1.140879
F135	F	0.740676	-0.408963	0.261369
F136	F	1.240676	0.091037	0.761369
H137	H	0.923315	-0.390415	0.281615
H138	H	1.423315	0.109585	0.781615
H139	H	0.922628	-0.234935	0.451484
H140	H	1.422628	0.265065	0.951484
F141	F	1.366452	-0.555242	0.468936
F142	F	1.866452	-0.055242	0.968936
H143	H	0.781146	-0.198154	0.491694
H144	H	1.281146	0.301846	0.991694
H145	H	1.352408	-0.230013	0.790567
H146	H	1.852408	0.269987	1.290567
H147	H	1.345308	-0.697667	0.450681
H148	H	1.845308	-0.197667	0.950681
H149	H	1.387342	-0.895711	0.486851
H150	H	1.887342	-0.395711	0.986851
H151	H	1.180597	-1.030669	0.308680
H152	H	1.680597	-0.530669	0.808680
H153	H	1.187489	-0.897541	0.314661
H154	H	1.687489	-0.397541	0.814661
H155	H	1.145454	-0.699500	0.278495
H156	H	1.645454	-0.199500	0.778495
F157	F	1.352280	-0.775211	0.456693
F158	F	1.852280	-0.275211	0.956693
F159	F	1.157057	-0.384218	1.115804
F160	F	1.657057	0.115782	1.615804
F161	F	1.165691	-0.377382	0.965082
F162	F	1.665691	0.122618	1.465082
F163	F	1.118923	-0.414307	0.781296
F164	F	1.618923	0.085693	1.281296
H165	H	1.360003	-0.224013	0.658103
H166	H	1.860003	0.275987	1.158103
F167	F	1.413664	-0.181650	0.984670
F168	F	1.913664	0.318350	1.484670
H169	H	1.390541	-0.199925	1.125085
H170	H	1.890541	0.300075	1.625085
H171	H	1.188145	-0.359649	0.889250
H172	H	1.688145	0.140351	1.389250
F173	F	1.359966	-0.224023	0.868768
F174	F	1.859966	0.275977	1.368768
