data_functionalizedCrystal
_audit_creation_method	'MofGen! by Chris Wilmer'
_symmetry_space_group_name_H-M	'P1'
_symmetry_Int_Tables_number	1
_symmetry_cell_setting	triclinic
loop_
_symmetry_equiv_pos_as_xyz
  x,y,z
_cell_length_a	12.811445
_cell_length_b	12.811415
_cell_length_c	9.482900
_cell_angle_alpha	94.039455
_cell_angle_beta	75.326938
_cell_angle_gamma	83.528277
loop_
_atom_site_label
_atom_site_type_symbol
_atom_site_fract_x
_atom_site_fract_y
_atom_site_fract_z
O1	O	1.436834	0.097667	-0.323188
O2	O	1.126164	0.118209	-0.284943
O3	O	1.286607	-0.042232	-0.284934
O4	O	1.276391	0.258107	-0.323197
O5	O	1.254020	-0.009514	-0.043161
O6	O	1.093577	0.150927	-0.043170
O7	O	1.404247	0.130385	-0.081415
Cu8	Cu	1.245937	0.143643	-0.040216
Cu9	Cu	1.284474	0.104950	-0.326141
O10	O	1.243804	0.290825	-0.081423
C11	C	1.070053	0.134418	-0.158788
C12	C	0.951409	0.133961	-0.143087
C13	C	1.268742	-0.064268	-0.158780
C14	C	1.264048	-0.178673	-0.143083
C15	C	0.763989	0.097448	-0.377195
C16	C	0.652512	0.097018	-0.362450
C17	C	0.616978	0.132678	-0.098853
C18	C	0.728454	0.133108	-0.113598
C19	C	0.801956	0.115491	-0.252774
C20	C	0.913435	0.115914	-0.267517
C21	C	0.877897	0.151581	-0.003923
C22	C	0.766421	0.151151	0.010823
C23	C	1.290737	-0.429314	-0.377194
C24	C	1.286326	-0.536808	-0.362452
C25	C	1.250809	-0.501158	-0.098856
C26	C	1.255220	-0.393663	-0.113599
C27	C	1.275185	-0.357746	-0.252772
C28	C	1.279603	-0.250250	-0.267514
C29	C	1.244079	-0.214601	-0.003919
C30	C	1.239669	-0.322096	0.010824
C31	C	1.460358	0.114175	-0.207573
C32	C	1.579004	0.114631	-0.223283
C33	C	1.261669	0.312861	-0.207581
C34	C	1.266365	0.427265	-0.223288
N35	N	1.218839	0.170857	0.160887
N36	N	1.311580	0.077728	-0.527245
C37	C	1.276474	0.112972	0.233122
C38	C	1.253937	0.135622	0.400524
H39	H	0.973280	0.101569	-0.380841
C40	C	1.303358	-0.614647	-0.497440
C41	C	1.393441	-0.690238	-0.507062
C42	C	1.409152	-0.761965	-0.631390
H43	H	1.315944	-0.577992	-0.582539
H44	H	1.240323	-0.648697	-0.490134
H45	H	1.456462	-0.656191	-0.514380
H46	H	1.380878	-0.726918	-0.421993
H47	H	1.346117	-0.796015	-0.624084
H48	H	1.421734	-0.725301	-0.716480
H49	H	1.470267	-0.813267	-0.637928
H50	H	0.823836	0.083099	-0.490517
H51	H	0.621605	0.082329	-0.463767
H52	H	1.223409	-0.351355	0.124135
C53	C	1.312647	-0.390288	-0.528282
C54	C	1.407827	-0.342463	-0.554833
C55	C	1.428058	-0.306518	-0.694011
H56	H	1.253124	-0.340351	-0.532651
H57	H	1.321349	-0.448294	-0.600324
H58	H	1.399117	-0.284464	-0.482811
H59	H	1.467369	-0.392380	-0.550495
H60	H	1.436761	-0.364525	-0.766052
H61	H	1.368530	-0.256585	-0.698366
H62	H	1.492645	-0.274074	-0.712049
H63	H	0.706561	0.165497	0.124135
H64	H	1.234546	-0.530421	0.014453
H65	H	1.295863	-0.221009	-0.380837
C66	C	0.919286	0.170993	0.131072
C67	C	0.992275	0.083498	0.140665
C68	C	1.030435	0.101341	0.264989
H69	H	0.859652	0.181384	0.216176
H70	H	0.955314	0.232052	0.123778
H71	H	0.956247	0.022456	0.147971
H72	H	1.051926	0.073092	0.055591
H73	H	1.066463	0.162401	0.257695
H74	H	0.970795	0.111733	0.350084
H75	H	1.079969	0.041984	0.271507
H76	H	0.557113	0.147030	0.014456
C77	C	1.227230	-0.137070	0.131350
C78	C	1.208834	-0.191543	0.256376
C79	C	1.193334	-0.120161	0.381004
H80	H	1.166123	-0.085668	0.138338
H81	H	1.290317	-0.103109	0.124102
H82	H	1.145754	-0.225487	0.263624
H83	H	1.269930	-0.242940	0.249437
H84	H	1.256421	-0.086200	0.373756
H85	H	1.132228	-0.068763	0.387977
H86	H	1.180861	-0.157112	0.465848
C87	C	1.364529	0.024449	0.150622
C88	C	1.413315	-0.024581	0.249711
C89	C	1.494427	-0.106142	0.173772
H90	H	1.418007	0.052714	0.080445
H91	H	1.332968	-0.025898	0.102087
H92	H	1.444876	0.025758	0.298222
H93	H	1.359865	-0.052868	0.319889
H94	H	1.462867	-0.156489	0.125237
H95	H	1.547898	-0.077869	0.103598
H96	H	1.527532	-0.139425	0.240993
C97	C	1.165721	0.223940	0.483254
C98	C	1.065229	0.203869	0.462283
C99	C	0.983940	0.285194	0.538489
H100	H	1.182256	0.289243	0.447653
H101	H	1.162201	0.227405	0.584789
H102	H	1.068750	0.200415	0.360769
H103	H	1.048660	0.138581	0.497891
H104	H	0.980419	0.288659	0.640025
H105	H	1.000485	0.350491	0.502881
H106	H	0.915745	0.271582	0.524282
H107	H	1.377609	0.011394	0.410675
H108	H	1.152807	0.237180	0.222975
