data_functionalizedCrystal
_audit_creation_method	'MofGen! by Chris Wilmer'
_symmetry_space_group_name_H-M	'P1'
_symmetry_Int_Tables_number	1
_symmetry_cell_setting	triclinic
loop_
_symmetry_equiv_pos_as_xyz
  x,y,z
_cell_length_a	27.732048
_cell_length_b	14.044220
_cell_length_c	13.101039
_cell_angle_alpha	86.332523
_cell_angle_beta	93.324104
_cell_angle_gamma	87.915766
loop_
_atom_site_label
_atom_site_type_symbol
_atom_site_fract_x
_atom_site_fract_y
_atom_site_fract_z
O1	O	-0.648645	-0.107455	-0.085084
O2	O	-0.508657	-0.124591	-0.085115
O3	O	-0.576549	0.021930	-0.085090
O4	O	-0.580752	-0.253976	-0.085109
O5	O	-0.571679	0.011400	0.085338
O6	O	-0.503786	-0.135121	0.085313
O7	O	-0.643774	-0.117985	0.085344
Zn8	Zn	-0.573007	-0.128225	0.112388
Zn9	Zn	-0.579424	-0.114351	-0.112159
O10	O	-0.575882	-0.264506	0.085319
C11	C	-0.488198	-0.129496	0.000095
C12	C	-0.434492	-0.128412	0.000083
C13	C	-0.572274	0.051953	0.000124
C14	C	-0.566787	0.157098	0.000124
C15	C	-0.664233	-0.113080	0.000132
C16	C	-0.717939	-0.114163	0.000137
C17	C	-0.099419	-0.208180	0.000122
C18	C	0.102429	-0.204161	0.000132
O19	O	0.130263	-0.277104	0.000171
N20	N	0.125630	-0.117280	0.000136
C21	C	0.098366	-0.031397	0.000144
O22	O	0.122732	0.042593	0.000159
C23	C	-0.103481	-0.035417	0.000142
C24	C	-0.126680	-0.122304	0.000128
C25	C	-0.122618	-0.295060	0.000109
C26	C	-0.173077	-0.296063	0.000101
C27	C	-0.200338	-0.210187	0.000106
C28	C	-0.177139	-0.123307	0.000120
C29	C	-0.130744	0.050464	0.000158
C30	C	-0.181209	0.049452	0.000160
C31	C	-0.204407	-0.037435	0.000146
C32	C	-0.254859	-0.038434	0.000117
N33	N	-0.278060	-0.125316	0.000113
C34	C	-0.250799	-0.211192	0.000108
C35	C	0.204339	-0.029292	0.000143
C36	C	0.254801	-0.028287	0.000142
C37	C	0.258860	-0.201052	0.000131
C38	C	0.208397	-0.202056	0.000125
C39	C	0.181138	-0.116174	0.000139
C40	C	-0.356768	-0.213293	0.000090
C41	C	-0.407232	-0.214288	0.000078
C42	C	-0.411287	-0.041524	0.000094
C43	C	-0.360827	-0.040528	0.000101
C44	C	-0.333569	-0.126420	0.000102
O45	O	-0.282722	0.034469	0.000090
O46	O	-0.275174	-0.285173	0.000116
C47	C	-0.048960	-0.207177	0.000130
C48	C	-0.025761	-0.120297	0.000144
C49	C	-0.053022	-0.034420	0.000149
C50	C	0.024700	-0.119291	0.000142
C51	C	0.051961	-0.205168	0.000137
C52	C	0.028760	-0.292050	0.000132
C53	C	-0.021700	-0.293053	0.000124
C54	C	-0.029821	0.052461	0.000153
C55	C	0.020639	0.053458	0.000160
C56	C	0.047899	-0.032419	0.000155
C57	C	-0.580157	-0.294528	0.000103
C58	C	-0.585644	-0.399673	0.000096
N59	N	-0.568631	-0.137693	0.265634
C60	C	-0.556756	0.349614	0.000107
C61	C	-0.595673	0.407817	0.000113
C62	C	-0.590091	0.514939	0.000103
C63	C	-0.562337	0.242481	0.000117
N64	N	-0.583803	-0.104876	-0.265406
C65	C	-0.562678	-0.150583	0.474675
C66	C	-0.589755	-0.091989	0.525561
C67	C	-0.586443	-0.099161	0.641878
C68	C	-0.565990	-0.143412	0.358347
H69	H	-0.426118	-0.285045	0.000065
O70	O	-0.507074	0.390174	0.000107
H71	H	-0.489157	0.369848	-0.069359
O72	O	-0.623758	-0.018402	0.467563
H73	H	-0.650362	-0.054910	0.418684
H74	H	-0.111864	0.121217	0.000171
O75	O	-0.528683	-0.224178	0.532669
H76	H	-0.502082	-0.187686	0.581567
O77	O	0.279816	0.065431	0.000146
H78	H	0.319486	0.051714	0.000137
O79	O	-0.327371	-0.305930	0.000083
H80	H	-0.351987	-0.366503	0.000062
O81	O	-0.645362	0.367270	0.000134
H82	H	-0.647771	0.318540	0.069609
O83	O	-0.198096	-0.389778	0.000115
H84	H	-0.170655	-0.449317	0.000130
H85	H	0.189513	-0.272807	0.000119
O86	O	-0.093219	-0.387691	0.000098
H87	H	-0.117837	-0.448262	0.000082
O88	O	0.174940	0.063343	0.000154
H89	H	0.199555	0.123918	0.000148
H90	H	0.281064	-0.270976	0.000127
H91	H	-0.203401	0.119389	0.000173
O92	O	-0.059217	0.145093	0.000163
H93	H	-0.084287	0.153063	-0.069300
O94	O	0.045655	0.147182	0.000175
H95	H	0.085325	0.133464	0.000175
H96	H	-0.433491	0.028394	0.000095
O97	O	-0.335801	0.053182	0.000113
H98	H	-0.363237	0.112727	0.000120
H99	H	-0.040583	-0.363805	0.000114
H100	H	0.050964	-0.361973	0.000124
