data_functionalizedCrystal
_audit_creation_method	'MofGen! by Chris Wilmer'
_symmetry_space_group_name_H-M	'P1'
_symmetry_Int_Tables_number	1
_symmetry_cell_setting	triclinic
loop_
_symmetry_equiv_pos_as_xyz
  x,y,z
_cell_length_a	13.032831
_cell_length_b	19.121063
_cell_length_c	13.032268
_cell_angle_alpha	80.752502
_cell_angle_beta	89.113023
_cell_angle_gamma	85.565596
loop_
_atom_site_label
_atom_site_type_symbol
_atom_site_fract_x
_atom_site_fract_y
_atom_site_fract_z
Zn1	Zn	1.465022	-0.473659	0.806576
Zn2	Zn	1.965022	0.026341	1.306576
Zn3	Zn	1.479383	-0.578156	0.640274
Zn4	Zn	1.979383	-0.078156	1.140274
Zn5	Zn	1.316950	-0.444360	0.611224
Zn6	Zn	1.816950	0.055640	1.111224
Zn7	Zn	1.285899	-0.574364	0.790193
Zn8	Zn	1.785899	-0.074364	1.290193
O9	O	1.386814	-0.517635	0.712067
O10	O	1.886814	-0.017635	1.212067
O11	O	1.609870	-0.501370	0.803529
O12	O	2.109870	-0.001370	1.303529
O13	O	1.476841	-0.549733	0.491924
O14	O	1.976841	-0.049733	0.991924
O15	O	1.343577	-0.350107	0.631836
O16	O	1.843577	0.149893	1.131836
O17	O	1.620421	-0.578143	0.681348
O18	O	2.120421	-0.078143	1.181348
O19	O	1.452365	-0.371633	0.775360
O20	O	1.952365	0.128367	1.275360
O21	O	1.357502	-0.451434	0.470581
O22	O	1.857502	0.048566	0.970581
O23	O	1.169889	-0.447756	0.615951
O24	O	1.669889	0.052244	1.115951
O25	O	1.290655	-0.571680	0.936863
O26	O	1.790655	-0.071680	1.436863
O27	O	1.147076	-0.543270	0.747439
O28	O	1.647076	-0.043270	1.247439
O29	O	1.422256	-0.497693	0.948899
O30	O	1.922256	0.002307	1.448899
O31	O	1.446733	-0.675793	0.665463
O32	O	1.946733	-0.175793	1.165463
O33	O	1.304581	-0.673007	0.775608
O34	O	1.804581	-0.173007	1.275608
C35	C	1.121419	-0.491923	0.676766
C36	C	1.621419	0.008077	1.176766
C37	C	1.007877	-0.480942	0.661690
C38	C	1.507877	0.019058	1.161690
C39	C	0.946005	-0.523366	0.719935
C40	C	1.446005	-0.023366	1.219935
C41	C	0.828653	-0.512018	0.704355
C42	C	1.328653	-0.012018	1.204355
C43	C	1.373870	-0.699851	0.721936
C44	C	1.873870	-0.199851	1.221936
C45	C	1.368422	-0.777815	0.726206
C46	C	1.868422	-0.277815	1.226206
C47	C	1.439917	-0.815879	0.670926
C48	C	1.939917	-0.315879	1.170926
C49	C	1.434798	-0.889136	0.674948
C50	C	1.934798	-0.389136	1.174948
C51	C	1.358179	-0.924327	0.734244
C52	C	1.858179	-0.424327	1.234244
C53	C	1.286681	-0.886258	0.789530
C54	C	1.786681	-0.386258	1.289530
C55	C	1.291805	-0.813003	0.785514
C56	C	1.791805	-0.313003	1.285514
C57	C	1.339006	-1.145437	0.749244
C58	C	1.839006	-0.645437	1.249244
C59	C	1.333886	-1.218697	0.753254
C60	C	1.833886	-0.718697	1.253254
C61	C	1.482005	-1.221570	0.638672
C62	C	1.982005	-0.721570	1.138672
C63	C	1.487118	-1.148313	0.634656
C64	C	1.987118	-0.648313	1.134656
C65	C	1.415624	-1.110251	0.689946
C66	C	1.915624	-0.610251	1.189946
C67	C	1.352943	-0.999207	0.738354
C68	C	1.852943	-0.499207	1.238354
C69	C	1.420865	-1.035374	0.685842
C70	C	1.920865	-0.535374	1.185842
C71	C	1.653245	-0.543448	0.747506
C72	C	2.153245	-0.043448	1.247506
C73	C	1.766782	-0.554448	0.762608
C74	C	2.266782	-0.054448	1.262608
C75	C	1.351390	-0.537532	0.981395
C76	C	1.851390	-0.037532	1.481395
C77	C	1.336295	-0.546011	1.096167
C78	C	1.836295	-0.046011	1.596167
C79	C	1.399833	-0.334712	0.702185
C80	C	1.899833	0.165288	1.202185
C81	C	1.405381	-0.256761	0.697974
C82	C	1.905381	0.243239	1.197974
C83	C	1.422162	-0.497771	0.443791
C84	C	1.922162	0.002229	0.943791
C85	C	1.437469	-0.489113	0.329036
C86	C	1.937469	0.010887	0.829036
C87	C	1.394678	-0.513183	1.153291
C88	C	1.894678	-0.013183	1.653291
C89	C	1.379078	-0.521945	1.271914
C90	C	1.879078	-0.021945	1.771914
H91	H	1.493016	-0.920125	0.629933
H92	H	1.993016	-0.420125	1.129933
H93	H	1.456208	-0.478588	1.114376
H94	H	1.956208	0.021412	1.614376
N95	N	0.962975	-0.421704	0.580349
N96	N	1.462975	0.078296	1.080349
H97	H	0.990421	-0.428847	0.509573
H98	H	1.490421	0.071153	1.009573
H99	H	0.982930	-0.374609	0.596321
H100	H	1.482930	0.125391	1.096321
H101	H	1.502304	-0.787232	0.622636
H102	H	2.002304	-0.287232	1.122636
N103	N	0.811667	-0.613694	0.843954
N104	N	1.311667	-0.113694	1.343954
H105	H	0.851665	-0.593035	0.896171
H106	H	1.351665	-0.093035	1.396171
H107	H	0.859114	-0.647277	0.809428
H108	H	1.359114	-0.147277	1.309428
H109	H	1.499002	-0.454514	1.290127
H110	H	1.999002	0.045486	1.790127
N111	N	1.569770	-1.110362	0.570718
N112	N	2.069770	-0.610362	1.070718
H113	H	1.614292	-1.145593	0.536315
H114	H	2.114292	-0.645593	1.036315
H115	H	1.613594	-1.087617	0.617420
H116	H	2.113594	-0.587617	1.117420
N117	N	1.559110	-1.262621	0.579036
N118	N	2.059110	-0.762621	1.079036
H119	H	1.544240	-1.314367	0.590573
H120	H	2.044240	-0.814367	1.090573
H121	H	1.630829	-1.258026	0.604160
H122	H	2.130829	-0.758026	1.104160
H123	H	0.979912	-0.568086	0.781340
H124	H	1.479912	-0.068086	1.281340
N125	N	1.214696	-0.771940	0.845131
N126	N	1.714696	-0.271940	1.345131
H127	H	1.219906	-0.791640	0.921722
H128	H	1.719906	-0.291640	1.421722
H129	H	1.142983	-0.776487	0.819948
H130	H	1.642983	-0.276487	1.319948
H131	H	0.794751	-0.467290	0.642953
H132	H	1.294751	0.032710	1.142953
N133	N	1.251243	-1.256655	0.817211
N134	N	1.751243	-0.756655	1.317211
H135	H	1.206729	-1.221428	0.851630
H136	H	1.706729	-0.721428	1.351630
H137	H	1.284377	-1.294569	0.872213
H138	H	1.784377	-0.794569	1.372213
N139	N	1.261890	-1.104389	0.808865
N140	N	1.761890	-0.604389	1.308865
H141	H	1.212572	-1.137798	0.847030
H142	H	1.712572	-0.637798	1.347030
H143	H	1.222311	-1.066353	0.758843
H144	H	1.722311	-0.566353	1.258843
H145	H	1.224300	-0.914917	0.837816
H146	H	1.724300	-0.414917	1.337816
N147	N	1.297547	-0.567759	1.323439
N148	N	1.797547	-0.067759	1.823439
H149	H	1.297954	-0.567520	1.400874
H150	H	1.797954	-0.067520	1.900874
H151	H	1.312325	-0.618010	1.309467
H152	H	1.812325	-0.118010	1.809467
N153	N	1.503504	-0.997419	0.621896
N154	N	2.003504	-0.497419	1.121896
H155	H	1.470445	-0.959509	0.566835
H156	H	1.970445	-0.459509	1.066835
H157	H	1.547997	-1.032692	0.587549
H158	H	2.047997	-0.532692	1.087549
N159	N	1.254769	-0.591822	1.147696
N160	N	1.754769	-0.091822	1.647696
H161	H	1.255175	-0.591583	1.225132
H162	H	1.755175	-0.091583	1.725132
H163	H	1.269546	-0.642073	1.133725
H164	H	1.769546	-0.142073	1.633725
N165	N	1.270295	-1.037163	0.802293
N166	N	1.770295	-0.537163	1.302293
H167	H	1.225772	-1.001936	0.836702
H168	H	1.725772	-0.501936	1.336702
H169	H	1.303424	-1.075074	0.857303
H170	H	1.803424	-0.575074	1.357303
