data_functionalizedCrystal
_audit_creation_method	'MofGen! by Chris Wilmer'
_symmetry_space_group_name_H-M	'P1'
_symmetry_Int_Tables_number	1
_symmetry_cell_setting	triclinic
loop_
_symmetry_equiv_pos_as_xyz
  x,y,z
_cell_length_a	16.956984
_cell_length_b	13.101018
_cell_length_c	16.974813
_cell_angle_alpha	90.291839
_cell_angle_beta	79.731954
_cell_angle_gamma	93.111044
loop_
_atom_site_label
_atom_site_type_symbol
_atom_site_fract_x
_atom_site_fract_y
_atom_site_fract_z
O1	O	1.062520	0.087540	0.027988
O2	O	1.562520	0.587540	0.527988
O3	O	0.830450	0.089833	0.055626
O4	O	1.330450	0.589833	0.555626
O5	O	0.952466	0.079144	-0.073199
O6	O	1.452466	0.579144	0.426801
O7	O	0.940505	0.098228	0.156813
O8	O	1.440505	0.598228	0.656813
O9	O	0.943701	-0.090518	-0.063948
O10	O	1.443701	0.409482	0.436052
O11	O	0.821686	-0.079830	0.064877
O12	O	1.321686	0.420170	0.564877
O13	O	1.053756	-0.082123	0.037239
O14	O	1.553756	0.417877	0.537239
Zn15	Zn	0.936329	-0.107914	0.052527
Zn16	Zn	1.436329	0.392086	0.552527
Zn17	Zn	0.947877	0.115624	0.040338
Zn18	Zn	1.447877	0.615624	0.540338
O19	O	0.931740	-0.071435	0.166064
O20	O	1.431740	0.428565	0.666064
C21	C	0.796365	0.005119	0.061667
C22	C	1.296365	0.505119	0.561667
C23	C	0.707857	0.005468	0.065874
C24	C	1.207857	0.505468	0.565874
C25	C	0.675549	-0.000371	-0.004476
C26	C	1.175549	0.499629	0.495524
C27	C	0.592387	-0.000035	-0.000518
C28	C	1.092387	0.499965	0.499482
C29	C	0.541534	0.006132	0.073791
C30	C	1.041534	0.506132	0.573791
C31	C	0.573847	0.011974	0.144146
C32	C	1.073847	0.511974	0.644146
C33	C	0.657008	0.011646	0.140187
C34	C	1.157008	0.511646	0.640187
C35	C	0.291824	0.007765	0.093387
C36	C	0.791824	0.507765	0.593387
C37	C	0.208657	0.008090	0.097341
C38	C	0.708657	0.508090	0.597341
C39	C	0.227203	-0.003918	-0.047324
C40	C	0.727203	0.496082	0.452676
C41	C	0.310365	-0.004252	-0.051276
C42	C	0.810365	0.495748	0.448724
C43	C	0.342671	0.001596	0.019078
C44	C	0.842671	0.501596	0.519078
N45	N	0.456528	0.006472	0.077838
N46	N	0.956528	0.506472	0.577838
N47	N	0.427676	0.001263	0.015030
N48	N	0.927676	0.501263	0.515030
N49	N	0.928454	-0.260473	0.060845
N50	N	1.428454	0.239527	0.560845
C51	C	0.966469	-0.523714	0.020694
C52	C	1.466469	-0.023714	0.520694
C53	C	0.917746	-0.468571	0.072162
C54	C	1.417746	0.031429	0.572162
C55	C	0.923706	-0.352775	0.065863
C56	C	1.423706	0.147225	0.565863
C57	C	0.960510	-0.639521	0.026991
C58	C	1.460510	-0.139521	0.526991
C59	C	1.087842	0.002593	0.031198
C60	C	1.587842	0.502593	0.531198
C61	C	1.176349	0.002251	0.026991
C62	C	1.676349	0.502251	0.526991
C63	C	0.947466	-0.008115	-0.097867
C64	C	1.447466	0.491885	0.402133
C65	C	0.945615	-0.015351	-0.185153
C66	C	1.445615	0.484649	0.314847
N67	N	0.955758	0.268182	0.032014
N68	N	1.455758	0.768182	0.532014
C69	C	0.949525	0.073732	-0.231198
C70	C	1.449525	0.573732	0.268802
C71	C	0.947781	0.066931	-0.313211
C72	C	1.447781	0.566931	0.186789
C73	C	0.942133	-0.028955	-0.349178
C74	C	1.442133	0.471045	0.150822
C75	C	0.938220	-0.118045	-0.303126
C76	C	1.438220	0.381955	0.196874
C77	C	0.939959	-0.111242	-0.221114
C78	C	1.439959	0.388758	0.278886
C79	C	0.936417	-0.059218	-0.593918
C80	C	1.436417	0.440782	-0.093918
C81	C	0.934681	-0.066014	-0.675937
C82	C	1.434681	0.433986	-0.175937
C83	C	0.944241	0.118963	-0.686016
C84	C	1.444241	0.618963	-0.186016
C85	C	0.945984	0.125757	-0.604002
C86	C	1.445984	0.625757	-0.104002
C87	C	0.942066	0.036667	-0.557957
C88	C	1.442066	0.536667	-0.057957
N89	N	0.940353	-0.035910	-0.433009
N90	N	1.440353	0.464090	0.066991
N91	N	0.943841	0.043623	-0.474126
N92	N	1.443841	0.543623	0.025874
C93	C	0.936741	0.015827	0.190732
C94	C	1.436741	0.515827	0.690732
C95	C	0.938591	0.023070	0.278018
C96	C	1.438591	0.523070	0.778018
H97	H	0.532436	0.017002	0.204650
H98	H	1.032436	0.517002	0.704650
O99	O	0.951692	0.153383	-0.358057
O100	O	1.451692	0.653383	0.141943
C101	C	1.019958	0.153850	-0.419188
C102	C	1.519958	0.653850	0.080812
H103	H	1.038532	0.072152	-0.431548
H104	H	1.538532	0.572152	0.068452
H105	H	1.005253	0.188445	-0.475987
H106	H	1.505253	0.688445	0.024013
H107	H	1.071290	0.201330	-0.399464
H108	H	1.571290	0.701330	0.100536
H109	H	1.012654	-0.483962	-0.028095
H110	H	1.512654	0.016038	0.471905
H111	H	0.954129	0.151813	-0.201921
H112	H	1.454129	0.651813	0.298079
O113	O	0.688261	0.017276	0.208605
O114	O	1.188261	0.517276	0.708605
C115	C	0.625547	0.022815	0.275041
C116	C	1.125547	0.522815	0.775041
H117	H	0.567325	-0.010834	0.258411
H118	H	1.067325	0.489166	0.758411
H119	H	0.640549	-0.022336	0.327172
H120	H	1.140549	0.477664	0.827172
H121	H	0.618056	0.106092	0.293261
H122	H	1.118056	0.606092	0.793261
O123	O	0.951433	0.218983	-0.569185
O124	O	1.451433	0.718983	-0.069185
C125	C	0.954530	0.296154	-0.627417
C126	C	1.454530	0.796154	-0.127417
H127	H	0.926677	0.264601	-0.679501
H128	H	1.426677	0.764601	-0.179501
H129	H	0.919710	0.363428	-0.599731
H130	H	1.419710	0.863428	-0.099731
H131	H	1.019707	0.322838	-0.650107
H132	H	1.519707	0.822838	-0.150107
O133	O	0.195849	-0.009769	-0.115676
O134	O	0.695849	0.490231	0.384324
C135	C	0.217288	-0.101355	-0.155869
C136	C	0.717288	0.398645	0.344131
H137	H	0.231549	-0.159355	-0.111288
H138	H	0.731549	0.340645	0.388712
H139	H	0.165281	-0.133351	-0.184471
H140	H	0.665281	0.366649	0.315529
H141	H	0.272368	-0.085419	-0.204347
H142	H	0.772368	0.414581	0.295653
H143	H	0.318118	0.012533	0.150674
H144	H	0.818118	0.512533	0.650674
O145	O	0.159141	0.014032	0.169466
O146	O	0.659141	0.514032	0.669466
C147	C	0.078815	0.013086	0.157868
C148	C	0.578815	0.513086	0.657868
H149	H	0.073771	-0.024151	0.097998
H150	H	0.573771	0.475849	0.597998
H151	H	0.038743	-0.032216	0.208251
H152	H	0.538743	0.467784	0.708251
H153	H	0.058976	0.094857	0.157978
H154	H	0.558976	0.594857	0.657978
O155	O	0.932484	-0.145730	-0.549144
O156	O	1.432484	0.354270	-0.049144
C157	C	0.864241	-0.146230	-0.487984
C158	C	1.364241	0.353770	0.012016
H159	H	0.818214	-0.095018	-0.506178
H160	H	1.318214	0.404982	-0.006178
H161	H	0.836889	-0.227584	-0.478110
H162	H	1.336889	0.272416	0.021890
H163	H	0.882434	-0.116495	-0.430208
H164	H	1.382434	0.383505	0.069792
H165	H	0.936763	-0.183783	-0.183622
H166	H	1.436763	0.316217	0.316378
H167	H	0.871559	-0.508328	0.120955
H168	H	1.371559	-0.008328	0.620955
H169	H	0.947428	0.191495	-0.723515
H170	H	1.447428	0.691495	-0.223515
O171	O	0.929153	-0.159244	-0.710742
O172	O	1.429153	0.340756	-0.210742
C173	C	0.926087	-0.236419	-0.652520
C174	C	1.426087	0.263581	-0.152520
H175	H	0.903511	-0.204054	-0.590635
H176	H	1.403511	0.295946	-0.090635
H177	H	0.883576	-0.302440	-0.665181
H178	H	1.383576	0.197560	-0.165181
H179	H	0.988692	-0.265171	-0.654663
H180	H	1.488692	0.234829	-0.154663
O181	O	0.932696	-0.211270	-0.337929
O182	O	1.432696	0.288730	0.162071
C183	C	0.929637	-0.288439	-0.279702
C184	C	1.429637	0.211561	0.220298
H185	H	0.907061	-0.256070	-0.217819
H186	H	1.407061	0.243930	0.282181
H187	H	0.887129	-0.354466	-0.292358
H188	H	1.387129	0.145534	0.207642
H189	H	0.992245	-0.317183	-0.281845
H190	H	1.492245	0.182817	0.218155
O191	O	0.724922	-0.006181	-0.076689
O192	O	1.224922	0.493819	0.423311
C193	C	0.714763	0.078107	-0.124520
C194	C	1.214763	0.578107	0.375480
H195	H	0.689651	0.143122	-0.084457
H196	H	1.189651	0.643122	0.415543
H197	H	0.775181	0.104666	-0.161542
H198	H	1.275181	0.604666	0.338458
H199	H	0.671245	0.054691	-0.166240
H200	H	1.171245	0.554691	0.333760
O201	O	0.560978	-0.005525	-0.068846
O202	O	1.060978	0.494475	0.431154
C203	C	0.517957	0.082167	-0.075673
C204	C	1.017957	0.582167	0.424327
H205	H	0.540930	0.146889	-0.039167
H206	H	1.040930	0.646889	0.460833
H207	H	0.526744	0.106356	-0.141210
H208	H	1.026744	0.606356	0.358790
H209	H	0.451412	0.064168	-0.052162
H210	H	0.951412	0.564168	0.447838
H211	H	0.351764	-0.009278	-0.111786
H212	H	0.851764	0.490722	0.388214
