data_functionalizedCrystal
_audit_creation_method	'MofGen! by Chris Wilmer'
_symmetry_space_group_name_H-M	'P1'
_symmetry_Int_Tables_number	1
_symmetry_cell_setting	triclinic
loop_
_symmetry_equiv_pos_as_xyz
  x,y,z
_cell_length_a	18.215407
_cell_length_b	16.120444
_cell_length_c	18.215399
_cell_angle_alpha	92.870532
_cell_angle_beta	89.980167
_cell_angle_gamma	92.927051
loop_
_atom_site_label
_atom_site_type_symbol
_atom_site_fract_x
_atom_site_fract_y
_atom_site_fract_z
Zn1	Zn	1.110207	-0.331908	-0.430964
Zn2	Zn	1.610207	0.168092	0.069036
Zn3	Zn	1.103872	-0.471330	-0.314134
Zn4	Zn	1.603872	0.028670	0.185866
Zn5	Zn	0.987139	-0.331935	-0.307912
Zn6	Zn	1.487139	0.168065	0.192088
Zn7	Zn	0.980864	-0.471284	-0.437157
Zn8	Zn	1.480864	0.028716	0.062843
O9	O	1.045520	-0.401614	-0.372542
O10	O	1.545520	0.098386	0.127458
O11	O	1.212351	-0.350410	-0.415478
O12	O	1.712351	0.149590	0.084522
O13	O	1.088361	-0.452870	-0.210326
O14	O	1.588361	0.047130	0.289674
O15	O	1.008741	-0.215265	-0.319039
O16	O	1.508741	0.284735	0.180961
O17	O	1.207696	-0.452843	-0.329644
O18	O	1.707696	0.047157	0.170356
O19	O	1.099160	-0.215245	-0.409445
O20	O	1.599160	0.284755	0.090555
O21	O	1.002598	-0.350457	-0.205755
O22	O	1.502598	0.149543	0.294245
O23	O	0.883322	-0.350412	-0.325045
O24	O	1.383322	0.149588	0.174955
O25	O	0.998047	-0.452764	-0.539319
O26	O	1.498047	0.047236	-0.039319
O27	O	0.878712	-0.452791	-0.420001
O28	O	1.378712	0.047209	0.079999
O29	O	1.093075	-0.350365	-0.534768
O30	O	1.593075	0.149635	-0.034768
O31	O	1.082277	-0.587990	-0.335650
O32	O	1.582277	-0.087990	0.164350
O33	O	0.991903	-0.587956	-0.426034
O34	O	1.491903	-0.087956	0.073966
C35	C	0.854315	-0.401600	-0.372520
C36	C	1.354315	0.098400	0.127480
C37	C	0.772515	-0.401614	-0.372529
C38	C	1.272515	0.098386	0.127471
C39	C	1.035742	-0.618223	-0.382205
C40	C	1.535742	-0.118223	0.117795
C41	C	1.031625	-0.710890	-0.386364
C42	C	1.531625	-0.210890	0.113636
C43	C	0.581936	-0.455006	-0.421917
C44	C	1.081936	0.044994	0.078083
C45	C	0.505077	-0.455009	-0.421927
C46	C	1.005077	0.044991	0.078073
C47	C	0.509856	-0.348237	-0.323183
C48	C	1.009856	0.151763	0.176817
C49	C	0.586713	-0.348231	-0.323178
C50	C	1.086713	0.151769	0.176822
C51	C	0.622751	-0.401620	-0.372544
C52	C	1.122751	0.098380	0.127456
C53	C	0.469035	-0.401629	-0.372559
C54	C	0.969035	0.098371	0.127441
C55	C	0.385701	-0.401631	-0.372568
C56	C	0.885701	0.098369	0.127432
C57	C	0.706090	-0.401617	-0.372536
C58	C	1.206090	0.098383	0.127464
C59	C	1.067053	-0.921830	-0.351127
C60	C	1.567053	-0.421830	0.148873
C61	C	1.024124	-0.880547	-0.393964
C62	C	1.524124	-0.380547	0.106036
C63	C	1.028299	-0.786141	-0.389734
C64	C	1.528299	-0.286141	0.110266
C65	C	1.062879	-1.016244	-0.355356
C66	C	1.562879	-0.516244	0.144644
C67	C	1.237472	-0.401629	-0.372564
C68	C	1.737472	0.098371	0.127436
C69	C	1.319271	-0.401635	-0.372574
C70	C	1.819271	0.098365	0.127426
C71	C	1.045568	-0.401557	-0.564492
C72	C	1.545568	0.098443	-0.064492
C73	C	1.045588	-0.401532	-0.646290
C74	C	1.545588	0.098468	-0.146290
C75	C	1.055357	-0.184159	-0.362857
C76	C	1.555357	0.315841	0.137143
C77	C	1.059549	-0.091492	-0.358730
C78	C	1.559549	0.408508	0.141270
C79	C	1.095088	-0.348163	-0.832114
C80	C	1.595088	0.151837	-0.332114
C81	C	1.095098	-0.348139	-0.908971
C82	C	1.595098	0.151861	-0.408971
C83	C	0.996145	-0.454772	-0.913699
C84	C	1.496145	0.045228	-0.413699
C85	C	0.996133	-0.454792	-0.836842
C86	C	1.496133	0.045208	-0.336842
C87	C	1.045608	-0.401488	-0.796052
C88	C	1.545608	0.098512	-0.296052
C89	C	1.045631	-0.401445	-0.949766
C90	C	1.545631	0.098555	-0.449766
C91	C	1.045641	-0.401419	-1.033099
C92	C	1.545641	0.098581	-0.533099
C93	C	1.045597	-0.401513	-0.712714
C94	C	1.545597	0.098487	-0.212714
C95	C	1.045518	-0.401611	-0.181336
C96	C	1.545518	0.098389	0.318664
C97	C	1.045651	-0.401401	-0.099528
C98	C	1.545651	0.098599	0.400472
H99	H	0.611276	-0.498477	-0.462116
H100	H	1.111276	0.001523	0.037884
H101	H	1.135389	-0.304715	-0.938329
H102	H	1.635389	0.195285	-0.438329
F103	F	0.971986	-0.927021	-0.446050
F104	F	1.471986	-0.427021	0.053950
H105	H	0.955835	-0.498215	-0.807480
H106	H	1.455835	0.001785	-0.307480
H107	H	1.106937	-0.886276	-0.311279
H108	H	1.606937	-0.386276	0.188721
F109	F	0.943496	-0.511501	-0.957117
F110	F	1.443496	-0.011501	-0.457117
H111	H	0.471849	-0.498480	-0.462132
H112	H	0.971849	0.001520	0.037868
F113	F	0.471495	-0.291421	-0.270646
F114	F	0.971495	0.208579	0.229354
F115	F	1.147743	-0.291431	-0.788704
F116	F	1.647743	0.208569	-0.288704
H117	H	0.619946	-0.304752	-0.282972
H118	H	1.119946	0.195248	0.217028
