data_functionalizedCrystal
_audit_creation_method	'MofGen! by Chris Wilmer'
_symmetry_space_group_name_H-M	'P1'
_symmetry_Int_Tables_number	1
_symmetry_cell_setting	triclinic
loop_
_symmetry_equiv_pos_as_xyz
  x,y,z
_cell_length_a	10.723024
_cell_length_b	10.723023
_cell_length_c	9.798715
_cell_angle_alpha	89.997861
_cell_angle_beta	89.996609
_cell_angle_gamma	84.467709
loop_
_atom_site_label
_atom_site_type_symbol
_atom_site_fract_x
_atom_site_fract_y
_atom_site_fract_z
O1	O	1.657187	0.175025	-0.113479
O2	O	1.294034	0.191778	-0.113483
O3	O	1.483988	0.001825	-0.113475
O4	O	1.467233	0.364977	-0.113487
O5	O	1.483974	0.001824	0.113507
O6	O	1.294020	0.191777	0.113499
O7	O	1.657173	0.175024	0.113503
Zn8	Zn	1.475594	0.183401	0.149539
Zn9	Zn	1.475613	0.183401	-0.149519
O10	O	1.467219	0.364977	0.113495
C11	C	1.247528	0.190558	0.000007
C12	C	1.108973	0.186911	0.000006
C13	C	1.033991	0.293198	0.000001
C14	C	0.890787	0.289431	-0.000000
C15	C	1.482762	-0.044675	0.000014
C16	C	1.479114	-0.183229	0.000010
C17	C	1.477496	-0.244995	-0.117576
C18	C	1.473726	-0.388198	-0.117583
C19	C	1.703679	0.176243	0.000010
C20	C	1.842234	0.179891	0.000002
C21	C	1.468445	0.411477	0.000003
C22	C	1.472093	0.550031	-0.000002
N23	N	1.475590	0.183399	0.353639
N24	N	1.475626	0.183393	-0.353619
C25	C	1.555347	0.103292	0.421419
C26	C	1.555367	0.103288	0.578582
H27	H	1.478895	-0.191856	-0.218239
O28	O	1.471838	-0.451590	-0.237648
C29	C	1.361982	-0.513719	-0.244922
H30	H	1.287608	-0.465172	-0.174762
H31	H	1.325726	-0.510892	-0.354353
H32	H	1.383777	-0.615330	-0.211537
O33	O	1.473530	-0.386533	0.120071
C34	C	1.367641	-0.297991	0.127349
H35	H	1.291203	-0.328071	0.057186
H36	H	1.331458	-0.291955	0.236780
H37	H	1.394633	-0.202352	0.093970
H38	H	1.075812	0.386984	0.000006
O39	O	1.059240	0.074942	-0.000175
C40	C	1.099406	0.006669	-0.117748
H41	H	1.190034	0.041324	-0.156941
H42	H	1.116443	-0.097108	-0.091308
H43	H	1.024222	0.020580	-0.200065
H44	H	1.623611	0.034707	0.363099
O45	O	1.393988	0.265168	0.577012
C46	C	1.270168	0.244113	0.611825
H47	H	1.269698	0.196112	0.715606
H48	H	1.209754	0.337504	0.616578
H49	H	1.230927	0.181702	0.531442
O50	O	1.477605	-0.246498	0.120192
C51	C	1.586338	-0.228022	0.195504
H52	H	1.624805	-0.137859	0.160469
H53	H	1.562177	-0.220743	0.308702
H54	H	1.659956	-0.310520	0.178242
H55	H	1.623654	0.034709	0.636870
O56	O	0.918905	0.071211	-0.000055
C57	C	0.845945	-0.031369	-0.000017
H58	H	0.749044	-0.000641	-0.042988
H59	H	0.893379	-0.109749	-0.065914
H60	H	0.836417	-0.066667	0.108880
O61	O	1.394194	0.265389	0.423053
C62	C	1.415866	0.389049	0.388260
H63	H	1.463878	0.389297	0.284470
H64	H	1.322730	0.449896	0.383533
H65	H	1.478512	0.427951	0.468639
O66	O	0.813751	0.397871	0.000053
C67	C	0.687920	0.369969	0.000013
H68	H	0.682208	0.271889	0.042990
H69	H	0.629475	0.441124	0.065906
H70	H	0.650328	0.374330	-0.108884
