data_functionalizedCrystal
_audit_creation_method	'MofGen! by Chris Wilmer'
_symmetry_space_group_name_H-M	'P1'
_symmetry_Int_Tables_number	1
_symmetry_cell_setting	triclinic
loop_
_symmetry_equiv_pos_as_xyz
  x,y,z
_cell_length_a	12.759401
_cell_length_b	12.759400
_cell_length_c	12.759393
_cell_angle_alpha	89.969553
_cell_angle_beta	89.981504
_cell_angle_gamma	90.013326
loop_
_atom_site_label
_atom_site_type_symbol
_atom_site_fract_x
_atom_site_fract_y
_atom_site_fract_z
Zn1	Zn	1.606267	-0.418200	-0.593990
Zn2	Zn	1.606166	-0.593919	-0.418313
Zn3	Zn	1.430569	-0.418255	-0.418329
Zn4	Zn	1.430562	-0.593838	-0.593955
O5	O	1.518391	-0.506053	-0.506147
O6	O	1.753274	-0.441520	-0.570694
O7	O	1.582833	-0.570673	-0.271294
O8	O	1.453920	-0.271226	-0.441652
O9	O	1.753200	-0.570620	-0.441625
O10	O	1.583005	-0.271186	-0.570709
O11	O	1.453822	-0.441614	-0.271306
O12	O	1.283547	-0.441535	-0.441618
O13	O	1.453909	-0.570482	-0.740980
O14	O	1.283542	-0.570536	-0.570649
O15	O	1.582998	-0.441442	-0.741006
O16	O	1.582826	-0.740929	-0.441591
O17	O	1.453811	-0.740870	-0.570634
C18	C	1.245423	-0.506033	-0.506132
C19	C	1.128647	-0.506050	-0.506151
C20	C	1.073810	-0.573328	-0.573227
C21	C	0.964086	-0.573342	-0.573238
C22	C	0.964045	-0.438796	-0.439089
C23	C	1.073767	-0.438778	-0.439084
C24	C	1.073832	-0.651010	-0.650673
C25	C	0.964108	-0.651024	-0.650685
C26	C	1.518336	-0.779020	-0.506130
C27	C	1.518408	-0.895797	-0.506158
C28	C	1.585589	-0.950558	-0.573413
C29	C	1.585638	-1.060282	-0.573439
C30	C	1.451322	-1.060474	-0.438945
C31	C	1.451269	-0.950752	-0.438926
C32	C	1.652728	-0.895603	-0.640645
C33	C	1.719915	-0.950364	-0.707905
C34	C	1.719964	-1.060088	-0.707931
C35	C	1.652826	-1.115051	-0.640697
C36	C	1.792424	-0.506073	-0.506161
C37	C	1.909201	-0.506082	-0.506168
C38	C	1.518464	-0.505947	-0.780180
C39	C	1.518496	-0.505902	-0.896957
C40	C	1.518475	-0.232019	-0.506186
C41	C	1.518510	-0.115243	-0.506203
C42	C	1.585722	-0.438704	-0.951834
C43	C	1.585747	-0.438666	-1.061558
C44	C	1.451316	-0.573033	-1.061518
C45	C	1.451287	-0.573064	-0.951796
C46	C	1.663337	-0.361131	-0.951858
C47	C	1.663362	-0.361093	-1.061582
C48	C	1.518378	-0.506083	-0.233179
C49	C	1.518550	-0.505832	-0.116403
H50	H	0.934314	-0.732373	-0.628754
H51	H	1.774662	-1.104672	-0.762705
H52	H	1.744733	-0.382886	-1.091361
H53	H	1.652698	-0.806260	-0.640630
C54	C	1.378181	-0.645824	-1.121006
C55	C	1.274231	-0.622928	-1.094334
C56	C	1.206829	-0.689956	-1.149122
H57	H	1.393390	-0.716460	-1.103056
H58	H	1.387753	-0.636171	-1.194223
H59	H	1.264663	-0.632590	-1.021134
H60	H	1.258989	-0.552305	-1.112287
H61	H	1.216402	-0.680303	-1.222338
H62	H	1.222047	-0.760588	-1.131167
H63	H	1.136291	-0.674424	-1.131040
H64	H	1.652859	-1.204396	-0.640735
H65	H	1.107848	-0.728262	-0.621390
H66	H	1.396662	-1.105233	-0.384206
C67	C	1.792838	-0.890885	-0.781021
C68	C	1.851659	-0.962332	-0.839949
C69	C	1.918834	-0.907582	-0.907328
H70	H	1.838711	-0.848076	-0.740982
H71	H	1.752624	-0.848100	-0.826810
H72	H	1.891869	-1.005099	-0.794166
H73	H	1.805813	-1.005144	-0.880010
H74	H	1.878621	-0.864796	-0.953117
H75	H	1.964701	-0.864774	-0.867281
H76	H	1.958745	-0.956049	-0.947326
H77	H	1.396563	-0.906165	-0.384161
C78	C	1.378410	-0.646185	-0.892275
C79	C	1.401256	-0.750136	-0.918919
C80	C	1.334144	-0.817523	-0.864101
H81	H	1.307797	-0.630919	-0.910221
H82	H	1.388016	-0.636659	-0.819063
H83	H	1.391641	-0.759657	-0.992114
H84	H	1.471856	-0.765434	-0.900970
H85	H	1.343751	-0.807996	-0.790889
H86	H	1.263535	-0.802248	-0.882051
H87	H	1.349642	-0.888061	-0.882163
H88	H	1.118412	-0.383987	-0.384472
H89	H	0.919349	-0.384025	-0.384487
C90	C	1.634230	-0.252592	-0.912374
C91	C	1.616456	-0.186166	-0.997916
C92	C	1.589626	-0.086180	-0.961584
H93	H	1.689863	-0.225437	-0.871047
H94	H	1.572437	-0.256981	-0.871040
H95	H	1.678242	-0.181773	-1.039232
H96	H	1.560819	-0.213287	-1.039252
H97	H	1.527833	-0.090569	-0.920251
H98	H	1.645262	-0.059035	-0.920257
H99	H	1.577554	-0.041100	-1.019618
H100	H	1.740610	-0.390300	-0.917822
H101	H	1.634247	-0.283784	-1.095628
H102	H	1.103640	-0.629311	-0.732079
C103	C	0.918965	-0.612315	-0.753914
C104	C	1.000903	-0.586649	-0.822289
C105	C	0.959356	-0.550995	-0.917391
H106	H	0.877080	-0.552011	-0.741678
H107	H	0.877096	-0.665858	-0.784292
H108	H	1.042755	-0.533110	-0.791917
H109	H	1.042795	-0.646936	-0.834554
H110	H	0.917487	-0.604538	-0.947769
H111	H	0.917471	-0.490694	-0.905145
H112	H	1.014944	-0.533585	-0.963798
