data_functionalizedCrystal
_audit_creation_method	'MofGen! by Chris Wilmer'
_symmetry_space_group_name_H-M	'P1'
_symmetry_Int_Tables_number	1
_symmetry_cell_setting	triclinic
loop_
_symmetry_equiv_pos_as_xyz
  x,y,z
_cell_length_a	10.723023
_cell_length_b	14.044220
_cell_length_c	9.798715
_cell_angle_alpha	89.995876
_cell_angle_beta	89.996770
_cell_angle_gamma	88.828213
loop_
_atom_site_label
_atom_site_type_symbol
_atom_site_fract_x
_atom_site_fract_y
_atom_site_fract_z
O1	O	1.670498	0.133036	-0.113481
O2	O	1.308619	0.145772	-0.113487
O3	O	1.484127	0.001384	-0.113471
O4	O	1.494990	0.277424	-0.113498
O5	O	1.484112	0.001384	0.113511
O6	O	1.308605	0.145771	0.113495
O7	O	1.670483	0.133036	0.113501
Zn8	Zn	1.489542	0.139403	0.149536
Zn9	Zn	1.489561	0.139404	-0.149523
O10	O	1.494976	0.277423	0.113484
C11	C	1.262020	0.144845	0.000003
C12	C	1.123188	0.142072	0.000001
C13	C	1.061285	0.140836	0.117584
C14	C	0.917795	0.137971	0.117584
C15	C	1.479364	-0.033962	0.000021
C16	C	1.465180	-0.139280	0.000022
C17	C	1.439248	-0.332109	0.000002
C18	C	1.539850	-0.389089	-0.000000
C19	C	1.525421	-0.496386	-0.000012
C20	C	1.453675	-0.224802	0.000013
C21	C	1.717083	0.133963	0.000007
C22	C	1.855915	0.136735	0.000000
C23	C	1.499739	0.312769	-0.000010
C24	C	1.513923	0.418087	-0.000021
N25	N	1.489538	0.139403	0.353636
N26	N	1.489574	0.139397	-0.353622
C27	C	1.563202	0.078511	0.421420
C28	C	1.563222	0.078508	0.578582
H29	H	1.114518	0.141894	0.218250
H30	H	1.426508	0.191535	0.588095
H31	H	1.426481	0.191528	0.411954
C32	C	1.051294	0.140642	-0.135999
H33	H	1.108739	0.141785	-0.209770
H34	H	0.997033	0.194844	-0.141072
H35	H	1.003772	0.084400	-0.141070
H36	H	0.864560	0.136913	0.218251
C37	C	1.670841	-0.346135	0.000032
H38	H	1.663484	-0.278607	0.000055
H39	H	1.714945	-0.366630	-0.079113
H40	H	1.714896	-0.366653	0.079205
C41	C	1.308263	-0.375059	-0.000003
H42	H	1.247035	-0.325201	-0.000007
H43	H	1.298466	-0.413246	0.079146
H44	H	1.298475	-0.413226	-0.079171
H45	H	0.909141	0.137804	-0.100672
H46	H	1.626250	0.026378	0.363103
H47	H	1.626294	0.026379	0.636874
