data_functionalizedCrystal
_audit_creation_method	'MofGen! by Chris Wilmer'
_symmetry_space_group_name_H-M	'P1'
_symmetry_Int_Tables_number	1
_symmetry_cell_setting	triclinic
loop_
_symmetry_equiv_pos_as_xyz
  x,y,z
_cell_length_a	11.026607
_cell_length_b	10.540539
_cell_length_c	9.482900
_cell_angle_alpha	99.430988
_cell_angle_beta	78.636152
_cell_angle_gamma	96.555754
loop_
_atom_site_label
_atom_site_type_symbol
_atom_site_fract_x
_atom_site_fract_y
_atom_site_fract_z
O1	O	1.633556	0.517017	-0.120883
O2	O	2.133556	1.017017	0.379117
O3	O	1.279725	0.456370	-0.120886
O4	O	1.779725	0.956370	0.379114
O5	O	1.464712	0.303756	-0.120883
O6	O	1.964712	0.803756	0.379117
O7	O	1.448568	0.669632	-0.120886
O8	O	1.948568	1.169632	0.379114
O9	O	1.427139	0.334914	0.120909
O10	O	1.927139	0.834914	0.620909
O11	O	1.242151	0.487529	0.120905
O12	O	1.742151	0.987529	0.620905
O13	O	1.595982	0.548176	0.120909
O14	O	2.095982	1.048176	0.620909
Cu15	Cu	1.415636	0.520697	0.142985
Cu16	Cu	1.915636	1.020697	0.642985
Cu17	Cu	1.460071	0.483849	-0.142962
Cu18	Cu	1.960071	0.983849	0.357038
O19	O	1.410994	0.700790	0.120905
O20	O	1.910994	1.200790	0.620905
C21	C	1.215630	0.460761	0.000009
C22	C	1.715630	0.960761	0.500009
C23	C	1.080627	0.427408	0.000008
C24	C	1.580627	0.927408	0.500008
C25	C	1.007620	0.519500	0.000006
C26	C	1.507620	1.019500	0.500006
C27	C	0.868087	0.485031	0.000004
C28	C	1.368087	0.985031	0.500004
C29	C	1.444715	0.271766	0.000011
C30	C	1.944715	0.771766	0.500011
C31	C	1.441094	0.130024	0.000003
C32	C	1.941094	0.630024	0.500003
C33	C	1.302374	-0.083877	-0.000541
C34	C	1.802374	0.416123	0.499459
C35	C	1.305961	0.063616	0.000003
C36	C	1.805961	0.563616	0.500003
C37	C	1.484669	0.100404	0.138078
C38	C	1.984669	0.600404	0.638078
C39	C	1.480039	-0.047136	0.138195
C40	C	1.980039	0.452864	0.638195
C41	C	1.525516	-0.082485	-0.136768
C42	C	2.025516	0.417515	0.363232
C43	C	1.527044	0.064534	-0.138593
C44	C	2.027044	0.564534	0.361407
C45	C	1.660077	0.543785	0.000010
C46	C	2.160077	1.043785	0.500010
C47	C	1.795082	0.577136	0.000002
C48	C	2.295082	1.077136	0.500002
C49	C	1.430992	0.732779	0.000009
C50	C	1.930992	1.232779	0.500009
C51	C	1.434615	0.874520	0.000007
C52	C	1.934615	1.374520	0.500007
N53	N	1.384391	0.546616	0.344104
N54	N	1.884391	1.046616	0.844104
N55	N	1.491325	0.457922	-0.344082
N56	N	1.991325	0.957922	0.155918
C57	C	1.450847	0.491485	0.416305
C58	C	1.950847	0.991485	0.916305
C59	C	1.424860	0.513061	0.583722
C60	C	1.924860	1.013061	1.083722
H61	H	1.048415	0.623863	0.000013
H62	H	1.548415	1.123863	0.500013
H63	H	1.233910	-0.113041	0.097919
H64	H	1.733910	0.386959	0.597919
H65	H	0.835869	0.681507	0.000011
H66	H	1.335869	1.181507	0.500011
H67	H	1.423527	0.146349	0.240829
H68	H	1.923527	0.646349	0.740829
H69	H	1.583109	0.145156	0.143213
H70	H	2.083109	0.645156	0.643213
H71	H	1.348716	0.576233	0.645845
H72	H	1.848716	1.076233	1.145845
H73	H	1.567460	0.394739	0.593795
H74	H	2.067460	0.894739	1.093795
H75	H	1.308252	0.609784	0.406233
H76	H	1.808252	1.109784	0.906233
H77	H	1.495334	0.081807	-0.240738
H78	H	1.995334	0.581807	0.259262
Br79	Br	1.246311	0.094691	-0.164968
Br80	Br	1.746311	0.594691	0.335032
H81	H	0.827302	0.380657	-0.000032
H82	H	1.327302	0.880657	0.499968
H83	H	1.039837	0.323041	-0.000029
H84	H	1.539837	0.823041	0.499971
H85	H	1.264380	-0.136929	-0.099558
H86	H	1.764380	0.363071	0.400442
Br87	Br	1.479716	-0.173503	-0.311198
Br88	Br	1.979716	0.326497	0.188802
Br89	Br	1.577436	0.385798	0.312767
Br90	Br	2.077436	0.885798	0.812767
Br91	Br	1.194390	0.135705	0.165241
Br92	Br	1.694390	0.635705	0.665241
H93	H	1.415939	-0.072562	0.241408
H94	H	1.915939	0.427438	0.741408
H95	H	1.576251	-0.073010	0.144459
H96	H	2.076251	0.426990	0.644459
Br97	Br	1.688438	-0.125763	-0.138318
Br98	Br	2.188438	0.374237	0.361682
Br99	Br	1.693417	0.139088	-0.152504
Br100	Br	2.193417	0.639088	0.347496
