data_functionalizedCrystal
_audit_creation_method	'MofGen! by Chris Wilmer'
_symmetry_space_group_name_H-M	'P1'
_symmetry_Int_Tables_number	1
_symmetry_cell_setting	triclinic
loop_
_symmetry_equiv_pos_as_xyz
  x,y,z
_cell_length_a	21.395362
_cell_length_b	12.594516
_cell_length_c	21.395355
_cell_angle_alpha	89.988593
_cell_angle_beta	89.956060
_cell_angle_gamma	90.031933
loop_
_atom_site_label
_atom_site_type_symbol
_atom_site_fract_x
_atom_site_fract_y
_atom_site_fract_z
Zn1	Zn	0.957923	-0.423414	-0.354617
Zn2	Zn	0.957853	-0.601379	-0.249852
Zn3	Zn	0.853138	-0.423464	-0.249818
Zn4	Zn	0.853134	-0.601400	-0.354557
O5	O	0.905512	-0.512414	-0.302211
O6	O	1.045592	-0.446992	-0.340759
O7	O	0.943934	-0.577789	-0.162170
O8	O	0.867069	-0.274511	-0.263730
O9	O	1.045540	-0.577741	-0.263789
O10	O	0.944055	-0.274475	-0.340725
O11	O	0.867001	-0.447076	-0.162144
O12	O	0.765460	-0.447097	-0.263672
O13	O	0.867063	-0.577779	-0.442243
O14	O	0.765457	-0.577827	-0.340624
O15	O	0.944051	-0.447013	-0.442287
O16	O	0.943930	-0.750327	-0.263731
O17	O	0.866994	-0.750343	-0.340657
C18	C	0.742724	-0.512471	-0.302138
C19	C	0.673083	-0.512520	-0.302122
C20	C	0.640385	-0.580681	-0.342130
C21	C	0.574949	-0.580655	-0.342158
C22	C	0.542215	-0.512479	-0.302167
C23	C	0.574921	-0.444305	-0.262155
C24	C	0.640355	-0.444326	-0.262133
C25	C	0.438489	-0.503905	-0.245761
C26	C	0.373056	-0.503892	-0.245782
C27	C	0.340394	-0.512410	-0.302236
C28	C	0.373173	-0.520963	-0.358670
C29	C	0.438608	-0.520984	-0.358648
C30	C	0.471262	-0.512449	-0.302187
C31	C	0.236743	-0.580546	-0.342278
C32	C	0.171307	-0.580513	-0.342307
C33	C	0.171280	-0.444168	-0.262298
C34	C	0.236715	-0.444196	-0.262275
C35	C	0.269443	-0.512391	-0.302264
C36	C	0.905471	-0.788955	-0.302205
C37	C	0.905511	-0.907261	-0.302223
C38	C	0.863661	-0.976561	-0.344034
C39	C	0.848392	-1.047409	-0.286856
C40	C	0.920837	-1.047212	-0.359410
C41	C	0.890211	-0.976550	-0.245015
C42	C	0.962683	-0.976347	-0.317608
C43	C	0.947436	-1.047163	-0.260391
C44	C	1.068935	-0.512359	-0.302284
C45	C	1.138577	-0.512335	-0.302315
C46	C	0.905564	-0.512393	-0.465634
C47	C	0.905586	-0.512384	-0.535275
C48	C	0.905570	-0.234793	-0.302231
C49	C	0.905595	-0.116488	-0.302239
C50	C	0.945672	-0.444291	-0.568012
C51	C	0.945671	-0.444245	-0.633448
C52	C	0.905591	-0.512311	-0.666144
C53	C	0.865497	-0.580408	-0.633399
C54	C	0.865495	-0.580445	-0.567965
C55	C	0.900630	-0.608151	-0.769815
C56	C	0.900636	-0.608116	-0.835248
C57	C	0.905595	-0.512199	-0.867965
C58	C	0.910560	-0.416312	-0.835241
C59	C	0.910557	-0.416349	-0.769806
C60	C	0.905589	-0.512279	-0.737096
C61	C	0.945682	-0.444051	-0.971654
C62	C	0.945677	-0.444003	-1.037091
C63	C	0.865506	-0.580176	-1.037041
C64	C	0.865508	-0.580214	-0.971605
C65	C	0.905599	-0.512153	-0.938916
C66	C	0.905496	-0.512359	-0.139423
C67	C	0.905596	-0.512068	-0.069782
H68	H	0.465294	-0.527945	-0.404598
H69	H	0.144685	-0.636015	-0.374891
H70	H	0.982863	-1.077968	-0.224999
N71	N	0.272049	-0.654090	-0.385408
H72	H	0.241402	-0.697262	-0.410762
H73	H	0.299252	-0.610847	-0.414435
H74	H	1.010983	-0.945114	-0.330634
N75	N	0.816708	-0.935478	-0.390804
H76	H	0.795152	-0.997315	-0.411748
H77	H	0.784671	-0.890301	-0.368566
N78	N	0.895284	-0.711528	-0.870542
H79	H	0.931499	-0.759161	-0.859182
H80	H	0.854703	-0.747671	-0.859116
N81	N	0.873013	-0.935612	-0.180944
H82	H	0.833900	-0.891044	-0.183938
H83	H	0.865308	-0.997573	-0.151967
N84	N	0.915901	-0.312842	-0.870513
H85	H	0.956458	-0.276616	-0.859154
H86	H	0.915117	-0.327441	-0.916920
N87	N	0.822264	-0.653904	-0.532653
H88	H	0.828347	-0.643602	-0.486240
H89	H	0.777519	-0.637348	-0.544053
N90	N	0.937965	-1.088339	-0.423459
H91	H	0.906290	-1.062658	-0.454998
H92	H	0.980821	-1.061373	-0.435344
N93	N	0.822276	-0.653596	-1.072293
H94	H	0.777513	-0.637085	-1.060870
H95	H	0.828411	-0.643209	-1.118703
H96	H	0.978317	-0.388869	-0.541401
H97	H	0.978313	-0.388790	-0.660108
N98	N	0.822262	-0.653640	-0.936291
H99	H	0.796867	-0.696747	-0.966931
H100	H	0.847743	-0.702911	-0.909157
H101	H	0.548264	-0.388794	-0.229595
H102	H	0.144628	-0.388653	-0.229739
H103	H	0.896424	-0.686239	-0.743182
N104	N	0.822257	-0.653806	-0.668659
H105	H	0.828340	-0.643449	-0.715080
H106	H	0.831983	-0.729831	-0.657237
N107	N	0.915914	-0.312939	-0.734510
H108	H	0.919057	-0.252166	-0.765160
H109	H	0.877740	-0.303084	-0.707331
H110	H	0.465077	-0.496964	-0.199786
N111	N	0.271978	-0.370683	-0.219113
H112	H	0.299076	-0.413870	-0.190024
H113	H	0.299140	-0.321440	-0.244657
N114	N	0.675684	-0.654230	-0.385260
H115	H	0.645037	-0.697406	-0.410610
H116	H	0.702884	-0.610989	-0.414291
H117	H	0.978323	-0.388625	-0.945037
H118	H	0.548321	-0.636159	-0.374740
N119	N	0.988903	-0.370537	-1.072404
H120	H	1.014297	-0.327427	-1.041763
H121	H	1.017890	-0.413828	-1.099584
H122	H	0.346372	-0.496933	-0.199830
N123	N	0.337973	-0.530180	-0.419573
H124	H	0.310858	-0.465353	-0.425547
H125	H	0.368722	-0.535642	-0.455265
N126	N	0.675627	-0.370798	-0.218984
H127	H	0.644964	-0.327598	-0.193655
H128	H	0.702726	-0.414054	-0.189934
N129	N	0.784397	-1.088744	-0.269614
H130	H	0.752781	-1.063068	-0.301214
H131	H	0.785060	-1.168925	-0.269337
