data_functionalizedCrystal
_audit_creation_method	'MofGen! by Chris Wilmer'
_symmetry_space_group_name_H-M	'P1'
_symmetry_Int_Tables_number	1
_symmetry_cell_setting	triclinic
loop_
_symmetry_equiv_pos_as_xyz
  x,y,z
_cell_length_a	13.032831
_cell_length_b	18.101395
_cell_length_c	18.101390
_cell_angle_alpha	89.968753
_cell_angle_beta	82.810808
_cell_angle_gamma	82.835691
loop_
_atom_site_label
_atom_site_type_symbol
_atom_site_fract_x
_atom_site_fract_y
_atom_site_fract_z
Zn1	Zn	1.597513	-0.438785	-0.562261
Zn2	Zn	1.597371	-0.562629	-0.438410
Zn3	Zn	1.422766	-0.423069	-0.422734
Zn4	Zn	1.422692	-0.546833	-0.546517
O5	O	1.510085	-0.492829	-0.492480
O6	O	1.743730	-0.468401	-0.558981
O7	O	1.574181	-0.544150	-0.332695
O8	O	1.446037	-0.321529	-0.441271
O9	O	1.743625	-0.559389	-0.467988
O10	O	1.574423	-0.333075	-0.543781
O11	O	1.445899	-0.441615	-0.321178
O12	O	1.276521	-0.426298	-0.426005
O13	O	1.445911	-0.532466	-0.652241
O14	O	1.276466	-0.517227	-0.516948
O15	O	1.574351	-0.453084	-0.663808
O16	O	1.574109	-0.664158	-0.452722
O17	O	1.445773	-0.652553	-0.532148
C18	C	1.238576	-0.468344	-0.468067
C19	C	1.122423	-0.457887	-0.457641
C20	C	1.070639	-0.498287	-0.497922
C21	C	0.950589	-0.487480	-0.487147
C22	C	1.509946	-0.685227	-0.492446
C23	C	1.509981	-0.767544	-0.492465
C24	C	1.510211	-1.066656	-0.492525
C25	C	1.429653	-1.028076	-0.542657
C26	C	1.429270	-0.942424	-0.542443
C27	C	1.510097	-0.918263	-0.492496
C28	C	1.480285	-0.946733	-0.411768
C29	C	1.479765	-1.032331	-0.412065
C30	C	1.620757	-1.044962	-0.522450
C31	C	1.620107	-0.959252	-0.524104
C32	C	1.510034	-0.834398	-0.492475
C33	C	1.510271	-1.150521	-0.492541
C34	C	1.782655	-0.517410	-0.516989
C35	C	1.898808	-0.527885	-0.527433
C36	C	1.510138	-0.492766	-0.685647
C37	C	1.510161	-0.492740	-0.767963
C38	C	1.510254	-0.299682	-0.492534
C39	C	1.510326	-0.217374	-0.492556
C40	C	1.510198	-0.492720	-0.918675
C41	C	1.591012	-0.442770	-0.957307
C42	C	1.591350	-0.442955	-1.042955
C43	C	1.510235	-0.492699	-1.067061
C44	C	1.539693	-0.573466	-1.038599
C45	C	1.540258	-0.573199	-0.953005
C46	C	1.399731	-0.462563	-0.940308
C47	C	1.400345	-0.460883	-1.026014
C48	C	1.510254	-0.492692	-1.150922
C49	C	1.510182	-0.492732	-0.834814
C50	C	1.510093	-0.492843	-0.300071
C51	C	1.510273	-0.492679	-0.217773
H52	H	0.943345	-0.570473	-0.569904
H53	H	1.448119	-1.050284	-0.602376
H54	H	1.372818	-0.404158	-0.916295
F55	F	1.128854	-0.553956	-0.553423
H56	H	1.378123	-0.401396	-1.044353
H57	H	0.906051	-0.444885	-0.444684
H58	H	1.077881	-0.415295	-0.415181
H59	H	1.619540	-0.598048	-1.067246
F60	F	1.375778	-0.909368	-0.379844
F61	F	1.453646	-0.917081	-0.620277
H62	H	1.348211	-1.042323	-0.522263
H63	H	1.647938	-1.068955	-0.580836
F64	F	1.322167	-0.906074	-0.515514
F65	F	1.374143	-1.049013	-0.380438
H66	H	1.535895	-1.058110	-0.372906
H67	H	1.537114	-0.931487	-0.372964
F68	F	1.699211	-1.078516	-0.474894
F69	F	1.645788	-0.605044	-0.936382
H70	H	1.642589	-0.940911	-0.583563
H71	H	1.683302	-0.943538	-0.491042
H72	H	1.336955	-0.493789	-1.041686
H73	H	1.572946	-0.383387	-1.062337
F74	F	1.321033	-0.509944	-0.906705
F75	F	1.698350	-0.470108	-1.079362
H76	H	1.572830	-0.383044	-0.935099
F77	F	1.697400	-0.469654	-0.938755
H78	H	1.483911	-0.612217	-0.927187
F79	F	1.465130	-0.624000	-1.058474
