data_functionalizedCrystal
_audit_creation_method	'MofGen! by Chris Wilmer'
_symmetry_space_group_name_H-M	'P1'
_symmetry_Int_Tables_number	1
_symmetry_cell_setting	triclinic
loop_
_symmetry_equiv_pos_as_xyz
  x,y,z
_cell_length_a	12.759395
_cell_length_b	18.101395
_cell_length_c	18.101389
_cell_angle_alpha	89.979213
_cell_angle_beta	89.985336
_cell_angle_gamma	90.032641
loop_
_atom_site_label
_atom_site_type_symbol
_atom_site_fract_x
_atom_site_fract_y
_atom_site_fract_z
Zn1	Zn	1.606088	-0.294848	-0.418694
Zn2	Zn	1.605947	-0.418682	-0.294856
Zn3	Zn	1.430404	-0.294862	-0.294872
Zn4	Zn	1.430329	-0.418656	-0.418662
O5	O	1.518192	-0.356762	-0.356771
O6	O	1.753091	-0.311280	-0.402274
O7	O	1.582633	-0.402275	-0.191226
O8	O	1.453800	-0.191228	-0.311318
O9	O	1.752986	-0.402261	-0.311291
O10	O	1.582875	-0.191217	-0.402290
O11	O	1.453663	-0.311305	-0.191237
O12	O	1.283373	-0.311279	-0.311286
O13	O	1.453671	-0.402215	-0.522299
O14	O	1.283318	-0.402229	-0.402234
O15	O	1.582801	-0.311254	-0.522323
O16	O	1.582559	-0.522312	-0.311259
O17	O	1.453534	-0.522292	-0.402218
C18	C	1.245224	-0.356753	-0.356758
C19	C	1.128448	-0.356767	-0.356771
C20	C	1.128428	-0.451627	-0.451321
C21	C	1.073558	-0.499062	-0.498598
C22	C	0.963836	-0.499071	-0.498607
C23	C	0.908983	-0.451638	-0.451336
C24	C	0.963853	-0.404202	-0.404058
C25	C	1.073577	-0.404200	-0.404053
C26	C	0.963873	-0.309340	-0.309513
C27	C	1.073594	-0.309334	-0.309499
C28	C	0.909019	-0.261907	-0.262241
C29	C	0.963890	-0.214474	-0.214959
C30	C	1.073618	-0.214467	-0.214951
C31	C	1.128465	-0.261898	-0.262221
C32	C	1.518051	-0.549173	-0.356749
C33	C	1.518087	-0.631487	-0.356765
C34	C	1.518318	-0.930578	-0.356805
C35	C	1.437327	-0.899271	-0.414176
C36	C	1.436942	-0.813653	-0.413996
C37	C	1.518203	-0.782195	-0.356786
C38	C	1.488232	-0.813338	-0.278737
C39	C	1.487710	-0.898983	-0.279080
C40	C	1.629458	-0.898922	-0.376795
C41	C	1.628804	-0.813271	-0.378507
C42	C	1.518141	-0.698336	-0.356770
C43	C	1.518378	-1.014437	-0.356815
C44	C	1.792225	-0.356772	-0.356784
C45	C	1.909002	-0.356776	-0.356790
C46	C	1.518243	-0.356730	-0.549933
C47	C	1.518265	-0.356716	-0.632247
C48	C	1.518362	-0.163600	-0.356809
C49	C	1.518434	-0.081286	-0.356825
C50	C	1.518305	-0.356659	-0.782956
C51	C	1.437073	-0.413877	-0.814294
C52	C	1.436777	-0.413676	-0.899913
C53	C	1.518343	-0.356603	-0.931338
C54	C	1.488712	-0.278509	-0.900255
C55	C	1.488100	-0.278872	-0.814610
C56	C	1.629382	-0.376840	-0.814521
C57	C	1.628808	-0.378530	-0.900171
C58	C	1.518367	-0.356567	-1.015198
C59	C	1.518278	-0.356690	-0.699096
C60	C	1.518201	-0.356741	-0.164361
C61	C	1.518383	-0.356546	-0.082047
H62	H	1.217806	-0.261900	-0.262218
H63	H	1.406467	-0.919026	-0.262146
H64	H	1.118287	-0.175834	-0.176457
H65	H	1.217769	-0.451630	-0.451313
Br66	Br	1.148005	-0.563437	-0.562746
H67	H	0.819641	-0.451643	-0.451354
Br68	Br	1.582461	-0.205372	-0.780051
Br69	Br	1.675006	-0.934845	-0.470037
Br70	Br	1.299601	-0.391386	-0.934071
Br71	Br	1.730252	-0.307385	-0.780739
H72	H	0.819678	-0.261914	-0.262255
H73	H	0.919219	-0.175854	-0.176478
Br74	Br	1.583458	-0.779381	-0.205544
Br75	Br	1.730037	-0.932677	-0.307163
Br76	Br	0.889364	-0.563442	-0.562776
H77	H	1.546077	-0.234695	-0.920610
H78	H	1.651158	-0.436004	-0.920485
Br79	Br	1.468192	-0.778551	-0.510455
Br80	Br	1.666481	-0.779344	-0.474245
H81	H	1.656419	-0.432837	-0.792920
Br82	Br	1.735055	-0.314144	-0.935826
H83	H	1.354562	-0.793230	-0.400755
Br84	Br	1.734708	-0.777566	-0.313943
Br85	Br	1.468262	-0.933530	-0.510950
H86	H	1.355448	-0.920858	-0.401101
Br87	Br	1.581753	-0.933508	-0.205401
H88	H	1.407850	-0.791953	-0.261499
H89	H	1.455274	-0.471577	-0.920929
H90	H	1.455340	-0.471975	-0.793699
H91	H	1.406918	-0.261796	-0.794635
Br92	Br	1.300665	-0.391852	-0.778433
H93	H	1.408433	-0.261123	-0.921706
