data_functionalizedCrystal
_audit_creation_method	'MofGen! by Chris Wilmer'
_symmetry_space_group_name_H-M	'P1'
_symmetry_Int_Tables_number	1
_symmetry_cell_setting	triclinic
loop_
_symmetry_equiv_pos_as_xyz
  x,y,z
_cell_length_a	10.723023
_cell_length_b	17.038274
_cell_length_c	9.798715
_cell_angle_alpha	90.011213
_cell_angle_beta	89.996770
_cell_angle_gamma	92.210333
loop_
_atom_site_label
_atom_site_type_symbol
_atom_site_fract_x
_atom_site_fract_y
_atom_site_fract_z
O1	O	1.667337	-0.109717	-0.113505
O2	O	2.167337	0.390283	0.386495
O3	O	1.305156	-0.120220	-0.113513
O4	O	1.805156	0.379780	0.386487
O5	O	1.484094	-0.001141	-0.113471
O6	O	1.984094	0.498859	0.386529
O7	O	1.488400	-0.228796	-0.113547
O8	O	1.988400	0.271204	0.386453
O9	O	1.484080	-0.001141	0.113511
O10	O	1.984080	0.498859	0.613511
O11	O	1.305142	-0.120220	0.113469
O12	O	1.805142	0.379780	0.613469
O13	O	1.667323	-0.109717	0.113478
O14	O	2.167323	0.390283	0.613478
Zn15	Zn	1.486230	-0.114968	0.149512
Zn16	Zn	1.986230	0.385032	0.649512
Zn17	Zn	1.486249	-0.114969	-0.149547
Zn18	Zn	1.986249	0.385031	0.350453
O19	O	1.488385	-0.228796	0.113436
O20	O	1.988385	0.271204	0.613436
C21	C	1.258579	-0.119456	-0.000022
C22	C	1.758579	0.380544	0.499978
C23	C	1.119813	-0.117169	-0.000024
C24	C	1.619813	0.382831	0.499976
C25	C	1.057939	-0.116150	0.117559
C26	C	1.557939	0.383850	0.617559
C27	C	0.914518	-0.113787	0.117560
C28	C	1.414518	0.386213	0.617560
C29	C	1.480171	0.028009	0.000027
C30	C	1.980171	0.528009	0.500027
C31	C	1.468489	0.114866	0.000047
C32	C	1.968489	0.614866	0.500047
C33	C	1.575744	0.164388	0.000061
C34	C	2.075744	0.664388	0.500061
C35	C	1.564760	0.245999	0.000068
C36	C	2.064760	0.745999	0.500068
C37	C	1.446519	0.278087	0.000069
C38	C	1.946519	0.778087	0.500069
C39	C	1.339256	0.228559	0.000050
C40	C	1.839256	0.728559	0.500050
C41	C	1.350241	0.146949	0.000034
C42	C	1.850241	0.646949	0.500034
C43	C	1.407710	0.524059	0.000108
C44	C	1.907710	1.024059	0.500108
C45	C	1.396732	0.605675	0.000128
C46	C	1.896732	1.105675	0.500128
C47	C	1.622237	0.623109	0.000143
C48	C	2.122237	1.123109	0.500143
C49	C	1.633213	0.541497	0.000135
C50	C	2.133213	1.041497	0.500135
C51	C	1.525949	0.491977	0.000109
C52	C	2.025949	0.991977	0.500109
C53	C	1.435288	0.361507	0.000079
C54	C	1.935288	0.861507	0.500079
C55	C	1.537181	0.408559	0.000089
C56	C	2.037181	0.908559	0.500089
C57	C	1.713900	-0.110481	-0.000016
C58	C	2.213900	0.389519	0.499984
C59	C	1.852666	-0.112768	-0.000024
C60	C	2.352666	0.387232	0.499976
N61	N	1.486227	-0.114968	0.353611
N62	N	1.986227	0.385032	0.853611
C63	C	1.492307	0.742054	-0.000006
C64	C	1.992307	1.242054	0.499994
C65	C	1.503987	0.655197	0.000142
C66	C	2.003987	1.155197	0.500142
N67	N	1.486262	-0.114963	-0.353647
N68	N	1.986262	0.385037	0.146353
C69	C	1.561337	-0.064749	0.421406
C70	C	2.061337	0.435251	0.921406
C71	C	1.561357	-0.064747	0.578569
C72	C	2.061357	0.435253	1.078569
H73	H	0.861307	-0.112914	0.218227
H74	H	1.361307	0.387086	0.718227
H75	H	1.625667	-0.021756	0.636869
H76	H	2.125667	0.478244	1.136869
H77	H	1.339016	0.387642	0.000083
H78	H	1.839016	0.887642	0.500083
O79	O	0.923134	-0.113931	-0.133380
O80	O	1.423134	0.386069	0.366620
H81	H	0.856001	-0.112831	-0.219511
H82	H	1.356001	0.387169	0.280489
H83	H	1.625624	-0.021754	0.363098
H84	H	2.125624	0.478246	0.863098
O85	O	1.401082	-0.171935	0.430827
O86	O	1.901082	0.328065	0.930827
H87	H	1.302606	-0.161609	0.403518
H88	H	1.802606	0.338391	0.903518
O89	O	1.401060	-0.171907	0.569137
O90	O	1.901060	0.328093	1.069137
H91	H	1.457860	-0.210089	0.503996
H92	H	1.957860	0.289911	1.003996
O93	O	1.760753	0.506901	0.000122
O94	O	2.260753	1.006901	0.500122
H95	H	1.771157	0.470147	0.092635
H96	H	2.271157	0.970147	0.592635
O97	O	1.234558	0.093534	0.000020
O98	O	1.734558	0.593534	0.500020
H99	H	1.234168	0.055934	0.092520
H100	H	1.734168	0.555934	0.592520
O101	O	1.049360	-0.115992	-0.133383
O102	O	1.549360	0.384008	0.366617
H103	H	1.068853	-0.169622	-0.192786
H104	H	1.568853	0.330378	0.307214
H105	H	1.652099	0.286316	0.000083
H106	H	2.152099	0.786316	0.500083
O107	O	1.128399	-0.117316	0.250915
O108	O	1.628399	0.382684	0.750915
H109	H	1.229990	-0.118997	0.229987
H110	H	1.729990	0.381003	0.729987
O111	O	1.703276	0.129779	0.000047
O112	O	2.203276	0.629779	0.500047
H113	H	1.776010	0.177928	0.000041
H114	H	2.276010	0.677928	0.500041
H115	H	1.709565	0.663437	0.000162
H116	H	2.209565	1.163437	0.500162
O117	O	1.269196	0.640290	0.000113
O118	O	1.769196	1.140290	0.500113
H119	H	1.196453	0.592145	0.000077
H120	H	1.696453	1.092145	0.500077
H121	H	1.633452	0.382429	0.000058
H122	H	2.133452	0.882429	0.500058
O123	O	1.292025	0.470652	0.000114
O124	O	1.792025	0.970652	0.500114
H125	H	1.207963	0.506678	0.000142
H126	H	1.707963	1.006678	0.500142
O127	O	1.211720	0.263162	0.000065
O128	O	1.711720	0.763162	0.500065
H129	H	1.222097	0.328230	0.000099
H130	H	1.722097	0.828230	0.500099
