data_functionalizedCrystal
_audit_creation_method	'MofGen! by Chris Wilmer'
_symmetry_space_group_name_H-M	'P1'
_symmetry_Int_Tables_number	1
_symmetry_cell_setting	triclinic
loop_
_symmetry_equiv_pos_as_xyz
  x,y,z
_cell_length_a	14.971486
_cell_length_b	14.519709
_cell_length_c	13.448316
_cell_angle_alpha	89.992453
_cell_angle_beta	89.998199
_cell_angle_gamma	83.647137
loop_
_atom_site_label
_atom_site_type_symbol
_atom_site_fract_x
_atom_site_fract_y
_atom_site_fract_z
O1	O	1.187015	0.120184	-0.082580
O2	O	1.520348	0.453517	0.250754
O3	O	1.853682	0.786851	0.584087
O4	O	0.926623	0.134576	-0.082607
O5	O	1.259956	0.467909	0.250726
O6	O	1.593290	0.801243	0.584060
O7	O	1.063723	-0.006863	-0.082584
O8	O	1.397056	0.326471	0.250750
O9	O	1.730390	0.659804	0.584083
O10	O	1.049915	0.261623	-0.082603
O11	O	1.383248	0.594956	0.250730
O12	O	1.716582	0.928289	0.584064
O13	O	1.063706	-0.006871	0.082800
O14	O	1.397039	0.326462	0.416133
O15	O	1.730372	0.659795	0.749467
O16	O	0.926606	0.134567	0.082777
O17	O	1.259939	0.467901	0.416110
O18	O	1.593272	0.801234	0.749443
O19	O	1.186998	0.120175	0.082804
O20	O	1.520331	0.453509	0.416137
O21	O	1.853664	0.786842	0.749471
Cu22	Cu	1.056800	0.127371	0.097891
Cu23	Cu	1.390133	0.460704	0.431225
Cu24	Cu	1.723467	0.794037	0.764558
Cu25	Cu	1.056820	0.127381	-0.097694
Cu26	Cu	1.390154	0.460714	0.235639
Cu27	Cu	1.723487	0.794047	0.568972
O28	O	1.049898	0.261614	0.082781
O29	O	1.383231	0.594947	0.416114
O30	O	1.716564	0.928281	0.749447
C31	C	0.893289	0.133928	0.000082
C32	C	1.226623	0.467261	0.333415
C33	C	1.559956	0.800595	0.666748
C34	C	0.793991	0.131999	0.000071
C35	C	1.127324	0.465333	0.333405
C36	C	1.460658	0.798666	0.666738
C37	C	0.736812	0.215091	0.000067
C38	C	1.070146	0.548424	0.333400
C39	C	1.403479	0.881757	0.666733
C40	C	0.643512	0.213273	0.000082
C41	C	0.976845	0.546606	0.333415
C42	C	1.310179	0.879940	0.666748
C43	C	0.607392	0.128363	0.000094
C44	C	0.940725	0.461696	0.333428
C45	C	1.274059	0.795029	0.666761
C46	C	0.664578	0.045265	0.000102
C47	C	0.997911	0.378598	0.333435
C48	C	1.331244	0.711932	0.666768
C49	C	0.757876	0.047084	0.000094
C50	C	1.091210	0.380417	0.333427
C51	C	1.424543	0.713750	0.666761
C52	C	0.470113	0.041480	0.000116
C53	C	0.803447	0.374813	0.333449
C54	C	1.136780	0.708147	0.666782
C55	C	0.376808	0.039661	0.000122
C56	C	0.710141	0.372994	0.333455
C57	C	1.043475	0.706327	0.666788
C58	C	0.355749	0.207669	0.000104
C59	C	0.689082	0.541002	0.333437
C60	C	1.022415	0.874336	0.666770
C61	C	0.449047	0.209488	0.000096
C62	C	0.782381	0.542821	0.333429
C63	C	1.115714	0.876155	0.666762
C64	C	0.506227	0.126390	0.000101
C65	C	0.839560	0.459723	0.333435
C66	C	1.172894	0.793056	0.666768
C67	C	1.063071	-0.041226	0.000108
C68	C	1.396404	0.292107	0.333442
C69	C	1.729737	0.625440	0.666775
C70	C	1.061142	-0.143606	0.000109
C71	C	1.394476	0.189727	0.333442
C72	C	1.727809	0.523060	0.666775
C73	C	1.054043	-0.518498	0.000082
C74	C	1.387377	-0.185165	0.333415
C75	C	1.720710	0.148169	0.666749
C76	C	1.056015	-0.414191	0.000090
C77	C	1.389348	-0.080858	0.333423
C78	C	1.722681	0.252475	0.666757
C79	C	1.057593	-0.331055	0.000096
C80	C	1.390926	0.002278	0.333430
C81	C	1.724259	0.335611	0.666763
C82	C	1.059564	-0.226742	0.000102
C83	C	1.392898	0.106591	0.333436
C84	C	1.726231	0.439925	0.666769
C85	C	1.220331	0.120823	0.000113
C86	C	1.553665	0.454157	0.333447
C87	C	1.886998	0.787490	0.666780
C88	C	1.319630	0.122752	0.000117
C89	C	1.652963	0.456085	0.333450
C90	C	1.986296	0.789419	0.666784
C91	C	1.050550	0.295978	0.000087
C92	C	1.383883	0.629311	0.333420
C93	C	1.717217	0.962644	0.666753
C94	C	1.052478	0.398358	0.000080
C95	C	1.385812	0.731691	0.333413
C96	C	1.719145	1.065024	0.666746
N97	N	1.056792	0.127363	0.235456
N98	N	1.390126	0.460696	0.568789
N99	N	1.723459	0.794029	0.902122
N100	N	1.056835	0.127381	-0.235258
N101	N	1.390169	0.460715	0.098075
N102	N	1.723502	0.794048	0.431408
C103	C	1.117519	0.064759	0.287506
C104	C	1.450852	0.398093	0.620840
C105	C	1.784186	0.731426	0.954173
C106	C	1.117525	0.064759	0.391610
C107	C	1.450858	0.398092	0.724943
C108	C	1.784191	0.731425	1.058276
C109	C	1.056807	0.127366	0.443660
C110	C	1.390140	0.460700	0.776994
C111	C	1.723474	0.794033	1.110327
C112	C	0.996074	0.189973	0.391602
C113	C	1.329407	0.523306	0.724936
C114	C	1.662740	0.856639	1.058269
C115	C	0.996065	0.189968	0.287501
C116	C	1.329398	0.523302	0.620834
C117	C	1.662731	0.856635	0.954168
C118	C	0.996099	0.189979	0.608582
C119	C	1.329432	0.523312	0.941916
C120	C	1.662765	0.856645	1.275249
C121	C	0.996109	0.189985	0.712691
C122	C	1.329442	0.523318	1.046024
C123	C	1.662775	0.856651	1.379357
C124	C	1.117559	0.064769	0.712691
C125	C	1.450892	0.398103	1.046024
C126	C	1.784225	0.731436	1.379358
C127	C	1.117549	0.064765	0.608590
C128	C	1.450883	0.398098	0.941923
C129	C	1.784216	0.731432	1.275256
C130	C	1.056817	0.127373	0.556539
C131	C	1.390150	0.460706	0.889872
C132	C	1.723484	0.794039	1.223206
H133	H	0.766213	0.284234	0.000056
H134	H	1.099547	0.617568	0.333389
H135	H	1.432880	0.950901	0.666723
H136	H	0.946614	0.240945	0.245122
H137	H	1.279947	0.574278	0.578455
H138	H	1.613280	0.907612	0.911789
H139	H	0.596960	0.280934	0.000077
H140	H	0.930294	0.614268	0.333410
H141	H	1.263627	0.947601	0.666744
H142	H	0.478453	0.278629	0.000076
H143	H	0.811786	0.611962	0.333409
H144	H	1.145120	0.945296	0.666743
F145	F	0.294893	0.296109	0.000099
F146	F	0.628227	0.629442	0.333433
F147	F	0.961560	0.962776	0.666766
F148	F	0.530966	-0.046963	0.000125
F149	F	0.864300	0.286370	0.333458
F150	F	1.197633	0.619703	0.666792
H151	H	0.804431	-0.020578	0.000097
H152	H	1.137765	0.312755	0.333430
H153	H	1.471098	0.646089	0.666764
F154	F	0.338369	-0.050710	0.000161
F155	F	0.671702	0.282623	0.333494
F156	F	1.005035	0.615957	0.666827
H157	H	0.946632	0.240946	0.433988
H158	H	1.279965	0.574279	0.767321
H159	H	1.613299	0.907613	1.100655
H160	H	1.166972	0.013782	0.433989
H161	H	1.500306	0.347115	0.767322
H162	H	1.833639	0.680448	1.100655
H163	H	0.635162	-0.023871	0.000126
H164	H	0.968495	0.309463	0.333459
H165	H	1.301828	0.642796	0.666793
H166	H	1.166966	0.013781	0.245134
H167	H	1.500299	0.347114	0.578467
H168	H	1.833633	0.680448	0.911800
F169	F	1.182176	-0.001863	0.553193
F170	F	1.515509	0.331471	0.886526
F171	F	1.848843	0.664804	1.219860
F172	F	1.182195	-0.001861	0.768091
F173	F	1.515528	0.331473	1.101425
F174	F	1.848861	0.664806	1.434758
F175	F	0.931483	0.256619	0.768080
F176	F	1.264816	0.589953	1.101413
F177	F	1.598150	0.923286	1.434746
H178	H	0.946641	0.240958	0.566206
H179	H	1.279974	0.574291	0.899539
H180	H	1.613307	0.907624	1.232873
