data_functionalizedCrystal
_audit_creation_method	'MofGen! by Chris Wilmer'
_symmetry_space_group_name_H-M	'P1'
_symmetry_Int_Tables_number	1
_symmetry_cell_setting	triclinic
loop_
_symmetry_equiv_pos_as_xyz
  x,y,z
_cell_length_a	13.032831
_cell_length_b	16.959454
_cell_length_c	13.032268
_cell_angle_alpha	97.150351
_cell_angle_beta	90.886977
_cell_angle_gamma	82.825094
loop_
_atom_site_label
_atom_site_type_symbol
_atom_site_fract_x
_atom_site_fract_y
_atom_site_fract_z
Zn1	Zn	1.498450	-0.533808	-0.780847
Zn2	Zn	1.520186	-0.651576	-0.608869
Zn3	Zn	1.348310	-0.500789	-0.587087
Zn4	Zn	1.326434	-0.647302	-0.758994
O5	O	1.423345	-0.583369	-0.683949
O6	O	1.645253	-0.565038	-0.776295
O7	O	1.515638	-0.619543	-0.462063
O8	O	1.368285	-0.394566	-0.612819
O9	O	1.661222	-0.651561	-0.649944
O10	O	1.478592	-0.418826	-0.755173
O11	O	1.389361	-0.508760	-0.446059
O12	O	1.201488	-0.504616	-0.591629
O13	O	1.331000	-0.644277	-0.905810
O14	O	1.185416	-0.612259	-0.717929
O15	O	1.457380	-0.560894	-0.921865
O16	O	1.494425	-0.761611	-0.628754
O17	O	1.352077	-0.758471	-0.739051
C18	C	1.156135	-0.554392	-0.650045
C19	C	1.041819	-0.542016	-0.635565
C20	C	0.982940	-0.589828	-0.691506
C21	C	0.864788	-0.577038	-0.676542
C22	C	1.423261	-0.788724	-0.683921
C23	C	1.423315	-0.876589	-0.683955
C24	C	1.349320	-1.246472	-0.741386
C25	C	1.497643	-1.249702	-0.626654
C26	C	1.497608	-1.167152	-0.626640
C27	C	1.423427	-1.124257	-0.683998
C28	C	1.349281	-1.163913	-0.741371
C29	C	1.571746	-1.127488	-0.569260
C30	C	1.571713	-1.044932	-0.569243
C31	C	1.497536	-1.002037	-0.626608
C32	C	1.423388	-1.041698	-0.683984
C33	C	1.349208	-0.998804	-0.741342
C34	C	1.275063	-1.038465	-0.798724
C35	C	1.275104	-1.121018	-0.798736
C36	C	1.497495	-0.919484	-0.626597
C37	C	1.349169	-0.916245	-0.741327
C38	C	1.691598	-0.612460	-0.717986
C39	C	1.805911	-0.624856	-0.732491
C40	C	1.389325	-0.605792	-0.952197
C41	C	1.374828	-0.615348	-1.066508
C42	C	1.423454	-0.377216	-0.684004
C43	C	1.423501	-0.289366	-0.684027
C44	C	1.430895	-0.578351	-1.125415
C45	C	1.415913	-0.588227	-1.243562
C46	C	1.457291	-0.560982	-0.416753
C47	C	1.471987	-0.551225	-0.302467
H48	H	1.004755	-0.491612	-0.576597
H49	H	0.842968	-0.675257	-0.791474
C50	C	1.485253	-0.447188	-1.098517
C51	C	1.510669	-0.525721	-1.075427
H52	H	1.534501	-0.414697	-1.067651
H53	H	1.485660	-0.446924	-1.171348
H54	H	1.418365	-0.426680	-1.072194
H55	H	1.577555	-0.546232	-1.101756
H56	H	1.510273	-0.525989	-1.002581
H57	H	1.356810	-0.627208	-1.280591
C58	C	1.208969	-0.809673	-0.737939
C59	C	1.267627	-0.869098	-0.804380
H60	H	1.158635	-0.780564	-0.776869
H61	H	1.175368	-0.833904	-0.688131
H62	H	1.253126	-0.774240	-0.703771
H63	H	1.223472	-0.904533	-0.838543
H64	H	1.301230	-0.844866	-0.854207
C65	C	1.243087	-0.955601	-0.935197
C66	C	1.193527	-0.991309	-0.861774
H67	H	1.192750	-0.926491	-0.974123
H68	H	1.287228	-0.920174	-0.901015
H69	H	1.282882	-0.995925	-0.980260
H70	H	1.153738	-0.950985	-0.816706
H71	H	1.149368	-1.026739	-0.895958
C72	C	1.526333	-0.420057	-1.275606
C73	C	1.551764	-0.498584	-1.252500
H74	H	1.575580	-0.387557	-1.244756
H75	H	1.526729	-0.419802	-1.348439
H76	H	1.459447	-0.399550	-1.249278
H77	H	1.618648	-0.519093	-1.278835
H78	H	1.551379	-0.498842	-1.179652
C79	C	1.569785	-0.884959	-0.458856
C80	C	1.578983	-0.875888	-0.563525
H81	H	1.620100	-0.858048	-0.419919
H82	H	1.502610	-0.862717	-0.434997
H83	H	1.580424	-0.940266	-0.450666
H84	H	1.568336	-0.820580	-0.571715
H85	H	1.646173	-0.898126	-0.587391
H86	H	1.214739	-1.153317	-0.845452
C87	C	1.320471	-0.746510	-1.093388
C88	C	1.295052	-0.667980	-1.116487
H89	H	1.271214	-0.779002	-1.124236
H90	H	1.387346	-0.767021	-1.119715
H91	H	1.320074	-0.746767	-1.020546
H92	H	1.295456	-0.667722	-1.189329
H93	H	1.228159	-0.647464	-1.090166
C94	C	1.283513	-1.371581	-0.792361
C95	C	1.267820	-1.290062	-0.804454
H96	H	1.233192	-1.398489	-0.831292
H97	H	1.350683	-1.393815	-0.816241
H98	H	1.277289	-1.377724	-0.721346
H99	H	1.274052	-1.283919	-0.875469
H100	H	1.200633	-1.267821	-0.780579
C101	C	1.563497	-1.377672	-0.575662
C102	C	1.579140	-1.296841	-0.563557
H103	H	1.613806	-1.406773	-0.536697
H104	H	1.496318	-1.382468	-0.551827
H105	H	1.569776	-1.398598	-0.646673
H106	H	1.572853	-1.275914	-0.492547
H107	H	1.646335	-1.292041	-0.587387
H108	H	1.020003	-0.640227	-0.750482
H109	H	1.632086	-1.012646	-0.522521
C110	C	0.707409	-0.509508	-0.597488
C111	C	0.814771	-0.509002	-0.596909
H112	H	0.676533	-0.467511	-0.548318
H113	H	0.681106	-0.501902	-0.664396
H114	H	0.691775	-0.559451	-0.580125
H115	H	0.830405	-0.459060	-0.614280
H116	H	0.841083	-0.516602	-0.529987
H117	H	1.632133	-1.162417	-0.522554
