data_functionalizedCrystal
_audit_creation_method	'MofGen! by Chris Wilmer'
_symmetry_space_group_name_H-M	'P1'
_symmetry_Int_Tables_number	1
_symmetry_cell_setting	triclinic
loop_
_symmetry_equiv_pos_as_xyz
  x,y,z
_cell_length_a	10.540495
_cell_length_b	17.766277
_cell_length_c	19.288865
_cell_angle_alpha	90.011603
_cell_angle_beta	83.821877
_cell_angle_gamma	90.010934
loop_
_atom_site_label
_atom_site_type_symbol
_atom_site_fract_x
_atom_site_fract_y
_atom_site_fract_z
O1	O	-1.683750	-0.062632	-0.097738
O2	O	-1.183750	0.437368	0.402262
O3	O	-1.314124	-0.062628	-0.106993
O4	O	-0.814124	0.437372	0.393007
O5	O	-1.509617	-0.062615	-0.001305
O6	O	-1.009617	0.437385	0.498695
O7	O	-1.488257	-0.062645	-0.203425
O8	O	-0.988257	0.437355	0.296575
O9	O	-1.509583	0.062573	-0.001300
O10	O	-1.009583	0.562573	0.498700
O11	O	-1.314090	0.062560	-0.106987
O12	O	-0.814090	0.562560	0.393013
O13	O	-1.683716	0.062556	-0.097733
O14	O	-1.183716	0.562556	0.402267
Cu15	Cu	-1.498900	0.073989	-0.102359
Cu16	Cu	-0.998900	0.573989	0.397641
Cu17	Cu	-1.498940	-0.074061	-0.102366
Cu18	Cu	-0.998940	0.425939	0.397634
O19	O	-1.488222	0.062544	-0.203420
O20	O	-0.988222	0.562544	0.296580
C21	C	-1.266818	-0.000033	-0.106302
C22	C	-0.766818	0.499967	0.393698
C23	C	-1.125913	-0.000031	-0.104245
C24	C	-0.625913	0.499969	0.395755
C25	C	-1.508913	-0.000019	0.024578
C26	C	-1.008913	0.499981	0.524578
C27	C	-1.506850	-0.000012	0.101696
C28	C	-1.006850	0.499988	0.601696
C29	C	-1.053522	-0.000043	-0.179829
C30	C	-0.553522	0.499957	0.320171
C31	C	-0.906955	-0.000329	-0.177714
C32	C	-0.406955	0.499671	0.322286
C33	C	-0.934509	-0.071377	-0.063151
C34	C	-0.434509	0.428623	0.436849
C35	C	-1.080991	-0.071435	-0.065801
C36	C	-0.580991	0.428565	0.434199
C37	C	-1.081380	0.070933	-0.064676
C38	C	-0.581380	0.570933	0.435324
C39	C	-0.934415	0.071868	-0.063952
C40	C	-0.434415	0.571868	0.436048
C41	C	-0.731019	-0.000037	-0.098432
C42	C	-0.231019	0.499963	0.401568
C43	C	-0.871918	-0.000036	-0.100517
C44	C	-0.371918	0.499964	0.399483
N45	N	-1.498969	-0.178191	-0.102366
N46	N	-0.998969	0.321809	0.397634
N47	N	-1.498880	0.178119	-0.102354
N48	N	-0.998880	0.678119	0.397646
C49	C	-1.585473	0.217512	-0.055579
C50	C	-1.085473	0.717512	0.444421
C51	C	-1.585480	0.296314	-0.055576
C52	C	-1.085480	0.796314	0.444424
C53	C	-1.498907	0.335720	-0.102360
C54	C	-0.998907	0.835720	0.397640
C55	C	-1.412298	0.296318	-0.149138
C56	C	-0.912298	0.796318	0.350862
C57	C	-1.412285	0.217518	-0.149135
C58	C	-0.912285	0.717518	0.350865
C59	C	-1.481914	0.460549	-0.165536
C60	C	-0.981914	0.960549	0.334464
C61	C	-1.481936	0.539348	-0.165539
C62	C	-0.981936	1.039348	0.334461
C63	C	-1.498941	0.578766	-0.102368
C64	C	-0.998941	1.078766	0.397632
C65	C	-1.515951	0.539376	-0.039191
C66	C	-1.015951	1.039376	0.460809
C67	C	-1.515937	0.460576	-0.039188
C68	C	-1.015937	0.960576	0.460812
C69	C	-1.498911	0.421166	-0.102368
C70	C	-0.998911	0.921166	0.397632
C71	C	-1.585546	0.703605	-0.055586
C72	C	-1.085546	1.203605	0.444414
C73	C	-1.585545	0.782408	-0.055582
C74	C	-1.085545	1.282408	0.444418
C75	C	-1.412369	0.782411	-0.149150
C76	C	-0.912369	1.282411	0.350850
C77	C	-1.412364	0.703609	-0.149148
C78	C	-0.912364	1.203609	0.350852
C79	C	-1.498960	0.664211	-0.102367
C80	C	-0.998960	1.164211	0.397633
C81	C	-1.488927	-0.000055	-0.229304
C82	C	-0.988927	0.499945	0.270696
C83	C	-1.490990	-0.000066	-0.306421
C84	C	-0.990990	0.499934	0.193579
C85	C	-1.621557	-0.000010	0.145636
C86	C	-1.121557	0.499990	0.645636
C87	C	-1.619618	-0.000022	0.218096
C88	C	-1.119618	0.499978	0.718096
C89	C	-1.502966	-0.000021	0.246612
C90	C	-1.002966	0.499979	0.746612
C91	C	-1.388245	-0.000028	0.202661
C92	C	-0.888245	0.499972	0.702661
C93	C	-1.390186	-0.000023	0.130203
C94	C	-0.890186	0.499977	0.630203
C95	C	-1.411253	0.043831	0.355505
C96	C	-0.911253	0.543831	0.855505
C97	C	-1.409316	0.043831	0.427963
C98	C	-0.909316	0.543831	0.927963
C99	C	-1.496973	-0.000038	0.470097
C100	C	-0.996973	0.499962	0.970097
C101	C	-1.586589	-0.043897	0.439767
C102	C	-1.086589	0.456103	0.939767
C103	C	-1.588530	-0.043893	0.367309
C104	C	-1.088530	0.456107	0.867309
C105	C	-1.500848	-0.000026	0.325180
C106	C	-1.000848	0.499974	0.825180
C107	C	-1.609586	-0.000049	0.592608
C108	C	-1.109586	0.499951	1.092608
C109	C	-1.607643	-0.000066	0.665069
C110	C	-1.107643	0.499934	1.165069
C111	C	-1.376266	-0.000064	0.649632
C112	C	-0.876266	0.499936	1.149632
C113	C	-1.378212	-0.000055	0.577173
C114	C	-0.878212	0.499945	1.077173
C115	C	-1.494876	-0.000044	0.548665
C116	C	-0.994876	0.499956	1.048665
H117	H	-0.863622	0.050799	-0.207104
H118	H	-0.363622	0.550799	0.292896
N119	N	-1.318981	0.824901	-0.199606
N120	N	-0.818981	1.324901	0.300394
H121	H	-1.332125	0.880799	-0.192510
H122	H	-0.832125	1.380799	0.307490
H123	H	-1.333352	0.811113	-0.248957
H124	H	-0.833352	1.311113	0.251043
N125	N	-1.145632	0.071873	0.009168
N126	N	-0.645632	0.571873	0.509168
H127	H	-1.078727	0.070330	0.042897
H128	H	-0.578727	0.570330	0.542897
H129	H	-1.203316	0.026575	0.016923
H130	H	-0.703316	0.526575	0.516923
H131	H	-1.281286	-0.000067	0.672849
H132	H	-0.781286	0.499933	1.172849
H133	H	-0.864585	-0.051778	-0.206983
H134	H	-0.364585	0.448222	0.293017
N135	N	-1.318967	0.661115	-0.199598
N136	N	-0.818967	1.161115	0.300402
H137	H	-1.264121	0.698034	-0.229236
H138	H	-0.764121	1.198034	0.270764
H139	H	-1.367370	0.628401	-0.230557
H140	H	-0.867370	1.128401	0.269443
H141	H	-1.713029	-0.000023	0.253880
H142	H	-1.213029	0.499977	0.753880
H143	H	-1.130235	-0.074474	-0.010280
H144	H	-0.630235	0.425526	0.489720
H145	H	-1.108622	-0.124975	-0.093094
H146	H	-0.608622	0.375025	0.406906
N147	N	-1.463579	0.581828	-0.233677
N148	N	-0.963579	1.081828	0.266323
H149	H	-1.540648	0.614506	-0.238210
H150	H	-1.040648	1.114506	0.261790
H151	H	-1.452750	0.544852	-0.273652
H152	H	-0.952750	1.044852	0.226348
N153	N	-0.879304	0.141771	-0.100146
N154	N	-0.379304	0.641771	0.399854
H155	H	-0.784095	0.143209	-0.097714
H156	H	-0.284095	0.643209	0.402286
H157	H	-0.919949	0.187803	-0.076393
H158	H	-0.419949	0.687803	0.423607
N159	N	-1.685175	-0.091195	0.334593
N160	N	-1.185175	0.408805	0.834593
H161	H	-1.740416	-0.118988	0.372275
H162	H	-1.240416	0.381012	0.872275
H163	H	-1.639278	-0.128654	0.301406
H164	H	-1.139278	0.371346	0.801406
H165	H	-1.336340	0.079540	0.452651
H166	H	-0.836340	0.579540	0.952651
H167	H	-1.284805	-0.000053	0.541395
H168	H	-0.784805	0.499947	1.041395
N169	N	-1.681147	-0.091215	0.485201
N170	N	-1.181147	0.408785	0.985201
H171	H	-1.666319	-0.084567	0.535705
H172	H	-1.166319	0.415433	1.035705
H173	H	-1.669635	-0.145920	0.471728
H174	H	-1.169635	0.354080	0.971728
N175	N	-1.463574	0.418039	-0.233676
N176	N	-0.963574	0.918039	0.266324
H177	H	-1.533971	0.431733	-0.262996
H178	H	-1.033971	0.931733	0.237004
H179	H	-1.466112	0.362157	-0.224029
H180	H	-0.966112	0.862157	0.275971
N181	N	-1.678861	0.175021	-0.005119
N182	N	-1.178861	0.675021	0.494881
H183	H	-1.665718	0.119123	-0.012214
H184	H	-1.165718	0.619123	0.487786
H185	H	-1.768856	0.188779	-0.013616
H186	H	-1.268856	0.688779	0.486384
H187	H	-0.913459	-0.073820	-0.006451
H188	H	-0.413459	0.426180	0.493549
N189	N	-1.747390	-0.000013	0.114898
N190	N	-1.247390	0.499987	0.614898
H191	H	-1.753366	-0.046422	0.085172
H192	H	-1.253366	0.453578	0.585172
H193	H	-1.753278	0.046424	0.085223
H194	H	-1.253278	0.546424	0.585223
H195	H	-1.529784	0.428508	0.012253
H196	H	-1.029784	0.928508	0.512253
H197	H	-0.911483	0.076397	-0.007682
H198	H	-0.411483	0.576397	0.492318
H199	H	-1.655996	0.328393	-0.017485
H200	H	-1.155996	0.828393	0.482515
H201	H	-1.704580	-0.000044	0.569396
H202	H	-1.204580	0.499956	1.069396
H203	H	-1.293266	-0.000029	0.225884
H204	H	-0.793266	0.499971	0.725884
H205	H	-1.341807	0.328406	-0.187229
H206	H	-0.841807	0.828406	0.312771
H207	H	-1.341770	0.185443	-0.187226
H208	H	-0.841770	0.685443	0.312774
H209	H	-1.112299	0.125023	-0.089832
H210	H	-0.612299	0.625023	0.410168
H211	H	-1.701055	-0.000068	0.700845
H212	H	-1.201055	0.499932	1.200845
H213	H	-1.339868	0.079558	0.321205
H214	H	-0.839868	0.579558	0.821205
N215	N	-1.266468	-0.000021	0.082799
N216	N	-0.766468	0.499979	0.582799
H217	H	-1.215565	-0.046429	0.092020
H218	H	-0.715565	0.453571	0.592020
H219	H	-1.215641	0.046417	0.092067
H220	H	-0.715641	0.546417	0.592067
N221	N	-1.090407	0.067704	-0.220448
N222	N	-0.590407	0.567704	0.279552
H223	H	-1.067762	0.115191	-0.195741
H224	H	-0.567762	0.615191	0.304259
H225	H	-1.185283	0.066636	-0.224018
H226	H	-0.685283	0.566636	0.275982
N227	N	-1.092672	-0.067719	-0.219856
N228	N	-0.592672	0.432281	0.280144
H229	H	-1.187634	-0.065963	-0.223074
H230	H	-0.687634	0.434037	0.276926
H231	H	-1.070801	-0.115203	-0.194934
H232	H	-0.570801	0.384797	0.305066
N233	N	-0.877386	-0.141985	-0.097099
N234	N	-0.377386	0.358015	0.402901
H235	H	-0.810979	-0.127924	-0.136675
H236	H	-0.310979	0.372076	0.363325
H237	H	-0.946837	-0.172688	-0.115792
H238	H	-0.446837	0.327312	0.384208
H239	H	-1.529797	0.571469	0.012249
H240	H	-1.029797	1.071469	0.512249
N241	N	-1.678914	0.661091	-0.005129
N242	N	-1.178914	1.161091	0.494871
H243	H	-1.768961	0.674781	-0.013589
H244	H	-1.268961	1.174781	0.486411
H245	H	-1.664467	0.674829	0.044222
H246	H	-1.164467	1.174829	0.544222
H247	H	-1.656055	0.814482	-0.017489
H248	H	-1.156055	1.314482	0.482511
