data_functionalizedCrystal
_audit_creation_method	'MofGen! by Chris Wilmer'
_symmetry_space_group_name_H-M	'P1'
_symmetry_Int_Tables_number	1
_symmetry_cell_setting	triclinic
loop_
_symmetry_equiv_pos_as_xyz
  x,y,z
_cell_length_a	14.971482
_cell_length_b	10.654545
_cell_length_c	14.048226
_cell_angle_alpha	89.995935
_cell_angle_beta	89.994098
_cell_angle_gamma	84.049018
loop_
_atom_site_label
_atom_site_type_symbol
_atom_site_fract_x
_atom_site_fract_y
_atom_site_fract_z
O1	O	1.187840	0.163637	-0.079143
O2	O	0.927546	0.183240	-0.079147
O3	O	1.063677	-0.009365	-0.079145
O4	O	1.051709	0.356242	-0.079146
O5	O	1.063661	-0.009377	0.079177
O6	O	0.927530	0.183229	0.079174
O7	O	1.187823	0.163625	0.079178
Zn8	Zn	1.057674	0.173425	0.104313
Zn9	Zn	1.057696	0.173440	-0.104282
O10	O	1.051692	0.356231	0.079175
C11	C	0.894208	0.182359	0.000013
C12	C	0.794897	0.179734	0.000011
C13	C	1.062790	-0.056159	0.000014
C14	C	1.060160	-0.195574	0.000009
C15	C	0.748236	0.178491	0.086313
C16	C	0.654924	0.176005	0.086314
C17	C	0.608274	0.174770	0.000012
C18	C	0.654941	0.176009	-0.086296
C19	C	0.748252	0.178486	-0.086297
C20	C	0.460451	0.170849	-0.086290
C21	C	0.367133	0.168374	-0.086291
C22	C	0.367123	0.168368	0.086320
C23	C	0.460434	0.170845	0.086320
C24	C	0.507095	0.172086	0.000011
C25	C	1.060189	-0.195571	-0.172598
C26	C	1.058971	-0.261065	-0.258901
C27	C	1.056500	-0.392058	-0.258902
C28	C	1.055245	-0.457558	-0.172591
C29	C	1.056463	-0.392063	-0.086288
C30	C	1.058936	-0.261068	-0.086296
C31	C	1.056427	-0.392065	0.086317
C32	C	1.058904	-0.261074	0.086320
C33	C	1.055172	-0.457565	0.172628
C34	C	1.056396	-0.392072	0.258933
C35	C	1.058868	-0.261072	0.258930
C36	C	1.060122	-0.195580	0.172623
C37	C	1.221161	0.164507	0.000016
C38	C	1.320473	0.167132	0.000011
C39	C	1.052580	0.403025	0.000014
C40	C	1.055210	0.542440	0.000014
N41	N	1.057666	0.173414	0.246674
N42	N	1.057711	0.173441	-0.246643
C43	C	1.117964	0.088164	0.296493
C44	C	1.117970	0.088163	0.396151
C45	C	1.057681	0.173420	0.445987
C46	C	0.997377	0.258674	0.396161
C47	C	0.997367	0.258668	0.296505
C48	C	0.997403	0.258683	0.603875
C49	C	0.997413	0.258692	0.703538
C50	C	1.118005	0.088179	0.703521
C51	C	1.117996	0.088172	0.603865
C52	C	1.057692	0.173429	0.554045
H53	H	0.786212	0.179507	0.156590
O54	O	0.932358	0.350643	0.449910
H55	H	0.862529	0.334481	0.430812
H56	H	0.329128	0.167358	0.156596
H57	H	1.167091	0.018756	0.563288
O58	O	0.932346	0.350634	0.550154
H59	H	0.888539	0.297656	0.504780
H60	H	1.053155	-0.564225	0.172621
H61	H	1.167106	0.018760	0.744089
O62	O	0.604633	0.174660	-0.179384
H63	H	0.615109	0.260657	-0.220777
O64	O	0.932372	0.350618	0.757297
H65	H	0.890423	0.409881	0.705914
O66	O	0.932336	0.350621	0.242764
H67	H	0.890421	0.409916	0.294158
O68	O	1.062895	-0.054315	0.172560
H69	H	1.002734	-0.008594	0.135276
O70	O	1.062891	-0.054293	-0.172637
H71	H	1.002692	-0.008590	-0.135400
H72	H	0.786242	0.179500	-0.156573
H73	H	1.055367	-0.445411	0.329200
H74	H	0.616939	0.174973	0.156590
O75	O	0.510753	0.172218	0.179400
H76	H	0.462632	0.170941	0.239416
H77	H	1.059992	-0.207721	-0.329174
H78	H	0.498439	0.171860	-0.156572
O79	O	0.316812	0.167035	-0.179370
H80	H	0.364934	0.168295	-0.239386
H81	H	1.055501	-0.445382	-0.329178
H82	H	1.053222	-0.564216	-0.172600
O83	O	1.060188	-0.190431	0.352015
H84	H	1.058908	-0.257990	0.412026
O85	O	1.182986	-0.003797	0.242741
H86	H	1.224908	-0.063086	0.294131
H87	H	1.167068	0.018745	0.436713
