data_functionalizedCrystal
_audit_creation_method	'MofGen! by Chris Wilmer'
_symmetry_space_group_name_H-M	'P1'
_symmetry_Int_Tables_number	1
_symmetry_cell_setting	triclinic
loop_
_symmetry_equiv_pos_as_xyz
  x,y,z
_cell_length_a	29.839135
_cell_length_b	18.215405
_cell_length_c	18.215399
_cell_angle_alpha	90.030551
_cell_angle_beta	90.022923
_cell_angle_gamma	90.027415
loop_
_atom_site_label
_atom_site_type_symbol
_atom_site_fract_x
_atom_site_fract_y
_atom_site_fract_z
Zn1	Zn	0.686804	-0.292942	0.416163
Zn2	Zn	1.186804	0.207058	0.916163
Zn3	Zn	0.686748	-0.416013	0.293091
Zn4	Zn	1.186748	0.083987	0.793091
Zn5	Zn	0.611677	-0.292971	0.293104
Zn6	Zn	1.111677	0.207029	0.793104
Zn7	Zn	0.611656	-0.415977	0.416110
Zn8	Zn	1.111656	0.084023	0.916110
O9	O	0.649222	-0.354476	0.354617
O10	O	1.149222	0.145524	0.854617
O11	O	0.749664	-0.309271	0.399855
O12	O	1.249664	0.190729	0.899855
O13	O	0.676775	-0.399719	0.190109
O14	O	1.176775	0.100281	0.690109
O15	O	0.621675	-0.189983	0.309456
O16	O	1.121675	0.310017	0.809456
O17	O	0.749623	-0.399691	0.309434
O18	O	1.249623	0.100309	0.809434
O19	O	0.676871	-0.189962	0.399867
O20	O	1.176871	0.310038	0.899867
O21	O	0.621621	-0.309320	0.190118
O22	O	1.121621	0.190680	0.690118
O23	O	0.548807	-0.309284	0.309404
O24	O	1.048807	0.190716	0.809404
O25	O	0.621640	-0.399629	0.519101
O26	O	1.121640	0.100371	1.019101
O27	O	0.548792	-0.399657	0.399776
O28	O	1.048792	0.100343	0.899776
O29	O	0.676850	-0.309236	0.519140
O30	O	1.176850	0.190764	1.019140
O31	O	0.676755	-0.518993	0.309382
O32	O	1.176755	-0.018993	0.809382
O33	O	0.621585	-0.518966	0.399763
O34	O	1.121585	-0.018966	0.899763
C35	C	0.649174	-0.545682	0.354582
C36	C	1.149174	-0.045682	0.854582
C37	C	0.649195	-0.627481	0.354591
C38	C	1.149195	-0.127481	0.854591
C39	C	0.532499	-0.354470	0.354586
C40	C	1.032499	0.145530	0.854586
C41	C	0.482565	-0.354485	0.354590
C42	C	0.982565	0.145515	0.854590
C43	C	0.677989	-0.815664	0.307616
C44	C	1.177989	-0.315664	0.807616
C45	C	0.678009	-0.892523	0.307634
C46	C	1.178009	-0.392523	0.807634
C47	C	0.620511	-0.892535	0.401671
C48	C	1.120511	-0.392535	0.901671
C49	C	0.620494	-0.815678	0.401656
C50	C	1.120494	-0.315678	0.901656
C51	C	0.649232	-0.777244	0.354625
C52	C	1.149232	-0.277244	0.854625
C53	C	0.649270	-0.930960	0.354657
C54	C	1.149270	-0.430960	0.854657
C55	C	0.649291	-1.014294	0.354677
C56	C	1.149291	-0.514294	0.854677
C57	C	0.649211	-0.693905	0.354606
C58	C	1.149211	-0.193905	0.854606
C59	C	0.172940	-0.307465	0.401768
C60	C	0.672940	0.192535	0.901768
C61	C	-0.014733	-0.307470	0.401789
C62	C	0.485267	0.192530	0.901789
O63	O	-0.038983	-0.267476	0.441867
O64	O	0.461017	0.232524	0.941867
N65	N	-0.038221	-0.354477	0.354644
N66	N	0.461779	0.145523	0.854644
C67	C	-0.014786	-0.401481	0.307487
C68	C	0.485214	0.098519	0.807487
O69	O	-0.039070	-0.441458	0.267382
O70	O	0.460930	0.058542	0.767382
C71	C	0.172886	-0.401472	0.307463
C72	C	0.672886	0.098528	0.807463
C73	C	0.196370	-0.354468	0.354616
C74	C	0.696370	0.145532	0.854616
C75	C	0.196424	-0.260465	0.448917
C76	C	0.696424	0.239535	0.948917
C77	C	0.243340	-0.260467	0.448915
C78	C	0.743340	0.239533	0.948915
C79	C	0.266771	-0.307470	0.401763
C80	C	0.766771	0.192530	0.901763
C81	C	0.243286	-0.354470	0.354613
C82	C	0.743286	0.145530	0.854613
C83	C	0.196319	-0.448472	0.260302
C84	C	0.696319	0.051528	0.760302
C85	C	0.243240	-0.448465	0.260299
C86	C	0.743240	0.051535	0.760299
C87	C	0.266725	-0.401461	0.307453
C88	C	0.766725	0.098539	0.807453
C89	C	0.313632	-0.401475	0.307459
C90	C	0.813632	0.098525	0.807459
N91	N	0.337119	-0.354469	0.354604
N92	N	0.837119	0.145531	0.854604
C93	C	0.313688	-0.307466	0.401756
C94	C	0.813688	0.192534	0.901756
C95	C	-0.113317	-0.401484	0.307504
C96	C	0.386683	0.098516	0.807504
C97	C	-0.160235	-0.401487	0.307511
C98	C	0.339765	0.098513	0.807511
C99	C	-0.160179	-0.307475	0.401812
C100	C	0.339821	0.192525	0.901812
C101	C	-0.113260	-0.307476	0.401809
C102	C	0.386740	0.192524	0.901809
C103	C	-0.089830	-0.354478	0.354649
C104	C	0.410170	0.145522	0.854649
C105	C	0.412214	-0.307474	0.401747
C106	C	0.912214	0.192526	0.901747
C107	C	0.459134	-0.307483	0.401742
C108	C	0.959134	0.192517	0.901742
C109	C	0.459073	-0.401492	0.307438
C110	C	0.959073	0.098508	0.807438
C111	C	0.412158	-0.401486	0.307445
C112	C	0.912158	0.098514	0.807445
C113	C	0.388729	-0.354472	0.354602
C114	C	0.888729	0.145528	0.854602
O115	O	0.337910	-0.441443	0.267396
O116	O	0.837910	0.058557	0.767396
O117	O	0.337980	-0.267484	0.441843
O118	O	0.837980	0.232516	0.941843
C119	C	0.126024	-0.307463	0.401771
C120	C	0.626024	0.192537	0.901771
C121	C	0.102539	-0.354464	0.354622
C122	C	0.602539	0.145536	0.854622
C123	C	0.125970	-0.401467	0.307470
C124	C	0.625970	0.098533	0.807470
C125	C	0.055622	-0.354467	0.354629
C126	C	0.555622	0.145533	0.854629
C127	C	0.032191	-0.307465	0.401781
C128	C	0.532191	0.192535	0.901781
C129	C	0.055678	-0.260459	0.448926
C130	C	0.555678	0.239541	0.948926
C131	C	0.102593	-0.260461	0.448923
C132	C	0.602593	0.239539	0.948923
C133	C	0.102483	-0.448473	0.260325
C134	C	0.602483	0.051527	0.760325
C135	C	0.055568	-0.448467	0.260332
C136	C	0.555568	0.051533	0.760332
C137	C	0.032137	-0.401465	0.307484
C138	C	0.532137	0.098535	0.807484
C139	C	0.766400	-0.354482	0.354649
C140	C	1.266400	0.145518	0.854649
C141	C	0.816334	-0.354485	0.354663
C142	C	1.316334	0.145515	0.854663
C143	C	0.649249	-0.354425	0.546570
C144	C	1.149249	0.145575	1.046570
C145	C	0.649261	-0.354403	0.628369
C146	C	1.149261	0.145597	1.128369
C147	C	0.649281	-0.162523	0.354669
C148	C	1.149281	0.337477	0.854669
C149	C	0.649307	-0.080724	0.354691
C150	C	1.149307	0.419276	0.854691
C151	C	0.649220	-0.354473	0.163411
C152	C	1.149220	0.145527	0.663411
C153	C	0.649296	-0.354288	0.081612
C154	C	1.149296	0.145712	0.581612
C155	C	0.678019	-0.307292	0.816585
C156	C	1.178019	0.192708	1.316585
C157	C	0.678025	-0.307270	0.893444
C158	C	1.178025	0.192730	1.393444
C159	C	0.620534	-0.401401	0.893391
C160	C	1.120534	0.098599	1.393391
C161	C	0.620527	-0.401418	0.816534
C162	C	1.120527	0.098582	1.316534
C163	C	0.649272	-0.354365	0.778133
C164	C	1.149272	0.145635	1.278133
C165	C	0.649284	-0.354326	0.931849
C166	C	1.149284	0.145674	1.431849
C167	C	0.649290	-0.354303	1.015182
C168	C	1.149290	0.145697	1.515182
C169	C	0.649266	-0.354386	0.694794
C170	C	1.149266	0.145614	1.194794
H171	H	0.701390	-0.784374	0.269322
H172	H	1.201390	-0.284374	0.769322
H173	H	0.177352	-0.222186	0.487314
H174	H	0.677352	0.277814	0.987314
H175	H	-0.179264	-0.269204	0.440206
H176	H	0.320736	0.230796	0.940206
H177	H	0.597076	-0.784394	0.439939
H178	H	1.097076	-0.284394	0.939939
C179	C	0.484851	-0.453196	0.255577
C180	C	0.984851	0.046804	0.755577
H181	H	0.464147	-0.481197	0.227498
H182	H	0.964147	0.018803	0.727498
H183	H	0.503155	-0.425002	0.223565
H184	H	1.003155	0.074998	0.723565
H185	H	0.503151	-0.485298	0.283678
H186	H	1.003151	0.014702	0.783678
C187	C	0.128251	-0.500183	0.208459
C188	C	0.628251	-0.000183	0.708459
H189	H	0.107540	-0.528178	0.180389
H190	H	0.607540	-0.028178	0.680389
H191	H	0.146555	-0.471999	0.176439
H192	H	0.646555	0.028001	0.676439
H193	H	0.146549	-0.532290	0.236557
H194	H	0.646549	-0.032290	0.736557
H195	H	0.701427	-0.923801	0.269356
H196	H	1.201427	-0.423801	0.769356
H197	H	0.597113	-0.923837	0.439961
H198	H	1.097113	-0.423837	0.939961
H199	H	0.262457	-0.222190	0.487311
H200	H	0.762457	0.277810	0.987311
H201	H	0.478253	-0.269206	0.440142
H202	H	0.978253	0.230794	0.940142
C203	C	0.588921	-0.453163	0.935635
C204	C	1.088921	0.046837	1.435635
H205	H	0.593045	-0.446417	0.986916
H206	H	1.093045	0.053583	1.486916
H207	H	0.558737	-0.442398	0.923032
H208	H	1.058737	0.057602	1.423032
H209	H	0.595484	-0.502614	0.923024
H210	H	1.095484	-0.002614	1.423024
H211	H	0.393144	-0.269188	0.440144
H212	H	0.893144	0.230812	0.940144
H213	H	-0.094142	-0.269200	0.440204
H214	H	0.405858	0.230800	0.940204
H215	H	0.597114	-0.439750	0.785225
H216	H	1.097114	0.060250	1.285225
H217	H	-0.179352	-0.439771	0.269122
H218	H	0.320648	0.060229	0.769122
H219	H	-0.094245	-0.439761	0.269099
H220	H	0.405755	0.060239	0.769099
C221	C	0.269010	-0.500174	0.208429
C222	C	0.769010	-0.000174	0.708429
H223	H	0.248301	-0.528170	0.180356
H224	H	0.748301	-0.028170	0.680356
H225	H	0.287315	-0.471987	0.176412
H226	H	0.787315	0.028013	0.676412
H227	H	0.287308	-0.532281	0.236527
H228	H	0.787308	-0.032281	0.736527
H229	H	0.177206	-0.486747	0.221904
H230	H	0.677206	0.013253	0.721904
C231	C	0.709649	-0.255493	0.935738
C232	C	1.209649	0.244507	1.435738
H233	H	0.726768	-0.227478	0.901857
H234	H	1.226768	0.272522	1.401857
H235	H	0.692478	-0.223419	0.965723
H236	H	1.192478	0.276581	1.465723
H237	H	0.729219	-0.283644	0.965719
H238	H	1.229219	0.216356	1.465719
C239	C	0.128421	-0.208751	0.500787
C240	C	0.628421	0.291249	1.000787
H241	H	0.107741	-0.180757	0.528861
H242	H	0.607741	0.319243	1.028861
H243	H	0.146725	-0.236936	0.532804
H244	H	0.646725	0.263064	1.032804
H245	H	0.146722	-0.176643	0.472689
H246	H	0.646722	0.323357	0.972689
C247	C	0.386324	-0.453194	0.255583
C248	C	0.886324	0.046806	0.755583
H249	H	0.407000	-0.481186	0.227500
H250	H	0.907000	0.018814	0.727500
H251	H	0.368016	-0.485294	0.283674
H252	H	0.868016	0.014706	0.783674
H253	H	0.368024	-0.424995	0.223565
H254	H	0.868024	0.075005	0.723565
C255	C	0.029898	-0.208755	0.500790
C256	C	0.529898	0.291245	1.000790
H257	H	-0.001407	-0.215488	0.494029
H258	H	0.498593	0.284512	0.994029
H259	H	0.037594	-0.219583	0.550219
H260	H	0.537594	0.280417	1.050219
H261	H	0.037597	-0.159292	0.490102
H262	H	0.537597	0.340708	0.990102
H263	H	0.036450	-0.486751	0.221935
H264	H	0.536450	0.013249	0.721935
H265	H	0.701424	-0.268975	0.785321
H266	H	1.201424	0.231025	1.285321
