data_functionalizedCrystal
_audit_creation_method	'MofGen! by Chris Wilmer'
_symmetry_space_group_name_H-M	'P1'
_symmetry_Int_Tables_number	1
_symmetry_cell_setting	triclinic
loop_
_symmetry_equiv_pos_as_xyz
  x,y,z
_cell_length_a	18.215407
_cell_length_b	13.897448
_cell_length_c	18.215398
_cell_angle_alpha	90.023802
_cell_angle_beta	90.019464
_cell_angle_gamma	90.018140
loop_
_atom_site_label
_atom_site_type_symbol
_atom_site_fract_x
_atom_site_fract_y
_atom_site_fract_z
Zn1	Zn	1.125106	-0.384037	0.416124
Zn2	Zn	1.125031	-0.545340	0.293061
Zn3	Zn	1.002039	-0.384062	0.293072
Zn4	Zn	1.002020	-0.545293	0.416086
O5	O	1.063549	-0.464683	0.354586
O6	O	1.228080	-0.405444	0.399811
O7	O	1.108692	-0.523976	0.190078
O8	O	1.018404	-0.249077	0.309415
O9	O	1.228025	-0.523952	0.309398
O10	O	1.108821	-0.249059	0.399821
O11	O	1.018331	-0.405485	0.190086
O12	O	0.899053	-0.405440	0.309378
O13	O	1.018371	-0.523873	0.519076
O14	O	0.899038	-0.523896	0.399756
O15	O	1.108802	-0.405399	0.519103
O16	O	1.108673	-0.680315	0.309361
O17	O	1.018298	-0.680281	0.399747
C18	C	0.872343	-0.464667	0.354565
C19	C	0.790544	-0.464683	0.354573
C20	C	0.602362	-0.526460	0.401574
C21	C	0.525503	-0.526463	0.401583
C22	C	0.525488	-0.402924	0.307614
C23	C	0.602346	-0.402917	0.307609
C24	C	0.640780	-0.464690	0.354588
C25	C	0.487064	-0.464700	0.354602
C26	C	0.403731	-0.464703	0.354612
C27	C	0.724119	-0.464686	0.354579
C28	C	1.063495	-0.715297	0.354565
C29	C	1.063540	-0.822511	0.354580
C30	C	1.063617	-1.018806	0.354626
C31	C	1.063572	-0.909574	0.354603
C32	C	1.255502	-0.464700	0.354607
C33	C	1.337301	-0.464708	0.354617
C34	C	1.063593	-0.464628	0.546539
C35	C	1.063611	-0.464604	0.628338
C36	C	1.063623	-0.213090	0.354623
C37	C	1.063655	-0.105876	0.354639
C38	C	1.063548	-0.464669	0.163380
C39	C	1.063672	-0.464421	0.081581
C40	C	1.110696	-0.526183	0.893396
C41	C	1.110685	-0.526216	0.816537
C42	C	1.016582	-0.402839	0.816528
C43	C	1.016590	-0.402811	0.893386
C44	C	1.063651	-0.464482	0.931818
C45	C	1.063632	-0.464543	0.778101
C46	C	1.063619	-0.464579	0.694768
C47	C	1.063663	-0.464447	1.015157
H48	H	0.494185	-0.352632	0.269364
H49	H	1.149015	-0.576400	0.924685
N50	N	1.161423	-0.592769	0.775097
H51	H	1.191234	-0.631830	0.811108
H52	H	1.195486	-0.553519	0.743217
H53	H	0.978268	-0.352628	0.785228
H54	H	0.978277	-0.352565	0.924669
H55	H	0.633653	-0.576757	0.439829
H56	H	0.633627	-0.352610	0.269347
H57	H	0.494226	-0.576760	0.439845
