data_functionalizedCrystal
_audit_creation_method	'MofGen! by Chris Wilmer'
_symmetry_space_group_name_H-M	'P1'
_symmetry_Int_Tables_number	1
_symmetry_cell_setting	triclinic
loop_
_symmetry_equiv_pos_as_xyz
  x,y,z
_cell_length_a	12.759401
_cell_length_b	12.594516
_cell_length_c	12.594509
_cell_angle_alpha	89.973801
_cell_angle_beta	89.982054
_cell_angle_gamma	90.016479
loop_
_atom_site_label
_atom_site_type_symbol
_atom_site_fract_x
_atom_site_fract_y
_atom_site_fract_z
Zn1	Zn	1.606239	-0.423698	-0.601779
Zn2	Zn	2.106239	0.076302	-0.101779
Zn3	Zn	1.606131	-0.601708	-0.423807
Zn4	Zn	2.106131	-0.101708	0.076193
Zn5	Zn	1.430543	-0.423745	-0.423818
Zn6	Zn	1.930543	0.076255	0.076182
Zn7	Zn	1.430525	-0.601636	-0.601747
Zn8	Zn	1.930525	-0.101636	-0.101747
O9	O	1.518359	-0.512697	-0.512788
O10	O	2.018359	-0.012697	-0.012788
O11	O	1.753245	-0.447322	-0.578179
O12	O	2.253245	0.052678	-0.078179
O13	O	1.582801	-0.578151	-0.274863
O14	O	2.082801	-0.078151	0.225137
O15	O	1.453901	-0.274793	-0.447443
O16	O	1.953901	0.225207	0.052557
O17	O	1.753166	-0.578105	-0.447424
O18	O	2.253166	-0.078105	0.052576
O19	O	1.582985	-0.274758	-0.578190
O20	O	2.082985	0.225242	-0.078190
O21	O	1.453797	-0.447403	-0.274871
O22	O	1.953797	0.052597	0.225129
O23	O	1.283519	-0.447333	-0.447413
O24	O	1.783519	0.052667	0.052587
O25	O	1.453872	-0.577982	-0.750697
O26	O	1.953872	-0.077982	-0.250697
O27	O	1.283506	-0.578028	-0.578136
O28	O	1.783506	-0.078028	-0.078136
O29	O	1.582968	-0.447252	-0.750721
O30	O	2.082968	0.052748	-0.250721
O31	O	1.582784	-0.750644	-0.447393
O32	O	2.082784	-0.250644	0.052607
O33	O	1.453767	-0.750592	-0.578125
O34	O	1.953767	-0.250592	-0.078125
C35	C	1.245392	-0.512679	-0.512773
C36	C	1.745392	-0.012679	-0.012773
C37	C	1.128615	-0.512696	-0.512792
C38	C	1.628615	-0.012696	-0.012792
C39	C	1.073795	-0.444721	-0.580981
C40	C	1.573795	0.055279	-0.080981
C41	C	0.964071	-0.444731	-0.580988
C42	C	1.464071	0.055269	-0.080988
C43	C	0.963997	-0.580703	-0.444613
C44	C	1.463997	-0.080703	0.055387
C45	C	1.073719	-0.580686	-0.444602
C46	C	1.573719	-0.080686	0.055398
C47	C	1.518290	-0.789238	-0.512778
C48	C	2.018290	-0.289238	-0.012778
C49	C	1.518357	-0.907543	-0.512809
C50	C	2.018357	-0.407543	-0.012809
C51	C	1.448178	-0.976806	-0.583864
C52	C	1.948178	-0.476806	-0.083864
C53	C	1.422580	-1.047672	-0.486742
C54	C	1.922580	-0.547672	0.013258
C55	C	1.544051	-1.047477	-0.609947
C56	C	2.044051	-0.547477	-0.109947
C57	C	1.492708	-0.976851	-0.415636
C58	C	1.992708	-0.476851	0.084364
C59	C	1.614224	-0.976649	-0.538906
C60	C	2.114224	-0.476649	-0.038906
C61	C	1.588662	-1.047483	-0.441717
C62	C	2.088662	-0.547483	0.058283
C63	C	1.792392	-0.512716	-0.512804
C64	C	2.292392	-0.012716	-0.012804
C65	C	1.909169	-0.512724	-0.512810
C66	C	2.409169	-0.012724	-0.012810
C67	C	1.518457	-0.235076	-0.512822
C68	C	2.018457	0.264924	-0.012822
C69	C	1.518499	-0.116771	-0.512836
C70	C	2.018499	0.383229	-0.012836
C71	C	1.518430	-0.512604	-0.790409
C72	C	2.018430	-0.012604	-0.290409
C73	C	1.518460	-0.512564	-0.908714
C74	C	2.018460	-0.012564	-0.408714
C75	C	1.448266	-0.583628	-0.977955
C76	C	1.948266	-0.083628	-0.477955
C77	C	1.544132	-0.609633	-1.048741
C78	C	2.044132	-0.109633	-0.548741
C79	C	1.422669	-0.486494	-1.048728
C80	C	1.922669	0.013506	-0.548728
C81	C	1.614375	-0.538620	-0.977942
C82	C	2.114375	-0.038620	-0.477942
C83	C	1.492848	-0.415436	-0.977923
C84	C	1.992848	0.084564	-0.477923
C85	C	1.588779	-0.441405	-1.048677
C86	C	2.088779	0.058595	-0.548677
C87	C	1.518350	-0.512713	-0.236247
C88	C	2.018350	-0.012713	0.263753
C89	C	1.518523	-0.512453	-0.117942
C90	C	2.018523	-0.012453	0.382058
H91	H	1.388724	-0.945772	-0.643866
H92	H	1.888724	-0.445772	-0.143866
H93	H	1.648071	-1.078320	-0.381570
H94	H	2.148071	-0.578320	0.118430
O95	O	1.721502	-0.935294	-0.568175
O96	O	2.221502	-0.435294	-0.068175
H97	H	1.752861	-0.886838	-0.501796
H98	H	2.252861	-0.386838	-0.001796
H99	H	1.565726	-1.078500	-0.692085
H100	H	2.065726	-0.578500	-0.192085
O101	O	1.369708	-0.663348	-0.936792
O102	O	1.869708	-0.163348	-0.436792
H103	H	1.391254	-0.743867	-0.965150
H104	H	1.891254	-0.243867	-0.465150
H105	H	1.470940	-0.945955	-0.333475
H106	H	1.970940	-0.445955	0.166525
H107	H	1.565829	-0.691725	-1.079847
H108	H	2.065829	-0.191725	-0.579847
H109	H	1.695434	-0.560717	-0.946979
H110	H	2.195434	-0.060717	-0.446979
O111	O	0.904939	-0.371413	-0.654532
O112	O	1.404939	0.128587	-0.154532
H113	H	0.926019	-0.389775	-0.738037
H114	H	1.426019	0.110225	-0.238037
H115	H	1.341633	-0.464491	-1.079822
H116	H	1.841633	0.035509	-0.579822
O117	O	1.464064	-0.306744	-0.936646
O118	O	1.964064	0.193256	-0.436646
H119	H	1.384446	-0.285332	-0.964934
H120	H	1.884446	0.214668	-0.464934
O121	O	1.667525	-0.361735	-1.089565
O122	O	2.167525	0.138265	-0.589565
H123	H	1.746954	-0.383579	-1.061061
H124	H	2.246954	0.116421	-0.561061
H125	H	1.341573	-1.078892	-0.464692
H126	H	1.841573	-0.578892	0.035308
O127	O	0.904789	-0.654038	-0.371072
O128	O	1.404789	-0.154038	0.128928
H129	H	0.819282	-0.642639	-0.382541
H130	H	1.319282	-0.142639	0.117459
H131	H	1.118355	-0.636041	-0.389068
H132	H	1.618355	-0.136041	0.110932
O133	O	1.133010	-0.371378	-0.654510
O134	O	1.633010	0.128622	-0.154510
H135	H	1.076452	-0.324103	-0.701917
H136	H	1.576452	0.175897	-0.201917
