data_functionalizedCrystal
_audit_creation_method	'MofGen! by Chris Wilmer'
_symmetry_space_group_name_H-M	'P1'
_symmetry_Int_Tables_number	1
_symmetry_cell_setting	triclinic
loop_
_symmetry_equiv_pos_as_xyz
  x,y,z
_cell_length_a	17.699097
_cell_length_b	10.654551
_cell_length_c	16.776229
_cell_angle_alpha	90.000568
_cell_angle_beta	90.009351
_cell_angle_gamma	83.886896
loop_
_atom_site_label
_atom_site_type_symbol
_atom_site_fract_x
_atom_site_fract_y
_atom_site_fract_z
O1	O	1.005082	0.158882	0.066350
O2	O	0.784836	0.179526	0.066336
O3	O	0.900022	-0.013623	0.066343
O4	O	0.889895	0.352032	0.066342
O5	O	0.900009	-0.013624	-0.066233
O6	O	0.784823	0.179526	-0.066241
O7	O	1.005068	0.158882	-0.066227
Zn8	Zn	0.894943	0.169204	-0.087283
Zn9	Zn	0.894961	0.169204	0.087392
O10	O	0.889882	0.352031	-0.066234
C11	C	0.756628	0.178783	0.000046
C12	C	0.672596	0.176556	0.000041
C13	C	0.899272	-0.060408	0.000057
C14	C	0.897047	-0.199813	0.000062
C15	C	0.156798	0.162902	0.072341
C16	C	0.235755	0.164986	0.072337
C17	C	0.275221	0.166030	0.000066
C18	C	0.235726	0.164977	-0.072205
C19	C	0.156770	0.162883	-0.072201
C20	C	0.554143	0.173418	-0.072226
C21	C	0.633104	0.175515	-0.072226
C22	C	0.633128	0.175521	0.072311
C23	C	0.554173	0.173427	0.072316
C24	C	0.514685	0.172367	0.000045
C25	C	0.429071	0.170105	0.000050
C26	C	0.360833	0.168302	0.000060
C27	C	0.896010	-0.265306	0.072328
C28	C	0.893913	-0.396290	0.072324
C29	C	0.893892	-0.396276	-0.072218
C30	C	0.895984	-0.265293	-0.072213
C31	C	0.897073	-0.199826	0.144604
C32	C	0.896037	-0.265319	0.216875
C33	C	0.893940	-0.396303	0.216872
C34	C	0.892878	-0.461793	0.144596
C35	C	1.033276	0.159625	0.000065
C36	C	1.117308	0.161852	0.000075
C37	C	0.890632	0.398816	0.000054
C38	C	0.892858	0.538221	0.000054
N39	N	0.894937	0.169202	-0.206494
C40	C	0.941236	0.245279	-0.248205
C41	C	0.941244	0.245274	-0.331657
C42	C	0.894949	0.169199	-0.373397
C43	C	0.848649	0.093114	-0.331680
C44	C	0.848645	0.093112	-0.248230
C45	C	0.848664	0.093115	-0.668228
C46	C	0.848670	0.093125	-0.751684
C47	C	0.941263	0.245277	-0.751655
C48	C	0.941259	0.245276	-0.668205
C49	C	0.894962	0.169186	-0.626495
C50	C	0.894955	0.169190	-0.536007
C51	C	0.894952	0.169200	-0.463884
N52	N	0.894973	0.169196	0.206603
H53	H	0.124670	0.162061	0.131192
F54	F	0.675161	0.176641	0.149229
F55	F	0.897164	-0.195619	0.293792
F56	F	0.512126	0.172316	-0.149144
H57	H	0.267865	0.165819	-0.131049
F58	F	0.990520	0.326247	-0.376046
F59	F	0.897091	-0.195587	-0.149127
F60	F	0.675105	0.176625	-0.149150
H61	H	0.893088	-0.449623	0.275719
F62	F	0.990508	0.326253	-0.203790
H63	H	0.978954	0.307229	-0.634224
F64	F	0.990539	0.326256	-0.796052
F65	F	0.114743	0.161757	-0.149116
F66	F	0.890639	-0.601198	0.144596
F67	F	0.799395	0.012150	-0.796105
H68	H	0.810966	0.031158	-0.634278
F69	F	0.892763	-0.465979	-0.149133
H70	H	0.810959	0.031165	-0.365672
F71	F	0.799374	0.012131	-0.203838
H72	H	0.267905	0.165833	0.131183
H73	H	0.898782	-0.093173	0.144615
F74	F	0.512175	0.172322	0.149236
