data_functionalizedCrystal
_audit_creation_method	'MofGen! by Chris Wilmer'
_symmetry_space_group_name_H-M	'P1'
_symmetry_Int_Tables_number	1
_symmetry_cell_setting	triclinic
loop_
_symmetry_equiv_pos_as_xyz
  x,y,z
_cell_length_a	10.654549
_cell_length_b	23.532407
_cell_length_c	9.130307
_cell_angle_alpha	89.992076
_cell_angle_beta	89.997449
_cell_angle_gamma	83.667798
loop_
_atom_site_label
_atom_site_type_symbol
_atom_site_fract_x
_atom_site_fract_y
_atom_site_fract_z
O1	O	1.665299	0.079997	-0.121852
O2	O	1.299580	0.087615	-0.121848
O3	O	1.493467	0.000946	-0.121823
O4	O	1.471411	0.166666	-0.121877
O5	O	1.493461	0.000945	0.121776
O6	O	1.299573	0.087614	0.121751
O7	O	1.665293	0.079996	0.121747
Cu8	Cu	1.482432	0.083805	0.143991
Cu9	Cu	1.482440	0.083806	-0.144093
O10	O	1.471405	0.166665	0.121722
C11	C	1.252796	0.087054	-0.000048
C12	C	1.113406	0.085379	-0.000046
C13	C	0.820238	0.185870	-0.000119
C14	C	0.870108	0.238477	-0.000130
C15	C	1.001076	0.240053	-0.000112
C16	C	1.082179	0.189016	-0.000086
C17	C	1.032309	0.136410	-0.000075
C18	C	0.901336	0.134840	-0.000090
C19	C	1.063536	0.032773	-0.000035
C20	C	0.932568	0.031196	-0.000043
C21	C	1.144639	-0.018264	-0.000010
C22	C	1.094769	-0.070871	0.000012
C23	C	0.963792	-0.072445	-0.000005
C24	C	0.882698	-0.021411	-0.000032
C25	C	1.492903	-0.020274	-0.000020
C26	C	1.491214	-0.083502	-0.000009
C27	C	1.595361	-0.481926	-0.000090
C28	C	1.593792	-0.541336	-0.000101
O29	O	1.690338	-0.577451	-0.000156
N30	N	1.478526	-0.564714	-0.000099
C31	C	1.364821	-0.528678	-0.000101
O32	O	1.266634	-0.554019	-0.000101
C33	C	1.366391	-0.469269	-0.000100
C34	C	1.481665	-0.445894	-0.000087
C35	C	1.710625	-0.458551	-0.000079
C36	C	1.712194	-0.399144	-0.000065
C37	C	1.598497	-0.363113	-0.000062
C38	C	1.483233	-0.386488	-0.000074
C39	C	1.252687	-0.433234	-0.000112
C40	C	1.254267	-0.373822	-0.000113
C41	C	1.369541	-0.350447	-0.000100
C42	C	1.371105	-0.291050	-0.000057
N43	N	1.486371	-0.267672	-0.000059
C44	C	1.600067	-0.303704	-0.000062
C45	C	1.361533	-0.653442	-0.000105
C46	C	1.359961	-0.712851	-0.000095
C47	C	1.588933	-0.725504	-0.000098
C48	C	1.590503	-0.666095	-0.000097
C49	C	1.476799	-0.630064	-0.000107
C50	C	1.603352	-0.178945	-0.000031
C51	C	1.604910	-0.119533	-0.000012
C52	C	1.375939	-0.106885	-0.000016
C53	C	1.374380	-0.166292	-0.000028
C54	C	1.488097	-0.202321	-0.000041
O55	O	1.274610	-0.254901	-0.000008
O56	O	1.698238	-0.278355	-0.000080
C57	C	1.712076	0.080557	-0.000056
C58	C	1.851466	0.082232	-0.000068
N59	N	1.482436	0.083804	0.346614
C60	C	1.471969	0.187885	-0.000084
C61	C	1.473658	0.251113	-0.000105
N62	N	1.482446	0.083803	-0.346715
C63	C	1.654193	0.007082	0.346626
C64	C	1.740080	-0.031278	0.423299
C65	C	1.740092	-0.031278	0.576633
C66	C	1.654206	0.007084	0.653297
C67	C	1.568320	0.045443	0.576624
C68	C	1.568319	0.045441	0.423287
C69	C	1.396559	0.122162	0.576612
C70	C	1.396550	0.122166	0.423278
C71	C	1.310673	0.160524	0.653276
C72	C	1.224791	0.198888	0.576603
C73	C	1.224783	0.198887	0.423260
C74	C	1.310664	0.160526	0.346605
H75	H	1.160811	-0.112421	0.000023
H76	H	1.810024	-0.062516	0.639060
F77	F	0.743308	-0.023081	-0.000041
F78	F	1.727605	-0.094660	0.000001
H79	H	0.923197	-0.115284	-0.000005
H80	H	1.695951	-0.208274	-0.000047
F81	F	1.831648	-0.496890	-0.000083
F82	F	0.680848	0.184197	-0.000113
H83	H	1.310669	0.160524	0.221753
F84	F	1.654209	0.007076	0.816488
H85	H	1.684369	-0.647068	-0.000088
H86	H	1.188819	0.190304	-0.000088
F87	F	1.834885	-0.374275	-0.000083
H88	H	1.681511	-0.754852	-0.000106
F89	F	1.237271	-0.737721	-0.000082
H90	H	0.804060	0.280029	-0.000156
H91	H	1.268935	-0.624109	-0.000100
H92	H	1.158819	-0.452255	-0.000132
H93	H	1.161673	-0.344488	-0.000123
F94	F	1.133388	0.239708	0.658200
H95	H	1.280515	-0.185324	0.000002
F96	F	1.054153	0.296042	-0.000133
F97	F	1.310681	0.160521	0.816467
H98	H	1.283371	-0.077538	-0.000009
F99	F	1.284026	-0.016585	-0.000000
H100	H	1.654202	0.007083	0.221774
F101	F	1.831478	-0.072106	0.341701
H102	H	1.154839	0.230122	0.360841
