data_functionalizedCrystal
_audit_creation_method	'MofGen! by Chris Wilmer'
_symmetry_space_group_name_H-M	'P1'
_symmetry_Int_Tables_number	1
_symmetry_cell_setting	triclinic
loop_
_symmetry_equiv_pos_as_xyz
  x,y,z
_cell_length_a	15.297475
_cell_length_b	21.295417
_cell_length_c	15.296720
_cell_angle_alpha	99.639335
_cell_angle_beta	91.617114
_cell_angle_gamma	80.331503
loop_
_atom_site_label
_atom_site_type_symbol
_atom_site_fract_x
_atom_site_fract_y
_atom_site_fract_z
Zn1	Zn	1.253322	-0.489899	-0.726527
Zn2	Zn	1.278570	-0.580539	-0.580029
Zn3	Zn	1.132206	-0.454537	-0.554773
Zn4	Zn	1.106797	-0.574351	-0.701159
O5	O	1.192724	-0.524831	-0.640622
O6	O	1.379247	-0.519311	-0.728280
O7	O	1.280354	-0.551615	-0.454106
O8	O	1.148339	-0.371152	-0.577603
O9	O	1.397796	-0.585904	-0.620649
O10	O	1.237323	-0.397133	-0.703790
O11	O	1.172821	-0.459042	-0.435550
O12	O	1.006260	-0.453042	-0.553004
O13	O	1.105034	-0.575358	-0.827097
O14	O	0.987593	-0.541069	-0.660554
O15	O	1.212686	-0.513312	-0.845734
O16	O	1.255717	-0.667793	-0.596050
O17	O	1.129516	-0.663248	-0.685044
C18	C	0.965144	-0.492547	-0.601286
C19	C	0.867781	-0.478753	-0.584479
C20	C	1.192620	-0.688363	-0.640558
C21	C	1.192651	-0.758337	-0.640574
C22	C	0.554611	-0.623425	-0.760748
C23	C	0.646089	-0.636390	-0.776537
C24	C	0.701516	-0.596982	-0.728524
C25	C	0.665457	-0.544607	-0.664719
C26	C	0.573971	-0.531644	-0.648924
C27	C	0.720876	-0.505200	-0.616700
C28	C	0.684816	-0.452825	-0.552895
C29	C	0.593339	-0.439865	-0.537103
C30	C	0.537912	-0.479273	-0.585116
C31	C	0.812362	-0.518163	-0.632495
C32	C	0.831721	-0.426382	-0.520671
C33	C	0.740243	-0.413417	-0.504882
C34	C	1.238945	-0.804673	-0.706314
C35	C	1.238973	-0.870423	-0.706341
C36	C	1.192717	-0.889832	-0.640614
C37	C	1.146412	-0.843485	-0.574868
C38	C	1.146379	-0.777737	-0.574848
N39	N	1.199377	-0.984508	-0.562817
N40	N	1.199413	-1.046967	-0.562840
C41	C	1.192812	-1.087925	-0.640671
N42	N	1.186191	-1.064068	-0.718484
N43	N	1.186159	-1.001604	-0.718462
C44	C	1.192747	-0.961123	-0.640629
C45	C	1.239139	-1.205555	-0.706446
C46	C	1.239159	-1.271305	-0.706473
C47	C	1.146605	-1.244366	-0.574993
C48	C	1.146578	-1.178618	-0.574973
C49	C	1.192850	-1.159217	-0.640699
C50	C	1.421192	-0.557242	-0.680112
C51	C	1.518552	-0.571054	-0.696940
C52	C	1.153209	-0.547589	-0.869086
C53	C	1.136371	-0.557287	-0.966444
C54	C	1.192849	-0.360667	-0.640709
C55	C	1.192902	-0.290710	-0.640746
C56	C	1.313105	-0.455413	-1.279696
C57	C	1.328932	-0.446303	-1.188224
C58	C	1.280793	-0.474048	-1.132775
C59	C	1.216825	-0.510905	-1.168805
C60	C	1.201002	-0.520020	-1.260287
C61	C	1.168689	-0.538655	-1.113366
C62	C	1.104721	-0.575512	-1.149396
C63	C	1.088901	-0.584625	-1.240869
C64	C	1.137040	-0.556880	-1.296318
C65	C	1.184512	-0.529540	-1.021884
C66	C	1.072409	-0.594147	-1.002475
C67	C	1.056583	-0.603257	-1.093947
C68	C	1.232135	-0.502124	-0.413055
C69	C	1.249143	-0.492273	-0.315727
H70	H	0.841712	-0.560807	-0.684446
H71	H	1.276857	-1.309033	-0.760011
H72	H	0.509476	-0.655509	-0.799828
H73	H	0.675443	-0.679034	-0.828485
H74	H	1.108748	-0.859292	-0.521354
H75	H	1.293682	-0.466628	-1.058295
H76	H	1.108936	-1.260168	-0.521481
C77	C	0.986226	-0.643802	-1.133584
H78	H	0.959815	-0.659019	-1.087464
H79	H	1.013539	-0.679532	-1.175047
H80	H	0.941906	-0.617859	-1.162683
C81	C	0.437287	-0.465022	-0.567735
H82	H	0.409446	-0.495997	-0.605464
H83	H	0.413967	-0.423007	-0.579410
H84	H	0.426369	-0.467285	-0.507604
C85	C	0.553675	-0.382257	-0.466917
H86	H	0.599784	-0.360639	-0.440589
H87	H	0.524578	-0.397424	-0.422525
H88	H	0.512203	-0.353157	-0.494344
C89	C	1.254866	-0.488998	-0.982255
H90	H	1.257403	-0.487545	-0.919835
H91	H	1.239489	-0.446385	-0.995058
H92	H	1.311121	-0.508059	-1.007416
C93	C	1.366047	-0.424896	-1.340688
H94	H	1.347457	-0.435601	-1.400326
H95	H	1.427487	-0.440961	-1.335867
H96	H	1.355846	-0.379292	-1.323506
H97	H	0.776001	-0.607540	-0.741383
C98	C	1.289909	-0.921402	-0.778651
H99	H	1.317467	-0.900431	-0.817787
H100	H	1.249797	-0.946109	-0.811003
H101	H	1.333905	-0.949110	-0.751766
C102	C	0.700576	-0.355810	-0.434697
H103	H	0.746681	-0.334191	-0.408366
H104	H	0.671476	-0.370978	-0.390308
H105	H	0.659105	-0.326712	-0.462128
H106	H	1.033212	-0.616741	-0.957328
C107	C	1.399287	-0.405762	-1.148595
H108	H	1.425686	-0.390539	-1.194717
H109	H	1.443605	-0.431698	-1.119494
H110	H	1.371970	-0.370026	-1.107134
H111	H	0.876851	-0.394293	-0.481574
C112	C	1.018542	-0.625169	-1.280502
H113	H	0.992132	-0.640383	-1.234379
H114	H	1.045852	-0.660901	-1.321964
H115	H	0.974222	-0.599227	-1.309601
C116	C	1.095459	-0.726765	-0.502526
H117	H	1.067916	-0.747738	-0.463381
H118	H	1.051467	-0.699046	-0.529390
H119	H	1.135590	-0.702068	-0.470175
C120	C	1.289842	-0.783335	-0.778610
H121	H	1.317414	-0.820353	-0.817769
H122	H	1.333808	-0.759754	-0.751724
H123	H	1.249694	-0.756741	-0.810951
H124	H	1.276813	-1.189759	-0.759966
C125	C	1.119633	-0.566905	-1.396939
H126	H	1.074643	-0.592829	-1.410458
H127	H	1.172570	-0.587868	-1.427397
H128	H	1.100931	-0.526198	-1.415034
C129	C	1.095665	-1.127646	-0.502649
H130	H	1.068126	-1.148620	-0.463502
H131	H	1.051671	-1.099928	-0.529511
H132	H	1.135796	-1.102948	-0.470300
