data_functionalizedCrystal
_audit_creation_method	'MofGen! by Chris Wilmer'
_symmetry_space_group_name_H-M	'P1'
_symmetry_Int_Tables_number	1
_symmetry_cell_setting	triclinic
loop_
_symmetry_equiv_pos_as_xyz
  x,y,z
_cell_length_a	10.868271
_cell_length_b	17.699083
_cell_length_c	17.699083
_cell_angle_alpha	83.283015
_cell_angle_beta	89.993975
_cell_angle_gamma	90.001712
loop_
_atom_site_label
_atom_site_type_symbol
_atom_site_fract_x
_atom_site_fract_y
_atom_site_fract_z
O1	O	0.102152	-1.004076	-0.095712
O2	O	0.602152	-0.504076	0.404288
O3	O	0.102193	-0.783697	-0.108164
O4	O	0.602193	-0.283697	0.391836
O5	O	0.102161	-0.900113	0.008251
O6	O	0.602161	-0.400113	0.508251
O7	O	0.102185	-0.887660	-0.212127
O8	O	0.602185	-0.387660	0.287873
O9	O	-0.102484	-0.900103	0.008256
O10	O	0.397516	-0.400103	0.508256
O11	O	-0.102452	-0.783688	-0.108160
O12	O	0.397548	-0.283688	0.391840
O13	O	-0.102492	-1.004066	-0.095707
O14	O	0.397508	-0.504066	0.404293
Zn15	Zn	-0.134964	-0.893875	-0.101933
Zn16	Zn	0.365036	-0.393875	0.398067
Zn17	Zn	0.134664	-0.893888	-0.101939
Zn18	Zn	0.634664	-0.393888	0.398061
O19	O	-0.102460	-0.887651	-0.212123
O20	O	0.397540	-0.387651	0.287877
C21	C	-0.000124	-0.755495	-0.107716
C22	C	0.499876	-0.255495	0.392284
C23	C	-0.000109	-0.671477	-0.106377
C24	C	0.499891	-0.171477	0.393623
N25	N	-0.318978	-0.893872	-0.101928
N26	N	0.181022	-0.393872	0.398072
C27	C	-0.000162	-0.899662	0.036451
C28	C	0.499838	-0.399662	0.536451
C29	C	-0.000162	-0.898323	0.120469
C30	C	0.499838	-0.398323	0.620469
C31	C	-0.569984	-0.893884	-0.101937
C32	C	-0.069984	-0.393884	0.398063
C33	C	-0.430306	-0.893875	-0.101934
C34	C	0.069694	-0.393875	0.398066
N35	N	0.318678	-0.893897	-0.101937
N36	N	0.818678	-0.393897	0.398063
C37	C	-0.000173	-1.032268	-0.096156
C38	C	0.499827	-0.532268	0.403844
C39	C	-0.000180	-1.116286	-0.097494
C40	C	0.499820	-0.616286	0.402506
C41	C	-0.000102	-0.622856	-0.174710
C42	C	0.499898	-0.122856	0.325290
C43	C	-0.000118	-0.543913	-0.173448
C44	C	0.499882	-0.043913	0.326552
C45	C	-0.000133	-0.513592	-0.103852
C46	C	0.499867	-0.013592	0.396148
C47	C	-0.000143	-0.562219	-0.035513
C48	C	0.499857	-0.062219	0.464487
C49	C	-0.000136	-0.641161	-0.036776
C50	C	0.499864	-0.141161	0.463224
C51	C	-0.000174	-0.243856	-0.030418
C52	C	0.499826	0.256144	0.469582
C53	C	-0.000178	-0.164908	-0.029160
C54	C	0.499822	0.335092	0.470840
C55	C	-0.000156	-0.146608	-0.167090
C56	C	0.499844	0.353392	0.332910
C57	C	-0.000149	-0.225550	-0.168353
C58	C	0.499851	0.274450	0.331647
C59	C	-0.000166	-0.274170	-0.100015
C60	C	0.499834	0.225830	0.399985
C61	C	-0.000151	-0.359769	-0.101384
C62	C	0.499849	0.140231	0.398616
C63	C	-0.000139	-0.427995	-0.102481
C64	C	0.499861	0.072005	0.397519
C65	C	-0.000135	-0.888102	-0.240322
C66	C	0.499865	-0.388102	0.259678
C67	C	-0.000127	-0.889440	-0.324340
C68	C	0.499873	-0.389440	0.175660
C69	C	-0.000176	-0.966656	0.169090
C70	C	0.499824	-0.466656	0.669090
C71	C	-0.000165	-0.965394	0.248033
C72	C	0.499835	-0.465394	0.748033
C73	C	-0.000149	-0.895798	0.278354
C74	C	0.499851	-0.395798	0.778354
C75	C	-0.000131	-0.827459	0.229727
C76	C	0.499869	-0.327459	0.729727
C77	C	-0.000133	-0.828722	0.150785
C78	C	0.499867	-0.328722	0.650785
C79	C	-0.000120	-0.822364	0.548090
C80	C	0.499880	-0.322364	1.048090
C81	C	-0.000121	-0.821106	0.627038
C82	C	0.499879	-0.321106	1.127038
C83	C	-0.000152	-0.959036	0.645338
C84	C	0.499848	-0.459036	1.145338
C85	C	-0.000154	-0.960299	0.566396
C86	C	0.499846	-0.460299	1.066396
C87	C	-0.000130	-0.891961	0.517776
C88	C	0.499870	-0.391961	1.017776
C89	C	-0.000140	-0.893330	0.432177
C90	C	0.499860	-0.393330	0.932177
C91	C	-0.000148	-0.894427	0.363951
C92	C	0.499852	-0.394427	0.863951
H93	H	-0.000111	-0.504328	-0.229092
H94	H	0.499889	-0.004328	0.270908
H95	H	-0.000198	-1.023330	0.144409
H96	H	0.499802	-0.523330	0.644409
C97	C	-0.000173	-1.023478	0.453510
C98	C	0.499827	-0.523478	0.953510
C99	C	-0.000171	-1.036801	0.533067
C100	C	0.499829	-0.536801	1.033067
H101	H	-0.000186	-1.070709	0.432937
H102	H	0.499814	-0.570709	0.932937
H103	H	0.071191	-0.995355	0.436814
H104	H	0.571191	-0.495355	0.936814
H105	H	-0.071538	-0.995345	0.436825
H106	H	0.428462	-0.495345	0.936825
H107	H	0.071200	-1.064929	0.549753
H108	H	0.571200	-0.564929	1.049753
H109	H	-0.071542	-1.064936	0.549770
H110	H	0.428458	-0.564936	1.049770
C111	C	-0.000056	-0.684883	0.601022
C112	C	0.499944	-0.184883	1.101022
C113	C	-0.000087	-0.744600	0.660367
C114	C	0.499913	-0.244600	1.160367
H115	H	-0.000028	-0.637655	0.621601
H116	H	0.499972	-0.137655	1.121601
H117	H	-0.071418	-0.688231	0.570617
H118	H	0.428582	-0.188231	1.070617
H119	H	0.071311	-0.688257	0.570608
H120	H	0.571311	-0.188257	1.070608
H121	H	-0.071460	-0.741228	0.690779
H122	H	0.428540	-0.241228	1.190779
H123	H	0.071282	-0.741250	0.690785
H124	H	0.571282	-0.241250	1.190785
H125	H	-0.000100	-0.766718	0.508512
H126	H	0.499900	-0.266718	1.008512
C127	C	-0.000191	-1.095509	0.655497
C128	C	0.499809	-0.595509	1.155497
C129	C	-0.000165	-1.034158	0.698783
C130	C	0.499835	-0.534158	1.198783
H131	H	-0.000209	-1.141884	0.688492
H132	H	0.499791	-0.641884	1.188492
H133	H	0.071167	-1.093137	0.624322
H134	H	0.571167	-0.593137	1.124322
H135	H	-0.071562	-1.093120	0.624330
H136	H	0.428438	-0.593120	1.124330
H137	H	0.071211	-1.036544	0.729946
H138	H	0.571211	-0.536544	1.229946
H139	H	-0.071530	-1.036531	0.729971
H140	H	0.428470	-0.536531	1.229971
C141	C	-0.000114	-0.769413	0.021644
C142	C	0.499886	-0.269413	0.521644
C143	C	-0.000117	-0.753608	0.097336
C144	C	0.499883	-0.253608	0.597336
H145	H	-0.000092	-0.723039	-0.011351
H146	H	0.499908	-0.223039	0.488649
H147	H	-0.071481	-0.797946	0.012474
H148	H	0.428519	-0.297946	0.512474
H149	H	0.071248	-0.797964	0.012473
H150	H	0.571248	-0.297964	0.512473
H151	H	-0.071484	-0.725063	0.106509
H152	H	0.428516	-0.225063	0.606509
H153	H	0.071258	-0.725064	0.106510
H154	H	0.571258	-0.225064	0.606510
H155	H	-0.000149	-0.107012	-0.222734
H156	H	0.499851	0.392988	0.277266
C157	C	-0.000127	-0.764276	0.342611
C158	C	0.499873	-0.264276	0.842611
C159	C	-0.000117	-0.750956	0.263053
C160	C	0.499883	-0.250956	0.763053
H161	H	-0.000130	-0.717044	0.363182
H162	H	0.499870	-0.217044	0.863182
H163	H	0.071227	-0.792403	0.359301
H164	H	0.571227	-0.292403	0.859301
H165	H	-0.071502	-0.792405	0.359304
H166	H	0.428498	-0.292405	0.859304
H167	H	0.071262	-0.722832	0.246360
H168	H	0.571262	-0.222832	0.746360
H169	H	-0.071479	-0.722818	0.246356
H170	H	0.428521	-0.222818	0.746356
H171	H	-0.000090	-0.647537	-0.231384
H172	H	0.499910	-0.147537	0.268616
H173	H	-0.000173	-0.537526	0.021154
H174	H	0.499827	-0.037526	0.521154
C175	C	0.105069	-0.234236	-0.286315
C176	C	0.605069	0.265764	0.213685
C177	C	-0.000132	-0.258871	-0.244859
C178	C	0.499868	0.241129	0.255141
H179	H	0.105071	-0.254802	-0.333549
H180	H	0.605071	0.245198	0.166451
H181	H	0.176417	-0.250937	-0.258188
H182	H	0.676417	0.249063	0.241812
H183	H	0.105051	-0.180262	-0.295332
H184	H	0.605051	0.319738	0.204668
H185	H	-0.000109	-0.312845	-0.235837
H186	H	0.499891	0.187155	0.264163
H187	H	-0.071498	-0.242175	-0.272992
H188	H	0.428502	0.257825	0.227008
C189	C	-0.000138	-0.651327	0.099693
C190	C	0.499862	-0.151327	0.599693
C191	C	-0.000132	-0.694609	0.038338
C192	C	0.499868	-0.194609	0.538338
H193	H	-0.000131	-0.684324	0.146066
H194	H	0.499869	-0.184324	0.646066
H195	H	-0.071501	-0.620162	0.097320
H196	H	0.428499	-0.120162	0.597320
H197	H	0.071228	-0.620149	0.097308
H198	H	0.571228	-0.120149	0.597308
H199	H	-0.071504	-0.725782	0.040719
H200	H	0.428496	-0.225782	0.540719
H201	H	0.071238	-0.725786	0.040712
H202	H	0.571238	-0.225786	0.540712
C203	C	-0.000228	-0.190924	0.107063
C204	C	0.499772	0.309076	0.607063
C205	C	-0.000206	-0.131579	0.047346
C206	C	0.499794	0.368421	0.547346
H207	H	-0.000252	-0.170345	0.154291
H208	H	0.499748	0.329655	0.654291
H209	H	0.071134	-0.221330	0.103709
H210	H	0.571134	0.278670	0.603709
H211	H	-0.071595	-0.221337	0.103695
H212	H	0.428405	0.278663	0.603695
H213	H	0.071166	-0.101169	0.050712
H214	H	0.571166	0.398831	0.550712
H215	H	-0.071576	-0.101160	0.050702
H216	H	0.428424	0.398840	0.550702
H217	H	-0.000189	-0.283434	0.025228
H218	H	0.499811	0.216566	0.525228
H219	H	-0.000180	-1.021038	0.287618
H220	H	0.499820	-0.521038	0.787618
