data_functionalizedCrystal
_audit_creation_method	'MofGen! by Chris Wilmer'
_symmetry_space_group_name_H-M	'P1'
_symmetry_Int_Tables_number	1
_symmetry_cell_setting	triclinic
loop_
_symmetry_equiv_pos_as_xyz
  x,y,z
_cell_length_a	6.817900
_cell_length_b	7.190334
_cell_length_c	10.773890
_cell_angle_alpha	86.576725
_cell_angle_beta	83.354284
_cell_angle_gamma	119.388224
loop_
_atom_site_label
_atom_site_type_symbol
_atom_site_fract_x
_atom_site_fract_y
_atom_site_fract_z
V1	V	4.187881	0.661566	-0.170615
V2	V	4.687881	1.161566	0.329385
O3	O	4.208836	0.652548	0.010246
O4	O	4.708836	1.152548	0.510246
O5	O	4.103183	0.653603	-0.340270
O6	O	4.603183	1.153603	0.159730
O7	O	4.225769	0.951667	-0.167092
O8	O	4.725769	1.451667	0.332908
O9	O	4.085401	0.352421	-0.164131
O10	O	4.585401	0.852421	0.335869
V11	V	4.665031	0.625008	-0.149088
V12	V	5.165031	1.125008	0.350912
O13	O	4.463118	0.741760	-0.217836
O14	O	4.963118	1.241760	0.282164
O15	O	4.839991	0.544813	-0.101867
O16	O	5.339991	1.044813	0.398133
O17	O	4.526522	0.632971	0.020567
O18	O	5.026522	1.132971	0.520567
O19	O	4.761473	0.634026	-0.329950
O20	O	5.261473	1.134026	0.170050
O21	O	4.884908	0.934153	-0.155573
O22	O	5.384908	1.434153	0.344427
O23	O	4.403936	0.334907	-0.152611
O24	O	4.903936	0.834907	0.347389
C25	C	3.936561	0.642279	-0.381657
C26	C	4.436561	1.142279	0.118343
C27	C	3.949173	0.637702	-0.520346
C28	C	4.449173	1.137702	-0.020346
C29	C	4.129614	0.645655	-0.588185
C30	C	4.629614	1.145655	-0.088185
C31	C	4.142652	0.640925	-0.731528
C32	C	4.642652	1.140925	-0.231528
C33	C	4.092945	1.022487	-0.160745
C34	C	4.592945	1.522487	0.339255
C35	C	4.207071	1.264079	-0.158952
C36	C	4.707071	1.764079	0.341048
C37	C	4.356483	0.644289	0.061947
C38	C	4.856483	1.144289	0.561947
C39	C	4.323113	0.648880	0.200635
C40	C	4.823113	1.148880	0.700635
H41	H	4.274448	0.655979	-0.540145
H42	H	4.774448	1.155979	-0.040145
H43	H	3.804350	0.627402	-0.568389
H44	H	4.304350	1.127402	-0.068389
H45	H	3.997816	0.630625	-0.779566
H46	H	4.497816	1.130625	-0.279566
H47	H	4.467962	0.659201	-0.751331
H48	H	4.967962	1.159201	-0.251331
