data_functionalizedCrystal
_audit_creation_method	'MofGen! by Chris Wilmer'
_symmetry_space_group_name_H-M	'P1'
_symmetry_Int_Tables_number	1
_symmetry_cell_setting	triclinic
loop_
_symmetry_equiv_pos_as_xyz
  x,y,z
_cell_length_a	14.519709
_cell_length_b	14.971486
_cell_length_c	14.048226
_cell_angle_alpha	89.993360
_cell_angle_beta	89.999158
_cell_angle_gamma	83.647137
loop_
_atom_site_label
_atom_site_type_symbol
_atom_site_fract_x
_atom_site_fract_y
_atom_site_fract_z
O1	O	1.223800	0.117253	-0.079037
O2	O	1.723800	0.617253	0.420963
O3	O	0.955315	0.131060	-0.079066
O4	O	1.455315	0.631060	0.420934
O5	O	1.096753	-0.006039	-0.079044
O6	O	1.596753	0.493961	0.420956
O7	O	1.082361	0.254353	-0.079059
O8	O	1.582361	0.754353	0.420941
O9	O	1.096736	-0.006048	0.079277
O10	O	1.596736	0.493952	0.579277
O11	O	0.955298	0.131052	0.079255
O12	O	1.455298	0.631052	0.579255
O13	O	1.223783	0.117245	0.079284
O14	O	1.723783	0.617245	0.579284
Zn15	Zn	1.089538	0.124147	0.104407
Zn16	Zn	1.589538	0.624147	0.604407
Zn17	Zn	1.089560	0.124158	-0.104189
Zn18	Zn	1.589560	0.624158	0.395811
O19	O	1.082344	0.254344	0.079262
O20	O	1.582344	0.754344	0.579262
C21	C	1.096101	-0.039369	0.000116
C22	C	1.596101	0.460631	0.500116
C23	C	1.094172	-0.138667	0.000115
C24	C	1.594172	0.361333	0.500115
C25	C	0.920947	0.130413	0.000091
C26	C	1.420947	0.630413	0.500091
C27	C	0.818567	0.128485	0.000080
C28	C	1.318567	0.628485	0.500080
C29	C	1.177264	-0.195845	0.000125
C30	C	1.677264	0.304155	0.500125
C31	C	1.175446	-0.289146	0.000115
C32	C	1.675446	0.210854	0.500115
C33	C	1.090536	-0.325266	0.000102
C34	C	1.590536	0.174734	0.500102
C35	C	1.007438	-0.268080	0.000090
C36	C	1.507438	0.231920	0.500090
C37	C	1.009257	-0.174781	0.000093
C38	C	1.509257	0.325219	0.500093
C39	C	1.003653	-0.462545	0.000086
C40	C	1.503653	0.037455	0.500086
C41	C	1.001834	-0.555850	0.000085
C42	C	1.501834	-0.055850	0.500085
C43	C	1.169842	-0.576909	0.000108
C44	C	1.669842	-0.076909	0.500108
C45	C	1.171661	-0.483610	0.000111
C46	C	1.671661	0.016390	0.500111
C47	C	1.088563	-0.426431	0.000100
C48	C	1.588563	0.073569	0.500100
C49	C	0.443675	0.121386	0.000123
C50	C	0.943675	0.621386	0.500123
C51	C	0.547982	0.123357	0.000111
C52	C	1.047982	0.623357	0.500111
C53	C	0.631118	0.124935	0.000101
C54	C	1.131118	0.624935	0.500101
C55	C	0.735431	0.126907	0.000090
C56	C	1.235431	0.626907	0.500090
C57	C	1.258151	0.117892	0.000125
C58	C	1.758151	0.617892	0.500125
C59	C	1.360531	0.119820	0.000130
C60	C	1.860531	0.619820	0.500130
C61	C	1.082996	0.287674	0.000100
C62	C	1.582996	0.787674	0.500100
C63	C	1.084925	0.386972	0.000094
C64	C	1.584925	0.886972	0.500094
N65	N	1.089529	0.124139	0.246767
N66	N	1.589529	0.624139	0.746767
N67	N	1.089576	0.124159	-0.246549
N68	N	1.589576	0.624159	0.253451
C69	C	1.152178	0.063457	0.296595
C70	C	1.652178	0.563457	0.796595
C71	C	1.152184	0.063456	0.396253
C72	C	1.652184	0.563456	0.896253
C73	C	1.089545	0.124143	0.446081
C74	C	1.589545	0.624143	0.946081
C75	C	1.026890	0.184829	0.396246
C76	C	1.526890	0.684829	0.896246
C77	C	1.026880	0.184824	0.296590
C78	C	1.526880	0.684824	0.796590
C79	C	1.026916	0.184835	0.603960
C80	C	1.526916	0.684835	1.103960
C81	C	1.026927	0.184841	0.703623
C82	C	1.526927	0.684841	1.203623
C83	C	1.152220	0.063467	0.703623
C84	C	1.652220	0.563467	1.203623
C85	C	1.152211	0.063463	0.603967
C86	C	1.652211	0.563463	1.103967
C87	C	1.089556	0.124150	0.554139
C88	C	1.589556	0.624150	1.054139
H89	H	1.246407	-0.166444	0.000141
H90	H	1.746407	0.333556	0.500141
F91	F	0.917070	-0.306524	0.000066
F92	F	1.417070	0.193476	0.500066
H93	H	1.243107	-0.335698	0.000125
H94	H	1.743107	0.164302	0.500125
F95	F	0.911463	-0.594289	0.000072
F96	F	1.411463	-0.094289	0.500072
F97	F	0.920819	-0.113927	0.000080
F98	F	1.420819	0.386073	0.500080
F99	F	1.218902	-0.001119	0.756657
F100	F	1.718902	0.498881	1.256657
F101	F	1.218852	-0.001132	0.243574
F102	F	1.718852	0.498868	0.743574
F103	F	1.218860	-0.001130	0.449284
F104	F	1.718860	0.498870	0.949284
H105	H	0.975919	0.234258	0.744188
H106	H	1.475919	0.734258	1.244188
F107	F	1.218882	-0.001121	0.550936
F108	F	1.718882	0.498879	1.050936
F109	F	0.960228	0.249424	0.550934
F110	F	1.460228	0.749424	1.050934
F111	F	0.960219	0.249414	0.449277
F112	F	1.460219	0.749414	0.949277
H113	H	0.935985	-0.415991	0.000075
H114	H	1.435985	0.084009	0.500075
H115	H	1.237504	-0.623470	0.000114
H116	H	1.737504	-0.123470	0.500114
F117	F	1.262032	-0.445171	0.000122
F118	F	1.762032	0.054829	0.500122
F119	F	0.960197	0.249409	0.243561
F120	F	1.460197	0.749409	0.743561
