data_functionalizedCrystal
_audit_creation_method	'MofGen! by Chris Wilmer'
_symmetry_space_group_name_H-M	'P1'
_symmetry_Int_Tables_number	1
_symmetry_cell_setting	triclinic
loop_
_symmetry_equiv_pos_as_xyz
  x,y,z
_cell_length_a	18.101398
_cell_length_b	18.101397
_cell_length_c	13.032268
_cell_angle_alpha	97.143420
_cell_angle_beta	97.156841
_cell_angle_gamma	90.018196
loop_
_atom_site_label
_atom_site_type_symbol
_atom_site_fract_x
_atom_site_fract_y
_atom_site_fract_z
Zn1	Zn	1.078969	-0.348033	-0.590978
Zn2	Zn	1.578969	0.151967	-0.090978
Zn3	Zn	1.094621	-0.456163	-0.416229
Zn4	Zn	1.594621	0.043837	0.083771
Zn5	Zn	0.970860	-0.332336	-0.416239
Zn6	Zn	1.470860	0.167664	0.083761
Zn7	Zn	0.955109	-0.471824	-0.590894
Zn8	Zn	1.455109	0.028176	-0.090894
O9	O	1.024890	-0.402089	-0.503585
O10	O	1.524890	0.097911	-0.003585
O11	O	1.184675	-0.362391	-0.567828
O12	O	1.684675	0.137609	-0.067828
O13	O	1.091346	-0.426613	-0.270004
O14	O	1.591346	0.073387	0.229996
O15	O	0.985242	-0.230789	-0.439458
O16	O	1.485242	0.269211	0.060542
O17	O	1.196175	-0.441834	-0.439441
O18	O	1.696175	0.058166	0.060559
O19	O	1.064669	-0.242321	-0.567838
O20	O	1.564669	0.257679	-0.067838
O21	O	1.000419	-0.335638	-0.270011
O22	O	1.500419	0.164362	0.229989
O23	O	0.865140	-0.350824	-0.439377
O24	O	1.365140	0.149176	0.060623
O25	O	0.958397	-0.468527	-0.737132
O26	O	1.458397	0.031473	-0.237132
O27	O	0.853568	-0.453306	-0.567695
O28	O	1.353568	0.046694	-0.067695
O29	O	1.049396	-0.377578	-0.737194
O30	O	1.549396	0.122422	-0.237194
O31	O	1.076073	-0.561870	-0.439359
O32	O	1.576073	-0.061870	0.060641
O33	O	0.973574	-0.573376	-0.567685
O34	O	1.473574	-0.073376	-0.067685
C35	C	0.832484	-0.402062	-0.503528
C36	C	1.332484	0.097938	-0.003528
C37	C	0.750170	-0.402071	-0.503529
C38	C	1.250170	0.097929	-0.003529
C39	C	0.599457	-0.402090	-0.503576
C40	C	1.099457	0.097910	-0.003576
C41	C	0.575348	-0.337541	-0.422976
C42	C	1.075348	0.162459	0.077024
C43	C	0.489706	-0.337349	-0.423241
C44	C	0.989706	0.162651	0.076759
C45	C	0.451071	-0.402109	-0.503620
C46	C	0.951071	0.097891	-0.003620
C47	C	0.472281	-0.391192	-0.613871
C48	C	0.972281	0.108808	-0.113871
C49	C	0.557970	-0.390724	-0.613379
C50	C	1.057970	0.109276	-0.113379
C51	C	0.570450	-0.477791	-0.474897
C52	C	1.070450	0.022209	0.025103
C53	C	0.485015	-0.477162	-0.472495
C54	C	0.985015	0.022838	0.027505
C55	C	0.367208	-0.402121	-0.503652
C56	C	0.867208	0.097879	-0.003652
C57	C	0.683319	-0.402076	-0.503551
C58	C	1.183319	0.097924	-0.003551
C59	C	1.024831	-0.594495	-0.503534
C60	C	1.524831	-0.094495	-0.003534
C61	C	1.024870	-0.676810	-0.503548
C62	C	1.524870	-0.176810	-0.003548
C63	C	1.024956	-0.975910	-0.503643
C64	C	1.524956	-0.475910	-0.003643
C65	C	1.089305	-0.937295	-0.422688
C66	C	1.589305	-0.437295	0.077312
C67	C	1.089484	-0.851695	-0.422898
C68	C	1.589484	-0.351695	0.077102
C69	C	1.024914	-0.827523	-0.503595
C70	C	1.524914	-0.327523	-0.003595
C71	C	1.036153	-0.868437	-0.613742
C72	C	1.536153	-0.368437	-0.113742
C73	C	1.036634	-0.954042	-0.613301
C74	C	1.536634	-0.454042	-0.113301
C75	C	0.949130	-0.941876	-0.475405
C76	C	1.449130	-0.441876	0.024595
C77	C	0.949738	-0.856005	-0.472946
C78	C	1.449738	-0.356005	0.027054
C79	C	1.024888	-0.743661	-0.503574
C80	C	1.524888	-0.243661	-0.003574
C81	C	1.024983	-1.059772	-0.503671
C82	C	1.524983	-0.559772	-0.003671
C83	C	1.218046	-0.402116	-0.503643
C84	C	1.718046	0.097884	-0.003643
C85	C	1.300358	-0.402128	-0.503667
C86	C	1.800358	0.097872	-0.003667
C87	C	1.000394	-0.426550	-0.776138
C88	C	1.500394	0.073450	-0.276138
C89	C	0.989955	-0.436974	-0.892284
C90	C	1.489955	0.063026	-0.392284
C91	C	1.024967	-0.208934	-0.503659
C92	C	1.524967	0.291066	-0.003659
C93	C	1.025000	-0.126622	-0.503690
C94	C	1.525000	0.373378	-0.003690
C95	C	1.030326	-0.396622	-0.944096
C96	C	1.530326	0.103378	-0.444096
C97	C	1.019538	-0.407395	-1.064138
C98	C	1.519538	0.092605	-0.564138
C99	C	1.049333	-0.377669	-0.232093
C100	C	1.549333	0.122331	0.267907
C101	C	1.059915	-0.367037	-0.115948
C102	C	1.559915	0.132963	0.384052
H103	H	0.458739	-0.527009	-0.526880
H104	H	0.958739	-0.027009	-0.026880
O105	O	0.975408	-0.848845	-0.695803
O106	O	1.475408	-0.348845	-0.195803
H107	H	0.936471	-0.809643	-0.658863
H108	H	1.436471	-0.309643	-0.158863
H109	H	0.446391	-0.437206	-0.675587
H110	H	0.946391	0.062794	-0.175587
H111	H	1.102463	-0.324507	-1.071440
H112	H	1.602463	0.175493	-0.571440
O113	O	1.082132	-0.954857	-0.314058
O114	O	1.582132	-0.454857	0.185942
H115	H	1.132853	-0.983756	-0.283967
H116	H	1.632853	-0.483756	0.216033
H117	H	0.947401	-0.479492	-0.936797
H118	H	1.447401	0.020508	-0.436797
H119	H	0.476009	-0.342995	-0.341505
H120	H	0.976009	0.157005	0.158495
O121	O	1.086688	-0.340293	-0.885140
O122	O	1.586688	0.159707	-0.385140
H123	H	1.114616	-0.312369	-0.941354
H124	H	1.614616	0.187631	-0.441354
H125	H	0.976981	-0.449915	-1.108647
H126	H	1.476981	0.050085	-0.608647
O127	O	1.081693	-0.814187	-0.314718
O128	O	1.581693	-0.314187	0.185282
H129	H	1.131034	-0.777611	-0.285759
H130	H	1.631034	-0.277611	0.214241
O131	O	0.612364	-0.344761	-0.314349
O132	O	1.112364	0.155239	0.185651
H133	H	0.648345	-0.394430	-0.316640
H134	H	1.148345	0.105570	0.183360
O135	O	1.163581	-0.967921	-0.447161
O136	O	1.663581	-0.467921	0.052839
H137	H	1.164031	-1.028816	-0.443163
H138	H	1.664031	-0.528816	0.056837
O139	O	0.601634	-0.263377	-0.447858
O140	O	1.101634	0.236623	0.052142
H141	H	0.631793	-0.272289	-0.517383
H142	H	1.131793	0.227711	-0.017383
H143	H	0.467518	-0.281061	-0.442282
H144	H	0.967518	0.218939	0.057718
O145	O	0.581575	-0.317826	-0.645467
O146	O	1.081575	0.182174	-0.145467
H147	H	0.531801	-0.283238	-0.661186
H148	H	1.031801	0.216762	-0.161186
H149	H	0.573129	-0.436249	-0.675512
H150	H	1.073129	0.063751	-0.175512
H151	H	1.090606	-0.849119	-0.638065
H152	H	1.590606	-0.349119	-0.138065
O153	O	0.933047	-0.961148	-0.370849
O154	O	1.433047	-0.461148	0.129151
H155	H	0.978926	-0.995203	-0.337842
H156	H	1.478926	-0.495203	0.162158
H157	H	0.599132	-0.489705	-0.395844
H158	H	1.099132	0.010295	0.104156
O159	O	0.440965	-0.319184	-0.646553
O160	O	0.940965	0.180816	-0.146553
H161	H	0.410287	-0.291068	-0.584458
H162	H	0.910287	0.208932	-0.084458
O163	O	0.467732	-0.488323	-0.365019
O164	O	0.967732	0.011677	0.134981
H165	H	0.435099	-0.440621	-0.333892
H166	H	0.935099	0.059379	0.166108
H167	H	1.091765	-0.976115	-0.637220
H168	H	1.591765	-0.476115	-0.137220
O169	O	0.590326	-0.541336	-0.552638
O170	O	1.090326	-0.041336	-0.052638
H171	H	0.620716	-0.519158	-0.611420
H172	H	1.120716	-0.019158	-0.111420
O173	O	0.938261	-0.819511	-0.365579
O174	O	1.438261	-0.319511	0.134421
H175	H	0.985893	-0.781242	-0.334168
H176	H	1.485893	-0.281242	0.165832
O177	O	1.164149	-0.826700	-0.447647
O178	O	1.664149	-0.326700	0.052353
H179	H	1.200266	-0.875778	-0.459524
H180	H	1.700266	-0.375778	0.040476
H181	H	0.991276	-0.980379	-0.675698
H182	H	1.491276	-0.480379	-0.175698
O183	O	0.883871	-0.834183	-0.545320
O184	O	1.383871	-0.334183	-0.045320
H185	H	0.889276	-0.858813	-0.626343
H186	H	1.389276	-0.358813	-0.126343
O187	O	0.885758	-0.975875	-0.553348
O188	O	1.385758	-0.475875	-0.053348
H189	H	0.908112	-1.016798	-0.611938
H190	H	1.408112	-0.516798	-0.111938
