data_functionalizedCrystal
_audit_creation_method	'MofGen! by Chris Wilmer'
_symmetry_space_group_name_H-M	'P1'
_symmetry_Int_Tables_number	1
_symmetry_cell_setting	triclinic
loop_
_symmetry_equiv_pos_as_xyz
  x,y,z
_cell_length_a	9.065215
_cell_length_b	14.044220
_cell_length_c	7.540329
_cell_angle_alpha	89.995368
_cell_angle_beta	89.997574
_cell_angle_gamma	89.101787
loop_
_atom_site_label
_atom_site_type_symbol
_atom_site_fract_x
_atom_site_fract_y
_atom_site_fract_z
O1	O	1.975819	0.139128	-0.147468
O2	O	2.309153	0.472461	0.185866
O3	O	2.642486	0.805794	0.519199
O4	O	1.547799	0.150544	-0.147476
O5	O	1.881132	0.483877	0.185857
O6	O	2.214466	0.817210	0.519191
O7	O	1.755385	0.006796	-0.147454
O8	O	2.088718	0.340129	0.185879
O9	O	2.422051	0.673463	0.519212
O10	O	1.768234	0.282875	-0.147489
O11	O	2.101567	0.616209	0.185844
O12	O	2.434900	0.949542	0.519177
O13	O	1.755371	0.006794	0.147511
O14	O	2.088704	0.340127	0.480844
O15	O	2.422038	0.673461	0.814177
O16	O	1.547785	0.150542	0.147489
O17	O	1.881119	0.483875	0.480822
O18	O	2.214452	0.817208	0.814156
O19	O	1.975806	0.139126	0.147497
O20	O	2.309139	0.472459	0.480831
O21	O	2.642472	0.805793	0.814164
Cu22	Cu	1.761794	0.144834	0.174426
Cu23	Cu	2.095128	0.478167	0.507759
Cu24	Cu	2.428461	0.811500	0.841092
Cu25	Cu	1.761810	0.144836	-0.174405
Cu26	Cu	2.095144	0.478169	0.158929
Cu27	Cu	2.428477	0.811502	0.492262
O28	O	1.768220	0.282873	0.147476
O29	O	2.101553	0.616207	0.480809
O30	O	2.434887	0.949540	0.814142
C31	C	1.492684	0.149446	0.000005
C32	C	1.826017	0.482780	0.333339
C33	C	2.159351	0.816113	0.666672
C34	C	1.328478	0.146168	0.000003
C35	C	1.661811	0.479501	0.333336
C36	C	1.995144	0.812834	0.666669
C37	C	1.749753	-0.028568	0.000029
C38	C	2.083087	0.304766	0.333362
C39	C	2.416420	0.638099	0.666695
C40	C	1.732976	-0.133937	0.000030
C41	C	2.066310	0.199396	0.333364
C42	C	2.399643	0.532729	0.666697
C43	C	1.702304	-0.326862	0.000004
C44	C	2.035638	0.006471	0.333338
C45	C	2.368971	0.339805	0.666671
C46	C	1.821294	-0.383474	0.000001
C47	C	2.154627	-0.050141	0.333335
C48	C	2.487960	0.283192	0.666668
C49	C	1.804227	-0.490824	-0.000013
C50	C	2.137561	-0.157491	0.333320
C51	C	2.470894	0.175842	0.666653
C52	C	1.719368	-0.219502	0.000019
C53	C	2.052702	0.113831	0.333352
C54	C	2.386035	0.447165	0.666686
C55	C	2.030921	0.140223	0.000012
C56	C	2.364254	0.473557	0.333345
C57	C	2.697587	0.806890	0.666679
C58	C	2.195127	0.143502	0.000003
C59	C	2.528460	0.476835	0.333336
C60	C	2.861794	0.810169	0.666670
C61	C	1.773851	0.318237	-0.000011
C62	C	2.107185	0.651570	0.333322
C63	C	2.440518	0.984904	0.666655
C64	C	1.790628	0.423607	-0.000025
C65	C	2.123962	0.756940	0.333309
C66	C	2.457295	1.090274	0.666642
N67	N	1.761793	0.144832	0.419774
N68	N	2.095127	0.478165	0.753108
N69	N	2.428460	0.811498	1.086441
N70	N	1.761822	0.144830	-0.419753
N71	N	2.095155	0.478164	-0.086420
N72	N	2.428488	0.811497	0.246914
H73	H	1.587627	-0.359015	-0.000002
H74	H	1.920960	-0.025682	0.333331
H75	H	2.254293	0.307652	0.666664
H76	H	1.935981	-0.351319	-0.000115
H77	H	2.269314	-0.017986	0.333218
H78	H	2.602647	0.315347	0.666551
