data_functionalizedCrystal
_audit_creation_method	'MofGen! by Chris Wilmer'
_symmetry_space_group_name_H-M	'P1'
_symmetry_Int_Tables_number	1
_symmetry_cell_setting	triclinic
loop_
_symmetry_equiv_pos_as_xyz
  x,y,z
_cell_length_a	6.817900
_cell_length_b	16.254084
_cell_length_c	11.168152
_cell_angle_alpha	94.841271
_cell_angle_beta	108.508980
_cell_angle_gamma	100.694317
loop_
_atom_site_label
_atom_site_type_symbol
_atom_site_fract_x
_atom_site_fract_y
_atom_site_fract_z
V1	V	4.070540	0.115900	0.394162
O2	O	4.071356	-0.005556	0.386183
O3	O	4.008161	0.229799	0.391923
O4	O	4.047435	0.114123	0.565860
O5	O	4.031811	0.110920	0.211042
V6	V	4.552701	0.101372	0.372203
O7	O	4.334785	0.147770	0.442329
O8	O	4.738654	0.069503	0.324036
O9	O	4.391873	-0.012526	0.374442
O10	O	4.669282	0.222829	0.380182
O11	O	4.708827	0.106353	0.555324
O12	O	4.352599	0.103149	0.200505
C13	C	4.214432	-0.040287	0.380538
C14	C	4.163218	-0.133400	0.381232
C15	C	3.970186	-0.359589	0.267171
C16	C	3.922051	-0.447077	0.267832
C17	C	4.072432	-0.423126	0.499208
C18	C	4.120552	-0.335640	0.498546
C19	C	4.069434	-0.303874	0.382523
C20	C	3.973180	-0.478848	0.383847
C21	C	3.920991	-0.573706	0.384565
C22	C	4.121623	-0.209010	0.381805
C23	C	3.848943	0.257564	0.385823
C24	C	3.879397	0.350678	0.385138
C25	C	3.899040	0.110008	0.607696
C26	C	3.961340	0.109309	0.748063
C27	C	4.164336	0.107267	0.158663
C28	C	4.081274	0.107962	0.018294
C29	C	3.815625	0.105024	0.804517
C30	C	3.880012	0.104301	0.949595
H31	H	3.841234	-0.492437	0.173901
H32	H	3.928553	-0.333729	0.172697
H33	H	4.201366	-0.290273	0.592486
H34	H	4.114047	-0.449000	0.593670
Cl35	Cl	3.549418	0.100194	0.713326
H36	H	3.755364	0.100626	0.998166
Cl37	Cl	4.273741	0.113621	0.943316
H38	H	4.133761	0.112447	0.807137
