data_functionalizedCrystal
_audit_creation_method	'MofGen! by Chris Wilmer'
_symmetry_space_group_name_H-M	'P1'
_symmetry_Int_Tables_number	1
_symmetry_cell_setting	triclinic
loop_
_symmetry_equiv_pos_as_xyz
  x,y,z
_cell_length_a	18.050591
_cell_length_b	18.050589
_cell_length_c	21.395355
_cell_angle_alpha	89.987098
_cell_angle_beta	89.970606
_cell_angle_gamma	90.024669
loop_
_atom_site_label
_atom_site_type_symbol
_atom_site_fract_x
_atom_site_fract_y
_atom_site_fract_z
Zn1	Zn	1.135363	-0.295816	-0.354367
Zn2	Zn	1.385363	-0.045816	-0.104367
Zn3	Zn	1.635363	0.204184	0.145633
Zn4	Zn	1.885363	0.454184	0.395633
Zn5	Zn	1.135253	-0.419988	-0.249600
Zn6	Zn	1.385253	-0.169988	0.000400
Zn7	Zn	1.635253	0.080012	0.250400
Zn8	Zn	1.885253	0.330012	0.500400
Zn9	Zn	1.011161	-0.295808	-0.249595
Zn10	Zn	1.261161	-0.045808	0.000405
Zn11	Zn	1.511161	0.204192	0.250405
Zn12	Zn	1.761161	0.454192	0.500405
Zn13	Zn	1.011130	-0.419961	-0.354331
Zn14	Zn	1.261130	-0.169961	-0.104331
Zn15	Zn	1.511130	0.080039	0.145669
Zn16	Zn	1.761130	0.330039	0.395669
O17	O	1.073227	-0.357893	-0.301973
O18	O	1.323227	-0.107893	-0.051973
O19	O	1.573227	0.142107	0.198027
O20	O	1.823227	0.392107	0.448027
O21	O	1.239273	-0.312302	-0.340486
O22	O	1.489273	-0.062302	-0.090486
O23	O	1.739273	0.187698	0.159514
O24	O	1.989273	0.437698	0.409514
O25	O	1.118759	-0.403523	-0.161921
O26	O	1.368759	-0.153523	0.088079
O27	O	1.618759	0.096477	0.338079
O28	O	1.868759	0.346477	0.588079
O29	O	1.027696	-0.191885	-0.263506
O30	O	1.277696	0.058115	-0.013506
O31	O	1.527696	0.308115	0.236494
O32	O	1.777696	0.558115	0.486494
O33	O	1.239192	-0.403530	-0.263514
O34	O	1.489192	-0.153530	-0.013514
O35	O	1.739192	0.096470	0.236486
O36	O	1.989192	0.346470	0.486486
O37	O	1.118947	-0.191890	-0.340481
O38	O	1.368947	0.058110	-0.090481
O39	O	1.618947	0.308110	0.159519
O40	O	1.868947	0.558110	0.409519
O41	O	1.027589	-0.312289	-0.161917
O42	O	1.277589	-0.062289	0.088083
O43	O	1.527589	0.187711	0.338083
O44	O	1.777589	0.437711	0.588083
O45	O	0.907233	-0.312263	-0.263471
O46	O	1.157233	-0.062263	-0.013471
O47	O	1.407233	0.187737	0.236529
O48	O	1.657233	0.437737	0.486529
O49	O	1.027643	-0.403485	-0.442014
O50	O	1.277643	-0.153485	-0.192014
O51	O	1.527643	0.096515	0.057986
O52	O	1.777643	0.346515	0.307986
O53	O	0.907210	-0.403477	-0.340420
O54	O	1.157210	-0.153477	-0.090420
O55	O	1.407210	0.096523	0.159580
O56	O	1.657210	0.346523	0.409580
O57	O	1.118916	-0.312276	-0.442040
O58	O	1.368916	-0.062276	-0.192040
O59	O	1.618916	0.187724	0.057960
O60	O	1.868916	0.437724	0.307960
O61	O	1.118729	-0.523909	-0.263479
O62	O	1.368729	-0.273909	-0.013479
O63	O	1.618729	-0.023909	0.236521
O64	O	1.868729	0.226091	0.486521
O65	O	1.027536	-0.523889	-0.340425
O66	O	1.277536	-0.273889	-0.090425
O67	O	1.527536	-0.023889	0.159575
O68	O	1.777536	0.226111	0.409575
C69	C	0.880275	-0.357867	-0.301942
C70	C	1.130275	-0.107867	-0.051942
C71	C	1.380275	0.142133	0.198058
C72	C	1.630275	0.392133	0.448058
C73	C	0.797729	-0.357874	-0.301943
C74	C	1.047729	-0.107874	-0.051943
C75	C	1.297729	0.142126	0.198057
C76	C	1.547729	0.392126	0.448057
C77	C	1.073137	-0.550845	-0.301963
C78	C	1.323137	-0.300845	-0.051963
C79	C	1.573137	-0.050845	0.198037
C80	C	1.823137	0.199155	0.448037
C81	C	1.073167	-0.633391	-0.301979
C82	C	1.323167	-0.383391	-0.051979
C83	C	1.573167	-0.133391	0.198021
C84	C	1.823167	0.116609	0.448021
C85	C	0.548894	-0.308220	-0.260197
C86	C	0.798894	-0.058220	-0.010197
C87	C	1.048894	0.191780	0.239803
C88	C	1.298894	0.441780	0.489803
C89	C	0.598338	-0.290145	-0.317376
C90	C	0.848338	-0.040145	-0.067376
C91	C	1.098338	0.209855	0.182624
C92	C	1.348338	0.459855	0.432624
C93	C	0.500609	-0.357912	-0.301994
C94	C	0.750609	-0.107912	-0.051994
C95	C	1.000609	0.142088	0.198006
C96	C	1.250609	0.392088	0.448006
C97	C	0.598247	-0.375933	-0.244793
C98	C	0.848247	-0.125933	0.005207
C99	C	1.098247	0.124067	0.255207
C100	C	1.348247	0.374067	0.505207
C101	C	0.646594	-0.357891	-0.301966
C102	C	0.896594	-0.107891	-0.051966
C103	C	1.146594	0.142109	0.198034
C104	C	1.396594	0.392109	0.448034
C105	C	0.548965	-0.339802	-0.359204
C106	C	0.798965	-0.089802	-0.109204
C107	C	1.048965	0.160198	0.140796
C108	C	1.298965	0.410198	0.390796
C109	C	0.548870	-0.425621	-0.286582
C110	C	0.798870	-0.175621	-0.036582
C111	C	1.048870	0.074379	0.213418
C112	C	1.298870	0.324379	0.463418
C113	C	0.598291	-0.407572	-0.343801
C114	C	0.848291	-0.157572	-0.093801
C115	C	1.098291	0.092428	0.156199
C116	C	1.348291	0.342428	0.406199
C117	C	0.416510	-0.357922	-0.302010
C118	C	0.666510	-0.107922	-0.052010
C119	C	0.916510	0.142078	0.197990
C120	C	1.166510	0.392078	0.447990
C121	C	0.730690	-0.357881	-0.301957
C122	C	0.980690	-0.107881	-0.051957
C123	C	1.230690	0.142119	0.198043
C124	C	1.480690	0.392119	0.448043
C125	C	1.023625	-0.832858	-0.343807
C126	C	1.273625	-0.582858	-0.093807
C127	C	1.523625	-0.332858	0.156193
C128	C	1.773625	-0.082858	0.406193
C129	C	1.005516	-0.882285	-0.286633
C130	C	1.255516	-0.632285	-0.036633
C131	C	1.505516	-0.382285	0.213367
C132	C	1.755516	-0.132285	0.463367
C133	C	1.073240	-0.784521	-0.301987
C134	C	1.323240	-0.534521	-0.051987
C135	C	1.573240	-0.284521	0.198013
C136	C	1.823240	-0.034521	0.448013
C137	C	1.091386	-0.882177	-0.359168
C138	C	1.341386	-0.632177	-0.109168
C139	C	1.591386	-0.382177	0.140832
C140	C	1.841386	-0.132177	0.390832
C141	C	1.073309	-0.930506	-0.302000
C142	C	1.323309	-0.680506	-0.052000
C143	C	1.573309	-0.430506	0.198000
C144	C	1.823309	-0.180506	0.448000
C145	C	1.055095	-0.832861	-0.244783
C146	C	1.305095	-0.582861	0.005217
C147	C	1.555095	-0.332861	0.255217
C148	C	1.805095	-0.082861	0.505217
C149	C	1.140996	-0.832748	-0.317356
C150	C	1.390996	-0.582748	-0.067356
C151	C	1.640996	-0.332748	0.182644
C152	C	1.890996	-0.082748	0.432644
C153	C	1.122913	-0.882153	-0.260142
C154	C	1.372913	-0.632153	-0.010142
C155	C	1.622913	-0.382153	0.239858
C156	C	1.872913	-0.132153	0.489858
C157	C	1.073198	-0.700423	-0.301981
C158	C	1.323198	-0.450423	-0.051981
C159	C	1.573198	-0.200423	0.198019
C160	C	1.823198	0.049577	0.448019
C161	C	1.073351	-1.014603	-0.302000
C162	C	1.323351	-0.764603	-0.052000
C163	C	1.573351	-0.514603	0.198000
C164	C	1.823351	-0.264603	0.448000
C165	C	1.266933	-0.357920	-0.302005
C166	C	1.516933	-0.107920	-0.052005
C167	C	1.766933	0.142080	0.197995
C168	C	2.016933	0.392080	0.447995
C169	C	1.349478	-0.357931	-0.302018
C170	C	1.599478	-0.107931	-0.052018
C171	C	1.849478	0.142069	0.197982
C172	C	2.099478	0.392069	0.447982
C173	C	1.073289	-0.357878	-0.465396
C174	C	1.323289	-0.107878	-0.215396
C175	C	1.573289	0.142122	0.034604
C176	C	1.823289	0.392122	0.284604
C177	C	1.073315	-0.357872	-0.535038
C178	C	1.323315	-0.107872	-0.285038
C179	C	1.573315	0.142128	-0.035038
C180	C	1.823315	0.392128	0.214962
C181	C	1.073337	-0.164188	-0.301997
C182	C	1.323337	0.085812	-0.051997
C183	C	1.573337	0.335812	0.198003
C184	C	1.823337	0.585812	0.448003
C185	C	1.073384	-0.081642	-0.302007
C186	C	1.323384	0.168358	-0.052007
C187	C	1.573384	0.418358	0.197993
C188	C	1.823384	0.668358	0.447993
C189	C	1.120839	-0.310377	-0.567765
C190	C	1.370839	-0.060377	-0.317765
C191	C	1.620839	0.189623	-0.067765
C192	C	1.870839	0.439623	0.182235
C193	C	1.120838	-0.310345	-0.633201
C194	C	1.370838	-0.060345	-0.383201
C195	C	1.620838	0.189655	-0.133201
C196	C	1.870838	0.439655	0.116799
C197	C	1.073321	-0.357821	-0.665906
C198	C	1.323321	-0.107821	-0.415906
C199	C	1.573321	0.142179	-0.165906
C200	C	1.823321	0.392179	0.084094
C201	C	1.025787	-0.405319	-0.633170
C202	C	1.275787	-0.155319	-0.383170
C203	C	1.525787	0.094681	-0.133170
C204	C	1.775787	0.344681	0.116830
C205	C	1.025785	-0.405344	-0.567736
C206	C	1.275785	-0.155344	-0.317736
C207	C	1.525785	0.094656	-0.067736
C208	C	1.775785	0.344656	0.182264
C209	C	1.067426	-0.424690	-0.769577
C210	C	1.317426	-0.174690	-0.519577
C211	C	1.567426	0.075310	-0.269577
C212	C	1.817426	0.325310	-0.019577
C213	C	1.067434	-0.424666	-0.835010
C214	C	1.317434	-0.174666	-0.585010
C215	C	1.567434	0.075334	-0.335010
C216	C	1.817434	0.325334	-0.085010
C217	C	1.073325	-0.357743	-0.867727
C218	C	1.323325	-0.107743	-0.617727
C219	C	1.573325	0.142257	-0.367727
C220	C	1.823325	0.392257	-0.117727
C221	C	1.079224	-0.290842	-0.835003
C222	C	1.329224	-0.040842	-0.585003
C223	C	1.579224	0.209158	-0.335003
C224	C	1.829224	0.459158	-0.085003
C225	C	1.079221	-0.290867	-0.769569
C226	C	1.329221	-0.040867	-0.519569
C227	C	1.579221	0.209133	-0.269569
C228	C	1.829221	0.459133	-0.019569
C229	C	1.073318	-0.357799	-0.736858
C230	C	1.323318	-0.107799	-0.486858
C231	C	1.573318	0.142201	-0.236858
C232	C	1.823318	0.392201	0.013142
C233	C	1.120851	-0.310210	-0.971407
C234	C	1.370851	-0.060210	-0.721407
C235	C	1.620851	0.189790	-0.471407
C236	C	1.870851	0.439790	-0.221407
C237	C	1.120844	-0.310176	-1.036844
C238	C	1.370844	-0.060176	-0.786844
C239	C	1.620844	0.189824	-0.536844
C240	C	1.870844	0.439824	-0.286844
C241	C	1.025798	-0.405157	-1.036812
C242	C	1.275798	-0.155157	-0.786812
C243	C	1.525798	0.094843	-0.536812
C244	C	1.775798	0.344843	-0.286812
C245	C	1.025800	-0.405183	-0.971377
C246	C	1.275800	-0.155183	-0.721377
C247	C	1.525800	0.094817	-0.471377
C248	C	1.775800	0.344817	-0.221377
C249	C	1.073331	-0.357711	-0.938678
C250	C	1.323331	-0.107711	-0.688678
C251	C	1.573331	0.142289	-0.438678
C252	C	1.823331	0.392289	-0.188678
C253	C	1.073208	-0.357855	-0.139185
C254	C	1.323208	-0.107855	0.110815
C255	C	1.573208	0.142145	0.360815
C256	C	1.823208	0.392145	0.610815
C257	C	1.073326	-0.357652	-0.069544
C258	C	1.323326	-0.107652	0.180456
C259	C	1.573326	0.142348	0.430456
C260	C	1.823326	0.392348	0.680456
H261	H	0.527208	-0.266174	-0.224906
H262	H	0.777208	-0.016174	0.025094
H263	H	1.027208	0.233826	0.275094
H264	H	1.277208	0.483826	0.525094
H265	H	1.084023	-0.236394	-0.742928
H266	H	1.334023	0.013606	-0.492928
H267	H	1.584023	0.263606	-0.242928
H268	H	1.834023	0.513606	0.007072
F269	F	0.626546	-0.395867	-0.181580
F270	F	0.876546	-0.145867	0.068420
F271	F	1.126546	0.104133	0.318420
F272	F	1.376546	0.354133	0.568420
F273	F	1.111410	-0.910494	-0.422367
F274	F	1.361410	-0.660494	-0.172367
F275	F	1.611410	-0.410494	0.077633
F276	F	1.861410	-0.160494	0.327633
H277	H	1.159549	-0.271551	-0.944783
H278	H	1.409549	-0.021551	-0.694783
H279	H	1.659549	0.228449	-0.444783
H280	H	1.909549	0.478449	-0.194783
H281	H	1.159541	-0.271721	-0.541146
H282	H	1.409541	-0.021721	-0.291146
H283	H	1.659541	0.228279	-0.041146
H284	H	1.909541	0.478279	0.208854
F285	F	1.034986	-0.804667	-0.181564
F286	F	1.284986	-0.554667	0.068436
F287	F	1.534986	-0.304667	0.318436
F288	F	1.784986	-0.054667	0.568436
H289	H	0.619842	-0.449586	-0.379176
H290	H	0.869842	-0.199586	-0.129176
H291	H	1.119842	0.050414	0.120824
H292	H	1.369842	0.300414	0.370824
H293	H	0.981606	-0.811212	-0.379123
H294	H	1.231606	-0.561212	-0.129123
H295	H	1.481606	-0.311212	0.120877
H296	H	1.731606	-0.061212	0.370877
H297	H	0.620053	-0.232874	-0.330412
H298	H	0.870053	0.017126	-0.080412
H299	H	1.120053	0.267126	0.169588
H300	H	1.370053	0.517126	0.419588
H301	H	0.527126	-0.482873	-0.273537
H302	H	0.777126	-0.232873	-0.023537
H303	H	1.027126	0.017127	0.226463
H304	H	1.277126	0.267127	0.476463
H305	H	0.527406	-0.324484	-0.407581
H306	H	0.777406	-0.074484	-0.157581
H307	H	1.027406	0.175516	0.092419
H308	H	1.277406	0.425516	0.342419
H309	H	0.948249	-0.904060	-0.273646
H310	H	1.198249	-0.654060	-0.023646
H311	H	1.448249	-0.404060	0.226354
H312	H	1.698249	-0.154060	0.476354
H313	H	1.164900	-0.903661	-0.224741
H314	H	1.414900	-0.653661	0.025259
H315	H	1.664900	-0.403661	0.275259
H316	H	1.914900	-0.153661	0.525259
H317	H	1.198250	-0.810975	-0.330371
H318	H	1.448250	-0.560975	-0.080371
H319	H	1.698250	-0.310975	0.169629
H320	H	1.948250	-0.060975	0.419629
F321	F	1.171409	-0.259781	-0.668039
F322	F	1.421409	-0.009781	-0.418039
F323	F	1.671409	0.240219	-0.168039
F324	F	1.921409	0.490219	0.081961
H325	H	1.084023	-0.236346	-0.861640
H326	H	1.334023	0.013654	-0.611640
H327	H	1.584023	0.263654	-0.361640
H328	H	1.834023	0.513654	-0.111640
H329	H	0.987106	-0.443863	-0.944729
H330	H	1.237106	-0.193863	-0.694729
H331	H	1.487106	0.056137	-0.444729
H332	H	1.737106	0.306137	-0.194729
H333	H	0.987096	-0.443972	-0.659803
H334	H	1.237096	-0.193972	-0.409803
H335	H	1.487096	0.056028	-0.159803
H336	H	1.737096	0.306028	0.090197
F337	F	1.061162	-0.495867	-0.869831
F338	F	1.311162	-0.245867	-0.619831
F339	F	1.561162	0.004133	-0.369831
F340	F	1.811162	0.254133	-0.119831
F341	F	1.171437	-0.259632	-1.071675
F342	F	1.421437	-0.009632	-0.821675
F343	F	1.671437	0.240368	-0.571675
F344	F	1.921437	0.490368	-0.321675
F345	F	0.975221	-0.455679	-1.071615
F346	F	1.225221	-0.205679	-0.821615
F347	F	1.475221	0.044321	-0.571615
F348	F	1.725221	0.294321	-0.321615
H349	H	1.062429	-0.479173	-0.742944
H350	H	1.312429	-0.229173	-0.492944
H351	H	1.562429	0.020827	-0.242944
H352	H	1.812429	0.270827	0.007056
H353	H	0.987081	-0.444019	-0.541089
H354	H	1.237081	-0.194019	-0.291089
H355	H	1.487081	0.055981	-0.041089
H356	H	1.737081	0.305981	0.208911
