data_functionalizedCrystal
_audit_creation_method	'MofGen! by Chris Wilmer'
_symmetry_space_group_name_H-M	'P1'
_symmetry_Int_Tables_number	1
_symmetry_cell_setting	triclinic
loop_
_symmetry_equiv_pos_as_xyz
  x,y,z
_cell_length_a	19.188930
_cell_length_b	14.750779
_cell_length_c	15.538191
_cell_angle_alpha	82.430615
_cell_angle_beta	65.208439
_cell_angle_gamma	102.584925
loop_
_atom_site_label
_atom_site_type_symbol
_atom_site_fract_x
_atom_site_fract_y
_atom_site_fract_z
O1	O	0.876147	-0.080107	0.138322
O2	O	0.668873	-0.080039	0.154153
O3	O	0.812856	-0.080091	0.008946
O4	O	0.732163	-0.080055	0.283529
O5	O	0.853558	0.079545	-0.032097
O6	O	0.709574	0.079597	0.113109
O7	O	0.916848	0.079528	0.097279
Zn8	Zn	0.819673	0.104908	0.098677
Zn9	Zn	0.766048	-0.105419	0.152754
O10	O	0.772865	0.079580	0.242485
C11	C	0.663343	-0.000213	0.133116
C12	C	0.586232	-0.000188	0.131569
N13	N	0.856277	0.248451	0.061771
N14	N	0.729452	-0.248961	0.189653
C15	C	0.519905	-0.000192	0.216780
C16	C	0.447442	-0.000202	0.215335
C17	C	0.441306	-0.000228	0.128679
C18	C	0.507647	-0.000219	0.043456
C19	C	0.580110	-0.000199	0.044900
N20	N	0.336099	-0.054607	0.076418
N21	N	0.267259	-0.054628	0.075052
C22	C	0.222980	-0.000288	0.124321
N23	N	0.250134	0.054063	0.175026
N24	N	0.318977	0.054080	0.176396
C25	C	0.362735	-0.000250	0.127103
C26	C	0.078079	-0.000302	0.207972
C27	C	0.005618	-0.000307	0.206522
C28	C	0.065822	-0.000333	0.034642
C29	C	0.138283	-0.000319	0.036092
C30	C	0.144406	-0.000308	0.122760
C31	C	0.922377	-0.000300	0.118316
C32	C	0.999487	-0.000331	0.119865
C33	C	0.841649	-0.000279	-0.046704
C34	C	0.866795	-0.000297	-0.151377
C35	C	0.627234	0.600352	0.292686
C36	C	0.652887	0.700841	0.266831
C37	C	0.780392	0.700758	0.138297
C38	C	0.754748	0.600266	0.164139
C39	C	0.678169	0.550071	0.241335
C40	C	0.805683	0.549985	0.112788
C41	C	0.780043	0.449502	0.138631
C42	C	0.703468	0.399300	0.215826
C43	C	0.652529	0.449588	0.267178
C44	C	0.882265	0.600183	0.035597
C45	C	0.933200	0.549902	-0.015754
C46	C	0.907557	0.449417	0.010084
C47	C	0.830982	0.399214	0.087279
C48	C	0.958496	0.399129	-0.041268
C49	C	0.932856	0.298646	-0.015425
C50	C	0.805342	0.298731	0.113122
C51	C	0.616957	-0.000194	-0.438164
C52	C	0.640606	-0.000200	-0.536526
C53	C	0.773623	-0.000244	-0.559506
C54	C	0.749984	-0.000243	-0.461143
C55	C	0.671650	-0.000217	-0.400480
C56	C	0.804677	-0.000266	-0.423458
C57	C	0.781041	-0.000260	-0.325105
C58	C	0.702711	-0.000231	-0.264436
C59	C	0.648014	-0.000211	-0.302126
C60	C	0.883012	-0.000285	-0.484125
C61	C	0.937705	-0.000308	-0.446440
C62	C	0.914068	-0.000309	-0.348083
C63	C	0.835738	-0.000280	-0.287415
C64	C	0.968765	-0.000329	-0.310393
C65	C	0.945129	-0.000323	-0.212040
C66	C	0.812102	-0.000274	-0.189062
C67	C	0.744071	-0.000234	0.298136
C68	C	0.718924	-0.000222	0.402811
H69	H	0.524883	-0.000185	0.287352
H70	H	0.634117	-0.000196	-0.024491
Br71	Br	0.541699	-0.000189	-0.219785
H72	H	0.974334	0.257707	-0.057240
H73	H	0.083067	-0.000279	0.278539
H74	H	0.837403	-0.000261	-0.608912
Br75	Br	1.075077	-0.000341	-0.392738
H76	H	0.682594	0.317480	0.236869
Br77	Br	1.062428	0.467260	-0.146018
Br78	Br	0.510642	-0.000172	-0.355823
Br79	Br	0.915093	-0.000283	-0.617609
Br80	Br	1.044014	-0.000332	-0.528779
H81	H	-0.048388	-0.000305	0.275913
Br82	Br	1.019361	-0.000330	-0.160896
H83	H	0.192289	-0.000321	-0.033295
Br84	Br	0.357415	-0.000202	0.330986
Br85	Br	0.583751	0.769073	0.336539
Br86	Br	0.548591	0.381460	0.371934
H87	H	0.995553	0.590782	-0.078606
Br88	Br	0.499323	-0.000244	-0.074152
Br89	Br	0.523296	0.532224	0.397442
H90	H	0.596065	-0.000167	-0.567207
H91	H	0.742980	0.257860	0.175976
H92	H	0.842745	0.741639	0.075446
Br93	Br	0.057506	-0.000352	-0.082969
H94	H	0.903139	0.682002	0.014562
H95	H	0.748313	-0.000260	-0.139664
H96	H	0.683469	-0.000221	-0.184353
