data_functionalizedCrystal
_audit_creation_method	'MofGen! by Chris Wilmer'
_symmetry_space_group_name_H-M	'P1'
_symmetry_Int_Tables_number	1
_symmetry_cell_setting	triclinic
loop_
_symmetry_equiv_pos_as_xyz
  x,y,z
_cell_length_a	14.519709
_cell_length_b	15.995350
_cell_length_c	13.596369
_cell_angle_alpha	89.996243
_cell_angle_beta	90.000291
_cell_angle_gamma	83.586260
loop_
_atom_site_label
_atom_site_type_symbol
_atom_site_fract_x
_atom_site_fract_y
_atom_site_fract_z
O1	O	1.223669	0.109760	-0.081658
O2	O	1.557002	0.443093	0.251675
O3	O	1.890336	0.776427	0.585008
O4	O	0.955169	0.122685	-0.081688
O5	O	1.288502	0.456019	0.251646
O6	O	1.621835	0.789352	0.584979
O7	O	1.096759	-0.005654	-0.081671
O8	O	1.430092	0.327679	0.251662
O9	O	1.763425	0.661013	0.584995
O10	O	1.082079	0.238099	-0.081675
O11	O	1.415413	0.571433	0.251659
O12	O	1.748746	0.904766	0.584992
O13	O	1.096744	-0.005661	0.081912
O14	O	1.430078	0.327673	0.415245
O15	O	1.763411	0.661006	0.748578
O16	O	0.955155	0.122679	0.081895
O17	O	1.288488	0.456012	0.415228
O18	O	1.621821	0.789345	0.748562
O19	O	1.223655	0.109753	0.081925
O20	O	1.556988	0.443086	0.415258
O21	O	1.890322	0.776420	0.748591
Zn22	Zn	1.089403	0.116215	0.107882
Zn23	Zn	1.422736	0.449548	0.441215
Zn24	Zn	1.756069	0.782881	0.774549
Zn25	Zn	1.089421	0.116224	-0.107645
Zn26	Zn	1.422754	0.449557	0.225688
Zn27	Zn	1.756088	0.782890	0.559021
O28	O	1.082065	0.238093	0.081908
O29	O	1.415399	0.571426	0.415241
O30	O	1.748732	0.904759	0.748575
C31	C	0.920803	0.122080	0.000100
C32	C	1.254136	0.455413	0.333433
C33	C	1.587470	0.788746	0.666766
C34	C	0.818425	0.120275	0.000088
C35	C	1.151758	0.453608	0.333422
C36	C	1.485092	0.786941	0.666755
C37	C	0.443541	0.113629	0.000133
C38	C	0.776875	0.446962	0.333467
C39	C	1.110208	0.780296	0.666800
C40	C	0.547846	0.115475	0.000120
C41	C	0.881179	0.448808	0.333454
C42	C	1.214513	0.782141	0.666787
C43	C	0.630980	0.116952	0.000110
C44	C	0.964313	0.450285	0.333443
C45	C	1.297647	0.783618	0.666777
C46	C	0.735291	0.118797	0.000099
C47	C	1.068624	0.452131	0.333432
C48	C	1.401958	0.785464	0.666766
C49	C	1.096145	-0.036853	0.000118
C50	C	1.429478	0.296480	0.333452
C51	C	1.762811	0.629814	0.666785
C52	C	1.094325	-0.129806	0.000112
C53	C	1.427659	0.203527	0.333446
C54	C	1.760992	0.536861	0.666779
C55	C	1.087791	-0.467563	0.000115
C56	C	1.421125	-0.134230	0.333448
C57	C	1.754458	0.199103	0.666782
C58	C	0.986954	-0.420280	-0.000263
C59	C	1.320287	-0.086947	0.333070
C60	C	1.653620	0.246386	0.666404
C61	C	0.988773	-0.323587	0.000106
C62	C	1.322107	0.009746	0.333439
C63	C	1.655440	0.343079	0.666773
C64	C	1.091032	-0.299998	0.000113
C65	C	1.424366	0.033335	0.333446
C66	C	1.757699	0.366669	0.666780
C67	C	1.140761	-0.341005	0.093531
C68	C	1.474094	-0.007672	0.426864
C69	C	1.807428	0.325662	0.760197
C70	C	1.138228	-0.437644	0.093609
C71	C	1.471561	-0.104311	0.426942
C72	C	1.804895	0.229022	0.760275
C73	C	1.140327	-0.437992	-0.092415
C74	C	1.473660	-0.104658	0.240918
C75	C	1.806994	0.228675	0.574251
C76	C	1.140303	-0.341046	-0.093650
C77	C	1.473636	-0.007713	0.239683
C78	C	1.806970	0.325620	0.573017
C79	C	1.092869	-0.205298	0.000115
C80	C	1.426203	0.128036	0.333449
C81	C	1.759536	0.461369	0.666782
C82	C	1.085957	-0.562264	0.000119
C83	C	1.419291	-0.228931	0.333453
C84	C	1.752624	0.104403	0.666786
C85	C	1.258021	0.110359	0.000135
C86	C	1.591354	0.443692	0.333468
C87	C	1.924687	0.777026	0.666801
C88	C	1.360399	0.112164	0.000140
C89	C	1.693732	0.445497	0.333473
C90	C	2.027065	0.778831	0.666806
C91	C	1.082679	0.269292	0.000116
C92	C	1.416012	0.602625	0.333450
C93	C	1.749346	0.935958	0.666783
C94	C	1.084498	0.362245	0.000116
C95	C	1.417832	0.695578	0.333449
C96	C	1.751165	1.028911	0.666782
N97	N	1.089397	0.116208	0.254974
N98	N	1.422730	0.449541	0.588307
N99	N	1.756063	0.782875	0.921641
N100	N	1.089434	0.116224	-0.254737
N101	N	1.422768	0.449557	0.078596
N102	N	1.756101	0.782890	0.411929
C103	C	1.089420	0.116225	0.656265
C104	C	1.422753	0.449558	0.989598
C105	C	1.756087	0.782891	1.322932
C106	C	1.089411	0.116223	0.544614
C107	C	1.422744	0.449556	0.877947
C108	C	1.756077	0.782890	1.211280
C109	C	1.089409	0.116217	0.455623
C110	C	1.422742	0.449550	0.788956
C111	C	1.756075	0.782884	1.122290
C112	C	1.089399	0.116214	0.343965
C113	C	1.422732	0.449547	0.677298
C114	C	1.756065	0.782881	1.010631
H115	H	0.946656	-0.438870	-0.067255
H116	H	1.279989	-0.105536	0.266078
H117	H	1.613322	0.227797	0.599412
N118	N	1.238812	-0.479900	-0.093243
N119	N	1.572146	-0.146567	0.240090
N120	N	1.905479	0.186766	0.573423
H121	H	1.249907	-0.514369	-0.155214
H122	H	1.583240	-0.181036	0.178119
H123	H	1.916574	0.152297	0.511452
H124	H	1.283055	-0.435495	-0.091020
H125	H	1.616388	-0.102162	0.242313
H126	H	1.949722	0.231171	0.575646
N127	N	0.936642	-0.286747	0.088952
N128	N	1.269975	0.046586	0.422285
N129	N	1.603309	0.379919	0.755618
H130	H	0.870367	-0.300198	0.086074
H131	H	1.203700	0.033136	0.419407
H132	H	1.537033	0.366469	0.752741
H133	H	0.967097	-0.311670	0.150706
H134	H	1.300431	0.021663	0.484039
H135	H	1.633764	0.354997	0.817373
N136	N	1.094999	-0.303474	0.185605
N137	N	1.428332	0.029859	0.518938
N138	N	1.761666	0.363193	0.852272
H139	H	1.027748	-0.314155	0.186527
H140	H	1.361082	0.019178	0.519861
H141	H	1.694415	0.352512	0.853194
H142	H	1.127553	-0.330276	0.245272
H143	H	1.460887	0.003058	0.578605
H144	H	1.794220	0.336391	0.911938
H145	H	1.212261	-0.469782	0.097852
H146	H	1.545594	-0.136449	0.431186
H147	H	1.878928	0.196885	0.764519
H148	H	1.103945	-0.313849	-0.162758
H149	H	1.437278	0.019484	0.170576
H150	H	1.770612	0.352817	0.503909
N151	N	0.933796	-0.446310	0.087972
N152	N	1.267129	-0.112976	0.421306
N153	N	1.600463	0.220357	0.754639
H154	H	0.913679	-0.395275	0.129683
H155	H	1.247012	-0.061942	0.463016
H156	H	1.580345	0.271391	0.796350
H157	H	0.877388	-0.472513	0.065087
H158	H	1.210721	-0.139179	0.398420
H159	H	1.544054	0.194154	0.731753
H160	H	0.949683	-0.295221	-0.066860
H161	H	1.283016	0.038112	0.266474
H162	H	1.616350	0.371446	0.599807
H163	H	1.215888	-0.326767	0.097010
H164	H	1.549221	0.006566	0.430343
H165	H	1.882554	0.339900	0.763677
N166	N	1.090181	-0.461972	0.186097
N167	N	1.423514	-0.128638	0.519430
N168	N	1.756847	0.204695	0.852764
H169	H	1.070841	-0.409941	0.226432
H170	H	1.404174	-0.076608	0.559766
H171	H	1.737508	0.256725	0.893099
H172	H	1.033579	-0.490008	0.167912
H173	H	1.366912	-0.156675	0.501246
H174	H	1.700246	0.176658	0.834579
N175	N	1.096673	-0.465260	-0.186208
N176	N	1.430006	-0.131926	0.147125
N177	N	1.763340	0.201407	0.480459
H178	H	1.042394	-0.497064	-0.169664
H179	H	1.375727	-0.163731	0.163669
H180	H	1.709060	0.169603	0.497003
H181	H	1.074462	-0.414036	-0.226746
H182	H	1.407795	-0.080702	0.106588
H183	H	1.741128	0.252631	0.439921
N184	N	1.239087	-0.320562	-0.101118
N185	N	1.572420	0.012771	0.232215
N186	N	1.905753	0.346105	0.565549
H187	H	1.247431	-0.289344	-0.164498
H188	H	1.580764	0.043990	0.168835
H189	H	1.914097	0.377323	0.502168
H190	H	1.253300	-0.284249	-0.043523
H191	H	1.586633	0.049085	0.289810
H192	H	1.919966	0.382418	0.623144
