data_functionalizedCrystal
_audit_creation_method	'MofGen! by Chris Wilmer'
_symmetry_space_group_name_H-M	'P1'
_symmetry_Int_Tables_number	1
_symmetry_cell_setting	triclinic
loop_
_symmetry_equiv_pos_as_xyz
  x,y,z
_cell_length_a	15.297327
_cell_length_b	21.395364
_cell_length_c	21.395356
_cell_angle_alpha	90.024334
_cell_angle_beta	99.650480
_cell_angle_gamma	80.276484
loop_
_atom_site_label
_atom_site_type_symbol
_atom_site_fract_x
_atom_site_fract_y
_atom_site_fract_z
Zn1	Zn	-0.358808	-0.914750	-0.397382
Zn2	Zn	-0.025474	-0.581416	-0.064049
Zn3	Zn	0.307859	-0.248083	0.269285
Zn4	Zn	-0.509684	-0.896529	-0.310731
Zn5	Zn	-0.176351	-0.563196	0.022602
Zn6	Zn	0.156983	-0.229862	0.355935
Zn7	Zn	-0.358876	-0.809958	-0.292626
Zn8	Zn	-0.025542	-0.476625	0.040708
Zn9	Zn	0.307791	-0.143291	0.374041
Zn10	Zn	-0.509680	-0.791809	-0.415470
Zn11	Zn	-0.176347	-0.458476	-0.082136
Zn12	Zn	0.156986	-0.125143	0.251197
O13	O	-0.434262	-0.853261	-0.354052
O14	O	-0.100929	-0.519928	-0.020719
O15	O	0.232405	-0.186595	0.312615
O16	O	-0.378794	-1.000014	-0.385895
O17	O	-0.045461	-0.666680	-0.052562
O18	O	0.287872	-0.333347	0.280772
O19	O	-0.489709	-0.885015	-0.220655
O20	O	-0.156376	-0.551682	0.112678
O21	O	0.176958	-0.218348	0.446012
O22	O	-0.232612	-0.839080	-0.291375
O23	O	0.100721	-0.505746	0.041959
O24	O	0.434054	-0.172413	0.375292
O25	O	-0.489643	-0.986627	-0.322233
O26	O	-0.156309	-0.653294	0.011100
O27	O	0.177024	-0.319960	0.344434
O28	O	-0.232562	-0.916069	-0.368339
O29	O	0.100771	-0.582736	-0.035006
O30	O	0.434105	-0.249403	0.298328
O31	O	-0.378911	-0.821412	-0.207353
O32	O	-0.045577	-0.488078	0.125980
O33	O	0.287756	-0.154745	0.459314
O34	O	-0.378908	-0.719869	-0.308914
O35	O	-0.045574	-0.386536	0.024420
O36	O	0.287759	-0.053203	0.357753
O37	O	-0.489637	-0.808148	-0.500745
O38	O	-0.156303	-0.474814	-0.167411
O39	O	0.177030	-0.141481	0.165922
O40	O	-0.489703	-0.706536	-0.399166
O41	O	-0.156370	-0.373202	-0.065833
O42	O	0.176964	-0.039869	0.267500
O43	O	-0.378791	-0.898471	-0.487456
O44	O	-0.045458	-0.565138	-0.154122
O45	O	0.287876	-0.231805	0.179211
O46	O	-0.635938	-0.867417	-0.339772
O47	O	-0.302605	-0.534084	-0.006439
O48	O	0.030729	-0.200750	0.326895
O49	O	-0.635935	-0.790480	-0.416723
O50	O	-0.302602	-0.457146	-0.083389
O51	O	0.030731	-0.123813	0.249944
C52	C	-0.434313	-0.690468	-0.354038
C53	C	-0.100980	-0.357134	-0.020705
C54	C	0.232354	-0.023801	0.312628
C55	C	-0.434357	-0.620821	-0.354050
C56	C	-0.101023	-0.287488	-0.020717
C57	C	0.232310	0.045846	0.312617
C58	C	-0.376734	-0.595089	-0.387272
C59	C	-0.043400	-0.261756	-0.053939
C60	C	0.289933	0.071577	0.279395
C61	C	-0.376713	-0.529656	-0.387271
C62	C	-0.043379	-0.196323	-0.053938
C63	C	0.289954	0.137010	0.279396
C64	C	-0.434330	-0.489956	-0.354057
C65	C	-0.100997	-0.156623	-0.020723
C66	C	0.232336	0.176711	0.312610
C67	C	-0.491957	-0.515695	-0.320828
C68	C	-0.158624	-0.182362	0.012506
C69	C	0.174709	0.150971	0.345839
C70	C	-0.491970	-0.581128	-0.320824
C71	C	-0.158637	-0.247795	0.012509
C72	C	0.174696	0.085539	0.345842
C73	C	-0.515587	-0.376470	-0.358780
C74	C	-0.182253	-0.043137	-0.025447
C75	C	0.151080	0.290196	0.307887
C76	C	-0.515575	-0.311039	-0.358788
C77	C	-0.182242	0.022295	-0.025455
C78	C	0.151092	0.355628	0.307879
C79	C	-0.434290	-0.288140	-0.354063
C80	C	-0.100956	0.045193	-0.020730
C81	C	0.232377	0.378527	0.312604
C82	C	-0.353013	-0.330681	-0.349343
C83	C	-0.019680	0.002652	-0.016010
C84	C	0.313653	0.335985	0.317323
C85	C	-0.353026	-0.396114	-0.349340
C86	C	-0.019693	-0.062781	-0.016007
C87	C	0.313640	0.270553	0.317327
C88	C	-0.434322	-0.419005	-0.354056
C89	C	-0.100989	-0.085671	-0.020723
C90	C	0.232344	0.247662	0.312610
C91	C	-0.376639	-0.191459	-0.387285
C92	C	-0.043306	0.141874	-0.053952
C93	C	0.290028	0.475208	0.279381
C94	C	-0.376616	-0.126025	-0.387280
C95	C	-0.043283	0.207308	-0.053947
C96	C	0.290050	0.540641	0.279387
C97	C	-0.491869	-0.112064	-0.320841
C98	C	-0.158536	0.221269	0.012493
C99	C	0.174798	0.554602	0.345826
C100	C	-0.491884	-0.177498	-0.320842
C101	C	-0.158550	0.155835	0.012491
C102	C	0.174783	0.489169	0.345825
C103	C	-0.434270	-0.217191	-0.354068
C104	C	-0.100937	0.116142	-0.020735
C105	C	0.232397	0.449475	0.312599
C106	C	-0.668673	-0.825019	-0.382188
C107	C	-0.335340	-0.491685	-0.048855
C108	C	-0.002006	-0.158352	0.284478
C109	C	-0.768955	-0.812994	-0.394246
C110	C	-0.435622	-0.479660	-0.060913
C111	C	-0.102288	-0.146327	0.272420
C112	C	-1.051513	-0.939464	-0.268087
C113	C	-0.718180	-0.606131	0.065247
C114	C	-0.384847	-0.272798	0.398580
C115	C	-0.957293	-0.950762	-0.256755
C116	C	-0.623960	-0.617429	0.076579
C117	C	-0.290627	-0.284095	0.409912
C118	C	-0.910204	-0.916321	-0.291127
C119	C	-0.576871	-0.582988	0.042207
C120	C	-0.243537	-0.249655	0.375540
C121	C	-0.957344	-0.870580	-0.336833
C122	C	-0.624011	-0.537247	-0.003499
C123	C	-0.290677	-0.203913	0.329834
C124	C	-1.051573	-0.859278	-0.348162
C125	C	-0.718240	-0.525944	-0.014829
C126	C	-0.384907	-0.192611	0.318504
C127	C	-0.910264	-0.836135	-0.371202
C128	C	-0.576931	-0.502801	-0.037869
C129	C	-0.243598	-0.169468	0.295464
C130	C	-0.957404	-0.790394	-0.416908
C131	C	-0.624071	-0.457060	-0.083575
C132	C	-0.290738	-0.123727	0.249759
C133	C	-1.051624	-0.779094	-0.428236
C134	C	-0.718291	-0.445760	-0.094903
C135	C	-0.384957	-0.112427	0.238431
C136	C	-1.098713	-0.813535	-0.393864
C137	C	-0.765380	-0.480201	-0.060531
C138	C	-0.432047	-0.146868	0.272803
C139	C	-0.816035	-0.847437	-0.359872
C140	C	-0.482702	-0.514104	-0.026539
C141	C	-0.149368	-0.180770	0.306794
C142	C	-0.816095	-0.767250	-0.439948
C143	C	-0.482762	-0.433917	-0.106615
C144	C	-0.149428	-0.100584	0.226719
C145	C	-0.910315	-0.755953	-0.451280
C146	C	-0.576982	-0.422619	-0.117947
C147	C	-0.243648	-0.089286	0.215387
C148	C	-0.198935	-0.881631	-0.325820
C149	C	0.134398	-0.548298	0.007514
C150	C	0.467731	-0.214965	0.340847
C151	C	-0.098653	-0.893721	-0.313789
C152	C	0.234680	-0.560388	0.019545
C153	C	0.568013	-0.227054	0.352878
C154	C	-0.434206	-0.853317	-0.517469
C155	C	-0.100873	-0.519984	-0.184135
C156	C	0.232461	-0.186651	0.149198
C157	C	-0.434182	-0.853341	-0.587107
C158	C	-0.100849	-0.520008	-0.253774
C159	C	0.232485	-0.186675	0.079560
C160	C	-0.434222	-0.016689	-0.354064
C161	C	-0.100889	0.316644	-0.020731
C162	C	0.232444	0.649977	0.312602
C163	C	-0.434234	-0.086329	-0.354064
C164	C	-0.100900	0.247004	-0.020731
C165	C	0.232433	0.580337	0.312602
C166	C	-0.376483	-0.820235	-0.612883
C167	C	-0.043150	-0.486901	-0.279550
C168	C	0.290184	-0.153568	0.053783
C169	C	-0.376466	-0.820234	-0.678317
C170	C	-0.043133	-0.486901	-0.344983
C171	C	0.290200	-0.153568	-0.011650
C172	C	-0.434139	-0.853353	-0.717970
C173	C	-0.100806	-0.520020	-0.384637
C174	C	0.232527	-0.186687	-0.051304
C175	C	-0.491849	-0.886462	-0.692188
C176	C	-0.158516	-0.553128	-0.358854
C177	C	0.174817	-0.219795	-0.025521
C178	C	-0.491871	-0.886456	-0.626756
C179	C	-0.158538	-0.553122	-0.293423
C180	C	0.174796	-0.219789	0.039911
C181	C	-0.441209	-0.908956	-0.822507
C182	C	-0.107875	-0.575623	-0.489173
C183	C	0.225458	-0.242289	-0.155840
C184	C	-0.441181	-0.908964	-0.887936
C185	C	-0.107848	-0.575631	-0.554603
C186	C	0.225486	-0.242297	-0.221270
C187	C	-0.434078	-0.853371	-0.919784
C188	C	-0.100745	-0.520038	-0.586451
C189	C	0.232588	-0.186704	-0.253117
C190	C	-0.426984	-0.797771	-0.886191
C191	C	-0.093651	-0.464437	-0.552858
C192	C	0.239682	-0.131104	-0.219525
C193	C	-0.427006	-0.797765	-0.820760
C194	C	-0.093673	-0.464431	-0.487426
C195	C	0.239661	-0.131098	-0.154093
C196	C	-0.434123	-0.853363	-0.788921
C197	C	-0.100789	-0.520030	-0.455587
C198	C	0.232544	-0.186697	-0.122254
C199	C	-0.376358	-0.820261	-1.016510
C200	C	-0.043025	-0.486928	-0.683177
C201	C	0.290309	-0.153595	-0.349843
C202	C	-0.376348	-0.820259	-1.081945
C203	C	-0.043014	-0.486926	-0.748612
C204	C	0.290319	-0.153593	-0.415279
C205	C	-0.491726	-0.886492	-1.095815
C206	C	-0.158393	-0.553159	-0.762481
C207	C	0.174941	-0.219826	-0.429148
C208	C	-0.491741	-0.886488	-1.030381
C209	C	-0.158408	-0.553155	-0.697048
C210	C	0.174926	-0.219822	-0.363714
C211	C	-0.434052	-0.853374	-0.990732
C212	C	-0.100719	-0.520041	-0.657399
C213	C	0.232614	-0.186707	-0.324065
C214	C	-0.434253	-0.853250	-0.191263
C215	C	-0.100919	-0.519916	0.142070
C216	C	0.232414	-0.186583	0.475403
C217	C	-0.434022	-0.853378	-0.121595
C218	C	-0.100689	-0.520044	0.211739
C219	C	0.232645	-0.186711	0.545072
H220	H	-0.538869	-0.483367	-0.293784
H221	H	-0.205536	-0.150034	0.039550
H222	H	0.127797	0.183300	0.372883
O223	O	-0.314147	-0.784544	-0.973739
O224	O	0.019187	-0.451211	-0.640405
O225	O	0.352520	-0.117877	-0.307072
H226	H	-0.329638	-0.733502	-0.988130
H227	H	0.003695	-0.400168	-0.654796
H228	H	0.337029	-0.066835	-0.321463
H229	H	-0.446953	-0.954238	-0.915282
H230	H	-0.113620	-0.620904	-0.581949
H231	H	0.219714	-0.287571	-0.248615
H232	H	-0.538855	-0.913418	-0.605770
H233	H	-0.205522	-0.580084	-0.272437
H234	H	0.127811	-0.246751	0.060896
O235	O	-0.314589	-0.637898	-0.423104
O236	O	0.018745	-0.304565	-0.089771
O237	O	0.352078	0.028768	0.243562
H238	H	-0.324281	-0.687722	-0.417526
H239	H	0.009053	-0.354388	-0.084193
H240	H	0.342386	-0.021055	0.249140
O241	O	-0.265373	-0.442000	-0.344244
O242	O	0.067961	-0.108666	-0.010911
O243	O	0.401294	0.224667	0.322423
H244	H	-0.256106	-0.472913	-0.301168
H245	H	0.077228	-0.139579	0.032165
H246	H	0.410561	0.193754	0.365499
O247	O	-0.448863	-0.968922	-0.788157
O248	O	-0.115530	-0.635588	-0.454824
O249	O	0.217803	-0.302255	-0.121491
H250	H	-0.453775	-1.007586	-0.822505
H251	H	-0.120442	-0.674253	-0.489171
H252	H	0.212891	-0.340919	-0.155838
H253	H	-1.089862	-0.967497	-0.240102
H254	H	-0.756529	-0.634164	0.093231
H255	H	-0.423195	-0.300831	0.426564
H256	H	-0.538807	-0.913427	-0.724478
H257	H	-0.205474	-0.580094	-0.391145
H258	H	0.127859	-0.246760	-0.057811
H259	H	-0.421232	-0.752493	-0.793412
H260	H	-0.087898	-0.419160	-0.460078
H261	H	0.245435	-0.085826	-0.126745
O262	O	-0.554042	-0.205252	-0.285012
O263	O	-0.220709	0.128081	0.048321
O264	O	0.112625	0.461414	0.381655
H265	H	-0.544366	-0.257421	-0.290585
H266	H	-0.211033	0.075912	0.042748
H267	H	0.122300	0.409245	0.376082
H268	H	-0.833486	-0.925522	-0.281897
H269	H	-0.500153	-0.592189	0.051437
H270	H	-0.166819	-0.258855	0.384770
H271	H	-0.581755	-0.276406	-0.362634
H272	H	-0.248422	0.056927	-0.029301
H273	H	0.084912	0.390261	0.304033
O274	O	-0.314491	-0.234280	-0.423109
O275	O	0.018843	0.099054	-0.089776
O276	O	0.352176	0.432387	0.243558
H277	H	-0.274404	-0.205393	-0.446201
H278	H	0.058929	0.127941	-0.112868
H279	H	0.392262	0.461274	0.220466
H280	H	-0.329785	-0.508702	-0.414323
H281	H	0.003548	-0.175368	-0.080989
H282	H	0.336882	0.157965	0.252344
H283	H	-0.918915	-0.988003	-0.219541
H284	H	-0.585582	-0.654670	0.113793
H285	H	-0.252249	-0.321337	0.447126
H286	H	-0.329688	-0.105077	-0.414331
H287	H	0.003646	0.228256	-0.080998
H288	H	0.336979	0.561590	0.252335
H289	H	-1.090003	-0.741841	-0.465446
H290	H	-0.756670	-0.408508	-0.132112
H291	H	-0.423336	-0.075174	0.201221
H292	H	-0.538782	-0.079741	-0.293797
H293	H	-0.205449	0.253593	0.039537
H294	H	0.127884	0.586926	0.372870
O295	O	-0.265330	-0.305997	-0.344241
O296	O	0.068004	0.027336	-0.010908
O297	O	0.401337	0.360670	0.322425
H298	H	-0.278969	-0.253352	-0.345027
H299	H	0.054364	0.079982	-0.011694
H300	H	0.387697	0.413315	0.321640
H301	H	-0.329365	-0.793295	-1.102931
H302	H	0.003968	-0.459962	-0.769597
H303	H	0.337302	-0.126628	-0.436264
O304	O	-0.603264	-0.401167	-0.363881
O305	O	-0.269931	-0.067833	-0.030548
O306	O	0.063402	0.265500	0.302785
H307	H	-0.659777	-0.360594	-0.367175
H308	H	-0.326444	-0.027261	-0.033842
H309	H	0.006890	0.306072	0.299491
H310	H	-0.538895	-0.602077	-0.293770
H311	H	-0.205562	-0.268744	0.039563
H312	H	0.127771	0.064589	0.372896
O313	O	-0.765313	-0.730094	-0.477016
O314	O	-0.431979	-0.396760	-0.143682
O315	O	-0.098646	-0.063427	0.189651
H316	H	-0.813921	-0.696379	-0.510691
H317	H	-0.480587	-0.363046	-0.177357
H318	H	-0.147254	-0.029712	0.155976
H319	H	-0.948710	-0.718710	-0.488494
H320	H	-0.615376	-0.385376	-0.155161
H321	H	-0.282043	-0.052043	0.178172
H322	H	-1.175435	-0.804340	-0.403090
H323	H	-0.842102	-0.471006	-0.069756
H324	H	-0.508768	-0.137673	0.263577
O325	O	-0.765196	-0.896781	-0.310591
O326	O	-0.431862	-0.563447	0.022743
O327	O	-0.098529	-0.230114	0.356076
H328	H	-0.722338	-0.873902	-0.273529
H329	H	-0.389005	-0.540568	0.059805
H330	H	-0.055671	-0.207235	0.393138
O331	O	-0.314259	-0.784525	-0.570117
O332	O	0.019075	-0.451192	-0.236784
O333	O	0.352408	-0.117859	0.096550
H334	H	-0.274134	-0.761503	-0.599038
H335	H	0.059199	-0.428170	-0.265705
H336	H	0.392532	-0.094837	0.067629
H337	H	-0.421194	-0.752503	-0.912119
H338	H	-0.087861	-0.419169	-0.578786
H339	H	0.245472	-0.085836	-0.245453
O340	O	-0.314224	-0.784532	-0.706129
O341	O	0.019109	-0.451199	-0.372796
O342	O	0.352443	-0.117866	-0.039463
H343	H	-0.274109	-0.761509	-0.667566
H344	H	0.059224	-0.428176	-0.334232
H345	H	0.392558	-0.094843	-0.000899
H346	H	-0.538682	-0.913460	-1.128100
H347	H	-0.205349	-0.580127	-0.794767
H348	H	0.127984	-0.246793	-0.461433
O349	O	-0.553954	-0.922213	-1.002571
O350	O	-0.220621	-0.588879	-0.669237
O351	O	0.112713	-0.255546	-0.335904
H352	H	-0.594047	-0.945250	-1.041134
H353	H	-0.260714	-0.611917	-0.707801
H354	H	0.072620	-0.278584	-0.374467
