data_functionalizedCrystal
_audit_creation_method	'MofGen! by Chris Wilmer'
_symmetry_space_group_name_H-M	'P1'
_symmetry_Int_Tables_number	1
_symmetry_cell_setting	triclinic
loop_
_symmetry_equiv_pos_as_xyz
  x,y,z
_cell_length_a	23.532355
_cell_length_b	23.532409
_cell_length_c	22.610064
_cell_angle_alpha	90.007112
_cell_angle_beta	89.997644
_cell_angle_gamma	82.838529
loop_
_atom_site_label
_atom_site_type_symbol
_atom_site_fract_x
_atom_site_fract_y
_atom_site_fract_z
O1	O	0.755283	0.068986	-0.049100
O2	O	1.088617	0.402320	0.284233
O3	O	1.421950	0.735653	0.617566
O4	O	0.589416	0.079020	-0.049119
O5	O	0.922749	0.412354	0.284215
O6	O	1.256082	0.745687	0.617548
O7	O	0.677351	-0.008929	-0.049110
O8	O	1.010684	0.324404	0.284224
O9	O	1.344017	0.657737	0.617557
O10	O	0.667348	0.156936	-0.049109
O11	O	1.000682	0.490269	0.284224
O12	O	1.334015	0.823603	0.617557
O13	O	0.677335	-0.008916	0.049259
O14	O	1.010668	0.324417	0.382593
O15	O	1.344002	0.657750	0.715926
O16	O	0.589400	0.079033	0.049251
O17	O	0.922734	0.412367	0.382584
O18	O	1.256067	0.745700	0.715917
O19	O	0.755268	0.068999	0.049269
O20	O	1.088601	0.402332	0.382602
O21	O	1.421934	0.735666	0.715935
Zn22	Zn	0.672331	0.074018	0.064878
Zn23	Zn	1.005665	0.407352	0.398211
Zn24	Zn	1.338998	0.740685	0.731545
Zn25	Zn	0.672352	0.074001	-0.064728
Zn26	Zn	1.005685	0.407335	0.268606
Zn27	Zn	1.339019	0.740668	0.601939
O28	O	0.667333	0.156949	0.049260
O29	O	1.000666	0.490282	0.382593
O30	O	1.333999	0.823615	0.715927
C31	C	0.568191	0.078776	0.000064
C32	C	0.901525	0.412109	0.333397
C33	C	1.234858	0.745443	0.666730
C34	C	0.504973	0.078022	0.000056
C35	C	0.838306	0.411355	0.333390
C36	C	1.171639	0.744689	0.666723
C37	C	0.112950	0.073291	0.053702
C38	C	0.446284	0.406624	0.387036
C39	C	0.779617	0.739957	0.720369
C40	C	0.053551	0.072573	0.053704
C41	C	0.386884	0.405907	0.387038
C42	C	0.720218	0.739240	0.720371
O43	O	0.022825	0.072189	0.099307
O44	O	0.356158	0.405522	0.432640
O45	O	0.689492	0.738856	0.765973
N46	N	0.023851	0.072211	0.000084
N47	N	0.357184	0.405544	0.333417
N48	N	0.690518	0.738877	0.666750
C49	C	0.053554	0.072560	-0.053543
C50	C	0.386888	0.405893	0.279790
C51	C	0.720221	0.739226	0.613124
O52	O	0.022838	0.072185	-0.099152
O53	O	0.356171	0.405518	0.234182
O54	O	0.689505	0.738851	0.567515
C55	C	0.112953	0.073273	-0.053545
C56	C	0.446286	0.406606	0.279789
C57	C	0.779620	0.739940	0.613122
C58	C	0.142649	0.073641	0.000080
C59	C	0.475983	0.406975	0.333413
C60	C	0.809316	0.740308	0.666746
C61	C	0.142647	0.073659	0.107322
C62	C	0.475980	0.406992	0.440656
C63	C	0.809313	0.740325	0.773989
C64	C	0.202042	0.074377	0.107320
C65	C	0.535375	0.407710	0.440653
C66	C	0.868709	0.741044	0.773986
C67	C	0.231741	0.074728	0.053697
C68	C	0.565074	0.408061	0.387031
C69	C	0.898407	0.741394	0.720364
C70	C	0.202044	0.074360	0.000077
C71	C	0.535378	0.407693	0.333411
C72	C	0.868711	0.741027	0.666744
C73	C	0.142656	0.073618	-0.107171
C74	C	0.475989	0.406951	0.226163
C75	C	0.809323	0.740284	0.559496
C76	C	0.202059	0.074331	-0.107168
C77	C	0.535392	0.407664	0.226166
C78	C	0.868726	0.740997	0.559499
C79	C	0.231755	0.074699	-0.053543
C80	C	0.565088	0.408033	0.279790
C81	C	0.898422	0.741366	0.613123
C82	C	0.291139	0.075429	-0.053548
C83	C	0.624472	0.408762	0.279785
C84	C	0.957805	0.742096	0.613119
N85	N	0.320839	0.075792	0.000073
N86	N	0.654172	0.409125	0.333406
N87	N	0.987505	0.742458	0.666740
C88	C	0.291140	0.075441	0.053696
C89	C	0.624473	0.408774	0.387029
C90	C	0.957806	0.742108	0.720362
C91	C	-0.071187	0.071060	-0.053535
C92	C	0.262146	0.404394	0.279798
C93	C	0.595479	0.737727	0.613131
C94	C	-0.130586	0.070351	-0.053534
C95	C	0.202748	0.403685	0.279799
C96	C	0.536081	0.737018	0.613132
C97	C	-0.130585	0.070364	0.053713
C98	C	0.202749	0.403697	0.387047
C99	C	0.536082	0.737031	0.720380
C100	C	-0.071186	0.071077	0.053712
C101	C	0.262148	0.404411	0.387045
C102	C	0.595481	0.737744	0.720378
C103	C	-0.041487	0.071423	0.000085
C104	C	0.291846	0.404757	0.333419
C105	C	0.625179	0.738090	0.666752
C106	C	0.415874	0.076950	0.053686
C107	C	0.749207	0.410284	0.387020
C108	C	1.082540	0.743617	0.720353
C109	C	0.475274	0.077671	0.053679
C110	C	0.808607	0.411005	0.387012
C111	C	1.141940	0.744338	0.720346
C112	C	0.475268	0.077655	-0.053568
C113	C	0.808601	0.410989	0.279765
C114	C	1.141935	0.744322	0.613098
C115	C	0.415873	0.076938	-0.053562
C116	C	0.749206	0.410271	0.279772
C117	C	1.082539	0.743604	0.613105
C118	C	0.386177	0.076583	0.000071
C119	C	0.719511	0.409917	0.333404
C120	C	1.052844	0.743250	0.666737
O121	O	0.321902	0.075811	-0.099127
O122	O	0.655236	0.409145	0.234207
O123	O	0.988569	0.742478	0.567540
O124	O	0.321864	0.075809	0.099296
O125	O	0.655198	0.409142	0.432630
O126	O	0.988531	0.742475	0.765963
C127	C	0.677088	-0.030139	0.000073
C128	C	1.010421	0.303195	0.333407
C129	C	1.343755	0.636528	0.666740
C130	C	0.676322	-0.093356	0.000069
C131	C	1.009655	0.239978	0.333402
C132	C	1.342988	0.573311	0.666736
C133	C	0.673071	-0.366607	-0.053555
C134	C	1.006404	-0.033274	0.279778
C135	C	1.339738	0.300060	0.613112
C136	C	0.673783	-0.307207	-0.053555
C137	C	1.007116	0.026126	0.279778
C138	C	1.340449	0.359460	0.613112
O139	O	0.674178	-0.276488	-0.099156
O140	O	1.007511	0.056845	0.234177
O141	O	1.340844	0.390178	0.567511
N142	N	0.674126	-0.277498	0.000067
N143	N	1.007460	0.055835	0.333400
N144	N	1.340793	0.389169	0.666734
C145	C	0.673764	-0.307193	0.053692
C146	C	1.007098	0.026141	0.387026
C147	C	1.340431	0.359474	0.720359
O148	O	0.674123	-0.276469	0.099302
O149	O	1.007456	0.056865	0.432635
O150	O	1.340789	0.390198	0.765969
C151	C	0.673057	-0.366592	0.053692
C152	C	1.006390	-0.033259	0.387025
C153	C	1.339723	0.300074	0.720359
C154	C	0.672707	-0.396297	0.000066
C155	C	1.006040	-0.062964	0.333400
C156	C	1.339374	0.270369	0.666733
C157	C	0.672722	-0.396312	-0.107176
C158	C	1.006055	-0.062979	0.226157
C159	C	1.339389	0.270354	0.559491
C160	C	0.672009	-0.455708	-0.107176
C161	C	1.005343	-0.122375	0.226157
C162	C	1.338676	0.210958	0.559491
C163	C	0.671646	-0.485399	-0.053554
C164	C	1.004979	-0.152065	0.279779
C165	C	1.338312	0.181268	0.613112
C166	C	0.671994	-0.455693	0.000067
C167	C	1.005328	-0.122360	0.333400
C168	C	1.338661	0.210973	0.666733
C169	C	0.672699	-0.396287	0.107317
C170	C	1.006032	-0.062953	0.440650
C171	C	1.339365	0.270380	0.773983
C172	C	0.671992	-0.455690	0.107312
C173	C	1.005325	-0.122357	0.440645
C174	C	1.338658	0.210976	0.773978
C175	C	0.671642	-0.485395	0.053686
C176	C	1.004975	-0.152062	0.387019
C177	C	1.338309	0.181271	0.720353
C178	C	0.670918	-0.544780	0.053688
C179	C	1.004251	-0.211446	0.387022
C180	C	1.337585	0.121887	0.720355
N181	N	0.670574	-0.574489	0.000066
N182	N	1.003908	-0.241155	0.333400
N183	N	1.337241	0.092178	0.666733
C184	C	0.670938	-0.544798	-0.053555
C185	C	1.004271	-0.211465	0.279778
C186	C	1.337605	0.121868	0.613112
C187	C	0.675251	-0.182450	0.053690
C188	C	1.008585	0.150883	0.387023
C189	C	1.341918	0.484217	0.720356
C190	C	0.675955	-0.123051	0.053691
C191	C	1.009288	0.210283	0.387024
C192	C	1.342621	0.543616	0.720357
C193	C	0.675974	-0.123069	-0.053557
C194	C	1.009307	0.210264	0.279776
C195	C	1.342641	0.543597	0.613110
C196	C	0.675266	-0.182469	-0.053558
C197	C	1.008600	0.150865	0.279776
C198	C	1.341933	0.484198	0.613109
C199	C	0.674907	-0.212159	0.000068
C200	C	1.008241	0.121174	0.333401
C201	C	1.341574	0.454508	0.666734
C202	C	0.669441	-0.669534	-0.053550
C203	C	1.002774	-0.336200	0.279783
C204	C	1.336107	-0.002867	0.613116
C205	C	0.668726	-0.728934	-0.053545
C206	C	1.002059	-0.395601	0.279788
C207	C	1.335392	-0.062268	0.613121
C208	C	0.668709	-0.728911	0.053702
C209	C	1.002043	-0.395578	0.387035
C210	C	1.335376	-0.062245	0.720369
C211	C	0.669421	-0.669515	0.053697
C212	C	1.002755	-0.336182	0.387031
C213	C	1.336088	-0.002849	0.720364
C214	C	0.669789	-0.639828	0.000066
C215	C	1.003122	-0.306495	0.333400
C216	C	1.336456	0.026838	0.666733
O217	O	0.670525	-0.575536	0.099266
O218	O	1.003858	-0.242203	0.432599
O219	O	1.337191	0.091130	0.765933
O220	O	0.670587	-0.575531	-0.099157
O221	O	1.003920	-0.242197	0.234176
O222	O	1.337254	0.091136	0.567510
C223	C	0.776492	0.069243	0.000085
C224	C	1.109825	0.402577	0.333419
C225	C	1.443159	0.735910	0.666752
C226	C	0.839711	0.069998	0.000089
C227	C	1.173044	0.403331	0.333422
C228	C	1.506377	0.736664	0.666755
C229	C	0.667595	0.178158	0.000075
C230	C	1.000929	0.511492	0.333409
C231	C	1.334262	0.844825	0.666742
C232	C	0.668362	0.241375	0.000076
C233	C	1.001695	0.574708	0.333409
C234	C	1.335029	0.908042	0.666743
N235	N	0.672322	0.074029	0.153330
N236	N	1.005655	0.407363	0.486664
N237	N	1.338988	0.740696	0.819997
N238	N	0.672366	0.073986	-0.153180
N239	N	1.005700	0.407319	0.180153
N240	N	1.339033	0.740652	0.513486
C241	C	0.711291	0.035063	0.561976
C242	C	1.044625	0.368396	0.895309
C243	C	1.377958	0.701730	1.228642
C244	C	0.711294	0.035059	0.623896
C245	C	1.044627	0.368392	0.957229
C246	C	1.377961	0.701726	1.290562
O247	O	0.744403	0.001937	0.655918
O248	O	1.077736	0.335270	0.989251
O249	O	1.411070	0.668604	1.322584
N250	N	0.672352	0.073989	0.654867
N251	N	1.005685	0.407323	0.988201
N252	N	1.339018	0.740656	1.321534
C253	C	0.633400	0.112923	0.623916
C254	C	0.966733	0.446256	0.957250
C255	C	1.300066	0.779589	1.290583
O256	O	0.600276	0.146035	0.655946
O257	O	0.933609	0.479369	0.989279
O258	O	1.266942	0.812702	1.322613
C259	C	0.633394	0.112924	0.561997
C260	C	0.966728	0.446257	0.895331
C261	C	1.300061	0.779590	1.228664
C262	C	0.672343	0.073995	0.531029
C263	C	1.005677	0.407328	0.864362
C264	C	1.339010	0.740661	1.197695
C265	C	0.750237	-0.003863	0.531007
C266	C	1.083570	0.329470	0.864340
C267	C	1.416903	0.662803	1.197674
C268	C	0.750234	-0.003858	0.469091
C269	C	1.083568	0.329475	0.802425
C270	C	1.416901	0.662808	1.135758
C271	C	0.711286	0.035073	0.438144
C272	C	1.044620	0.368406	0.771478
C273	C	1.377953	0.701740	1.104811
C274	C	0.672341	0.074000	0.469113
C275	C	1.005674	0.407333	0.802446
C276	C	1.339008	0.740666	1.135780
C277	C	0.594440	0.151854	0.531047
C278	C	0.927774	0.485187	0.864381
C279	C	1.261107	0.818521	1.197714
C280	C	0.594438	0.151851	0.469124
C281	C	0.927772	0.485185	0.802458
C282	C	1.261105	0.818518	1.135791
C283	C	0.633387	0.112922	0.438156
C284	C	0.966720	0.446255	0.771489
C285	C	1.300054	0.779589	1.104822
C286	C	0.633391	0.112936	0.376251
C287	C	0.966724	0.446269	0.709584
C288	C	1.300058	0.779603	1.042917
N289	N	0.672334	0.074006	0.345279
N290	N	1.005667	0.407339	0.678612
N291	N	1.339000	0.740672	1.011945
C292	C	0.711281	0.035074	0.376226
C293	C	1.044615	0.368407	0.709559
C294	C	1.377948	0.701741	1.042892
C295	C	0.633413	0.112917	0.753950
C296	C	0.966746	0.446250	1.087283
C297	C	1.300079	0.779584	1.420617
C298	C	0.633420	0.112919	0.815868
C299	C	0.966754	0.446253	1.149201
C300	C	1.300087	0.779586	1.482534
C301	C	0.711314	0.035055	0.815843
C302	C	1.044648	0.368388	1.149176
C303	C	1.377981	0.701721	1.482509
C304	C	0.711309	0.035056	0.753924
C305	C	1.044642	0.368389	1.087257
C306	C	1.377976	0.701722	1.420590
C307	C	0.672355	0.073987	0.722978
C308	C	1.005689	0.407320	1.056311
C309	C	1.339022	0.740653	1.389645
C310	C	0.711274	0.035088	0.246198
C311	C	1.044607	0.368421	0.579532
C312	C	1.377940	0.701755	0.912865
C313	C	0.711269	0.035098	0.184277
C314	C	1.044603	0.368431	0.517611
C315	C	1.377936	0.701765	0.850944
C316	C	0.633374	0.112960	0.184308
C317	C	0.966707	0.446294	0.517641
C318	C	1.300040	0.779627	0.850974
C319	C	0.633380	0.112953	0.246223
C320	C	0.966713	0.446286	0.579557
C321	C	1.300046	0.779619	0.912890
C322	C	0.672332	0.074012	0.277167
C323	C	1.005665	0.407345	0.610500
C324	C	1.338999	0.740678	0.943834
O325	O	0.600297	0.146040	0.344189
O326	O	0.933631	0.479373	0.677523
O327	O	1.266964	0.812706	1.010856
O328	O	0.744395	0.001962	0.344188
O329	O	1.077728	0.335295	0.677522
O330	O	1.411061	0.668629	1.010855
H331	H	0.118488	0.073317	-0.150837
H332	H	0.451821	0.406650	0.182496
H333	H	0.785154	0.739984	0.515829
H334	H	0.562724	0.183553	0.556253
H335	H	0.896058	0.516887	0.889587
H336	H	1.229391	0.850220	1.222920
Cl337	Cl	0.239366	0.074836	0.174737
Cl338	Cl	0.572699	0.408170	0.508070
Cl339	Cl	0.906033	0.741503	0.841404
Cl340	Cl	-0.167912	0.069899	-0.120951
Cl341	Cl	0.165421	0.403233	0.212383
Cl342	Cl	0.498754	0.736566	0.545716
Cl343	Cl	0.674793	-0.219768	0.121111
Cl344	Cl	1.008126	0.113566	0.454444
Cl345	Cl	1.341459	0.446899	0.787778
Cl346	Cl	0.671577	-0.493044	-0.174595
Cl347	Cl	1.004910	-0.159711	0.158739
Cl348	Cl	1.338244	0.173623	0.492072
Cl349	Cl	0.669860	-0.632170	0.121113
Cl350	Cl	1.003194	-0.298837	0.454446
Cl351	Cl	1.336527	0.034496	0.787779
Cl352	Cl	0.584461	0.161868	0.854793
Cl353	Cl	0.917795	0.495202	1.188126
Cl354	Cl	1.251128	0.828535	1.521459
H355	H	0.669741	-0.645370	-0.097222
H356	H	1.003074	-0.312036	0.236111
H357	H	1.336407	0.021297	0.569445
Cl358	Cl	0.760276	-0.013889	0.854760
Cl359	Cl	1.093609	0.319444	1.188093
Cl360	Cl	1.426943	0.652778	1.521427
H361	H	0.668411	-0.753096	0.097359
H362	H	1.001744	-0.419762	0.430692
H363	H	1.335078	-0.086429	0.764026
H364	H	0.601669	0.144658	0.271438
H365	H	0.935003	0.477991	0.604772
H366	H	1.268336	0.811324	0.938105
H367	H	0.601693	0.144624	0.728757
H368	H	0.935027	0.477957	1.062090
H369	H	1.268360	0.811291	1.395423
H370	H	-0.154776	0.070078	0.097376
H371	H	0.178557	0.403411	0.430709
H372	H	0.511891	0.736744	0.764042
H373	H	0.226236	0.074613	-0.150838
H374	H	0.559570	0.407946	0.182496
H375	H	0.892903	0.741279	0.515829
H376	H	0.562716	0.183553	0.443931
H377	H	0.896049	0.516886	0.777265
H378	H	1.229382	0.850220	1.110598
H379	H	0.672989	-0.372112	0.150984
H380	H	1.006323	-0.038778	0.484318
H381	H	1.339656	0.294555	0.817651
H382	H	0.118472	0.073372	0.150991
H383	H	0.451806	0.406705	0.484324
H384	H	0.785139	0.740039	0.817657
H385	H	0.668439	-0.753117	-0.097216
H386	H	1.001772	-0.419784	0.236118
H387	H	1.335106	-0.086451	0.569451
Cl388	Cl	0.584413	0.161901	0.145393
Cl389	Cl	0.917746	0.495235	0.478726
Cl390	Cl	1.251080	0.828568	0.812060
H391	H	0.781953	-0.035569	0.556198
H392	H	1.115286	0.297765	0.889532
H393	H	1.448619	0.631098	1.222865
Cl394	Cl	0.671542	-0.493012	0.174731
Cl395	Cl	1.004875	-0.159678	0.508064
Cl396	Cl	1.338209	0.173655	0.841397
Cl397	Cl	0.760244	-0.013866	0.285089
Cl398	Cl	1.093577	0.319467	0.618422
Cl399	Cl	1.426910	0.652800	0.951756
H400	H	-0.047011	0.071378	0.097377
H401	H	0.286322	0.404711	0.430711
H402	H	0.619655	0.738045	0.764044
H403	H	0.391692	0.076647	-0.097227
H404	H	0.725025	0.409980	0.236107
H405	H	1.058358	0.743314	0.569440
H406	H	-0.047011	0.071347	-0.097207
H407	H	0.286322	0.404681	0.236126
H408	H	0.619656	0.738014	0.569460
H409	H	0.743024	0.003356	0.728713
H410	H	1.076358	0.336689	1.062046
H411	H	1.409691	0.670023	1.395379
H412	H	0.499459	0.077943	-0.097226
H413	H	0.832793	0.411277	0.236107
H414	H	1.166126	0.744610	0.569440
H415	H	0.781948	-0.035559	0.443880
H416	H	1.115281	0.297774	0.777214
H417	H	1.448615	0.631107	1.110547
H418	H	0.673020	-0.372145	-0.150844
H419	H	1.006353	-0.038812	0.182490
H420	H	1.339687	0.294522	0.515823
H421	H	0.499450	0.077973	0.097348
H422	H	0.832783	0.411307	0.430682
H423	H	1.166116	0.744640	0.764015
Cl424	Cl	0.674829	-0.219806	-0.120975
Cl425	Cl	1.008162	0.113527	0.212359
Cl426	Cl	1.341495	0.446860	0.545692
Cl427	Cl	0.676420	-0.085731	-0.120967
Cl428	Cl	1.009753	0.247602	0.212366
Cl429	Cl	1.343087	0.580935	0.545699
H430	H	0.742988	0.003397	0.159064
H431	H	1.076322	0.336730	0.492398
H432	H	1.409655	0.670064	0.825731
Cl433	Cl	0.378552	0.076505	0.121110
Cl434	Cl	0.711885	0.409838	0.454444
Cl435	Cl	1.045218	0.743171	0.787777
Cl436	Cl	0.676380	-0.085713	0.121109
Cl437	Cl	1.009714	0.247621	0.454442
Cl438	Cl	1.343047	0.580954	0.787775
