data_functionalizedCrystal
_audit_creation_method	'MofGen! by Chris Wilmer'
_symmetry_space_group_name_H-M	'P1'
_symmetry_Int_Tables_number	1
_symmetry_cell_setting	triclinic
loop_
_symmetry_equiv_pos_as_xyz
  x,y,z
_cell_length_a	19.805406
_cell_length_b	18.215407
_cell_length_c	18.215399
_cell_angle_alpha	89.986109
_cell_angle_beta	90.020756
_cell_angle_gamma	90.001908
loop_
_atom_site_label
_atom_site_type_symbol
_atom_site_fract_x
_atom_site_fract_y
_atom_site_fract_z
Zn1	Zn	0.269500	1.125174	-0.416107
Zn2	Zn	0.602833	1.458507	-0.082774
Zn3	Zn	0.936167	1.791841	0.250559
Zn4	Zn	0.382696	1.125141	-0.293062
Zn5	Zn	0.716029	1.458474	0.040272
Zn6	Zn	1.049362	1.791808	0.373605
Zn7	Zn	0.269521	1.002113	-0.293061
Zn8	Zn	0.602854	1.335446	0.040272
Zn9	Zn	0.936188	1.668780	0.373606
Zn10	Zn	0.382647	1.002125	-0.416093
Zn11	Zn	0.715981	1.335458	-0.082760
Zn12	Zn	1.049314	1.668791	0.250574
O13	O	0.326091	1.063638	-0.354581
O14	O	0.659424	1.396972	-0.021247
O15	O	0.992758	1.730305	0.312086
O16	O	0.284527	1.228154	-0.399791
O17	O	0.617860	1.561487	-0.066458
O18	O	0.951194	1.894821	0.266875
O19	O	0.367712	1.108803	-0.190077
O20	O	0.701045	1.442136	0.143256
O21	O	1.034378	1.775469	0.476589
O22	O	0.174802	1.018446	-0.309389
O23	O	0.508135	1.351780	0.023944
O24	O	0.841468	1.685113	0.357277
O25	O	0.367691	1.228130	-0.309390
O26	O	0.701025	1.561463	0.023943
O27	O	1.034358	1.894796	0.357276
O28	O	0.174786	1.108859	-0.399791
O29	O	0.508119	1.442192	-0.066457
O30	O	0.841453	1.775525	0.266876
O31	O	0.284563	1.018414	-0.190077
O32	O	0.617896	1.351748	0.143257
O33	O	0.951229	1.685081	0.476590
O34	O	0.284516	0.899130	-0.309375
O35	O	0.617849	1.232464	0.023958
O36	O	0.951183	1.565797	0.357292
O37	O	0.367609	1.018466	-0.519079
O38	O	0.700942	1.351799	-0.185746
O39	O	1.034276	1.685133	0.147588
O40	O	0.367629	0.899139	-0.399766
O41	O	0.700963	1.232472	-0.066433
O42	O	1.034296	1.565806	0.266901
O43	O	0.284480	1.108870	-0.519090
O44	O	0.617813	1.442203	-0.185756
O45	O	0.951147	1.775537	0.147577
O46	O	0.477406	1.108814	-0.309376
O47	O	0.810739	1.442147	0.023957
O48	O	1.144072	1.775480	0.357290
O49	O	0.477370	1.018434	-0.399767
O50	O	0.810704	1.351767	-0.066433
O51	O	1.144037	1.685101	0.266900
C52	C	0.326070	0.872432	-0.354569
C53	C	0.659403	1.205765	-0.021236
C54	C	0.992737	1.539099	0.312097
C55	C	0.326078	0.790633	-0.354582
C56	C	0.659411	1.123966	-0.021249
C57	C	0.992744	1.457300	0.312085
C58	C	0.149548	1.063655	-0.354592
C59	C	0.482882	1.396988	-0.021258
C60	C	0.816215	1.730322	0.312075
C61	C	0.074316	1.063662	-0.354596
C62	C	0.407650	1.396996	-0.021263
C63	C	0.740983	1.730329	0.312071
C64	C	0.369439	0.525599	-0.401583
C65	C	0.702772	0.858933	-0.068249
C66	C	1.036106	1.192266	0.265084
C67	C	0.369433	0.602458	-0.401579
C68	C	0.702767	0.935791	-0.068246
C69	C	1.036100	1.269125	0.265087
C70	C	0.282758	0.602419	-0.307592
C71	C	0.616091	0.935752	0.025742
C72	C	0.949425	1.269085	0.359075
C73	C	0.282768	0.525561	-0.307592
C74	C	0.616101	0.858895	0.025741
C75	C	0.949434	1.192228	0.359075
C76	C	0.326107	0.487154	-0.354592
C77	C	0.659440	0.820487	-0.021258
C78	C	0.992774	1.153820	0.312075
C79	C	0.326092	0.640870	-0.354588
C80	C	0.659425	0.974203	-0.021255
C81	C	0.992758	1.307536	0.312079
C82	C	0.326085	0.724203	-0.354584
C83	C	0.659418	1.057537	-0.021250
C84	C	0.992752	1.390870	0.312083
C85	C	0.326115	0.403815	-0.354595
C86	C	0.659448	0.737148	-0.021262
C87	C	0.992781	1.070481	0.312071
C88	C	0.038955	1.016609	-0.401657
C89	C	0.372289	1.349942	-0.068323
C90	C	0.705622	1.683275	0.265010
C91	C	-0.031733	1.016618	-0.401662
C92	C	0.301600	1.349951	-0.068329
C93	C	0.634934	1.683284	0.265004
C94	C	-0.067059	1.063677	-0.354603
C95	C	0.266274	1.397010	-0.021269
C96	C	0.599607	1.730343	0.312064
C97	C	-0.031694	1.110735	-0.307540
C98	C	0.301640	1.444069	0.025793
C99	C	0.634973	1.777402	0.359127
C100	C	0.038993	1.110730	-0.307539
C101	C	0.372327	1.444063	0.025795
C102	C	0.705660	1.777396	0.359128
C103	C	-0.316767	1.110760	-0.307545
C104	C	0.016566	1.444093	0.025789
C105	C	0.349900	1.777427	0.359122
C106	C	-0.387459	1.110761	-0.307548
C107	C	-0.054126	1.444094	0.025785
C108	C	0.279208	1.777427	0.359119
C109	C	-0.387493	1.016648	-0.401668
C110	C	-0.054160	1.349981	-0.068335
C111	C	0.279173	1.683314	0.264998
C112	C	-0.316806	1.016642	-0.401667
C113	C	0.016527	1.349975	-0.068334
C114	C	0.349860	1.683309	0.265000
C115	C	-0.281447	1.063703	-0.354607
C116	C	0.051887	1.397037	-0.021274
C117	C	0.385220	1.730370	0.312059
C118	C	-0.204798	1.063694	-0.354603
C119	C	0.128535	1.397027	-0.021270
C120	C	0.461868	1.730361	0.312064
C121	C	-0.143707	1.063683	-0.354603
C122	C	0.189627	1.397016	-0.021270
C123	C	0.522960	1.730349	0.312064
C124	C	0.501947	1.063641	-0.354586
C125	C	0.835280	1.396975	-0.021253
C126	C	1.168614	1.730308	0.312081
C127	C	0.577179	1.063710	-0.354613
C128	C	0.910512	1.397044	-0.021280
C129	C	1.243846	1.730377	0.312054
C130	C	0.326037	1.063673	-0.546534
C131	C	0.659370	1.397006	-0.213200
C132	C	0.992703	1.730340	0.120133
C133	C	0.326014	1.063688	-0.628333
C134	C	0.659347	1.397021	-0.294999
C135	C	0.992680	1.730354	0.038334
C136	C	0.326112	1.255591	-0.354593
C137	C	0.659446	1.588924	-0.021259
C138	C	0.992779	1.922258	0.312074
C139	C	0.326121	1.337390	-0.354598
C140	C	0.659455	1.670723	-0.021264
C141	C	0.992788	2.004057	0.312069
C142	C	0.282689	1.016662	-0.816527
C143	C	0.616022	1.349996	-0.483194
C144	C	0.949356	1.683329	-0.149861
C145	C	0.282675	1.016675	-0.893386
C146	C	0.616009	1.350009	-0.560053
C147	C	0.949342	1.683342	-0.226719
C148	C	0.369258	1.110801	-0.893376
C149	C	0.702591	1.444134	-0.560043
C150	C	1.035925	1.777468	-0.226709
C151	C	0.369274	1.110784	-0.816519
C152	C	0.702608	1.444117	-0.483185
C153	C	1.035941	1.777451	-0.149852
C154	C	0.325986	1.063716	-0.778096
C155	C	0.659319	1.397049	-0.444763
C156	C	0.992653	1.730383	-0.111430
C157	C	0.325956	1.063746	-0.931812
C158	C	0.659289	1.397079	-0.598479
C159	C	0.992623	1.730412	-0.265146
C160	C	0.325941	1.063760	-1.015146
C161	C	0.659275	1.397093	-0.681813
C162	C	0.992608	1.730427	-0.348479
C163	C	0.326001	1.063700	-0.694757
C164	C	0.659335	1.397034	-0.361424
C165	C	0.992668	1.730367	-0.028091
C166	C	0.326096	1.063646	-0.163375
C167	C	0.659429	1.396979	0.169959
C168	C	0.992763	1.730313	0.503292
C169	C	0.325928	1.063774	-0.081576
C170	C	0.659262	1.397107	0.251757
C171	C	0.992595	1.730440	0.585091
H172	H	0.404729	0.494330	-0.439853
H173	H	0.738063	0.827663	-0.106519
H174	H	1.071396	1.160997	0.226814
N175	N	0.236027	0.484091	-0.256907
N176	N	0.569360	0.817424	0.076427
N177	N	0.902693	1.150757	0.409760
H178	H	0.242613	0.429574	-0.264037
H179	H	0.575946	0.762908	0.069297
H180	H	0.909280	1.096241	0.402630
H181	H	0.246506	0.497515	-0.204330
H182	H	0.579839	0.830848	0.129003
H183	H	0.913172	1.164182	0.462336
H184	H	0.247419	0.978359	-0.924673
H185	H	0.580752	1.311692	-0.591340
H186	H	0.914086	1.645026	-0.258007
N187	N	0.416173	0.643925	-0.452259
N188	N	0.749506	0.977259	-0.118925
N189	N	1.082840	1.310592	0.214408
H190	H	0.443628	0.607929	-0.482030
H191	H	0.776962	0.941263	-0.148696
H192	H	1.110295	1.274596	0.184637
H193	H	0.388656	0.675821	-0.486361
H194	H	0.721990	1.009154	-0.153028
H195	H	1.055323	1.342487	0.180306
N196	N	0.236004	0.965889	-0.775093
N197	N	0.569338	1.299223	-0.441759
N198	N	0.902671	1.632556	-0.108426
H199	H	0.263515	0.931777	-0.743199
H200	H	0.596848	1.265110	-0.409866
H201	H	0.930181	1.598444	-0.076532
H202	H	0.204652	0.995840	-0.743253
H203	H	0.537986	1.329174	-0.409920
H204	H	0.871319	1.662507	-0.076586
N205	N	0.415948	1.161563	-0.934817
N206	N	0.749282	1.494896	-0.601484
N207	N	1.082615	1.828229	-0.268151
H208	H	0.409369	1.154435	-0.989338
H209	H	0.742702	1.487768	-0.656005
H210	H	1.076035	1.821101	-0.322671
H211	H	0.405424	1.214121	-0.921386
H212	H	0.738758	1.547454	-0.588053
H213	H	1.072091	1.880788	-0.254720
N214	N	0.236013	0.643844	-0.256903
N215	N	0.569346	0.977177	0.076430
N216	N	0.902680	1.310511	0.409764
H217	H	0.242580	0.698367	-0.264034
H218	H	0.575913	1.031700	0.069299
H219	H	0.909246	1.365034	0.402633
H220	H	0.187688	0.630402	-0.268439
H221	H	0.521021	0.963735	0.064894
H222	H	0.854354	1.297069	0.398228
H223	H	0.067713	0.978288	-0.439979
H224	H	0.401046	1.311622	-0.106646
H225	H	0.734380	1.644955	0.226688
H226	H	-0.060523	0.978304	-0.439983
H227	H	0.272810	1.311637	-0.106650
H228	H	0.606143	1.644970	0.226683
H229	H	0.404535	1.149102	-0.785227
H230	H	0.737868	1.482436	-0.451894
H231	H	1.071202	1.815769	-0.118560
H232	H	-0.416221	1.149085	-0.269225
H233	H	-0.082887	1.482418	0.064108
H234	H	0.250446	1.815751	0.397441
H235	H	-0.416291	0.978330	-0.439989
H236	H	-0.082957	1.311664	-0.106656
H237	H	0.250376	1.644997	0.226677
N238	N	-0.278704	0.965880	-0.452418
N239	N	0.054629	1.299213	-0.119084
N240	N	0.387963	1.632547	0.214249
H241	H	-0.311832	0.936072	-0.482232
H242	H	0.021501	1.269406	-0.148899
H243	H	0.354835	1.602739	0.184434
H244	H	-0.249382	0.995839	-0.486476
H245	H	0.083951	1.329172	-0.153143
H246	H	0.417285	1.662506	0.180191
N247	N	-0.069789	1.161492	-0.256777
N248	N	0.263545	1.494825	0.076556
N249	N	0.596878	1.828158	0.409890
H250	H	-0.057487	1.214075	-0.268211
H251	H	0.275847	1.547408	0.065123
H252	H	0.609180	1.880742	0.398456
H253	H	-0.119923	1.154294	-0.263937
H254	H	0.213410	1.487627	0.069397
H255	H	0.546744	1.820960	0.402730
N256	N	-0.278634	1.161513	-0.256787
N257	N	0.054699	1.494846	0.076547
N258	N	0.388032	1.828180	0.409880
H259	H	-0.311742	1.191321	-0.226974
H260	H	0.021592	1.524654	0.106360
H261	H	0.354925	1.857988	0.439693
H262	H	-0.249298	1.131548	-0.222727
H263	H	0.084036	1.464881	0.110606
H264	H	0.417369	1.798215	0.443939
N265	N	0.077136	1.161483	-0.256784
N266	N	0.410470	1.494816	0.076550
N267	N	0.743803	1.828150	0.409883
H268	H	0.044032	1.191295	-0.226971
H269	H	0.377366	1.524629	0.106363
H270	H	0.710699	1.857962	0.439696
H271	H	0.106475	1.131521	-0.222724
H272	H	0.439808	1.464854	0.110610
H273	H	0.773141	1.798187	0.443943
