data_functionalizedCrystal
_audit_creation_method	'MofGen! by Chris Wilmer'
_symmetry_space_group_name_H-M	'P1'
_symmetry_Int_Tables_number	1
_symmetry_cell_setting	triclinic
loop_
_symmetry_equiv_pos_as_xyz
  x,y,z
_cell_length_a	10.723023
_cell_length_b	9.065215
_cell_length_c	7.540329
_cell_angle_alpha	89.997549
_cell_angle_beta	89.997501
_cell_angle_gamma	84.741123
loop_
_atom_site_label
_atom_site_type_symbol
_atom_site_fract_x
_atom_site_fract_y
_atom_site_fract_z
O1	O	1.658025	0.206935	-0.147460
O2	O	1.294953	0.226744	-0.147467
O3	O	1.483996	0.002154	-0.147456
O4	O	1.468983	0.431525	-0.147470
O5	O	1.483984	0.002151	0.147509
O6	O	1.294942	0.226741	0.147498
O7	O	1.658014	0.206932	0.147505
Cu8	Cu	1.476477	0.216836	0.174435
Cu9	Cu	1.476490	0.216839	-0.174396
O10	O	1.468971	0.431522	0.147495
C11	C	1.248442	0.225301	0.000015
C12	C	1.109870	0.220989	0.000012
C13	C	1.048084	0.219065	0.152812
C14	C	0.904863	0.214608	0.152812
C15	C	1.482548	-0.052826	0.000024
C16	C	1.478236	-0.216645	0.000018
C17	C	1.704525	0.208374	0.000020
C18	C	1.843097	0.212687	0.000011
C19	C	1.470419	0.486502	0.000011
C20	C	1.474731	0.650320	0.000005
N21	N	1.476476	0.216833	0.419783
N22	N	1.476500	0.216831	-0.419744
H23	H	1.056737	0.219332	-0.130804
O24	O	0.841458	0.212366	0.308841
C25	C	0.706922	0.080220	0.495163
C26	C	0.778694	0.082557	0.318410
H27	H	0.656138	-0.024704	0.502941
H28	H	0.775665	0.082260	0.610277
H29	H	0.635754	0.181448	0.503071
H30	H	0.849862	-0.018653	0.310328
H31	H	0.709875	0.080593	0.203380
O32	O	1.111302	0.221225	0.308999
C33	C	1.138738	0.350111	0.583737
C34	C	1.067034	0.347831	0.406932
H35	H	1.102993	0.452478	0.662950
H36	H	1.123426	0.246308	0.663198
H37	H	1.242955	0.353279	0.555890
H38	H	0.962795	0.344715	0.434618
H39	H	1.082450	0.451628	0.327526
H40	H	0.896222	0.214350	-0.130813
