data_functionalizedCrystal
_audit_creation_method	'MofGen! by Chris Wilmer'
_symmetry_space_group_name_H-M	'P1'
_symmetry_Int_Tables_number	1
_symmetry_cell_setting	triclinic
loop_
_symmetry_equiv_pos_as_xyz
  x,y,z
_cell_length_a	19.805407
_cell_length_b	12.645330
_cell_length_c	19.805399
_cell_angle_alpha	89.976144
_cell_angle_beta	89.979591
_cell_angle_gamma	90.014586
loop_
_atom_site_label
_atom_site_type_symbol
_atom_site_fract_x
_atom_site_fract_y
_atom_site_fract_z
Zn1	Zn	1.034800	-0.422009	-0.382752
Zn2	Zn	1.034742	-0.599287	-0.269571
Zn3	Zn	0.921615	-0.422044	-0.269575
Zn4	Zn	0.921606	-0.599237	-0.382717
O5	O	0.978191	-0.510644	-0.326154
O6	O	1.129509	-0.445532	-0.367752
O7	O	1.019716	-0.575811	-0.174855
O8	O	0.936658	-0.273692	-0.284605
O9	O	1.129467	-0.575777	-0.284598
O10	O	1.019814	-0.273666	-0.367756
O11	O	0.936601	-0.445592	-0.174858
O12	O	0.826897	-0.445543	-0.284570
O13	O	0.936642	-0.575691	-0.477438
O14	O	0.826890	-0.575726	-0.367695
O15	O	1.019805	-0.445483	-0.477464
O16	O	1.019706	-0.747628	-0.284564
O17	O	0.936585	-0.747591	-0.367691
C18	C	0.802335	-0.510633	-0.326129
C19	C	0.727103	-0.510654	-0.326135
C20	C	0.265338	-0.442952	-0.369544
C21	C	0.336026	-0.442954	-0.369539
C22	C	0.371341	-0.510660	-0.326176
C23	C	0.335964	-0.578377	-0.282819
C24	C	0.265277	-0.578379	-0.282828
C25	C	0.621038	-0.578369	-0.282783
C26	C	0.691730	-0.578358	-0.282776
C27	C	0.691786	-0.442943	-0.369495
C28	C	0.621099	-0.442946	-0.369504
C29	C	0.585729	-0.510666	-0.326150
C30	C	0.509080	-0.510664	-0.326156
C31	C	0.447988	-0.510657	-0.326165
C32	C	0.978157	-0.786074	-0.326138
C33	C	0.978204	-0.903904	-0.326154
C34	C	1.030412	-1.071447	-0.273752
C35	C	1.030582	-0.948887	-0.273880
C36	C	0.997546	-0.948291	-0.397501
C37	C	0.997960	-1.070889	-0.397223
C38	C	0.906635	-1.071234	-0.307911
C39	C	0.906978	-0.948629	-0.306311
C40	C	1.154734	-0.510656	-0.326179
C41	C	1.229966	-0.510661	-0.326189
C42	C	0.978229	-0.510578	-0.502697
C43	C	0.978245	-0.510549	-0.577929
C44	C	0.978243	-0.234139	-0.326185
C45	C	0.978266	-0.116309	-0.326198
C46	C	1.021549	-0.442746	-0.613288
C47	C	1.021556	-0.442715	-0.683976
C48	C	0.978262	-0.510494	-0.719304
C49	C	0.934953	-0.578300	-0.683940
C50	C	0.934943	-0.578324	-0.613253
C51	C	0.934991	-0.578201	-0.969014
C52	C	0.935006	-0.578173	-1.039706
C53	C	1.021604	-0.442592	-1.039737
C54	C	1.021594	-0.442617	-0.969050
C55	C	0.978283	-0.510418	-0.933692
C56	C	0.978275	-0.510449	-0.857043
C57	C	0.978273	-0.510469	-0.795952
C58	C	0.978192	-0.510634	-0.150298
C59	C	0.978307	-0.510364	-0.075066
H60	H	0.592349	-0.387809	-0.404812
H61	H	0.866030	-0.918020	-0.341709
N62	N	1.015379	-0.911217	-0.207526
N63	N	1.012892	-0.814038	-0.196272
H64	H	1.002144	-0.787436	-0.149409
H65	H	1.056807	-0.387556	-0.584528
H66	H	0.720594	-0.387806	-0.404798
H67	H	1.050318	-1.099400	-0.412713
H68	H	1.056821	-0.387506	-0.712762
N69	N	1.065832	-0.373323	-1.075867
N70	N	1.042036	-0.305752	-1.115312
H71	H	1.073271	-0.256834	-1.140829
H72	H	0.720481	-0.633498	-0.247463
H73	H	0.592247	-0.633507	-0.247480
H74	H	0.960721	-0.919151	-0.437624
N75	N	0.890762	-0.647466	-0.932898
N76	N	0.914552	-0.715034	-0.893447
H77	H	0.883313	-0.763954	-0.867936
H78	H	0.364724	-0.633508	-0.247514
H79	H	0.899673	-0.633526	-0.584465
N80	N	0.229154	-0.647554	-0.238540
N81	N	0.260691	-0.708003	-0.199826
H82	H	0.235180	-0.756864	-0.168548
H83	H	0.364823	-0.387822	-0.404846
N84	N	1.015422	-1.108531	-0.207195
N85	N	0.966135	-1.168462	-0.197633
H86	H	0.955547	-1.194660	-0.150625
H87	H	0.961642	-1.100562	-0.437645
H88	H	0.889046	-1.102239	-0.256791
H89	H	0.236589	-0.387811	-0.404852
N90	N	1.096608	-1.110002	-0.288760
N91	N	1.105547	-1.170375	-0.337913
H92	H	1.152298	-1.197606	-0.348514
N93	N	1.062485	-0.909658	-0.417253
N94	N	1.094634	-0.849448	-0.378908
H95	H	1.140499	-0.822162	-0.392854
N96	N	0.888691	-0.912250	-0.240441
N97	N	0.927931	-0.853599	-0.208192
H98	H	0.915019	-0.827903	-0.161670
N99	N	0.890727	-0.647519	-0.720035
N100	N	0.890741	-0.647490	-0.783148
H101	H	0.859506	-0.696378	-0.808641
N102	N	0.857900	-1.107635	-0.355833
N103	N	0.875751	-1.166516	-0.403267
H104	H	0.841337	-1.192230	-0.437115
N105	N	1.097141	-0.912000	-0.289053
N106	N	1.143611	-0.976801	-0.299585
H107	H	1.190621	-0.950752	-0.310303
H108	H	1.056852	-0.387428	-0.940289
N109	N	0.890772	-0.647414	-1.075784
N110	N	0.852102	-0.707942	-1.044208
H111	H	0.820863	-0.756840	-1.069687
