data_functionalizedCrystal
_audit_creation_method	'MofGen! by Chris Wilmer'
_symmetry_space_group_name_H-M	'P1'
_symmetry_Int_Tables_number	1
_symmetry_cell_setting	triclinic
loop_
_symmetry_equiv_pos_as_xyz
  x,y,z
_cell_length_a	14.971486
_cell_length_b	7.088929
_cell_length_c	14.971506
_cell_angle_alpha	96.230143
_cell_angle_beta	83.618258
_cell_angle_gamma	83.783872
loop_
_atom_site_label
_atom_site_type_symbol
_atom_site_fract_x
_atom_site_fract_y
_atom_site_fract_z
O1	O	1.177795	0.158763	0.125733
O2	O	0.917392	0.158814	0.139695
O3	O	1.054564	0.158782	0.002515
O4	O	1.040623	0.158795	0.262913
O5	O	1.072895	-0.159197	-0.015859
O6	O	0.935724	-0.159165	0.121321
O7	O	1.196126	-0.159217	0.107359
Cu8	Cu	1.067599	-0.188225	0.112662
Cu9	Cu	1.045920	0.187823	0.134392
O10	O	1.058955	-0.159185	0.244539
C11	C	0.893233	-0.000169	0.129884
C12	C	0.793935	-0.000149	0.128015
N13	N	1.082853	-0.452717	0.097378
C14	C	0.736715	-0.000148	0.208603
C15	C	0.643417	-0.000177	0.206838
C16	C	0.607340	-0.000193	0.124485
C17	C	0.664567	-0.000200	0.043890
C18	C	0.757864	-0.000185	0.045655
C19	C	0.470106	-0.000226	0.040217
C20	C	0.376802	-0.000238	0.038452
C21	C	0.355659	-0.000218	0.201401
C22	C	0.448956	-0.000203	0.203166
C23	C	0.506177	-0.000207	0.122570
C24	C	1.220285	-0.000229	0.117170
C25	C	1.319583	-0.000236	0.119041
C26	C	1.063103	-0.000205	-0.039996
C27	C	1.061224	-0.000196	-0.139292
N28	N	1.030672	0.452314	0.149669
C29	C	1.134643	-0.000211	-0.577575
C30	C	1.136402	-0.000224	-0.484276
C31	C	1.055808	-0.000201	-0.427055
C32	C	0.973452	-0.000186	-0.463138
C33	C	0.971695	-0.000187	-0.556437
C34	C	0.977118	-0.000179	-0.268675
C35	C	0.978874	-0.000174	-0.175369
C36	C	1.141824	-0.000216	-0.196514
C37	C	1.140068	-0.000217	-0.289812
C38	C	1.057711	-0.000198	-0.325889
C39	C	1.050415	-0.000194	0.287051
C40	C	1.052293	-0.000190	0.386347
H41	H	0.766081	-0.000134	0.275665
Br42	Br	1.173009	-0.588823	0.007066
H43	H	1.200271	-0.000214	-0.624158
H44	H	0.976593	-0.466027	0.203857
Br45	Br	0.869497	-0.000162	-0.097713
Br46	Br	1.248165	-0.000206	-0.435314
H47	H	1.205694	-0.000224	-0.336400
H48	H	1.208872	-0.000056	-0.167126
Br49	Br	0.865348	-0.000169	-0.317637
H50	H	0.347432	-0.000253	-0.028607
H51	H	0.907832	-0.000178	-0.416542
Br52	Br	0.859931	-0.000178	-0.605401
H53	H	0.516693	-0.000232	-0.025412
H54	H	0.596832	-0.000173	0.272462
H55	H	0.478326	-0.000172	0.270226
H56	H	0.309066	-0.000224	0.267024
H57	H	0.635187	-0.000240	-0.023165
H58	H	0.804452	-0.000185	-0.019969
