data_functionalizedCrystal
_audit_creation_method	'MofGen! by Chris Wilmer'
_symmetry_space_group_name_H-M	'P1'
_symmetry_Int_Tables_number	1
_symmetry_cell_setting	triclinic
loop_
_symmetry_equiv_pos_as_xyz
  x,y,z
_cell_length_a	12.759401
_cell_length_b	12.759400
_cell_length_c	12.827885
_cell_angle_alpha	89.969316
_cell_angle_beta	89.981935
_cell_angle_gamma	90.014845
loop_
_atom_site_label
_atom_site_type_symbol
_atom_site_fract_x
_atom_site_fract_y
_atom_site_fract_z
Zn1	Zn	1.606251	-0.418209	-0.590810
Zn2	Zn	1.606147	-0.593925	-0.416068
Zn3	Zn	1.430554	-0.418261	-0.416087
Zn4	Zn	1.430542	-0.593847	-0.590772
O5	O	1.518373	-0.506061	-0.503434
O6	O	1.753258	-0.441529	-0.567638
O7	O	1.582816	-0.570678	-0.269834
O8	O	1.453910	-0.271233	-0.439289
O9	O	1.753182	-0.570627	-0.439256
O10	O	1.582993	-0.271195	-0.567657
O11	O	1.453809	-0.441618	-0.269849
O12	O	1.283532	-0.441542	-0.439252
O13	O	1.453888	-0.570494	-0.737013
O14	O	1.283522	-0.570544	-0.567591
O15	O	1.582981	-0.441453	-0.737041
O16	O	1.582803	-0.740936	-0.439219
O17	O	1.453787	-0.740878	-0.567573
C18	C	1.245406	-0.506041	-0.503420
C19	C	1.128629	-0.506058	-0.503439
C20	C	1.073790	-0.573337	-0.570155
C21	C	0.964066	-0.573350	-0.570166
C22	C	0.964030	-0.438803	-0.436736
C23	C	1.073752	-0.438785	-0.436731
C24	C	1.128667	-0.640610	-0.636862
C25	C	1.073828	-0.707895	-0.703583
C26	C	0.964104	-0.707909	-0.703594
C27	C	0.909219	-0.640637	-0.636885
C28	C	1.518311	-0.779028	-0.503412
C29	C	1.518381	-0.895805	-0.503438
C30	C	1.585634	-0.950662	-0.436678
C31	C	1.585698	-1.060386	-0.436710
C32	C	1.451247	-1.060386	-0.570265
C33	C	1.451189	-0.950664	-0.570238
C34	C	1.652826	-0.895802	-0.369878
C35	C	1.720083	-0.950659	-0.303112
C36	C	1.720148	-1.060383	-0.303144
C37	C	1.652955	-1.115250	-0.369943
C38	C	1.792407	-0.506081	-0.503449
C39	C	1.909183	-0.506089	-0.503455
C40	C	1.518445	-0.505959	-0.776005
C41	C	1.518475	-0.505915	-0.892158
C42	C	1.518465	-0.232027	-0.503479
C43	C	1.518504	-0.115251	-0.503498
C44	C	1.582319	-0.569752	-0.943936
C45	C	1.582352	-0.569709	-1.063986
C46	C	1.518363	-0.506086	-0.231924
C47	C	1.518536	-0.505834	-0.115772
H48	H	1.118522	-0.762659	-0.757902
O49	O	1.785255	-0.897205	-0.238264
C50	C	1.770798	-0.788597	-0.252566
H51	H	1.689691	-0.773650	-0.286719
H52	H	1.833068	-0.757361	-0.308259
C53	C	1.880065	-0.750704	-0.104876
C54	C	1.780445	-0.732345	-0.146814
H55	H	1.886021	-0.716003	-0.039645
H56	H	1.889809	-0.823875	-0.095242
H57	H	1.931946	-0.724674	-0.151296
H58	H	1.728567	-0.758387	-0.100400
H59	H	1.770693	-0.659177	-0.156438
H60	H	0.919456	-0.762688	-0.757929
H61	H	1.652778	-0.806460	-0.369842
H62	H	0.819874	-0.640644	-0.636909
H63	H	1.636957	-0.624433	-0.899388
H64	H	1.463871	-0.451181	-1.071251
H65	H	1.396541	-1.105067	-0.624649
O66	O	0.910556	-0.373570	-0.371962
C67	C	0.801953	-0.387998	-0.386288
H68	H	0.786977	-0.469119	-0.420382
H69	H	0.770836	-0.325749	-0.442039
C70	C	0.763980	-0.278635	-0.238695
C71	C	0.745585	-0.378272	-0.280562
H72	H	0.729207	-0.272631	-0.173480
H73	H	0.837147	-0.268910	-0.229045
H74	H	0.738049	-0.226771	-0.285164
H75	H	0.771527	-0.430133	-0.234099
H76	H	0.672420	-0.388005	-0.290202
H77	H	1.463845	-0.451226	-0.936706
O78	O	1.126868	-0.373408	-0.371816
C79	C	1.054907	-0.314027	-0.312947
H80	H	0.976683	-0.357062	-0.309263
H81	H	1.043266	-0.234277	-0.351345
C82	C	1.193766	-0.245904	-0.206274
C83	C	1.097693	-0.298764	-0.201742
H84	H	1.220159	-0.236484	-0.137678
H85	H	1.242249	-0.285906	-0.245937
H86	H	1.184053	-0.179451	-0.238276
H87	H	1.107410	-0.365220	-0.169752
H88	H	1.049213	-0.258772	-0.162070
O89	O	1.785515	-1.113511	-0.238197
C90	C	1.844823	-1.041557	-0.179256
H91	H	1.801746	-0.963383	-0.175583
H92	H	1.924590	-1.029790	-0.217585
C93	C	1.912952	-1.180472	-0.072571
C94	C	1.860040	-1.084459	-0.068052
H95	H	1.922344	-1.206936	-0.003976
H96	H	1.872999	-1.228949	-0.112282
H97	H	1.979420	-1.170653	-0.104516
H98	H	1.793570	-1.094281	-0.036120
H99	H	1.899983	-1.035984	-0.028332
H100	H	1.396426	-0.905999	-0.624601
H101	H	1.218010	-0.640609	-0.636859
H102	H	1.637010	-0.624363	-1.108514
H103	H	1.653021	-1.204595	-0.369972
