data_functionalizedCrystal
_audit_creation_method	'MofGen! by Chris Wilmer'
_symmetry_space_group_name_H-M	'P1'
_symmetry_Int_Tables_number	1
_symmetry_cell_setting	triclinic
loop_
_symmetry_equiv_pos_as_xyz
  x,y,z
_cell_length_a	19.805407
_cell_length_b	21.295417
_cell_length_c	19.805398
_cell_angle_alpha	89.969179
_cell_angle_beta	89.986879
_cell_angle_gamma	90.029702
loop_
_atom_site_label
_atom_site_type_symbol
_atom_site_fract_x
_atom_site_fract_y
_atom_site_fract_z
Zn1	Zn	1.034677	-0.250617	-0.382709
Zn2	Zn	1.534677	0.249383	0.117291
Zn3	Zn	1.034598	-0.355888	-0.269517
Zn4	Zn	1.534598	0.144112	0.230483
Zn5	Zn	0.921504	-0.250637	-0.269534
Zn6	Zn	1.421504	0.249363	0.230466
Zn7	Zn	0.921449	-0.355853	-0.382663
Zn8	Zn	1.421449	0.144147	0.117337
O9	O	0.978057	-0.303249	-0.326106
O10	O	1.478057	0.196751	0.173894
O11	O	1.129383	-0.264589	-0.367706
O12	O	1.629383	0.235411	0.132294
O13	O	1.019586	-0.341949	-0.174802
O14	O	1.519586	0.158051	0.325198
O15	O	0.936573	-0.162545	-0.284573
O16	O	1.436573	0.337455	0.215427
O17	O	1.129325	-0.341930	-0.284544
O18	O	1.629325	0.158070	0.215456
O19	O	1.019721	-0.162531	-0.367723
O20	O	1.519721	0.337469	0.132277
O21	O	0.936497	-0.264621	-0.174815
O22	O	1.436497	0.235379	0.325185
O23	O	0.826781	-0.264587	-0.284529
O24	O	1.326781	0.235413	0.215471
O25	O	0.936478	-0.341870	-0.477386
O26	O	1.436478	0.158130	0.022614
O27	O	0.826740	-0.341889	-0.367644
O28	O	1.326740	0.158111	0.132356
O29	O	1.019667	-0.264554	-0.477420
O30	O	1.519667	0.235446	0.022580
O31	O	1.019532	-0.443973	-0.284499
O32	O	1.519532	0.056027	0.215501
O33	O	0.936402	-0.443947	-0.367628
O34	O	1.436402	0.056053	0.132372
C35	C	0.802201	-0.303237	-0.326084
C36	C	1.302201	0.196763	0.173916
C37	C	0.726969	-0.303247	-0.326091
C38	C	1.226969	0.196753	0.173909
C39	C	0.691621	-0.343558	-0.369299
C40	C	1.191621	0.156442	0.130701
C41	C	0.620933	-0.343559	-0.369308
C42	C	1.120933	0.156441	0.130692
C43	C	0.585594	-0.303252	-0.326106
C44	C	1.085594	0.196748	0.173894
C45	C	0.620946	-0.262936	-0.282895
C46	C	1.120946	0.237064	0.217105
C47	C	0.691633	-0.262932	-0.282890
C48	C	1.191633	0.237068	0.217110
C49	C	0.335873	-0.262949	-0.282918
C50	C	0.835873	0.237051	0.217082
C51	C	0.265181	-0.262958	-0.282925
C52	C	0.765181	0.237042	0.217075
C53	C	0.265172	-0.343577	-0.369336
C54	C	0.765172	0.156423	0.130664
C55	C	0.335860	-0.343573	-0.369331
C56	C	0.835860	0.156427	0.130669
C57	C	0.371206	-0.303255	-0.326123
C58	C	0.871206	0.196745	0.173877
C59	C	0.447855	-0.303254	-0.326114
C60	C	0.947855	0.196746	0.173886
C61	C	0.508946	-0.303256	-0.326111
C62	C	1.008946	0.196744	0.173889
C63	C	0.977971	-0.466800	-0.326071
C64	C	1.477971	0.033200	0.173929
C65	C	0.977996	-0.536768	-0.326079
C66	C	1.477996	-0.036768	0.173921
C67	C	1.021266	-0.569571	-0.369406
C68	C	1.521266	-0.069571	0.130594
C69	C	1.021290	-0.635313	-0.369423
C70	C	1.521290	-0.135313	0.130577
C71	C	0.978051	-0.668251	-0.326101
C72	C	1.478051	-0.168251	0.173899
C73	C	0.934772	-0.635441	-0.282771
C74	C	1.434772	-0.135441	0.217229
C75	C	0.934745	-0.569700	-0.282760
C76	C	1.434745	-0.069700	0.217240
N77	N	0.972946	-0.771513	-0.266865
N78	N	1.472946	-0.271513	0.233135
N79	N	0.972976	-0.833965	-0.266877
N80	N	1.472976	-0.333965	0.233123
C81	C	0.978130	-0.866326	-0.326131
C82	C	1.478130	-0.366326	0.173869
N83	N	0.983266	-0.833876	-0.385374
N84	N	1.483266	-0.333876	0.114626
N85	N	0.983239	-0.771419	-0.385362
N86	N	1.483239	-0.271419	0.114638
C87	C	0.978075	-0.739536	-0.326108
C88	C	1.478075	-0.239536	0.173892
C89	C	1.021428	-0.970413	-0.369480
C90	C	1.521428	-0.470413	0.130520
C91	C	1.021447	-1.036157	-0.369498
C92	C	1.521447	-0.536157	0.130502
C93	C	0.934933	-1.036284	-0.282840
C94	C	1.434933	-0.536284	0.217160
C95	C	0.934911	-0.970541	-0.282828
C96	C	1.434911	-0.470541	0.217172
C97	C	0.978162	-0.937610	-0.326147
C98	C	1.478162	-0.437610	0.173853
C99	C	1.154600	-0.303261	-0.326128
C100	C	1.654600	0.196739	0.173872
C101	C	1.229832	-0.303267	-0.326138
C102	C	1.729832	0.196733	0.173862
C103	C	0.978075	-0.303206	-0.502649
C104	C	1.478075	0.196794	-0.002649
C105	C	0.978083	-0.303188	-0.577881
C106	C	1.478083	0.196812	-0.077881
C107	C	0.978162	-0.139058	-0.326155
C108	C	1.478162	0.360942	0.173845
C109	C	0.978207	-0.069090	-0.326176
C110	C	1.478207	0.430910	0.173824
C111	C	1.021454	-0.343352	-1.039663
C112	C	1.521454	0.156648	-0.539663
C113	C	1.021436	-0.343370	-0.968974
C114	C	1.521436	0.156630	-0.468974
C115	C	0.978167	-0.303117	-0.933642
C116	C	1.478167	0.196883	-0.433642
C117	C	0.934909	-0.262849	-0.969003
C118	C	1.434909	0.237151	-0.469003
C119	C	0.934925	-0.262836	-1.039690
C120	C	1.434925	0.237164	-0.539690
C121	C	0.934844	-0.262903	-0.683929
C122	C	1.434844	0.237097	-0.183929
C123	C	0.934833	-0.262918	-0.613237
C124	C	1.434833	0.237082	-0.113237
C125	C	1.021354	-0.343437	-0.613214
C126	C	1.521354	0.156563	-0.113214
C127	C	1.021370	-0.343423	-0.683901
C128	C	1.521370	0.156577	-0.183901
C129	C	0.978110	-0.303158	-0.719255
C130	C	1.478110	0.196842	-0.219255
C131	C	0.978130	-0.303141	-0.795903
C132	C	1.478130	0.196859	-0.295903
C133	C	0.978150	-0.303131	-0.856995
C134	C	1.478150	0.196869	-0.356995
C135	C	0.978078	-0.303246	-0.150250
C136	C	1.478078	0.196754	0.349750
C137	C	0.978202	-0.303087	-0.075018
C138	C	1.478202	0.196913	0.424982
H139	H	0.720413	-0.230103	-0.247709
H140	H	1.220413	0.269897	0.252291
H141	H	1.056683	-1.062863	-0.404783
H142	H	1.556683	-0.562863	0.095217
H143	H	1.056482	-0.542760	-0.404681
H144	H	1.556482	-0.042760	0.095319
H145	H	0.364644	-0.230125	-0.247731
H146	H	0.864644	0.269875	0.252269
C147	C	0.582070	-0.218595	-0.235374
C148	C	1.082070	0.281405	0.264626
N149	N	0.552790	-0.185198	-0.199578
N150	N	1.052790	0.314802	0.300422
H151	H	0.592156	-0.376386	-0.404492
H152	H	1.092156	0.123614	0.095508
C153	C	0.374729	-0.387916	-0.416856
C154	C	0.874729	0.112084	0.083144
N155	N	0.404004	-0.421314	-0.452655
N156	N	0.904004	0.078686	0.047345
C157	C	0.887267	-0.218601	-0.722810
C158	C	1.387267	0.281399	-0.222810
N159	N	0.851433	-0.185227	-0.752097
N160	N	1.351433	0.314773	-0.252097
C161	C	1.068995	-0.934187	-0.417141
C162	C	1.568995	-0.434187	0.082859
N163	N	1.104822	-0.906903	-0.453041
N164	N	1.604822	-0.406903	0.046959
H165	H	0.899676	-0.230078	-0.940230
H166	H	1.399676	0.269922	-0.440230
C167	C	0.887140	-0.533616	-0.235098
C168	C	1.387140	-0.033616	0.264902
N169	N	0.851282	-0.506437	-0.199198
N170	N	1.351282	-0.006437	0.300802
C171	C	1.069054	-0.387635	-1.078521
C172	C	1.569054	0.112365	-0.578521
N173	N	1.104905	-0.420991	-1.107788
N174	N	1.604905	0.079009	-0.607788
C175	C	0.887360	-1.072511	-0.235194
C176	C	1.387360	-0.572511	0.264806
N177	N	0.851523	-1.099801	-0.199309
N178	N	1.351523	-0.599801	0.300691
C179	C	1.069050	-0.387635	-0.930087
C180	C	1.569050	0.112365	-0.430087
N181	N	1.104927	-0.420966	-0.900797
N182	N	1.604927	0.079034	-0.400797
C183	C	1.068968	-0.387705	-0.722762
C184	C	1.568968	0.112295	-0.222762
N185	N	1.104817	-0.421062	-0.752031
N186	N	1.604817	0.078938	-0.252031
C187	C	0.226285	-0.387923	-0.416872
C188	C	0.726285	0.112077	0.083128
N189	N	0.196996	-0.421324	-0.452673
N190	N	0.696996	0.078676	0.047327
C191	C	1.068895	-0.671403	-0.417085
C192	C	1.568895	-0.171403	0.082915
N193	N	1.104753	-0.698583	-0.452983
N194	N	1.604753	-0.198583	0.047017
H195	H	1.056577	-0.376225	-0.584420
H196	H	1.556577	0.123775	-0.084420
C197	C	0.226309	-0.218609	-0.235402
C198	C	0.726309	0.281391	0.264598
N199	N	0.197031	-0.185206	-0.199610
N200	N	0.697031	0.314794	0.300390
C201	C	0.730488	-0.387901	-0.416826
C202	C	1.230488	0.112099	0.083174
N203	N	0.759761	-0.421300	-0.452627
N204	N	1.259761	0.078700	0.047373
H205	H	0.899705	-0.230046	-1.068475
H206	H	1.399705	0.269954	-0.568475
H207	H	0.899679	-0.943832	-0.247544
H208	H	1.399679	-0.443832	0.252456
C209	C	0.887235	-0.671674	-0.235090
C210	C	1.387235	-0.171674	0.264910
N211	N	0.851437	-0.698964	-0.199167
N212	N	1.351437	-0.198964	0.300833
C213	C	0.887228	-0.218639	-0.574374
C214	C	1.387228	0.281361	-0.074374
N215	N	0.851373	-0.185290	-0.545102
N216	N	1.351373	0.314710	-0.045102
