data_functionalizedCrystal
_audit_creation_method	'MofGen! by Chris Wilmer'
_symmetry_space_group_name_H-M	'P1'
_symmetry_Int_Tables_number	1
_symmetry_cell_setting	triclinic
loop_
_symmetry_equiv_pos_as_xyz
  x,y,z
_cell_length_a	10.723022
_cell_length_b	9.798715
_cell_length_c	8.559649
_cell_angle_alpha	89.998340
_cell_angle_beta	102.877055
_cell_angle_gamma	90.003403
loop_
_atom_site_label
_atom_site_type_symbol
_atom_site_fract_x
_atom_site_fract_y
_atom_site_fract_z
O1	O	1.634238	0.113475	-0.223858
O2	O	1.268888	0.113479	-0.245289
O3	O	1.483751	0.113475	-0.002324
O4	O	1.419375	0.113479	-0.466823
O5	O	1.483737	-0.113507	-0.002322
O6	O	1.268874	-0.113503	-0.245287
O7	O	1.634224	-0.113507	-0.223856
Zn8	Zn	1.451547	-0.149543	-0.234571
Zn9	Zn	1.451565	0.149515	-0.234574
O10	O	1.419361	-0.113503	-0.466821
C11	C	1.222541	-0.000011	-0.243729
C12	C	1.084465	-0.000010	-0.239064
C13	C	0.852843	-0.000006	-0.370190
C14	C	0.995552	-0.000008	-0.375015
N15	N	1.451543	-0.353643	-0.234569
C16	C	1.514819	-0.421421	-0.327124
C17	C	1.514839	-0.578584	-0.327122
C18	C	1.680571	-0.000014	-0.225416
C19	C	1.818647	-0.000006	-0.230081
C20	C	1.488622	-0.000013	0.057153
C21	C	1.503144	-0.000006	0.234374
N22	N	1.451580	0.353615	-0.234564
C23	C	1.414490	-0.000012	-0.526298
C24	C	1.399968	-0.000010	-0.703519
H25	H	1.054961	0.000026	-0.119098
H26	H	1.397389	-0.411968	-0.155324
F27	F	1.269986	-0.000012	0.188771
H28	H	0.895021	0.000001	-0.113699
H29	H	1.602593	-0.000018	0.316791
H30	H	1.568983	-0.363096	-0.406358
F31	F	1.034122	-0.000017	-0.531818
F32	F	1.585643	-0.654764	-0.430706
H33	H	0.776469	0.000004	-0.486571
F34	F	1.380759	-0.570213	-0.130992
