data_functionalizedCrystal
_audit_creation_method	'MofGen! by Chris Wilmer'
_symmetry_space_group_name_H-M	'P1'
_symmetry_Int_Tables_number	1
_symmetry_cell_setting	triclinic
loop_
_symmetry_equiv_pos_as_xyz
  x,y,z
_cell_length_a	16.109301
_cell_length_b	16.109304
_cell_length_c	15.186229
_cell_angle_alpha	90.000934
_cell_angle_beta	90.000638
_cell_angle_gamma	83.462059
loop_
_atom_site_label
_atom_site_type_symbol
_atom_site_fract_x
_atom_site_fract_y
_atom_site_fract_z
O1	O	-1.103132	-0.106866	-0.073167
O2	O	-0.603132	0.393134	0.426833
O3	O	-0.861070	-0.120165	-0.073181
O4	O	-0.361070	0.379835	0.426819
O5	O	-0.988749	0.007515	-0.073174
O6	O	-0.488749	0.507515	0.426826
O7	O	-0.975452	-0.234546	-0.073174
O8	O	-0.475452	0.265454	0.426826
O9	O	-0.988741	0.007517	0.073283
O10	O	-0.488741	0.507517	0.573283
O11	O	-0.861061	-0.120163	0.073277
O12	O	-0.361061	0.379837	0.573277
O13	O	-1.103123	-0.106864	0.073290
O14	O	-0.603123	0.393136	0.573290
Zn15	Zn	-0.982091	-0.113513	0.096537
Zn16	Zn	-0.482091	0.386487	0.596537
Zn17	Zn	-0.982102	-0.113516	-0.096427
Zn18	Zn	-0.482102	0.386484	0.403573
O19	O	-0.975444	-0.234545	0.073283
O20	O	-0.475444	0.265455	0.573283
C21	C	-0.830091	-0.119626	0.000046
C22	C	-0.330091	0.380374	0.500046
C23	C	-0.737795	-0.118010	0.000041
C24	C	-0.237795	0.381990	0.500041
C25	C	-0.988206	0.038491	0.000052
C26	C	-0.488206	0.538491	0.500052
C27	C	-0.986590	0.130786	0.000046
C28	C	-0.486590	0.630786	0.500046
N29	N	-0.982089	-0.113511	0.228229
N30	N	-0.482089	0.386489	0.728229
C31	C	-1.134102	-0.107404	0.000061
C32	C	-0.634102	0.392596	0.500061
C33	C	-1.226398	-0.109019	0.000061
C34	C	-0.726398	0.390981	0.500061
C35	C	-0.515524	-0.190018	0.000051
C36	C	-0.015524	0.309982	0.500051
C37	C	-0.428803	-0.188494	0.000057
C38	C	0.071197	0.311506	0.500057
C39	C	-0.448676	-0.037005	0.000053
C40	C	0.051324	0.462995	0.500053
C41	C	-0.535395	-0.038530	0.000054
C42	C	-0.035395	0.461470	0.500054
C43	C	-0.568816	-0.115039	0.000048
C44	C	-0.068816	0.384961	0.500048
C45	C	-0.395377	-0.111990	0.000053
C46	C	0.104623	0.388010	0.500053
C47	C	-0.301351	-0.110337	0.000059
C48	C	0.198649	0.389663	0.500059
C49	C	-0.662848	-0.116693	0.000044
C50	C	-0.162848	0.383307	0.500044
C51	C	-0.975987	-0.265520	0.000055
C52	C	-0.475987	0.234480	0.500055
C53	C	-0.977603	-0.357816	0.000055
C54	C	-0.477603	0.142184	0.500055
C55	C	-0.982861	0.343123	-0.079784
C56	C	-0.482861	0.843123	0.420216
C57	C	-0.981335	0.429843	-0.079784
C58	C	-0.481335	0.929843	0.420216
C59	C	-0.981330	0.429842	0.079892
C60	C	-0.481330	0.929842	0.579892
C61	C	-0.982850	0.343122	0.079890
C62	C	-0.482850	0.843122	0.579890
C63	C	-0.983620	0.299766	0.000050
C64	C	-0.483620	0.799766	0.500050
C65	C	-0.980573	0.473205	0.000052
C66	C	-0.480573	0.973205	0.500052
C67	C	-0.978919	0.567231	0.000053
C68	C	-0.478919	1.067231	0.500053
C69	C	-0.985273	0.205734	0.000048
C70	C	-0.485273	0.705734	0.500048
N71	N	-0.982110	-0.113511	-0.228120
N72	N	-0.482110	0.386489	0.271880
C73	C	-1.038645	-0.056993	0.453955
C74	C	-0.538645	0.443007	0.953955
C75	C	-1.038648	-0.056991	0.546145
C76	C	-0.538648	0.443009	1.046145
C77	C	-0.925549	-0.170032	0.546148
C78	C	-0.425549	0.329968	1.046148
C79	C	-0.925543	-0.170029	0.453960
C80	C	-0.425543	0.329971	0.953960
C81	C	-0.982096	-0.113511	0.407866
C82	C	-0.482096	0.386489	0.907866
C83	C	-0.982104	-0.113512	0.592243
C84	C	-0.482104	0.386488	1.092243
C85	C	-0.982107	-0.113510	0.692200
C86	C	-0.482107	0.386490	1.192200
C87	C	-0.982092	-0.113511	0.307903
C88	C	-0.482092	0.386489	0.807903
H89	H	-0.542732	-0.252316	0.000053
H90	H	-0.042732	0.247684	0.500053
C91	C	-0.980533	0.477536	-0.167607
C92	C	-0.480533	0.977536	0.332393
N93	N	-0.979940	0.513459	-0.233760
N94	N	-0.479940	1.013459	0.266240
H95	H	-0.980705	0.465154	0.144896
H96	H	-0.480705	0.965154	0.644896
C97	C	-0.983684	0.295427	0.167719
C98	C	-0.483684	0.795427	0.667719
N99	N	-0.984309	0.259502	0.233868
N100	N	-0.484309	0.759502	0.733868
C101	C	-0.983698	0.295432	-0.167611
C102	C	-0.483698	0.795432	0.332389
N103	N	-0.984325	0.259513	-0.233766
N104	N	-0.484325	0.759513	0.266234
C105	C	-1.100848	0.005185	0.403255
C106	C	-0.600848	0.505185	0.903255
N107	N	-1.147699	0.052022	0.365070
N108	N	-0.647699	0.552022	0.865070
C109	C	-0.370185	-0.270977	0.000064
C110	C	0.129815	0.229023	0.500064
N111	N	-0.326033	-0.333107	0.000072
N112	N	0.173967	0.166893	0.500072
C113	C	-1.100850	0.005189	0.596838
C114	C	-0.600850	0.505189	1.096838
N115	N	-1.147700	0.052029	0.635020
N116	N	-0.647700	0.552029	1.135020
H117	H	-0.879506	-0.216049	0.583687
H118	H	-0.379506	0.283951	1.083687
C119	C	-0.863368	-0.232244	0.403259
C120	C	-0.363368	0.267756	0.903259
N121	N	-0.816553	-0.279115	0.365071
N122	N	-0.316553	0.220885	0.865071
H123	H	-0.421454	0.025285	0.000063
H124	H	0.078546	0.525285	0.500063
H125	H	-0.578788	0.022530	0.000054
H126	H	-0.078788	0.522530	0.500054
