data_functionalizedCrystal
_audit_creation_method	'MofGen! by Chris Wilmer'
_symmetry_space_group_name_H-M	'P1'
_symmetry_Int_Tables_number	1
_symmetry_cell_setting	triclinic
loop_
_symmetry_equiv_pos_as_xyz
  x,y,z
_cell_length_a	13.635800
_cell_length_b	12.908942
_cell_length_c	9.514088
_cell_angle_alpha	87.677185
_cell_angle_beta	61.156445
_cell_angle_gamma	100.860556
loop_
_atom_site_label
_atom_site_type_symbol
_atom_site_fract_x
_atom_site_fract_y
_atom_site_fract_z
V1	V	-2.101742	-0.147717	0.499838
O2	O	-2.100926	0.005177	0.491242
O3	O	-2.070059	-0.291049	0.495535
O4	O	-2.119199	-0.146288	0.718238
O5	O	-2.051446	-0.140587	0.266998
V6	V	-2.339128	-0.129329	0.472096
O7	O	-2.241970	-0.188051	0.560692
O8	O	-2.423999	-0.088995	0.411241
O9	O	-2.259208	0.014003	0.476398
O10	O	-2.398643	-0.282222	0.480691
O11	O	-2.448123	-0.136459	0.704936
O12	O	-2.210068	-0.130758	0.253696
V13	V	-1.601742	-0.147717	0.499838
O14	O	-1.600926	0.005177	0.491242
O15	O	-1.570059	-0.291049	0.495535
O16	O	-1.619199	-0.146288	0.718238
O17	O	-1.551446	-0.140587	0.266998
V18	V	-1.839128	-0.129329	0.472096
O19	O	-1.741970	-0.188051	0.560692
O20	O	-1.923999	-0.088995	0.411241
O21	O	-1.759208	0.014003	0.476398
O22	O	-1.898643	-0.282222	0.480691
O23	O	-1.948123	-0.136459	0.704936
O24	O	-1.710068	-0.130758	0.253696
C25	C	-1.989392	-0.325964	0.487422
C26	C	-2.004408	-0.443145	0.485360
C27	C	-2.217309	-0.674144	0.497479
C28	C	-2.231424	-0.784246	0.495542
C29	C	-2.046756	-0.773457	0.479560
C30	C	-2.032642	-0.663354	0.481497
C31	C	-2.117922	-0.613701	0.490454
C32	C	-2.103802	-0.503595	0.492380
C33	C	-1.919140	-0.492809	0.476409
C34	C	-1.933254	-0.602912	0.474472
C35	C	-2.052073	-0.141305	0.771499
C36	C	-2.106938	-0.141085	0.950036
C37	C	-2.171546	0.048913	0.484507
C38	C	-2.146150	0.166093	0.486580
C39	C	-2.108864	-0.135744	0.200426
C40	C	-2.043618	-0.135959	0.021887
C41	C	-1.489392	-0.325964	0.487422
C42	C	-1.504408	-0.443145	0.485360
C43	C	-1.464070	-0.482578	0.337400
C44	C	-1.478187	-0.592681	0.335440
C45	C	-1.532635	-0.663349	0.481441
C46	C	-1.572979	-0.623910	0.629413
C47	C	-1.558869	-0.513810	0.631371
C48	C	-1.552073	-0.141305	0.771499
C49	C	-1.606938	-0.141085	0.950036
C50	C	-1.671546	0.048913	0.484507
C51	C	-1.646150	0.166093	0.486580
C52	C	-1.608864	-0.135744	0.200426
C53	C	-1.543618	-0.135959	0.021887
C54	C	-1.577092	0.236736	0.340562
C55	C	-1.553206	0.346841	0.342487
C56	C	-1.598387	0.386301	0.490431
C57	C	-1.667449	0.315650	0.636460
C58	C	-1.691326	0.205546	0.634534
H59	H	-2.173239	-0.463169	0.499662
Br60	Br	-1.728755	0.369220	0.837230
H61	H	-2.286740	-0.633713	0.504748
H62	H	-1.863827	-0.643355	0.467185
Br63	Br	-1.931042	-0.840864	0.467431
Br64	Br	-1.390171	-0.386693	0.139230
H65	H	-1.838208	-0.443585	0.470687
Br66	Br	-2.267258	-0.148134	1.075159
Br67	Br	-1.646868	-0.719832	0.827544
Br68	Br	-1.423427	-0.646179	0.134607
H69	H	-1.747565	0.148035	0.753444
Br70	Br	-1.883296	-0.128935	0.896765
Br71	Br	-1.613614	-0.460310	0.832195
H72	H	-1.544116	-0.752997	0.479823
Br73	Br	-1.767264	-0.148130	1.075164
H74	H	-1.540293	0.204624	0.220083
Br75	Br	-1.459482	0.442704	0.144289
Br76	Br	-1.383303	-0.128937	0.896771
H77	H	-2.312354	-0.833455	0.501265
H78	H	-1.578932	0.475957	0.491977
