data_functionalizedCrystal
_audit_creation_method	'MofGen! by Chris Wilmer'
_symmetry_space_group_name_H-M	'P1'
_symmetry_Int_Tables_number	1
_symmetry_cell_setting	triclinic
loop_
_symmetry_equiv_pos_as_xyz
  x,y,z
_cell_length_a	12.759401
_cell_length_b	12.759400
_cell_length_c	12.759393
_cell_angle_alpha	89.968123
_cell_angle_beta	89.982961
_cell_angle_gamma	90.014845
loop_
_atom_site_label
_atom_site_type_symbol
_atom_site_fract_x
_atom_site_fract_y
_atom_site_fract_z
Zn1	Zn	1.606240	-0.418197	-0.593981
Zn2	Zn	1.606139	-0.593916	-0.418301
Zn3	Zn	1.430547	-0.418253	-0.418321
Zn4	Zn	1.430531	-0.593835	-0.593943
O5	O	1.518364	-0.506050	-0.506137
O6	O	1.753248	-0.441517	-0.570685
O7	O	1.582811	-0.570672	-0.271283
O8	O	1.453902	-0.271224	-0.441647
O9	O	1.753174	-0.570618	-0.441614
O10	O	1.582983	-0.271183	-0.570704
O11	O	1.453804	-0.441612	-0.271297
O12	O	1.283524	-0.441533	-0.441609
O13	O	1.453875	-0.570478	-0.740969
O14	O	1.283512	-0.570532	-0.570638
O15	O	1.582968	-0.441438	-0.740997
O16	O	1.582796	-0.740927	-0.441577
O17	O	1.453777	-0.740866	-0.570620
C18	C	1.245397	-0.506031	-0.506122
C19	C	1.128620	-0.506048	-0.506141
C20	C	1.073780	-0.573325	-0.573215
C21	C	0.964056	-0.573339	-0.573227
C22	C	0.964022	-0.438794	-0.439081
C23	C	1.073745	-0.438776	-0.439075
C24	C	1.073798	-0.651007	-0.650660
C25	C	0.964074	-0.651020	-0.650672
C26	C	1.518302	-0.779017	-0.506115
C27	C	1.518371	-0.895794	-0.506140
C28	C	1.585626	-0.950652	-0.439022
C29	C	1.585690	-1.060376	-0.439054
C30	C	1.451237	-1.060374	-0.573327
C31	C	1.451179	-0.950652	-0.573299
C32	C	1.663249	-0.950655	-0.361498
C33	C	1.663313	-1.060379	-0.361530
C34	C	1.792398	-0.506070	-0.506152
C35	C	1.909174	-0.506079	-0.506158
C36	C	1.518431	-0.505943	-0.780170
C37	C	1.518459	-0.505897	-0.896947
C38	C	1.518456	-0.232017	-0.506182
C39	C	1.518494	-0.115240	-0.506201
C40	C	1.451306	-0.573033	-1.061521
C41	C	1.451266	-0.573064	-0.951797
C42	C	1.585690	-0.438687	-0.951827
C43	C	1.585724	-0.438652	-1.061549
C44	C	1.373701	-0.650618	-1.061503
C45	C	1.373661	-0.650649	-0.951778
C46	C	1.518358	-0.506081	-0.233169
C47	C	1.518534	-0.505831	-0.116393
H48	H	1.103604	-0.629307	-0.732067
H49	H	1.640459	-0.383921	-1.106222
O50	O	1.114561	-0.743084	-0.615718
C51	C	1.224910	-0.737627	-0.617807
H52	H	1.250575	-0.652091	-0.614932
H53	H	1.255197	-0.775244	-0.692964
C54	C	1.238346	-0.901451	-0.525977
C55	C	1.269869	-0.796394	-0.522437
H56	H	1.266080	-0.937705	-0.467152
H57	H	1.164002	-0.905130	-0.524573
H58	H	1.263587	-0.932785	-0.588612
H59	H	1.244616	-0.765059	-0.459810
H60	H	1.344210	-0.792711	-0.523828
O61	O	1.408318	-0.742805	-1.102225
C62	C	1.328806	-0.787785	-1.164363
H63	H	1.272570	-0.723921	-1.191574
H64	H	1.284062	-0.848381	-1.116245
C65	C	1.447430	-0.919775	-1.227060
C66	C	1.378365	-0.841334	-1.260489
H67	H	1.477999	-0.952811	-1.286353
H68	H	1.500998	-0.889474	-1.185193
H69	H	1.410133	-0.970261	-1.186961
H70	H	1.415665	-0.790843	-1.300575
H71	H	1.324804	-0.871628	-1.302365
H72	H	1.640392	-0.383991	-0.907159
H73	H	1.296360	-0.621514	-0.917757
H74	H	1.118392	-0.383985	-0.384464
O75	O	0.928465	-0.748092	-0.624682
C76	C	0.867112	-0.788152	-0.707364
H77	H	0.889811	-0.747531	-0.783667
H78	H	0.780687	-0.773285	-0.690251
C79	C	0.858298	-0.956757	-0.624008
C80	C	0.886184	-0.906871	-0.717726
H81	H	0.870058	-1.029989	-0.630398
H82	H	0.899630	-0.929767	-0.568302
H83	H	0.786278	-0.944357	-0.609758
H84	H	0.958205	-0.919260	-0.731968
H85	H	0.844865	-0.933866	-0.773436
O86	O	0.910552	-0.373558	-0.373961
C87	C	0.801948	-0.387978	-0.388367
H88	H	0.786965	-0.469098	-0.422642
H89	H	0.770836	-0.325727	-0.444420
C90	C	0.763981	-0.278609	-0.239986
C91	C	0.745579	-0.378246	-0.282075
H92	H	0.729208	-0.272601	-0.174422
H93	H	0.837149	-0.268890	-0.230283
H94	H	0.738055	-0.226744	-0.286707
H95	H	0.771517	-0.430108	-0.235360
H96	H	0.672413	-0.387973	-0.291768
O97	O	0.923556	-0.616537	-0.743033
C98	C	0.957822	-0.682124	-0.825065
H99	H	0.980338	-0.761976	-0.791888
H100	H	1.028811	-0.645319	-0.864989
C101	C	0.841287	-0.597544	-0.946310
C102	C	0.868934	-0.695622	-0.905562
H103	H	0.786459	-0.605867	-0.995967
H104	H	0.818204	-0.553354	-0.891045
H105	H	0.900452	-0.566883	-0.979572
H106	H	0.809773	-0.726275	-0.872290
H107	H	0.892005	-0.739818	-0.960824
O108	O	1.386004	-0.897317	-0.638617
C109	C	1.445752	-0.833729	-0.706488
H110	H	1.528515	-0.866721	-0.713045
H111	H	1.449338	-0.750594	-0.673989
C112	C	1.292725	-0.791480	-0.807615
C113	C	1.394373	-0.832007	-0.815676
H114	H	1.261031	-0.790414	-0.874966
H115	H	1.252470	-0.834318	-0.761887
H116	H	1.295727	-0.722205	-0.780528
H117	H	1.391369	-0.901285	-0.842749
H118	H	1.434627	-0.789181	-0.861411
O119	O	1.276572	-0.624724	-1.096914
C120	C	1.203015	-0.698511	-1.059995
H121	H	1.234910	-0.738246	-0.986596
H122	H	1.188269	-0.759987	-1.123099
C123	C	1.060325	-0.593586	-1.123724
C124	C	1.099496	-0.642383	-1.033568
H125	H	0.996468	-0.558966	-1.107427
H126	H	1.109882	-0.543876	-1.148601
H127	H	1.048045	-0.644825	-1.176302
H128	H	1.111787	-0.591143	-0.980997
H129	H	1.049939	-0.692083	-1.008681
O130	O	1.637259	-1.096143	-0.264529
C131	C	1.545629	-1.157559	-0.271231
H132	H	1.536745	-1.188726	-0.354472
H133	H	1.474614	-1.107500	-0.250445
C134	C	1.564382	-1.211887	-0.091950
C135	C	1.553475	-1.250174	-0.194186
H136	H	1.569218	-1.269014	-0.044422
H137	H	1.626112	-1.170507	-0.087433
H138	H	1.505200	-1.170171	-0.074642
H139	H	1.612662	-1.291877	-0.211496
H140	H	1.491755	-1.291563	-0.198704
H141	H	1.396532	-1.105053	-0.628005
H142	H	1.395475	-0.732015	-0.921979
H143	H	1.744591	-0.920797	-0.383349
H144	H	1.634125	-0.916708	-0.284172
H145	H	1.740616	-1.094323	-0.390742
