data_functionalizedCrystal
_audit_creation_method	'MofGen! by Chris Wilmer'
_symmetry_space_group_name_H-M	'P1'
_symmetry_Int_Tables_number	1
_symmetry_cell_setting	triclinic
loop_
_symmetry_equiv_pos_as_xyz
  x,y,z
_cell_length_a	16.109301
_cell_length_b	16.109301
_cell_length_c	14.586319
_cell_angle_alpha	90.013784
_cell_angle_beta	89.991755
_cell_angle_gamma	96.538519
loop_
_atom_site_label
_atom_site_type_symbol
_atom_site_fract_x
_atom_site_fract_y
_atom_site_fract_z
O1	O	1.103135	-0.106876	-0.076243
O2	O	1.603135	0.393124	0.423757
O3	O	0.861073	-0.120175	-0.076245
O4	O	1.361073	0.379825	0.423755
O5	O	0.988754	0.007505	-0.076235
O6	O	1.488754	0.507505	0.423765
O7	O	0.975455	-0.234557	-0.076254
O8	O	1.475455	0.265443	0.423746
O9	O	0.988736	0.007527	0.076246
O10	O	1.488736	0.507527	0.576246
O11	O	0.861055	-0.120154	0.076236
O12	O	1.361055	0.379846	0.576236
O13	O	1.103117	-0.106854	0.076238
O14	O	1.603117	0.393146	0.576238
Cu15	Cu	0.982085	-0.113502	0.090159
Cu16	Cu	1.482085	0.386498	0.590159
Cu17	Cu	0.982106	-0.113528	-0.090167
Cu18	Cu	1.482106	0.386472	0.409833
O19	O	0.975437	-0.234535	0.076227
O20	O	1.475437	0.265465	0.576227
C21	C	0.830090	-0.119626	-0.000005
C22	C	1.330090	0.380374	0.499995
C23	C	0.737794	-0.118011	-0.000006
C24	C	1.237794	0.381989	0.499994
N25	N	0.982076	-0.113484	0.216991
N26	N	1.482076	0.386516	0.716991
C27	C	0.988206	0.038491	0.000006
C28	C	1.488206	0.538491	0.500006
C29	C	0.986591	0.130786	0.000007
C30	C	1.486591	0.630786	0.500007
C31	C	1.134101	-0.107404	-0.000004
C32	C	1.634101	0.392596	0.499996
C33	C	1.226397	-0.109019	-0.000010
C34	C	1.726397	0.390981	0.499990
C35	C	1.448669	-0.037011	0.000000
C36	C	1.948669	0.462989	0.500000
C37	C	1.535389	-0.038535	0.000003
C38	C	2.035389	0.461465	0.500003
C39	C	1.515515	-0.190024	-0.000013
C40	C	2.015515	0.309976	0.499987
C41	C	1.428796	-0.188499	-0.000010
C42	C	1.928796	0.311501	0.499990
C43	C	1.395376	-0.111990	-0.000008
C44	C	1.895376	0.388010	0.499992
C45	C	1.568815	-0.115039	-0.000008
C46	C	2.068815	0.384961	0.499992
C47	C	1.662841	-0.116692	-0.000005
C48	C	2.162841	0.383308	0.499995
C49	C	1.301344	-0.110337	-0.000009
C50	C	1.801344	0.389663	0.499991
C51	C	0.975984	-0.265521	-0.000016
C52	C	1.475984	0.234479	0.499984
C53	C	0.977600	-0.357816	-0.000023
C54	C	1.477600	0.142184	0.499977
C55	C	1.058599	0.353059	-0.000006
C56	C	1.558599	0.853059	0.499994
C57	C	1.057075	0.439779	-0.000014
C58	C	1.557075	0.939779	0.499986
C59	C	0.905586	0.419905	-0.000012
C60	C	1.405586	0.919905	0.499988
C61	C	0.907111	0.333186	-0.000011
C62	C	1.407111	0.833186	0.499989
C63	C	0.983620	0.299766	-0.000003
C64	C	1.483620	0.799766	0.499997
C65	C	0.980571	0.473205	-0.000012
C66	C	1.480571	0.973205	0.499988
C67	C	0.978918	0.567231	-0.000020
C68	C	1.478918	1.067231	0.499980
C69	C	0.985273	0.205734	0.000003
C70	C	1.485273	0.705734	0.500003
N71	N	0.982122	-0.113539	-0.216999
N72	N	1.482122	0.386461	0.283001
C73	C	0.931693	-0.063079	0.548024
C74	C	1.431693	0.436921	1.048024
C75	C	0.931687	-0.063067	0.452042
C76	C	1.431687	0.436933	0.952042
C77	C	1.032510	-0.163946	0.451976
C78	C	1.532510	0.336054	0.951976
C79	C	1.032520	-0.163953	0.547955
C80	C	1.532520	0.336047	1.047955
C81	C	0.982107	-0.113521	0.595977
C82	C	1.482107	0.386479	1.095977
C83	C	0.982090	-0.113503	0.404016
C84	C	1.482090	0.386497	0.904016
C85	C	0.982083	-0.113490	0.299949
C86	C	1.482083	0.386510	0.799949
C87	C	0.982115	-0.113531	0.700050
C88	C	1.482115	0.386469	1.200050
H89	H	1.421461	0.025287	0.000004
H90	H	1.921461	0.525287	0.500004
H91	H	0.843295	0.447127	-0.000016
H92	H	1.343295	0.947127	0.499984
C93	C	1.552277	-0.274179	-0.000028
C94	C	2.052277	0.225821	0.499972
H95	H	1.508115	-0.318615	-0.000025
H96	H	2.008115	0.181385	0.499975
H97	H	1.585696	-0.277927	-0.053205
H98	H	2.085696	0.222073	0.446795
H99	H	1.585689	-0.277919	0.053149
H100	H	2.085689	0.222081	0.553149
H101	H	1.118130	0.483168	-0.000018
H102	H	1.618130	0.983168	0.499982
C103	C	1.370170	-0.270980	-0.000022
C104	C	1.870170	0.229020	0.499978
H105	H	1.402493	-0.316764	-0.000037
H106	H	1.902493	0.183236	0.499963
H107	H	1.335922	-0.273528	0.053152
H108	H	1.835922	0.226472	0.553152
H109	H	1.335935	-0.273536	-0.053202
H110	H	1.835935	0.226464	0.446798
C111	C	0.824630	0.274560	-0.000005
C112	C	1.324630	0.774560	0.499995
H113	H	0.778846	0.306882	0.000004
H114	H	1.278846	0.806882	0.500004
H115	H	0.822082	0.240306	-0.053177
H116	H	1.322082	0.740306	0.446823
H117	H	0.822075	0.240331	0.053176
H118	H	1.322075	0.740331	0.553176
H119	H	0.890644	-0.022013	0.587120
H120	H	1.390644	0.477987	1.087120
H121	H	0.890635	-0.021992	0.413003
H122	H	1.390635	0.478008	0.913003
C123	C	1.142754	0.316298	-0.000009
C124	C	1.642754	0.816298	0.499991
H125	H	1.187190	0.360461	-0.000020
H126	H	1.687190	0.860461	0.499980
H127	H	1.146498	0.282894	0.053164
H128	H	1.646498	0.782894	0.553164
H129	H	1.146500	0.282872	-0.053189
H130	H	1.646500	0.782872	0.446811
H131	H	1.073553	-0.205007	0.412865
H132	H	1.573553	0.294993	0.912865
C133	C	1.087976	-0.219443	0.600707
C134	C	1.587976	0.280557	1.100707
H135	H	1.117989	-0.249487	0.558362
H136	H	1.617989	0.250513	1.058362
H137	H	1.126249	-0.185385	0.638151
H138	H	1.626249	0.314615	1.138151
H139	H	1.053894	-0.257703	0.638143
H140	H	1.553894	0.242297	1.138143
H141	H	1.578778	0.022520	0.000011
H142	H	2.078778	0.522520	0.500011
