data_functionalizedCrystal
_audit_creation_method	'MofGen! by Chris Wilmer'
_symmetry_space_group_name_H-M	'P1'
_symmetry_Int_Tables_number	1
_symmetry_cell_setting	triclinic
loop_
_symmetry_equiv_pos_as_xyz
  x,y,z
_cell_length_a	23.532407
_cell_length_b	23.532407
_cell_length_c	10.868271
_cell_angle_alpha	89.990218
_cell_angle_beta	89.998361
_cell_angle_gamma	82.848712
loop_
_atom_site_label
_atom_site_type_symbol
_atom_site_fract_x
_atom_site_fract_y
_atom_site_fract_z
O1	O	0.755259	0.069136	-0.102257
O2	O	1.255259	0.569136	0.397743
O3	O	0.589396	0.079139	-0.102278
O4	O	1.089396	0.579139	0.397722
O5	O	0.677329	-0.008795	-0.102244
O6	O	1.177329	0.491205	0.397756
O7	O	0.667326	0.157069	-0.102291
O8	O	1.167326	0.657069	0.397709
O9	O	0.677322	-0.008798	0.102400
O10	O	1.177322	0.491202	0.602400
O11	O	0.589389	0.079135	0.102366
O12	O	1.089389	0.579135	0.602366
O13	O	0.755252	0.069132	0.102388
O14	O	1.255252	0.569132	0.602388
Zn15	Zn	0.672319	0.074133	0.134869
Zn16	Zn	1.172319	0.574133	0.634869
Zn17	Zn	0.672329	0.074138	-0.134759
Zn18	Zn	1.172329	0.574138	0.365241
O19	O	0.667319	0.157065	0.102354
O20	O	1.167319	0.657065	0.602354
C21	C	0.568176	0.078882	0.000042
C22	C	1.068176	0.578882	0.500042
C23	C	0.504959	0.078116	0.000035
C24	C	1.004959	0.578116	0.500035
C25	C	0.238792	0.022921	0.000084
C26	C	0.738792	0.522921	0.500084
C27	C	0.298192	0.023632	0.000083
C28	C	0.798192	0.523632	0.500083
O29	O	0.334937	-0.020153	0.000138
O30	O	0.834937	0.479847	0.500138
N31	N	0.320818	0.075909	0.000060
N32	N	0.820818	0.575909	0.500060
C33	C	0.284041	0.127477	0.000050
C34	C	0.784041	0.627477	0.500050
O35	O	0.308740	0.172007	0.000032
O36	O	0.808740	0.672007	0.500032
C37	C	0.224642	0.126765	0.000059
C38	C	0.724642	0.626765	0.500059
C39	C	0.202019	0.074485	0.000070
C40	C	0.702019	0.574485	0.500070
C41	C	0.216169	-0.029354	0.000095
C42	C	0.716169	0.470646	0.500095
C43	C	0.156772	-0.030066	0.000094
C44	C	0.656772	0.469934	0.500094
C45	C	0.119999	0.021499	0.000080
C46	C	0.619999	0.521499	0.500080
C47	C	0.142623	0.073774	0.000068
C48	C	0.642623	0.573774	0.500068
C49	C	0.187865	0.178333	0.000058
C50	C	0.687865	0.678333	0.500058
C51	C	0.128463	0.177616	0.000069
C52	C	0.628463	0.677616	0.500069
C53	C	0.105840	0.125336	0.000079
C54	C	0.605840	0.625336	0.500079
C55	C	0.046454	0.124627	0.000053
C56	C	0.546454	0.624627	0.500053
N57	N	0.023828	0.072351	0.000076
N58	N	0.523828	0.572351	0.500076
C59	C	0.060600	0.020787	0.000089
C60	C	0.560600	0.520787	0.500089
C61	C	0.408783	0.128968	0.000033
C62	C	0.908783	0.628968	0.500033
C63	C	0.468181	0.129681	0.000015
C64	C	0.968181	0.629681	0.500015
C65	C	0.482328	0.025836	0.000050
C66	C	0.982328	0.525836	0.500050
C67	C	0.422929	0.025124	0.000059
C68	C	0.922929	0.525124	0.500059
C69	C	0.386157	0.076692	0.000056
C70	C	0.886157	0.576692	0.500056
C71	C	-0.064136	0.019297	0.000085
C72	C	0.435864	0.519297	0.500085
C73	C	-0.123538	0.018590	0.000078
C74	C	0.376462	0.518590	0.500078
C75	C	-0.137680	0.122435	0.000049
C76	C	0.362320	0.622435	0.500049
C77	C	-0.078284	0.123142	0.000049
C78	C	0.421716	0.623142	0.500049
C79	C	-0.041512	0.071568	0.000071
C80	C	0.458488	0.571568	0.500071
O81	O	0.009675	0.168390	0.000003
O82	O	0.509675	0.668390	0.500003
O83	O	0.035892	-0.023737	0.000124
O84	O	0.535892	0.476263	0.500124
C85	C	0.677071	-0.030012	0.000081
C86	C	1.177071	0.469988	0.500081
C87	C	0.676305	-0.093229	0.000090
C88	C	1.176305	0.406771	0.500090
C89	C	0.723538	-0.492332	0.000029
C90	C	1.223538	0.007668	0.500029
C91	C	0.722827	-0.551733	0.000020
C92	C	1.222827	-0.051733	0.500020
O93	O	0.766613	-0.588477	-0.000020
O94	O	1.266613	-0.088477	0.499980
N95	N	0.670551	-0.574359	0.000014
N96	N	1.170551	-0.074359	0.500014
C97	C	0.618982	-0.537581	0.000005
C98	C	1.118982	-0.037581	0.500005
O99	O	0.574452	-0.562281	-0.000002
O100	O	1.074452	-0.062281	0.499998
C101	C	0.619695	-0.478182	0.000005
C102	C	1.119695	0.021818	0.500005
C103	C	0.671974	-0.455559	0.000024
C104	C	1.171974	0.044441	0.500024
C105	C	0.775814	-0.469709	0.000046
C106	C	1.275814	0.030291	0.500046
C107	C	0.776525	-0.410313	0.000058
C108	C	1.276525	0.089687	0.500058
C109	C	0.724961	-0.373540	0.000052
C110	C	1.224961	0.126460	0.500052
C111	C	0.672685	-0.396163	0.000036
C112	C	1.172685	0.103837	0.500036
C113	C	0.568127	-0.441406	-0.000012
C114	C	1.068127	0.058594	0.499988
C115	C	0.568843	-0.382003	-0.000012
C116	C	1.068843	0.117997	0.499988
C117	C	0.621123	-0.359381	0.000006
C118	C	1.121123	0.140619	0.500006
C119	C	0.621832	-0.299994	0.000042
C120	C	1.121832	0.200006	0.500042
N121	N	0.674109	-0.277368	0.000048
N122	N	1.174109	0.222632	0.500048
C123	C	0.725673	-0.314141	0.000053
C124	C	1.225673	0.185859	0.500053
C125	C	0.617491	-0.662324	0.000001
C126	C	1.117491	-0.162324	0.500001
C127	C	0.616778	-0.721722	0.000010
C128	C	1.116778	-0.221722	0.500010
C129	C	0.720623	-0.735869	0.000022
C130	C	1.220623	-0.235869	0.500022
C131	C	0.721335	-0.676470	0.000023
C132	C	1.221335	-0.176470	0.500023
C133	C	0.669767	-0.639698	0.000007
C134	C	1.169767	-0.139698	0.500007
C135	C	0.727163	-0.189404	0.000079
C136	C	1.227163	0.310596	0.500079
C137	C	0.727869	-0.130002	0.000096
C138	C	1.227869	0.369998	0.500096
C139	C	0.624025	-0.115860	0.000077
C140	C	1.124025	0.384140	0.500077
C141	C	0.623318	-0.175257	0.000066
C142	C	1.123318	0.324743	0.500066
C143	C	0.674891	-0.212028	0.000063
C144	C	1.174891	0.287972	0.500063
O145	O	0.578069	-0.263215	0.000077
O146	O	1.078069	0.236785	0.500077
O147	O	0.770196	-0.289433	0.000044
O148	O	1.270196	0.210567	0.500044
C149	C	0.776472	0.069389	0.000065
C150	C	1.276472	0.569389	0.500065
C151	C	0.839689	0.070155	0.000064
C152	C	1.339689	0.570155	0.500064
C153	C	0.667577	0.178283	0.000026
C154	C	1.167577	0.678283	0.500026
C155	C	0.668343	0.241500	0.000008
C156	C	1.168343	0.741500	0.500008
N157	N	0.672317	0.074130	0.318883
N158	N	1.172317	0.574130	0.818883
N159	N	0.672336	0.074137	-0.318773
N160	N	1.172336	0.574137	0.181227
C161	C	0.672326	0.074137	0.569889
C162	C	1.172326	0.574137	1.069889
C163	C	0.672319	0.074135	0.430211
C164	C	1.172319	0.574135	0.930211
H165	H	0.206274	0.220904	0.000044
H166	H	0.706274	0.720904	0.500044
Cl167	Cl	-0.049843	0.188865	0.000020
Cl168	Cl	0.450157	0.688865	0.500020
H169	H	-0.141954	-0.023984	0.000083
H170	H	0.358046	0.476016	0.500083
Cl171	Cl	-0.017919	-0.045539	0.000109
Cl172	Cl	0.482081	0.454461	0.500109
H173	H	0.574207	-0.740135	0.000016
H174	H	1.074207	-0.240135	0.500016
H175	H	0.526850	-0.352065	-0.000027
H176	H	1.026850	0.147935	0.499973
H177	H	0.138359	-0.072637	0.000107
H178	H	0.638359	0.427363	0.500107
H179	H	0.819097	-0.391900	0.000067
H180	H	1.319097	0.108100	0.500067
H181	H	0.246104	-0.071347	0.000110
H182	H	0.746104	0.428653	0.500110
Cl183	Cl	0.840647	-0.515928	0.000055
Cl184	Cl	1.340647	-0.015928	0.500055
Cl185	Cl	0.552656	-0.616101	-0.000004
Cl186	Cl	1.052656	-0.116101	0.499996
Cl187	Cl	0.793597	-0.101567	0.000116
Cl188	Cl	1.293597	0.398433	0.500116
H189	H	0.378846	0.170964	0.000021
H190	H	0.878846	0.670964	0.500021
H191	H	0.769159	-0.219337	0.000071
H192	H	1.269159	0.280663	0.500071
Cl193	Cl	0.557594	-0.203698	0.000066
Cl194	Cl	1.057594	0.296302	0.500066
H195	H	0.763906	-0.658055	0.000036
H196	H	1.263906	-0.158055	0.500036
H197	H	0.762610	-0.765821	0.000021
H198	H	1.262610	-0.265821	0.500021
Cl199	Cl	0.502400	-0.469830	-0.000043
Cl200	Cl	1.002400	0.030170	0.499957
Cl201	Cl	0.394496	-0.040601	0.000079
Cl202	Cl	0.894496	0.459399	0.500079
H203	H	0.098525	0.219610	0.000071
H204	H	0.598525	0.719610	0.500071
H205	H	0.512280	-0.016150	0.000061
H206	H	1.012280	0.483850	0.500061
Cl207	Cl	0.559205	-0.069621	0.000067
Cl208	Cl	1.059205	0.430379	0.500067
Cl209	Cl	0.496613	0.195407	-0.000024
Cl210	Cl	0.996613	0.695407	0.499976
Cl211	Cl	-0.183920	0.187255	0.000026
Cl212	Cl	0.316080	0.687255	0.500026
