data_functionalizedCrystal
_audit_creation_method	'MofGen! by Chris Wilmer'
_symmetry_space_group_name_H-M	'P1'
_symmetry_Int_Tables_number	1
_symmetry_cell_setting	triclinic
loop_
_symmetry_equiv_pos_as_xyz
  x,y,z
_cell_length_a	13.033808
_cell_length_b	29.839133
_cell_length_c	13.032268
_cell_angle_alpha	97.152246
_cell_angle_beta	103.297372
_cell_angle_gamma	97.223315
loop_
_atom_site_label
_atom_site_type_symbol
_atom_site_fract_x
_atom_site_fract_y
_atom_site_fract_z
Zn1	Zn	1.547372	-0.115778	-0.394636
Zn2	Zn	1.569792	-0.179994	-0.217067
Zn3	Zn	1.392326	-0.115810	-0.239575
Zn4	Zn	1.369700	-0.201825	-0.417137
O5	O	1.469797	-0.153352	-0.317104
O6	O	1.698973	-0.115147	-0.352245
O7	O	1.565103	-0.162356	-0.071430
O8	O	1.412979	-0.052934	-0.260147
O9	O	1.715445	-0.162325	-0.221786
O10	O	1.526891	-0.052911	-0.374070
O11	O	1.434719	-0.115201	-0.087966
O12	O	1.240698	-0.136370	-0.281965
O13	O	1.374416	-0.199534	-0.562775
O14	O	1.224074	-0.199565	-0.412419
O15	O	1.504952	-0.136316	-0.546244
O16	O	1.543163	-0.245761	-0.243604
O17	O	1.396156	-0.261801	-0.390594
C18	C	1.193849	-0.170340	-0.352077
C19	C	1.075793	-0.177621	-0.367064
C20	C	0.909328	-0.157085	-0.324791
C21	C	1.031345	-0.149561	-0.309298
C22	C	1.469663	-0.270083	-0.317118
C23	C	1.469698	-0.320017	-0.317147
C24	C	1.529140	-0.676551	-0.376496
C25	C	1.529040	-0.488884	-0.376508
O26	O	1.579445	-0.464582	-0.426970
N27	N	1.469782	-0.465456	-0.317134
C28	C	1.410551	-0.488948	-0.257747
O29	O	1.360155	-0.464714	-0.207238
C30	C	1.410658	-0.676613	-0.257731
C31	C	1.469911	-0.700039	-0.317117
C32	C	1.588390	-0.699977	-0.435876
C33	C	1.588410	-0.746892	-0.435878
C34	C	1.529180	-0.770380	-0.376498
C35	C	1.469931	-0.746954	-0.317118
C36	C	1.351433	-0.700103	-0.198339
C37	C	1.351468	-0.747022	-0.198338
C38	C	1.410721	-0.770448	-0.257724
C39	C	1.410722	-0.817356	-0.257740
N40	N	1.469979	-0.840784	-0.317114
C41	C	1.529209	-0.817296	-0.376493
C42	C	1.410497	-0.390421	-0.257762
C43	C	1.410469	-0.343505	-0.257768
C44	C	1.528960	-0.343444	-0.376526
C45	C	1.528982	-0.390362	-0.376526
C46	C	1.469755	-0.413849	-0.317136
C47	C	1.529245	-0.915820	-0.376491
C48	C	1.529256	-0.962739	-0.376491
C49	C	1.410770	-0.962794	-0.257728
C50	C	1.410754	-0.915880	-0.257733
C51	C	1.470000	-0.892394	-0.317117
O52	O	1.360353	-0.841686	-0.207294
O53	O	1.579616	-0.841536	-0.426976
C54	C	1.529121	-0.629637	-0.376495
C55	C	1.469871	-0.606210	-0.317115
C56	C	1.410642	-0.629699	-0.257735
C57	C	1.469843	-0.559295	-0.317120
C58	C	1.529072	-0.535806	-0.376499
C59	C	1.588330	-0.559234	-0.435873
C60	C	1.588350	-0.606149	-0.435874
C61	C	1.351384	-0.606271	-0.198362
C62	C	1.351368	-0.559356	-0.198366
C63	C	1.410598	-0.535868	-0.257745
C64	C	1.746824	-0.136297	-0.281995
C65	C	1.864876	-0.129030	-0.267033
C66	C	1.434659	-0.170357	-0.594123
C67	C	1.419685	-0.177603	-0.712172
C68	C	1.469958	-0.036165	-0.317109
C69	C	1.470027	0.013773	-0.317111
C70	C	1.477596	-0.149555	-0.756623
C71	C	1.462121	-0.157044	-0.878633
C72	C	1.504860	-0.136377	-0.041154
C73	C	1.520040	-0.128991	0.076920
H74	H	1.577490	-0.896702	-0.424846
C75	C	1.337227	-0.217535	-0.782776
C76	C	1.373594	-0.254624	-0.853221
C77	C	1.291132	-0.294557	-0.923822
C78	C	1.172304	-0.297401	-0.923979
C79	C	1.135931	-0.260311	-0.853532
C80	C	1.218392	-0.220378	-0.782931
H81	H	1.461563	-0.252520	-0.853107
H82	H	1.318059	-0.322014	-0.975972
H83	H	1.111261	-0.326962	-0.976243
H84	H	1.047962	-0.262415	-0.853646
H85	H	1.191466	-0.192921	-0.730781
C86	C	1.560054	-0.109623	-0.686017
C87	C	1.549551	-0.060004	-0.702260
C88	C	1.632010	-0.020071	-0.631656
C89	C	1.724974	-0.029758	-0.544808
C90	C	1.735481	-0.079379	-0.528560
C91	C	1.653021	-0.119312	-0.599164
H92	H	1.480730	-0.052832	-0.766554
H93	H	1.624232	0.016662	-0.643684
H94	H	1.786016	-0.000197	-0.492542
H95	H	1.804302	-0.086551	-0.464266
H96	H	1.660800	-0.156045	-0.587136
H97	H	0.857053	-0.186677	-0.385706
H98	H	1.023523	-0.207213	-0.427985
C99	C	1.101951	-0.109583	-0.226992
C100	C	1.172422	-0.072502	-0.263527
C101	C	1.243029	-0.032525	-0.181223
C102	C	1.243165	-0.029629	-0.062386
C103	C	1.172692	-0.066711	-0.025845
C104	C	1.102085	-0.106688	-0.108149
H105	H	1.172324	-0.074645	-0.351503
H106	H	1.295198	-0.005074	-0.208273
H107	H	1.295433	-0.000036	-0.001460
H108	H	1.172790	-0.064568	0.062131
H109	H	1.049916	-0.134139	-0.081099
H110	H	1.401074	-0.186601	-0.930902
H111	H	1.577185	-0.324313	-0.424877
H112	H	0.917152	-0.099441	-0.206111
C113	C	1.653605	-0.772653	-0.501192
C114	C	1.775434	-0.758192	-0.477309
C115	C	1.840639	-0.783948	-0.542624
C116	C	1.784015	-0.824166	-0.631821
C117	C	1.662179	-0.838630	-0.655708
C118	C	1.596974	-0.812874	-0.590394
H119	H	1.817356	-0.728418	-0.411276
H120	H	1.930830	-0.773241	-0.524940
H121	H	1.832283	-0.843233	-0.680170
H122	H	1.620257	-0.868404	-0.721741
H123	H	1.506783	-0.823581	-0.608077
C124	C	1.653542	-0.674147	-0.501209
C125	C	1.775378	-0.672603	-0.477356
C126	C	1.840526	-0.646778	-0.542703
C127	C	1.783839	-0.622498	-0.631902
C128	C	1.661997	-0.624041	-0.655759
C129	C	1.596848	-0.649866	-0.590412
H130	H	1.817347	-0.690578	-0.411322
H131	H	1.930722	-0.645636	-0.525042
H132	H	1.832066	-0.603381	-0.680276
H133	H	1.620028	-0.606066	-0.721793
H134	H	1.506653	-0.651008	-0.608073
H135	H	1.577505	-0.981811	-0.424857
H136	H	1.577225	-0.409433	-0.424889
C137	C	1.602504	-0.089057	-0.852483
C138	C	1.592000	-0.039439	-0.868734
C139	C	1.674463	0.000495	-0.798139
C140	C	1.767431	-0.009189	-0.711293
C141	C	1.777940	-0.058809	-0.695038
C142	C	1.695476	-0.098743	-0.765633
H143	H	1.523176	-0.032268	-0.933026
H144	H	1.666683	0.037228	-0.810172
H145	H	1.828475	0.020372	-0.659034
H146	H	1.846764	-0.065980	-0.630746
H147	H	1.703256	-0.135476	-0.753600
C148	C	1.345334	-0.416255	-0.192438
C149	C	1.256097	-0.456492	-0.248959
C150	C	1.190929	-0.482324	-0.183640
C151	C	1.214998	-0.467920	-0.061801
C152	C	1.304239	-0.427681	-0.005274
C153	C	1.369407	-0.401848	-0.070592
H154	H	1.238276	-0.467156	-0.339157
H155	H	1.124867	-0.512112	-0.225486
H156	H	1.166757	-0.487043	-0.013449
H157	H	1.322061	-0.417016	0.084925
H158	H	1.435470	-0.372061	-0.028746
C159	C	1.345279	-0.317740	-0.192452
C160	C	1.280136	-0.343582	-0.127135
C161	C	1.214950	-0.317819	-0.061811
C162	C	1.214907	-0.266213	-0.061805
C163	C	1.280052	-0.240368	-0.127124
C164	C	1.345238	-0.266131	-0.192448
H165	H	1.280166	-0.381787	-0.127138
H166	H	1.166725	-0.336952	-0.013458
H167	H	1.166652	-0.247142	-0.013448
H168	H	1.280022	-0.202164	-0.127121
H169	H	1.393463	-0.246999	-0.240802
C170	C	1.286260	-0.674343	-0.133001
C171	C	1.310372	-0.672855	-0.011161
C172	C	1.245197	-0.647097	0.054186
C173	C	1.155910	-0.622827	-0.002307
C174	C	1.131793	-0.624314	-0.124154
C175	C	1.196969	-0.650072	-0.189501
H176	H	1.376472	-0.690822	0.030665
H177	H	1.263050	-0.645996	0.144385
H178	H	1.107663	-0.603759	0.046067
H179	H	1.065694	-0.606347	-0.165979
H180	H	1.179116	-0.651173	-0.279700
C181	C	1.286314	-0.772857	-0.133008
C182	C	1.310401	-0.758455	-0.011167
C183	C	1.245247	-0.784290	0.054160
C184	C	1.156006	-0.824526	-0.002354
C185	C	1.131914	-0.838930	-0.124202
C186	C	1.197068	-0.813095	-0.189529
H187	H	1.376467	-0.728668	0.030674
H188	H	1.263081	-0.773627	0.144360
H189	H	1.107775	-0.843650	0.046005
H190	H	1.065849	-0.868717	-0.166043
H191	H	1.179234	-0.823758	-0.279729
C192	C	1.653486	-0.533391	-0.501189
C193	C	1.742716	-0.493154	-0.444652
C194	C	1.807873	-0.467307	-0.509958
C195	C	1.783800	-0.481698	-0.631801
C196	C	1.694566	-0.521937	-0.688345
C197	C	1.629409	-0.547784	-0.623039
H198	H	1.760540	-0.482499	-0.354450
H199	H	1.873930	-0.437520	-0.468100
H200	H	1.832033	-0.462565	-0.680145
H201	H	1.676742	-0.532592	-0.778547
H202	H	1.563351	-0.577571	-0.664897
H203	H	1.362493	-0.896807	-0.209387
H204	H	1.636599	-0.625218	-0.484234
H205	H	1.362544	-0.981927	-0.209386
H206	H	1.303108	-0.540287	-0.150011
H207	H	1.303153	-0.625390	-0.150005
