data_functionalizedCrystal
_audit_creation_method	'MofGen! by Chris Wilmer'
_symmetry_space_group_name_H-M	'P1'
_symmetry_Int_Tables_number	1
_symmetry_cell_setting	triclinic
loop_
_symmetry_equiv_pos_as_xyz
  x,y,z
_cell_length_a	15.995350
_cell_length_b	12.837942
_cell_length_c	11.295483
_cell_angle_alpha	85.469583
_cell_angle_beta	94.101747
_cell_angle_gamma	89.160658
loop_
_atom_site_label
_atom_site_type_symbol
_atom_site_fract_x
_atom_site_fract_y
_atom_site_fract_z
O1	O	-1.126724	-0.126645	-0.098922
O2	O	-0.626724	0.373355	0.401078
O3	O	-0.884267	-0.143143	-0.098946
O4	O	-0.384267	0.356857	0.401054
O5	O	-1.000119	0.016009	-0.098927
O6	O	-0.500119	0.516009	0.401073
O7	O	-1.010872	-0.285796	-0.098941
O8	O	-0.510872	0.214204	0.401059
O9	O	-0.989941	0.002051	0.099122
O10	O	-0.489941	0.502051	0.599122
O11	O	-0.874089	-0.157100	0.099103
O12	O	-0.374089	0.342900	0.599103
O13	O	-1.116547	-0.140602	0.099127
O14	O	-0.616547	0.359398	0.599127
Cu15	Cu	-0.994389	-0.150125	0.117198
Cu16	Cu	-0.494389	0.349875	0.617198
Cu17	Cu	-1.006425	-0.133619	-0.117018
Cu18	Cu	-0.506425	0.366381	0.382982
O19	O	-1.000695	-0.299753	0.099108
O20	O	-0.500695	0.200247	0.599108
C21	C	-0.847929	-0.149439	0.000075
C22	C	-0.347929	0.350561	0.500075
C23	C	-0.754816	-0.147393	0.000066
C24	C	-0.254816	0.352607	0.500066
C25	C	-0.991398	0.047651	0.000096
C26	C	-0.491398	0.547651	0.500096
C27	C	-0.980565	0.162728	0.000093
C28	C	-0.480565	0.662728	0.500093
C29	C	-1.152885	-0.134305	0.000103
C30	C	-0.652885	0.365695	0.500103
C31	C	-1.245998	-0.136350	0.000104
C32	C	-0.745998	0.363650	0.500104
C33	C	-0.416481	-0.140051	0.000091
C34	C	0.083519	0.359949	0.500091
C35	C	-0.454849	-0.026737	0.000538
C36	C	0.045151	0.473263	0.500538
C37	C	-0.551725	-0.028750	0.000083
C38	C	-0.051725	0.471250	0.500083
C39	C	-0.584333	-0.143693	0.000079
C40	C	-0.084333	0.356307	0.500079
C41	C	-0.553518	-0.191629	-0.113014
C42	C	-0.053518	0.308371	0.386986
C43	C	-0.456659	-0.188775	-0.113101
C44	C	0.043341	0.311225	0.386899
C45	C	-0.444934	-0.206989	0.112118
C46	C	0.055066	0.293011	0.612118
C47	C	-0.541801	-0.207067	0.113605
C48	C	-0.041801	0.292933	0.613605
C49	C	-0.679196	-0.145757	0.000069
C50	C	-0.179196	0.354243	0.500069
C51	C	-0.321619	-0.137990	0.000094
C52	C	0.178381	0.362010	0.500094
C53	C	-1.009416	-0.331395	0.000082
C54	C	-0.509416	0.168605	0.500082
C55	C	-1.020249	-0.446472	0.000077
C56	C	-0.520249	0.053528	0.500077
N57	N	-0.985930	-0.161734	0.281933
N58	N	-0.485930	0.338266	0.781933
C59	C	-1.110803	0.403687	0.000081
C60	C	-0.610803	0.903687	0.500081
C61	C	-1.100628	0.511813	0.000078
C62	C	-0.600628	1.011813	0.500078
C63	C	-0.950041	0.487109	0.000075
C64	C	-0.450041	0.987109	0.500075
C65	C	-0.960216	0.378983	0.000078
C66	C	-0.460216	0.878983	0.500078
C67	C	-1.040599	0.337276	0.000083
C68	C	-0.540599	0.837276	0.500083
C69	C	-1.050773	0.229147	0.000095
C70	C	-0.550773	0.729147	0.500095
C71	C	-0.900187	0.204446	0.000083
C72	C	-0.400187	0.704446	0.500083
C73	C	-0.890012	0.312572	0.000080
C74	C	-0.390012	0.812572	0.500080
N75	N	-1.014890	-0.122002	-0.281753
N76	N	-0.514890	0.377998	0.218247
C77	C	-1.075780	-0.038379	0.531237
C78	C	-0.575780	0.461621	1.031237
C79	C	-1.069394	-0.047159	0.655900
C80	C	-0.569394	0.452841	1.155900
C81	C	-0.966767	-0.188069	0.655923
C82	C	-0.466767	0.311931	1.155923
C83	C	-0.973153	-0.179289	0.531261
C84	C	-0.473153	0.320711	1.031261
C85	C	-1.027662	-0.104442	0.468922
C86	C	-0.527662	0.395558	0.968922
C87	C	-1.034052	-0.095668	0.344257
C88	C	-0.534052	0.404332	0.844257
C89	C	-0.931422	-0.236572	0.344283
C90	C	-0.431422	0.263428	0.844283
C91	C	-0.925036	-0.245352	0.468945
C92	C	-0.425036	0.254648	0.968945
H93	H	-0.572482	0.009482	0.081154
H94	H	-0.072482	0.509482	0.581154
C95	C	-0.861629	0.533000	0.000070
C96	C	-0.361629	1.033000	0.500070
H97	H	-0.865628	0.606907	0.000073
H98	H	-0.365628	1.106907	0.500073
H99	H	-0.835903	0.515067	-0.068991
H100	H	-0.335903	1.015067	0.431009
H101	H	-0.828815	0.505347	0.069146
H102	H	-0.328815	1.005347	0.569146
H103	H	-1.157795	0.565882	0.000073
H104	H	-0.657795	1.065882	0.500073
H105	H	-0.922381	-0.249000	0.706696
H106	H	-0.422381	0.251000	1.206696
C107	C	-0.822961	0.131392	0.000076
C108	C	-0.322961	0.631392	0.500076
H109	H	-0.840531	0.061022	0.000070
H110	H	-0.340531	0.561022	0.500070
H111	H	-0.786807	0.139174	0.069135
H112	H	-0.286807	0.639174	0.569135
H113	H	-0.793909	0.148902	-0.069002
H114	H	-0.293909	0.648902	0.430998
C115	C	-0.429120	0.041876	-0.108408
C116	C	0.070880	0.541876	0.391592
H117	H	-0.452561	0.110203	-0.107452
H118	H	0.047439	0.610203	0.392548
H119	H	-0.449177	0.012259	-0.179231
H120	H	0.050823	0.512259	0.320769
H121	H	-0.369745	0.045509	-0.105741
H122	H	0.130255	0.545509	0.394259
H123	H	-1.120169	0.022558	0.480480
H124	H	-0.620169	0.522558	0.980480
C125	C	-0.590234	0.038735	-0.109627
C126	C	-0.090234	0.538735	0.390373
H127	H	-0.546663	0.067481	-0.154098
H128	H	-0.046663	0.567481	0.345902
H129	H	-0.623385	0.093688	-0.084412
H130	H	-0.123385	0.593688	0.415588
H131	H	-0.624403	-0.003340	-0.158074
H132	H	-0.124403	0.496660	0.341926
H133	H	-1.078439	-0.034727	0.293502
H134	H	-0.578439	0.465273	0.793502
H135	H	-0.880653	-0.306288	0.519716
H136	H	-0.380653	0.193712	1.019716
H137	H	-1.116225	0.195192	0.000103
H138	H	-0.616225	0.695192	0.500103
H139	H	-0.431314	-0.271630	-0.118236
H140	H	0.068686	0.228370	0.381764
H141	H	-0.824566	0.346545	0.000072
H142	H	-0.324566	0.846545	0.500072
H143	H	-0.574597	-0.275778	-0.117222
H144	H	-0.074597	0.224222	0.382778
H145	H	-0.892244	-0.290368	0.293532
H146	H	-0.392244	0.209632	0.793532
H147	H	-1.108575	0.006638	0.706634
H148	H	-0.608575	0.506638	1.206634
C149	C	-0.433396	-0.125646	-0.227294
C150	C	0.066604	0.374354	0.272706
H151	H	-0.483112	-0.101977	-0.273192
H152	H	0.016888	0.398023	0.226808
H153	H	-0.401440	-0.168771	-0.272510
H154	H	0.098560	0.331229	0.227490
H155	H	-0.401295	-0.067222	-0.206624
H156	H	0.098705	0.432778	0.293376
H157	H	-0.428544	0.012855	0.081642
H158	H	0.071456	0.512855	0.581642
H159	H	-0.583119	-0.146868	-0.197178
H160	H	-0.083119	0.353132	0.302822
C161	C	-0.407258	-0.165094	0.227926
C162	C	0.092742	0.334906	0.727926
H163	H	-0.425202	-0.206576	0.294440
H164	H	0.074798	0.293424	0.794440
H165	H	-0.425509	-0.094726	0.231401
H166	H	0.074491	0.405274	0.731401
H167	H	-0.347812	-0.168145	0.229386
H168	H	0.152188	0.331855	0.729386
C169	C	-0.568488	-0.159901	0.226633
C170	C	-0.068488	0.340099	0.726633
H171	H	-0.605399	-0.101832	0.204743
H172	H	-0.105399	0.398168	0.704743
H173	H	-0.520280	-0.137568	0.271050
H174	H	-0.020280	0.362432	0.771050
H175	H	-0.596270	-0.211206	0.273829
H176	H	-0.096270	0.288794	0.773829
H177	H	-0.563503	-0.291368	0.120433
H178	H	-0.063503	0.208632	0.620433
H179	H	-1.176253	0.369728	0.000097
H180	H	-0.676253	0.869728	0.500097
C181	C	-0.410987	-0.319955	0.113150
C182	C	0.089013	0.180045	0.613150
H183	H	-0.379621	-0.326340	0.045682
H184	H	0.120379	0.173660	0.545682
H185	H	-0.456519	-0.366603	0.110662
H186	H	0.043481	0.133397	0.610662
H187	H	-0.375860	-0.336605	0.183733
H188	H	0.124140	0.163395	0.683733
