data_functionalizedCrystal
_audit_creation_method	'MofGen! by Chris Wilmer'
_symmetry_space_group_name_H-M	'P1'
_symmetry_Int_Tables_number	1
_symmetry_cell_setting	triclinic
loop_
_symmetry_equiv_pos_as_xyz
  x,y,z
_cell_length_a	14.971486
_cell_length_b	12.837942
_cell_length_c	13.448316
_cell_angle_alpha	89.994234
_cell_angle_beta	89.998199
_cell_angle_gamma	89.221535
loop_
_atom_site_label
_atom_site_type_symbol
_atom_site_fract_x
_atom_site_fract_y
_atom_site_fract_z
O1	O	1.198338	0.135106	-0.082576
O2	O	1.698338	0.635106	0.417424
O3	O	0.939302	0.151285	-0.082603
O4	O	1.439302	0.651285	0.417397
O5	O	1.063076	-0.007715	-0.082584
O6	O	1.563076	0.492285	0.417416
O7	O	1.074564	0.294105	-0.082595
O8	O	1.574564	0.794105	0.417405
O9	O	1.063058	-0.007724	0.082800
O10	O	1.563058	0.492276	0.582800
O11	O	0.939284	0.151275	0.082781
O12	O	1.439284	0.651275	0.582781
O13	O	1.198320	0.135096	0.082808
O14	O	1.698320	0.635096	0.582808
Cu15	Cu	1.068800	0.143185	0.097895
Cu16	Cu	1.568800	0.643185	0.597895
Cu17	Cu	1.068822	0.143196	-0.097690
Cu18	Cu	1.568822	0.643196	0.402310
O19	O	1.074546	0.294095	0.082789
O20	O	1.574546	0.794095	0.582789
C21	C	0.905907	0.150556	0.000086
C22	C	1.405907	0.650556	0.500086
C23	C	0.806427	0.148388	0.000075
C24	C	1.306427	0.648388	0.500075
C25	C	0.757077	0.241796	0.000073
C26	C	1.257077	0.741796	0.500073
C27	C	0.663606	0.239752	0.000088
C28	C	1.163606	0.739752	0.500088
C29	C	0.619486	0.144300	0.000098
C30	C	1.119486	0.644300	0.500098
C31	C	0.668842	0.050885	0.000103
C32	C	1.168842	0.550885	0.500103
C33	C	0.762313	0.052930	0.000095
C34	C	1.262313	0.552930	0.500095
C35	C	0.474021	0.046630	0.000117
C36	C	0.974021	0.546630	0.500117
C37	C	0.380545	0.044585	0.000123
C38	C	0.880545	0.544585	0.500123
C39	C	0.375314	0.233453	0.000110
C40	C	0.875314	0.733453	0.500110
C41	C	0.468784	0.235497	0.000102
C42	C	0.968784	0.735497	0.500102
C43	C	0.518135	0.142082	0.000105
C44	C	1.018135	0.642082	0.500105
C45	C	1.059187	-0.046345	0.000107
C46	C	1.559187	0.453655	0.500107
C47	C	1.047612	-0.161436	0.000104
C48	C	1.547612	0.338564	0.500104
C49	C	1.186755	-0.402222	0.000098
C50	C	1.686755	0.097778	0.500098
C51	C	1.175884	-0.510362	0.000095
C52	C	1.675884	-0.010362	0.500095
C53	C	1.015001	-0.485856	0.000089
C54	C	1.515001	0.014144	0.500089
C55	C	1.025872	-0.377717	0.000092
C56	C	1.525872	0.122283	0.500092
C57	C	1.111751	-0.335904	0.000098
C58	C	1.611751	0.164096	0.500098
C59	C	1.122621	-0.227763	0.000108
C60	C	1.622621	0.272237	0.500108
C61	C	0.961739	-0.203260	0.000094
C62	C	1.461739	0.296740	0.500094
C63	C	0.950868	-0.311399	0.000091
C64	C	1.450868	0.188601	0.500091
C65	C	1.231715	0.135824	0.000117
C66	C	1.731715	0.635824	0.500117
C67	C	1.331195	0.137993	0.000121
C68	C	1.831195	0.637993	0.500121
C69	C	1.078436	0.332726	0.000096
C70	C	1.578436	0.832726	0.500096
C71	C	1.090010	0.447817	0.000092
C72	C	1.590010	0.947817	0.500092
N73	N	1.068792	0.143176	0.235460
N74	N	1.568792	0.643176	0.735460
N75	N	1.068837	0.143197	-0.235255
N76	N	1.568837	0.643197	0.264745
C77	C	1.123620	0.072800	0.287508
C78	C	1.623620	0.572800	0.787508
C79	C	1.123626	0.072799	0.391612
C80	C	1.623626	0.572799	0.891612
C81	C	1.068807	0.143180	0.443664
C82	C	1.568807	0.643180	0.943664
C83	C	1.013972	0.213559	0.391608
C84	C	1.513972	0.713559	0.891608
C85	C	1.013963	0.213554	0.287507
C86	C	1.513963	0.713554	0.787507
C87	C	1.013998	0.213566	0.608588
C88	C	1.513998	0.713566	1.108588
C89	C	1.014008	0.213573	0.712697
C90	C	1.514008	0.713573	1.212697
C91	C	1.123661	0.072811	0.712693
C92	C	1.623661	0.572811	1.212693
C93	C	1.123651	0.072806	0.608592
C94	C	1.623651	0.572806	1.108592
C95	C	1.068818	0.143187	0.556543
C96	C	1.568818	0.643187	1.056543
H97	H	0.514200	-0.029439	0.000121
H98	H	1.014200	0.470561	0.500121
C99	C	0.953686	0.290988	0.551336
C100	C	1.453686	0.790988	1.051336
H101	H	0.921046	0.332914	0.597245
H102	H	1.421046	0.832914	1.097245
H103	H	0.913266	0.253626	0.510734
H104	H	1.413266	0.753626	1.010734
H105	H	0.989549	0.334206	0.510719
H106	H	1.489549	0.834206	1.010719
C107	C	1.258387	-0.583308	0.000101
C108	C	1.758387	-0.083308	0.500101
H109	H	1.311088	-0.542914	0.000112
H110	H	1.811088	-0.042914	0.500112
H111	H	1.257496	-0.625998	-0.057571
H112	H	1.757496	-0.125998	0.442429
H113	H	1.257486	-0.626006	0.057782
H114	H	1.757486	-0.126006	0.557782
C115	C	1.183969	-0.004615	0.769942
C116	C	1.683969	0.495385	1.269942
H117	H	1.176117	0.005456	0.839396
H118	H	1.676117	0.505456	1.339396
H119	H	1.244630	0.006758	0.752875
H120	H	1.744630	0.506758	1.252875
H121	H	1.168352	-0.073828	0.752887
H122	H	1.668352	0.426172	1.252887
C123	C	0.953655	0.290972	0.230253
C124	C	1.453655	0.790972	0.730253
H125	H	0.921014	0.332896	0.276162
H126	H	1.421014	0.832896	0.776162
H127	H	0.913237	0.253605	0.189654
H128	H	1.413237	0.753605	0.689654
H129	H	0.989514	0.334192	0.189633
H130	H	1.489514	0.834192	0.689633
H131	H	1.168271	0.015493	0.433989
H132	H	1.668271	0.515493	0.933989
H133	H	1.168264	0.015492	0.245134
H134	H	1.668264	0.515492	0.745134
H135	H	0.632913	-0.026834	0.000125
H136	H	1.132913	0.473166	0.500125
H137	H	0.969333	0.270861	0.433995
H138	H	1.469333	0.770861	0.933995
H139	H	0.945081	-0.519920	0.000073
H140	H	1.445081	-0.019920	0.500073
C141	C	1.183950	-0.004612	0.551335
C142	C	1.683950	0.495388	1.051335
H143	H	1.216602	-0.046534	0.597241
H144	H	1.716602	0.453466	1.097241
H145	H	1.224358	0.032753	0.510711
H146	H	1.724358	0.532753	1.010711
H147	H	1.148081	-0.047833	0.510740
H148	H	1.648081	0.452167	1.010740
C149	C	0.953647	0.290924	0.769953
C150	C	1.453647	0.790924	1.269953
H151	H	0.920961	0.332811	0.724047
H152	H	1.420961	0.832811	1.224047
H153	H	0.989452	0.334172	0.810584
H154	H	1.489452	0.834172	1.310584
H155	H	0.913255	0.253483	0.810542
H156	H	1.413255	0.753483	1.310542
C157	C	0.332010	-0.060407	0.000147
C158	C	0.832010	0.439593	0.500147
H159	H	0.269275	-0.048242	0.000142
H160	H	0.769275	0.451758	0.500142
H161	H	0.348403	-0.098868	0.057827
H162	H	0.848403	0.401132	0.557827
H163	H	0.348399	-0.098880	-0.057527
H164	H	0.848399	0.401120	0.442473
C165	C	0.805601	0.346795	0.000062
C166	C	1.305601	0.846795	0.500062
H167	H	0.762819	0.402132	0.000072
H168	H	1.262819	0.902132	0.500072
H169	H	0.841953	0.351525	-0.057613
H170	H	1.341953	0.851525	0.442387
H171	H	0.841956	0.351514	0.057740
H172	H	1.341956	0.851514	0.557740
C173	C	0.856407	-0.357395	0.000080
C174	C	1.356407	0.142605	0.500080
H175	H	0.813295	-0.302407	0.000074
H176	H	1.313295	0.197593	0.500074
H177	H	0.848816	-0.399083	0.057748
H178	H	1.348816	0.100917	0.557748
H179	H	0.848828	-0.399057	-0.057605
H180	H	1.348828	0.100943	0.442395
C181	C	0.879232	-0.130308	0.000085
C182	C	1.379232	0.369692	0.500085
H183	H	0.898003	-0.059914	0.000081
H184	H	1.398003	0.440086	0.500081
H185	H	0.844391	-0.143003	0.057753
H186	H	1.344391	0.356997	0.557753
H187	H	0.844408	-0.142989	-0.057600
H188	H	1.344408	0.357011	0.442400
H189	H	0.623429	0.315815	0.000086
H190	H	1.123429	0.815815	0.500086
H191	H	0.335129	0.309515	0.000112
H192	H	0.835129	0.809515	0.500112
C193	C	0.517315	0.340492	0.000094
C194	C	1.017315	0.840492	0.500094
H195	H	0.474539	0.395834	0.000103
H196	H	0.974539	0.895834	0.500103
H197	H	0.553670	0.345218	-0.057580
H198	H	1.053670	0.845218	0.442420
H199	H	0.553668	0.345205	0.057773
H200	H	1.053668	0.845205	0.557773
H201	H	1.192549	-0.193721	0.000116
H202	H	1.692549	0.306279	0.500116
C203	C	0.816598	-0.049819	0.000088
C204	C	1.316598	0.450181	0.500088
H205	H	0.776936	-0.106960	0.000084
H206	H	1.276936	0.393040	0.500084
H207	H	0.853174	-0.052954	0.057756
H208	H	1.353174	0.447046	0.557756
H209	H	0.853164	-0.052939	-0.057597
H210	H	1.353164	0.447061	0.442403
H211	H	1.256681	-0.368178	0.000113
H212	H	1.756681	0.131822	0.500113
