data_functionalizedCrystal
_audit_creation_method	'MofGen! by Chris Wilmer'
_symmetry_space_group_name_H-M	'P1'
_symmetry_Int_Tables_number	1
_symmetry_cell_setting	triclinic
loop_
_symmetry_equiv_pos_as_xyz
  x,y,z
_cell_length_a	14.519731
_cell_length_b	14.044220
_cell_length_c	13.596369
_cell_angle_alpha	89.993157
_cell_angle_beta	89.994584
_cell_angle_gamma	88.438865
loop_
_atom_site_label
_atom_site_type_symbol
_atom_site_fract_x
_atom_site_fract_y
_atom_site_fract_z
O1	O	1.233888	0.124370	-0.081796
O2	O	0.966592	0.138983	-0.081798
O3	O	1.096228	-0.006315	-0.081788
O4	O	1.104252	0.269668	-0.081807
O5	O	1.096213	-0.006323	0.081795
O6	O	0.966578	0.138975	0.081785
O7	O	1.233873	0.124362	0.081787
Zn8	Zn	1.100223	0.131667	0.107758
Zn9	Zn	1.100242	0.131678	-0.107770
O10	O	1.104238	0.269660	0.081776
C11	C	0.932170	0.138295	-0.000007
C12	C	0.829625	0.136243	-0.000007
C13	C	0.746346	0.134575	-0.000011
C14	C	0.641869	0.132492	-0.000011
C15	C	0.558597	0.130839	-0.000011
C16	C	0.454113	0.128756	-0.000013
C17	C	1.092708	-0.041640	0.000004
C18	C	1.082231	-0.146884	0.000005
C19	C	1.063077	-0.339580	-0.000009
C20	C	1.137385	-0.397081	-0.000011
C21	C	1.126727	-0.504303	-0.000019
C22	C	1.073733	-0.232347	-0.000001
C23	C	1.268295	0.125050	-0.000007
C24	C	1.370841	0.127102	-0.000013
C25	C	1.107757	0.304985	-0.000018
C26	C	1.118234	0.410229	-0.000026
N27	N	1.100217	0.131660	0.254850
N28	N	1.100256	0.131678	-0.254861
C29	C	1.100241	0.131679	0.656141
C30	C	1.100232	0.131677	0.544489
C31	C	1.100229	0.131670	0.455499
C32	C	1.100219	0.131667	0.343840
H33	H	1.209006	-0.365783	-0.000077
H34	H	0.991461	-0.370876	-0.000012
