data_functionalizedCrystal
_audit_creation_method	'MofGen! by Chris Wilmer'
_symmetry_space_group_name_H-M	'P1'
_symmetry_Int_Tables_number	1
_symmetry_cell_setting	triclinic
loop_
_symmetry_equiv_pos_as_xyz
  x,y,z
_cell_length_a	21.295420
_cell_length_b	25.639239
_cell_length_c	25.639233
_cell_angle_alpha	90.018747
_cell_angle_beta	90.013450
_cell_angle_gamma	90.034468
loop_
_atom_site_label
_atom_site_type_symbol
_atom_site_fract_x
_atom_site_fract_y
_atom_site_fract_z
Zn1	Zn	0.962250	-0.208273	0.295621
Zn2	Zn	1.295584	0.125060	0.628954
Zn3	Zn	1.628917	0.458393	0.962287
Zn4	Zn	0.962158	-0.295692	0.208185
Zn5	Zn	1.295491	0.037641	0.541518
Zn6	Zn	1.628825	0.370975	0.874852
Zn7	Zn	0.856994	-0.208266	0.208198
Zn8	Zn	1.190327	0.125067	0.541531
Zn9	Zn	1.523661	0.458401	0.874865
Zn10	Zn	0.856928	-0.295673	0.295588
Zn11	Zn	1.190261	0.037660	0.628922
Zn12	Zn	1.523595	0.370994	0.962255
O13	O	0.909583	-0.251976	0.251898
O14	O	1.242916	0.081357	0.585231
O15	O	1.576249	0.414691	0.918565
O16	O	1.050327	-0.219881	0.284030
O17	O	1.383661	0.113453	0.617364
O18	O	1.716994	0.446786	0.950697
O19	O	0.948197	-0.284100	0.135022
O20	O	1.281530	0.049234	0.468355
O21	O	1.614864	0.382567	0.801688
O22	O	0.871023	-0.135102	0.219814
O23	O	1.204356	0.198232	0.553147
O24	O	1.537689	0.531565	0.886481
O25	O	1.050260	-0.284107	0.219792
O26	O	1.383593	0.049227	0.553125
O27	O	1.716926	0.382560	0.886458
O28	O	0.948354	-0.135107	0.284043
O29	O	1.281687	0.198226	0.617376
O30	O	1.615021	0.531560	0.950710
O31	O	0.870933	-0.219868	0.135031
O32	O	1.204267	0.113465	0.468364
O33	O	1.537600	0.446798	0.801698
O34	O	0.768896	-0.219850	0.219782
O35	O	1.102229	0.113484	0.553116
O36	O	1.435563	0.446817	0.886449
O37	O	0.870910	-0.284074	0.368758
O38	O	1.204243	0.049259	0.702091
O39	O	1.537577	0.382592	1.035424
O40	O	0.768847	-0.284067	0.283988
O41	O	1.102181	0.049266	0.617321
O42	O	1.435514	0.382599	0.950654
O43	O	0.948290	-0.219862	0.368782
O44	O	1.281623	0.113471	0.702115
O45	O	1.614957	0.446805	1.035448
O46	O	0.948133	-0.368855	0.219760
O47	O	1.281466	-0.035521	0.553094
O48	O	1.614800	0.297812	0.886427
O49	O	0.870821	-0.368841	0.283975
O50	O	1.204154	-0.035507	0.617308
O51	O	1.537487	0.297826	0.950642
C52	C	0.746031	-0.251956	0.251883
C53	C	1.079364	0.081377	0.585217
C54	C	1.412698	0.414711	0.918550
C55	C	0.676063	-0.251960	0.251889
C56	C	1.009396	0.081373	0.585223
C57	C	1.342730	0.414707	0.918556
C58	C	0.176639	-0.218612	0.285409
C59	C	0.509973	0.114721	0.618743
C60	C	0.843306	0.448054	0.952076
C61	C	0.242382	-0.218608	0.285409
C62	C	0.575715	0.114725	0.618742
C63	C	0.909049	0.448058	0.952076
C64	C	0.275223	-0.251992	0.251910
C65	C	0.608557	0.081341	0.585243
C66	C	0.941890	0.414675	0.918577
C67	C	0.242317	-0.285391	0.218418
C68	C	0.575650	0.047942	0.551751
C69	C	0.908984	0.381275	0.885085
C70	C	0.176576	-0.285398	0.218423
C71	C	0.509909	0.047935	0.551756
C72	C	0.843242	0.381269	0.885090
N73	N	0.378423	-0.255925	0.206129
N74	N	0.711757	0.077409	0.539462
N75	N	1.045090	0.410742	0.872796
N76	N	0.440875	-0.255915	0.206126
N77	N	0.774208	0.077418	0.539459
N78	N	1.107541	0.410751	0.872793
C79	C	0.473298	-0.251975	0.251895
C80	C	0.806631	0.081359	0.585228
C81	C	1.139965	0.414692	0.918561
N82	N	0.440911	-0.248034	0.297668
N83	N	0.774244	0.085300	0.631001
N84	N	1.107577	0.418633	0.964334
N85	N	0.378454	-0.248040	0.297670
N86	N	0.711787	0.085293	0.631003
N87	N	1.045120	0.418626	0.964337
C88	C	0.346509	-0.251989	0.251902
C89	C	0.679842	0.081345	0.585235
C90	C	1.013175	0.414678	0.918568
C91	C	0.577482	-0.218576	0.285387
C92	C	0.910816	0.114757	0.618721
C93	C	1.244149	0.448091	0.952054
C94	C	0.643226	-0.218576	0.285388
C95	C	0.976559	0.114758	0.618721
C96	C	1.309893	0.448091	0.952055
C97	C	0.643160	-0.285356	0.218392
C98	C	0.976493	0.047978	0.551726
C99	C	1.309826	0.381311	0.885059
C100	C	0.577417	-0.285359	0.218396
C101	C	0.910751	0.047975	0.551730
C102	C	1.244084	0.381308	0.885063
C103	C	0.544582	-0.251966	0.251893
C104	C	0.877916	0.081367	0.585226
C105	C	1.211249	0.414701	0.918560
C106	C	0.909477	-0.387819	0.251874
C107	C	1.242810	-0.054485	0.585207
C108	C	1.576143	0.278848	0.918541
C109	C	0.909489	-0.445933	0.251881
C110	C	1.242822	-0.112599	0.585215
C111	C	1.576156	0.220734	0.918548
C112	C	0.949944	-0.806290	0.218518
C113	C	1.283277	-0.472957	0.551852
C114	C	1.616611	-0.139624	0.885185
C115	C	0.949968	-0.860895	0.218525
C116	C	1.283302	-0.527561	0.551859
C117	C	1.616635	-0.194228	0.885192
O118	O	0.984255	-0.889127	0.190133
O119	O	1.317588	-0.555794	0.523466
O120	O	1.650922	-0.222460	0.856799
N121	N	0.909693	-0.888215	0.251933
N122	N	1.243027	-0.554882	0.585266
N123	N	1.576360	-0.221548	0.918599
C124	C	0.869395	-0.860928	0.285339
C125	C	1.202729	-0.527595	0.618672
C126	C	1.536062	-0.194262	0.952006
O127	O	0.835141	-0.889180	0.313755
O128	O	1.168474	-0.555847	0.647089
O129	O	1.501808	-0.222514	0.980422
C130	C	0.869375	-0.806325	0.285334
C131	C	1.202708	-0.472992	0.618667
C132	C	1.536041	-0.139658	0.952001
C133	C	0.909648	-0.779008	0.251921
C134	C	1.242981	-0.445674	0.585254
C135	C	1.576315	-0.112341	0.918588
C136	C	0.990215	-0.778973	0.185108
C137	C	1.323548	-0.445639	0.518442
C138	C	1.656881	-0.112306	0.851775
C139	C	0.990189	-0.724372	0.185101
C140	C	1.323523	-0.391039	0.518434
C141	C	1.656856	-0.057706	0.851767
C142	C	0.949893	-0.697089	0.218503
C143	C	1.283227	-0.363756	0.551837
C144	C	1.616560	-0.030423	0.885170
C145	C	0.909623	-0.724407	0.251913
C146	C	1.242956	-0.391074	0.585247
C147	C	1.576289	-0.057740	0.918580
C148	C	0.829081	-0.779039	0.318743
C149	C	1.162414	-0.445706	0.652076
C150	C	1.495747	-0.112373	0.985409
C151	C	0.829064	-0.724432	0.318735
C152	C	1.162397	-0.391099	0.652069
C153	C	1.495730	-0.057766	0.985402
C154	C	0.869337	-0.697115	0.285322
C155	C	1.202670	-0.363781	0.618655
C156	C	1.536004	-0.030448	0.951989
C157	C	0.869301	-0.642524	0.285308
C158	C	1.202635	-0.309190	0.618642
C159	C	1.535968	0.024143	0.951975
N160	N	0.909577	-0.615203	0.251901
N161	N	1.242910	-0.281870	0.585234
N162	N	1.576243	0.051464	0.918568
C163	C	0.949873	-0.642486	0.218498
C164	C	1.283206	-0.309153	0.551832
C165	C	1.616539	0.024181	0.885165
C166	C	0.869443	-0.975599	0.285347
C167	C	1.202776	-0.642266	0.618680
C168	C	1.536110	-0.308932	0.952014
C169	C	0.869460	-1.030201	0.285349
C170	C	1.202793	-0.696868	0.618683
C171	C	1.536127	-0.363535	0.952016
C172	C	0.950034	-1.030164	0.218536
C173	C	1.283367	-0.696831	0.551870
C174	C	1.616701	-0.363497	0.885203
C175	C	0.950013	-0.975561	0.218532
C176	C	1.283347	-0.642227	0.551865
C177	C	1.616680	-0.308894	0.885198
C178	C	0.909718	-0.948279	0.251940
C179	C	1.243051	-0.614945	0.585273
C180	C	1.576385	-0.281612	0.918606
C181	C	0.949816	-0.527821	0.218485
C182	C	1.283149	-0.194488	0.551818
C183	C	1.616482	0.138846	0.885152
C184	C	0.949785	-0.473216	0.218479
C185	C	1.283118	-0.139882	0.551812
C186	C	1.616452	0.193451	0.885145
C187	C	0.869214	-0.473258	0.285293
C188	C	1.202547	-0.139924	0.618627
C189	C	1.535880	0.193409	0.951960
C190	C	0.869242	-0.527858	0.285298
C191	C	1.202575	-0.194525	0.618631
C192	C	1.535908	0.138808	0.951964
C193	C	0.909548	-0.555139	0.251892
C194	C	1.242881	-0.221805	0.585225
C195	C	1.576215	0.111528	0.918558
O196	O	0.835034	-0.614257	0.313688
O197	O	1.168367	-0.280923	0.647021
O198	O	1.501701	0.052410	0.980355
O199	O	0.984127	-0.614227	0.190092
O200	O	1.317461	-0.280894	0.523425
O201	O	1.650794	0.052439	0.856758
C202	C	1.073773	-0.251997	0.251913
C203	C	1.407106	0.081337	0.585246
C204	C	1.740439	0.414670	0.918580
C205	C	1.143741	-0.252005	0.251920
C206	C	1.477074	0.081328	0.585253
C207	C	1.810408	0.414661	0.918586
C208	C	0.909603	-0.251967	0.388271
C209	C	1.242936	0.081366	0.721604
C210	C	1.576270	0.414700	1.054938
C211	C	0.909612	-0.251963	0.446385
C212	C	1.242945	0.081370	0.779718
C213	C	1.576278	0.414704	1.113052
C214	C	0.909706	-0.115603	0.251933
C215	C	1.243039	0.217730	0.585267
C216	C	1.576373	0.551064	0.918600
C217	C	0.909759	-0.057489	0.251949
C218	C	1.243092	0.275844	0.585282
C219	C	1.576425	0.609178	0.918615
C220	C	0.909599	-0.251947	0.116055
C221	C	1.242932	0.081386	0.449389
C222	C	1.576265	0.414719	0.782722
C223	C	0.909712	-0.251804	0.057942
C224	C	1.243045	0.081529	0.391275
C225	C	1.576379	0.414863	0.724608
C226	C	0.949954	-0.218428	0.806766
C227	C	1.283288	0.114905	1.140100
C228	C	1.616621	0.448238	1.473433
C229	C	0.949962	-0.218414	0.861371
C230	C	1.283295	0.114919	1.194704
C231	C	1.616629	0.448253	1.528037
O232	O	0.984212	-0.189963	0.889623
O233	O	1.317545	0.143370	1.222956
O234	O	1.650879	0.476704	1.556289
N235	N	0.909681	-0.251840	0.888668
N236	N	1.243014	0.081493	1.222001
N237	N	1.576348	0.414826	1.555334
C238	C	0.869385	-0.285280	0.861358
C239	C	1.202718	0.048053	1.194691
C240	C	1.536052	0.381387	1.528024
O241	O	0.835123	-0.313710	0.889590
O242	O	1.168456	0.019623	1.222923
O243	O	1.501790	0.352957	1.556257
C244	C	0.869374	-0.285291	0.806754
C245	C	1.202708	0.048042	1.140088
C246	C	1.536041	0.381375	1.473421
C247	C	0.909663	-0.251866	0.779460
C248	C	1.242996	0.081467	1.112793
C249	C	1.576329	0.414800	1.446127
C250	C	0.990239	-0.185006	0.779472
C251	C	1.323572	0.148328	1.112805
C252	C	1.656906	0.481661	1.446139
C253	C	0.990232	-0.185021	0.724871
C254	C	1.323565	0.148312	1.058205
C255	C	1.656898	0.481646	1.391538
C256	C	0.949940	-0.218459	0.697565
C257	C	1.283273	0.114874	1.030899
C258	C	1.616607	0.448208	1.364232
C259	C	0.909656	-0.251882	0.724860
C260	C	1.242989	0.081452	1.058193
C261	C	1.576322	0.414785	1.391526
C262	C	0.829076	-0.318728	0.779445
C263	C	1.162409	0.014606	1.112779
C264	C	1.495742	0.347939	1.446112
C265	C	0.829068	-0.318736	0.724838
C266	C	1.162402	0.014597	1.058172
C267	C	1.495735	0.347931	1.391505
C268	C	0.869357	-0.285311	0.697544
C269	C	1.202690	0.048022	1.030877
C270	C	1.536023	0.381356	1.364211
C271	C	0.869357	-0.285335	0.642953
C272	C	1.202690	0.047998	0.976286
C273	C	1.536023	0.381332	1.309619
N274	N	0.909638	-0.251908	0.615656
N275	N	1.242971	0.081425	0.948989
N276	N	1.576305	0.414758	1.282322
C277	C	0.949930	-0.218470	0.642962
C278	C	1.283263	0.114863	0.976295
C279	C	1.616596	0.448196	1.309629
C280	C	0.869409	-0.285253	0.976028
C281	C	1.202742	0.048081	1.309362
C282	C	1.536076	0.381414	1.642695
C283	C	0.869422	-0.285244	1.030631
C284	C	1.202756	0.048089	1.363964
C285	C	1.536089	0.381422	1.697297
C286	C	0.949999	-0.218377	1.030640
C287	C	1.283332	0.114956	1.363973
C288	C	1.616666	0.448289	1.697307
C289	C	0.949988	-0.218389	0.976037
C290	C	1.283322	0.114944	1.309370
C291	C	1.616655	0.448278	1.642703
C292	C	0.909690	-0.251826	0.948731
C293	C	1.243024	0.081507	1.282065
C294	C	1.576357	0.414841	1.615398
C295	C	0.949912	-0.218505	0.528297
C296	C	1.283245	0.114828	0.861630
C297	C	1.616579	0.448161	1.194963
C298	C	0.949903	-0.218525	0.473691
C299	C	1.283237	0.114808	0.807025
C300	C	1.616570	0.448142	1.140358
C301	C	0.869325	-0.285390	0.473687
C302	C	1.202658	0.047944	0.807020
C303	C	1.535991	0.381277	1.140354
C304	C	0.869335	-0.285372	0.528287
C305	C	1.202669	0.047961	0.861621
C306	C	1.536002	0.381295	1.194954
C307	C	0.909631	-0.251926	0.555591
C308	C	1.242965	0.081408	0.888924
C309	C	1.576298	0.414741	1.222258
O310	O	0.835122	-0.313770	0.614666
O311	O	1.168456	0.019564	0.947999
O312	O	1.501789	0.352897	1.281333
O313	O	0.984180	-0.190040	0.614723
O314	O	1.317513	0.143293	0.948056
O315	O	1.650847	0.476627	1.281390
H316	H	0.550747	-0.191385	0.312662
H317	H	0.884080	0.141948	0.645995
H318	H	1.217413	0.475281	0.979329
F319	F	0.826520	-0.320847	0.946973
F320	F	1.159853	0.012486	1.280306
F321	F	1.493186	0.345820	1.613639
F322	F	0.992878	-0.946492	0.182969
F323	F	1.326211	-0.613159	0.516303
F324	F	1.659544	-0.279825	0.849636
F325	F	0.542403	-0.320894	0.182745
F326	F	0.875736	0.012439	0.516078
F327	F	1.209069	0.345773	0.849412
F328	F	0.141698	-0.183076	0.321063
F329	F	0.475031	0.150257	0.654396
F330	F	0.808365	0.483591	0.987729
H331	H	1.022985	-0.702133	0.157894
H332	H	1.356318	-0.368800	0.491228
H333	H	1.689652	-0.035467	0.824561
F334	F	0.992787	-0.182949	0.444646
F335	F	1.326120	0.150384	0.777979
F336	F	1.659453	0.483718	1.111312
F337	F	0.826445	-0.320974	0.444616
F338	F	1.159778	0.012359	0.777949
F339	F	1.493112	0.345692	1.111283
H340	H	0.670011	-0.191385	0.312663
H341	H	1.003344	0.141949	0.645996
H342	H	1.336678	0.475282	0.979330
H343	H	0.982580	-0.450975	0.191268
H344	H	1.315914	-0.117642	0.524601
H345	H	1.649247	0.215691	0.857935
H346	H	1.023038	-0.157802	0.702653
H347	H	1.356371	0.175531	1.035987
H348	H	1.689704	0.508865	1.369320
H349	H	0.836659	-1.052439	0.312553
H350	H	1.169993	-0.719105	0.645886
H351	H	1.503326	-0.385772	0.979220
F352	F	0.141562	-0.320939	0.182775
F353	F	0.474895	0.012394	0.516109
F354	F	0.808228	0.345727	0.849442
F355	F	0.992714	-0.556847	0.182930
F356	F	1.326047	-0.223514	0.516264
F357	F	1.659381	0.109820	0.849597
F358	F	0.826332	-0.444212	0.320842
F359	F	1.159665	-0.110878	0.654176
F360	F	1.492998	0.222455	0.987509
H361	H	0.269173	-0.191414	0.312680
H362	H	0.602507	0.141920	0.646013
H363	H	0.935840	0.475253	0.979346
H364	H	0.982847	-1.052388	0.191340
H365	H	1.316181	-0.719054	0.524673
H366	H	1.649514	-0.385721	0.858007
H367	H	0.982794	-0.191170	0.953817
H368	H	1.316127	0.142163	1.287151
H369	H	1.649460	0.475496	1.620484
F370	F	0.826548	-0.946568	0.320903
F371	F	1.159881	-0.613235	0.654236
F372	F	1.493215	-0.279901	0.987570
F373	F	0.678108	-0.320889	0.182743
F374	F	1.011441	0.012444	0.516077
F375	F	1.344774	0.345778	0.849410
F376	F	1.033108	-0.808001	0.149554
F377	F	1.366441	-0.474668	0.482888
F378	F	1.699775	-0.141335	0.816221
H379	H	0.982723	-0.191268	0.550521
H380	H	1.316056	0.142065	0.883854
H381	H	1.649389	0.475398	1.217188
F382	F	0.786196	-0.354306	0.808482
F383	F	1.119530	-0.020972	1.141815
F384	F	1.452863	0.312361	1.475149
F385	F	0.786221	-0.808101	0.354311
F386	F	1.119554	-0.474768	0.687644
F387	F	1.452887	-0.141434	1.020977
H388	H	0.796245	-0.345960	0.702609
H389	H	1.129578	-0.012626	1.035942
H390	H	1.462912	0.320707	1.369276
H391	H	0.836450	-0.550102	0.312507
H392	H	1.169783	-0.216768	0.645841
H393	H	1.503117	0.116565	0.979174
F394	F	0.277270	-0.320922	0.182768
F395	F	0.610603	0.012411	0.516101
F396	F	0.943937	0.345744	0.849435
F397	F	0.786176	-0.695400	0.354295
F398	F	1.119509	-0.362067	0.687628
F399	F	1.452843	-0.028733	1.020961
H400	H	1.023049	-0.157774	0.801699
H401	H	1.356383	0.175560	1.135032
H402	H	1.689716	0.508893	1.468366
H403	H	0.982805	-0.191149	1.052883
H404	H	1.316139	0.142184	1.386216
H405	H	1.649472	0.475518	1.719549
H406	H	0.836622	-0.312468	1.052849
H407	H	1.169956	0.020865	1.386182
H408	H	1.503289	0.354199	1.719516
F409	F	0.826461	-0.320950	0.557337
F410	F	1.159794	0.012384	0.890670
F411	F	1.493127	0.345717	1.224004
