data_functionalizedCrystal
_audit_creation_method	'MofGen! by Chris Wilmer'
_symmetry_space_group_name_H-M	'P1'
_symmetry_Int_Tables_number	1
_symmetry_cell_setting	triclinic
loop_
_symmetry_equiv_pos_as_xyz
  x,y,z
_cell_length_a	10.723023
_cell_length_b	10.723024
_cell_length_c	16.176319
_cell_angle_alpha	89.994397
_cell_angle_beta	89.993069
_cell_angle_gamma	84.467709
loop_
_atom_site_label
_atom_site_type_symbol
_atom_site_fract_x
_atom_site_fract_y
_atom_site_fract_z
O1	O	1.657194	0.175026	-0.068736
O2	O	1.294042	0.191780	-0.068739
O3	O	1.483994	0.001827	-0.068734
O4	O	1.467241	0.364979	-0.068741
O5	O	1.483968	0.001814	0.068759
O6	O	1.294015	0.191768	0.068754
O7	O	1.657168	0.175013	0.068757
Cu8	Cu	1.475589	0.183389	0.081310
Cu9	Cu	1.475620	0.183404	-0.081292
O10	O	1.467215	0.364967	0.068753
C11	C	1.247529	0.190555	0.000007
C12	C	1.108974	0.186908	0.000006
C13	C	1.047189	0.185275	0.071231
C14	C	0.903985	0.181505	0.071231
C15	C	1.482762	-0.044679	0.000011
C16	C	1.479114	-0.183233	0.000008
C17	C	1.365807	-0.374990	0.000003
C18	C	1.369575	-0.231787	0.000006
C19	C	1.703680	0.176239	0.000009
C20	C	1.842235	0.179886	0.000005
C21	C	1.468447	0.411473	0.000005
C22	C	1.472095	0.550027	0.000003
N23	N	1.475576	0.183378	0.195675
N24	N	1.475643	0.183405	-0.195657
C25	C	1.559713	0.099302	0.238941
C26	C	1.559719	0.099301	0.325489
C27	C	1.475594	0.183383	0.368768
C28	C	1.391448	0.267463	0.325495
C29	C	1.391436	0.267457	0.238950
C30	C	1.391491	0.267487	0.674524
C31	C	1.391511	0.267489	0.761075
C32	C	1.559774	0.099330	0.761062
C33	C	1.559762	0.099324	0.674517
C34	C	1.475612	0.183400	0.631252
C35	C	1.475605	0.183399	0.537408
C36	C	1.475606	0.183391	0.462610
H37	H	1.272021	-0.416812	-0.000004
H38	H	1.323001	0.335961	0.796312
C39	C	1.602049	-0.270254	0.000009
H40	H	1.671260	-0.221215	0.000017
H41	H	1.605378	-0.321610	-0.047937
H42	H	1.605357	-0.321619	0.047963
H43	H	1.055854	0.185511	-0.060972
H44	H	0.895360	0.181297	-0.060976
C45	C	1.118936	0.187121	0.153612
H46	H	1.061604	0.185589	0.198298
H47	H	1.160851	0.261090	0.156699
H48	H	1.178605	0.115791	0.156670
C49	C	1.298871	0.359917	0.373096
H50	H	1.248742	0.409970	0.334931
H51	H	1.344167	0.412294	0.406859
H52	H	1.246561	0.314507	0.406856
C53	C	1.652251	0.006808	0.191342
H54	H	1.702351	-0.043272	0.229508
H55	H	1.704575	0.052167	0.157567
H56	H	1.606906	-0.045557	0.157594
H57	H	1.278584	-0.167354	0.000012
C58	C	1.652282	0.006828	0.373078
H59	H	1.702395	-0.043235	0.334907
H60	H	1.606970	-0.045537	0.406853
H61	H	1.704610	0.052216	0.406825
C62	C	0.832194	0.179790	0.153611
H63	H	0.745355	0.177552	0.142804
H64	H	0.844633	0.253047	0.184348
H65	H	0.862283	0.107745	0.184500
C66	C	1.652296	0.006831	0.626914
H67	H	1.702399	-0.043252	0.665078
H68	H	1.704618	0.052190	0.593138
H69	H	1.606947	-0.045532	0.593167
C70	C	1.298941	0.359976	0.626943
H71	H	1.248853	0.410061	0.665116
H72	H	1.246604	0.314614	0.593193
H73	H	1.344274	0.412338	0.593172
C74	C	1.652326	0.006835	0.808656
H75	H	1.640279	0.018865	0.866398
H76	H	1.735720	0.021149	0.794460
H77	H	1.638056	-0.076580	0.794478
C78	C	1.298891	0.359946	0.191357
H79	H	1.248798	0.410032	0.229526
H80	H	1.246560	0.314579	0.157607
H81	H	1.344225	0.412307	0.157585
H82	H	1.565881	-0.408151	-0.000025
