data_functionalizedCrystal
_audit_creation_method	'MofGen! by Chris Wilmer'
_symmetry_space_group_name_H-M	'P1'
_symmetry_Int_Tables_number	1
_symmetry_cell_setting	triclinic
loop_
_symmetry_equiv_pos_as_xyz
  x,y,z
_cell_length_a	14.971506
_cell_length_b	10.489716
_cell_length_c	13.448316
_cell_angle_alpha	89.997460
_cell_angle_beta	89.992937
_cell_angle_gamma	84.075762
loop_
_atom_site_label
_atom_site_type_symbol
_atom_site_fract_x
_atom_site_fract_y
_atom_site_fract_z
O1	O	1.187873	0.166347	-0.082690
O2	O	0.927587	0.186226	-0.082689
O3	O	1.063664	-0.009381	-0.082693
O4	O	1.051796	0.361954	-0.082686
O5	O	1.063647	-0.009394	0.082691
O6	O	0.927570	0.186214	0.082695
O7	O	1.187855	0.166335	0.082694
Cu8	Cu	1.057711	0.176273	0.097795
Cu9	Cu	1.057731	0.176288	-0.097790
O10	O	1.051778	0.361942	0.082698
C11	C	0.894249	0.185326	0.000003
C12	C	0.794938	0.182648	0.000003
C13	C	0.357244	0.287344	-0.000006
C14	C	0.450559	0.289850	-0.000010
C15	C	0.507132	0.174924	-0.000008
C16	C	0.470386	0.057483	-0.000011
C17	C	0.377073	0.054978	-0.000014
C18	C	0.664879	0.062712	-0.000003
C19	C	0.758198	0.065217	0.000002
C20	C	0.738364	0.297584	0.000001
C21	C	0.645051	0.295080	-0.000001
C22	C	0.608312	0.177639	-0.000003
C23	C	1.062763	-0.056909	-0.000004
C24	C	1.060096	-0.198510	-0.000013
C25	C	1.143542	-0.297141	-0.000004
C26	C	1.099456	-0.373990	-0.081545
C27	C	1.099419	-0.373965	0.081511
C28	C	1.016044	-0.273494	-0.081621
C29	C	1.016020	-0.273464	0.081508
C30	C	0.971872	-0.350263	-0.000052
C31	C	1.221193	0.167235	-0.000000
C32	C	1.320505	0.169913	-0.000006
C33	C	1.052679	0.409470	0.000007
C34	C	1.055347	0.551071	0.000009
N35	N	1.057703	0.176262	0.235359
N36	N	1.057746	0.176288	-0.235355
C37	C	1.117977	0.089683	0.287398
C38	C	1.117983	0.089682	0.391501
C39	C	1.057718	0.176267	0.443564
C40	C	0.997437	0.262851	0.391518
C41	C	0.997428	0.262845	0.287417
C42	C	0.997462	0.262859	0.608498
C43	C	0.997472	0.262868	0.712607
C44	C	1.118017	0.089697	0.712583
C45	C	1.118007	0.089691	0.608481
C46	C	1.057728	0.176276	0.556443
H47	H	0.480467	0.385475	-0.000019
O48	O	0.938876	0.347094	0.558100
C49	C	0.885674	0.423501	0.626372
H50	H	0.922358	0.425032	0.700571
H51	H	0.872677	0.525333	0.596291
H52	H	0.818967	0.381927	0.637461
O53	O	0.774195	0.411558	-0.000070
C54	C	0.868685	0.389131	-0.000060
H55	H	0.889951	0.289615	-0.031352
H56	H	0.897814	0.464268	-0.048100
H57	H	0.894699	0.395376	0.079276
H58	H	0.804258	-0.028367	-0.000004
O59	O	1.141404	-0.426191	-0.163890
C60	C	1.098187	-0.373026	-0.249729
H61	H	1.060718	-0.275922	-0.230725
H62	H	1.150368	-0.360233	-0.309669
H63	H	1.048529	-0.439929	-0.278205
H64	H	1.167098	0.019196	0.754959
H65	H	0.634969	-0.032921	-0.000009
H66	H	0.516455	-0.036092	-0.000015
O67	O	0.938890	0.346788	0.763298
C68	C	0.883285	0.278320	0.823517
H69	H	0.918289	0.178601	0.839096
H70	H	0.869484	0.331515	0.896727
H71	H	0.817120	0.269481	0.783423
O72	O	0.341529	-0.059206	0.000030
C73	C	0.411469	-0.160108	0.000007
H74	H	0.475074	-0.124266	0.031324
H75	H	0.391433	-0.242092	0.048018
H76	H	0.424454	-0.195558	-0.079336
O77	O	0.974211	-0.221330	-0.164038
C78	C	1.035532	-0.157873	-0.220474
H79	H	1.106981	-0.199381	-0.201983
H80	H	1.022232	-0.171698	-0.303039
H81	H	1.026971	-0.051231	-0.202037
O82	O	1.176553	0.005450	0.236983
C83	C	1.229766	-0.070946	0.305243
H84	H	1.193092	-0.072471	0.379458
H85	H	1.242763	-0.172781	0.275170
H86	H	1.296473	-0.029366	0.316295
H87	H	1.167061	0.019182	0.433871
H88	H	0.899233	-0.373861	-0.000096
O89	O	1.230134	-0.268698	-0.000296
C90	C	1.273823	-0.320142	-0.086432
H91	H	1.221791	-0.334400	-0.146204
H92	H	1.322168	-0.251317	-0.114916
H93	H	1.312839	-0.416306	-0.067830
H94	H	0.980817	-0.229547	0.150448
O95	O	1.141574	-0.426182	0.163726
C96	C	1.232005	-0.399691	0.163395
H97	H	1.239086	-0.311491	0.115656
H98	H	1.254130	-0.380878	0.242696
H99	H	1.275924	-0.485279	0.131568
O100	O	1.176581	0.005462	0.558060
C101	C	1.229802	-0.070939	0.626311
H102	H	1.193134	-0.072473	0.700530
H103	H	1.242798	-0.172770	0.596232
H104	H	1.296509	-0.029357	0.637359
H105	H	0.948364	0.333346	0.433914
H106	H	0.948346	0.333345	0.245048
H107	H	0.311188	0.380931	0.000000
O108	O	0.590223	0.406835	-0.000045
C109	C	0.642657	0.511029	-0.000018
H110	H	0.712085	0.478764	-0.031327
H111	H	0.608764	0.591561	-0.048034
H112	H	0.649520	0.547017	0.079325
