data_functionalizedCrystal
_audit_creation_method	'MofGen! by Chris Wilmer'
_symmetry_space_group_name_H-M	'P1'
_symmetry_Int_Tables_number	1
_symmetry_cell_setting	triclinic
loop_
_symmetry_equiv_pos_as_xyz
  x,y,z
_cell_length_a	12.827893
_cell_length_b	25.639239
_cell_length_c	12.827885
_cell_angle_alpha	89.964018
_cell_angle_beta	89.980728
_cell_angle_gamma	90.038657
loop_
_atom_site_label
_atom_site_type_symbol
_atom_site_fract_x
_atom_site_fract_y
_atom_site_fract_z
Zn1	Zn	1.597500	-0.208126	-0.590804
Zn2	Zn	1.597324	-0.295571	-0.416045
Zn3	Zn	1.422742	-0.208151	-0.416077
Zn4	Zn	1.422656	-0.295532	-0.590745
O5	O	1.510055	-0.251845	-0.503418
O6	O	1.743713	-0.219731	-0.567633
O7	O	1.574127	-0.284002	-0.269813
O8	O	1.446034	-0.134983	-0.439293
O9	O	1.743583	-0.283977	-0.439238
O10	O	1.574428	-0.134964	-0.567664
O11	O	1.445862	-0.219775	-0.269837
O12	O	1.276494	-0.219737	-0.439236
O13	O	1.445888	-0.283911	-0.736989
O14	O	1.276431	-0.283935	-0.567564
O15	O	1.574345	-0.219694	-0.737032
O16	O	1.574044	-0.368731	-0.439181
O17	O	1.445716	-0.368702	-0.567533
C18	C	1.238546	-0.251835	-0.503398
C19	C	1.122392	-0.251843	-0.503414
C20	C	1.509880	-0.387688	-0.503370
C21	C	1.509900	-0.445802	-0.503384
C22	C	1.070604	-0.283660	-0.566817
C23	C	0.950554	-0.283670	-0.566835
C24	C	1.577050	-0.806167	-0.436699
C25	C	1.577090	-0.860771	-0.436713
O26	O	1.634001	-0.889010	-0.379962
N27	N	1.510239	-0.888084	-0.503487
C28	C	1.443350	-0.860790	-0.570259
O29	O	1.386493	-0.889035	-0.627057
C30	C	1.443316	-0.806186	-0.570249
C31	C	1.510164	-0.778876	-0.503463
C32	C	1.643893	-0.778857	-0.369920
C33	C	1.643851	-0.724256	-0.369904
C34	C	1.576966	-0.696966	-0.436669
C35	C	1.510122	-0.724276	-0.503448
C36	C	1.376433	-0.778893	-0.637026
C37	C	1.376405	-0.724286	-0.637011
C38	C	1.443253	-0.696976	-0.570225
C39	C	1.443194	-0.642385	-0.570198
N40	N	1.510045	-0.615072	-0.503424
C41	C	1.576931	-0.642363	-0.436659
C42	C	1.443429	-0.975460	-0.570275
C43	C	1.443458	-1.030063	-0.570280
C44	C	1.577199	-1.030040	-0.436735
C45	C	1.577165	-0.975437	-0.436726
C46	C	1.510281	-0.948148	-0.503501
C47	C	1.576837	-0.527698	-0.436632
C48	C	1.576786	-0.473092	-0.436620
C49	C	1.443049	-0.473119	-0.570168
C50	C	1.443095	-0.527720	-0.570177
C51	C	1.509998	-0.555008	-0.503405
O52	O	1.386315	-0.614112	-0.626923
O53	O	1.633789	-0.614110	-0.379880
C54	C	1.782626	-0.251856	-0.503438
C55	C	1.898779	-0.251860	-0.503447
C56	C	1.510127	-0.251795	-0.775988
C57	C	1.510157	-0.251773	-0.892141
C58	C	1.510260	-0.115472	-0.503489
C59	C	1.510348	-0.057358	-0.503519
C60	C	1.573729	-0.219991	-0.943947
C61	C	1.573761	-0.219968	-1.063998
C62	C	1.510045	-0.251857	-0.231908
C63	C	1.510217	-0.251731	-0.115755
H64	H	1.115143	-0.310891	-0.621088
H65	H	1.631665	-1.052270	-0.382375
O66	O	1.638594	-0.187519	-1.117300
C67	C	1.624205	-0.194726	-1.225297
H68	H	1.543525	-0.211853	-1.240085
H69	H	1.686132	-0.222577	-1.256264
C70	C	1.732911	-0.120804	-1.263297
C71	C	1.633815	-0.141835	-1.281460
H72	H	1.738843	-0.088179	-1.297943
H73	H	1.742609	-0.115949	-1.190537
H74	H	1.784506	-0.144018	-1.289103
H75	H	1.582223	-0.118624	-1.255643
H76	H	1.624108	-0.146684	-1.354217
H77	H	1.389013	-1.052294	-0.624654
O78	O	1.378391	-0.948896	-0.634990
C79	C	1.310886	-0.917378	-0.575429
H80	H	1.347783	-0.909201	-0.496270
H81	H	1.233469	-0.938469	-0.563874
C82	C	1.246565	-0.875546	-0.730135
C83	C	1.291887	-0.865499	-0.632913
H84	H	1.234841	-0.843545	-0.765594
H85	H	1.292041	-0.896781	-0.770262
H86	H	1.182056	-0.893123	-0.720491
H87	H	1.356400	-0.847929	-0.642557
H88	H	1.246421	-0.844259	-0.592787
O89	O	1.708648	-0.697709	-0.304924
C90	C	1.649186	-0.666169	-0.237373
H91	H	1.566891	-0.682661	-0.230845
H92	H	1.645553	-0.624773	-0.269661
C93	C	1.801387	-0.645099	-0.136804
C94	C	1.700312	-0.665358	-0.128780
H95	H	1.832924	-0.644597	-0.069820
H96	H	1.841448	-0.666347	-0.182317
H97	H	1.798345	-0.610605	-0.163715
H98	H	1.703356	-0.699854	-0.101882
H99	H	1.660252	-0.644116	-0.083261
O100	O	1.069309	-0.219281	-0.438780
C101	C	1.095982	-0.167169	-0.461753
H102	H	1.126103	-0.164558	-0.545212
H103	H	1.159236	-0.153435	-0.405703
C104	C	0.961988	-0.135530	-0.347316
C105	C	0.998975	-0.132323	-0.449825
H106	H	0.902152	-0.114034	-0.339954
H107	H	0.944020	-0.170638	-0.331835
H108	H	1.014709	-0.124086	-0.300619
H109	H	0.946259	-0.143773	-0.496519
H110	H	1.016932	-0.097215	-0.465313
H111	H	1.698366	-0.801071	-0.315552
H112	H	0.943309	-0.224621	-0.449159
H113	H	1.628127	-0.192795	-0.899424
H114	H	1.455792	-0.278945	-1.071210
O115	O	1.445304	-0.284291	-0.945131
C116	C	1.468053	-0.336419	-0.918531
H117	H	1.508132	-0.337554	-0.839259
H118	H	1.521825	-0.353991	-0.979933
C119	C	1.316900	-0.366696	-1.010974
C120	C	1.366118	-0.368090	-0.913608
H121	H	1.254023	-0.386234	-1.007942
H122	H	1.301575	-0.331576	-1.028899
H123	H	1.361720	-0.381338	-1.062133
H124	H	1.321303	-0.353442	-0.862454
H125	H	1.381433	-0.403208	-0.895674
O126	O	1.641826	-0.446645	-0.371709
C127	C	1.700851	-0.482446	-0.312771
H128	H	1.704471	-0.521349	-0.355592
H129	H	1.662630	-0.488305	-0.233372
C130	C	1.807618	-0.413303	-0.245206
C131	C	1.812073	-0.461084	-0.297804
H132	H	1.876224	-0.400126	-0.235969
H133	H	1.767850	-0.389183	-0.284910
H134	H	1.775764	-0.418192	-0.179046
H135	H	1.843915	-0.456193	-0.363968
H136	H	1.851849	-0.485203	-0.258111
H137	H	0.906017	-0.310911	-0.621113
O138	O	1.311485	-0.697834	-0.702024
C139	C	1.334304	-0.711118	-0.806198
H140	H	1.374504	-0.750741	-0.808403
H141	H	1.387991	-0.680345	-0.841433
C142	C	1.183026	-0.665005	-0.866711
C143	C	1.232393	-0.713674	-0.869420
H144	H	1.120164	-0.666580	-0.905711
H145	H	1.167654	-0.656054	-0.796528
H146	H	1.227776	-0.639367	-0.896071
H147	H	1.187648	-0.739310	-0.840048
H148	H	1.247755	-0.722629	-0.939600
O149	O	1.642202	-0.948991	-0.371821
C150	C	1.701216	-0.984794	-0.312877
H151	H	1.704830	-1.023699	-0.355696
H152	H	1.662991	-0.990650	-0.233480
C153	C	1.807998	-0.915657	-0.245313
C154	C	1.812443	-0.963439	-0.297908
H155	H	1.876606	-0.902483	-0.236075
H156	H	1.768237	-0.891535	-0.285021
H157	H	1.776139	-0.920542	-0.179155
H158	H	1.844289	-0.958551	-0.364070
H159	H	1.852212	-0.987560	-0.258211
O160	O	1.378124	-0.554171	-0.635146
C161	C	1.319059	-0.518372	-0.694048
H162	H	1.361826	-0.479423	-0.697681
H163	H	1.239706	-0.512626	-0.655711
C164	C	1.251436	-0.587479	-0.800804
C165	C	1.303967	-0.539643	-0.805274
H166	H	1.242121	-0.600601	-0.869412
H167	H	1.291225	-0.611598	-0.761118
H168	H	1.185313	-0.582684	-0.768852
H169	H	1.370092	-0.544439	-0.837213
H170	H	1.264188	-0.515525	-0.844967
H171	H	1.631318	-0.549909	-0.382263
H172	H	1.321993	-0.801120	-0.691405
H173	H	1.388588	-0.450891	-0.624524
