data_functionalizedCrystal
_audit_creation_method	'MofGen! by Chris Wilmer'
_symmetry_space_group_name_H-M	'P1'
_symmetry_Int_Tables_number	1
_symmetry_cell_setting	triclinic
loop_
_symmetry_equiv_pos_as_xyz
  x,y,z
_cell_length_a	11.792241
_cell_length_b	10.540539
_cell_length_c	10.268362
_cell_angle_alpha	89.996859
_cell_angle_beta	89.999626
_cell_angle_gamma	84.359454
loop_
_atom_site_label
_atom_site_type_symbol
_atom_site_fract_x
_atom_site_fract_y
_atom_site_fract_z
O1	O	1.507362	0.173992	-0.108167
O2	O	1.177067	0.191924	-0.108197
O3	O	1.349750	-0.001773	-0.108180
O4	O	1.334679	0.367689	-0.108184
O5	O	1.349735	-0.001781	0.108421
O6	O	1.177052	0.191916	0.108404
O7	O	1.507347	0.173984	0.108433
Cu8	Cu	1.342198	0.182949	0.128196
Cu9	Cu	1.342216	0.182959	-0.127959
O10	O	1.334664	0.367681	0.108416
C11	C	1.134766	0.190793	0.000100
C12	C	1.008743	0.187422	0.000088
C13	C	0.778015	0.181223	0.000126
C14	C	0.906409	0.184667	0.000105
C15	C	1.348612	-0.049076	0.000118
C16	C	1.345231	-0.190014	0.000111
C17	C	1.215660	-0.373018	-0.000387
C18	C	1.219087	-0.226411	0.000101
C19	C	1.405928	-0.251874	0.123806
C20	C	1.401623	-0.398404	0.123910
C21	C	1.404206	-0.398921	-0.122405
C22	C	1.405368	-0.251943	-0.124041
C23	C	1.549648	0.175114	0.000134
C24	C	1.675671	0.178486	0.000137
C25	C	1.335802	0.414984	0.000116
C26	C	1.339183	0.555921	0.000114
N27	N	1.342194	0.182942	0.308362
N28	N	1.342229	0.182956	-0.308125
C29	C	1.342210	0.182956	0.574032
C30	C	1.342197	0.182952	0.426195
H31	H	1.165836	-0.401453	-0.089091
H32	H	1.495319	-0.446444	-0.123229
C33	C	1.148605	-0.413602	0.118765
C34	C	1.192281	-0.390241	0.257196
C35	C	1.125231	-0.430829	0.376350
C36	C	1.014507	-0.494778	0.357074
C37	C	0.970825	-0.518142	0.218638
C38	C	1.037875	-0.477554	0.099484
H39	H	1.274251	-0.342899	0.271470
H40	H	1.157568	-0.413533	0.478829
H41	H	0.964873	-0.524824	0.445279
H42	H	0.888855	-0.565484	0.204364
H43	H	1.005538	-0.494850	-0.002996
C44	C	1.154260	-0.169929	0.120244
C45	C	1.216517	-0.095278	0.222366
C46	C	1.151763	-0.038867	0.342596
C47	C	1.024751	-0.057107	0.360704
C48	C	0.962487	-0.131761	0.258579
C49	C	1.027242	-0.188172	0.138350
H50	H	1.310545	-0.081773	0.208964
H51	H	1.197856	0.016397	0.418195
H52	H	0.976816	-0.015348	0.449706
H53	H	0.868460	-0.145267	0.271981
H54	H	0.981149	-0.243437	0.062750
H55	H	1.498564	-0.229821	0.128413
C56	C	1.349065	-0.441353	-0.249065
C57	C	1.342078	-0.584097	-0.275976
C58	C	1.286924	-0.626528	-0.402628
C59	C	1.238757	-0.526215	-0.502369
C60	C	1.245743	-0.383461	-0.475460
C61	C	1.300897	-0.341031	-0.348809
H62	H	1.377735	-0.658364	-0.202140
H63	H	1.281753	-0.732204	-0.422547
H64	H	1.197929	-0.557624	-0.596124
H65	H	1.210086	-0.309195	-0.549297
H66	H	1.306068	-0.235355	-0.328890
C67	C	1.529613	-0.219627	-0.134125
C68	C	1.614934	-0.259927	-0.024692
C69	C	1.739183	-0.227609	-0.034762
C70	C	1.778112	-0.154990	-0.154266
C71	C	1.692789	-0.114685	-0.263707
C72	C	1.568539	-0.147003	-0.253637
H73	H	1.586118	-0.313688	0.063780
H74	H	1.802345	-0.257446	0.046255
H75	H	1.870089	-0.131066	-0.161721
H76	H	1.721604	-0.060924	-0.352179
H77	H	1.505378	-0.117166	-0.334654
H78	H	1.356752	-0.426461	0.216366
H79	H	1.492343	-0.446668	0.129529
H80	H	1.171327	-0.183649	-0.088569
H81	H	1.363752	-0.209140	0.215848
H82	H	1.360956	-0.210937	-0.215547
