data_functionalizedCrystal
_audit_creation_method	'MofGen! by Chris Wilmer'
_symmetry_space_group_name_H-M	'P1'
_symmetry_Int_Tables_number	1
_symmetry_cell_setting	triclinic
loop_
_symmetry_equiv_pos_as_xyz
  x,y,z
_cell_length_a	19.121063
_cell_length_b	18.215407
_cell_length_c	18.215399
_cell_angle_alpha	89.980167
_cell_angle_beta	87.590157
_cell_angle_gamma	87.530554
loop_
_atom_site_label
_atom_site_type_symbol
_atom_site_fract_x
_atom_site_fract_y
_atom_site_fract_z
Zn1	Zn	-0.279613	-1.112559	0.428596
Zn2	Zn	0.053720	-0.779226	0.761929
Zn3	Zn	0.387054	-0.445893	1.095263
Zn4	Zn	-0.397068	-1.107212	0.310772
Zn5	Zn	-0.063735	-0.773878	0.644105
Zn6	Zn	0.269599	-0.440545	0.977439
Zn7	Zn	-0.279636	-0.989491	0.305544
Zn8	Zn	0.053697	-0.656157	0.638878
Zn9	Zn	0.387031	-0.322824	0.972211
Zn10	Zn	-0.397029	-0.984203	0.433795
Zn11	Zn	-0.063696	-0.650870	0.767129
Zn12	Zn	0.269638	-0.317537	1.100462
O13	O	-0.338336	-1.048366	0.369677
O14	O	-0.005003	-0.715033	0.703010
O15	O	0.328330	-0.381700	1.036344
O16	O	-0.295200	-1.214834	0.412978
O17	O	0.038133	-0.881500	0.746312
O18	O	0.371466	-0.548167	1.079645
O19	O	-0.381516	-1.091570	0.207095
O20	O	-0.048183	-0.758237	0.540429
O21	O	0.285150	-0.424904	0.873762
O22	O	-0.181348	-1.010267	0.317504
O23	O	0.151985	-0.676934	0.650837
O24	O	0.485318	-0.343600	0.984170
O25	O	-0.381494	-1.210905	0.326414
O26	O	-0.048161	-0.877572	0.659747
O27	O	0.285173	-0.544238	0.993080
O28	O	-0.181331	-1.100685	0.407909
O29	O	0.152002	-0.767351	0.741242
O30	O	0.485335	-0.434018	1.074576
O31	O	-0.295240	-1.005081	0.203255
O32	O	0.038094	-0.671748	0.536588
O33	O	0.371427	-0.338415	0.869921
O34	O	-0.295202	-0.885805	0.322545
O35	O	0.038132	-0.552472	0.655879
O36	O	0.371465	-0.219139	0.989212
O37	O	-0.381427	-1.001255	0.536089
O38	O	-0.048094	-0.667922	0.869422
O39	O	0.285239	-0.334589	1.202755
O40	O	-0.381450	-0.881921	0.416771
O41	O	-0.048116	-0.548587	0.750104
O42	O	0.285217	-0.215254	1.083437
O43	O	-0.295162	-1.095558	0.532269
O44	O	0.038171	-0.762224	0.865602
O45	O	0.371504	-0.428891	1.198935
O46	O	-0.495348	-1.086443	0.331455
O47	O	-0.162014	-0.753110	0.664788
O48	O	0.171319	-0.419777	0.998122
O49	O	-0.495319	-0.996070	0.421840
O50	O	-0.161985	-0.662736	0.755173
O51	O	0.171348	-0.329403	1.088506
C52	C	-0.338324	-0.857160	0.369655
C53	C	-0.004991	-0.523827	0.702989
C54	C	0.328342	-0.190494	1.036322
C55	C	-0.338336	-0.775361	0.369664
C56	C	-0.005003	-0.442028	0.702998
C57	C	0.328330	-0.108694	1.036331
C58	C	-0.520817	-1.040122	0.377795
C59	C	-0.187484	-0.706789	0.711128
C60	C	0.145849	-0.373456	1.044462
C61	C	-0.598883	-1.036663	0.381293
C62	C	-0.265550	-0.703330	0.714626
C63	C	0.067783	-0.369996	1.047959
C64	C	-0.338288	-1.048413	0.561628
C65	C	-0.004955	-0.715080	0.894961
C66	C	0.328379	-0.381747	1.228294
C67	C	-0.338267	-1.048433	0.643426
C68	C	-0.004934	-0.715100	0.976759
C69	C	0.328399	-0.381767	1.310092
C70	C	-0.635551	-1.082127	0.335916
C71	C	-0.302217	-0.748794	0.669250
C72	C	0.031116	-0.415460	1.002583
C73	C	-0.708902	-1.078878	0.339210
C74	C	-0.375569	-0.745545	0.672543
C75	C	-0.042235	-0.412211	1.005877
C76	C	-0.745585	-1.030161	0.387877
C77	C	-0.412251	-0.696827	0.721210
C78	C	-0.078918	-0.363494	1.054543
C79	C	-0.708912	-0.984695	0.433258
C80	C	-0.375579	-0.651361	0.766591
C81	C	-0.042246	-0.318028	1.099925
C82	C	-0.635562	-0.987948	0.429968
C83	C	-0.302229	-0.654615	0.763301
C84	C	0.031104	-0.321281	1.096634
C85	C	-0.967055	-1.017985	0.400168
C86	C	-0.633721	-0.684652	0.733501
C87	C	-0.300388	-0.351318	1.066835
C88	C	-1.040410	-1.014733	0.403454
C89	C	-0.707076	-0.681400	0.736787
C90	C	-0.373743	-0.348067	1.070120
C91	C	-1.040394	-1.108918	0.309406
C92	C	-0.707061	-0.775585	0.642739
C93	C	-0.373728	-0.442251	0.976073
C94	C	-0.967043	-1.112164	0.306117
C95	C	-0.633710	-0.778831	0.639450
C96	C	-0.300376	-0.445497	0.972783
C97	C	-0.930377	-1.066701	0.351501
C98	C	-0.597044	-0.733368	0.684834
C99	C	-0.263710	-0.400034	1.018167
C100	C	-0.820561	-1.026837	0.391243
C101	C	-0.487228	-0.693503	0.724576
C102	C	-0.153895	-0.360170	1.057910
C103	C	-0.855401	-1.070029	0.348138
C104	C	-0.522068	-0.736696	0.681471
C105	C	-0.188735	-0.403362	1.014804
C106	C	-0.155143	-1.056662	0.361543
C107	C	0.178190	-0.723329	0.694877
C108	C	0.511524	-0.389996	1.028210
C109	C	-0.077077	-1.060197	0.358077
C110	C	0.256256	-0.726864	0.691411
C111	C	0.589590	-0.393531	1.024744
C112	C	-0.338349	-1.240319	0.369699
C113	C	-0.005016	-0.906985	0.703032
C114	C	0.328318	-0.573652	1.036366
C115	C	-0.338354	-1.322117	0.369709
C116	C	-0.005021	-0.988784	0.703042
C117	C	0.328312	-0.655451	1.036375
C118	C	-0.383316	-0.585160	0.418671
C119	C	-0.049983	-0.251827	0.752005
C120	C	0.283350	0.081506	1.085338
C121	C	-0.383318	-0.508302	0.418681
C122	C	-0.049985	-0.174968	0.752014
C123	C	0.283348	0.158365	1.085347
C124	C	-0.293369	-0.512323	0.320699
C125	C	0.039964	-0.178990	0.654032
C126	C	0.373297	0.154343	0.987366
C127	C	-0.293364	-0.589181	0.320694
C128	C	0.039969	-0.255848	0.654027
C129	C	0.373302	0.077486	0.987361
C130	C	-0.338342	-0.625597	0.369679
C131	C	-0.005008	-0.292264	0.703013
C132	C	0.328325	0.041069	1.036346
C133	C	-0.338349	-0.471881	0.369694
C134	C	-0.005016	-0.138548	0.703027
C135	C	0.328318	0.194786	1.036360
C136	C	-0.338351	-0.388547	0.369703
C137	C	-0.005018	-0.055214	0.703037
C138	C	0.328316	0.278119	1.036370
C139	C	-0.338339	-0.708936	0.369671
C140	C	-0.005005	-0.375603	0.703004
C141	C	0.328328	-0.042270	1.036337
C142	C	-0.338334	-1.048364	0.178471
C143	C	-0.005001	-0.715031	0.511804
C144	C	0.328333	-0.381697	0.845137
C145	C	-0.338157	-1.048495	0.096664
C146	C	-0.004823	-0.715162	0.429998
C147	C	0.328510	-0.381829	0.763331
C148	C	-0.293307	-1.097555	0.829630
C149	C	0.040026	-0.764222	1.162963
C150	C	0.373359	-0.430889	1.496297
C151	C	-0.293287	-1.097565	0.906488
C152	C	0.040047	-0.764232	1.239821
C153	C	0.373380	-0.430898	1.573155
C154	C	-0.383119	-0.999368	0.910455
C155	C	-0.049786	-0.666035	1.243788
C156	C	0.283548	-0.332701	1.577121
C157	C	-0.383135	-0.999355	0.833598
C158	C	-0.049802	-0.666022	1.166931
C159	C	0.283531	-0.332689	1.500265
C160	C	-0.338231	-1.048453	0.793188
C161	C	-0.004897	-0.715120	1.126521
C162	C	0.328436	-0.381786	1.459854
C163	C	-0.338194	-1.048476	0.946902
C164	C	-0.004860	-0.715142	1.280236
C165	C	0.328473	-0.381809	1.613569
C166	C	-0.338172	-1.048486	1.030235
C167	C	-0.004838	-0.715152	1.363568
C168	C	0.328495	-0.381819	1.696902
C169	C	-0.338251	-1.048442	0.709850
C170	C	-0.004918	-0.715109	1.043183
C171	C	0.328415	-0.381776	1.376516
H172	H	-0.738753	-1.115899	0.302259
H173	H	-0.405420	-0.782566	0.635593
H174	H	-0.072086	-0.449232	0.968926
O175	O	-0.431904	-0.464726	0.471480
O176	O	-0.098571	-0.131393	0.804813
O177	O	0.234762	0.201940	1.138147
H178	H	-0.419988	-0.480038	0.528742
H179	H	-0.086655	-0.146704	0.862076
H180	H	0.246678	0.186629	1.195409
H181	H	-0.256736	-0.622106	0.280798
H182	H	0.076597	-0.288773	0.614132
H183	H	0.409931	0.044561	0.947465
O184	O	-0.431807	-0.624443	0.471520
O185	O	-0.098474	-0.291110	0.804853
O186	O	0.234860	0.042223	1.138186
H187	H	-0.467507	-0.657837	0.440119
H188	H	-0.134173	-0.324504	0.773452
H189	H	0.199160	0.008830	1.106786
O190	O	-0.244870	-1.150506	0.786048
O191	O	0.088463	-0.817173	1.119381
O192	O	0.421797	-0.483840	1.452714
H193	H	-0.276314	-1.186527	0.752440
H194	H	0.057019	-0.853193	1.085774
H195	H	0.390353	-0.519860	1.419107
H196	H	-0.937177	-1.151834	0.266488
H197	H	-0.603844	-0.818500	0.599822
H198	H	-0.270511	-0.485167	0.933155
H199	H	-0.738785	-0.945031	0.472887
H200	H	-0.405452	-0.611698	0.806220
H201	H	-0.072119	-0.278364	1.139554
H202	H	-0.937207	-0.980966	0.437120
H203	H	-0.603874	-0.647632	0.770453
H204	H	-0.270540	-0.314299	1.103787
O205	O	-0.431591	-0.946388	0.794290
O206	O	-0.098257	-0.613055	1.127623
O207	O	0.235076	-0.279722	1.460956
H208	H	-0.424050	-0.954623	0.734057
H209	H	-0.090717	-0.621289	1.067391
H210	H	0.242616	-0.287956	1.400724
H211	H	-0.825532	-1.109698	0.308516
H212	H	-0.492199	-0.776364	0.641849
H213	H	-0.158866	-0.443031	0.975182
H214	H	-0.256705	-1.137548	0.936156
H215	H	0.076629	-0.804215	1.269489
H216	H	0.409962	-0.470881	1.602822
H217	H	-0.256752	-0.482664	0.280816
H218	H	0.076582	-0.149330	0.614149
H219	H	0.409915	0.184003	0.947483
O220	O	-0.431550	-0.946414	0.954041
O221	O	-0.098216	-0.613081	1.287374
O222	O	0.235117	-0.279747	1.620707
H223	H	-0.467282	-0.977738	0.990645
H224	H	-0.133949	-0.644405	1.323978
H225	H	0.199384	-0.311071	1.657311
O226	O	-0.595984	-1.134679	0.283433
O227	O	-0.262650	-0.801346	0.616767
O228	O	0.070683	-0.468012	0.950100
H229	H	-0.610110	-1.121476	0.226294
H230	H	-0.276776	-0.788142	0.559627
H231	H	0.056557	-0.454809	0.892960
O232	O	-1.079939	-1.157973	0.260479
O233	O	-0.746606	-0.824640	0.593812
O234	O	-0.413272	-0.491307	0.927145
H235	H	-1.137107	-1.147539	0.270950
H236	H	-0.803773	-0.814206	0.604284
H237	H	-0.470440	-0.480873	0.937617
H238	H	-0.605708	-0.950927	0.466919
H239	H	-0.272375	-0.617594	0.800252
H240	H	0.060958	-0.284261	1.133585
H241	H	-1.070275	-0.975071	0.443097
H242	H	-0.736942	-0.641737	0.776430
H243	H	-0.403608	-0.308404	1.109763
H244	H	-0.850437	-0.987169	0.430866
H245	H	-0.517103	-0.653836	0.764200
H246	H	-0.183770	-0.320503	1.097533
