data_functionalizedCrystal
_audit_creation_method	'MofGen! by Chris Wilmer'
_symmetry_space_group_name_H-M	'P1'
_symmetry_Int_Tables_number	1
_symmetry_cell_setting	triclinic
loop_
_symmetry_equiv_pos_as_xyz
  x,y,z
_cell_length_a	19.188930
_cell_length_b	11.792241
_cell_length_c	10.868271
_cell_angle_alpha	90.005281
_cell_angle_beta	90.018197
_cell_angle_gamma	83.669098
loop_
_atom_site_label
_atom_site_type_symbol
_atom_site_fract_x
_atom_site_fract_y
_atom_site_fract_z
O1	O	-0.926947	-0.141694	-0.102719
O2	O	-0.426947	0.358306	0.397281
O3	O	-0.723744	-0.160769	-0.102634
O4	O	-0.223744	0.339231	0.397366
O5	O	-0.830277	0.014013	-0.102670
O6	O	-0.330277	0.514013	0.397330
O7	O	-0.820414	-0.316476	-0.102683
O8	O	-0.320414	0.183524	0.397317
O9	O	-0.830268	0.014020	0.101975
O10	O	-0.330268	0.514020	0.601975
O11	O	-0.723735	-0.160762	0.102010
O12	O	-0.223735	0.339238	0.602010
O13	O	-0.926938	-0.141688	0.101926
O14	O	-0.426938	0.358312	0.601926
Zn15	Zn	-0.825335	-0.151224	0.134460
Zn16	Zn	-0.325335	0.348776	0.634460
Zn17	Zn	-0.825347	-0.151233	-0.135168
Zn18	Zn	-0.325347	0.348767	0.364832
O19	O	-0.820406	-0.316469	0.101962
O20	O	-0.320406	0.183531	0.601962
C21	C	-0.697725	-0.160148	-0.000301
C22	C	-0.197725	0.339852	0.499699
C23	C	-0.620210	-0.158293	-0.000269
C24	C	-0.120210	0.341707	0.499731
C25	C	-0.829653	0.056298	-0.000348
C26	C	-0.329653	0.556298	0.499652
C27	C	-0.827799	0.182284	-0.000348
C28	C	-0.327799	0.682284	0.499652
C29	C	-0.952957	-0.142309	-0.000410
C30	C	-0.452957	0.357691	0.499590
C31	C	-1.030472	-0.144163	-0.000450
C32	C	-0.530472	0.355837	0.499550
C33	C	-0.575867	-0.260849	-0.000292
C34	C	-0.075867	0.239151	0.499708
C35	C	-0.503033	-0.259107	-0.000306
C36	C	-0.003033	0.240893	0.499694
C37	C	-0.474546	-0.154803	-0.000320
C38	C	0.025454	0.345197	0.499680
C39	C	-0.518899	-0.052234	-0.000290
C40	C	-0.018899	0.447766	0.499710
C41	C	-0.591731	-0.053979	-0.000264
C42	C	-0.091731	0.446021	0.499736
N43	N	-0.366117	-0.075078	-0.070016
N44	N	0.133883	0.424922	0.429984
N45	N	-0.296929	-0.073428	-0.070043
N46	N	0.203071	0.426572	0.429957
C47	C	-0.255107	-0.149540	-0.000395
C48	C	0.244893	0.350460	0.499605
N49	N	-0.285086	-0.227382	0.069265
N50	N	0.214914	0.272618	0.569265
N51	N	-0.354280	-0.229036	0.069287
N52	N	0.145720	0.270964	0.569287
C53	C	-0.395573	-0.152900	-0.000348
C54	C	0.104427	0.347100	0.499652
C55	C	-0.131789	-0.250214	-0.000432
C56	C	0.368211	0.249786	0.499568
C57	C	-0.058955	-0.248468	-0.000438
C58	C	0.441045	0.251532	0.499562
C59	C	-0.074822	-0.041591	-0.000434
C60	C	0.425178	0.458409	0.499566
C61	C	-0.147655	-0.043341	-0.000416
C62	C	0.352345	0.456659	0.499584
C63	C	-0.176134	-0.147655	-0.000421
C64	C	0.323866	0.352345	0.499579
C65	C	-0.821029	-0.358754	-0.000363
C66	C	-0.321029	0.141246	0.499637
C67	C	-0.822884	-0.484740	-0.000371
C68	C	-0.322884	0.015260	0.499629
N69	N	-0.825332	-0.151217	0.318474
N70	N	-0.325332	0.348783	0.818474
C71	C	-0.824389	0.412945	-0.000367
C72	C	-0.324389	0.912945	0.499633
C73	C	-0.826283	0.284588	-0.000357
C74	C	-0.326283	0.784588	0.499643
N75	N	-0.825355	-0.151230	-0.319182
N76	N	-0.325355	0.348770	0.180818
C77	C	-0.825343	-0.151230	0.569480
C78	C	-0.325343	0.348770	1.069480
C79	C	-0.825335	-0.151226	0.429803
C80	C	-0.325335	0.348774	0.929803
H81	H	-0.466922	-0.342624	-0.000321
H82	H	0.033078	0.157376	0.499679
O83	O	-0.159379	-0.351609	-0.000584
O84	O	0.340621	0.148391	0.499416
C85	C	-0.168171	-0.528933	-0.106629
C86	C	0.331829	-0.028933	0.393371
C87	C	-0.136868	-0.414158	-0.106597
C88	C	0.363132	0.085842	0.393403
H89	H	-0.149996	-0.579527	-0.192344
H90	H	0.350004	-0.079527	0.307656
H91	H	-0.149899	-0.579670	-0.021045
H92	H	0.350101	-0.079670	0.478955
H93	H	-0.227843	-0.512533	-0.106555
H94	H	0.272157	-0.012533	0.393445
H95	H	-0.077196	-0.430455	-0.106714
H96	H	0.422804	0.069545	0.393286
H97	H	-0.155196	-0.363459	-0.192173
H98	H	0.344804	0.136541	0.307827
H99	H	-0.022850	-0.331985	-0.000450
H100	H	0.477150	0.168015	0.499550
O101	O	-0.603415	-0.362276	-0.000229
O102	O	-0.103415	0.137724	0.499771
C103	C	-0.579988	-0.567281	-0.000310
C104	C	-0.079988	-0.067281	0.499690
C105	C	-0.548695	-0.452497	-0.000358
C106	C	-0.048695	0.047503	0.499642
H107	H	-0.535762	-0.640254	-0.000441
H108	H	-0.035762	-0.140254	0.499559
H109	H	-0.613637	-0.573346	0.085368
H110	H	-0.113637	-0.073346	0.585368
H111	H	-0.613740	-0.573212	-0.085919
H112	H	-0.113740	-0.073212	0.414081
H113	H	-0.514911	-0.446488	0.085193
H114	H	-0.014911	0.053512	0.585193
H115	H	-0.515086	-0.446480	-0.086093
H116	H	-0.015086	0.053520	0.413907
H117	H	-0.627836	0.029537	-0.000246
H118	H	-0.127836	0.529537	0.499754
O119	O	-0.047042	0.059632	-0.000506
O120	O	0.452958	0.559632	0.499494
C121	C	0.058127	0.154006	-0.000470
C122	C	0.558127	0.654006	0.499530
C123	C	0.026757	0.039289	-0.000422
C124	C	0.526757	0.539289	0.499578
H125	H	0.117798	0.137598	-0.000377
H126	H	0.617798	0.637598	0.499623
H127	H	0.039922	0.204681	-0.086130
H128	H	0.539922	0.704681	0.413870
H129	H	0.039878	0.204674	0.085157
H130	H	0.539878	0.704674	0.585157
H131	H	0.044992	-0.011472	-0.085992
H132	H	0.544992	0.488528	0.414008
H133	H	0.044959	-0.011300	0.085294
H134	H	0.544959	0.488700	0.585294
H135	H	-0.183760	0.040172	-0.000404
H136	H	0.316240	0.540172	0.499596
H137	H	-0.495700	0.032691	-0.000319
H138	H	0.004300	0.532691	0.499681
