data_functionalizedCrystal
_audit_creation_method	'MofGen! by Chris Wilmer'
_symmetry_space_group_name_H-M	'P1'
_symmetry_Int_Tables_number	1
_symmetry_cell_setting	triclinic
loop_
_symmetry_equiv_pos_as_xyz
  x,y,z
_cell_length_a	19.288859
_cell_length_b	19.188930
_cell_length_c	18.266242
_cell_angle_alpha	89.989745
_cell_angle_beta	89.990190
_cell_angle_gamma	83.139253
loop_
_atom_site_label
_atom_site_type_symbol
_atom_site_fract_x
_atom_site_fract_y
_atom_site_fract_z
O1	O	0.921362	0.087077	-0.060904
O2	O	1.421362	0.587077	0.439096
O3	O	0.719102	0.098831	-0.060903
O4	O	1.219102	0.598831	0.439097
O5	O	0.826069	-0.008702	-0.060889
O6	O	1.326069	0.491298	0.439111
O7	O	0.814395	0.194611	-0.060917
O8	O	1.314395	0.694611	0.439083
O9	O	0.826050	-0.008705	0.060873
O10	O	1.326050	0.491295	0.560873
O11	O	0.719083	0.098828	0.060859
O12	O	1.219083	0.598828	0.560859
O13	O	0.921344	0.087074	0.060858
O14	O	1.421344	0.587074	0.560858
Zn15	Zn	0.820211	0.092951	0.080191
Zn16	Zn	1.320211	0.592951	0.580191
Zn17	Zn	0.820235	0.092955	-0.080236
Zn18	Zn	1.320235	0.592955	0.419764
O19	O	0.814377	0.194608	0.060844
O20	O	1.314377	0.694608	0.560844
C21	C	0.693216	0.098453	-0.000022
C22	C	1.193216	0.598453	0.499978
C23	C	0.616112	0.097319	-0.000021
C24	C	1.116112	0.597319	0.499979
C25	C	0.052076	0.152749	-0.000030
C26	C	0.552076	0.652749	0.499970
C27	C	0.124522	0.153820	-0.000034
C28	C	0.624522	0.653820	0.499966
C29	C	0.169224	0.090725	-0.000023
C30	C	0.669224	0.590725	0.499977
C31	C	0.141474	0.026553	-0.000028
C32	C	0.641474	0.526553	0.499972
C33	C	0.069029	0.025484	-0.000031
C34	C	0.569029	0.525484	0.499969
C35	C	0.290485	0.043667	0.042645
C36	C	0.790485	0.543667	0.542645
C37	C	0.362928	0.044739	0.042652
C38	C	0.862928	0.544739	0.542652
C39	C	0.392670	0.094019	-0.000016
C40	C	0.892670	0.594019	0.499984
C41	C	0.349958	0.142240	-0.042684
C42	C	0.849958	0.642240	0.457316
C43	C	0.277513	0.141171	-0.042687
C44	C	0.777513	0.641171	0.457313
C45	C	0.247780	0.091877	-0.000020
C46	C	0.747780	0.591877	0.499980
C47	C	0.498967	0.159347	-0.000021
C48	C	0.998967	0.659347	0.499979
C49	C	0.571415	0.160416	-0.000030
C50	C	1.071415	0.660416	0.499970
C51	C	0.588366	0.033147	-0.000017
C52	C	1.088366	0.533147	0.499983
C53	C	0.515919	0.032081	-0.000016
C54	C	1.015919	0.532081	0.499984
C55	C	0.471223	0.095183	-0.000014
C56	C	0.971223	0.595183	0.499986
C57	C	0.825681	-0.034714	-0.000006
C58	C	1.325681	0.465286	0.499994
C59	C	0.824547	-0.112219	0.000000
C60	C	1.324547	0.387781	0.500000
C61	C	0.887311	-0.157149	0.000004
C62	C	1.387311	0.342851	0.500004
C63	C	0.886245	-0.229972	-0.000008
C64	C	1.386245	0.270028	0.499992
C65	C	0.822411	-0.257863	-0.000008
C66	C	1.322411	0.242137	0.499992
C67	C	0.759638	-0.212923	-0.000016
C68	C	1.259638	0.287077	0.499984
C69	C	0.760706	-0.140101	-0.000011
C70	C	1.260706	0.359899	0.499989
N71	N	0.773611	-0.365864	0.041430
N72	N	1.273611	0.134136	0.541430
N73	N	0.772601	-0.435042	0.041427
N74	N	1.272601	0.064958	0.541427
C75	C	0.819189	-0.477271	-0.000023
C76	C	1.319189	0.022729	0.499977
N77	N	0.866837	-0.447709	-0.041461
N78	N	1.366837	0.052291	0.458539
N79	N	0.867849	-0.378525	-0.041456
N80	N	1.367849	0.121475	0.458544
C81	C	0.821246	-0.336825	-0.000014
C82	C	1.321246	0.163175	0.499986
C83	C	0.880803	-0.601165	-0.000034
C84	C	1.380803	-0.101165	0.499966
C85	C	0.879734	-0.673990	-0.000050
C86	C	1.379734	-0.173990	0.499950
C87	C	0.753125	-0.656939	-0.000050
C88	C	1.253125	-0.156939	0.499950
C89	C	0.754195	-0.584116	-0.000041
C90	C	1.254195	-0.084116	0.499959
C91	C	0.818036	-0.556234	-0.000029
C92	C	1.318036	-0.056234	0.499971
C93	C	0.947229	0.087453	-0.000024
C94	C	1.447229	0.587453	0.499976
C95	C	1.024333	0.088587	-0.000030
C96	C	1.524333	0.588587	0.499970
C97	C	0.814764	0.220620	-0.000040
C98	C	1.314764	0.720620	0.499960
C99	C	0.815899	0.298125	-0.000051
C100	C	1.315899	0.798125	0.499949
N101	N	0.820199	0.092948	0.189678
N102	N	1.320199	0.592948	0.689678
N103	N	0.820251	0.092953	-0.189722
N104	N	1.320251	0.592953	0.310278
C105	C	0.862190	0.135189	0.227974
C106	C	1.362190	0.635189	0.727974
C107	C	0.862202	0.135187	0.304619
C108	C	1.362202	0.635187	0.804619
C109	C	0.820210	0.092952	0.342965
C110	C	1.320210	0.592952	0.842965
C111	C	0.778216	0.050702	0.304659
C112	C	1.278216	0.550702	0.804659
C113	C	0.778211	0.050700	0.228016
C114	C	1.278211	0.550700	0.728016
N115	N	0.759378	0.091238	0.463318
N116	N	1.259378	0.591238	0.963318
N117	N	0.759384	0.091244	0.536126
N118	N	1.259384	0.591244	1.036126
C119	C	0.820223	0.092955	0.573887
C120	C	1.320223	0.592955	1.073887
N121	N	0.881056	0.094673	0.536090
N122	N	1.381056	0.594673	1.036090
N123	N	0.881048	0.094671	0.463275
N124	N	1.381048	0.594671	0.963275
C125	C	0.820211	0.092949	0.426072
C126	C	1.320211	0.592949	0.926072
C127	C	0.862230	0.135196	0.695291
C128	C	1.362230	0.635196	1.195291
C129	C	0.862243	0.135189	0.771937
C130	C	1.362243	0.635189	1.271937
C131	C	0.778251	0.050708	0.771976
C132	C	1.278251	0.550708	1.271976
C133	C	0.778244	0.050711	0.695331
C134	C	1.278244	0.550711	1.195331
C135	C	0.820233	0.092959	0.656993
C136	C	1.320233	0.592959	1.156993
H137	H	0.624762	-0.018227	-0.000014
H138	H	1.124762	0.481773	0.499986
O139	O	0.382023	0.195400	-0.088708
O140	O	0.882023	0.695400	0.411292
H141	H	0.369080	0.187996	-0.147182
H142	H	0.869080	0.687996	0.352818
H143	H	0.896442	0.169585	0.803117
H144	H	1.396442	0.669585	1.303117
O145	O	0.949658	-0.571090	-0.000035
O146	O	1.449658	-0.071090	0.499965
H147	H	0.953173	-0.538337	0.049599
H148	H	1.453173	-0.038337	0.549599
O149	O	0.684273	-0.687012	-0.000052
O150	O	1.184273	-0.187012	0.499948
H151	H	0.654115	-0.668953	0.049575
H152	H	1.154115	-0.168953	0.549575
O153	O	0.956165	-0.127073	-0.000004
O154	O	1.456165	0.372927	0.499996
H155	H	0.999630	-0.170556	-0.000014
H156	H	1.499630	0.329444	0.499986
H157	H	0.896384	0.169588	0.196764
H158	H	1.396384	0.669588	0.696764
O159	O	0.907487	0.180755	0.345939
O160	O	1.407487	0.680755	0.845939
H161	H	0.936679	0.210135	0.306404
H162	H	1.436679	0.710135	0.806404
H163	H	0.594000	0.212667	-0.000036
H164	H	1.094000	0.712667	0.499964
O165	O	0.732983	0.005130	0.813328
O166	O	1.232983	0.505130	1.313328
H167	H	0.703791	-0.024254	0.773817
H168	H	1.203791	0.475746	1.273817
O169	O	0.907516	0.180759	0.653933
O170	O	1.407516	0.680759	1.153933
H171	H	0.944940	0.147192	0.619002
H172	H	1.444940	0.647192	1.119002
O173	O	0.686494	-0.535655	-0.000031
O174	O	1.186494	-0.035655	0.499969
H175	H	0.683953	-0.502062	-0.049659
H176	H	1.183953	-0.002062	0.450341
H177	H	0.266276	0.003534	0.077392
H178	H	0.766276	0.503534	0.577392
O179	O	0.732944	0.005160	0.654018
O180	O	1.232944	0.505160	1.154018
H181	H	0.703740	-0.024205	0.693556
H182	H	1.203740	0.475795	1.193556
O183	O	0.450751	0.227402	-0.000032
O184	O	0.950751	0.727402	0.499968
H185	H	0.482217	0.272201	-0.000046
H186	H	0.982217	0.772201	0.499954
H187	H	0.744026	0.016313	0.335885
H188	H	1.244026	0.516313	0.835885
H189	H	0.709593	-0.103518	-0.000014
H190	H	1.209593	0.396482	0.499986
H191	H	0.744015	0.016301	0.196835
H192	H	1.244015	0.516301	0.696835
H193	H	0.493332	-0.020168	-0.000012
H194	H	0.993332	0.479832	0.499988
O195	O	0.003868	0.220807	-0.000031
O196	O	0.503868	0.720807	0.499969
H197	H	0.013715	0.251528	-0.049663
H198	H	0.513715	0.751528	0.450337
H199	H	0.147114	0.206071	-0.000026
H200	H	0.647114	0.706071	0.499974
H201	H	0.937357	-0.266561	-0.000008
H202	H	1.437357	0.233439	0.499992
H203	H	0.397699	0.005478	0.077398
H204	H	0.897699	0.505478	0.577398
O205	O	0.231445	0.193178	-0.088701
O206	O	0.731445	0.693178	0.411299
H207	H	0.246313	0.186180	-0.147178
H208	H	0.746313	0.686180	0.352822
O209	O	0.189683	-0.041502	-0.000009
O210	O	0.689683	0.458498	0.499991
H211	H	0.244720	-0.029980	0.000003
H212	H	0.744720	0.470020	0.500003
H213	H	0.930847	-0.710572	-0.000051
H214	H	1.430847	-0.210572	0.499949
O215	O	0.690788	-0.243002	-0.000006
O216	O	1.190788	0.256998	0.499994
H217	H	0.687281	-0.275770	-0.049631
H218	H	1.187281	0.224230	0.450369
O219	O	0.039100	-0.043722	-0.000020
O220	O	0.539100	0.456278	0.499980
H221	H	0.082352	-0.087419	-0.000008
H222	H	0.582352	0.412581	0.499992
