data_functionalizedCrystal
_audit_creation_method	'MofGen! by Chris Wilmer'
_symmetry_space_group_name_H-M	'P1'
_symmetry_Int_Tables_number	1
_symmetry_cell_setting	triclinic
loop_
_symmetry_equiv_pos_as_xyz
  x,y,z
_cell_length_a	16.109302
_cell_length_b	27.731996
_cell_length_c	14.586319
_cell_angle_alpha	89.990257
_cell_angle_beta	89.994552
_cell_angle_gamma	83.041584
loop_
_atom_site_label
_atom_site_type_symbol
_atom_site_fract_x
_atom_site_fract_y
_atom_site_fract_z
O1	O	1.102341	0.062133	-0.076294
O2	O	0.860181	0.069865	-0.076288
O3	O	0.988805	-0.004368	-0.076271
O4	O	0.973718	0.136366	-0.076311
O5	O	0.988796	-0.004369	0.076210
O6	O	0.860172	0.069864	0.076193
O7	O	1.102332	0.062132	0.076187
Cu8	Cu	0.981251	0.065998	0.090113
Cu9	Cu	0.981262	0.065999	-0.090214
O10	O	0.973709	0.136365	0.076170
C11	C	0.829206	0.069551	-0.000047
C12	C	0.736922	0.068612	-0.000044
C13	C	0.524604	0.066440	0.083065
C14	C	0.437895	0.065552	0.083062
C15	C	0.437916	0.065556	-0.083181
C16	C	0.524624	0.066440	-0.083177
C17	C	0.567965	0.066885	-0.000051
C18	C	0.394548	0.065113	-0.000058
C19	C	0.300535	0.064150	-0.000062
C20	C	0.661985	0.067846	-0.000047
C21	C	0.988490	-0.022377	-0.000028
C22	C	0.987557	-0.076037	-0.000018
C23	C	0.981688	-0.408777	-0.083180
C24	C	0.978144	-0.610451	-0.083196
O25	O	0.977654	-0.636523	-0.153885
N26	N	0.977698	-0.635670	-0.000080
C27	C	0.978134	-0.610468	0.083047
O28	O	0.977666	-0.636546	0.153742
C29	C	0.981673	-0.408795	0.083062
C30	C	0.982127	-0.383579	-0.000060
C31	C	0.982141	-0.383561	-0.166295
C32	C	0.983032	-0.333146	-0.166291
C33	C	0.983470	-0.307948	-0.083171
C34	C	0.983017	-0.333164	-0.000055
C35	C	0.982103	-0.383594	0.166187
C36	C	0.982985	-0.333172	0.166184
C37	C	0.983439	-0.307956	0.083062
C38	C	0.984346	-0.257551	0.083070
N39	N	0.984791	-0.232331	-0.000047
C40	C	0.984353	-0.257530	-0.083167
C41	C	0.976278	-0.716349	0.083033
C42	C	0.975395	-0.766767	0.083029
C43	C	0.975403	-0.766746	-0.083214
C44	C	0.976292	-0.716328	-0.083209
C45	C	0.976723	-0.691130	-0.000084
C46	C	0.986224	-0.151655	-0.083151
C47	C	0.987119	-0.101236	-0.083138
C48	C	0.987106	-0.101261	0.083104
C49	C	0.986216	-0.151676	0.083093
C50	C	0.985773	-0.176871	-0.000042
O51	O	0.984827	-0.231447	0.153721
O52	O	0.984803	-0.231442	-0.153852
C53	C	0.980798	-0.459192	-0.083185
C54	C	0.980345	-0.484409	-0.000070
C55	C	0.980783	-0.459210	0.083050
C56	C	0.979462	-0.534827	-0.000073
C57	C	0.979024	-0.560025	-0.083193
C58	C	0.979469	-0.534806	-0.166310
C59	C	0.980360	-0.484391	-0.166305
C60	C	0.980338	-0.484430	0.166167
C61	C	0.979448	-0.534845	0.166155
C62	C	0.979010	-0.560043	0.083035
C63	C	1.133308	0.062446	-0.000056
C64	C	1.225591	0.063385	-0.000065
C65	C	0.974023	0.154374	-0.000075
C66	C	0.974957	0.208034	-0.000091
N67	N	0.981250	0.065997	0.216944
N68	N	0.981270	0.065997	-0.217045
C69	C	1.038223	0.033137	0.451958
C70	C	1.038226	0.033136	0.547940
C71	C	0.924291	0.098858	0.547934
C72	C	0.924285	0.098856	0.451955
C73	C	0.981256	0.065997	0.403969
C74	C	0.981264	0.065997	0.595930
C75	C	0.981266	0.065996	0.699997
C76	C	0.981253	0.065997	0.299895
H77	H	0.987490	-0.080707	-0.150829
O78	O	0.868866	0.130712	0.405289
C79	C	0.817931	0.104815	0.349772
H80	H	0.817027	0.066695	0.378715
H81	H	0.751591	0.124527	0.348680
H82	H	0.843984	0.102282	0.277029
H83	H	1.084612	0.006379	0.587010
O84	O	0.566692	0.066780	0.163833
C85	C	0.555449	0.024728	0.214412
H86	H	0.538586	-0.004755	0.165779
H87	H	0.615813	0.011263	0.252120
H88	H	0.502858	0.033671	0.266236
O89	O	0.395943	0.065112	-0.164007
C90	C	0.452808	0.065707	-0.237367
H91	H	0.518257	0.051038	-0.212996
H92	H	0.433347	0.042005	-0.295502
H93	H	0.452804	0.104559	-0.262923
O94	O	0.869038	0.130760	0.594691
C95	C	0.881245	0.123710	0.689696
H96	H	0.947580	0.105653	0.702800
H97	H	0.871517	0.160316	0.726159
H98	H	0.834510	0.099459	0.716954
H99	H	0.402595	0.065190	0.150744
H100	H	0.983324	-0.312657	0.233876
O101	O	0.566825	0.066939	-0.163863
C102	C	0.606997	0.109295	-0.168851
H103	H	0.616651	0.123374	-0.096685
H104	H	0.670218	0.100507	-0.204021
H105	H	0.566607	0.138252	-0.209879
H106	H	0.983398	-0.312619	-0.233977
O107	O	0.985818	-0.176052	-0.163988
C108	C	0.986378	-0.142974	-0.237337
H109	H	1.013356	-0.109050	-0.212961
H110	H	1.026489	-0.160609	-0.295487
H111	H	0.919746	-0.132514	-0.262876
O112	O	0.985747	-0.176097	0.163917
C113	C	0.986352	-0.143044	0.237281
H114	H	0.960663	-0.105094	0.212914
H115	H	0.945709	-0.154536	0.295414
H116	H	1.053170	-0.142775	0.262839
H117	H	0.981781	-0.404072	-0.233985
H118	H	0.975047	-0.787271	-0.150894
O119	O	0.976688	-0.691906	-0.164035
C120	C	0.976136	-0.724966	-0.237393
H121	H	0.949177	-0.758902	-0.213020
H122	H	0.936015	-0.707321	-0.295529
H123	H	1.042770	-0.735410	-0.262950
H124	H	1.084611	0.006381	0.412891
H125	H	0.975038	-0.787295	0.150716
O126	O	0.976595	-0.691922	0.163847
C127	C	0.904339	-0.698753	0.214409
H128	H	0.879677	-0.733523	0.190761
H129	H	0.920515	-0.701731	0.290446
H130	H	0.854399	-0.666530	0.202910
O131	O	0.981621	-0.408003	0.247015
C132	C	0.982211	-0.374942	0.320367
H133	H	0.956520	-0.336995	0.295984
H134	H	0.941563	-0.386429	0.378500
H135	H	1.049026	-0.374667	0.345934
H136	H	0.987467	-0.080735	0.150779
H137	H	0.980728	-0.463864	-0.233992
O138	O	0.978890	-0.559302	-0.247027
C139	C	0.906351	-0.582982	-0.251967
H140	H	0.856276	-0.563947	-0.204799
H141	H	0.882159	-0.581713	-0.325478
H142	H	0.921960	-0.622433	-0.229620
O143	O	0.978973	-0.559260	0.246988
C144	C	0.979570	-0.526203	0.320346
H145	H	0.953882	-0.488254	0.295970
H146	H	0.938923	-0.537692	0.378478
H147	H	1.046387	-0.525931	0.345910
H148	H	0.980696	-0.463919	0.233854
