data_functionalizedCrystal
_audit_creation_method	'MofGen! by Chris Wilmer'
_symmetry_space_group_name_H-M	'P1'
_symmetry_Int_Tables_number	1
_symmetry_cell_setting	triclinic
loop_
_symmetry_equiv_pos_as_xyz
  x,y,z
_cell_length_a	27.440280
_cell_length_b	14.446369
_cell_length_c	14.446369
_cell_angle_alpha	60.000221
_cell_angle_beta	90.004718
_cell_angle_gamma	60.005490
loop_
_atom_site_label
_atom_site_type_symbol
_atom_site_fract_x
_atom_site_fract_y
_atom_site_fract_z
Zr1	Zr	-0.063935	1.013146	0.891803
O2	O	-0.141748	1.206249	0.743997
O3	O	-0.040081	0.820036	0.937108
O4	O	-0.141744	1.013126	0.937112
O5	O	0.040108	1.013177	0.743996
O6	O	-0.141741	1.013118	1.089449
O7	O	-0.040085	1.013159	0.743994
O8	O	0.040116	0.667714	1.089443
O9	O	-0.141749	1.358580	0.744002
O10	O	-0.029905	0.899461	1.070123
O11	O	0.029940	0.899480	0.956438
O12	O	-0.089756	1.126819	0.956442
O13	O	-0.029910	1.126839	0.842756
Zr14	Zr	0.063969	1.013161	1.134766
Zr15	Zr	-0.063930	1.013132	1.134763
Zr16	Zr	0.063964	1.013174	0.891806
Zr17	Zr	-0.063936	1.256096	0.891811
Zr18	Zr	0.063969	0.770211	1.134758
O19	O	0.040115	1.206271	1.089460
O20	O	-0.141742	1.206230	1.089455
O21	O	0.040108	1.206290	0.744002
O22	O	0.141782	0.820057	1.282571
O23	O	-0.040074	0.820017	1.282566
O24	O	0.141775	0.820076	0.937113
O25	O	-0.040075	1.013130	1.282573
O26	O	0.141778	1.013181	1.089457
O27	O	0.141775	1.013189	0.937120
O28	O	0.040119	1.013147	1.282575
O29	O	-0.141745	1.358570	0.937123
O30	O	0.141779	0.667737	1.089445
O31	O	0.141783	0.667726	1.282566
O32	O	0.040120	0.667704	1.282563
O33	O	-0.040086	1.358603	0.744005
O34	O	-0.040082	1.358592	0.937126
O35	O	0.089789	0.899487	1.070127
O36	O	0.029944	0.899468	1.183813
O37	O	-0.029906	1.126826	1.070131
O38	O	0.029939	1.126846	0.956445
C39	C	0.000018	0.709260	1.013274
C40	C	0.000018	0.606121	1.013271
C41	C	0.037767	0.566845	0.941564
C42	C	0.037968	0.459210	0.941893
C43	C	0.027352	0.371403	1.136860
C44	C	0.027639	0.478649	1.136451
C45	C	-0.065090	0.653830	0.962417
C46	C	-0.064993	0.547656	0.959937
C47	C	-0.159965	1.013118	1.013280
C48	C	-0.214262	1.013106	1.013278
C49	C	-0.582237	1.131854	0.953954
C50	C	-0.633260	1.131861	0.953957
O51	O	-0.686217	1.232793	0.903525
N52	N	-0.627536	1.013183	1.013295
C53	C	-0.570785	0.894491	1.072644
O54	O	-0.570602	0.793547	1.123117
C55	C	-0.519764	0.894485	1.072647
C56	C	-0.525493	1.013170	1.013295
C57	C	-0.587963	1.250529	0.894608
C58	C	-0.536945	1.250521	0.894603
C59	C	-0.480200	1.131838	0.953944
C60	C	-0.474474	1.013163	1.013290
C61	C	-0.463015	0.775794	1.132001
C62	C	-0.411993	0.775798	1.131999
C63	C	-0.417721	0.894484	1.072648
C64	C	-0.366710	0.894472	1.072626
N65	N	-0.372434	1.013149	1.013288
C66	C	-0.429179	1.131832	0.953947
C67	C	-0.677935	0.894512	1.072635
C68	C	-0.728955	0.894517	1.072627
C69	C	-0.791426	1.131887	0.953941
C70	C	-0.740405	1.131881	0.953944
C71	C	-0.683659	1.013190	1.013297
C72	C	-0.322033	1.131807	0.953941
C73	C	-0.271007	1.131789	0.953937
C74	C	-0.208540	0.894419	1.072627
C75	C	-0.259562	0.894437	1.072626
C76	C	-0.316310	1.013141	1.013281
O77	O	-0.313734	0.793591	1.123037
O78	O	-0.429352	1.232759	0.903495
C79	C	0.159999	1.013189	1.013289
C80	C	0.214296	1.013201	1.013290
C81	C	0.000011	1.013170	0.709378
C82	C	0.000009	1.013176	0.606235
C83	C	0.000016	1.317047	1.013294
C84	C	0.000016	1.420185	1.013298
C85	C	-0.037548	1.156556	0.387870
C86	C	-0.037759	1.156652	0.495102
C87	C	-0.027523	0.941940	0.602909
C88	C	-0.027799	0.942850	0.495140
C89	C	0.065146	0.939918	0.496506
C90	C	0.065044	0.942620	0.602475
C91	C	0.000023	1.013137	1.317190
C92	C	0.000025	1.013131	1.420333
C93	C	0.000024	0.709243	1.317180
C94	C	0.000026	0.606099	1.420320
C95	C	0.160000	0.709295	1.013279
C96	C	0.214297	0.606169	1.013277
C97	C	0.160006	0.709279	1.317185
C98	C	0.214305	0.606146	1.420326
C99	C	-0.159972	1.317028	0.709384
C100	C	-0.214271	1.420160	0.606243
C101	C	0.000010	1.317063	0.709388
C102	C	0.000008	1.420208	0.606249
C103	C	-0.159966	1.317011	1.013290
C104	C	-0.214263	1.420138	1.013292
C105	C	0.271042	0.557743	1.072620
C106	C	0.322064	0.460858	1.072614
C107	C	0.316341	0.412394	1.013270
C108	C	0.259590	0.460830	0.953920
C109	C	0.208569	0.557719	0.953920
C110	C	0.208566	0.557704	1.528115
C111	C	0.259580	0.460814	1.625036
C112	C	0.316334	0.412361	1.614166
C113	C	0.322072	0.460813	1.506365
C114	C	0.271058	0.557708	1.409446
C115	C	-0.208532	1.468614	0.498454
C116	C	-0.259546	1.565534	0.401533
C117	C	-0.316300	1.613992	0.412403
C118	C	-0.322038	1.565534	0.520203
C119	C	-0.271024	1.468622	0.617122
C120	C	-0.208521	1.468571	1.072647
C121	C	-0.259533	1.565457	1.072671
C122	C	-0.316288	1.613914	1.013333
C123	C	-0.322029	1.565471	0.953975
C124	C	-0.271017	1.468580	0.953959
C125	C	0.037579	0.459787	1.638685
C126	C	0.037793	0.566712	1.531457
C127	C	0.027558	0.479250	1.423645
C128	C	0.027830	0.371871	1.531410
C129	C	-0.065115	0.546823	1.530040
C130	C	-0.065010	0.655298	1.424075
H131	H	0.075543	0.437842	1.177134
H132	H	0.162367	0.597135	0.905599
H133	H	-0.002202	0.837621	0.521791
H134	H	-0.254847	1.604889	1.121005
H135	H	-0.368246	1.604939	0.905663
H136	H	-0.085577	0.745779	1.424598
H137	H	0.254939	0.421356	0.905603
H138	H	0.002230	0.341913	1.504755
H139	H	-0.368234	1.228468	0.905617
H140	H	-0.275701	1.429157	0.905620
H141	H	0.357868	0.333463	1.693092
H142	H	-0.001474	0.836446	0.681174
H143	H	0.254897	0.421374	1.712803
H144	H	0.275739	0.597137	1.321683
H145	H	-0.162325	1.429165	0.489581
H146	H	-0.275704	1.429172	0.704886
H147	H	0.368287	0.421348	1.497531
H148	H	0.001907	0.500891	1.192812
H149	H	0.019547	0.655554	0.850347
H150	H	-0.254863	1.604972	0.313766
H151	H	-0.357834	1.692904	0.333476
H152	H	-0.541616	1.347167	0.846278
H153	H	-0.085798	1.212870	0.492656
H154	H	0.085327	0.370129	1.693669
H155	H	-0.368252	1.605001	0.529041
H156	H	-0.162313	1.429132	1.120968
H157	H	0.085832	0.529256	1.533914
H158	H	-0.357821	1.692808	1.013355
H159	H	-0.019174	1.212852	0.333916
H160	H	-0.019435	1.212827	0.493345
H161	H	0.162359	0.597140	1.536987
H162	H	0.075750	0.281126	1.581756
H163	H	-0.075719	0.993459	0.444796
H164	H	0.074792	0.278971	1.177840
H165	H	0.019328	0.656055	1.533073
H166	H	0.019205	0.497020	1.692643
H167	H	0.368268	0.421434	1.120949
H168	H	0.001510	0.501494	1.345377
H169	H	0.075024	0.440703	1.421512
H170	H	-0.088115	0.586386	1.580059
H171	H	-0.458338	0.679148	1.180333
H172	H	0.088146	0.985816	0.446484
H173	H	-0.074989	0.991404	0.605044
H174	H	0.095394	0.837946	0.681631
H175	H	-0.095359	0.687420	1.344916
H176	H	-0.093241	0.522030	1.502590
H177	H	0.019649	0.495751	0.850918
H178	H	-0.254896	0.797794	1.120939
H179	H	0.085510	0.530985	0.976531
H180	H	0.001165	0.342888	1.192637
H181	H	-0.275678	1.228441	0.905601
H182	H	0.085995	0.370271	0.977199
H183	H	-0.087945	0.747414	0.872774
H184	H	0.085612	0.994560	0.601959
H185	H	-0.085416	0.587106	0.868902
H186	H	-0.095442	0.526464	1.006840
H187	H	-0.093345	0.680087	1.014388
H188	H	0.093274	0.834264	0.523942
H189	H	-0.724283	0.797871	1.120942
H190	H	-0.634165	1.347181	0.846286
H191	H	0.275713	0.597192	1.120945
H192	H	-0.745075	1.228525	0.905614
H193	H	-0.837639	1.228526	0.905621
H194	H	-0.365788	0.679143	1.180334
H195	H	-0.162330	0.797790	1.120938
H196	H	-0.631730	0.797853	1.120962
H197	H	0.357890	0.333501	1.013279
H198	H	-0.085297	1.212564	0.332886
