data_functionalizedCrystal
_audit_creation_method	'MofGen! by Chris Wilmer'
_symmetry_space_group_name_H-M	'P1'
_symmetry_Int_Tables_number	1
_symmetry_cell_setting	triclinic
loop_
_symmetry_equiv_pos_as_xyz
  x,y,z
_cell_length_a	13.262390
_cell_length_b	14.853567
_cell_length_c	11.804917
_cell_angle_alpha	101.848183
_cell_angle_beta	93.592271
_cell_angle_gamma	84.050546
loop_
_atom_site_label
_atom_site_type_symbol
_atom_site_fract_x
_atom_site_fract_y
_atom_site_fract_z
O1	O	1.282853	0.215561	0.514469
O2	O	0.997075	0.211831	0.421919
O3	O	1.147597	0.082941	0.470669
O4	O	1.132331	0.344451	0.465718
O5	O	1.187193	0.049050	0.285456
O6	O	1.036671	0.177941	0.236705
O7	O	1.322449	0.181670	0.329255
Cu8	Cu	1.183176	0.176711	0.266069
Cu9	Cu	1.136349	0.216790	0.485105
O10	O	1.171928	0.310560	0.280505
C11	C	0.980300	0.191979	0.317468
C12	C	0.871324	0.183306	0.282176
C13	C	0.477809	0.232744	0.586552
C14	C	0.580197	0.240889	0.619712
C15	C	0.652984	0.226494	0.535331
C16	C	0.623372	0.203953	0.417784
C17	C	0.520975	0.195800	0.384621
C18	C	0.696150	0.189550	0.333400
C19	C	0.666539	0.167009	0.215853
C20	C	0.564151	0.158859	0.182696
C21	C	0.491364	0.173253	0.267077
C22	C	0.798547	0.197703	0.366563
C23	C	0.841714	0.160759	0.164632
C24	C	0.739325	0.152614	0.131472
C25	C	1.166703	0.032365	0.377842
C26	C	1.164628	-0.067846	0.377180
C27	C	1.066456	-0.486482	0.345364
C28	C	1.245280	-0.496655	0.403277
C29	C	1.247227	-0.402499	0.403915
C30	C	1.158788	-0.350331	0.375275
C31	C	1.068401	-0.392318	0.345998
C32	C	1.337615	-0.360507	0.433180
C33	C	1.339567	-0.266346	0.433818
C34	C	1.251125	-0.214174	0.405186
C35	C	1.160734	-0.256166	0.375909
C36	C	1.072295	-0.203998	0.347269
C37	C	0.981901	-0.245987	0.317999
C38	C	0.979959	-0.340146	0.317366
C39	C	1.253067	-0.120015	0.405820
C40	C	1.074241	-0.109833	0.347903
C41	C	1.339224	0.201523	0.433709
C42	C	1.448198	0.210197	0.469008
C43	C	1.152821	0.361137	0.373335
C44	C	1.154895	0.461349	0.374004
N45	N	1.216119	0.148521	0.112013
C46	C	1.024277	0.312690	-0.324157
C47	C	0.999333	0.334025	-0.207585
C48	C	1.053528	0.287651	-0.127680
C49	C	1.132670	0.219938	-0.164358
C50	C	1.157612	0.198595	-0.280942
C51	C	1.186862	0.173557	-0.084466
C52	C	1.266004	0.105843	-0.121143
C53	C	1.290942	0.084505	-0.237717
C54	C	1.236747	0.130879	-0.317622
C55	C	1.161921	0.194899	0.032119
C56	C	1.295255	0.080805	0.075333
C57	C	1.320199	0.059470	-0.041238
N58	N	1.103413	0.244973	0.639164
H59	H	0.604299	0.259237	0.715419
H60	H	0.418540	0.244453	0.655242
H61	H	0.909896	-0.203500	0.294673
H62	H	1.257059	0.113511	-0.412544
H63	H	0.906366	-0.374342	0.293535
H64	H	1.413170	-0.232166	0.457653
H65	H	1.355377	0.029362	-0.267581
O66	O	1.397013	-0.006313	-0.077078
C67	C	1.494560	-0.089707	-0.237515
C68	C	1.407531	-0.015205	-0.197087
H69	H	1.503106	-0.096906	-0.334541
H70	H	1.476793	-0.158580	-0.218847
H71	H	1.568266	-0.068741	-0.189055
H72	H	1.333790	-0.036084	-0.245522
H73	H	1.425386	0.053649	-0.215733
O74	O	1.340788	-0.079091	0.434171
C75	C	1.423026	0.061468	0.460882
C76	C	1.323613	0.015235	0.428723
H77	H	1.409169	0.137742	0.456512
H78	H	1.483321	0.026331	0.397506
H79	H	1.450173	0.054565	0.552527
H80	H	1.296375	0.022125	0.337105
H81	H	1.263382	0.050382	0.492174
H82	H	1.097483	0.250031	0.061971
O83	O	0.535552	0.136990	0.068461
C84	C	0.589184	0.101154	-0.128324
C85	C	0.621705	0.125936	0.001003
H86	H	0.658822	0.092190	-0.182900
H87	H	0.533467	0.158906	-0.151846
H88	H	0.551183	0.033948	-0.145964
H89	H	0.659749	0.193117	0.018736
H90	H	0.677375	0.068128	0.024459
H91	H	0.822646	0.216058	0.462271
H92	H	1.033215	0.305025	-0.032763
O93	O	0.710696	0.130587	0.017260
C94	C	0.727218	0.019132	-0.161891
C95	C	0.759745	0.043973	-0.032571
H96	H	0.766843	-0.050905	-0.202213
H97	H	0.749135	0.074059	-0.208114
H98	H	0.641527	0.015830	-0.171064
H99	H	0.845432	0.047264	-0.023292
H100	H	0.737753	-0.010961	0.013591
H101	H	0.934896	0.389155	-0.177727
O102	O	0.912517	0.146676	0.082765
C103	C	1.064158	0.057043	0.006544
C104	C	0.984049	0.072909	0.099329
H105	H	1.121999	-0.002609	0.019888
H106	H	1.104351	0.122385	0.014145
H107	H	1.025379	0.039570	-0.083153
H108	H	1.022749	0.090356	0.189067
H109	H	0.943861	0.007553	0.091626
O110	O	0.988247	-0.059303	0.320005
C111	C	0.810653	-0.059135	0.262575
C112	C	0.907971	-0.116473	0.294118
H113	H	0.745720	-0.105329	0.241661
H114	H	0.823596	-0.029005	0.183868
H115	H	0.790585	-0.000597	0.338934
H116	H	0.928093	-0.175054	0.217832
H117	H	0.894978	-0.146534	0.372863
O118	O	0.971491	0.357635	-0.401772
C119	C	0.808508	0.393059	-0.492692
C120	C	0.868177	0.342096	-0.404774
H121	H	0.724964	0.380529	-0.495131
H122	H	0.839846	0.366159	-0.582352
H123	H	0.816535	0.470280	-0.465619
H124	H	0.860174	0.264867	-0.431739
H125	H	0.836824	0.369071	-0.315136
O126	O	1.347836	0.035545	0.152784
C127	C	1.397538	-0.111134	0.206740
C128	C	1.337929	-0.059950	0.119001
H129	H	1.389566	-0.188353	0.179446
H130	H	1.366177	-0.084398	0.296418
H131	H	1.481069	-0.098543	0.209273
H132	H	1.254389	-0.072519	0.116366
H133	H	1.369373	-0.086694	0.029367
H134	H	0.736352	0.233128	0.562337
H135	H	0.992858	-0.520673	0.321538
O136	O	1.331115	-0.547333	0.431281
C137	C	1.412161	-0.642051	0.560077
C138	C	1.314890	-0.584665	0.528504
H139	H	1.399070	-0.672266	0.638669
H140	H	1.477121	-0.595898	0.581197
H141	H	1.432285	-0.700532	0.483673
H142	H	1.294673	-0.526181	0.604863
H143	H	1.249989	-0.630881	0.507341
O144	O	1.423419	-0.411308	0.461010
C145	C	1.499682	-0.560893	0.485623
C146	C	1.402426	-0.503459	0.454109
H147	H	1.482748	-0.635413	0.480030
H148	H	1.527604	-0.530777	0.577557
H149	H	1.560719	-0.559016	0.422525
H150	H	1.341322	-0.505314	0.517128
H151	H	1.374590	-0.533593	0.362147
H152	H	0.407989	0.166626	0.240083
