data_functionalizedCrystal
_audit_creation_method	'MofGen! by Chris Wilmer'
_symmetry_space_group_name_H-M	'P1'
_symmetry_Int_Tables_number	1
_symmetry_cell_setting	triclinic
loop_
_symmetry_equiv_pos_as_xyz
  x,y,z
_cell_length_a	16.120530
_cell_length_b	16.625546
_cell_length_c	16.625527
_cell_angle_alpha	90.087861
_cell_angle_beta	87.040224
_cell_angle_gamma	92.882099
loop_
_atom_site_label
_atom_site_type_symbol
_atom_site_fract_x
_atom_site_fract_y
_atom_site_fract_z
Zn1	Zn	1.274930	0.383088	-0.518345
Zn2	Zn	1.524930	0.633088	-0.268345
Zn3	Zn	1.774930	0.883088	-0.018345
Zn4	Zn	2.024930	1.133088	0.231655
Zn5	Zn	1.274734	0.518057	-0.383498
Zn6	Zn	1.524734	0.768057	-0.133498
Zn7	Zn	1.774734	1.018057	0.116502
Zn8	Zn	2.024734	1.268057	0.366502
Zn9	Zn	1.135410	0.376407	-0.376692
Zn10	Zn	1.385410	0.626407	-0.126692
Zn11	Zn	1.635410	0.876407	0.123308
Zn12	Zn	1.885410	1.126407	0.373308
Zn13	Zn	1.135475	0.511041	-0.511467
Zn14	Zn	1.385475	0.761041	-0.261467
Zn15	Zn	1.635475	1.011041	-0.011467
Zn16	Zn	1.885475	1.261041	0.238533
O17	O	1.205137	0.447148	-0.447501
O18	O	1.455137	0.697148	-0.197501
O19	O	1.705137	0.947148	0.052499
O20	O	1.955137	1.197148	0.302499
O21	O	1.391574	0.406724	-0.506185
O22	O	1.641574	0.656724	-0.256185
O23	O	1.891574	0.906724	-0.006185
O24	O	2.141574	1.156724	0.243815
O25	O	1.256143	0.499407	-0.269757
O26	O	1.506143	0.749407	-0.019757
O27	O	1.756143	0.999407	0.230243
O28	O	2.006143	1.249407	0.480243
O29	O	1.153972	0.264463	-0.395513
O30	O	1.403972	0.514463	-0.145513
O31	O	1.653972	0.764463	0.104487
O32	O	1.903972	1.014463	0.354487
O33	O	1.391430	0.505885	-0.407113
O34	O	1.641430	0.755885	-0.157113
O35	O	1.891430	1.005885	0.092887
O36	O	2.141430	1.255885	0.342887
O37	O	1.256477	0.269372	-0.499585
O38	O	1.506477	0.519372	-0.249585
O39	O	1.756477	0.769372	0.000415
O40	O	2.006477	1.019372	0.250415
O41	O	1.153782	0.395337	-0.264757
O42	O	1.403782	0.645337	-0.014757
O43	O	1.653782	0.895337	0.235243
O44	O	1.903782	1.145337	0.485243
O45	O	1.018748	0.388534	-0.388843
O46	O	1.268748	0.638534	-0.138843
O47	O	1.518748	0.888534	0.111157
O48	O	1.768748	1.138534	0.361157
O49	O	1.154083	0.493928	-0.625218
O50	O	1.404083	0.743928	-0.375218
O51	O	1.654083	0.993928	-0.125218
O52	O	1.904083	1.243928	0.124782
O53	O	1.018796	0.487449	-0.487862
O54	O	1.268796	0.737449	-0.237862
O55	O	1.518796	0.987449	0.012138
O56	O	1.768796	1.237449	0.262138
O57	O	1.256540	0.399921	-0.630271
O58	O	1.506540	0.649921	-0.380271
O59	O	1.756540	0.899921	-0.130271
O60	O	2.006540	1.149921	0.119729
O61	O	1.256206	0.629956	-0.400443
O62	O	1.506206	0.879956	-0.150443
O63	O	1.756206	1.129956	0.099557
O64	O	2.006206	1.379956	0.349557
O65	O	1.153893	0.624801	-0.494461
O66	O	1.403893	0.874801	-0.244461
O67	O	1.653893	1.124801	0.005539
O68	O	1.903893	1.374801	0.255539
C69	C	1.205058	0.656635	-0.447463
C70	C	1.455058	0.906635	-0.197463
C71	C	1.705058	1.156635	0.052537
C72	C	1.955058	1.406635	0.302537
C73	C	1.205101	0.746258	-0.447478
C74	C	1.455101	0.996258	-0.197478
C75	C	1.705101	1.246258	0.052522
C76	C	1.955101	1.496258	0.302522
C77	C	0.988521	0.436506	-0.436868
C78	C	1.238521	0.686506	-0.186868
C79	C	1.488521	0.936506	0.063132
C80	C	1.738521	1.186506	0.313132
C81	C	0.895852	0.431973	-0.432339
C82	C	1.145852	0.681973	-0.182339
C83	C	1.395852	0.931973	0.067661
C84	C	1.645852	1.181973	0.317661
C85	C	1.205341	0.446887	-0.657820
C86	C	1.455341	0.696887	-0.407820
C87	C	1.705341	0.946887	-0.157820
C88	C	1.955341	1.196887	0.092180
C89	C	1.205427	0.446776	-0.747446
C90	C	1.455427	0.696776	-0.497446
C91	C	1.705427	0.946776	-0.247446
C92	C	1.955427	1.196776	0.002554
C93	C	0.726184	0.423677	-0.424076
C94	C	0.976184	0.673677	-0.174076
C95	C	1.226184	0.923677	0.075924
C96	C	1.476184	1.173677	0.325924
C97	C	0.684931	0.470678	-0.470984
C98	C	0.934931	0.720678	-0.220984
C99	C	1.184931	0.970678	0.029016
C100	C	1.434931	1.220678	0.279016
C101	C	0.590522	0.466063	-0.466387
C102	C	0.840522	0.716063	-0.216387
C103	C	1.090522	0.966063	0.033613
C104	C	1.340522	1.216063	0.283613
C105	C	0.820601	0.428292	-0.428672
C106	C	1.070601	0.678292	-0.178672
C107	C	1.320601	0.928292	0.071328
C108	C	1.570601	1.178292	0.321328
C109	C	1.422599	0.457832	-0.458175
C110	C	1.672599	0.707832	-0.208175
C111	C	1.922599	0.957832	0.041825
C112	C	2.172599	1.207832	0.291825
C113	C	1.515268	0.462385	-0.462724
C114	C	1.765268	0.712385	-0.212724
C115	C	2.015268	0.962385	0.037276
C116	C	2.265268	1.212385	0.287276
C117	C	1.205239	0.236844	-0.447557
C118	C	1.455239	0.486844	-0.197557
C119	C	1.705239	0.736844	0.052443
C120	C	1.955239	0.986844	0.302443
C121	C	1.205282	0.147225	-0.447581
C122	C	1.455282	0.397225	-0.197581
C123	C	1.705282	0.647225	0.052419
C124	C	1.955282	0.897225	0.302419
C125	C	1.205246	1.074441	-0.447569
C126	C	1.455246	1.324441	-0.197569
C127	C	1.705246	1.574441	0.052431
C128	C	1.955246	1.824441	0.302431
C129	C	1.205203	0.983130	-0.447545
C130	C	1.455203	1.233130	-0.197545
C131	C	1.705203	1.483130	0.052455
C132	C	1.955203	1.733130	0.302455
C133	C	1.205173	0.910353	-0.447523
C134	C	1.455173	1.160353	-0.197523
C135	C	1.705173	1.410353	0.052477
C136	C	1.955173	1.660353	0.302477
C137	C	1.205131	0.819036	-0.447500
C138	C	1.455131	1.069036	-0.197500
C139	C	1.705131	1.319036	0.052500
C140	C	1.955131	1.569036	0.302500
C141	C	1.204982	0.447352	-0.238002
C142	C	1.454982	0.697352	0.011998
C143	C	1.704982	0.947352	0.261998
C144	C	1.954982	1.197352	0.511998
C145	C	1.205057	0.447244	-0.148385
C146	C	1.455057	0.697244	0.101615
C147	C	1.705057	0.947244	0.351615
C148	C	1.955057	1.197244	0.601615
C149	C	1.205367	0.446864	0.179775
C150	C	1.455367	0.696864	0.429775
C151	C	1.705367	0.946864	0.679775
C152	C	1.955367	1.196864	0.929775
C153	C	1.205283	0.446973	0.088471
C154	C	1.455283	0.696973	0.338471
C155	C	1.705283	0.946973	0.588471
C156	C	1.955283	1.196973	0.838471
C157	C	1.205212	0.447055	0.015698
C158	C	1.455212	0.697055	0.265698
C159	C	1.705212	0.947055	0.515698
C160	C	1.955212	1.197055	0.765698
C161	C	1.205129	0.447162	-0.075612
C162	C	1.455129	0.697162	0.174388
C163	C	1.705129	0.947162	0.424388
C164	C	1.955129	1.197162	0.674388
H165	H	0.690601	0.379976	-0.380466
H166	H	0.940601	0.629976	-0.130466
H167	H	1.190601	0.879976	0.119534
H168	H	1.440601	1.129976	0.369534
O169	O	0.732057	0.528577	-0.528755
O170	O	0.982057	0.778577	-0.278755
O171	O	1.232057	1.028577	-0.028755
O172	O	1.482057	1.278577	0.221245
H173	H	0.799889	0.523168	-0.523342
H174	H	1.049889	0.773168	-0.273342
H175	H	1.299889	1.023168	-0.023342
H176	H	1.549889	1.273168	0.226658
