data_functionalizedCrystal
_audit_creation_method	'MofGen! by Chris Wilmer'
_symmetry_space_group_name_H-M	'P1'
_symmetry_Int_Tables_number	1
_symmetry_cell_setting	triclinic
loop_
_symmetry_equiv_pos_as_xyz
  x,y,z
_cell_length_a	15.298068
_cell_length_b	13.897448
_cell_length_c	15.296720
_cell_angle_alpha	80.351680
_cell_angle_beta	88.354818
_cell_angle_gamma	80.320155
loop_
_atom_site_label
_atom_site_type_symbol
_atom_site_fract_x
_atom_site_fract_y
_atom_site_fract_z
Zn1	Zn	1.253389	0.286950	-0.727378
Zn2	Zn	1.753389	0.786950	-0.227378
Zn3	Zn	1.278656	0.416497	-0.580916
Zn4	Zn	1.778656	0.916497	-0.080916
Zn5	Zn	1.132268	0.277577	-0.555545
Zn6	Zn	1.632268	0.777577	-0.055545
Zn7	Zn	1.106887	0.470573	-0.701942
Zn8	Zn	1.606887	0.970573	-0.201942
O9	O	1.192800	0.362899	-0.641445
O10	O	1.692800	0.862899	-0.141445
O11	O	1.379316	0.285426	-0.729213
O12	O	1.879316	0.785426	-0.229213
O13	O	1.280434	0.371516	-0.454987
O14	O	1.780434	0.871516	0.045013
O15	O	1.148383	0.143835	-0.578366
O16	O	1.648383	0.643835	-0.078366
O17	O	1.397879	0.380604	-0.621608
O18	O	1.897879	0.880604	-0.121608
O19	O	1.237370	0.150721	-0.704612
O20	O	1.737370	0.650721	-0.204612
O21	O	1.172884	0.269452	-0.436347
O22	O	1.672884	0.769452	0.063653
O23	O	1.006326	0.321887	-0.553701
O24	O	1.506326	0.821887	-0.053701
O25	O	1.105124	0.472768	-0.827879
O26	O	1.605124	0.972768	-0.327879
O27	O	0.987679	0.463680	-0.661259
O28	O	1.487679	0.963680	-0.161259
O29	O	1.212759	0.337861	-0.846567
O30	O	1.712759	0.837861	-0.346567
O31	O	1.255822	0.558656	-0.596943
O32	O	1.755822	1.058656	-0.096943
O33	O	1.129624	0.598385	-0.685860
O34	O	1.629624	1.098385	-0.185860
C35	C	0.965220	0.397635	-0.601967
C36	C	1.465220	0.897635	-0.101967
C37	C	0.867857	0.412523	-0.585099
C38	C	1.367857	0.912523	-0.085099
C39	C	0.554687	0.256736	-0.762005
C40	C	1.054687	0.756736	-0.262005
C41	C	0.646164	0.242752	-0.777859
C42	C	1.146164	0.742752	-0.277859
C43	C	0.701591	0.285193	-0.729670
C44	C	1.201591	0.785193	-0.229670
C45	C	0.665534	0.341622	-0.665626
C46	C	1.165534	0.841622	-0.165626
C47	C	0.574047	0.355613	-0.649776
C48	C	1.074047	0.855613	-0.149776
C49	C	0.720951	0.384070	-0.617440
C50	C	1.220951	0.884070	-0.117440
C51	C	0.684893	0.440499	-0.553396
C52	C	1.184893	0.940499	-0.053396
C53	C	0.593416	0.454487	-0.537549
C54	C	1.093416	0.954487	-0.037549
C55	C	0.537988	0.412046	-0.585737
C56	C	1.037988	0.912046	-0.085737
C57	C	0.812438	0.370079	-0.633290
C58	C	1.312438	0.870079	-0.133290
C59	C	0.831798	0.468956	-0.521061
C60	C	1.331798	0.968956	-0.021061
C61	C	0.740321	0.482940	-0.505208
C62	C	1.240321	0.982940	-0.005208
C63	C	1.192731	0.613521	-0.641418
C64	C	1.692731	1.113521	-0.141418
C65	C	1.192777	0.720733	-0.641449
C66	C	1.692777	1.220733	-0.141449
C67	C	1.192852	0.917028	-0.641527
C68	C	1.692852	1.417028	-0.141527
C69	C	1.192807	0.807796	-0.641486
C70	C	1.692807	1.307796	-0.141486
C71	C	1.421268	0.328029	-0.681078
C72	C	1.921268	0.828029	-0.181078
C73	C	1.518628	0.313169	-0.697967
C74	C	2.018628	0.813169	-0.197967
C75	C	1.153292	0.412392	-0.869891
C76	C	1.653292	0.912392	-0.369891
C77	C	1.136456	0.433483	-0.967241
C78	C	1.636456	0.933483	-0.467241
C79	C	1.192880	1.111303	-0.641505
C80	C	1.692880	1.611303	-0.141505
C81	C	1.192891	1.004096	-0.641554
C82	C	1.692891	1.504096	-0.141554
C83	C	1.313163	0.211985	-1.280575
C84	C	1.813163	0.711985	-0.780575
C85	C	1.328987	0.192170	-1.189111
C86	C	1.828987	0.692170	-0.689111
C87	C	1.280855	0.252496	-1.133639
C88	C	1.780855	0.752496	-0.633639
C89	C	1.216897	0.332642	-1.169640
C90	C	1.716897	0.832642	-0.669640
C91	C	1.201077	0.352464	-1.261114
C92	C	1.701077	0.852464	-0.761114
C93	C	1.168769	0.392975	-1.114178
C94	C	1.668769	0.892975	-0.614178
C95	C	1.104811	0.473120	-1.150179
C96	C	1.604811	0.973120	-0.650179
C97	C	1.088993	0.492938	-1.241644
C98	C	1.588993	0.992938	-0.741644
C99	C	1.137125	0.432611	-1.297116
C100	C	1.637125	0.932611	-0.797116
C101	C	1.184590	0.373153	-1.022704
C102	C	1.684590	0.873153	-0.522704
C103	C	1.072504	0.513631	-1.003243
C104	C	1.572504	1.013631	-0.503243
C105	C	1.056680	0.533446	-1.094707
C106	C	1.556680	1.033446	-0.594707
C107	C	1.232205	0.313522	-0.413897
C108	C	1.732205	0.813522	0.086103
C109	C	1.249211	0.292133	-0.316577
C110	C	1.749211	0.792133	0.183423
H111	H	0.463498	0.423437	-0.572839
H112	H	0.963498	0.923437	-0.072839
H113	H	0.509550	0.222193	-0.801238
H114	H	1.009550	0.722193	-0.301238
H115	H	1.004604	0.598701	-1.124032
H116	H	1.504604	1.098701	-0.624032
H117	H	0.564059	0.500444	-0.485406
H118	H	1.064059	1.000444	0.014594
H119	H	0.876927	0.503520	-0.481826
H120	H	1.376927	1.003520	0.018174
H121	H	1.236664	0.307897	-0.993401
H122	H	1.736664	0.807897	-0.493401
H123	H	1.036922	0.558204	-1.270954
H124	H	1.536922	1.058204	-0.770954
H125	H	1.293743	0.236358	-1.059165
H126	H	1.793743	0.736358	-0.559165
H127	H	1.124244	0.448741	-1.371595
H128	H	1.624244	0.948741	-0.871595
H129	H	0.710949	0.528885	-0.453063
H130	H	1.210949	1.028885	0.046937
H131	H	1.381063	0.126918	-1.159806
H132	H	1.881063	0.626918	-0.659806
H133	H	1.352349	0.162881	-1.325748
H134	H	1.852349	0.662881	-0.825748
H135	H	1.033312	0.562755	-0.958078
H136	H	1.533312	1.062755	-0.458078
H137	H	0.776076	0.273800	-0.742579
H138	H	1.276076	0.773800	-0.242579
H139	H	0.675515	0.196812	-0.830006
H140	H	1.175515	0.696812	-0.330006
H141	H	0.841787	0.324133	-0.685435
H142	H	1.341787	0.824133	-0.185435
