data_functionalizedCrystal
_audit_creation_method	'MofGen! by Chris Wilmer'
_symmetry_space_group_name_H-M	'P1'
_symmetry_Int_Tables_number	1
_symmetry_cell_setting	triclinic
loop_
_symmetry_equiv_pos_as_xyz
  x,y,z
_cell_length_a	6.817900
_cell_length_b	11.102244
_cell_length_c	15.301140
_cell_angle_alpha	93.594077
_cell_angle_beta	104.177739
_cell_angle_gamma	108.604870
loop_
_atom_site_label
_atom_site_type_symbol
_atom_site_fract_x
_atom_site_fract_y
_atom_site_fract_z
V1	V	-4.060638	-0.176699	-0.281143
O2	O	-4.020645	0.007606	-0.275793
O3	O	-4.037757	-0.349512	-0.279217
O4	O	-4.015225	-0.174369	-0.403760
O5	O	-4.043333	-0.168750	-0.150389
V6	V	-4.540572	-0.154608	-0.265504
O7	O	-4.329768	-0.225157	-0.315448
O8	O	-4.721638	-0.106150	-0.231198
O9	O	-4.340246	0.018206	-0.267429
O10	O	-4.697961	-0.338912	-0.270853
O11	O	-4.675273	-0.162557	-0.396257
O12	O	-4.362777	-0.156937	-0.142887
C13	C	-3.888869	-0.391629	-0.274782
C14	C	-3.951468	-0.532909	-0.274025
C15	C	-3.860126	-0.168214	-0.433647
C16	C	-3.904449	-0.167453	-0.533887
C17	C	-4.108452	-0.173459	-0.585573
C18	C	-4.150086	-0.172742	-0.679759
C19	C	-3.987718	-0.166030	-0.722258
C20	C	-3.783696	-0.160020	-0.670564
C21	C	-3.742061	-0.160727	-0.576379
C22	C	-3.870492	-0.158550	-0.866876
C23	C	-3.912130	-0.157846	-0.961068
C24	C	-4.278517	-0.170566	-0.970256
C25	C	-4.236882	-0.171273	-0.876071
C26	C	-4.032863	-0.165265	-0.824384
C27	C	-3.935651	-0.580890	-0.191098
C28	C	-3.994483	-0.713640	-0.190398
C29	C	-4.084938	-0.750417	-0.355558
C30	C	-4.026122	-0.617670	-0.356258
C31	C	-3.883419	-0.559657	-0.095744
C32	C	-3.942250	-0.692407	-0.095043
C33	C	-4.152476	0.060315	-0.271862
C34	C	-4.069116	0.201594	-0.272625
C35	C	-4.181219	-0.163096	-0.112995
C36	C	-4.116134	-0.163851	-0.012754
H37	H	-4.240681	-0.178933	-0.550979
C38	C	-4.374495	-0.179334	-0.736609
N39	N	-4.543526	-0.184293	-0.779427
H40	H	-4.444639	-0.175459	-1.012345
H41	H	-4.145727	-0.819445	-0.422509
H42	H	-4.369103	-0.176747	-0.841473
H43	H	-3.703861	-0.506755	-0.062811
H44	H	-3.575927	-0.155805	-0.534293
C45	C	-4.043530	-0.564897	-0.447484
N46	N	-4.056637	-0.525149	-0.516199
H47	H	-3.988046	-0.520461	-0.062772
C48	C	-4.141038	-0.746074	-0.059582
N49	N	-4.290766	-0.786498	-0.032875
H50	H	-3.797514	-0.715303	-0.054794
H51	H	-3.779909	-0.152372	-0.995666
H52	H	-3.704338	-0.153612	-0.824789
H53	H	-3.651492	-0.154547	-0.705173
