data_functionalizedCrystal
_audit_creation_method	'MofGen! by Chris Wilmer'
_symmetry_space_group_name_H-M	'P1'
_symmetry_Int_Tables_number	1
_symmetry_cell_setting	triclinic
loop_
_symmetry_equiv_pos_as_xyz
  x,y,z
_cell_length_a	27.731994
_cell_length_b	26.809956
_cell_length_c	14.971486
_cell_angle_alpha	89.980527
_cell_angle_beta	96.882669
_cell_angle_gamma	90.014414
loop_
_atom_site_label
_atom_site_type_symbol
_atom_site_fract_x
_atom_site_fract_y
_atom_site_fract_z
O1	O	0.641445	0.041409	-0.106213
O2	O	0.500722	0.041425	-0.122446
O3	O	0.574855	0.041413	0.015932
O4	O	0.567312	0.041421	-0.244590
O5	O	0.574828	-0.041546	0.015969
O6	O	0.500696	-0.041534	-0.122409
O7	O	0.641418	-0.041550	-0.106176
Zn8	Zn	0.571052	-0.054714	-0.114286
Zn9	Zn	0.571088	0.054589	-0.114335
O10	O	0.567285	-0.041538	-0.244553
C11	C	0.482700	-0.000052	-0.122094
C12	C	0.429039	-0.000046	-0.121091
N13	N	0.571032	-0.129310	-0.114252
C14	C	0.096277	-0.045286	-0.114750
C15	C	-0.105399	-0.045292	-0.110935
O16	O	-0.131486	-0.083751	-0.110386
N17	N	-0.130601	-0.000071	-0.110482
C18	C	-0.105381	0.045155	-0.110976
O19	O	-0.131445	0.083618	-0.110494
C20	C	0.096294	0.045160	-0.114784
C21	C	0.121493	-0.000064	-0.115247
C22	C	0.121476	-0.090507	-0.115211
C23	C	0.171892	-0.090505	-0.116170
C24	C	0.197108	-0.045283	-0.116667
C25	C	0.171909	-0.000062	-0.116205
C26	C	0.121513	0.090385	-0.115272
C27	C	0.171936	0.090382	-0.116222
C28	C	0.197135	0.045158	-0.116685
C29	C	0.247540	0.045162	-0.117661
N30	N	0.272743	-0.000059	-0.118114
C31	C	0.247527	-0.045281	-0.117617
C32	C	-0.211264	0.045149	-0.108979
C33	C	-0.261683	0.045147	-0.108028
C34	C	-0.261697	-0.045299	-0.107985
C35	C	-0.211277	-0.045298	-0.108942
C36	C	-0.186061	-0.000072	-0.109432
C37	C	0.353403	-0.045274	-0.119631
C38	C	0.403823	-0.045268	-0.120594
C39	C	0.403833	0.045179	-0.120631
C40	C	0.353417	0.045173	-0.119674
C41	C	0.328204	-0.000057	-0.119171
O42	O	0.273660	0.083600	-0.118201
O43	O	0.273600	-0.083739	-0.118080
C44	C	0.045861	-0.045288	-0.113791
C45	C	0.020662	-0.000068	-0.113330
C46	C	0.045878	0.045154	-0.113827
C47	C	-0.029757	-0.000069	-0.112379
C48	C	-0.054973	-0.045291	-0.111882
C49	C	-0.029771	-0.090512	-0.112336
C50	C	0.020645	-0.090510	-0.113294
C51	C	0.020676	0.090375	-0.113374
C52	C	-0.029740	0.090370	-0.112416
C53	C	-0.054956	0.045147	-0.111919
C54	C	0.541733	-0.526201	-0.060428
C55	C	0.541710	-0.317323	-0.060403
O56	O	0.516766	-0.290329	-0.014564
N57	N	0.571052	-0.291188	-0.114266
C58	C	0.600403	-0.317276	-0.168134
O59	O	0.625363	-0.290254	-0.213940
C60	C	0.600429	-0.526153	-0.168153
C61	C	0.571081	-0.552285	-0.114294
C62	C	0.512388	-0.552333	-0.006572
C63	C	0.512392	-0.604550	-0.006582
C64	C	0.541741	-0.630633	-0.060448
C65	C	0.571085	-0.604501	-0.114304
C66	C	0.629783	-0.552239	-0.222016
C67	C	0.629787	-0.604462	-0.222014
C68	C	0.600440	-0.630594	-0.168155
C69	C	0.600438	-0.682801	-0.168181
N70	N	0.571096	-0.708936	-0.114318
C71	C	0.541748	-0.682852	-0.060452
C72	C	0.600387	-0.207613	-0.168122
C73	C	0.600381	-0.155394	-0.168118
C74	C	0.541688	-0.155445	-0.060386
C75	C	0.541692	-0.207664	-0.060395
C76	C	0.571046	-0.233748	-0.114259
C77	C	0.541758	-0.792510	-0.060478
C78	C	0.541763	-0.844731	-0.060496
C79	C	0.600458	-0.844676	-0.168225
C80	C	0.600451	-0.792459	-0.168211
C81	C	0.571100	-0.766378	-0.114330
O82	O	0.625373	-0.709828	-0.213988
O83	O	0.516800	-0.709884	-0.014638
C84	C	0.541729	-0.473985	-0.060417
C85	C	0.571073	-0.447852	-0.114273
C86	C	0.600422	-0.473936	-0.168139
C87	C	0.571066	-0.395633	-0.114270
C88	C	0.541718	-0.369549	-0.060404
C89	C	0.512376	-0.395684	-0.006541
C90	C	0.512380	-0.447901	-0.006551
C91	C	0.629763	-0.447801	-0.222002
C92	C	0.629757	-0.395585	-0.221988
C93	C	0.600408	-0.369501	-0.168122
C94	C	0.659440	-0.000072	-0.106527
C95	C	0.713101	-0.000075	-0.107531
C96	C	0.574504	-0.000066	0.049269
C97	C	0.573493	-0.000066	0.148550
N98	N	0.571112	0.129185	-0.114362
C99	C	0.567636	-0.000058	-0.277891
C100	C	0.568647	-0.000055	-0.377172
C101	C	0.617045	-0.000071	0.206479
C102	C	0.616092	-0.000066	0.299763
C103	C	0.571587	-0.000059	0.335117
C104	C	0.528033	-0.000052	0.277180
C105	C	0.528986	-0.000054	0.183898
C106	C	0.526049	-0.000050	0.471610
C107	C	0.525096	-0.000049	0.564899
C108	C	0.613155	-0.000062	0.587476
C109	C	0.614108	-0.000064	0.494194
C110	C	0.570553	-0.000058	0.436264
H111	H	0.332880	-0.082105	-0.119230
H112	H	0.041158	-0.127337	-0.113671
H113	H	0.101005	0.127211	-0.114895
O114	O	0.655420	-0.000041	0.643871
C115	C	0.645038	-0.000046	0.733786
H116	H	0.607073	0.015665	0.736813
H117	H	0.672802	0.024039	0.776430
H118	H	0.646842	-0.039844	0.760823
O119	O	0.483696	-0.000065	0.415463
C120	C	0.444210	-0.000047	0.466667
H121	H	0.456432	-0.015754	0.536481
H122	H	0.413684	-0.024129	0.431830
H123	H	0.430584	0.039755	0.473093
H124	H	0.488489	-0.531101	0.037297
H125	H	0.624341	-0.771181	-0.212080
H126	H	0.488856	-0.000052	0.593680
O127	O	0.628953	-0.870096	-0.220464
C128	C	0.622653	-0.921789	-0.208931
H129	H	0.608832	-0.928936	-0.141368
H130	H	0.658883	-0.941624	-0.210699
H131	H	0.595151	-0.936605	-0.265397
H132	H	0.653285	-0.000080	0.177703
O133	O	0.658292	-0.370147	-0.274187
C134	C	0.691249	-0.339955	-0.219204
H135	H	0.676167	-0.332151	-0.153035
H136	H	0.696655	-0.303225	-0.255085
H137	H	0.727574	-0.360073	-0.205032
H138	H	0.488497	-0.625822	0.037279
O139	O	0.658220	-0.526843	-0.274442
C140	C	0.628787	-0.496625	-0.335858
H141	H	0.590330	-0.512367	-0.345969
H142	H	0.644274	-0.496023	-0.403031
H143	H	0.627958	-0.457053	-0.308238
H144	H	0.650347	-0.000073	0.465413
H145	H	0.491797	-0.000043	0.305972
O146	O	0.486636	-0.000070	0.127749
C147	C	0.447150	-0.000051	0.178953
H148	H	0.459372	-0.015760	0.248766
H149	H	0.416623	-0.024130	0.144115
H150	H	0.433527	0.039751	0.185383
O151	O	0.513243	-0.233025	-0.007937
C152	C	0.526574	-0.220265	0.083026
H153	H	0.565546	-0.205899	0.092186
H154	H	0.523735	-0.254615	0.126998
H155	H	0.501220	-0.189967	0.103450
O156	O	0.428229	-0.089245	-0.120998
C157	C	0.395156	-0.129158	-0.120373
H158	H	0.361206	-0.115900	-0.091369
H159	H	0.412762	-0.160788	-0.077193
H160	H	0.384755	-0.143061	-0.192049
H161	H	0.517789	-0.134198	-0.016528
O162	O	-0.054248	0.134291	-0.112127
C163	C	-0.088858	0.137003	-0.189053
H164	H	-0.077474	0.111344	-0.243501
H165	H	-0.091242	0.177002	-0.215064
H166	H	-0.125843	0.124856	-0.170798
O167	O	0.196296	-0.134480	-0.116569
C168	C	0.163218	-0.174389	-0.115945
H169	H	0.129268	-0.161126	-0.086947
H170	H	0.180819	-0.206020	-0.072761
H171	H	0.152818	-0.188293	-0.187621
O172	O	0.628929	-0.130089	-0.220469
C173	C	0.654824	-0.164316	-0.268024
H174	H	0.657624	-0.201545	-0.230958
H175	H	0.692834	-0.149216	-0.273072
H176	H	0.634952	-0.169863	-0.338497
O177	O	0.658285	-0.473058	-0.274418
C178	C	0.684188	-0.438787	-0.321932
H179	H	0.664176	-0.401571	-0.327395
H180	H	0.687224	-0.453850	-0.392237
H181	H	0.722107	-0.433229	-0.284588
O182	O	0.096923	-0.134407	-0.114846
C183	C	0.062335	-0.137121	-0.191801
H184	H	0.052971	-0.097857	-0.217510
H185	H	0.028102	-0.156269	-0.173697
H186	H	0.077962	-0.159431	-0.246423
H187	H	-0.190764	-0.082123	-0.109320
H188	H	0.651555	-0.000072	0.346926
O189	O	0.628832	-0.233002	-0.220504
C190	C	0.599400	-0.263196	-0.281946
H191	H	0.563523	-0.271046	-0.254582
H192	H	0.618844	-0.299904	-0.291664
H193	H	0.592033	-0.243057	-0.349275
O194	O	0.658315	-0.629721	-0.274424
C195	C	0.684223	-0.595454	-0.321936
H196	H	0.664211	-0.558237	-0.327413
H197	H	0.687266	-0.610520	-0.392235
H198	H	0.722140	-0.589894	-0.284582
H199	H	0.488483	-0.469173	0.037307
O200	O	0.483838	-0.370287	0.045657
C201	C	0.450879	-0.340090	-0.009319
H202	H	0.465958	-0.332250	-0.075489
H203	H	0.445474	-0.303378	0.026566
H204	H	0.414554	-0.360222	-0.023490
O205	O	-0.286205	-0.089217	-0.107333
C206	C	-0.309943	-0.091909	-0.029294
H207	H	-0.290943	-0.066243	0.024559
H208	H	-0.308701	-0.131903	-0.003237
H209	H	-0.349380	-0.079757	-0.046098
H210	H	-0.282197	0.081973	-0.107666
H211	H	0.192464	0.127211	-0.116621
O212	O	-0.186851	0.089128	-0.109498
C213	C	-0.219911	0.129035	-0.108873
H214	H	-0.257837	0.115771	-0.136516
H215	H	-0.208389	0.160668	-0.152605
H216	H	-0.220240	0.142938	-0.036994
O217	O	0.329012	0.089147	-0.119203
C218	C	0.362080	0.129061	-0.119881
H219	H	0.400005	0.115804	-0.092228
H220	H	0.350567	0.160691	-0.076183
H221	H	0.362409	0.142964	-0.191776
H222	H	0.424372	0.081997	-0.121040
H223	H	-0.050311	-0.127334	-0.111936
O224	O	0.045089	0.134351	-0.113898
C225	C	0.012030	0.174259	-0.113267
H226	H	-0.025898	0.160994	-0.140903
H227	H	0.023550	0.205890	-0.157004
H228	H	0.011704	0.188162	-0.041389
O229	O	0.513243	-0.870039	-0.008090
C230	C	0.487331	-0.835816	0.039441
H231	H	0.507335	-0.798587	0.044929
H232	H	0.484294	-0.850922	0.109735
H233	H	0.449411	-0.830266	0.002094
O234	O	0.513216	-0.767125	-0.008273
C235	C	0.480253	-0.736930	-0.063246
H236	H	0.495335	-0.729078	-0.129408
H237	H	0.474836	-0.700224	-0.027349
H238	H	0.443933	-0.757071	-0.077432
