data_functionalizedCrystal
_audit_creation_method	'MofGen! by Chris Wilmer'
_symmetry_space_group_name_H-M	'P1'
_symmetry_Int_Tables_number	1
_symmetry_cell_setting	triclinic
loop_
_symmetry_equiv_pos_as_xyz
  x,y,z
_cell_length_a	15.625950
_cell_length_b	14.971486
_cell_length_c	13.448316
_cell_angle_alpha	89.993189
_cell_angle_beta	108.066650
_cell_angle_gamma	83.945110
loop_
_atom_site_label
_atom_site_type_symbol
_atom_site_fract_x
_atom_site_fract_y
_atom_site_fract_z
O1	O	1.196180	0.116846	0.348495
O2	O	0.933755	0.130743	0.253897
O3	O	1.072001	-0.006404	0.303739
O4	O	1.057934	0.253993	0.298653
O5	O	1.071984	-0.006413	0.469116
O6	O	0.933737	0.130734	0.419274
O7	O	1.196163	0.116837	0.513873
Cu8	Cu	1.064949	0.123785	0.481674
Cu9	Cu	1.064969	0.123795	0.286096
O10	O	1.057916	0.253984	0.464031
C11	C	1.071363	-0.039733	0.386200
C12	C	1.069478	-0.139031	0.385520
C13	C	0.900162	0.130106	0.324479
C14	C	0.800093	0.128212	0.288406
C15	C	1.150694	-0.196237	0.414797
C16	C	1.148917	-0.289537	0.414147
C17	C	1.065924	-0.325629	0.384226
C18	C	0.984701	-0.268415	0.354943
C19	C	0.986479	-0.175117	0.355587
C20	C	0.981002	-0.462879	0.353606
C21	C	0.979223	-0.556183	0.352964
C22	C	1.143440	-0.577298	0.412166
C23	C	1.145218	-0.484000	0.412809
C24	C	1.063995	-0.426793	0.383528
C25	C	0.470836	0.122008	0.620382
C26	C	0.376803	0.120246	0.586440
C27	C	0.376869	0.120256	0.406169
C28	C	0.470903	0.122023	0.440096
C29	C	0.517879	0.122898	0.547204
C30	C	0.517946	0.122912	0.366917
C31	C	0.611973	0.124674	0.400843
C32	C	0.658956	0.125546	0.507946
C33	C	0.611906	0.124659	0.581129
C34	C	0.470969	0.122031	0.259810
C35	C	0.518012	0.122920	0.186632
C36	C	0.612039	0.124689	0.220556
C37	C	0.659023	0.125561	0.327660
C38	C	0.659090	0.125575	0.147373
C39	C	0.753116	0.127337	0.181298
C40	C	0.753049	0.127323	0.361585
C41	C	1.229756	0.117473	0.443288
C42	C	1.329825	0.119368	0.479354
C43	C	1.058554	0.287313	0.381567
C44	C	1.060439	0.386611	0.382241
N45	N	1.064941	0.123777	0.619235
N46	N	1.064984	0.123795	0.148537
C47	C	1.126175	0.063074	0.693352
C48	C	1.126181	0.063073	0.797458
C49	C	1.064956	0.123781	0.827445
C50	C	1.003714	0.184487	0.753318
C51	C	1.003705	0.184483	0.649214
C52	C	1.003739	0.184493	0.970307
C53	C	1.003750	0.184499	1.074420
C54	C	1.126215	0.063083	1.118552
C55	C	1.126206	0.063079	1.014447
C56	C	1.064966	0.123787	0.940327
H57	H	1.218277	-0.166859	0.439168
H58	H	1.176036	0.013642	0.668947
Br59	Br	0.872065	-0.317396	0.314318
Br60	Br	0.866588	-0.605165	0.312361
Br61	Br	0.343364	0.119606	0.213769
H62	H	0.509085	0.122734	0.707600
H63	H	1.209575	-0.623881	0.436004
Br64	Br	0.870770	-0.385240	0.313863
Br65	Br	0.312963	0.119018	0.685767
H66	H	1.176042	0.013643	0.857805
H67	H	0.953893	0.233933	1.098827
H68	H	0.953859	0.233914	0.777738
Br69	Br	1.209305	-0.019302	0.973749
Br70	Br	1.259144	-0.367172	0.453882
H71	H	1.176079	0.013653	1.178906
H72	H	0.953868	0.233926	0.909959
Br73	Br	0.920591	0.266865	0.548622
H74	H	0.920344	-0.128540	0.331746
H75	H	1.212799	-0.454618	0.437181
Br76	Br	0.595331	0.124344	0.002020
H77	H	0.791298	0.128049	0.448802
Br78	Br	0.786567	0.127926	0.553993
Br79	Br	0.675666	0.125862	0.726491
Br80	Br	0.816967	0.128538	0.081986
H81	H	0.479752	0.122204	0.099424
H82	H	0.338608	0.119539	0.318961
