data_functionalizedCrystal
_audit_creation_method	'MofGen! by Chris Wilmer'
_symmetry_space_group_name_H-M	'P1'
_symmetry_Int_Tables_number	1
_symmetry_cell_setting	triclinic
loop_
_symmetry_equiv_pos_as_xyz
  x,y,z
_cell_length_a	16.109301
_cell_length_b	13.339070
_cell_length_c	14.586319
_cell_angle_alpha	89.998714
_cell_angle_beta	89.999213
_cell_angle_gamma	99.545388
loop_
_atom_site_label
_atom_site_type_symbol
_atom_site_fract_x
_atom_site_fract_y
_atom_site_fract_z
O1	O	1.133153	0.130021	-0.076178
O2	O	0.894827	0.146201	-0.076192
O3	O	0.986638	-0.009144	-0.076184
O4	O	1.041342	0.285365	-0.076186
O5	O	0.986629	-0.009146	0.076297
O6	O	0.894818	0.146199	0.076289
O7	O	1.133144	0.130018	0.076303
Cu8	Cu	1.013980	0.138108	0.090219
Cu9	Cu	1.013991	0.138111	-0.090107
O10	O	1.041333	0.285363	0.076295
C11	C	0.863697	0.145545	0.000047
C12	C	0.770947	0.143580	0.000041
C13	C	0.977393	-0.046831	0.000055
C14	C	0.949849	-0.159124	0.000050
C15	C	0.568905	0.231189	0.000051
C16	C	0.481756	0.229335	0.000057
C17	C	0.459072	0.045023	0.000055
C18	C	0.546219	0.046879	0.000055
C19	C	0.601133	0.139965	0.000049
C20	C	0.426838	0.136255	0.000054
C21	C	0.332347	0.134244	0.000061
C22	C	0.695630	0.141976	0.000044
C23	C	1.164017	-0.523987	0.000063
C24	C	1.189898	-0.418483	0.000073
C25	C	1.129888	-0.353638	0.000067
C26	C	1.043992	-0.394307	0.000051
C27	C	1.018108	-0.499822	0.000048
C28	C	0.983979	-0.329473	0.000052
C29	C	0.898083	-0.370142	0.000037
C30	C	0.872203	-0.475647	0.000033
C31	C	0.932213	-0.540492	0.000039
C32	C	1.009863	-0.223958	0.000055
C33	C	0.863954	-0.199793	0.000041
C34	C	0.838073	-0.305297	0.000030
C35	C	1.164275	0.130675	0.000063
C36	C	1.257024	0.132640	0.000062
C37	C	1.050578	0.323050	0.000054
C38	C	1.078122	0.435343	0.000054
N39	N	1.013978	0.138106	0.217051
N40	N	1.013998	0.138106	-0.216939
C41	C	1.054656	0.069342	0.452061
C42	C	1.054658	0.069340	0.548042
C43	C	0.973315	0.206873	0.548044
C44	C	0.973308	0.206870	0.452065
C45	C	1.013984	0.138105	0.404075
C46	C	1.013992	0.138106	0.596036
C47	C	1.013994	0.138104	0.700103
C48	C	1.013981	0.138106	0.300002
H49	H	0.613614	0.306986	0.000053
C50	C	1.098634	-0.005418	0.399864
C51	C	1.040031	-0.067334	0.344781
C52	C	1.080499	-0.136231	0.296690
H53	H	1.122836	-0.046468	0.442107
H54	H	1.141630	0.030902	0.362347
H55	H	0.997050	-0.103651	0.382295
H56	H	1.015825	-0.026313	0.302521
H57	H	1.123495	-0.099912	0.259173
H58	H	1.104700	-0.177274	0.338939
H59	H	1.040745	-0.178243	0.259304
C60	C	0.399545	-0.056109	-0.000093
C61	C	0.413921	-0.111258	-0.078531
C62	C	0.359110	-0.204433	-0.078697
H63	H	0.342997	-0.044293	-0.000144
H64	H	0.409174	-0.093730	0.053052
H65	H	0.404286	-0.073645	-0.131662
H66	H	0.470458	-0.123101	-0.078497
H67	H	0.368739	-0.242054	-0.025552
H68	H	0.302565	-0.192607	-0.078745
H69	H	0.368862	-0.241867	-0.131911
C70	C	1.098902	-0.005361	0.599974
C71	C	1.134537	-0.065562	0.537400
C72	C	1.175311	-0.134383	0.585206
H73	H	1.059358	-0.047579	0.637422
H74	H	1.141947	0.031015	0.637393
H75	H	1.091497	-0.101935	0.499997
H76	H	1.174092	-0.023372	0.499950
H77	H	1.218356	-0.098006	0.622625
H78	H	1.135762	-0.176593	0.622653
H79	H	1.199501	-0.175230	0.542757
H80	H	0.455520	0.303619	0.000061
H81	H	0.572459	-0.027412	0.000056
C82	C	1.103128	-0.179866	-0.000126
C83	C	1.140844	-0.212801	-0.078583
C84	C	1.226761	-0.172194	-0.078791
H85	H	1.128964	-0.202098	0.052987
H86	H	1.109988	-0.107739	-0.000175
H87	H	1.133990	-0.284913	-0.078526
H88	H	1.115033	-0.190570	-0.131709
H89	H	1.233621	-0.100067	-0.078840
H90	H	1.252588	-0.194429	-0.025675
H91	H	1.252360	-0.194527	-0.132027
C92	C	0.929245	0.281490	0.600315
C93	C	0.937976	0.266798	0.694641
C94	C	0.897402	0.335530	0.742818
H95	H	0.871199	0.270554	0.584704
H96	H	0.953860	0.349025	0.584631
H97	H	0.913358	0.199279	0.710318
H98	H	0.996013	0.277742	0.710279
H99	H	0.922017	0.403064	0.727135
H100	H	0.839358	0.324588	0.727200
H101	H	0.903327	0.325577	0.806823
C102	C	1.283190	-0.374526	0.000043
C103	C	1.330205	-0.453892	0.000024
C104	C	1.416153	-0.413438	-0.000014
H105	H	1.296426	-0.333890	0.053206
H106	H	1.296366	-0.333893	-0.053148
H107	H	1.317035	-0.494508	0.053210
H108	H	1.316995	-0.494535	-0.053134
H109	H	1.429329	-0.372805	-0.053206
H110	H	1.429380	-0.372802	0.053149
H111	H	1.448063	-0.467281	-0.000036
C112	C	0.929281	0.281697	0.400009
C113	C	0.965710	0.381106	0.423328
C114	C	0.925181	0.450057	0.375384
H115	H	0.871254	0.270831	0.415705
H116	H	0.935121	0.271913	0.335966
H117	H	0.959863	0.390886	0.487357
H118	H	1.023733	0.392005	0.407630
H119	H	0.931020	0.440273	0.311341
H120	H	0.867155	0.439182	0.391084
H121	H	0.949897	0.517514	0.391193
C122	C	1.229124	-0.594439	-0.000115
C123	C	1.218546	-0.655700	-0.078573
C124	C	1.278519	-0.720606	-0.078772
H125	H	1.222108	-0.636195	0.052997
H126	H	1.284004	-0.555148	-0.000158
H127	H	1.163679	-0.694988	-0.078522
H128	H	1.225571	-0.613972	-0.131698
H129	H	1.333400	-0.681315	-0.078815
H130	H	1.271498	-0.762355	-0.025657
H131	H	1.271356	-0.762172	-0.132009
C132	C	0.778906	-0.519608	-0.000021
C133	C	0.731890	-0.440243	-0.000049
C134	C	0.645943	-0.480699	-0.000110
H135	H	0.765657	-0.560252	0.053137
H136	H	0.765743	-0.560234	-0.053217
H137	H	0.745047	-0.399634	0.053141
H138	H	0.745112	-0.399593	-0.053203
H139	H	0.632780	-0.521325	-0.053305
H140	H	0.632703	-0.521342	0.053049
H141	H	0.614031	-0.426857	-0.000137
H142	H	1.150966	-0.267732	0.000075
H143	H	0.911145	-0.626403	0.000027
C144	C	0.798829	-0.129353	-0.000159
C145	C	0.809420	-0.068091	-0.078619
C146	C	0.749441	-0.003194	-0.078838
H147	H	0.805831	-0.087597	0.052952
H148	H	0.743951	-0.168649	-0.000212
H149	H	0.864285	-0.028798	-0.078557
H150	H	0.802411	-0.109820	-0.131742
H151	H	0.694563	-0.042490	-0.078891
H152	H	0.756448	0.038556	-0.025724
H153	H	0.756614	0.038374	-0.132076
H154	H	0.768134	-0.338426	0.000018
