data_functionalizedCrystal
_audit_creation_method	'MofGen! by Chris Wilmer'
_symmetry_space_group_name_H-M	'P1'
_symmetry_Int_Tables_number	1
_symmetry_cell_setting	triclinic
loop_
_symmetry_equiv_pos_as_xyz
  x,y,z
_cell_length_a	15.297327
_cell_length_b	14.908610
_cell_length_c	14.908308
_cell_angle_alpha	89.826017
_cell_angle_beta	102.308214
_cell_angle_gamma	83.011110
loop_
_atom_site_label
_atom_site_type_symbol
_atom_site_fract_x
_atom_site_fract_y
_atom_site_fract_z
Zn1	Zn	-0.470313	-1.259444	-0.663997
Zn2	Zn	0.029687	-0.759444	-0.163997
Zn3	Zn	-0.612841	-1.242007	-0.536787
Zn4	Zn	-0.112841	-0.742007	-0.036787
Zn5	Zn	-0.452998	-1.120920	-0.502180
Zn6	Zn	0.047002	-0.620920	-0.002180
Zn7	Zn	-0.611763	-1.083232	-0.678260
Zn8	Zn	-0.111763	-0.583232	-0.178260
O9	O	-0.536979	-1.176401	-0.595306
O10	O	-0.036979	-0.676401	-0.095306
O11	O	-0.496917	-1.381552	-0.655637
O12	O	0.003083	-0.881552	-0.155637
O13	O	-0.584843	-1.234420	-0.405268
O14	O	-0.084843	-0.734420	0.094732
O15	O	-0.329203	-1.162366	-0.503193
O16	O	0.170797	-0.662366	-0.003193
O17	O	-0.601632	-1.368741	-0.562176
O18	O	-0.101632	-0.868741	-0.062176
O19	O	-0.341924	-1.264139	-0.622080
O20	O	0.158076	-0.764139	-0.122080
O21	O	-0.467407	-1.145458	-0.379843
O22	O	0.032593	-0.645458	0.120157
O23	O	-0.466361	-0.991500	-0.517023
O24	O	0.033639	-0.491500	-0.017023
O25	O	-0.599794	-1.098131	-0.803296
O26	O	-0.099794	-0.598131	-0.303296
O27	O	-0.583005	-0.963810	-0.646388
O28	O	-0.083005	-0.463810	-0.146388
O29	O	-0.495871	-1.227594	-0.792818
O30	O	0.004129	-0.727594	-0.292818
O31	O	-0.738791	-1.197875	-0.576006
O32	O	-0.238791	-0.697875	-0.076006
O33	O	-0.737998	-1.081223	-0.679945
O34	O	-0.237998	-0.581223	-0.179945
C35	C	-0.522688	-0.945394	-0.579499
C36	C	-0.022688	-0.445394	-0.079499
C37	C	-0.516597	-0.846563	-0.572761
C38	C	-0.016597	-0.346563	-0.072761
C39	C	-0.771091	-1.133590	-0.633300
C40	C	-0.271091	-0.633590	-0.133300
C41	C	-0.871252	-1.115355	-0.649590
C42	C	-0.371252	-0.615355	-0.149590
C43	C	-0.447203	-0.721664	-0.495994
C44	C	0.052797	-0.221664	0.004006
C45	C	-0.452921	-0.814525	-0.502319
C46	C	0.047079	-0.314525	-0.002319
C47	C	-0.574557	-0.785730	-0.636884
C48	C	-0.074557	-0.285730	-0.136884
C49	C	-0.568839	-0.692869	-0.630558
C50	C	-0.068839	-0.192869	-0.130558
C51	C	-0.505161	-0.660839	-0.560110
C52	C	-0.005161	-0.160839	-0.060110
C53	C	-0.499447	-0.567975	-0.553781
C54	C	0.000553	-0.067975	-0.053781
C55	C	-0.621079	-0.539182	-0.688348
C56	C	-0.121079	-0.039182	-0.188348
C57	C	-0.626797	-0.632044	-0.694674
C58	C	-0.126797	-0.132044	-0.194674
C59	C	-1.155135	-1.307076	-0.479215
C60	C	-0.655135	-0.807076	0.020785
C61	C	-1.061028	-1.324209	-0.463905
C62	C	-0.561028	-0.824209	0.036095
C63	C	-1.013580	-1.271997	-0.510325
C64	C	-0.513580	-0.771997	-0.010325
C65	C	-1.060247	-1.202649	-0.572057
C66	C	-0.560247	-0.702649	-0.072057
C67	C	-1.154362	-1.185510	-0.587363
C68	C	-0.654362	-0.685510	-0.087363
C69	C	-1.012807	-1.150431	-0.618473
C70	C	-0.512807	-0.650431	-0.118473
C71	C	-1.059474	-1.081083	-0.680205
C72	C	-0.559474	-0.581083	-0.180205
C73	C	-1.153580	-1.063948	-0.695509
C74	C	-0.653580	-0.563948	-0.195509
C75	C	-1.201029	-1.116159	-0.649089
C76	C	-0.701029	-0.616159	-0.149089
C77	C	-0.918692	-1.167570	-0.603167
C78	C	-0.418692	-0.667570	-0.103167
C79	C	-0.917919	-1.046004	-0.711316
C80	C	-0.417919	-0.546004	-0.211316
C81	C	-1.012025	-1.028871	-0.726625
C82	C	-0.512025	-0.528871	-0.226625
C83	C	-0.301955	-1.219401	-0.557185
C84	C	0.198045	-0.719401	-0.057185
C85	C	-0.201801	-1.237726	-0.540941
C86	C	0.298199	-0.737726	-0.040941
C87	C	-0.549644	-1.160604	-0.831888
C88	C	-0.049644	-0.660604	-0.331888
C89	C	-0.555041	-1.153872	-0.932705
C90	C	-0.055041	-0.653872	-0.432705
C91	C	-0.551318	-0.408311	-0.611167
C92	C	-0.051318	0.091689	-0.111167
C93	C	-0.557407	-0.507143	-0.617903
C94	C	-0.057407	-0.007143	-0.117903
C95	C	-0.456947	-1.276033	-1.111238
C96	C	0.043053	-0.776033	-0.611238
C97	C	-0.462015	-1.269711	-1.205965
C98	C	0.037985	-0.769711	-0.705965
C99	C	-0.570240	-1.134904	-1.216885
C100	C	-0.070240	-0.634904	-0.716885
C101	C	-0.565172	-1.141225	-1.122159
C102	C	-0.065172	-0.641225	-0.622159
C103	C	-0.508525	-1.211793	-1.069339
C104	C	-0.008525	-0.711793	-0.569339
C105	C	-0.503462	-1.218118	-0.974612
C106	C	-0.003462	-0.718118	-0.474612
C107	C	-0.611681	-1.083307	-0.985533
C108	C	-0.111681	-0.583307	-0.485533
C109	C	-0.616750	-1.076986	-1.080259
C110	C	-0.116750	-0.576986	-0.580259
C111	C	-0.524301	-1.192199	-0.359637
C112	C	-0.024301	-0.692199	0.140363
C113	C	-0.518661	-1.199150	-0.258791
C114	C	-0.018661	-0.699150	0.241209
H115	H	-0.447596	-0.541899	-0.496418
H116	H	0.052404	-0.041899	0.003582
F117	F	-0.379442	-0.687572	-0.421010
F118	F	0.120558	-0.187572	0.078990
F119	F	-0.443176	-1.293223	-0.918398
F120	F	0.056824	-0.793223	-0.418398
F121	F	-1.301155	-1.097665	-0.665072
F122	F	-0.801155	-0.597665	-0.165072
H123	H	-0.405723	-0.864047	-0.450112
H124	H	0.094277	-0.364047	0.049888
H125	H	-0.410827	-1.333495	-1.068232
H126	H	0.089173	-0.833495	-0.568232
H127	H	-0.616359	-1.077451	-1.259907
H128	H	-0.116359	-0.577451	-0.759907
F129	F	-1.061703	-0.955068	-0.792323
F130	F	-0.561703	-0.455068	-0.292323
H131	H	-0.420013	-1.322020	-1.240075
H132	H	0.079987	-0.822020	-0.740075
H133	H	-1.193775	-1.349575	-0.441421
H134	H	-0.693775	-0.849575	0.058579
H135	H	-0.879287	-1.003487	-0.749113
H136	H	-0.379287	-0.503487	-0.249113
F137	F	-0.913445	-1.290411	-0.494237
F138	F	-0.413445	-0.790411	0.005763
H139	H	-0.626397	-0.811827	-0.694243
H140	H	-0.126397	-0.311827	-0.194243
H141	H	-0.678640	-0.658136	-0.752033
H142	H	-0.178640	-0.158136	-0.252033
F143	F	-1.203244	-0.990137	-0.761205
F144	F	-0.703244	-0.490137	-0.261205
H145	H	-1.023035	-1.380671	-0.413643
H146	H	-0.523035	-0.880671	0.086357
F147	F	-0.682761	-0.474441	-0.756594
F148	F	-0.182761	0.025559	-0.256594
H149	H	-0.880704	-1.224034	-0.552904
H150	H	-0.380704	-0.724034	-0.052904
F151	F	-0.677033	-1.001886	-1.136483
F152	F	-0.177033	-0.501886	-0.636483
F153	F	-0.666586	-1.014941	-0.940936
F154	F	-0.166586	-0.514941	-0.440936
