data_functionalizedCrystal
_audit_creation_method	'MofGen! by Chris Wilmer'
_symmetry_space_group_name_H-M	'P1'
_symmetry_Int_Tables_number	1
_symmetry_cell_setting	triclinic
loop_
_symmetry_equiv_pos_as_xyz
  x,y,z
_cell_length_a	30.700809
_cell_length_b	30.711276
_cell_length_c	30.700862
_cell_angle_alpha	59.998386
_cell_angle_beta	89.999414
_cell_angle_gamma	60.000191
loop_
_atom_site_label
_atom_site_type_symbol
_atom_site_fract_x
_atom_site_fract_y
_atom_site_fract_z
O1	O	-0.371254	-0.311651	0.012944
O2	O	-0.307913	-0.222487	-0.012907
O3	O	-0.307911	-0.311650	0.076286
O4	O	-0.371257	-0.222488	-0.076249
O5	O	-0.235466	-0.384070	0.076286
O6	O	-0.235468	-0.294907	-0.012907
O7	O	-0.298809	-0.384071	0.012944
Zn8	Zn	-0.255636	-0.350987	0.000018
Zn9	Zn	-0.351086	-0.255571	0.000019
O10	O	-0.298812	-0.294908	-0.076249
C11	C	-0.234796	-0.137097	-0.018777
C12	C	-0.261674	-0.083360	-0.015076
C13	C	-0.182374	-0.163176	-0.019143
C14	C	-0.234798	-0.215942	-0.018783
C15	C	-0.261678	-0.246507	-0.015089
C16	C	-0.182376	-0.241901	-0.019150
C17	C	-0.155920	-0.215947	-0.018777
C18	C	-0.098463	-0.246515	-0.015075
C19	C	-0.261132	-0.163172	-0.019150
C20	C	-0.574961	-0.535511	0.039265
C21	C	-0.548506	-0.588283	0.039634
C22	C	-0.496086	-0.535509	0.039262
C23	C	-0.469751	-0.588281	0.039632
C24	C	-0.496085	-0.614360	0.039265
C25	C	-0.548507	-0.509552	0.039632
C26	C	-0.765169	-0.393516	0.024987
C27	C	-0.819034	-0.364488	0.020950
C28	C	-0.846055	-0.389406	0.018925
C29	C	-0.904462	-0.357927	0.014538
C30	C	-0.819206	-0.443357	0.020941
C31	C	-0.765344	-0.472385	0.024984
C32	C	-0.738325	-0.447463	0.027007
C33	C	-0.447920	-0.790230	0.024988
C34	C	-0.423094	-0.840041	0.020951
C35	C	-0.371150	-0.865027	0.018921
C36	C	-0.344230	-0.919028	0.014536
C37	C	-0.344030	-0.840201	0.020935
C38	C	-0.368852	-0.790399	0.024981
C39	C	-0.420803	-0.765414	0.027004
C40	C	-0.447922	-0.393510	0.024977
C41	C	-0.423099	-0.364475	0.020931
C42	C	-0.371152	-0.389391	0.018903
C43	C	-0.344235	-0.357911	0.014513
C44	C	-0.344034	-0.443338	0.020916
C45	C	-0.368860	-0.472368	0.024960
C46	C	-0.420804	-0.447452	0.026995
C47	C	-0.679920	-0.478941	0.031387
C48	C	-0.633366	-0.504032	0.034880
C49	C	-0.469171	-0.504029	0.034875
C50	C	-0.447717	-0.478936	0.031380
C51	C	-0.469170	-0.668361	0.034880
C52	C	-0.447716	-0.711408	0.031386
C53	C	-0.496432	-0.071057	-0.503890
C54	C	-0.548853	-0.018285	-0.530226
C55	C	-0.496432	-0.071056	-0.425015
C56	C	-0.548854	-0.018284	-0.451470
C57	C	-0.575308	0.007793	-0.503892
C58	C	-0.470097	-0.097014	-0.451469
C59	C	-0.368666	-0.213054	-0.552051
C60	C	-0.343664	-0.242084	-0.576877
C61	C	-0.370616	-0.217167	-0.628824
C62	C	-0.343513	-0.248647	-0.655741
C63	C	-0.422570	-0.163216	-0.655945
C64	C	-0.447565	-0.134187	-0.631122
C65	C	-0.420611	-0.159108	-0.579173
C66	C	-0.765518	0.183662	-0.631659
C67	C	-0.819384	0.233473	-0.656662
C68	C	-0.846408	0.258459	-0.629712
C69	C	-0.904813	0.312461	-0.656813
C70	C	-0.819559	0.233635	-0.577758
C71	C	-0.765694	0.183833	-0.552761
C72	C	-0.738677	0.158847	-0.579717
C73	C	-0.368668	-0.213052	-0.234803
C74	C	-0.343669	-0.242086	-0.180935
C75	C	-0.370621	-0.217169	-0.153914
C76	C	-0.343519	-0.248648	-0.095506
C77	C	-0.422573	-0.163222	-0.180762
C78	C	-0.447570	-0.134193	-0.234627
C79	C	-0.420610	-0.159111	-0.261646
C80	C	-0.447720	-0.127629	-0.552258
C81	C	-0.469327	-0.102536	-0.530805
C82	C	-0.469328	-0.102535	-0.366609
C83	C	-0.447721	-0.127627	-0.320054
C84	C	-0.633714	0.061794	-0.530997
C85	C	-0.680269	0.104841	-0.552605
O86	O	0.076277	-0.384081	0.012960
O87	O	-0.076257	-0.294916	-0.012894
O88	O	0.012931	-0.384083	0.076300
O89	O	-0.012910	-0.294914	-0.076234
O90	O	0.012933	-0.311666	0.076306
O91	O	-0.076254	-0.222499	-0.012888
O92	O	0.076280	-0.311664	0.012966
Zn93	Zn	0.000013	-0.255584	0.000040
Zn94	Zn	0.000010	-0.350996	0.000032
O95	O	-0.012908	-0.222497	-0.076228
O96	O	-0.298805	0.063292	0.012964
O97	O	-0.235462	-0.063346	-0.012888
O98	O	-0.235465	-0.063353	0.076305
O99	O	-0.298803	0.063300	-0.076229
O100	O	-0.307912	-0.063350	0.076299
O101	O	-0.307909	-0.063342	-0.012895
O102	O	-0.371252	0.063295	0.012958
Zn103	Zn	-0.351083	-0.000023	0.000031
Zn104	Zn	-0.255631	-0.000027	0.000039
O105	O	-0.371250	0.063303	-0.076236
O106	O	-1.076607	0.456783	-0.692421
O107	O	-0.924074	0.330140	-0.629074
O108	O	-1.013262	0.330138	-0.629073
O109	O	-0.987418	0.456785	-0.692422
O110	O	-1.013261	0.330136	-0.701518
O111	O	-0.924072	0.330138	-0.701518
O112	O	-1.076605	0.456781	-0.764865
Zn113	Zn	-1.000338	0.393459	-0.744694
Zn114	Zn	-1.000340	0.393461	-0.649245
O115	O	-0.987417	0.456783	-0.764866
O116	O	-0.307911	-0.311650	-0.764507
O117	O	-0.371254	-0.222491	-0.701165
O118	O	-0.371252	-0.311652	-0.701162
O119	O	-0.307912	-0.222489	-0.764510
O120	O	-0.298806	-0.384074	-0.628716
O121	O	-0.298807	-0.294912	-0.628719
O122	O	-0.235464	-0.384072	-0.692061
Zn123	Zn	-0.255634	-0.350991	-0.648887
Zn124	Zn	-0.351085	-0.255572	-0.744338
O125	O	-0.235466	-0.294910	-0.692064
C126	C	-0.155920	-0.469469	0.234827
C127	C	-0.098464	-0.523208	0.261706
C128	C	-0.182375	-0.443392	0.261162
C129	C	-0.234797	-0.390619	0.155950
C130	C	-0.261676	-0.360052	0.098494
C131	C	-0.261132	-0.364662	0.182405
C132	C	-0.234797	-0.390620	0.234826
C133	C	-0.261675	-0.360052	0.261704
C134	C	-0.182375	-0.443391	0.182406
C135	C	0.018810	-0.390643	0.234846
C136	C	0.015111	-0.360079	0.261727
C137	C	0.019176	-0.443414	0.261179
C138	C	0.018812	-0.390637	0.155967
C139	C	0.015115	-0.360067	0.098511
C140	C	0.019178	-0.443408	0.182420
C141	C	0.018807	-0.469488	0.234841
C142	C	0.015106	-0.523226	0.261717
C143	C	0.019180	-0.364683	0.182425
C144	C	-0.234799	-0.215977	0.234834
C145	C	-0.261678	-0.246545	0.261708
C146	C	-0.182376	-0.241940	0.261172
C147	C	-0.234798	-0.137119	0.155964
C148	C	-0.261676	-0.083372	0.098509
C149	C	-0.182375	-0.163202	0.182421
C150	C	-0.155921	-0.215981	0.234841
C151	C	-0.098464	-0.246554	0.261721
C152	C	-0.261134	-0.163198	0.182415
C153	C	-0.039199	0.007461	-0.503869
C154	C	-0.039568	-0.018614	-0.530207
C155	C	-0.039203	-0.071390	-0.424995
C156	C	-0.039572	-0.097344	-0.451452
C157	C	-0.039201	-0.071385	-0.503874
C158	C	-0.039570	-0.018618	-0.451448
C159	C	-0.024912	0.183325	-0.552025
C160	C	-0.020873	0.233135	-0.576849
C161	C	-0.018844	0.258123	-0.628796
C162	C	-0.014454	0.312124	-0.655711
C163	C	-0.020859	0.233301	-0.655918
C164	C	-0.024906	0.183500	-0.631097
C165	C	-0.026932	0.158512	-0.579148
C166	C	-0.024920	-0.133799	-0.631644
C167	C	-0.020882	-0.162650	-0.656647
C168	C	-0.018855	-0.216605	-0.629699
C169	C	-0.014470	-0.247897	-0.656801
C170	C	-0.020872	-0.241704	-0.577746
C171	C	-0.024919	-0.212847	-0.552747
C172	C	-0.026939	-0.158893	-0.579702
C173	C	-0.024929	-0.133823	-0.234783
C174	C	-0.020887	-0.162684	-0.180915
C175	C	-0.018862	-0.216639	-0.153896
C176	C	-0.014477	-0.247936	-0.095488
C177	C	-0.020875	-0.241733	-0.180745
C178	C	-0.024915	-0.212872	-0.234610
C179	C	-0.026947	-0.158912	-0.261627
C180	C	-0.031316	0.104507	-0.552235
C181	C	-0.034811	0.061462	-0.530782
C182	C	-0.034820	-0.102682	-0.366590
C183	C	-0.031328	-0.127624	-0.320035
C184	C	-0.034816	-0.102672	-0.530980
C185	C	-0.031322	-0.127610	-0.552588
O186	O	-0.012940	-0.294936	0.371303
O187	O	0.012923	-0.384099	0.307961
O188	O	-0.076273	-0.294935	0.307950
O189	O	0.076257	-0.384100	0.371315
O190	O	-0.076265	-0.222515	0.235508
O191	O	0.012932	-0.311679	0.235520
O192	O	-0.012931	-0.222517	0.298862
Zn193	Zn	0.000002	-0.255600	0.255689
Zn194	Zn	-0.000010	-0.351016	0.351134
O195	O	0.076266	-0.311681	0.298873
C196	C	-0.574962	0.464558	-0.503864
C197	C	-0.548506	0.490518	-0.530195
C198	C	-0.496085	0.385697	-0.424987
C199	C	-0.469749	0.411776	-0.451438
C200	C	-0.496084	0.464555	-0.503857
C201	C	-0.548507	0.411779	-0.451444
C202	C	-0.765173	0.526994	-0.552039
C203	C	-0.819039	0.555852	-0.576867
C204	C	-0.846061	0.609814	-0.628812
C205	C	-0.904469	0.641114	-0.655732
C206	C	-0.819211	0.634913	-0.655928
C207	C	-0.765348	0.606050	-0.631102
C208	C	-0.738329	0.552088	-0.579155
C209	C	-0.447916	0.606561	-0.631604
C210	C	-0.423088	0.635592	-0.656601
C211	C	-0.371143	0.610674	-0.629648
C212	C	-0.344222	0.642150	-0.656742
C213	C	-0.344023	0.556716	-0.577696
C214	C	-0.368845	0.527681	-0.552704
C215	C	-0.420798	0.552613	-0.579664
C216	C	-0.447920	0.209802	-0.234786
C217	C	-0.423096	0.159988	-0.180919
C218	C	-0.371148	0.134996	-0.153895
C219	C	-0.344230	0.080987	-0.095489
C220	C	-0.344029	0.159823	-0.180737
C221	C	-0.368856	0.209637	-0.234602
C222	C	-0.420801	0.234620	-0.261624
C223	C	-0.679923	0.520797	-0.552238
C224	C	-0.633367	0.495853	-0.530781
C225	C	-0.469169	0.331687	-0.366583
C226	C	-0.447714	0.288634	-0.320030
C227	C	-0.469167	0.496035	-0.530956
C228	C	-0.447712	0.521128	-0.552558
H229	H	-0.304205	-0.141343	-0.019747
H230	H	-0.040160	0.003216	-0.573279
N231	N	-0.339607	0.236414	-0.263553
H232	H	-0.302932	0.213023	-0.238262
H233	H	-0.336131	0.232976	-0.294593
N234	N	0.019961	-0.472331	0.318231
H235	H	0.020132	-0.447788	0.330976
H236	H	-0.012753	-0.472571	0.320368
N237	N	-0.576633	0.382863	-0.423304
H238	H	-0.609581	0.413618	-0.421351
H239	H	-0.587228	0.370194	-0.443711
N240	N	0.019963	-0.308432	0.154289
H241	H	0.020133	-0.295867	0.179014
H242	H	0.053030	-0.318236	0.143671
H243	H	-0.570087	0.003544	-0.573301
N244	N	-0.154252	-0.472317	0.318223
H245	H	-0.178987	-0.447780	0.330965
H246	H	-0.143640	-0.515986	0.341465
N247	N	-0.027107	-0.075634	-0.263914
H248	H	0.004022	-0.082644	-0.277573
H249	H	-0.061607	-0.041177	-0.294934
N250	N	-0.154236	-0.134276	-0.019918
H251	H	-0.116944	-0.158820	-0.020095
H252	H	-0.174661	-0.090600	-0.052979
N253	N	-0.027106	-0.075603	-0.660722
H254	H	-0.061588	-0.041126	-0.664167
H255	H	0.004046	-0.082666	-0.640033
H256	H	-0.426680	-0.610102	0.040221
H257	H	0.019779	-0.465234	0.161179
N258	N	-0.451627	-0.136352	-0.711971
H259	H	-0.485283	-0.134800	-0.712883
H260	H	-0.461127	-0.093337	-0.736962
H261	H	-0.161136	-0.141377	0.161182
H262	H	-0.426677	0.389946	-0.430194
N263	N	-0.451649	-0.136344	-0.151622
H264	H	-0.427933	-0.162917	-0.113425
H265	H	-0.461190	-0.093308	-0.169693
H266	H	-0.743837	0.163627	-0.510462
H267	H	-0.569747	-0.610106	0.040228
N268	N	-0.287639	-0.300272	-0.151978
H269	H	-0.262684	-0.291718	-0.170079
H270	H	-0.275944	-0.314853	-0.113759
N271	N	-0.154242	-0.298190	0.318224
H272	H	-0.178967	-0.310756	0.330964
H273	H	-0.121286	-0.333032	0.320366
H274	H	-0.026564	-0.233284	-0.510448
N275	N	-0.736372	0.156718	-0.660731
H276	H	-0.722711	0.111944	-0.640061
H277	H	-0.761576	0.180046	-0.697433
N278	N	-0.318180	-0.308405	0.154297
H279	H	-0.320333	-0.273546	0.152379
H280	H	-0.330916	-0.295859	0.117010
H281	H	-0.304205	-0.141373	0.161175
N282	N	-0.848351	0.693111	-0.711950
H283	H	-0.862016	0.686115	-0.736076
H284	H	-0.879367	0.727556	-0.711903
N285	N	-0.040359	-0.153592	-0.423325
H286	H	-0.040531	-0.166160	-0.386030
H287	H	-0.073426	-0.143782	-0.443755
H288	H	-0.040120	0.003178	-0.430195
H289	H	-0.301733	-0.860548	0.019286
H290	H	-0.019235	-0.142256	-0.159055
N291	N	-0.576639	-0.453299	0.040409
H292	H	-0.613934	-0.440732	0.040579
H293	H	-0.556214	-0.463100	0.073475
H294	H	-0.161128	-0.465208	0.161163
H295	H	-0.161139	-0.284365	-0.019743
H296	H	-0.743487	-0.516312	0.026628
H297	H	-0.346713	-0.233351	-0.509753
H298	H	-0.026563	0.162985	-0.509727
H299	H	-0.743175	-0.373219	0.026636
H300	H	-0.019230	0.253339	-0.554762
H301	H	-0.445184	-0.320548	0.019287
H302	H	-0.019210	0.253653	-0.698214
H303	H	-0.490220	-0.373215	0.026628
N304	N	-0.027082	0.156731	-0.660347
H305	H	-0.025183	0.180116	-0.697021
H306	H	0.004047	0.111963	-0.639710
H307	H	-0.346709	-0.233340	-0.256801
H308	H	-0.840890	-0.320560	0.019306
H309	H	-0.346767	-0.770191	0.026621
N310	N	-0.848345	-0.470238	0.018767
H311	H	-0.886541	-0.443663	0.015901
H312	H	-0.847661	-0.471793	-0.013333
N313	N	-0.018704	-0.135584	-0.712677
H314	H	-0.020597	-0.097028	-0.725956
H315	H	0.015780	-0.166582	-0.712703
H316	H	-0.841561	0.253985	-0.555818
H317	H	-0.019230	-0.285631	-0.555806
H318	H	-0.026556	-0.233307	-0.256467
H319	H	-0.019226	-0.285667	-0.158742
N320	N	-0.736386	0.633107	-0.660350
H321	H	-0.761675	0.671668	-0.697025
H322	H	-0.722726	0.643592	-0.639714
N323	N	-0.576633	0.546767	-0.587248
H324	H	-0.613928	0.559336	-0.599993
H325	H	-0.578531	0.581608	-0.589387
N326	N	-0.452345	0.133213	-0.151968
H327	H	-0.489018	0.156599	-0.177261
H328	H	-0.431707	0.088446	-0.138320
H329	H	-0.490217	0.230142	-0.256784
H330	H	-0.743179	0.483055	-0.509743
N331	N	-0.503947	-0.763286	0.027176
H332	H	-0.517358	-0.786572	0.025291
H333	H	-0.503909	-0.766726	0.061660
N334	N	-0.287636	-0.300273	-0.547625
H335	H	-0.274356	-0.311656	-0.510949
H336	H	-0.287612	-0.334771	-0.544148
H337	H	-0.840896	0.535415	-0.554785
H338	H	-0.445180	-0.860248	0.019309
N339	N	-0.503948	0.633451	-0.660676
H340	H	-0.517360	0.672035	-0.697377
H341	H	-0.503922	0.602391	-0.664088
H342	H	-0.445174	0.679524	-0.698898
N343	N	-0.287992	0.529827	-0.548625
H344	H	-0.276379	0.556404	-0.572339
H345	H	-0.287121	0.528264	-0.514965
H346	H	-0.346761	0.483749	-0.510407
H347	H	-0.301729	0.139473	-0.158731
H348	H	-0.427024	-0.139478	-0.430231
H349	H	-0.346776	-0.516292	0.026600
N350	N	-0.503601	-0.076010	-0.263584
H351	H	-0.516882	-0.064629	-0.238295
H352	H	-0.503632	-0.041507	-0.294621
H353	H	-0.841239	0.253681	-0.698962
N354	N	-0.288015	-0.470200	0.018704
H355	H	-0.276403	-0.443622	0.015830
H356	H	-0.263020	-0.513239	0.052206
N357	N	-0.503608	-0.076024	-0.660358
H358	H	-0.516895	-0.064651	-0.697028
H359	H	-0.527730	-0.083043	-0.639701
H360	H	-0.570092	0.003538	-0.430229
