data_functionalizedCrystal
_audit_creation_method	'MofGen! by Chris Wilmer'
_symmetry_space_group_name_H-M	'P1'
_symmetry_Int_Tables_number	1
_symmetry_cell_setting	triclinic
loop_
_symmetry_equiv_pos_as_xyz
  x,y,z
_cell_length_a	27.732048
_cell_length_b	15.944551
_cell_length_c	14.421503
_cell_angle_alpha	90.003141
_cell_angle_beta	89.999321
_cell_angle_gamma	96.929303
loop_
_atom_site_label
_atom_site_type_symbol
_atom_site_fract_x
_atom_site_fract_y
_atom_site_fract_z
O1	O	0.062334	-1.113714	-0.077025
O2	O	0.395667	-0.780381	0.256308
O3	O	0.729000	-0.447047	0.589641
O4	O	0.070020	-0.869064	-0.077050
O5	O	0.403353	-0.535731	0.256284
O6	O	0.736686	-0.202397	0.589617
O7	O	-0.004187	-0.998987	-0.077019
O8	O	0.329146	-0.665654	0.256314
O9	O	0.662480	-0.332321	0.589648
O10	O	0.136540	-0.983791	-0.077056
O11	O	0.469874	-0.650457	0.256277
O12	O	0.803207	-0.317124	0.589611
O13	O	-0.004176	-0.998966	0.077204
O14	O	0.329157	-0.665632	0.410538
O15	O	0.662491	-0.332299	0.743871
O16	O	0.070031	-0.869042	0.077174
O17	O	0.403364	-0.535709	0.410507
O18	O	0.736697	-0.202376	0.743840
O19	O	0.062345	-1.113693	0.077198
O20	O	0.395678	-0.780359	0.410531
O21	O	0.729011	-0.447026	0.743865
Cu22	Cu	0.066189	-0.991366	0.091268
Cu23	Cu	0.399522	-0.658032	0.424601
Cu24	Cu	0.732855	-0.324699	0.757934
Cu25	Cu	0.066176	-0.991391	-0.091119
Cu26	Cu	0.399509	-0.658058	0.242214
Cu27	Cu	0.732842	-0.324724	0.575547
O28	O	0.136552	-0.983769	0.077168
O29	O	0.469885	-0.650436	0.410501
O30	O	0.803218	-0.317103	0.743834
C31	C	0.069706	-0.837763	0.000059
C32	C	0.403039	-0.504430	0.333393
C33	C	0.736373	-0.171097	0.666726
C34	C	0.068749	-0.744530	0.000051
C35	C	0.402083	-0.411197	0.333384
C36	C	0.735416	-0.077863	0.666717
C37	C	-0.022190	-0.998658	0.000095
C38	C	0.311143	-0.665324	0.333428
C39	C	0.644477	-0.331991	0.666762
C40	C	-0.075849	-0.997697	0.000103
C41	C	0.257484	-0.664364	0.333436
C42	C	0.590818	-0.331030	0.666769
C43	C	0.062658	-1.144993	0.000087
C44	C	0.395992	-0.811660	0.333421
C45	C	0.729325	-0.478326	0.666754
C46	C	0.063615	-1.238227	0.000090
C47	C	0.396948	-0.904893	0.333423
C48	C	0.730282	-0.571560	0.666756
C49	C	-0.414358	-1.068426	0.000062
C50	C	-0.081024	-0.735093	0.333395
C51	C	0.252309	-0.401759	0.666729
C52	C	-0.616033	-1.064862	0.000049
C53	C	-0.282699	-0.731529	0.333382
C54	C	0.050634	-0.398195	0.666716
O55	O	-0.647008	-1.129539	0.000015
O56	O	-0.313675	-0.796205	0.333348
O57	O	0.019658	-0.462872	0.666681
N58	N	-0.635490	-0.987823	0.000042
N59	N	-0.302157	-0.654490	0.333375
N60	N	0.031176	-0.321156	0.666709
C61	C	-0.604525	-0.911669	0.000032
C62	C	-0.271192	-0.578336	0.333366
C63	C	0.062141	-0.245003	0.666699
O64	O	-0.625703	-0.846061	0.000017
O65	O	-0.292369	-0.512728	0.333350
O66	O	0.040964	-0.179394	0.666684
C67	C	-0.402851	-0.915234	0.000039
C68	C	-0.069518	-0.581901	0.333372
C69	C	0.263815	-0.248567	0.666706
C70	C	-0.383397	-0.992278	0.000055
C71	C	-0.050064	-0.658945	0.333389
C72	C	0.283270	-0.325612	0.666722
C73	C	-0.394903	-1.145464	0.000077
C74	C	-0.061569	-0.812131	0.333411
C75	C	0.271764	-0.478797	0.666744
C76	C	-0.344487	-1.146354	0.000086
C77	C	-0.011154	-0.813021	0.333419
C78	C	0.322180	-0.479687	0.666752
C79	C	-0.313526	-1.070206	0.000079
C80	C	0.019807	-0.736873	0.333412
C81	C	0.353141	-0.403540	0.666746
C82	C	-0.332981	-0.993168	0.000064
C83	C	0.000352	-0.659835	0.333397
C84	C	0.333686	-0.326502	0.666730
C85	C	-0.371887	-0.839081	0.000023
C86	C	-0.038554	-0.505748	0.333356
C87	C	0.294779	-0.172415	0.666690
C88	C	-0.321466	-0.839979	0.000022
C89	C	0.011867	-0.506646	0.333356
C90	C	0.345200	-0.173313	0.666689
C91	C	-0.302012	-0.917024	0.000038
C92	C	0.031322	-0.583690	0.333372
C93	C	0.364655	-0.250357	0.666705
C94	C	-0.251604	-0.917911	0.000065
C95	C	0.081729	-0.584577	0.333399
C96	C	0.415062	-0.251244	0.666732
N97	N	-0.232147	-0.994950	0.000072
N98	N	0.101186	-0.661617	0.333405
N99	N	0.434520	-0.328283	0.666739
C100	C	-0.263108	-1.071098	0.000079
C101	C	0.070225	-0.737764	0.333412
C102	C	0.403559	-0.404431	0.666746
C103	C	-0.710408	-0.909803	0.000031
C104	C	-0.377074	-0.576470	0.333364
C105	C	-0.043741	-0.243136	0.666698
C106	C	-0.760826	-0.908912	0.000031
C107	C	-0.427492	-0.575578	0.333364
C108	C	-0.094159	-0.242245	0.666697
C109	C	-0.772330	-1.062105	0.000045
C110	C	-0.438996	-0.728772	0.333379
C111	C	-0.105663	-0.395438	0.666712
C112	C	-0.721911	-1.062995	0.000052
C113	C	-0.388577	-0.729662	0.333385
C114	C	-0.055244	-0.396329	0.666719
C115	C	-0.690950	-0.986842	0.000038
C116	C	-0.357617	-0.653509	0.333371
C117	C	-0.024283	-0.320176	0.666704
C118	C	-0.157231	-1.072961	0.000097
C119	C	0.176103	-0.739628	0.333431
C120	C	0.509436	-0.406295	0.666764
C121	C	-0.106810	-1.073845	0.000109
C122	C	0.226523	-0.740511	0.333443
C123	C	0.559857	-0.407178	0.666776
C124	C	-0.095310	-0.920652	0.000090
C125	C	0.238023	-0.587319	0.333423
C126	C	0.571356	-0.253985	0.666757
C127	C	-0.145727	-0.919768	0.000083
C128	C	0.187607	-0.586435	0.333416
C129	C	0.520940	-0.253102	0.666749
C130	C	-0.176686	-0.995930	0.000083
C131	C	0.156647	-0.662596	0.333416
C132	C	0.489981	-0.329263	0.666750
O133	O	-0.220600	-0.853269	0.000089
O134	O	0.112733	-0.519935	0.333422
O135	O	0.446066	-0.186602	0.666756
O136	O	-0.241921	-1.136697	0.000074
O137	O	0.091412	-0.803363	0.333407
O138	O	0.424745	-0.470030	0.666741
C139	C	-0.464774	-1.067536	0.000054
C140	C	-0.131440	-0.734203	0.333387
C141	C	0.201893	-0.400869	0.666720
C142	C	-0.484228	-0.990498	0.000039
C143	C	-0.150895	-0.657165	0.333372
C144	C	0.182438	-0.323831	0.666705
C145	C	-0.453268	-0.914350	0.000032
C146	C	-0.119934	-0.581017	0.333365
C147	C	0.213399	-0.247684	0.666698
C148	C	-0.534647	-0.989607	0.000039
C149	C	-0.201313	-0.656273	0.333372
C150	C	0.132020	-0.322940	0.666705
C151	C	-0.565608	-1.065754	0.000045
C152	C	-0.232274	-0.732421	0.333379
C153	C	0.101059	-0.399088	0.666712
C154	C	-0.546150	-1.142794	0.000052
C155	C	-0.212817	-0.809460	0.333385
C156	C	0.120516	-0.476127	0.666719
C157	C	-0.495734	-1.143684	0.000061
C158	C	-0.162401	-0.810350	0.333394
C159	C	0.170932	-0.477017	0.666727
C160	C	-0.472725	-0.837311	0.000025
C161	C	-0.139392	-0.503978	0.333358
C162	C	0.193942	-0.170644	0.666692
C163	C	-0.523141	-0.836427	0.000018
C164	C	-0.189808	-0.503094	0.333351
C165	C	0.143525	-0.169760	0.666684
C166	C	-0.554102	-0.912575	0.000024
C167	C	-0.220769	-0.579242	0.333358
C168	C	0.112564	-0.245908	0.666691
C169	C	0.154554	-0.984099	0.000051
C170	C	0.487888	-0.650766	0.333385
C171	C	0.821221	-0.317432	0.666718
C172	C	0.208213	-0.985059	0.000038
C173	C	0.541547	-0.651726	0.333371
C174	C	0.874880	-0.318393	0.666704
N175	N	0.066198	-0.991354	0.219549
N176	N	0.399531	-0.658020	0.552882
N177	N	0.732864	-0.324687	0.886216
C178	C	0.020466	-0.530305	0.000081
C179	C	0.353800	-0.196971	0.333415
C180	C	0.687133	0.136362	0.666748
C181	C	0.042882	-0.469002	-0.075965
C182	C	0.376215	-0.135669	0.257368
C183	C	0.709549	0.197665	0.590702
C184	C	0.067019	-0.573827	0.000062
C185	C	0.400352	-0.240493	0.333395
C186	C	0.733686	0.092840	0.666729
C187	C	0.042904	-0.469003	0.076087
C188	C	0.376237	-0.135669	0.409421
C189	C	0.709570	0.197664	0.742754
C190	C	0.065344	-0.408936	0.000077
C191	C	0.398677	-0.075602	0.333411
C192	C	0.732011	0.257731	0.666744
C193	C	0.089447	-0.513752	-0.076047
C194	C	0.422781	-0.180419	0.257286
C195	C	0.756114	0.152915	0.590620
C196	C	0.089463	-0.513759	0.076074
C197	C	0.422796	-0.180426	0.409407
C198	C	0.756129	0.152907	0.742740
C199	C	0.111912	-0.452474	0.000009
C200	C	0.445246	-0.119140	0.333342
C201	C	0.778579	0.214193	0.666676
C202	C	0.067983	-0.668816	0.000053
C203	C	0.401316	-0.335483	0.333386
C204	C	0.734649	-0.002150	0.666719
C205	C	0.064384	-0.313947	0.000080
C206	C	0.397717	0.019386	0.333413
C207	C	0.731051	0.352719	0.666747
N208	N	0.066163	-0.991409	-0.219401
N209	N	0.399496	-0.658076	0.113933
N210	N	0.732830	-0.324743	0.447266
C211	C	0.100495	-0.931267	0.469189
C212	C	0.433829	-0.597934	0.802522
C213	C	0.767162	-0.264600	1.135855
C214	C	0.109880	-1.007044	0.530996
C215	C	0.443213	-0.673711	0.864329
C216	C	0.776546	-0.340378	1.197663
C217	C	0.066186	-0.991374	0.408710
C218	C	0.399519	-0.658041	0.742044
C219	C	0.732853	-0.324708	1.075377
C220	C	0.056813	-0.915616	0.530997
C221	C	0.390147	-0.582283	0.864330
C222	C	0.723480	-0.248950	1.197664
C223	C	0.066176	-0.991387	0.591432
C224	C	0.399509	-0.658054	0.924765
C225	C	0.732843	-0.324721	1.258099
C226	C	0.075592	-1.067190	0.469157
C227	C	0.408925	-0.733856	0.802490
C228	C	0.742259	-0.400523	1.135824
C229	C	0.022507	-0.975712	0.469153
C230	C	0.355840	-0.642379	0.802486
C231	C	0.689173	-0.309046	1.135819
C232	C	0.031872	-1.051545	0.530932
C233	C	0.365206	-0.718211	0.864265
C234	C	0.698539	-0.384878	1.197599
C235	C	0.066193	-0.991366	0.303449
C236	C	0.399526	-0.658032	0.636783
C237	C	0.732860	-0.324699	0.970116
C238	C	0.066169	-0.991405	0.696691
C239	C	0.399502	-0.658072	1.030024
C240	C	0.732835	-0.324738	1.363357
H241	H	-0.090973	-1.136586	0.000125
H242	H	0.242360	-0.803253	0.333458
H243	H	0.575693	-0.469919	0.666792
H244	H	0.023210	-0.449165	0.140376
H245	H	0.356543	-0.115832	0.473710
H246	H	0.689877	0.217501	0.807043
H247	H	0.150587	-0.418809	-0.000044
H248	H	0.483920	-0.085476	0.333290
H249	H	0.817254	0.247857	0.666623
F250	F	-0.190173	-1.154021	0.000097
F251	F	0.143160	-0.820688	0.333431
F252	F	0.476494	-0.487354	0.666764
H253	H	0.048890	-0.851544	0.558163
H254	H	0.382224	-0.518211	0.891496
H255	H	0.715557	-0.184877	1.224830
H256	H	-0.776661	-0.846175	0.000034
H257	H	-0.443327	-0.512841	0.333367
H258	H	-0.109994	-0.179508	0.666700
H259	H	0.129533	-0.880487	0.442079
H260	H	0.462866	-0.547154	0.775412
H261	H	0.796200	-0.213820	1.108745
H262	H	-0.014416	-0.962429	0.441967
H263	H	0.318917	-0.629096	0.775300
H264	H	0.652251	-0.295762	1.108634
F265	F	-0.323789	-1.228356	0.000083
F266	F	0.009544	-0.895022	0.333416
F267	F	0.342878	-0.561689	0.666750
F268	F	-0.427847	-1.226518	0.000084
F269	F	-0.094514	-0.893185	0.333417
F270	F	0.238820	-0.559852	0.666751
H271	H	0.023187	-0.449158	-0.140246
H272	H	0.356521	-0.115825	0.193087
H273	H	0.689854	0.217508	0.526420
F274	F	-0.701210	-1.144995	0.000069
F275	F	-0.367877	-0.811662	0.333403
F276	F	-0.034544	-0.478329	0.666736
F277	F	-0.006059	-1.118062	0.566150
F278	F	0.327274	-0.784728	0.899483
F279	F	0.660608	-0.451395	1.232816
H280	H	0.146814	-1.020304	0.558160
H281	H	0.480147	-0.686970	0.891493
H282	H	0.813481	-0.353637	1.224827
H283	H	-0.797547	-1.124107	0.000051
H284	H	-0.464214	-0.790774	0.333385
H285	H	-0.130880	-0.457441	0.666718
H286	H	0.109141	-0.533624	0.140358
H287	H	0.442474	-0.200291	0.473692
H288	H	0.775808	0.133042	0.807025
F289	F	-0.392581	-0.757079	0.000002
F290	F	-0.059248	-0.423746	0.333335
F291	F	0.274086	-0.090412	0.666668
H292	H	0.109118	-0.533491	-0.140408
H293	H	0.442451	-0.200158	0.192925
H294	H	0.775785	0.133175	0.526258
H295	H	0.083559	-1.131276	0.442107
H296	H	0.416893	-0.797942	0.775441
H297	H	0.750226	-0.464609	1.108774
H298	H	-0.685203	-0.847786	0.000019
H299	H	-0.351870	-0.514453	0.333353
H300	H	-0.018537	-0.181120	0.666686
H301	H	-0.296260	-0.777965	0.000009
H302	H	0.037073	-0.444631	0.333342
H303	H	0.370407	-0.111298	0.666676
H304	H	-0.538976	-0.773684	0.000013
H305	H	-0.205642	-0.440350	0.333346
H306	H	0.127691	-0.107017	0.666679
F307	F	-0.166432	-0.837770	0.000082
F308	F	0.166901	-0.504437	0.333415
F309	F	0.500235	-0.171103	0.666749
H310	H	-0.571368	-1.204796	0.000062
H311	H	-0.238034	-0.871462	0.333395
H312	H	0.095299	-0.538129	0.666728
F313	F	-0.439780	-0.756259	0.000015
F314	F	-0.106447	-0.422926	0.333348
F315	F	0.226887	-0.089593	0.666682
H316	H	-0.070093	-0.858655	0.000088
H317	H	0.263240	-0.525321	0.333421
H318	H	0.596574	-0.191988	0.666754
H319	H	-0.479900	-1.206421	0.000073
H320	H	-0.146566	-0.873088	0.333407
H321	H	0.186767	-0.539754	0.666740
H322	H	-0.018169	-0.564143	-0.000003
H323	H	0.315165	-0.230809	0.333331
H324	H	0.648498	0.102524	0.666664
