data_functionalizedCrystal
_audit_creation_method	'MofGen! by Chris Wilmer'
_symmetry_space_group_name_H-M	'P1'
_symmetry_Int_Tables_number	1
_symmetry_cell_setting	triclinic
loop_
_symmetry_equiv_pos_as_xyz
  x,y,z
_cell_length_a	6.817900
_cell_length_b	9.582860
_cell_length_c	12.200875
_cell_angle_alpha	91.576811
_cell_angle_beta	107.143593
_cell_angle_gamma	111.206767
loop_
_atom_site_label
_atom_site_type_symbol
_atom_site_fract_x
_atom_site_fract_y
_atom_site_fract_z
V1	V	-4.108298	-0.207395	-0.357450
V2	V	-3.608298	0.292605	0.142550
O3	O	-4.053186	0.009616	-0.350862
O4	O	-3.553186	0.509616	0.149138
O5	O	-4.098761	-0.410894	-0.354798
O6	O	-3.598761	0.089106	0.145202
O7	O	-4.077436	-0.204359	-0.513442
O8	O	-3.577436	0.295641	-0.013442
O9	O	-4.074658	-0.198348	-0.191120
O10	O	-3.574658	0.301652	0.308880
V11	V	-4.584618	-0.181420	-0.337581
V12	V	-4.084618	0.318580	0.162419
O13	O	-4.385358	-0.264374	-0.401035
O14	O	-3.885358	0.235626	0.098965
O15	O	-4.757756	-0.124441	-0.293997
O16	O	-4.257756	0.375559	0.206003
O17	O	-4.370949	0.022078	-0.340234
O18	O	-3.870949	0.522078	0.159766
O19	O	-4.757128	-0.398432	-0.344169
O20	O	-4.257128	0.101568	0.155831
O21	O	-4.735655	-0.190467	-0.503912
O22	O	-4.235655	0.309533	-0.003912
O23	O	-4.392274	-0.184457	-0.181590
O24	O	-3.892274	0.315543	0.318410
C25	C	-3.952649	-0.460497	-0.349105
C26	C	-3.452649	0.039503	0.150895
C27	C	-4.026255	-0.626861	-0.347976
C28	C	-3.526255	-0.126861	0.152024
C29	C	-3.925445	-0.197040	-0.551470
C30	C	-3.425445	0.302960	-0.051470
C31	C	-3.981752	-0.195903	-0.678992
C32	C	-3.481752	0.304097	-0.178992
C33	C	-4.084803	-0.193825	-0.912469
C34	C	-3.584803	0.306175	-0.412469
C35	C	-4.027450	-0.194981	-0.782546
C36	C	-3.527450	0.305019	-0.282546
C37	C	-4.180404	0.071674	-0.345923
C38	C	-3.680404	0.571674	0.154077
C39	C	-4.086038	0.238036	-0.347060
C40	C	-3.586038	0.738036	0.152940
C41	C	-4.207607	-0.191781	-0.143556
C42	C	-3.707607	0.308219	0.356444
C43	C	-4.130537	-0.192909	-0.016032
C44	C	-3.630537	0.307091	0.483968
