data_functionalizedCrystal
_audit_creation_method	'MofGen! by Chris Wilmer'
_symmetry_space_group_name_H-M	'P1'
_symmetry_Int_Tables_number	1
_symmetry_cell_setting	triclinic
loop_
_symmetry_equiv_pos_as_xyz
  x,y,z
_cell_length_a	19.288864
_cell_length_b	19.288855
_cell_length_c	17.766277
_cell_angle_alpha	90.008954
_cell_angle_beta	89.976791
_cell_angle_gamma	96.865756
loop_
_atom_site_label
_atom_site_type_symbol
_atom_site_fract_x
_atom_site_fract_y
_atom_site_fract_z
O1	O	0.921350	-0.086649	-0.062840
O2	O	0.719089	-0.098338	-0.062789
O3	O	0.826067	0.008637	-0.062806
O4	O	0.814372	-0.193624	-0.062823
O5	O	0.826049	0.008643	0.062383
O6	O	0.719070	-0.098333	0.062400
O7	O	0.921331	-0.086644	0.062349
Cu8	Cu	0.820199	-0.092488	0.073805
Cu9	Cu	0.820221	-0.092494	-0.074245
O10	O	0.814353	-0.193619	0.062366
C11	C	0.693203	-0.097959	-0.000188
C12	C	0.616100	-0.096830	-0.000168
C13	C	0.825683	0.034517	-0.000211
C14	C	0.824557	0.111620	-0.000208
C15	C	0.571401	-0.159598	-0.000185
C16	C	0.498954	-0.158538	-0.000193
C17	C	0.471209	-0.094705	-0.000200
C18	C	0.515917	-0.031929	-0.000178
C19	C	0.588363	-0.032991	-0.000163
C20	C	0.362955	-0.044528	-0.044080
C21	C	0.290511	-0.043468	-0.044100
C22	C	0.247763	-0.091426	-0.000245
C23	C	0.277468	-0.140455	0.043621
C24	C	0.349913	-0.141517	0.043637
C25	C	0.392655	-0.093546	-0.000216
C26	C	0.124509	-0.153048	-0.000270
C27	C	0.052061	-0.151985	-0.000274
C28	C	0.069026	-0.025374	-0.000266
C29	C	0.141472	-0.026439	-0.000255
C30	C	0.169209	-0.090278	-0.000260
C31	C	0.947217	-0.087023	-0.000254
C32	C	1.024321	-0.088152	-0.000279
C33	C	0.824041	0.147828	-0.068448
C34	C	0.822973	0.220274	-0.068452
C35	C	0.822434	0.256512	-0.000213
C36	C	0.822946	0.220295	0.068036
C37	C	0.824007	0.147849	0.068039
C38	C	0.861429	0.376746	0.052053
C39	C	0.860372	0.449190	0.052047
C40	C	0.819158	0.479958	-0.000219
C41	C	0.779010	0.438273	-0.052492
C42	C	0.780071	0.365827	-0.052490
C43	C	0.821283	0.335067	-0.000209
C44	C	0.817484	0.594720	-0.068469
C45	C	0.816411	0.667167	-0.068471
C46	C	0.816391	0.667187	0.068019
C47	C	0.817456	0.594740	0.068019
C48	C	0.818006	0.558512	-0.000227
C49	C	0.814739	0.780502	-0.000229
C50	C	0.815871	0.703399	-0.000231
N51	N	0.820189	-0.092483	0.177935
N52	N	0.820237	-0.092493	-0.178375
C53	C	0.867574	-0.045137	0.217315
C54	C	0.867578	-0.045134	0.296116
C55	C	0.820203	-0.092488	0.335536
C56	C	0.772809	-0.139837	0.296147
C57	C	0.772802	-0.139835	0.217347
C58	C	0.810902	-0.155776	0.460370
C59	C	0.810914	-0.155780	0.539169
C60	C	0.820222	-0.092497	0.578582
C61	C	0.829532	-0.029207	0.539187
C62	C	0.829524	-0.029204	0.460387
C63	C	0.820206	-0.092496	0.420981
C64	C	0.867614	-0.045144	0.703407
C65	C	0.867613	-0.045140	0.782211
C66	C	0.772848	-0.139849	0.782240
C67	C	0.772845	-0.139847	0.703438
C68	C	0.820232	-0.092495	0.664027
H69	H	0.593980	-0.211581	-0.000191
H70	H	0.374096	-0.181437	0.079356
Cl71	Cl	0.159382	-0.233301	-0.000269
Cl72	Cl	0.824727	0.102287	-0.154243
Cl73	Cl	0.913264	0.338077	0.117749
H74	H	0.734235	-0.178393	0.328246
H75	H	0.906197	-0.006585	0.671317
Cl76	Cl	0.822263	0.265849	0.153822
H77	H	0.734272	-0.178403	0.814334
H78	H	0.824424	0.118369	0.123609
H79	H	0.734214	-0.178390	0.185283
Cl80	Cl	0.442751	-0.237452	-0.000213
Cl81	Cl	0.927141	0.014393	0.167769
H82	H	0.177867	0.024674	-0.000245
H83	H	0.046436	0.026600	-0.000318
Cl84	Cl	0.223736	-0.200749	0.098757
H85	H	0.906198	-0.006581	0.814274
Cl86	Cl	0.818104	0.549219	0.153812
H87	H	0.906166	-0.006578	0.328185
Cl88	Cl	0.818169	0.549171	-0.154262
H89	H	0.837110	0.022325	0.571275
H90	H	0.015667	-0.203100	-0.000283
H91	H	0.734262	-0.178403	0.671373
Cl92	Cl	0.841220	0.050356	0.410864
H93	H	0.266331	-0.003548	-0.079822
H94	H	0.397755	-0.005473	-0.079797
H95	H	0.803338	-0.207314	0.571238
Cl96	Cl	0.799265	-0.235342	0.410830
H97	H	0.624757	0.018124	-0.000149
Cl98	Cl	0.481038	0.048318	-0.000182
Cl99	Cl	0.729599	0.313425	-0.118198
H100	H	0.822549	0.249760	-0.124023
Cl101	Cl	0.727191	0.476942	-0.118200
Cl102	Cl	0.815758	0.712685	-0.154267
H103	H	0.815947	0.696690	0.123581
H104	H	0.893066	0.483126	0.094609
