data_functionalizedCrystal
_audit_creation_method	'MofGen! by Chris Wilmer'
_symmetry_space_group_name_H-M	'P1'
_symmetry_Int_Tables_number	1
_symmetry_cell_setting	triclinic
loop_
_symmetry_equiv_pos_as_xyz
  x,y,z
_cell_length_a	13.897449
_cell_length_b	18.101395
_cell_length_c	13.897441
_cell_angle_alpha	90.030698
_cell_angle_beta	90.020733
_cell_angle_gamma	90.032384
loop_
_atom_site_label
_atom_site_type_symbol
_atom_site_fract_x
_atom_site_fract_y
_atom_site_fract_z
Zn1	Zn	1.474613	-0.294781	0.545380
Zn2	Zn	1.974613	0.205219	1.045380
Zn3	Zn	1.474469	-0.418636	0.384082
Zn4	Zn	1.974469	0.081364	0.884082
Zn5	Zn	1.313302	-0.294816	0.384099
Zn6	Zn	1.813302	0.205184	0.884099
Zn7	Zn	1.313246	-0.418588	0.545334
Zn8	Zn	1.813246	0.081412	1.045334
O9	O	1.393907	-0.356705	0.464724
O10	O	1.893907	0.143295	0.964724
O11	O	1.609575	-0.311216	0.523996
O12	O	2.109575	0.188784	1.023996
O13	O	1.453053	-0.402246	0.249102
O14	O	1.953053	0.097754	0.749102
O15	O	1.334784	-0.191178	0.405520
O16	O	1.834784	0.308822	0.905520
O17	O	1.609470	-0.402212	0.405490
O18	O	2.109470	0.097788	0.905490
O19	O	1.453298	-0.191152	0.524013
O20	O	1.953298	0.308848	1.024013
O21	O	1.334644	-0.311276	0.249115
O22	O	1.834644	0.188724	0.749115
O23	O	1.178313	-0.311229	0.405475
O24	O	1.678313	0.188771	0.905475
O25	O	1.334688	-0.402129	0.680322
O26	O	1.834688	0.097871	1.180322
O27	O	1.178272	-0.402164	0.523934
O28	O	1.678272	0.097836	1.023934
O29	O	1.453244	-0.311169	0.680356
O30	O	1.953244	0.188831	1.180356
O31	O	1.452999	-0.522263	0.405445
O32	O	1.952999	-0.022263	0.905445
O33	O	1.334549	-0.522227	0.523917
O34	O	1.834549	-0.022227	1.023917
C35	C	1.143293	-0.356695	0.464702
C36	C	1.643293	0.143305	0.964702
C37	C	1.036079	-0.356709	0.464715
C38	C	1.536079	0.143291	0.964715
C39	C	0.839784	-0.356712	0.464741
C40	C	1.339784	0.143288	0.964741
C41	C	0.949016	-0.356708	0.464724
C42	C	1.449016	0.143292	0.964724
C43	C	1.393778	-0.549116	0.464695
C44	C	1.893778	-0.049116	0.964695
C45	C	1.393811	-0.631430	0.464716
C46	C	1.893811	-0.131430	0.964716
C47	C	1.394023	-0.930521	0.464767
C48	C	1.894023	-0.430521	0.964767
C49	C	1.319670	-0.899204	0.539492
C50	C	1.819670	-0.399204	1.039492
C51	C	1.319317	-0.813586	0.539258
C52	C	1.819317	-0.313586	1.039258
C53	C	1.393918	-0.782138	0.464743
C54	C	1.893918	-0.282138	0.964743
C55	C	1.366392	-0.813295	0.363084
C56	C	1.866392	-0.313295	0.863084
C57	C	1.365913	-0.898940	0.363531
C58	C	1.865913	-0.398940	0.863531
C59	C	1.496064	-0.898862	0.490807
C60	C	1.996064	-0.398862	0.990807
C61	C	1.495464	-0.813210	0.493037
C62	C	1.995464	-0.313210	0.993037
C63	C	1.393860	-0.698279	0.464722
C64	C	1.893860	-0.198279	0.964722
C65	C	1.394078	-1.014380	0.464781
C66	C	1.894078	-0.514380	0.964781
C67	C	1.645500	-0.356716	0.464746
C68	C	2.145500	0.143284	0.964746
C69	C	1.752714	-0.356720	0.464756
C70	C	2.252714	0.143280	0.964756
C71	C	1.393976	-0.356640	0.716317
C72	C	1.893976	0.143360	1.216317
C73	C	1.394005	-0.356612	0.823531
C74	C	1.894005	0.143388	1.323531
C75	C	1.394063	-0.163543	0.464773
C76	C	1.894063	0.336457	0.964773
C77	C	1.394130	-0.081229	0.464795
C78	C	1.894130	0.418771	0.964795
C79	C	1.393895	-0.356717	0.214109
C80	C	1.893895	0.143283	0.714109
C81	C	1.394052	-0.356536	0.106896
C82	C	1.894052	0.143464	0.606896
C83	C	1.394031	-0.356562	1.019826
C84	C	1.894031	0.143438	1.519826
C85	C	1.394014	-0.356592	0.910594
C86	C	1.894014	0.143408	1.410594
H87	H	1.336722	-0.919748	0.615115
H88	H	1.836722	-0.419748	1.115115
H89	H	1.553792	-0.791799	0.442578
H90	H	2.053792	-0.291799	0.942578
O91	O	1.435866	-0.786321	0.287318
O92	O	1.935866	-0.286321	0.787318
H93	H	1.396011	-0.754452	0.231959
H94	H	1.896011	-0.254452	0.731959
O95	O	1.529302	-0.927388	0.587334
O96	O	2.029302	-0.427388	1.087334
H97	H	1.597482	-0.958503	0.578145
H98	H	2.097482	-0.458503	1.078145
O99	O	1.268633	-0.784976	0.333334
O100	O	1.768633	-0.284976	0.833334
H101	H	1.219253	-0.832390	0.321893
H102	H	1.719253	-0.332390	0.821893
O103	O	1.569373	-0.925776	0.418704
O104	O	2.069373	-0.425776	0.918704
H105	H	1.602682	-0.877680	0.382045
H106	H	2.102682	-0.377680	0.882045
O107	O	1.342070	-0.785694	0.639127
O108	O	1.842070	-0.285694	1.139127
H109	H	1.414113	-0.805967	0.661255
H110	H	1.914113	-0.305967	1.161255
O111	O	1.220084	-0.927784	0.516933
O112	O	1.720084	-0.427784	1.016933
H113	H	1.223313	-0.964196	0.452730
H114	H	1.723313	-0.464196	0.952730
O115	O	1.219139	-0.786525	0.516386
O116	O	1.719139	-0.286525	1.016386
H117	H	1.170758	-0.834611	0.505441
H118	H	1.670758	-0.334611	1.005441
H119	H	1.291321	-0.918985	0.341472
H120	H	1.791321	-0.418985	0.841472
O121	O	1.522982	-0.786223	0.592128
O122	O	2.022982	-0.286223	1.092128
H123	H	1.464588	-0.750824	0.621113
H124	H	1.964588	-0.250824	1.121113
H125	H	1.417719	-0.919659	0.305957
H126	H	1.917719	-0.419659	0.805957
