data_functionalizedCrystal
_audit_creation_method	'MofGen! by Chris Wilmer'
_symmetry_space_group_name_H-M	'P1'
_symmetry_Int_Tables_number	1
_symmetry_cell_setting	triclinic
loop_
_symmetry_equiv_pos_as_xyz
  x,y,z
_cell_length_a	18.215407
_cell_length_b	13.897448
_cell_length_c	18.215399
_cell_angle_alpha	89.971263
_cell_angle_beta	89.983176
_cell_angle_gamma	90.018140
loop_
_atom_site_label
_atom_site_type_symbol
_atom_site_fract_x
_atom_site_fract_y
_atom_site_fract_z
Zn1	Zn	1.125087	-0.383990	-0.416124
Zn2	Zn	1.625087	0.116010	0.083876
Zn3	Zn	1.125017	-0.545307	-0.293061
Zn4	Zn	1.625017	-0.045307	0.206939
Zn5	Zn	1.002026	-0.384029	-0.293072
Zn6	Zn	1.502026	0.115971	0.206928
Zn7	Zn	1.002001	-0.545246	-0.416086
Zn8	Zn	1.502001	-0.045246	0.083914
O9	O	1.063533	-0.464643	-0.354586
O10	O	1.563533	0.035357	0.145414
O11	O	1.228062	-0.405399	-0.399811
O12	O	1.728062	0.094601	0.100189
O13	O	1.108684	-0.523954	-0.190078
O14	O	1.608684	-0.023954	0.309922
O15	O	1.018390	-0.249042	-0.309415
O16	O	1.518390	0.250958	0.190585
O17	O	1.228011	-0.523917	-0.309398
O18	O	1.728011	-0.023917	0.190602
O19	O	1.108802	-0.249014	-0.399821
O20	O	1.608802	0.250986	0.100179
O21	O	1.018322	-0.405464	-0.190086
O22	O	1.518322	0.094536	0.309914
O23	O	0.899038	-0.405405	-0.309378
O24	O	1.399038	0.094595	0.190622
O25	O	1.018347	-0.523814	-0.519076
O26	O	1.518347	-0.023814	-0.019076
O27	O	0.899020	-0.523851	-0.399757
O28	O	1.399020	-0.023851	0.100243
O29	O	1.108778	-0.405340	-0.519103
O30	O	1.608778	0.094660	-0.019103
O31	O	1.108659	-0.680280	-0.309361
O32	O	1.608659	-0.180280	0.190639
O33	O	1.018279	-0.680236	-0.399747
O34	O	1.518279	-0.180236	0.100253
C35	C	0.872326	-0.464627	-0.354565
C36	C	1.372326	0.035373	0.145435
C37	C	0.790528	-0.464643	-0.354573
C38	C	1.290528	0.035357	0.145427
C39	C	1.063479	-0.715257	-0.354565
C40	C	1.563479	-0.215257	0.145435
C41	C	1.063523	-0.822471	-0.354580
C42	C	1.563523	-0.322471	0.145420
C43	C	0.602343	-0.526414	-0.401574
C44	C	1.102343	-0.026414	0.098426
C45	C	0.525485	-0.526417	-0.401583
C46	C	1.025485	-0.026417	0.098417
C47	C	0.525474	-0.402889	-0.307614
C48	C	1.025474	0.097111	0.192386
C49	C	0.602331	-0.402882	-0.307609
C50	C	1.102331	0.097118	0.192391
C51	C	0.640764	-0.464650	-0.354588
C52	C	1.140764	0.035350	0.145412
C53	C	0.487048	-0.464660	-0.354602
C54	C	0.987048	0.035340	0.145398
C55	C	0.403714	-0.464663	-0.354612
C56	C	0.903714	0.035337	0.145388
C57	C	0.724103	-0.464646	-0.354579
C58	C	1.224103	0.035354	0.145421
C59	C	1.063601	-1.018766	-0.354626
C60	C	1.563601	-0.518766	0.145374
C61	C	1.063556	-0.909534	-0.354603
C62	C	1.563556	-0.409534	0.145397
C63	C	1.255486	-0.464660	-0.354607
C64	C	1.755486	0.035340	0.145393
C65	C	1.337284	-0.464668	-0.354617
C66	C	1.837284	0.035332	0.145383
C67	C	1.063567	-0.464566	-0.546539
C68	C	1.563567	0.035434	-0.046539
C69	C	1.063582	-0.464533	-0.628338
C70	C	1.563582	0.035467	-0.128338
C71	C	1.063607	-0.213050	-0.354623
C72	C	1.563607	0.286950	0.145377
C73	C	1.063638	-0.105836	-0.354639
C74	C	1.563638	0.394164	0.145361
C75	C	1.016571	-0.402794	-0.816537
C76	C	1.516571	0.097206	-0.316537
C77	C	1.016584	-0.402774	-0.893395
C78	C	1.516584	0.097226	-0.393395
C79	C	1.110682	-0.526158	-0.893377
C80	C	1.610682	-0.026158	-0.393377
C81	C	1.110665	-0.526181	-0.816520
C82	C	1.610665	-0.026181	-0.316520
C83	C	1.063610	-0.464494	-0.778101
C84	C	1.563610	0.035506	-0.278101
C85	C	1.063640	-0.464451	-0.931818
C86	C	1.563640	0.035549	-0.431818
C87	C	1.063654	-0.464430	-1.015151
C88	C	1.563654	0.035570	-0.515151
C89	C	1.063595	-0.464515	-0.694762
C90	C	1.563595	0.035485	-0.194762
C91	C	1.063540	-0.464650	-0.163380
C92	C	1.563540	0.035350	0.336620
C93	C	1.063668	-0.464411	-0.081581
C94	C	1.563668	0.035589	0.418419
H95	H	0.633633	-0.576708	-0.439829
H96	H	1.133633	-0.076708	0.060171
H97	H	1.148971	-0.576429	-0.785225
H98	H	1.648971	-0.076429	-0.285225
H99	H	0.494206	-0.576711	-0.439845
H100	H	0.994206	-0.076711	0.060155
H101	H	0.494173	-0.352601	-0.269364
H102	H	0.994173	0.147399	0.230636
H103	H	0.633615	-0.352580	-0.269347
H104	H	1.133615	0.147420	0.230653
H105	H	0.978279	-0.352533	-0.924686
H106	H	1.478279	0.147467	-0.424686
H107	H	0.978256	-0.352564	-0.785259
H108	H	1.478256	0.147436	-0.285259
H109	H	1.148992	-0.576381	-0.924666
H110	H	1.648992	-0.076381	-0.424666
