data_functionalizedCrystal
_audit_creation_method	'MofGen! by Chris Wilmer'
_symmetry_space_group_name_H-M	'P1'
_symmetry_Int_Tables_number	1
_symmetry_cell_setting	triclinic
loop_
_symmetry_equiv_pos_as_xyz
  x,y,z
_cell_length_a	16.109301
_cell_length_b	10.654541
_cell_length_c	15.186229
_cell_angle_alpha	89.996481
_cell_angle_beta	89.999362
_cell_angle_gamma	83.972705
loop_
_atom_site_label
_atom_site_type_symbol
_atom_site_fract_x
_atom_site_fract_y
_atom_site_fract_z
O1	O	1.104089	0.161419	-0.073172
O2	O	0.862147	0.181508	-0.073186
O3	O	0.988682	-0.011352	-0.073174
O4	O	0.977554	0.354278	-0.073185
O5	O	0.988673	-0.011354	0.073284
O6	O	0.862138	0.181505	0.073271
O7	O	1.104081	0.161416	0.073285
Zn8	Zn	0.983108	0.171460	0.096531
Zn9	Zn	0.983119	0.171464	-0.096433
O10	O	0.977546	0.354276	0.073272
C11	C	0.831163	0.180692	0.000040
C12	C	0.738853	0.178253	0.000035
C13	C	0.517227	0.287019	0.000042
C14	C	0.430493	0.284717	0.000048
C15	C	0.449008	0.055896	0.000051
C16	C	0.535740	0.058200	0.000052
C17	C	0.569847	0.173765	0.000043
C18	C	0.396381	0.169159	0.000048
C19	C	0.302340	0.166662	0.000054
C20	C	0.663894	0.176262	0.000038
C21	C	0.987861	-0.058140	0.000054
C22	C	0.985418	-0.197550	0.000053
C23	C	1.136725	-0.227574	0.000073
C24	C	1.211227	-0.308079	0.000084
C25	C	1.208926	-0.439066	0.000081
C26	C	1.132115	-0.489549	0.000064
C27	C	1.057613	-0.409044	0.000053
C28	C	1.059922	-0.278056	0.000058
C29	C	0.906308	-0.379021	0.000026
C30	C	0.908607	-0.248034	0.000036
C31	C	0.829496	-0.429504	0.000009
C32	C	0.754992	-0.348998	0.000004
C33	C	0.757296	-0.218004	0.000008
C34	C	0.834104	-0.167529	0.000024
C35	C	1.135065	0.162231	0.000056
C36	C	1.227375	0.164671	0.000055
C37	C	0.978367	0.401064	0.000042
C38	C	0.980810	0.540474	0.000038
N39	N	0.983107	0.171457	0.228224
N40	N	0.983128	0.171457	-0.228125
C41	C	1.039156	0.086088	0.453952
C42	C	1.039158	0.086085	0.546142
C43	C	0.927072	0.256830	0.546140
C44	C	0.927066	0.256826	0.453952
C45	C	0.983113	0.171456	0.407860
C46	C	0.983121	0.171458	0.592238
C47	C	0.983124	0.171455	0.692194
C48	C	0.983110	0.171457	0.307898
H49	H	0.387652	0.376940	0.000049
H50	H	1.273765	-0.266961	0.000106
H51	H	0.544993	0.381120	0.000041
O52	O	0.872669	0.339932	0.590815
C53	C	0.825237	0.558279	0.619045
C54	C	0.886884	0.464302	0.568385
H55	H	0.836720	0.658852	0.600943
H56	H	0.758538	0.541985	0.600907
H57	H	0.834853	0.543560	0.692849
H58	H	0.877344	0.478965	0.494570
H59	H	0.953561	0.480619	0.586596
H60	H	0.421227	-0.038193	0.000064
H61	H	0.881426	0.326344	0.416421
O62	O	0.680457	-0.398246	0.000024
C63	C	0.609857	-0.586740	-0.000059
C64	C	0.694325	-0.531131	-0.000063
H65	H	0.621040	-0.694184	-0.000148
H66	H	0.572979	-0.553694	0.061245
H67	H	0.573011	-0.553495	-0.061339
H68	H	0.731239	-0.564350	0.061176
H69	H	0.731140	-0.564170	-0.061407
H70	H	0.578586	-0.034032	0.000055
O71	O	1.093460	0.003053	0.409101
C72	C	1.110100	-0.168593	0.305136
C73	C	1.048521	-0.074569	0.355842
H74	H	1.073791	-0.231393	0.262078
H75	H	1.151959	-0.114504	0.261889
H76	H	1.150146	-0.229549	0.353958
H77	H	1.008421	-0.013590	0.307083
H78	H	1.006720	-0.128736	0.399102
O79	O	1.093521	0.003208	0.591052
C80	C	1.143240	-0.072417	0.733071
C81	C	1.081616	0.021495	0.682322
H82	H	1.133648	-0.057647	0.806871
H83	H	1.131830	-0.173037	0.715015
H84	H	1.209911	-0.056033	0.714887
H85	H	1.014920	0.005226	0.700479
H86	H	1.093098	0.122082	0.700382
H87	H	1.138606	-0.120919	0.000087
H88	H	1.269593	-0.504614	0.000084
O89	O	0.684845	-0.139984	0.000033
C90	C	0.534523	-0.124045	-0.000057
C91	C	0.616512	-0.212540	-0.000063
H92	H	0.479255	-0.182671	-0.000153
H93	H	0.531745	-0.062001	0.061251
H94	H	0.531877	-0.061937	-0.061333
H95	H	0.619213	-0.274727	0.061171
H96	H	0.619256	-0.274498	-0.061412
H97	H	1.130248	-0.596207	0.000051
H98	H	0.827628	-0.536161	0.000001
H99	H	0.835988	-0.060874	0.000032
