data_functionalizedCrystal
_audit_creation_method	'MofGen! by Chris Wilmer'
_symmetry_space_group_name_H-M	'P1'
_symmetry_Int_Tables_number	1
_symmetry_cell_setting	triclinic
loop_
_symmetry_equiv_pos_as_xyz
  x,y,z
_cell_length_a	12.759394
_cell_length_b	10.686220
_cell_length_c	10.686551
_cell_angle_alpha	89.691918
_cell_angle_beta	85.593446
_cell_angle_gamma	85.603467
loop_
_atom_site_label
_atom_site_type_symbol
_atom_site_fract_x
_atom_site_fract_y
_atom_site_fract_z
Zn1	Zn	-0.256139	-1.972288	-0.562381
Zn2	Zn	-0.446299	-1.956059	-0.352619
Zn3	Zn	-0.283015	-1.746406	-0.368698
Zn4	Zn	-0.444170	-1.762489	-0.578397
O5	O	-0.357405	-1.859311	-0.465524
O6	O	-0.271007	-2.145677	-0.521124
O7	O	-0.436778	-1.914725	-0.179206
O8	O	-0.132423	-1.776431	-0.394417
O9	O	-0.410717	-2.133754	-0.367013
O10	O	-0.112677	-1.942386	-0.536715
O11	O	-0.316813	-1.760695	-0.191020
O12	O	-0.314749	-1.572998	-0.409947
O13	O	-0.407088	-1.803842	-0.751818
O14	O	-0.433149	-1.584814	-0.564012
O15	O	-0.268943	-1.957980	-0.740052
O16	O	-0.593043	-1.930320	-0.382543
O17	O	-0.591479	-1.788105	-0.548421
C18	C	-0.376635	-1.533390	-0.490463
C19	C	-0.384885	-1.393962	-0.501162
C20	C	-0.630379	-1.859233	-0.465499
C21	C	-0.747149	-1.859318	-0.465522
C22	C	-0.334780	-1.884515	-0.792725
C23	C	-0.325138	-1.895256	-0.932158
C24	C	-0.748709	-2.007536	-0.292904
C25	C	-0.804347	-2.081679	-0.206608
C26	C	-0.914062	-2.081755	-0.206636
C27	C	-0.968141	-2.007683	-0.292973
C28	C	-0.912503	-1.933540	-0.379270
C29	C	-0.802786	-1.933469	-0.379229
C30	C	-0.910942	-1.785331	-0.551891
C31	C	-0.801228	-1.785246	-0.551859
C32	C	-0.965022	-1.711259	-0.638228
C33	C	-0.909384	-1.637107	-0.724521
C34	C	-0.799663	-1.637033	-0.724488
C35	C	-0.745590	-1.711103	-0.638155
C36	C	-0.083362	-1.859425	-0.465573
C37	C	0.033420	-1.859473	-0.465595
C38	C	-0.338102	-2.186504	-0.440489
C39	C	-0.329875	-2.325934	-0.429820
C40	C	-0.379863	-1.834276	-0.139591
C41	C	-0.389194	-1.823778	-0.000139
H42	H	-0.659376	-2.007464	-0.292858
C43	C	-0.745448	-2.161962	-0.112930
C44	C	-0.637459	-2.146005	-0.131346
C45	C	-0.583174	-2.219931	-0.045066
H46	H	-0.756990	-2.247709	-0.124821
H47	H	-0.770328	-2.137164	-0.030011
H48	H	-0.612588	-2.170810	-0.214246
H49	H	-0.625886	-2.060273	-0.119445
H50	H	-0.608054	-2.195133	0.037854
H51	H	-0.594724	-2.305674	-0.056964
H52	H	-0.509899	-2.209106	-0.057542
C53	C	-0.974293	-2.162288	-0.112804
C54	C	-0.903460	-2.227121	-0.037170
C55	C	-0.958907	-2.301306	0.049292
H56	H	-1.010499	-2.220736	-0.156518
H57	H	-1.023739	-2.110175	-0.061725
H58	H	-0.854032	-2.279230	-0.088242
H59	H	-0.867251	-2.168705	0.006572
H60	H	-1.008354	-2.249193	0.100370
H61	H	-0.995112	-2.359746	0.005567
H62	H	-0.910857	-2.345295	0.100627
C63	C	-0.242293	-1.988022	-0.996701
C64	C	-0.260033	-2.109712	-0.955438
C65	C	-0.183748	-2.195199	-1.014881
H66	H	-0.174195	-1.968231	-0.976749
H67	H	-0.246624	-1.983270	-1.084976
H68	H	-0.255693	-2.114460	-0.867184
H69	H	-0.328117	-2.129543	-0.975391
H70	H	-0.188079	-2.190447	-1.103156
H71	H	-0.115655	-2.175396	-0.994924
H72	H	-0.195780	-2.277775	-0.986902
C73	C	-1.087267	-2.007896	-0.292773
C74	C	-1.124419	-2.088664	-0.198707
C75	C	-1.234154	-2.088879	-0.198477
H76	H	-1.105293	-2.035822	-0.372018
H77	H	-1.118480	-1.925321	-0.277157
H78	H	-1.093218	-2.171222	-0.214332
H79	H	-1.106422	-2.060757	-0.119448
H80	H	-1.265367	-2.006303	-0.182861
H81	H	-1.252170	-2.116803	-0.277727
H82	H	-1.259377	-2.143669	-0.134648
H83	H	-0.451414	-1.754370	-0.951670
C84	C	-0.456020	-1.329570	-0.593716
C85	C	-0.422869	-1.370968	-0.715465
C86	C	-0.488379	-1.311690	-0.800755
H87	H	-0.452346	-1.241291	-0.589045
H88	H	-0.526626	-1.349580	-0.573666
H89	H	-0.352281	-1.350949	-0.735509
H90	H	-0.426548	-1.459239	-0.720176
H91	H	-0.558985	-1.331699	-0.780705
H92	H	-0.484699	-1.223413	-0.796073
H93	H	-0.465901	-1.339778	-0.883370
H94	H	-1.054357	-1.711332	-0.638250
H95	H	-0.953424	-1.576811	-0.794814
H96	H	-0.656256	-1.711041	-0.638113
C97	C	-0.739453	-1.556405	-0.818248
C98	C	-0.810303	-1.491541	-0.893839
C99	C	-0.754882	-1.417244	-0.980217
H100	H	-0.689983	-1.608408	-0.869378
H101	H	-0.703281	-1.497982	-0.774429
H102	H	-0.846458	-1.549957	-0.937654
H103	H	-0.859775	-1.439515	-0.842744
H104	H	-0.718710	-1.358820	-0.936398
H105	H	-0.705414	-1.469256	-1.031337
H106	H	-0.802946	-1.373216	-1.031508
H107	H	-0.276469	-1.374359	-0.360555
