data_functionalizedCrystal
_audit_creation_method	'MofGen! by Chris Wilmer'
_symmetry_space_group_name_H-M	'P1'
_symmetry_Int_Tables_number	1
_symmetry_cell_setting	triclinic
loop_
_symmetry_equiv_pos_as_xyz
  x,y,z
_cell_length_a	21.395362
_cell_length_b	12.827893
_cell_length_c	21.395356
_cell_angle_alpha	89.983579
_cell_angle_beta	90.029577
_cell_angle_gamma	89.974482
loop_
_atom_site_label
_atom_site_type_symbol
_atom_site_fract_x
_atom_site_fract_y
_atom_site_fract_z
Zn1	Zn	-0.249484	-1.597532	0.354254
Zn2	Zn	0.250516	-1.097532	0.854254
Zn3	Zn	-0.354262	-1.597404	0.249474
Zn4	Zn	0.145738	-1.097404	0.749474
Zn5	Zn	-0.249499	-1.422788	0.249491
Zn6	Zn	0.250501	-0.922788	0.749491
Zn7	Zn	-0.354224	-1.422722	0.354214
Zn8	Zn	0.145776	-0.922722	0.854214
O9	O	-0.301867	-1.510112	0.301858
O10	O	0.198133	-1.010112	0.801858
O11	O	-0.263393	-1.743751	0.340364
O12	O	0.236607	-1.243751	0.840364
O13	O	-0.340386	-1.574215	0.161798
O14	O	0.159614	-1.074215	0.661798
O15	O	-0.161819	-1.446050	0.263412
O16	O	0.338181	-0.946050	0.763412
O17	O	-0.340373	-1.743657	0.263383
O18	O	0.159627	-1.243657	0.763383
O19	O	-0.161808	-1.574434	0.340381
O20	O	0.338192	-1.074434	0.840381
O21	O	-0.263417	-1.445926	0.161811
O22	O	0.236583	-0.945926	0.661811
O23	O	-0.263381	-1.276544	0.263373
O24	O	0.236619	-0.776544	0.763373
O25	O	-0.340309	-1.445937	0.441898
O26	O	0.159691	-0.945937	0.941898
O27	O	-0.340323	-1.276495	0.340313
O28	O	0.159677	-0.776495	0.840313
O29	O	-0.263357	-1.574370	0.441927
O30	O	0.236643	-1.074370	0.941927
O31	O	-0.441935	-1.574151	0.263344
O32	O	0.058065	-1.074151	0.763344
O33	O	-0.441907	-1.445813	0.340297
O34	O	0.058093	-0.945813	0.840297
C35	C	-0.301850	-1.238602	0.301841
C36	C	0.198150	-0.738602	0.801841
C37	C	-0.301857	-1.122449	0.301848
C38	C	0.198143	-0.622449	0.801848
C39	C	-0.464655	-1.509989	0.301828
C40	C	0.035345	-1.009989	0.801828
C41	C	-0.534296	-1.510032	0.301836
C42	C	-0.034296	-1.010032	0.801836
C43	C	-0.263741	-0.950616	0.263851
C44	C	0.236259	-0.450616	0.763851
C45	C	-0.263733	-1.070667	0.263843
C46	C	0.236267	-0.570667	0.763843
C47	C	-1.036086	-1.577189	0.261891
C48	C	-0.536086	-1.077189	0.761891
C49	C	-0.970650	-1.577149	0.261876
C50	C	-0.470650	-1.077149	0.761876
C51	C	-0.937934	-1.510260	0.301903
C52	C	-0.437934	-1.010260	0.801903
C53	C	-0.970659	-1.443386	0.341936
C54	C	-0.470659	-0.943386	0.841936
C55	C	-1.036094	-1.443420	0.341945
C56	C	-0.536094	-0.943420	0.841945
C57	C	-0.834234	-1.501894	0.358334
C58	C	-0.334234	-1.001894	0.858334
C59	C	-0.768801	-1.501867	0.358326
C60	C	-0.268801	-1.001867	0.858326
C61	C	-0.736114	-1.510149	0.301875
C62	C	-0.236114	-1.010149	0.801875
C63	C	-0.768867	-1.518479	0.245430
C64	C	-0.268867	-1.018479	0.745430
C65	C	-0.834302	-1.518513	0.245440
C66	C	-0.334302	-1.018513	0.745440
C67	C	-0.866982	-1.510215	0.301898
C68	C	-0.366982	-1.010215	0.801898
C69	C	-0.632444	-1.576970	0.261825
C70	C	-0.132444	-1.076970	0.761825
C71	C	-0.567008	-1.576924	0.261810
C72	C	-0.067008	-1.076924	0.761810
C73	C	-0.567018	-1.443166	0.341875
C74	C	-0.067018	-0.943166	0.841875
C75	C	-0.632453	-1.443207	0.341885
C76	C	-0.132453	-0.943207	0.841885
C77	C	-0.665162	-1.510115	0.301861
C78	C	-0.165162	-1.010115	0.801861
C79	C	-0.138444	-1.510264	0.301903
C80	C	0.361556	-1.010264	0.801903
C81	C	-0.068803	-1.510328	0.301921
C82	C	0.431197	-1.010328	0.801921
C83	C	-0.301827	-1.510160	0.465282
C84	C	0.198173	-1.010160	0.965282
C85	C	-0.301810	-1.510181	0.534923
C86	C	0.198190	-1.010181	1.034923
C87	C	-0.301880	-0.782682	0.301871
C88	C	0.198120	-0.282682	0.801871
C89	C	-0.301873	-0.898835	0.301864
C90	C	0.198127	-0.398835	0.801864
C91	C	-0.301862	-1.510124	0.139071
C92	C	0.198138	-1.010124	0.639071
C93	C	-0.301703	-1.510306	0.069430
C94	C	0.198297	-1.010306	0.569430
C95	C	-0.261641	-1.577154	1.036736
C96	C	0.238359	-1.077154	1.536736
C97	C	-0.261656	-1.577146	0.971300
C98	C	0.238344	-1.077146	1.471300
C99	C	-0.301727	-1.510270	0.938562
C100	C	0.198273	-1.010270	1.438562
C101	C	-0.341796	-1.443418	0.971264
C102	C	0.158204	-0.943418	1.471264
C103	C	-0.341784	-1.443435	1.036698
C104	C	0.158216	-0.943435	1.536698
C105	C	-0.306686	-1.416088	0.834885
C106	C	0.193314	-0.916088	1.334885
C107	C	-0.306694	-1.416068	0.769452
C108	C	0.193306	-0.916068	1.269452
C109	C	-0.301767	-1.510217	0.736741
C110	C	0.198233	-1.010217	1.236741
C111	C	-0.296819	-1.604388	0.769470
C112	C	0.203181	-1.104388	1.269470
C113	C	-0.296807	-1.604405	0.834904
C114	C	0.203193	-1.104405	1.334904
C115	C	-0.301744	-1.510244	0.867609
C116	C	0.198256	-1.010244	1.367609
C117	C	-0.261719	-1.577062	0.633094
C118	C	0.238281	-1.077062	1.133094
C119	C	-0.261739	-1.577056	0.567657
C120	C	0.238261	-1.077056	1.067657
C121	C	-0.341875	-1.443318	0.567622
C122	C	0.158125	-0.943318	1.067622
C123	C	-0.341859	-1.443334	0.633057
C124	C	0.158141	-0.943334	1.133057
C125	C	-0.301778	-1.510204	0.665789
C126	C	0.198222	-1.010204	1.165789
H127	H	-0.231089	-1.115197	0.231297
H128	H	0.268911	-0.615197	0.731297
H129	H	-0.944007	-1.631597	0.229278
H130	H	-0.444007	-1.131597	0.729278
H131	H	-0.231100	-0.906071	0.231316
H132	H	0.268900	-0.406071	0.731316
H133	H	-0.860842	-1.495339	0.404316
H134	H	-0.360842	-0.995339	0.904316
O135	O	-0.291475	-1.705965	0.870209
O136	O	0.208525	-1.205965	1.370209
H137	H	-0.331322	-1.757234	0.857647
H138	H	0.168678	-1.257234	1.357647
H139	H	-0.540381	-1.388699	0.374463
H140	H	-0.040381	-0.888699	0.874463
H141	H	-0.334507	-1.077925	0.334392
H142	H	0.165493	-0.577925	0.834392
H143	H	-0.659078	-1.631449	0.229235
H144	H	-0.159078	-1.131449	0.729235
O145	O	-1.071387	-1.371300	0.385121
O146	O	-0.571387	-0.871300	0.885121
H147	H	-1.101160	-1.418050	0.417027
H148	H	-0.601160	-0.918050	0.917027
H149	H	-0.374408	-1.388997	1.063317
H150	H	0.125592	-0.888997	1.563317
H151	H	-0.334509	-0.943380	0.334404
H152	H	0.165491	-0.443380	0.834404
H153	H	-0.229007	-1.631610	1.063382
H154	H	0.270993	-1.131610	1.563382
H155	H	-1.062714	-1.631667	0.229298
H156	H	-0.562714	-1.131667	0.729298
H157	H	-0.374503	-1.388871	0.540967
H158	H	0.125497	-0.888871	1.040967
H159	H	-0.860967	-1.525293	0.199481
H160	H	-0.360967	-1.025293	0.699481
O161	O	-0.733624	-1.527403	0.184536
O162	O	-0.233624	-1.027403	0.684536
H163	H	-0.682621	-1.525965	0.194009
H164	H	-0.182621	-1.025965	0.694009
H165	H	-0.944019	-1.388922	0.374526
H166	H	-0.444019	-0.888922	0.874526
O167	O	-0.218441	-1.649241	0.936024
O168	O	0.281559	-1.149241	1.436024
H169	H	-0.190566	-1.695737	0.969778
H170	H	0.309434	-1.195737	1.469778
H171	H	-0.292804	-1.681053	0.742837
H172	H	0.207196	-1.181053	1.242837
H173	H	-0.540369	-1.631366	0.229209
H174	H	-0.040369	-1.131366	0.729209
H175	H	-0.229082	-1.631511	0.659746
H176	H	0.270918	-1.131511	1.159746
H177	H	-0.229117	-1.631499	0.541038
H178	H	0.270883	-1.131499	1.041038
H179	H	-0.659092	-1.388765	0.374484
H180	H	-0.159092	-0.888765	0.874484
O181	O	-0.733475	-1.492829	0.419198
O182	O	-0.233475	-0.992829	0.919198
H183	H	-0.767196	-1.487034	0.458451
H184	H	-0.267196	-0.987034	0.958451
O185	O	-0.385058	-1.371217	0.668327
O186	O	0.114942	-0.871217	1.168327
H187	H	-0.412920	-1.324703	0.634571
H188	H	0.087080	-0.824703	1.134571
H189	H	-0.310722	-1.339389	0.742809
H190	H	0.189278	-0.839389	1.242809
O191	O	-0.311997	-1.314535	0.870167
O192	O	0.188003	-0.814535	1.370167
H193	H	-0.315427	-1.249051	0.836417
H194	H	0.184573	-0.749051	1.336417
O195	O	-0.385013	-1.371279	0.935959
O196	O	0.114987	-0.871279	1.435959
H197	H	-0.378285	-1.382488	0.884965
H198	H	0.121715	-0.882488	1.384965
