data_functionalizedCrystal
_audit_creation_method	'MofGen! by Chris Wilmer'
_symmetry_space_group_name_H-M	'P1'
_symmetry_Int_Tables_number	1
_symmetry_cell_setting	triclinic
loop_
_symmetry_equiv_pos_as_xyz
  x,y,z
_cell_length_a	19.288867
_cell_length_b	18.366186
_cell_length_c	19.288865
_cell_angle_alpha	89.989632
_cell_angle_beta	96.863342
_cell_angle_gamma	90.007594
loop_
_atom_site_label
_atom_site_type_symbol
_atom_site_fract_x
_atom_site_fract_y
_atom_site_fract_z
O1	O	0.921352	0.060532	-0.086654
O2	O	0.719092	0.060541	-0.098341
O3	O	0.826066	0.060522	0.008632
O4	O	0.814377	0.060551	-0.193628
O5	O	0.826048	-0.060578	0.008635
O6	O	0.719073	-0.060559	-0.098338
O7	O	0.921334	-0.060567	-0.086651
Zn8	Zn	0.820200	-0.079790	-0.092494
Zn9	Zn	0.820225	0.079764	-0.092498
O10	O	0.814359	-0.060548	-0.193625
C11	C	0.693206	-0.000008	-0.097964
C12	C	0.616102	-0.000006	-0.096834
N13	N	0.820189	-0.188681	-0.092491
C14	C	0.060547	0.065996	-0.088699
C15	C	0.132995	0.065999	-0.089757
C16	C	0.169213	-0.000012	-0.090287
C17	C	0.132981	-0.066031	-0.089742
C18	C	0.060535	-0.066032	-0.088678
C19	C	0.278533	-0.050579	-0.132653
C20	C	0.350976	-0.050575	-0.133722
C21	C	0.392659	-0.000012	-0.093566
C22	C	0.361888	0.050560	-0.052351
C23	C	0.289443	0.050559	-0.051287
C24	C	0.247768	-0.000019	-0.091440
C25	C	0.507439	0.066006	-0.095252
C26	C	0.579889	0.066006	-0.096305
C27	C	0.579872	-0.066026	-0.096297
C28	C	0.507425	-0.066024	-0.095238
C29	C	0.471213	-0.000006	-0.094718
C30	C	0.862176	-0.226771	-0.134515
C31	C	0.862188	-0.302999	-0.134513
C32	C	0.820199	-0.341134	-0.092495
C33	C	0.778208	-0.303035	-0.050463
C34	C	0.778204	-0.226809	-0.050461
C35	C	0.757587	-0.461913	-0.090738
C36	C	0.757590	-0.538138	-0.090745
C37	C	0.820214	-0.576241	-0.092498
C38	C	0.882836	-0.538110	-0.094258
C39	C	0.882831	-0.461884	-0.094256
C40	C	0.820199	-0.423789	-0.092493
C41	C	0.862218	-0.696986	-0.134522
C42	C	0.862230	-0.773215	-0.134515
C43	C	0.778245	-0.773250	-0.050469
C44	C	0.778238	-0.697022	-0.050471
C45	C	0.820224	-0.658895	-0.092502
C46	C	0.947219	-0.000016	-0.087029
C47	C	1.024323	-0.000014	-0.088159
C48	C	0.825681	-0.000030	0.034510
C49	C	0.824552	-0.000036	0.111614
N50	N	0.820242	0.188655	-0.092496
C51	C	0.814744	0.000005	-0.219503
C52	C	0.815873	0.000016	-0.296607
C53	C	0.887320	-0.000042	0.156310
C54	C	0.886259	-0.000031	0.228757
C55	C	0.822427	-0.000028	0.256505
C56	C	0.759651	-0.000018	0.211799
C57	C	0.760713	-0.000022	0.139354
C58	C	0.772241	-0.042444	0.364794
C59	C	0.771181	-0.042445	0.437238
C60	C	0.819147	-0.000011	0.479951
C61	C	0.868185	0.042413	0.450211
C62	C	0.869248	0.042408	0.377766
C63	C	0.821268	-0.000023	0.335059
C64	C	0.880769	-0.000004	0.603202
C65	C	0.879706	0.000012	0.675650
C66	C	0.753096	0.000018	0.658691
C67	C	0.754161	0.000009	0.586245
C68	C	0.818000	-0.000005	0.558505
H69	H	0.031068	0.119753	-0.088274
H70	H	0.701123	0.000024	0.681283
C71	C	0.732057	-0.815195	-0.004247
N72	N	0.697268	-0.846791	0.030570
H73	H	0.896427	-0.804227	-0.168734
H74	H	0.744011	-0.195796	-0.016239
H75	H	0.031041	-0.119787	-0.088240
C76	C	0.172848	0.138618	-0.090359
N77	N	0.202864	0.193315	-0.090817
C78	C	0.255599	0.106179	-0.005942
N79	N	0.230108	0.148069	0.028217
H80	H	0.707678	-0.000014	0.234396
H81	H	0.706600	-0.569178	-0.089316
C82	C	0.908370	-0.184835	-0.180742
N83	N	0.943166	-0.153248	-0.215558
H84	H	0.703049	0.000010	0.549852
C85	C	0.957544	-0.000052	0.125801
N86	N	1.010438	-0.000058	0.102820
H87	H	0.930821	0.000011	0.712042
H88	H	0.731249	-0.076984	0.461446
C89	C	0.619709	-0.138639	-0.096873
N90	N	0.649719	-0.193333	-0.097304
H91	H	0.937374	-0.000033	0.265155
H92	H	0.909174	0.076953	0.353555
H93	H	0.733179	-0.077002	0.330022
C94	C	0.172820	-0.138643	-0.090345
N95	N	0.202826	-0.193337	-0.090804
H96	H	0.709598	-0.000017	0.102962
C97	C	0.951728	-0.580018	-0.096183
N98	N	1.003616	-0.611587	-0.097634
C99	C	0.908379	-0.344906	-0.180745
N100	N	0.943170	-0.376468	-0.215568
H101	H	0.744045	-0.666009	-0.016254
C102	C	0.950992	-0.000009	0.572686
N103	N	1.003885	-0.000010	0.549704
C104	C	0.920950	0.089096	0.497189
N105	N	0.960691	0.124256	0.532576
C106	C	0.467575	-0.138641	-0.094659
N107	N	0.437559	-0.193340	-0.094225
C108	C	0.951714	-0.419943	-0.096182
N109	N	1.003599	-0.388353	-0.097629
H110	H	0.706587	-0.430895	-0.089316
C111	C	0.407734	0.106184	-0.008175
N112	N	0.442268	0.148079	0.025096
H113	H	0.477954	0.119761	-0.094827
H114	H	0.376021	-0.091739	-0.167299
C115	C	0.619736	0.138626	-0.096892
N116	N	0.649751	0.193325	-0.097332
H117	H	0.896405	-0.665941	-0.168745
C118	C	0.232689	-0.106211	-0.176826
N119	N	0.198160	-0.148112	-0.210095
H120	H	0.744021	-0.334090	-0.016251
