data_functionalizedCrystal
_audit_creation_method	'MofGen! by Chris Wilmer'
_symmetry_space_group_name_H-M	'P1'
_symmetry_Int_Tables_number	1
_symmetry_cell_setting	triclinic
loop_
_symmetry_equiv_pos_as_xyz
  x,y,z
_cell_length_a	19.805407
_cell_length_b	13.032721
_cell_length_c	19.805407
_cell_angle_alpha	82.831252
_cell_angle_beta	90.009221
_cell_angle_gamma	97.204665
loop_
_atom_site_label
_atom_site_type_symbol
_atom_site_fract_x
_atom_site_fract_y
_atom_site_fract_z
Zn1	Zn	1.000446	-0.416228	0.416956
Zn2	Zn	1.333779	-0.082895	0.750290
Zn3	Zn	1.667113	0.250439	1.083623
Zn4	Zn	0.986017	-0.590950	0.318140
Zn5	Zn	1.319350	-0.257616	0.651473
Zn6	Zn	1.652683	0.075717	0.984807
Zn7	Zn	0.887282	-0.416213	0.303780
Zn8	Zn	1.220616	-0.082880	0.637113
Zn9	Zn	1.553949	0.250453	0.970447
Zn10	Zn	0.872860	-0.590938	0.431286
Zn11	Zn	1.206194	-0.257604	0.764619
Zn12	Zn	1.539527	0.075729	1.097952
O13	O	0.936651	-0.503582	0.367540
O14	O	1.269985	-0.170249	0.700874
O15	O	1.603318	0.163084	1.034207
O16	O	1.093248	-0.439417	0.403861
O17	O	1.426581	-0.106083	0.737194
O18	O	1.759914	0.227250	1.070528
O19	O	0.972916	-0.567770	0.221518
O20	O	1.306249	-0.234436	0.554852
O21	O	1.639583	0.098897	0.888185
O22	O	0.914368	-0.269971	0.306786
O23	O	1.247702	0.063362	0.640120
O24	O	1.581035	0.396696	0.973453
O25	O	1.082646	-0.567784	0.331261
O26	O	1.415980	-0.234450	0.664594
O27	O	1.749313	0.098883	0.997928
O28	O	0.997509	-0.269982	0.389937
O29	O	1.330842	0.063352	0.723270
O30	O	1.664176	0.396685	1.056603
O31	O	0.900377	-0.439392	0.210968
O32	O	1.233710	-0.106058	0.544301
O33	O	1.567043	0.227275	0.877635
O34	O	0.790654	-0.439380	0.320681
O35	O	1.123987	-0.106046	0.654014
O36	O	1.457320	0.227287	0.987348
O37	O	0.889788	-0.567763	0.524102
O38	O	1.223121	-0.234430	0.857435
O39	O	1.556455	0.098903	1.190768
O40	O	0.780058	-0.567749	0.414359
O41	O	1.113391	-0.234416	0.747692
O42	O	1.446725	0.098918	1.081026
O43	O	0.983525	-0.439405	0.513574
O44	O	1.316858	-0.106072	0.846907
O45	O	1.650191	0.227262	1.180241
O46	O	0.958932	-0.737193	0.345156
O47	O	1.292265	-0.403859	0.678489
O48	O	1.625598	-0.070526	1.011822
O49	O	0.875796	-0.737184	0.428283
O50	O	1.209130	-0.403850	0.761617
O51	O	1.542463	-0.070517	1.094950
C52	C	0.760797	-0.503562	0.367517
C53	C	1.094130	-0.170229	0.700850
C54	C	1.427464	0.163104	1.034184
C55	C	0.685564	-0.503579	0.367525
C56	C	1.018897	-0.170246	0.700858
C57	C	1.352230	0.163088	1.034192
C58	C	0.644712	-0.570521	0.416241
C59	C	0.978045	-0.237188	0.749575
C60	C	1.311378	0.096145	1.082908
C61	C	0.574023	-0.570523	0.416251
C62	C	0.907356	-0.237190	0.749584
C63	C	1.240690	0.096143	1.082918
C64	C	0.544187	-0.503587	0.367541
C65	C	0.877521	-0.170254	0.700874
C66	C	1.210854	0.163080	1.034208
C67	C	0.585045	-0.436637	0.318822
C68	C	0.918378	-0.103304	0.652155
C69	C	1.251712	0.230029	0.985489
C70	C	0.655733	-0.436631	0.318816
C71	C	0.989066	-0.103298	0.652149
C72	C	1.322399	0.230036	0.985483
C73	C	0.299970	-0.436660	0.318846
C74	C	0.633303	-0.103327	0.652180
C75	C	0.966636	0.230006	0.985513
C76	C	0.229276	-0.436674	0.318855
C77	C	0.562610	-0.103341	0.652188
C78	C	0.895943	0.229993	0.985522
C79	C	0.218260	-0.570553	0.416281
C80	C	0.551594	-0.237219	0.749615
C81	C	0.884927	0.096114	1.082948
C82	C	0.288948	-0.570546	0.416275
C83	C	0.622281	-0.237213	0.749609
C84	C	0.955615	0.096120	1.082942
C85	C	0.329800	-0.503593	0.367559
C86	C	0.663133	-0.170260	0.700892
C87	C	0.996466	0.163074	1.034226
C88	C	0.406448	-0.503590	0.367550
C89	C	0.739781	-0.170257	0.700883
C90	C	1.073115	0.163076	1.034217
C91	C	0.467540	-0.503594	0.367546
C92	C	0.800873	-0.170261	0.700880
C93	C	1.134206	0.163073	1.034213
C94	C	0.914252	-0.775108	0.389847
C95	C	1.247585	-0.441774	0.723181
C96	C	1.580918	-0.108441	1.056514
C97	C	0.904731	-0.891267	0.399413
C98	C	1.238064	-0.557934	0.732746
C99	C	1.571398	-0.224601	1.066080
C100	C	0.941656	-0.943025	0.362579
C101	C	1.274990	-0.609692	0.695912
C102	C	1.608323	-0.276358	1.029245
C103	C	0.931817	-1.063082	0.372464
C104	C	1.265150	-0.729749	0.705798
C105	C	1.598484	-0.396415	1.039131
C106	C	1.113192	-0.503603	0.367565
C107	C	1.446526	-0.170270	0.700898
C108	C	1.779859	0.163064	1.034231
C109	C	1.188424	-0.503612	0.367575
C110	C	1.521757	-0.170279	0.700908
C111	C	1.855090	0.163055	1.034241
C112	C	0.936657	-0.503584	0.544083
C113	C	1.269991	-0.170251	0.877417
C114	C	1.603324	0.163082	1.210750
C115	C	0.936660	-0.503585	0.619315
C116	C	1.269993	-0.170252	0.952649
C117	C	1.603326	0.163081	1.285982
C118	C	0.959157	-0.230997	0.345161
C119	C	1.292490	0.102337	0.678495
C120	C	1.625824	0.435670	1.011828
C121	C	0.968748	-0.114837	0.335625
C122	C	1.302081	0.218496	0.668958
C123	C	1.635414	0.551830	1.002291
C124	C	0.985462	-0.436759	0.649180
C125	C	1.318795	-0.103426	0.982513
C126	C	1.652129	0.229907	1.315846
C127	C	0.985457	-0.436756	0.719868
C128	C	1.318790	-0.103423	1.053201
C129	C	1.652123	0.229911	1.386535
C130	C	0.936651	-0.503585	0.760691
C131	C	1.269984	-0.170252	1.094024
C132	C	1.603318	0.163082	1.427358
C133	C	0.887844	-0.570414	0.730822
C134	C	1.221177	-0.237081	1.064155
C135	C	1.554510	0.096253	1.397489
C136	C	0.887847	-0.570411	0.660135
C137	C	1.221180	-0.237078	0.993468
C138	C	1.554513	0.096256	1.326801
C139	C	0.887829	-0.570426	1.015896
C140	C	1.221163	-0.237093	1.349230
C141	C	1.554496	0.096241	1.682563
C142	C	0.887831	-0.570426	1.086588
C143	C	1.221164	-0.237093	1.419922
C144	C	1.554498	0.096241	1.753255
C145	C	0.985439	-0.436771	1.075630
C146	C	1.318772	-0.103438	1.408963
C147	C	1.652106	0.229895	1.742296
C148	C	0.985442	-0.436768	1.004942
C149	C	1.318776	-0.103435	1.338276
C150	C	1.652109	0.229898	1.671609
C151	C	0.936633	-0.503593	0.975079
C152	C	1.269966	-0.170260	1.308412
C153	C	1.603300	0.163074	1.641746
C154	C	0.936639	-0.503594	0.898431
C155	C	1.269972	-0.170261	1.231764
C156	C	1.603305	0.163073	1.565097
C157	C	0.936648	-0.503590	0.837338
C158	C	1.269981	-0.170257	1.170672
C159	C	1.603314	0.163077	1.504005
C160	C	0.936637	-0.503601	1.191686
C161	C	1.269971	-0.170268	1.525019
C162	C	1.603304	0.163065	1.858353
C163	C	0.936631	-0.503594	1.116453
C164	C	1.269964	-0.170261	1.449787
C165	C	1.603298	0.163073	1.783120
H166	H	0.184990	-0.625065	0.455951
H167	H	0.518324	-0.291732	0.789284
H168	H	0.851657	0.041601	1.122618
H169	H	0.540764	-0.625035	0.455920
H170	H	0.874097	-0.291702	0.789254
H171	H	1.207431	0.041631	1.122587
H172	H	0.848101	-0.624817	0.635820
H173	H	1.181434	-0.291484	0.969153
H174	H	1.514767	0.041850	1.302486
H175	H	0.204987	-0.382160	0.279189
H176	H	0.538321	-0.048827	0.612522
H177	H	0.871654	0.284506	0.945855
F178	F	0.553290	-0.365392	0.266984
F179	F	0.886623	-0.032059	0.600318
F180	F	1.219957	0.301275	0.933651
F181	F	1.037419	-0.365667	0.751651
F182	F	1.370753	-0.032333	1.084985
F183	F	1.704086	0.301000	1.418318
H184	H	0.848103	-0.624823	0.764065
H185	H	1.181436	-0.291490	1.097399
H186	H	1.514770	0.041843	1.430732
F187	F	0.343438	-0.365400	0.266999
F188	F	0.676772	-0.032067	0.600333
F189	F	1.010105	0.301267	0.933666
F190	F	0.676458	-0.641770	0.468083
F191	F	1.009791	-0.308437	0.801417
F192	F	1.343125	0.024896	1.134750
H193	H	0.688994	-0.382114	0.279149
H194	H	1.022328	-0.048781	0.612482
H195	H	1.355661	0.284553	0.945816
H196	H	0.980557	-0.898457	0.323727
H197	H	1.313890	-0.565124	0.657060
H198	H	1.647223	-0.231790	0.990393
H199	H	0.892919	-1.107648	0.411324
H200	H	1.226253	-0.774315	0.744657
H201	H	1.559586	-0.440982	1.077990
H202	H	1.007651	-1.070272	0.296770
H203	H	1.340984	-0.736938	0.630104
H204	H	1.674317	-0.403605	0.963437
H205	H	1.025207	-0.382343	0.615946
H206	H	1.358541	-0.049009	0.949280
H207	H	1.691874	0.284324	1.282613
H208	H	0.865836	-0.935838	0.438270
H209	H	1.199169	-0.602504	0.771603
H210	H	1.532503	-0.269171	1.104936
H211	H	1.025187	-0.382353	0.971707
H212	H	1.358520	-0.049020	1.305041
H213	H	1.691853	0.284314	1.638374
H214	H	1.025180	-0.382356	1.099952
H215	H	1.358513	-0.049022	1.433285
H216	H	1.691847	0.284311	1.766619
F217	F	0.835883	-0.641558	1.130035
F218	F	1.169216	-0.308224	1.463368
F219	F	1.502549	0.025109	1.796701
H220	H	0.313236	-0.625056	0.455938
H221	H	0.646569	-0.291723	0.789272
H222	H	0.979903	0.041611	1.122605
H223	H	0.848094	-0.624854	0.991592
H224	H	1.181428	-0.291521	1.324925
H225	H	1.514761	0.041813	1.658258
