data_functionalizedCrystal
_audit_creation_method	'MofGen! by Chris Wilmer'
_symmetry_space_group_name_H-M	'P1'
_symmetry_Int_Tables_number	1
_symmetry_cell_setting	triclinic
loop_
_symmetry_equiv_pos_as_xyz
  x,y,z
_cell_length_a	30.570277
_cell_length_b	30.570279
_cell_length_c	30.570330
_cell_angle_alpha	59.997668
_cell_angle_beta	89.998668
_cell_angle_gamma	60.000192
loop_
_atom_site_label
_atom_site_type_symbol
_atom_site_fract_x
_atom_site_fract_y
_atom_site_fract_z
O1	O	-0.372836	-0.313095	0.013011
O2	O	-0.309225	-0.223519	-0.012953
O3	O	-0.309223	-0.313094	0.076622
O4	O	-0.372839	-0.223520	-0.076564
O5	O	-0.236468	-0.385848	0.076622
O6	O	-0.236471	-0.296273	-0.012953
O7	O	-0.300082	-0.385850	0.013011
Zn8	Zn	-0.256725	-0.352613	0.000029
Zn9	Zn	-0.352582	-0.256756	0.000029
O10	O	-0.300084	-0.296275	-0.076564
C11	C	-0.188654	-0.082303	-0.027139
C12	C	-0.215647	-0.028318	-0.023422
C13	C	-0.136009	-0.108501	-0.027507
C14	C	-0.188656	-0.161512	-0.027144
C15	C	-0.215651	-0.192218	-0.023433
C16	C	-0.136010	-0.187591	-0.027512
C17	C	-0.109441	-0.161515	-0.027139
C18	C	-0.051740	-0.192225	-0.023422
C19	C	-0.215103	-0.108498	-0.027512
C20	C	-0.005122	-0.217036	-0.020418
C21	C	-0.237454	0.015296	-0.020418
C22	C	-0.237459	-0.217026	-0.020433
C23	C	0.053362	-0.248162	-0.016650
C24	C	-0.264813	0.070012	-0.016651
C25	C	-0.264819	-0.248149	-0.016672
C26	C	-0.528835	-0.481158	0.031534
C27	C	-0.502268	-0.534173	0.031905
C28	C	-0.449624	-0.481155	0.031530
C29	C	-0.423176	-0.534171	0.031901
C30	C	-0.449623	-0.560370	0.031533
C31	C	-0.502268	-0.455079	0.031901
C32	C	-0.614448	-0.395339	0.025106
C33	C	-0.668545	-0.366177	0.021050
C34	C	-0.695677	-0.391210	0.019017
C35	C	-0.754333	-0.359592	0.014617
C36	C	-0.668716	-0.445410	0.021045
C37	C	-0.614621	-0.474572	0.025103
C38	C	-0.587489	-0.449534	0.027131
C39	C	-0.449828	-0.639557	0.025109
C40	C	-0.424894	-0.689598	0.021053
C41	C	-0.372730	-0.714694	0.019016
C42	C	-0.345693	-0.768949	0.014615
C43	C	-0.345492	-0.689758	0.021040
C44	C	-0.370425	-0.639721	0.025098
C45	C	-0.422593	-0.614621	0.027130
C46	C	-0.449831	-0.395334	0.025098
C47	C	-0.424899	-0.366164	0.021031
C48	C	-0.372736	-0.391195	0.018994
C49	C	-0.345699	-0.359574	0.014590
C50	C	-0.345499	-0.445391	0.021019
C51	C	-0.370429	-0.474560	0.025084
C52	C	-0.422594	-0.449529	0.027123
C53	C	-0.449629	-0.128223	-0.400622
C54	C	-0.502274	-0.075208	-0.427071
C55	C	-0.449630	-0.128223	-0.321410
C56	C	-0.502275	-0.075207	-0.347979
C57	C	-0.528843	-0.049010	-0.400624
C58	C	-0.423182	-0.154300	-0.347977
C59	C	-0.370237	-0.214043	-0.400414
C60	C	-0.345131	-0.243207	-0.425348
C61	C	-0.372198	-0.218175	-0.477512
C62	C	-0.344980	-0.249795	-0.504549
C63	C	-0.424371	-0.163975	-0.504752
C64	C	-0.449476	-0.134812	-0.479820
C65	C	-0.422408	-0.159848	-0.427652
C66	C	-0.614455	0.030175	-0.480016
C67	C	-0.668553	0.080216	-0.505123
C68	C	-0.695686	0.105313	-0.478056
C69	C	-0.754343	0.159568	-0.505274
C70	C	-0.668725	0.080378	-0.425883
C71	C	-0.614630	0.030342	-0.400778
C72	C	-0.587497	0.005241	-0.427845
C73	C	-0.370239	-0.214042	-0.235795
C74	C	-0.345135	-0.243209	-0.181695
C75	C	-0.372203	-0.218177	-0.154563
C76	C	-0.344985	-0.249796	-0.095906
C77	C	-0.424374	-0.163982	-0.181523
C78	C	-0.449480	-0.134814	-0.235621
C79	C	-0.422410	-0.159847	-0.262755
O80	O	0.226322	-0.385862	0.013031
O81	O	0.073137	-0.296286	-0.012932
O82	O	0.162706	-0.385864	0.076642
O83	O	0.136754	-0.296283	-0.076544
O84	O	0.162707	-0.313113	0.076647
O85	O	0.073139	-0.223534	-0.012927
O86	O	0.226324	-0.313110	0.013035
Zn87	Zn	0.149732	-0.256772	0.000055
Zn88	Zn	0.149729	-0.352625	0.000048
O89	O	0.136756	-0.223532	-0.076539
O90	O	-0.300077	0.213289	0.013034
O91	O	-0.236463	0.086067	-0.012928
O92	O	-0.236466	0.086060	0.076646
O93	O	-0.300074	0.213297	-0.076541
O94	O	-0.309222	0.086062	0.076641
O95	O	-0.309219	0.086070	-0.012933
O96	O	-0.372833	0.213292	0.013029
Zn97	Zn	-0.352577	0.149681	0.000047
Zn98	Zn	-0.256718	0.149678	0.000053
O99	O	-0.372830	0.213300	-0.076546
O100	O	-0.926872	0.304555	-0.541036
O101	O	-0.773688	0.177328	-0.477419
O102	O	-0.863257	0.177325	-0.477417
O103	O	-0.837303	0.304558	-0.541038
O104	O	-0.863255	0.177323	-0.550170
O105	O	-0.773686	0.177326	-0.550173
O106	O	-0.926870	0.304553	-0.613790
Zn107	Zn	-0.850278	0.240939	-0.593533
Zn108	Zn	-0.850280	0.240942	-0.497676
O109	O	-0.837301	0.304556	-0.613792
O110	O	-0.309222	-0.313094	-0.613776
O111	O	-0.372836	-0.223523	-0.550164
O112	O	-0.372834	-0.313097	-0.550160
O113	O	-0.309224	-0.223521	-0.613781
O114	O	-0.300079	-0.385852	-0.477404
O115	O	-0.300081	-0.296279	-0.477409
O116	O	-0.236467	-0.385850	-0.541021
Zn117	Zn	-0.256722	-0.352616	-0.497663
Zn118	Zn	-0.352581	-0.256757	-0.593522
O119	O	-0.236469	-0.296276	-0.541025
C120	C	-0.109443	-0.527076	0.338416
C121	C	-0.051741	-0.581062	0.365410
C122	C	-0.136011	-0.500878	0.364863
C123	C	-0.188656	-0.447863	0.259202
C124	C	-0.215650	-0.417154	0.201500
C125	C	-0.215104	-0.421785	0.285770
C126	C	-0.188656	-0.447863	0.338415
C127	C	-0.215649	-0.417155	0.365408
C128	C	-0.136011	-0.500878	0.285771
C129	C	-0.237457	-0.392345	0.387215
C130	C	-0.005124	-0.624677	0.387218
C131	C	-0.237457	-0.392344	0.154883
C132	C	-0.264816	-0.361220	0.414573
C133	C	0.053360	-0.679395	0.414577
C134	C	-0.264817	-0.361219	0.096399
C135	C	0.176900	-0.447894	0.338441
C136	C	0.173185	-0.417189	0.365437
C137	C	0.177268	-0.500910	0.364887
C138	C	0.176902	-0.447889	0.259226
C139	C	0.173189	-0.417178	0.201523
C140	C	0.177270	-0.500904	0.285792
C141	C	0.176898	-0.527104	0.338437
C142	C	0.173181	-0.581091	0.365429
C143	C	0.177272	-0.421814	0.285795
C144	C	0.170177	-0.624706	0.387234
C145	C	0.170183	-0.392382	0.387246
C146	C	0.170189	-0.392365	0.154906
C147	C	0.166409	-0.679423	0.414591
C148	C	0.166417	-0.361260	0.414607
C149	C	0.166425	-0.361238	0.096422
C150	C	-0.188656	-0.161565	0.338427
C151	C	-0.215650	-0.192274	0.365416
C152	C	-0.136010	-0.187647	0.364876
C153	C	-0.188655	-0.082342	0.259219
C154	C	-0.215648	-0.028347	0.201519
C155	C	-0.136009	-0.108545	0.285789
C156	C	-0.109441	-0.161568	0.338432
C157	C	-0.051739	-0.192281	0.365427
C158	C	-0.215103	-0.108542	0.285783
C159	C	-0.005121	-0.217095	0.387236
C160	C	-0.237458	-0.217086	0.387220
C161	C	-0.237456	0.015274	0.154902
C162	C	0.053363	-0.248225	0.414596
C163	C	-0.264818	-0.248212	0.414575
C164	C	-0.264815	0.070001	0.096420
C165	C	0.118261	-0.049006	-0.400600
C166	C	0.117891	-0.075201	-0.427049
C167	C	0.118257	-0.128221	-0.321388
C168	C	0.117887	-0.154296	-0.347958
C169	C	0.118259	-0.128216	-0.400603
C170	C	0.117889	-0.075206	-0.347955
C171	C	0.124691	0.030176	-0.400391
C172	C	0.128750	0.080217	-0.425324
C173	C	0.130788	0.105316	-0.477489
C174	C	0.135192	0.159570	-0.504524
C175	C	0.128762	0.080383	-0.504729
C176	C	0.124700	0.030348	-0.479798
C177	C	0.122667	0.005244	-0.427629
C178	C	0.124689	-0.134434	-0.479996
C179	C	0.128747	-0.163423	-0.505104
C180	C	0.130780	-0.217623	-0.478038
C181	C	0.135182	-0.249059	-0.505257
C182	C	0.128752	-0.242837	-0.425864
C183	C	0.124692	-0.213848	-0.400759
C184	C	0.122664	-0.159648	-0.427825
C185	C	0.124683	-0.134448	-0.235773
C186	C	0.128745	-0.163447	-0.181672
C187	C	0.130779	-0.217647	-0.154541
C188	C	0.135178	-0.249089	-0.095884
C189	C	0.128755	-0.242857	-0.181502
C190	C	0.124695	-0.213862	-0.235600
C191	C	0.122659	-0.159658	-0.262733
O192	O	0.136720	-0.296316	0.522623
O193	O	0.162693	-0.385890	0.459012
O194	O	0.073116	-0.296315	0.459000
O195	O	0.226297	-0.385891	0.522635
O196	O	0.073125	-0.223561	0.386249
O197	O	0.162702	-0.313136	0.386260
O198	O	0.136728	-0.223562	0.449871
Zn199	Zn	0.149716	-0.256798	0.406515
Zn200	Zn	0.149705	-0.352654	0.502368
O201	O	0.226306	-0.313137	0.449883
C202	C	-0.528835	0.518896	-0.400596
C203	C	-0.502267	0.544976	-0.427040
C204	C	-0.449621	0.439671	-0.321383
C205	C	-0.423173	0.465871	-0.347947
C206	C	-0.449621	0.518894	-0.400591
C207	C	-0.502267	0.465874	-0.347953
C208	C	-0.614449	0.525120	-0.400395
C209	C	-0.668547	0.554117	-0.425332
C210	C	-0.695679	0.608323	-0.477494
C211	C	-0.754336	0.639767	-0.504533
C212	C	-0.668718	0.633538	-0.504729
C213	C	-0.614622	0.604542	-0.479795
C214	C	-0.587490	0.550335	-0.427628
C215	C	-0.449826	0.604722	-0.479976
C216	C	-0.424890	0.633887	-0.505078
C217	C	-0.372726	0.608850	-0.478008
C218	C	-0.345687	0.640471	-0.505221
C219	C	-0.345487	0.554643	-0.425836
C220	C	-0.370420	0.525478	-0.400737
C221	C	-0.422590	0.550520	-0.427807
C222	C	-0.449827	0.360475	-0.235774
C223	C	-0.424895	0.310431	-0.181675
C224	C	-0.372730	0.285329	-0.154541
C225	C	-0.345693	0.231066	-0.095885
C226	C	-0.345493	0.310267	-0.181496
C227	C	-0.370424	0.360310	-0.235593
C228	C	-0.422591	0.385412	-0.262730
H229	H	-0.114681	-0.086573	-0.028104
O230	O	-0.588093	0.005708	-0.506253
C231	C	-0.568976	-0.057079	-0.477181
H232	H	-0.593854	-0.065607	-0.450444
H233	H	-0.572369	-0.069075	-0.506262
H234	H	-0.525248	-0.087328	-0.451331
O235	O	-0.266715	-0.082440	0.260420
C236	C	-0.284460	-0.116967	0.295164
H237	H	-0.259263	-0.143815	0.338448
H238	H	-0.328301	-0.084278	0.288834
H239	H	-0.280166	-0.150727	0.286307
O240	O	-0.266678	-0.370832	0.260248
C241	C	-0.269593	-0.321996	0.214095
H242	H	-0.234049	-0.341746	0.200803
H243	H	-0.308469	-0.293965	0.180593
H244	H	-0.268617	-0.290787	0.223567
O245	O	0.178056	-0.370971	0.260320
C246	C	0.224457	-0.384807	0.245499
H247	H	0.239423	-0.425445	0.242661
H248	H	0.214574	-0.342713	0.204955
H249	H	0.256895	-0.397452	0.276896
H250	H	-0.258359	-0.086568	-0.028112
H251	H	-0.348193	-0.234430	-0.357937
O252	O	-0.110569	-0.238482	0.416508
C253	C	-0.095718	-0.224664	0.449072
H254	H	-0.122466	-0.172575	0.428820
H255	H	-0.100533	-0.249206	0.489584
H256	H	-0.052145	-0.241034	0.455143
H257	H	0.130388	-0.142913	-0.159727
O258	O	-0.110648	-0.238468	-0.028245
C259	C	-0.145396	-0.255988	-0.028470
H260	H	-0.188677	-0.214347	-0.044917
H261	H	-0.139060	-0.273475	-0.054825
H262	H	-0.136549	-0.294307	0.014148
H263	H	-0.114679	-0.086619	0.264458
O264	O	0.130627	0.104523	-0.398922
C265	C	0.086953	0.167298	-0.427888
H266	H	0.053561	0.175914	-0.454726
H267	H	0.071546	0.179147	-0.398734
H268	H	0.100433	0.197596	-0.453628
O269	O	0.177904	-0.527082	0.416467
C270	C	0.131998	-0.527342	0.419390
H271	H	0.116196	-0.524814	0.383833
H272	H	0.142865	-0.571713	0.458255
H273	H	0.099813	-0.485710	0.418445
H274	H	0.117290	-0.196956	-0.326627
H275	H	-0.447076	-0.709896	0.019407
H276	H	-0.114679	-0.522807	0.408119
H277	H	0.117296	-0.053271	-0.470306
H278	H	-0.491953	-0.090678	-0.502003
O279	O	-0.500528	0.629146	-0.506301
C280	C	-0.535502	0.689474	-0.519603
H281	H	-0.511747	0.709085	-0.520922
H282	H	-0.567165	0.720171	-0.560512
H283	H	-0.555874	0.687951	-0.488134
O284	O	0.122736	-0.081814	-0.262043
C285	C	0.125381	-0.065775	-0.226649
H286	H	0.145098	-0.108725	-0.183605
H287	H	0.150010	-0.045952	-0.235502
H288	H	0.083176	-0.029680	-0.232220
H289	H	0.117336	-0.053308	-0.326611
H290	H	0.123031	0.009743	-0.357914
H291	H	-0.303016	-0.710195	0.019376
O292	O	-0.294427	-0.295799	-0.155480
C293	C	-0.260627	-0.285909	-0.136405
H294	H	-0.285631	-0.246189	-0.132280
H295	H	-0.229999	-0.329731	-0.095665
H296	H	-0.238917	-0.273811	-0.165844
H297	H	0.130421	0.100827	-0.547207
H298	H	0.177873	-0.522830	0.264460
H299	H	-0.348248	-0.619417	0.026742
O300	O	0.130634	-0.295449	-0.155152
C301	C	0.086960	-0.285484	-0.136042
H302	H	0.053567	-0.233865	-0.160915
H303	H	0.071555	-0.311151	-0.139451
H304	H	0.100440	-0.303377	-0.092308
H305	H	-0.447080	-0.322039	0.019384
O306	O	-0.343888	-0.527218	0.027071
C307	C	-0.292503	-0.543050	0.024390
H308	H	-0.280185	-0.521288	0.038321
H309	H	-0.262457	-0.595500	0.051364
H310	H	-0.293314	-0.525164	-0.018680
O311	O	-0.371541	-0.560378	0.032713
C312	C	-0.338986	-0.578081	0.079095
H313	H	-0.359252	-0.584551	0.110921
H314	H	-0.298479	-0.623423	0.095085
H315	H	-0.332900	-0.540587	0.068787
H316	H	-0.523597	0.587640	-0.470296
O317	O	-0.500495	-0.615271	0.027107
C318	C	-0.519188	-0.648005	0.024443
H319	H	-0.483592	-0.696066	0.038378
H320	H	-0.544676	-0.652456	0.051423
H321	H	-0.544413	-0.621963	-0.018623
H322	H	-0.690825	0.100822	-0.403847
H323	H	0.123059	0.010043	-0.501975
O324	O	-0.588023	-0.371115	0.027154
C325	C	-0.544536	-0.414708	0.075531
H326	H	-0.532428	-0.463182	0.091485
H327	H	-0.509212	-0.411885	0.068025
H328	H	-0.556802	-0.404306	0.106201
H329	H	-0.114673	-0.522795	0.264437
H330	H	0.123049	-0.234393	-0.257550
H331	H	0.123035	-0.090300	-0.502039
O332	O	0.130739	-0.138865	-0.555773
C333	C	0.128068	-0.084805	-0.574283
H334	H	0.141998	-0.086422	-0.538588
H335	H	0.155046	-0.081739	-0.599756
H336	H	0.085001	-0.042540	-0.599474
O337	O	-0.294789	-0.469749	0.019135
C338	C	-0.261080	-0.484346	0.062807
H339	H	-0.279301	-0.490997	0.096203
H340	H	-0.220006	-0.528825	0.078210
H341	H	-0.256673	-0.445020	0.049324
H342	H	0.130406	-0.286972	-0.403829
H343	H	0.123038	-0.234377	-0.358280
O344	O	-0.527732	-0.560339	0.032701
C345	C	-0.542554	-0.578075	0.079103
H346	H	-0.545409	-0.549545	0.094051
H347	H	-0.583090	-0.569758	0.069226
H348	H	-0.511150	-0.629261	0.111552
O349	O	-0.371593	0.439707	-0.322423
C350	C	-0.368661	0.439449	-0.276259
H351	H	-0.404209	0.441964	-0.262969
H352	H	-0.329789	0.395084	-0.242761
H353	H	-0.369613	0.481088	-0.285715
H354	H	-0.303016	0.289827	-0.159398
O355	O	-0.527790	0.439815	-0.322536
C356	C	-0.573947	0.483041	-0.319847
H357	H	-0.587236	0.531881	-0.352875
H358	H	-0.607447	0.477670	-0.325339
H359	H	-0.564482	0.474523	-0.279156
O360	O	-0.294455	-0.295850	-0.398812
C361	C	-0.275941	-0.311680	-0.347428
H362	H	-0.311633	-0.289944	-0.335099
H363	H	-0.250439	-0.364132	-0.317384
H364	H	-0.250779	-0.293765	-0.348251
H365	H	-0.447075	0.290129	-0.159733
O366	O	-0.500513	0.384803	-0.262048
C367	C	-0.519201	0.352052	-0.226659
H368	H	-0.495971	0.328719	-0.183613
H369	H	-0.563653	0.385533	-0.235512
H370	H	-0.513091	0.315421	-0.232235
H371	H	-0.690494	0.533582	-0.403153
H372	H	-0.592359	0.480981	-0.357920
O373	O	-0.695124	0.686267	-0.555363
C374	C	-0.738611	0.734512	-0.555229
H375	H	-0.730777	0.723564	-0.513353
H376	H	-0.743385	0.779730	-0.584929
H377	H	-0.776835	0.739254	-0.567296
H378	H	-0.348193	-0.234426	-0.257886
O379	O	-0.588518	0.629130	-0.506313
C380	C	-0.624062	0.683188	-0.557706
H381	H	-0.667055	0.702855	-0.557658
H382	H	-0.615326	0.718898	-0.568775
H383	H	-0.618546	0.671525	-0.588242
H384	H	-0.523602	-0.412416	0.032492
H385	H	-0.492305	-0.374951	0.026761
H386	H	-0.447073	0.678020	-0.547557
H387	H	-0.303007	0.534258	-0.403799
H388	H	-0.690492	-0.322048	0.019398
O389	O	-0.343899	0.472846	-0.350050
C390	C	-0.292504	0.456991	-0.331540
H391	H	-0.292550	0.500033	-0.354860
H392	H	-0.281426	0.437172	-0.287092
H393	H	-0.261975	0.420950	-0.337702
H394	H	-0.690498	0.100513	-0.547603
O395	O	-0.695112	-0.469715	0.019136
C396	C	-0.714203	-0.484342	0.062823
H397	H	-0.718170	-0.455281	0.077562
H398	H	-0.755020	-0.474058	0.049614
H399	H	-0.684858	-0.535514	0.096618
O400	O	-0.588393	-0.527176	0.027004
C401	C	-0.569313	-0.517299	-0.016684
H402	H	-0.565200	-0.477568	-0.031418
H403	H	-0.528568	-0.561119	-0.003479
H404	H	-0.598742	-0.505225	-0.050482
O405	O	-0.527677	-0.049004	-0.322550
C406	C	-0.499010	-0.031293	-0.307691
H407	H	-0.473654	-0.024813	-0.334424
H408	H	-0.528371	0.014044	-0.312524
H409	H	-0.471826	-0.068788	-0.264111
O410	O	-0.527724	-0.048942	-0.478708
C411	C	-0.542567	0.012292	-0.511243
H412	H	-0.515804	0.017351	-0.490975
H413	H	-0.537763	0.023476	-0.551765
H414	H	-0.586134	0.045562	-0.517299
O415	O	-0.371550	-0.205131	-0.322574
C416	C	-0.338980	-0.191324	-0.351244
H417	H	-0.359233	-0.139235	-0.376602
H418	H	-0.298475	-0.215852	-0.321884
H419	H	-0.332894	-0.207720	-0.378427
O420	O	-0.450681	-0.139745	-0.555390
C421	C	-0.455439	-0.183361	-0.555267
H422	H	-0.452342	-0.217400	-0.513397
H423	H	-0.495877	-0.158428	-0.584979
H424	H	-0.421949	-0.209524	-0.567324
H425	H	-0.592678	0.010046	-0.358301
H426	H	-0.446416	-0.143601	-0.159427
O427	O	-0.500151	-0.082158	-0.261738
C428	C	-0.518664	-0.066325	-0.226186
H429	H	-0.482971	-0.088084	-0.192108
H430	H	-0.544143	-0.013874	-0.248593
H431	H	-0.543847	-0.084212	-0.209109
H432	H	-0.348244	0.380614	-0.257539
