data_functionalizedCrystal
_audit_creation_method	'MofGen! by Chris Wilmer'
_symmetry_space_group_name_H-M	'P1'
_symmetry_Int_Tables_number	1
_symmetry_cell_setting	triclinic
loop_
_symmetry_equiv_pos_as_xyz
  x,y,z
_cell_length_a	16.109302
_cell_length_b	14.853567
_cell_length_c	14.586319
_cell_angle_alpha	90.000002
_cell_angle_beta	89.994552
_cell_angle_gamma	83.548356
loop_
_atom_site_label
_atom_site_type_symbol
_atom_site_fract_x
_atom_site_fract_y
_atom_site_fract_z
O1	O	1.103293	0.115884	-0.076274
O2	O	0.861252	0.130304	-0.076266
O3	O	0.988738	-0.008146	-0.076273
O4	O	0.975807	0.254334	-0.076267
O5	O	0.988729	-0.008148	0.076208
O6	O	0.861243	0.130302	0.076215
O7	O	1.103284	0.115882	0.076207
Cu8	Cu	0.982263	0.123092	0.090134
Cu9	Cu	0.982273	0.123094	-0.090192
O10	O	0.975798	0.254332	0.076214
C11	C	0.830271	0.129719	-0.000024
C12	C	0.737974	0.127967	-0.000021
C13	C	0.525622	0.123916	0.083087
C14	C	0.438900	0.122261	0.083083
C15	C	0.438920	0.122267	-0.083160
C16	C	0.525642	0.123916	-0.083155
C17	C	0.568990	0.124745	-0.000030
C18	C	0.395546	0.121441	-0.000037
C19	C	0.301518	0.119646	-0.000041
C20	C	0.663024	0.126539	-0.000025
C21	C	0.988147	-0.041735	-0.000035
C22	C	0.986392	-0.141816	-0.000043
C23	C	0.903240	-0.554213	-0.000022
C24	C	1.054697	-0.575743	-0.000028
C25	C	1.056348	-0.481712	-0.000033
C26	C	0.981444	-0.423927	-0.000032
C27	C	0.904889	-0.460173	-0.000025
C28	C	1.132901	-0.445459	-0.000031
C29	C	1.134555	-0.351423	-0.000035
C30	C	1.059650	-0.293636	-0.000040
C31	C	0.983092	-0.329887	-0.000035
C32	C	0.908188	-0.272102	-0.000033
C33	C	0.831630	-0.308351	-0.000034
C34	C	0.829984	-0.402385	-0.000031
C35	C	1.061296	-0.199601	-0.000044
C36	C	0.909837	-0.178062	-0.000036
C37	C	1.134264	0.116467	-0.000036
C38	C	1.226562	0.118219	-0.000045
C39	C	0.976389	0.287921	-0.000026
C40	C	0.978144	0.388002	-0.000024
N41	N	0.982261	0.123090	0.216966
N42	N	0.982281	0.123089	-0.217024
C43	C	1.038731	0.061804	0.451969
C44	C	1.038733	0.061802	0.547950
C45	C	0.925805	0.184378	0.547966
C46	C	0.925800	0.184375	0.451986
C47	C	0.982267	0.123089	0.403990
C48	C	0.982275	0.123090	0.595951
C49	C	0.982277	0.123088	0.700018
C50	C	0.982264	0.123090	0.299917
H51	H	0.403594	0.121586	0.150765
C52	C	0.305989	0.119753	-0.156982
C53	C	0.391267	0.121369	-0.174528
H54	H	0.276572	0.119206	-0.213392
H55	H	0.298056	0.066942	-0.122843
H56	H	0.285502	0.172026	-0.122824
H57	H	0.411755	0.069092	-0.208681
H58	H	0.399205	0.174185	-0.208682
C59	C	0.823827	-0.059824	-0.078423
C60	C	0.827497	-0.114547	-0.000038
H61	H	0.772991	-0.020618	-0.078426
H62	H	0.869647	-0.024778	-0.078414
H63	H	0.826339	-0.096966	-0.131590
H64	H	0.824991	-0.077406	0.053130
H65	H	0.781665	-0.149596	-0.000039
C66	C	0.875651	0.238797	0.304861
C67	C	0.863733	0.251747	0.399240
H68	H	0.837330	0.280383	0.272299
H69	H	0.931141	0.248605	0.289129
H70	H	0.866550	0.178621	0.289147
H71	H	0.872839	0.311921	0.414955
H72	H	0.808230	0.241946	0.414978
H73	H	0.560914	0.124591	0.150773
H74	H	0.560953	0.124589	-0.150843
C75	C	0.745632	-0.190102	-0.078418
C76	C	0.749295	-0.244828	-0.000034
H77	H	0.694801	-0.150888	-0.078418
H78	H	0.791458	-0.155065	-0.078408
H79	H	0.748138	-0.227242	-0.131586
H80	H	0.746796	-0.207688	0.053135
H81	H	0.703457	-0.279868	-0.000036
C82	C	0.760210	-0.536972	-0.000005
C83	C	0.745837	-0.442233	-0.000018
H84	H	0.708261	-0.561573	0.000012
H85	H	0.791049	-0.556805	-0.053177
H86	H	0.791059	-0.556790	0.053170
H87	H	0.714994	-0.422415	-0.053197
H88	H	0.714985	-0.422392	0.053160
H89	H	1.084709	0.011900	0.412893
C90	C	1.119414	-0.729450	-0.000021
C91	C	1.137028	-0.639258	-0.000027
H92	H	1.170246	-0.768663	-0.000027
H93	H	1.088033	-0.740427	0.053152
H94	H	1.088030	-0.740431	-0.053196
H95	H	1.168407	-0.628276	0.053150
H96	H	1.168423	-0.628278	-0.053206
C97	C	1.261492	-0.492769	-0.078415
C98	C	1.215230	-0.508978	-0.000032
H99	H	1.312322	-0.531984	-0.078412
H100	H	1.230109	-0.503755	-0.131578
H101	H	1.273430	-0.431577	-0.078402
H102	H	1.203287	-0.570168	-0.000048
H103	H	1.246620	-0.497999	0.053145
H104	H	0.840908	-0.583731	-0.000027
H105	H	1.084710	0.011897	0.587012
C106	C	1.224278	-0.258177	-0.078434
C107	C	1.218705	-0.311581	-0.000044
H108	H	1.276227	-0.233576	-0.078437
H109	H	1.220490	-0.294420	-0.131592
H110	H	1.179902	-0.210306	-0.078424
H111	H	1.263078	-0.359455	-0.000057
H112	H	1.222501	-0.275335	0.053128
H113	H	1.123628	-0.170091	-0.000037
H114	H	0.879832	0.234276	0.587054
