data_functionalizedCrystal
_audit_creation_method	'MofGen! by Chris Wilmer'
_symmetry_space_group_name_H-M	'P1'
_symmetry_Int_Tables_number	1
_symmetry_cell_setting	triclinic
loop_
_symmetry_equiv_pos_as_xyz
  x,y,z
_cell_length_a	13.339070
_cell_length_b	14.519731
_cell_length_c	12.376457
_cell_angle_alpha	101.297478
_cell_angle_beta	75.589755
_cell_angle_gamma	99.659074
loop_
_atom_site_label
_atom_site_type_symbol
_atom_site_fract_x
_atom_site_fract_y
_atom_site_fract_z
O1	O	1.362545	0.449832	-0.094056
O2	O	1.067902	0.389120	-0.094048
O3	O	1.223022	0.287224	-0.094042
O4	O	1.207425	0.551727	-0.094062
O5	O	1.184256	0.312653	0.093968
O6	O	1.029135	0.414549	0.093962
O7	O	1.323779	0.475261	0.093954
Zn8	Zn	1.170302	0.448942	0.123809
Zn9	Zn	1.221378	0.415438	-0.123903
O10	O	1.168658	0.577156	0.093948
C11	C	1.010810	0.391579	-0.000042
C12	C	0.898449	0.361009	-0.000038
C13	C	1.202908	0.265393	-0.000037
C14	C	1.200717	0.162456	-0.000036
C15	C	0.534114	0.598699	-0.000074
C16	C	0.639682	0.627422	-0.000081
C17	C	0.704379	0.560822	-0.000070
C18	C	0.663497	0.465492	-0.000053
C19	C	0.557920	0.436764	-0.000055
C20	C	0.728185	0.398887	-0.000051
C21	C	0.687304	0.303558	-0.000034
C22	C	0.581737	0.274835	-0.000035
C23	C	0.517040	0.341435	-0.000046
C24	C	0.833762	0.427615	-0.000049
C25	C	0.857569	0.265681	-0.000029
C26	C	0.752000	0.236957	-0.000023
C27	C	1.198938	0.078859	-0.000038
C28	C	1.196715	-0.026017	-0.000047
C29	C	1.194952	-0.109606	-0.000054
C30	C	1.192729	-0.214488	-0.000061
C31	C	1.380871	0.472802	-0.000055
C32	C	1.493233	0.503370	-0.000065
C33	C	1.188773	0.598987	-0.000060
C34	C	1.190965	0.701923	-0.000068
N35	N	1.135451	0.471809	0.292866
N36	N	1.256237	0.392566	-0.292960
C37	C	1.337137	0.339467	0.647859
C38	C	1.361524	0.323460	0.529520
C39	C	1.305008	0.360546	0.470351
C40	C	1.224101	0.413641	0.529532
C41	C	1.199717	0.429655	0.647882
C42	C	1.167587	0.450734	0.470374
C43	C	1.086681	0.503829	0.529555
C44	C	1.062301	0.519840	0.647894
C45	C	1.118817	0.482754	0.707064
C46	C	1.191971	0.434720	0.352024
C47	C	1.054551	0.524909	0.352047
C48	C	1.030165	0.540915	0.470386
H49	H	0.867037	0.505233	-0.000058
H50	H	0.790337	0.584214	-0.000078
Br51	Br	0.695160	0.756790	-0.000113
Br52	Br	0.446314	0.689071	-0.000113
H53	H	0.548457	0.197210	-0.000034
Br54	Br	1.413843	0.289155	0.728159
H55	H	0.964289	0.584146	0.518586
H56	H	1.324867	0.347511	0.373994
H57	H	1.008532	0.555109	0.303872
H58	H	0.910246	0.211448	-0.000025
Br59	Br	1.471322	0.251410	0.449204
Br60	Br	0.696505	0.107585	0.000002
Br61	Br	1.085712	0.504471	0.867674
Br62	Br	0.373760	0.302457	-0.000030
H63	H	1.257846	0.391491	0.303849
H64	H	0.996430	0.563082	0.696080
