data_functionalizedCrystal
_audit_creation_method	'MofGen! by Chris Wilmer'
_symmetry_space_group_name_H-M	'P1'
_symmetry_Int_Tables_number	1
_symmetry_cell_setting	triclinic
loop_
_symmetry_equiv_pos_as_xyz
  x,y,z
_cell_length_a	16.625547
_cell_length_b	16.625539
_cell_length_c	10.686285
_cell_angle_alpha	85.609990
_cell_angle_beta	85.631193
_cell_angle_gamma	89.978691
loop_
_atom_site_label
_atom_site_type_symbol
_atom_site_fract_x
_atom_site_fract_y
_atom_site_fract_z
Zn1	Zn	1.257367	-0.431441	-0.502369
Zn2	Zn	1.507367	-0.181441	-0.252369
Zn3	Zn	1.757367	0.068559	-0.002369
Zn4	Zn	2.007367	0.318559	0.247631
Zn5	Zn	1.267659	-0.286293	-0.713382
Zn6	Zn	1.517659	-0.036293	-0.463382
Zn7	Zn	1.767659	0.213707	-0.213382
Zn8	Zn	2.017659	0.463707	0.036618
Zn9	Zn	1.122538	-0.296610	-0.502406
Zn10	Zn	1.372538	-0.046610	-0.252406
Zn11	Zn	1.622538	0.203390	-0.002406
Zn12	Zn	1.872538	0.453390	0.247594
Zn13	Zn	1.132876	-0.421076	-0.713312
Zn14	Zn	1.382876	-0.171076	-0.463312
Zn15	Zn	1.632876	0.078924	-0.213312
Zn16	Zn	1.882876	0.328924	0.036688
O17	O	1.195110	-0.358855	-0.607867
O18	O	1.445110	-0.108855	-0.357867
O19	O	1.695110	0.141145	-0.107867
O20	O	1.945110	0.391145	0.142133
O21	O	1.371565	-0.412207	-0.530374
O22	O	1.621565	-0.162207	-0.280374
O23	O	1.871565	0.087793	-0.030374
O24	O	2.121565	0.337793	0.219626
O25	O	1.248389	-0.174827	-0.685440
O26	O	1.498389	0.075173	-0.435440
O27	O	1.748389	0.325173	-0.185440
O28	O	1.998389	0.575173	0.064560
O29	O	1.131790	-0.323152	-0.325826
O30	O	1.381790	-0.073152	-0.075826
O31	O	1.631790	0.176848	0.174174
O32	O	1.881790	0.426848	0.424174
O33	O	1.379127	-0.305567	-0.685404
O34	O	1.629127	-0.055567	-0.435404
O35	O	1.879127	0.194433	-0.185404
O36	O	2.129127	0.444433	0.064596
O37	O	1.230848	-0.422212	-0.325799
O38	O	1.480848	-0.172212	-0.075799
O39	O	1.730848	0.077788	0.174201
O40	O	1.980848	0.327788	0.424201
O41	O	1.141770	-0.182407	-0.530437
O42	O	1.391770	0.067593	-0.280437
O43	O	1.641770	0.317593	-0.030437
O44	O	1.891770	0.567593	0.219563
O45	O	1.011077	-0.313101	-0.530369
O46	O	1.261077	-0.063101	-0.280369
O47	O	1.511077	0.186899	-0.030369
O48	O	1.761077	0.436899	0.219631
O49	O	1.149409	-0.535286	-0.685285
O50	O	1.399409	-0.285286	-0.435285
O51	O	1.649409	-0.035286	-0.185285
O52	O	1.899409	0.214714	0.064715
O53	O	1.018672	-0.404545	-0.685321
O54	O	1.268672	-0.154545	-0.435321
O55	O	1.518672	0.095455	-0.185321
O56	O	1.768672	0.345455	0.064679
O57	O	1.240872	-0.542901	-0.530306
O58	O	1.490872	-0.292901	-0.280306
O59	O	1.740872	-0.042901	-0.030306
O60	O	1.990872	0.207099	0.219694
O61	O	1.258413	-0.295516	-0.889948
O62	O	1.508413	-0.045516	-0.639948
O63	O	1.758413	0.204484	-0.389948
O64	O	2.008413	0.454484	-0.139948
O65	O	1.159389	-0.394541	-0.889896
O66	O	1.409389	-0.144541	-0.639896
O67	O	1.659389	0.105459	-0.389896
O68	O	1.909389	0.355459	-0.139896
C69	C	0.985618	-0.358818	-0.607843
C70	C	1.235618	-0.108818	-0.357843
C71	C	1.485618	0.141182	-0.107843
C72	C	1.735618	0.391182	0.142157
C73	C	0.895998	-0.358820	-0.607863
C74	C	1.145998	-0.108820	-0.357863
C75	C	1.395998	0.141180	-0.107863
C76	C	1.645998	0.391180	0.142137
C77	C	0.823215	-0.358830	-0.607865
C78	C	1.073215	-0.108830	-0.357865
C79	C	1.323215	0.141170	-0.107865
C80	C	1.573215	0.391170	0.142135
C81	C	0.731907	-0.358850	-0.607872
C82	C	0.981907	-0.108850	-0.357872
C83	C	1.231907	0.141150	-0.107872
C84	C	1.481907	0.391150	0.142128
C85	C	0.659131	-0.358870	-0.607883
C86	C	0.909131	-0.108870	-0.357883
C87	C	1.159131	0.141130	-0.107883
C88	C	1.409131	0.391130	0.142117
C89	C	0.567818	-0.358889	-0.607892
C90	C	0.817818	-0.108889	-0.357892
C91	C	1.067818	0.141111	-0.107892
C92	C	1.317818	0.391111	0.142108
C93	C	1.195145	-0.569168	-0.607784
C94	C	1.445145	-0.319168	-0.357784
C95	C	1.695145	-0.069168	-0.107784
C96	C	1.945145	0.180832	0.142216
C97	C	1.195160	-0.658791	-0.607748
C98	C	1.445160	-0.408791	-0.357748
C99	C	1.695160	-0.158791	-0.107748
C100	C	1.945160	0.091209	0.142252
C101	C	1.195172	-0.731575	-0.607720
C102	C	1.445172	-0.481575	-0.357720
C103	C	1.695172	-0.231575	-0.107720
C104	C	1.945172	0.018425	0.142280
C105	C	1.195189	-0.822886	-0.607673
C106	C	1.445189	-0.572886	-0.357673
C107	C	1.695189	-0.322886	-0.107673
C108	C	1.945189	-0.072886	0.142327
C109	C	1.195206	-0.895664	-0.607629
C110	C	1.445206	-0.645664	-0.357629
C111	C	1.695206	-0.395664	-0.107629
C112	C	1.945206	-0.145664	0.142371
C113	C	1.195223	-0.986981	-0.607583
C114	C	1.445223	-0.736981	-0.357583
C115	C	1.695223	-0.486981	-0.107583
C116	C	1.945223	-0.236981	0.142417
C117	C	1.405420	-0.358893	-0.607893
C118	C	1.655420	-0.108893	-0.357893
C119	C	1.905420	0.141107	-0.107893
C120	C	2.155420	0.391107	0.142107
C121	C	1.495042	-0.358909	-0.607903
C122	C	1.745042	-0.108909	-0.357903
C123	C	1.995042	0.141091	-0.107903
C124	C	2.245042	0.391091	0.142097
C125	C	1.211162	-0.342802	-0.935706
C126	C	1.461162	-0.092802	-0.685706
C127	C	1.711162	0.157198	-0.435706
C128	C	1.961162	0.407198	-0.185706
C129	C	1.218102	-0.335961	-1.075957
C130	C	1.468102	-0.085961	-0.825957
C131	C	1.718102	0.164039	-0.575957
C132	C	1.968102	0.414039	-0.325957
C133	C	1.195117	-0.149365	-0.607859
C134	C	1.445117	0.100635	-0.357859
C135	C	1.695117	0.350635	-0.107859
C136	C	1.945117	0.600635	0.142141
C137	C	1.195240	-0.059760	-0.607539
C138	C	1.445240	0.190240	-0.357539
C139	C	1.695240	0.440240	-0.107539
C140	C	1.945240	0.690240	0.142461
C141	C	1.179018	-0.374989	-0.278748
C142	C	1.429018	-0.124989	-0.028748
C143	C	1.679018	0.125011	0.221252
C144	C	1.929018	0.375011	0.471252
C145	C	1.172160	-0.381864	-0.138497
C146	C	1.422160	-0.131864	0.111503
C147	C	1.672160	0.118136	0.361503
C148	C	1.922160	0.368136	0.611503
H149	H	1.127517	-0.426398	-1.084746
H150	H	1.377517	-0.176398	-0.834746
H151	H	1.627517	0.073602	-0.584746
H152	H	1.877517	0.323602	-0.334746
H153	H	1.262742	-0.291419	-1.129716
H154	H	1.512742	-0.041419	-0.879716
H155	H	1.762742	0.208581	-0.629716
H156	H	2.012742	0.458581	-0.379716
