data_functionalizedCrystal
_audit_creation_method	'MofGen! by Chris Wilmer'
_symmetry_space_group_name_H-M	'P1'
_symmetry_Int_Tables_number	1
_symmetry_cell_setting	triclinic
loop_
_symmetry_equiv_pos_as_xyz
  x,y,z
_cell_length_a	15.944551
_cell_length_b	12.811438
_cell_length_c	11.295483
_cell_angle_alpha	80.460799
_cell_angle_beta	85.899751
_cell_angle_gamma	96.227336
loop_
_atom_site_label
_atom_site_type_symbol
_atom_site_fract_x
_atom_site_fract_y
_atom_site_fract_z
O1	O	-0.098845	1.410629	-0.251337
O2	O	-0.113038	1.102671	-0.218083
O3	O	0.016357	1.265061	-0.235625
O4	O	-0.228239	1.248240	-0.233795
O5	O	0.005009	1.250798	-0.036034
O6	O	-0.124385	1.088408	-0.018492
O7	O	-0.110192	1.396366	-0.051746
Cu8	Cu	-0.118325	1.241085	-0.016894
Cu9	Cu	-0.104905	1.257953	-0.252935
O10	O	-0.239587	1.233977	-0.034204
C11	C	-0.118264	1.056132	-0.114033
C12	C	-0.116920	0.938708	-0.101354
C13	C	-0.121212	0.765431	0.025307
C14	C	-0.122475	0.875760	0.013399
C15	C	-0.110104	0.891319	-0.204207
C16	C	-0.108841	0.780990	-0.192300
C17	C	-0.114394	0.718050	-0.077539
C18	C	-0.113125	0.607719	-0.065632
C19	C	-0.100760	0.623279	-0.283238
C20	C	-0.102023	0.733608	-0.295145
C21	C	-0.265205	1.241807	-0.134073
C22	C	-0.358446	1.243900	-0.134294
C23	C	-0.573015	1.349561	-0.145721
C24	C	-0.639759	1.293463	-0.042013
C25	C	-0.529161	1.247688	-0.134714
C26	C	-0.628557	1.307502	-0.238792
C27	C	-0.694063	1.251354	-0.135125
C28	C	-0.594682	1.191556	-0.030921
C29	C	-0.583468	1.205615	-0.227790
C30	C	-0.650197	1.149442	-0.124050
C31	C	-0.434165	1.245578	-0.134476
C32	C	-0.789058	1.253455	-0.135353
C33	C	0.041975	1.257231	-0.135759
C34	C	0.135217	1.255139	-0.135545
C35	C	-0.104966	1.442906	-0.155799
C36	C	-0.106309	1.560330	-0.168486
N37	N	-0.127763	1.229229	0.149123
N38	N	-0.095460	1.269817	-0.418952
C39	C	-0.027472	1.355164	0.384808
C40	C	-0.034610	1.346212	0.510439
C41	C	-0.149174	1.202368	0.526017
C42	C	-0.142035	1.211320	0.400387
C43	C	-0.081183	1.287722	0.329786
C44	C	-0.074049	1.296678	0.204153
C45	C	-0.188609	1.152830	0.219734
C46	C	-0.195747	1.143878	0.345365
H47	H	-0.097505	0.784868	-0.388580
Br48	Br	-0.653968	1.389256	-0.385208
Br49	Br	0.008531	1.400369	0.108338
H50	H	-0.105591	0.942582	-0.297640
Br51	Br	-0.091534	0.558966	-0.422823
H52	H	-0.117652	0.556474	0.027812
Br53	Br	0.055100	1.458863	0.288989
Br54	Br	0.038291	1.437739	0.585110
H55	H	-0.198713	1.140157	0.583517
Br56	Br	-0.542226	1.143767	-0.358719
H57	H	-0.539485	1.434114	-0.154755
H58	H	-0.664479	1.330606	0.036533
Br59	Br	-0.278325	1.040190	0.441187
H60	H	-0.232346	1.097917	0.174921
H61	H	-0.579543	1.142550	0.057016
H62	H	-0.125739	0.714183	0.118750
H63	H	-0.683588	1.064805	-0.114856
Br64	Br	-0.131735	0.940061	0.152982
