data_functionalizedCrystal
_audit_creation_method	'MofGen! by Chris Wilmer'
_symmetry_space_group_name_H-M	'P1'
_symmetry_Int_Tables_number	1
_symmetry_cell_setting	triclinic
loop_
_symmetry_equiv_pos_as_xyz
  x,y,z
_cell_length_a	10.489741
_cell_length_b	10.489741
_cell_length_c	9.565339
_cell_angle_alpha	90.000516
_cell_angle_beta	89.999100
_cell_angle_gamma	84.539174
loop_
_atom_site_label
_atom_site_type_symbol
_atom_site_fract_x
_atom_site_fract_y
_atom_site_fract_z
O1	O	1.694053	0.179959	-0.116173
O2	O	1.322857	0.196852	-0.116194
O3	O	1.516901	0.002807	-0.116175
O4	O	1.500009	0.374003	-0.116192
O5	O	1.516886	0.002819	0.116345
O6	O	1.322842	0.196864	0.116326
O7	O	1.694038	0.179971	0.116347
Zn8	Zn	1.508437	0.188419	0.153254
Zn9	Zn	1.508458	0.188403	-0.153101
O10	O	1.499993	0.374015	0.116328
C11	C	1.275318	0.195582	0.000063
C12	C	1.133688	0.191765	0.000055
C13	C	1.065548	0.068300	0.000074
C14	C	0.973429	0.126617	-0.114571
C15	C	0.973448	0.126659	0.114676
C16	C	1.043435	0.250133	-0.114684
C17	C	1.043463	0.250157	0.114665
C18	C	0.951371	0.308564	-0.000007
C19	C	1.515618	-0.044718	0.000084
C20	C	1.511801	-0.186348	0.000082
C21	C	1.388336	-0.254488	0.000064
C22	C	1.446652	-0.346604	0.114712
C23	C	1.446696	-0.346591	-0.114534
C24	C	1.570168	-0.276599	0.114824
C25	C	1.570195	-0.276576	-0.114525
C26	C	1.628600	-0.368665	0.000150
C27	C	1.741577	0.181241	0.000087
C28	C	1.883206	0.185058	0.000086
C29	C	1.501277	0.421541	0.000066
C30	C	1.505094	0.563170	0.000059
N31	N	1.508433	0.188429	0.362334
N32	N	1.508472	0.188383	-0.362180
C33	C	1.418666	0.278138	0.453528
C34	C	1.534163	0.303949	0.546712
C35	C	1.392986	0.162629	0.546704
C36	C	1.623988	0.214298	0.453466
C37	C	1.482735	0.072928	0.453451
C38	C	1.598314	0.098690	0.546593
H39	H	1.286824	-0.204837	0.000174
H40	H	1.721659	0.236217	0.412683
O41	O	1.080345	0.312518	-0.230306
C42	C	1.183777	0.490801	-0.320588
C43	C	1.142071	0.420265	-0.189533
H44	H	1.233667	0.577942	-0.287670
H45	H	1.252551	0.423557	-0.384912
H46	H	1.095894	0.523167	-0.386217
H47	H	1.229876	0.387891	-0.123796
H48	H	1.073253	0.487554	-0.125314
H49	H	1.295338	0.140828	0.587664
O50	O	1.688918	0.008001	0.594878
C51	C	1.765350	-0.215969	0.600223
C52	C	1.662674	-0.113400	0.545416
H53	H	1.744153	-0.314148	0.560280
H54	H	1.863701	-0.193861	0.561663
H55	H	1.764162	-0.215833	0.719398
H56	H	1.663744	-0.113480	0.426245
H57	H	1.564370	-0.135545	0.584083
H58	H	1.730204	-0.418089	0.000220
O59	O	1.456509	-0.043489	0.404594
C60	C	1.305134	-0.202320	0.396656
C61	C	1.334678	-0.070449	0.452055
H62	H	1.206646	-0.224170	0.435030
H63	H	1.306219	-0.201469	0.277482
H64	H	1.380722	-0.278995	0.436524
H65	H	1.259122	0.006299	0.412290
H66	H	1.333638	-0.071408	0.571227
H67	H	1.394405	-0.377611	0.211633
H68	H	1.622356	-0.245762	0.211859
H69	H	1.622398	-0.245536	-0.211451
H70	H	0.901947	0.410168	-0.000074
H71	H	0.942421	0.074372	-0.211491
H72	H	1.115238	-0.033196	-0.000065
H73	H	1.342823	0.354073	0.412665
O74	O	1.080473	0.312247	0.230434
C75	C	1.087107	0.317415	0.482167
C76	C	1.045144	0.246972	0.351163
H77	H	1.058537	0.264685	0.579809
H78	H	1.195442	0.320498	0.480583
H79	H	1.038325	0.419281	0.483085
H80	H	1.093835	0.145075	0.350159
H81	H	0.936798	0.243993	0.352797
H82	H	1.555926	0.401606	0.587676
H83	H	0.942463	0.074401	0.211599
H84	H	1.394447	-0.377560	-0.211470
