data_functionalizedCrystal
_audit_creation_method	'MofGen! by Chris Wilmer'
_symmetry_space_group_name_H-M	'P1'
_symmetry_Int_Tables_number	1
_symmetry_cell_setting	triclinic
loop_
_symmetry_equiv_pos_as_xyz
  x,y,z
_cell_length_a	16.120530
_cell_length_b	19.121063
_cell_length_c	16.120297
_cell_angle_alpha	95.179432
_cell_angle_beta	90.128140
_cell_angle_gamma	89.687057
loop_
_atom_site_label
_atom_site_type_symbol
_atom_site_fract_x
_atom_site_fract_y
_atom_site_fract_z
Zn1	Zn	1.228532	-0.355748	-0.551587
Zn2	Zn	1.728532	0.144252	-0.051587
Zn3	Zn	1.229542	-0.467532	-0.417878
Zn4	Zn	1.729542	0.032468	0.082122
Zn5	Zn	1.097153	-0.343883	-0.404937
Zn6	Zn	1.597153	0.156117	0.095063
Zn7	Zn	1.083532	-0.466885	-0.549816
Zn8	Zn	1.583532	0.033115	-0.049816
O9	O	1.159690	-0.408512	-0.481054
O10	O	1.659690	0.091488	0.018946
O11	O	1.344754	-0.375813	-0.540007
O12	O	1.844754	0.124187	-0.040007
O13	O	1.218103	-0.446434	-0.299571
O14	O	1.718103	0.053566	0.200429
O15	O	1.119859	-0.247198	-0.419716
O16	O	1.619859	0.252802	0.080284
O17	O	1.345496	-0.457940	-0.441771
O18	O	1.845496	0.042060	0.058229
O19	O	1.216382	-0.255916	-0.527458
O20	O	1.716382	0.244084	-0.027458
O21	O	1.120838	-0.355590	-0.290063
O22	O	1.620838	0.144410	0.209937
O23	O	0.979258	-0.354963	-0.417999
O24	O	1.479258	0.145037	0.082001
O25	O	1.096644	-0.456838	-0.666641
O26	O	1.596644	0.043162	-0.166641
O27	O	0.969251	-0.445332	-0.524441
O28	O	1.469251	0.054668	-0.024441
O29	O	1.203175	-0.375186	-0.667942
O30	O	1.703175	0.124814	-0.167942
O31	O	1.204895	-0.565705	-0.440054
O32	O	1.704895	-0.065705	0.059946
O33	O	1.097623	-0.565230	-0.536989
O34	O	1.597623	-0.065230	-0.036989
C35	C	0.944155	-0.398790	-0.469624
C36	C	1.444155	0.101210	0.030376
C37	C	0.851946	-0.394649	-0.464754
C38	C	1.351946	0.105351	0.035246
C39	C	0.683119	-0.387072	-0.455870
C40	C	1.183119	0.112928	0.044130
C41	C	0.637096	-0.430006	-0.506302
C42	C	1.137096	0.069994	-0.006302
C43	C	0.543155	-0.425790	-0.501358
C44	C	1.043155	0.074210	-0.001358
C45	C	0.777068	-0.391287	-0.460812
C46	C	1.277068	0.108713	0.039188
C47	C	1.149912	-0.590946	-0.489753
C48	C	1.649912	-0.090946	0.010247
C49	C	1.145804	-0.668997	-0.493506
C50	C	1.645804	-0.168997	0.006494
C51	C	1.199763	-0.705893	-0.444847
C52	C	1.699763	-0.205893	0.055153
C53	C	1.195904	-0.779230	-0.448382
C54	C	1.695904	-0.279230	0.051618
C55	C	1.138080	-0.815670	-0.500573
C56	C	1.638080	-0.315670	-0.000573
C57	C	1.084118	-0.778769	-0.549237
C58	C	1.584118	-0.278769	-0.049237
C59	C	1.087982	-0.705433	-0.545706
C60	C	1.587982	-0.205433	-0.045706
C61	C	1.123621	-1.037085	-0.513761
C62	C	1.623621	-0.537085	-0.013761
C63	C	1.119760	-1.110426	-0.517287
C64	C	1.619760	-0.610426	-0.017287
C65	C	1.231547	-1.110882	-0.416433
C66	C	1.731547	-0.610882	0.083567
C67	C	1.235403	-1.037545	-0.412903
C68	C	1.735403	-0.537545	0.087097
C69	C	1.181443	-1.000650	-0.461570
C70	C	1.681443	-0.500650	0.038430
C71	C	1.134132	-0.890632	-0.504185
C72	C	1.634132	-0.390632	-0.004185
C73	C	1.185396	-0.925690	-0.457962
C74	C	1.685396	-0.425690	0.042038
C75	C	1.376067	-0.418272	-0.492530
C76	C	1.876067	0.081728	0.007470
C77	C	1.468274	-0.422431	-0.497420
C78	C	1.968274	0.077569	0.002580
C79	C	1.148278	-0.417263	-0.698367
C80	C	1.648278	0.082737	-0.198367
C81	C	1.143414	-0.420993	-0.790973
C82	C	1.643414	0.079007	-0.290973
C83	C	1.169527	-0.225367	-0.472341
C84	C	1.669527	0.274633	0.027659
C85	C	1.173720	-0.147322	-0.468628
C86	C	1.673720	0.352678	0.031372
C87	C	1.134506	-0.427785	-0.960523
C88	C	1.634506	0.072215	-0.460523
C89	C	1.185049	-0.389036	-1.002436
C90	C	1.685049	0.110964	-0.502436
C91	C	1.180092	-0.392815	-1.096780
C92	C	1.680092	0.107185	-0.596780
C93	C	1.139461	-0.424006	-0.866171
C94	C	1.639461	0.075994	-0.366171
C95	C	1.171108	-0.399746	-0.264587
C96	C	1.671108	0.100254	0.235413
C97	C	1.176143	-0.395826	-0.171981
C98	C	1.676143	0.104174	0.328019
H99	H	0.668246	-0.469929	-0.553190
H100	H	1.168246	0.030071	-0.053190
C101	C	0.641746	-0.333774	-0.393320
C102	C	1.141746	0.166226	0.106680
C103	C	0.702667	-0.294977	-0.347769
C104	C	1.202667	0.205023	0.152231
C105	C	0.664574	-0.245870	-0.290146
C106	C	1.164574	0.254130	0.209854
H107	H	0.608408	-0.357560	-0.356428
H108	H	1.108408	0.142440	0.143572
H109	H	0.607927	-0.302981	-0.422027
H110	H	1.107927	0.197019	0.077973
H111	H	0.736471	-0.325765	-0.319063
H112	H	1.236471	0.174235	0.180937
H113	H	0.736008	-0.271176	-0.384638
H114	H	1.236008	0.228824	0.115362
H115	H	0.630755	-0.215078	-0.318854
H116	H	1.130755	0.284922	0.181146
H117	H	0.631238	-0.269663	-0.253261
H118	H	1.131238	0.230337	0.246739
H119	H	0.705903	-0.219537	-0.259239
H120	H	1.205903	0.280463	0.240761
C121	C	1.247583	-0.340958	-0.955707
C122	C	1.747583	0.159042	-0.455707
C123	C	1.205600	-0.291881	-0.901092
C124	C	1.705600	0.208119	-0.401092
C125	C	1.263174	-0.247584	-0.858023
C126	C	1.763174	0.252416	-0.358023
H127	H	1.278664	-0.317076	-0.994322
H128	H	1.778664	0.182924	-0.494322
H129	H	1.284030	-0.368086	-0.924910
H130	H	1.784030	0.131914	-0.424910
H131	H	1.169167	-0.264756	-0.931887
H132	H	1.669167	0.235244	-0.431887
H133	H	1.174522	-0.315743	-0.862460
H134	H	1.674522	0.184257	-0.362460
H135	H	1.299621	-0.274712	-0.827226
H136	H	1.799621	0.225288	-0.327226
H137	H	1.294253	-0.223707	-0.896645
H138	H	1.794253	0.276293	-0.396645
H139	H	1.234698	-0.214284	-0.820957
H140	H	1.734698	0.285716	-0.320957
C141	C	1.262629	-0.666463	-0.388159
C142	C	1.762629	-0.166463	0.111841
C143	C	1.309072	-0.714477	-0.346319
C144	C	1.809072	-0.214477	0.153681
C145	C	1.367001	-0.678182	-0.294100
C146	C	1.867001	-0.178182	0.205900
H147	H	1.234434	-0.634998	-0.348705
H148	H	1.734434	-0.134998	0.151295
H149	H	1.298628	-0.640745	-0.420579
H150	H	1.798628	-0.140745	0.079421
H151	H	1.273078	-0.740183	-0.313901
H152	H	1.773078	-0.240183	0.186099
H153	H	1.337285	-0.745943	-0.385753
H154	H	1.837285	-0.245943	0.114247
H155	H	1.403000	-0.652465	-0.326520
H156	H	1.903000	-0.152465	0.173480
H157	H	1.338799	-0.646719	-0.254651
H158	H	1.838799	-0.146719	0.245349
H159	H	1.398525	-0.710754	-0.265711
H160	H	1.898525	-0.210754	0.234289
C161	C	1.254713	-0.819282	-0.395773
C162	C	1.754713	-0.319282	0.104227
C163	C	1.303165	-0.865538	-0.447928
C164	C	1.803165	-0.365538	0.052072
C165	C	1.357420	-0.902414	-0.399529
C166	C	1.857420	-0.402414	0.100471
H167	H	1.223635	-0.845144	-0.359079
H168	H	1.723635	-0.345144	0.140921
H169	H	1.289742	-0.787053	-0.364266
H170	H	1.789742	-0.287053	0.135734
H171	H	1.268141	-0.897763	-0.479421
H172	H	1.768141	-0.397763	0.020579
H173	H	1.334261	-0.839695	-0.484623
H174	H	1.834261	-0.339695	0.015377
H175	H	1.392449	-0.870185	-0.368022
H176	H	1.892449	-0.370185	0.131978
H177	H	1.326335	-0.928272	-0.362836
H178	H	1.826335	-0.428272	0.137164
H179	H	1.390306	-0.933798	-0.434909
H180	H	1.890306	-0.433798	0.065091
C181	C	1.071936	-0.475788	-1.007299
C182	C	1.571936	0.024212	-0.507299
C183	C	1.079424	-0.470056	-1.092931
C184	C	1.579424	0.029944	-0.592931
C185	C	1.021810	-0.514274	-1.136059
C186	C	1.521810	-0.014274	-0.636059
H187	H	1.017437	-0.462492	-0.989738
H188	H	1.517437	0.037508	-0.489738
H189	H	1.082284	-0.522973	-0.996036
H190	H	1.582284	-0.022973	-0.496036
H191	H	1.069070	-0.422881	-1.104188
H192	H	1.569070	0.077119	-0.604188
H193	H	1.133911	-0.483357	-1.110516
H194	H	1.633911	0.016643	-0.610516
H195	H	1.032158	-0.561459	-1.124796
H196	H	1.532158	-0.061459	-0.624796
H197	H	0.967315	-0.500975	-1.118491
H198	H	1.467315	-0.000975	-0.618491
H199	H	1.026888	-0.510396	-1.194165
H200	H	1.526888	-0.010396	-0.694165
H201	H	1.275479	-1.140930	-0.376812
H202	H	1.775479	-0.640930	0.123188
C203	C	1.056952	-1.149866	-0.574044
C204	C	1.556952	-0.649866	-0.074044
C205	C	1.010540	-1.101862	-0.615929
C206	C	1.510540	-0.601862	-0.115929
C207	C	0.952686	-1.138170	-0.668226
C208	C	1.452686	-0.638170	-0.168226
H209	H	1.020917	-1.175603	-0.541700
H210	H	1.520917	-0.675603	-0.041700
H211	H	1.085232	-1.181317	-0.613466
H212	H	1.585232	-0.681317	-0.113466
H213	H	0.982263	-1.070424	-0.576513
H214	H	1.482263	-0.570424	-0.076513
H215	H	1.046553	-1.076124	-0.648290
H216	H	1.546553	-0.576124	-0.148290
H217	H	0.980965	-1.169621	-0.707647
H218	H	1.480965	-0.669621	-0.207647
H219	H	0.916657	-1.163905	-0.635875
H220	H	1.416657	-0.663905	-0.135875
H221	H	0.921194	-1.105605	-0.696657
H222	H	1.421194	-0.605605	-0.196657
H223	H	1.037040	-0.808444	-0.591735
H224	H	1.537040	-0.308444	-0.091735
C225	C	1.065164	-0.997011	-0.566702
C226	C	1.565164	-0.497011	-0.066702
C227	C	1.111497	-0.959139	-0.620625
C228	C	1.611497	-0.459139	-0.120625
C229	C	1.057669	-0.922221	-0.669416
C230	C	1.557669	-0.422221	-0.169416
H231	H	1.032204	-0.965474	-0.531606
H232	H	1.532204	-0.465474	-0.031606
H233	H	1.030187	-1.029202	-0.598332
H234	H	1.530187	-0.529202	-0.098332
H235	H	1.146459	-0.926951	-0.588998
H236	H	1.646459	-0.426951	-0.088998
H237	H	1.144455	-0.990659	-0.655738
H238	H	1.644455	-0.490659	-0.155738
H239	H	1.022692	-0.954412	-0.701045
H240	H	1.522692	-0.454412	-0.201045
H241	H	1.024712	-0.890687	-0.634313
H242	H	1.524712	-0.390687	-0.134313
H243	H	1.089098	-0.896525	-0.706013
H244	H	1.589098	-0.396525	-0.206013
C245	C	1.029301	-0.665496	-0.598573
C246	C	1.529301	-0.165496	-0.098573
C247	C	0.977820	-0.713101	-0.645020
C248	C	1.477820	-0.213101	-0.145020
C249	C	0.923749	-0.676337	-0.693729
C250	C	1.423749	-0.176337	-0.193729
H251	H	1.060516	-0.639743	-0.635269
H252	H	1.560516	-0.139743	-0.135269
H253	H	0.996313	-0.634023	-0.563403
H254	H	1.496313	-0.134023	-0.063403
H255	H	1.010804	-0.744561	-0.680187
H256	H	1.510804	-0.244561	-0.180187
H257	H	0.946587	-0.738856	-0.608345
H258	H	1.446587	-0.238856	-0.108345
H259	H	0.890761	-0.644865	-0.658559
H260	H	1.390761	-0.144865	-0.158559
H261	H	0.954971	-0.650586	-0.730420
H262	H	1.454971	-0.150586	-0.230420
H263	H	0.888808	-0.708631	-0.725243
H264	H	1.388808	-0.208631	-0.225243
H265	H	1.232479	-0.896019	-0.415471
H266	H	1.732479	-0.396019	0.084529
H267	H	1.087051	-0.920309	-0.546677
H268	H	1.587051	-0.420309	-0.046677
H269	H	1.282487	-1.007877	-0.370405
H270	H	1.782487	-0.507877	0.129595
