data_functionalizedCrystal
_audit_creation_method	'MofGen! by Chris Wilmer'
_symmetry_space_group_name_H-M	'P1'
_symmetry_Int_Tables_number	1
_symmetry_cell_setting	triclinic
loop_
_symmetry_equiv_pos_as_xyz
  x,y,z
_cell_length_a	18.050591
_cell_length_b	18.050590
_cell_length_c	18.050582
_cell_angle_alpha	90.013008
_cell_angle_beta	89.976005
_cell_angle_gamma	89.998875
loop_
_atom_site_label
_atom_site_type_symbol
_atom_site_fract_x
_atom_site_fract_y
_atom_site_fract_z
Zn1	Zn	-1.135397	-0.295844	0.420142
Zn2	Zn	-0.802063	0.037490	0.753475
Zn3	Zn	-0.468730	0.370823	1.086808
Zn4	Zn	-1.135351	-0.420027	0.295972
Zn5	Zn	-0.802018	-0.086694	0.629306
Zn6	Zn	-0.468685	0.246640	0.962639
Zn7	Zn	-1.011216	-0.295840	0.295946
Zn8	Zn	-0.677883	0.037493	0.629279
Zn9	Zn	-0.344549	0.370826	0.962613
Zn10	Zn	-1.011208	-0.419981	0.420101
Zn11	Zn	-0.677874	-0.086648	0.753435
Zn12	Zn	-0.344541	0.246685	1.086768
O13	O	-1.073293	-0.357923	0.358040
O14	O	-0.739960	-0.024590	0.691374
O15	O	-0.406626	0.308744	1.024707
O16	O	-1.239315	-0.312337	0.403698
O17	O	-0.905982	0.020996	0.737032
O18	O	-0.572649	0.354329	1.070365
O19	O	-1.118869	-0.403571	0.192044
O20	O	-0.785535	-0.070238	0.525378
O21	O	-0.452202	0.263096	0.858711
O22	O	-1.027711	-0.191916	0.312427
O23	O	-0.694378	0.141417	0.645760
O24	O	-0.361045	0.474751	0.979094
O25	O	-1.239282	-0.403574	0.312472
O26	O	-0.905948	-0.070241	0.645805
O27	O	-0.572615	0.263093	0.979138
O28	O	-1.118946	-0.191919	0.403673
O29	O	-0.785613	0.141415	0.737006
O30	O	-0.452280	0.474748	1.070339
O31	O	-1.027667	-0.312332	0.192025
O32	O	-0.694334	0.021002	0.525358
O33	O	-0.361000	0.354335	0.858692
O34	O	-0.907290	-0.312287	0.312388
O35	O	-0.573957	0.021046	0.645721
O36	O	-0.240624	0.354379	0.979054
O37	O	-1.027697	-0.403496	0.524031
O38	O	-0.694364	-0.070163	0.857365
O39	O	-0.361031	0.263170	1.190698
O40	O	-0.907284	-0.403493	0.403604
O41	O	-0.573951	-0.070160	0.736937
O42	O	-0.240618	0.263173	1.070271
O43	O	-1.118938	-0.312293	0.524061
O44	O	-0.785605	0.021040	0.857394
O45	O	-0.452272	0.354374	1.190728
O46	O	-1.118861	-0.523945	0.312432
O47	O	-0.785527	-0.190612	0.645766
O48	O	-0.452194	0.142721	0.979099
O49	O	-1.027653	-0.523912	0.403629
O50	O	-0.694320	-0.190579	0.736963
O51	O	-0.360986	0.142755	1.070296
C52	C	-0.880341	-0.357885	0.357989
C53	C	-0.547007	-0.024552	0.691322
C54	C	-0.213674	0.308781	1.024656
C55	C	-0.797795	-0.357887	0.357985
C56	C	-0.464462	-0.024554	0.691318
C57	C	-0.131128	0.308779	1.024651
C58	C	-0.598326	-0.308222	0.308485
C59	C	-0.264993	0.025111	0.641818
C60	C	0.068341	0.358445	0.975151
C61	C	-0.548930	-0.375955	0.290217
C62	C	-0.215597	-0.042622	0.623551
C63	C	0.117736	0.290711	0.956884
C64	C	-0.646665	-0.357902	0.358010
C65	C	-0.313331	-0.024569	0.691343
C66	C	0.020002	0.308765	1.024677
C67	C	-0.548979	-0.290185	0.376268
C68	C	-0.215645	0.043149	0.709601
C69	C	0.117688	0.376482	1.042934
C70	C	-0.500679	-0.357911	0.358033
C71	C	-0.167346	-0.024577	0.691367
C72	C	0.165987	0.308756	1.024700
C73	C	-0.598356	-0.425671	0.339707
C74	C	-0.265023	-0.092338	0.673041
C75	C	0.068311	0.240996	1.006374
C76	C	-0.598409	-0.339855	0.425789
C77	C	-0.265076	-0.006522	0.759123
C78	C	0.068258	0.326812	1.092456
C79	C	-0.549035	-0.407635	0.407548
C80	C	-0.215702	-0.074302	0.740881
C81	C	0.117631	0.259031	1.074214
C82	C	-0.730763	-0.357896	0.357995
C83	C	-0.397430	-0.024563	0.691328
C84	C	-0.064096	0.308770	1.024661
C85	C	-0.416583	-0.357924	0.358049
C86	C	-0.083250	-0.024591	0.691382
C87	C	0.250084	0.308743	1.024715
C88	C	-1.073271	-0.550875	0.358046
C89	C	-0.739938	-0.217542	0.691379
C90	C	-0.406605	0.115792	1.024712
C91	C	-1.073330	-0.633421	0.358073
C92	C	-0.739997	-0.300088	0.691406
C93	C	-0.406663	0.033246	1.024739
C94	C	-1.073322	-0.357890	0.551746
C95	C	-0.739989	-0.024557	0.885079
C96	C	-0.406655	0.308777	1.218413
C97	C	-1.073334	-0.357876	0.634292
C98	C	-0.740001	-0.024543	0.967625
C99	C	-0.406668	0.308791	1.300959
C100	C	-0.266998	-0.357948	0.358079
C101	C	0.066335	-0.024615	0.691412
C102	C	0.399668	0.308718	1.024746
C103	C	-0.349544	-0.357926	0.358061
C104	C	-0.016211	-0.024593	0.691394
C105	C	0.317122	0.308740	1.024728
C106	C	-1.073335	-0.164217	0.358051
C107	C	-0.740002	0.169116	0.691385
C108	C	-0.406668	0.502449	1.024718
C109	C	-1.073353	-0.081672	0.358056
C110	C	-0.740019	0.251662	0.691389
C111	C	-0.406686	0.584995	1.024723
C112	C	-1.122964	0.117778	0.407691
C113	C	-0.789630	0.451111	0.741025
C114	C	-0.456297	0.784444	1.074358
C115	C	-1.141118	0.167156	0.339944
C116	C	-0.807785	0.500489	0.673277
C117	C	-0.474451	0.833822	1.006610
C118	C	-1.073345	0.069459	0.358060
C119	C	-0.740012	0.402792	0.691393
C120	C	-0.406679	0.736125	1.024727
C121	C	-1.055218	0.167162	0.425810
C122	C	-0.721885	0.500496	0.759143
C123	C	-0.388552	0.833829	1.092476
C124	C	-1.073340	0.215444	0.358070
C125	C	-0.740006	0.548777	0.691403
C126	C	-0.406673	0.882111	1.024736
C127	C	-1.091535	0.117750	0.290277
C128	C	-0.758201	0.451083	0.623610
C129	C	-0.424868	0.784416	0.956943
C130	C	-1.005604	0.117752	0.376188
C131	C	-0.672270	0.451085	0.709522
C132	C	-0.338937	0.784419	1.042855
C133	C	-1.023732	0.167108	0.308394
C134	C	-0.690399	0.500441	0.641728
C135	C	-0.357066	0.833774	0.975061
C136	C	-1.073351	-0.014640	0.358055
C137	C	-0.740017	0.318694	0.691389
C138	C	-0.406684	0.652027	1.024722
C139	C	-1.073334	0.299540	0.358067
C140	C	-0.740001	0.632874	0.691400
C141	C	-0.406668	0.966207	1.024733
C142	C	-1.073307	-0.357902	0.165088
C143	C	-0.739973	-0.024569	0.498422
C144	C	-0.406640	0.308764	0.831755
C145	C	-1.073438	-0.357707	0.082543
C146	C	-0.740105	-0.024374	0.415876
C147	C	-0.406771	0.308960	0.749210
C148	C	-1.023755	-0.407405	0.833726
C149	C	-0.690422	-0.074071	1.167060
C150	C	-0.357089	0.259262	1.500393
C151	C	-1.091517	-0.425566	0.883132
C152	C	-0.758184	-0.092233	1.216465
C153	C	-0.424850	0.241100	1.549798
C154	C	-1.073371	-0.357819	0.785422
C155	C	-0.740038	-0.024486	1.118756
C156	C	-0.406704	0.308847	1.452089
C157	C	-1.005647	-0.339637	0.883099
C158	C	-0.672313	-0.006304	1.216432
C159	C	-0.338980	0.327030	1.549766
C160	C	-1.073400	-0.357766	0.931408
C161	C	-0.740067	-0.024433	1.264741
C162	C	-0.406734	0.308901	1.598074
C163	C	-1.141168	-0.376017	0.833740
C164	C	-0.807835	-0.042683	1.167074
C165	C	-0.474501	0.290650	1.500407
C166	C	-1.055252	-0.290056	0.833703
C167	C	-0.721919	0.043278	1.167037
C168	C	-0.388585	0.376611	1.500370
C169	C	-1.123060	-0.308192	0.883086
C170	C	-0.789727	0.025142	1.216419
C171	C	-0.456394	0.358475	1.549753
C172	C	-1.073353	-0.357852	0.701324
C173	C	-0.740020	-0.024519	1.034657
C174	C	-0.406686	0.308815	1.367991
C175	C	-1.073426	-0.357733	1.015504
C176	C	-0.740093	-0.024400	1.348837
C177	C	-0.406759	0.308933	1.682171
H178	H	-0.527529	-0.449700	0.449439
H179	H	-0.194195	-0.116367	0.782773
H180	H	0.139138	0.216967	1.116106
F181	F	-1.035181	0.195534	0.500692
F182	F	-0.701848	0.528868	0.834025
F183	F	-0.368515	0.862201	1.167359
H184	H	-0.981836	-0.449392	0.812054
H185	H	-0.648503	-0.116059	1.145388
H186	H	-0.315170	0.217274	1.478721
H187	H	-1.164959	0.096118	0.449606
H188	H	-0.831625	0.429451	0.782940
H189	H	-0.498292	0.762785	1.116273
F190	F	-1.111572	-0.500439	0.911511
F191	F	-0.778239	-0.167106	1.244844
F192	F	-0.444906	0.166228	1.578177
F193	F	-0.520625	-0.215329	0.396438
F194	F	-0.187291	0.118005	0.729772
F195	F	0.146042	0.451338	1.063105
F196	F	-1.111650	0.089502	0.215369
F197	F	-0.778316	0.422835	0.548702
F198	F	-0.444983	0.756169	0.882036
H199	H	-0.948361	-0.324281	0.904781
H200	H	-0.615027	0.009053	1.238115
H201	H	-0.281694	0.342386	1.571448
F202	F	-1.216066	-0.396180	0.805522
F203	F	-0.882733	-0.062846	1.138856
F204	F	-0.549399	0.270487	1.472189
F205	F	-1.177981	-0.253353	0.911239
F206	F	-0.844647	0.079980	1.244572
F207	F	-0.511314	0.413313	1.577906
F208	F	-1.035172	-0.215203	0.805302
F209	F	-0.701839	0.118130	1.138635
F210	F	-0.368506	0.451464	1.471969
F211	F	-0.626617	-0.253371	0.253690
F212	F	-0.293284	0.079963	0.587023
F213	F	0.040049	0.413296	0.920356
F214	F	-0.520523	-0.395919	0.215311
F215	F	-0.187189	-0.062586	0.548644
F216	F	0.146144	0.270748	0.881977
H217	H	-0.981769	0.188631	0.266378
H218	H	-0.648436	0.521964	0.599712
H219	H	-0.315102	0.855297	0.933045
H220	H	-0.619955	-0.482959	0.324211
H221	H	-0.286621	-0.149626	0.657545
H222	H	0.046712	0.183707	0.990878
H223	H	-0.620159	-0.324561	0.483082
H224	H	-0.286826	0.008772	0.816415
H225	H	0.046508	0.342105	1.149748
F226	F	-1.215993	0.195522	0.319900
F227	F	-0.882659	0.528855	0.653233
F228	F	-0.549326	0.862188	0.986567
H229	H	-0.948334	0.096036	0.391542
H230	H	-0.615001	0.429370	0.724875
H231	H	-0.281668	0.762703	1.058208
