data_functionalizedCrystal
_audit_creation_method	'MofGen! by Chris Wilmer'
_symmetry_space_group_name_H-M	'P1'
_symmetry_Int_Tables_number	1
_symmetry_cell_setting	triclinic
loop_
_symmetry_equiv_pos_as_xyz
  x,y,z
_cell_length_a	8.497374
_cell_length_b	13.032831
_cell_length_c	13.032721
_cell_angle_alpha	90.902885
_cell_angle_beta	97.169095
_cell_angle_gamma	82.827283
loop_
_atom_site_label
_atom_site_type_symbol
_atom_site_fract_x
_atom_site_fract_y
_atom_site_fract_z
Zn1	Zn	1.299749	-1.519982	0.609635
Zn2	Zn	1.064703	-1.498071	0.781567
Zn3	Zn	0.998870	-1.348061	0.587743
Zn4	Zn	1.291326	-1.326132	0.759681
O5	O	1.163662	-1.423062	0.684657
O6	O	1.299646	-1.660983	0.650764
O7	O	0.835209	-1.478179	0.755853
O8	O	1.014756	-1.389213	0.446737
O9	O	1.126959	-1.644885	0.777081
O10	O	1.235810	-1.515523	0.462821
O11	O	0.786842	-1.367967	0.613452
O12	O	1.006589	-1.201245	0.592230
O13	O	1.513205	-1.351839	0.739780
O14	O	1.221455	-1.185134	0.718552
O15	O	1.519393	-1.494260	0.629542
O16	O	1.118792	-1.456916	0.922574
O17	O	1.285291	-1.330593	0.906494
C18	C	1.105965	-1.155876	0.650641
C19	C	1.081324	-1.041569	0.636114
C20	C	1.208312	-1.389026	0.951852
C21	C	1.227486	-1.374559	1.066171
C22	C	1.221586	-1.691291	0.718806
C23	C	1.246269	-1.805594	0.733358
C24	C	1.575141	-1.423054	0.684657
C25	C	1.753788	-1.423055	0.684668
C26	C	1.118879	-1.457259	0.416421
C27	C	1.099795	-1.471831	0.302116
C28	C	1.176523	-0.982652	0.692239
C29	C	1.151057	-0.864510	0.677225
C30	C	1.153738	-1.430666	1.125067
C31	C	1.173554	-1.415716	1.243222
H32	H	1.050699	-0.827493	0.618052
H33	H	0.980973	-1.004548	0.576944
O34	O	1.006751	-1.542208	1.257868
C35	C	0.881842	-1.491518	1.188333
H36	H	0.859925	-1.406443	1.210538
H37	H	0.916290	-1.498177	1.106486
C38	C	0.755392	-1.646565	1.165671
C39	C	0.728464	-1.542076	1.192948
H40	H	0.660782	-1.677753	1.168513
H41	H	0.839548	-1.680717	1.212515
H42	H	0.784102	-1.652100	1.097467
H43	H	0.699774	-1.536543	1.261155
H44	H	0.644299	-1.507924	1.146116
O45	O	1.320444	-1.304175	1.110493
C46	C	1.445399	-1.354875	1.179987
H47	H	1.409346	-1.430839	1.205841
H48	H	1.557857	-1.371305	1.140036
C49	C	1.522965	-1.192147	1.243186
C50	C	1.478678	-1.285443	1.274947
H51	H	1.543500	-1.149317	1.301760
H52	H	1.438785	-1.157989	1.196364
H53	H	1.616676	-1.205853	1.209892
H54	H	1.384959	-1.271737	1.308228
H55	H	1.562845	-1.319598	1.321777
O56	O	1.296329	-1.026941	0.762696
C57	C	1.401922	-1.096509	0.712086
H58	H	1.336864	-1.122413	0.636106
H59	H	1.508150	-1.056608	0.695696
C60	C	1.541558	-1.159595	0.874897
C61	C	1.461648	-1.191418	0.781581
H62	H	1.578408	-1.218137	0.917766
H63	H	1.470423	-1.112723	0.908995
H64	H	1.630071	-1.126343	0.861225
H65	H	1.373127	-1.224657	0.795254
H66	H	1.532771	-1.238298	0.747487
O67	O	1.366088	-0.849873	0.803819
C68	C	1.471684	-0.919439	0.753208
H69	H	1.406625	-0.945350	0.677232
H70	H	1.577904	-0.879533	0.736813
C71	C	1.611338	-0.982512	0.916019
C72	C	1.531427	-1.014343	0.822708
H73	H	1.648197	-1.041051	0.958890
H74	H	1.540200	-0.935642	0.950117
H75	H	1.699845	-0.949256	0.902342
H76	H	1.442912	-1.047586	0.836385
H77	H	1.602552	-1.061221	0.788613
O78	O	1.060701	-1.501037	1.080809
C79	C	0.935798	-1.450344	1.011273
H80	H	0.913878	-1.365271	1.033482
H81	H	0.970254	-1.456998	0.929428
C82	C	0.809351	-1.605391	0.988594
C83	C	0.782419	-1.500904	1.015878
H84	H	0.714740	-1.636581	0.991430
H85	H	0.893503	-1.639546	1.035438
H86	H	0.838067	-1.610921	0.920392
H87	H	0.753723	-1.495376	1.084083
H88	H	0.698258	-1.466750	0.969044
O89	O	1.266275	-1.345213	1.287572
C90	C	1.265443	-1.345994	1.395671
H91	H	1.153452	-1.377912	1.414535
H92	H	1.375966	-1.396886	1.433052
C93	C	1.404069	-1.195781	1.414609
C94	C	1.266512	-1.234975	1.437777
H95	H	1.404736	-1.127301	1.440584
H96	H	1.404636	-1.195256	1.341781
H97	H	1.496157	-1.238201	1.445761
H98	H	1.174428	-1.192563	1.406614
H99	H	1.265930	-1.235490	1.510601
