data_functionalizedCrystal
_audit_creation_method	'MofGen! by Chris Wilmer'
_symmetry_space_group_name_H-M	'P1'
_symmetry_Int_Tables_number	1
_symmetry_cell_setting	triclinic
loop_
_symmetry_equiv_pos_as_xyz
  x,y,z
_cell_length_a	6.817900
_cell_length_b	14.858572
_cell_length_c	19.453103
_cell_angle_alpha	95.587600
_cell_angle_beta	101.709178
_cell_angle_gamma	104.524003
loop_
_atom_site_label
_atom_site_type_symbol
_atom_site_fract_x
_atom_site_fract_y
_atom_site_fract_z
V1	V	-4.029541	-0.290394	-0.097624
O2	O	-4.025993	-0.284422	0.004236
O3	O	-3.972392	-0.288836	-0.193134
O4	O	-3.986298	-0.416850	-0.096322
O5	O	-4.011990	-0.155521	-0.093246
V6	V	-4.513635	-0.274211	-0.085417
O7	O	-4.289548	-0.325895	-0.124402
O8	O	-4.703825	-0.238710	-0.058639
O9	O	-4.347578	-0.275769	0.010094
O10	O	-4.634580	-0.280183	-0.187277
O11	O	-4.648583	-0.409084	-0.089794
O12	O	-4.333671	-0.147755	-0.086719
C13	C	-3.815097	-0.284365	-0.216412
C14	C	-3.849691	-0.283934	-0.294494
C15	C	-3.832836	-0.447659	-0.092917
C16	C	-3.878705	-0.551040	-0.092484
C17	C	-4.046590	-0.929601	-0.090903
C18	C	-3.999871	-0.824274	-0.091343
C19	C	-3.962649	-0.740324	-0.091694
C20	C	-3.915927	-0.634990	-0.092133
C21	C	-4.047907	-0.288382	-0.334756
C22	C	-4.080418	-0.287986	-0.408124
C23	C	-3.914691	-0.283124	-0.441224
C24	C	-3.716450	-0.278681	-0.400953
C25	C	-3.683950	-0.279086	-0.327588
N26	N	-3.803586	-0.225813	-0.547401
N27	N	-3.834471	-0.225426	-0.617095
C28	C	-4.012601	-0.281905	-0.662270
N29	N	-4.158705	-0.338774	-0.635116
N30	N	-4.127821	-0.339156	-0.565416
C31	C	-3.949912	-0.282685	-0.520776
C32	C	-4.246082	-0.285925	-0.782086
C33	C	-4.278588	-0.285535	-0.855456
C34	C	-3.914609	-0.276220	-0.848283
C35	C	-3.882114	-0.276620	-0.774915
C36	C	-4.047855	-0.281468	-0.741821
C37	C	-4.168214	-0.280237	0.033367
C38	C	-4.112858	-0.280674	0.111449
C39	C	-4.150476	-0.116941	-0.090126
C40	C	-4.083845	-0.013559	-0.090555
H41	H	-4.182874	-0.292336	-0.307816
N42	N	-4.492395	-0.290340	-0.898885
H43	H	-4.543053	-0.348334	-0.936388
H44	H	-4.592292	-0.293435	-0.866732
N45	N	-4.294221	-0.292786	-0.451562
H46	H	-4.394284	-0.295920	-0.419464
H47	H	-4.286553	-0.234868	-0.475247
H48	H	-3.581517	-0.274724	-0.427909
H49	H	-4.381038	-0.289871	-0.755139
N50	N	-3.470148	-0.274277	-0.284152
H51	H	-3.477613	-0.332184	-0.260460
H52	H	-3.370197	-0.271106	-0.316290
H53	H	-3.779674	-0.272267	-0.875233
N54	N	-3.668320	-0.271823	-0.731484
H55	H	-3.568262	-0.268684	-0.763584
H56	H	-3.617842	-0.213840	-0.693977
