data_functionalizedCrystal
_audit_creation_method	'MofGen! by Chris Wilmer'
_symmetry_space_group_name_H-M	'P1'
_symmetry_Int_Tables_number	1
_symmetry_cell_setting	triclinic
loop_
_symmetry_equiv_pos_as_xyz
  x,y,z
_cell_length_a	16.120297
_cell_length_b	17.077404
_cell_length_c	17.077402
_cell_angle_alpha	89.971676
_cell_angle_beta	87.129208
_cell_angle_gamma	92.883120
loop_
_atom_site_label
_atom_site_type_symbol
_atom_site_fract_x
_atom_site_fract_y
_atom_site_fract_z
Zn1	Zn	-0.471264	1.177556	0.334916
Zn2	Zn	0.028736	1.677556	0.834916
Zn3	Zn	-0.331850	1.184119	0.459528
Zn4	Zn	0.168150	1.684119	0.959528
Zn5	Zn	-0.331880	1.052942	0.328294
Zn6	Zn	0.168120	1.552942	0.828294
Zn7	Zn	-0.471229	1.046258	0.466154
Zn8	Zn	0.028771	1.546258	0.966154
O9	O	-0.401556	1.115219	0.397223
O10	O	0.098444	1.615219	0.897223
O11	O	-0.452773	1.288273	0.351444
O12	O	0.047227	1.788273	0.851444
O13	O	-0.215191	1.172262	0.436575
O14	O	0.284809	1.672262	0.936575
O15	O	-0.350398	1.069523	0.219327
O16	O	0.149602	1.569523	0.719327
O17	O	-0.350346	1.293095	0.442996
O18	O	0.149654	1.793095	0.942996
O19	O	-0.452803	1.161077	0.224192
O20	O	0.047197	1.661077	0.724192
O21	O	-0.215213	1.075887	0.340158
O22	O	0.284787	1.575887	0.840158
O23	O	-0.350363	0.942209	0.346584
O24	O	0.149637	1.442209	0.846584
O25	O	-0.587897	1.058130	0.454290
O26	O	-0.087897	1.558130	0.954290
O27	O	-0.452741	0.937298	0.447869
O28	O	0.047259	1.437298	0.947869
O29	O	-0.587923	1.154595	0.357869
O30	O	-0.087923	1.654595	0.857869
O31	O	-0.350311	1.165780	0.570253
O32	O	0.149689	1.665780	1.070253
O33	O	-0.452712	1.064494	0.575121
O34	O	0.047288	1.564494	1.075121
C35	C	-0.401552	0.911271	0.397227
C36	C	0.098448	1.411271	0.897227
C37	C	-0.401570	0.824020	0.397249
C38	C	0.098430	1.324020	0.897249
C39	C	-0.619005	1.104885	0.407557
C40	C	-0.119005	1.604885	0.907557
C41	C	-0.711669	1.100481	0.411961
C42	C	-0.211669	1.600481	0.911961
C43	C	-0.401523	1.115145	0.601170
C44	C	0.098477	1.615145	1.101170
C45	C	-0.401536	1.115183	0.688420
C46	C	0.098464	1.615183	1.188420
C47	C	-0.881327	1.092413	0.419984
C48	C	-0.381327	1.592413	0.919984
C49	C	-0.922636	1.138179	0.374228
C50	C	-0.422636	1.638179	0.874228
C51	C	-1.017040	1.133690	0.378691
C52	C	-0.517040	1.633690	0.878691
C53	C	-0.786915	1.096901	0.415521
C54	C	-0.286915	1.596901	0.915521
C55	C	-0.184953	1.125557	0.386873
C56	C	0.315047	1.625557	0.886873
C57	C	-0.092289	1.130113	0.382248
C58	C	0.407711	1.630113	0.882248
C59	C	-0.401560	1.319963	0.397220
C60	C	0.098440	1.819963	0.897220
C61	C	-0.401562	1.407212	0.397218
C62	C	0.098438	1.907212	0.897218
C63	C	-0.454889	1.445693	0.349554
C64	C	0.045111	1.945693	0.849554
C65	C	-0.454895	1.527674	0.349563
C66	C	0.045105	2.027674	0.849563
C67	C	-0.401569	1.571172	0.397233
C68	C	0.098431	2.071172	0.897233
C69	C	-0.348239	1.532685	0.444902
C70	C	0.151761	2.032685	0.944902
C71	C	-0.348238	1.450706	0.444897
C72	C	0.151762	1.950706	0.944897
C73	C	-0.348243	1.703555	0.444909
C74	C	0.151757	2.203555	0.944909
C75	C	-0.348243	1.785539	0.444913
C76	C	0.151757	2.285539	0.944913
C77	C	-0.454900	1.780522	0.349575
C78	C	0.045100	2.280522	0.849575
C79	C	-0.454899	1.698543	0.349569
C80	C	0.045101	2.198543	0.849569
C81	C	-0.401568	1.660063	0.397238
C82	C	0.098432	2.160063	0.897238
C83	C	-0.401607	1.115314	0.192481
C84	C	0.098393	1.615314	0.692481
C85	C	-0.401629	1.115354	0.105233
C86	C	0.098371	1.615354	0.605233
C87	C	-0.348273	1.167971	0.726852
C88	C	0.151727	1.667971	1.226852
C89	C	-0.348295	1.168009	0.808833
C90	C	0.151705	1.668009	1.308833
C91	C	-0.401575	1.115254	0.852381
C92	C	0.098425	1.615254	1.352381
C93	C	-0.454844	1.062463	0.813944
C94	C	0.045156	1.562463	1.313944
C95	C	-0.454826	1.062430	0.731964
C96	C	0.045174	1.562430	1.231964
C97	C	-0.454876	1.062534	0.984815
C98	C	0.045124	1.562534	1.484815
C99	C	-0.454892	1.062566	1.066801
C100	C	0.045108	1.562566	1.566801
C101	C	-0.348344	1.168113	1.061685
C102	C	0.151656	1.668113	1.561685
C103	C	-0.348326	1.168080	0.979705
C104	C	0.151674	1.668080	1.479705
C105	C	-0.401594	1.115288	0.941273
C106	C	0.098406	1.615288	1.441273
H107	H	-0.887103	1.180733	0.331701
H108	H	-0.387103	1.680733	0.831701
N109	N	-0.509381	1.566968	0.300878
N110	N	-0.009381	2.066968	0.800878
N111	N	-0.556991	1.528122	0.258321
N112	N	-0.056991	2.028122	0.758321
H113	H	-0.595478	1.555872	0.223938
H114	H	-0.095478	2.055872	0.723938
N115	N	-0.293834	1.221849	0.682373
N116	N	0.206166	1.721849	1.182373
N117	N	-0.216904	1.220358	0.687912
N118	N	0.283096	1.720358	1.187912
H119	H	-0.178454	1.258411	0.656500
H120	H	0.321546	1.758411	1.156500
N121	N	-0.925908	1.039035	0.473324
N122	N	-0.425908	1.539035	0.973324
N123	N	-1.003644	1.035422	0.476916
N124	N	-0.503644	1.535422	0.976916
H125	H	-1.035140	0.997726	0.514588
H126	H	-0.535140	1.497726	1.014588
N127	N	-0.509382	1.654114	0.300886
N128	N	-0.009382	2.154114	0.800886
N129	N	-0.562501	1.605831	0.331026
N130	N	-0.062501	2.105831	0.831026
H131	H	-0.600982	1.574453	0.296643
H132	H	-0.100982	2.074453	0.796643
H133	H	-0.498309	1.410283	0.310731
H134	H	0.001691	1.910283	0.810731
N135	N	-0.509367	1.819838	0.300881
N136	N	-0.009367	2.319838	0.800881
N137	N	-0.509363	1.893033	0.300890
N138	N	-0.009363	2.393033	0.800890
H139	H	-0.547825	1.920804	0.266498
H140	H	-0.047825	2.420804	0.766498
H141	H	-0.304937	1.211033	0.944248
H142	H	0.195063	1.711033	1.444248
H143	H	-0.304822	1.820953	0.483732
H144	H	0.195178	2.320953	0.983732
H145	H	-0.304974	1.211101	1.092980
H146	H	0.195026	1.711101	1.592980
H147	H	-0.304823	1.568107	0.483719
H148	H	0.195177	2.068107	0.983719
N149	N	-0.293766	1.664258	0.493609
N150	N	0.206234	2.164258	0.993609
N151	N	-0.246155	1.703102	0.536166
N152	N	0.253845	2.203102	1.036166
H153	H	-0.207678	1.675350	0.570558
H154	H	0.292322	2.175350	1.070558
N155	N	-0.293764	1.411408	0.493593
N156	N	0.206236	1.911408	0.993593
N157	N	-0.246155	1.450252	0.536153
N158	N	0.253845	1.950252	1.036153
H159	H	-0.207683	1.422499	0.570550
H160	H	0.292317	1.922499	1.070550
H161	H	-0.304922	1.210994	0.840121
H162	H	0.195078	1.710994	1.340121
N163	N	-0.509316	1.008670	1.111273
N164	N	-0.009316	1.508670	1.611273
N165	N	-0.556874	0.961540	1.076952
N166	N	-0.056874	1.461540	1.576952
H167	H	-0.595311	0.923473	1.108361
H168	H	-0.095311	1.423473	1.608361
N169	N	-0.509298	1.008609	0.945570
N170	N	-0.009298	1.508609	1.445570
N171	N	-0.556866	0.961509	0.984458
N172	N	-0.056866	1.461509	1.484458
H173	H	-0.595300	0.923424	0.956741
H174	H	-0.095300	1.423424	1.456741
H175	H	-0.498229	1.019512	0.849407
H176	H	0.001771	1.519512	1.349407
H177	H	-0.498199	1.019445	0.700674
H178	H	0.001801	1.519445	1.200674
