data_functionalizedCrystal
_audit_creation_method	'MofGen! by Chris Wilmer'
_symmetry_space_group_name_H-M	'P1'
_symmetry_Int_Tables_number	1
_symmetry_cell_setting	triclinic
loop_
_symmetry_equiv_pos_as_xyz
  x,y,z
_cell_length_a	23.532407
_cell_length_b	17.699083
_cell_length_c	16.776229
_cell_angle_alpha	90.007545
_cell_angle_beta	90.001810
_cell_angle_gamma	83.065846
loop_
_atom_site_label
_atom_site_type_symbol
_atom_site_fract_x
_atom_site_fract_y
_atom_site_fract_z
O1	O	-0.755525	-0.091879	-0.066190
O2	O	-0.589700	-0.105173	-0.066214
O3	O	-0.677298	0.011687	-0.066194
O4	O	-0.667928	-0.208739	-0.066210
O5	O	-0.677286	0.011694	0.066382
O6	O	-0.589689	-0.105166	0.066363
O7	O	-0.755514	-0.091872	0.066386
Zn8	Zn	-0.672599	-0.098518	0.087424
Zn9	Zn	-0.672615	-0.098527	-0.087252
O10	O	-0.667916	-0.208732	0.066367
C11	C	-0.568478	-0.104831	0.000071
C12	C	-0.505258	-0.103813	0.000063
C13	C	-0.676956	0.039886	0.000094
C14	C	-0.675949	0.123899	0.000094
C15	C	-0.776737	-0.092214	0.000099
C16	C	-0.839957	-0.093232	0.000103
C17	C	-0.106335	-0.166585	0.000094
C18	C	-0.046932	-0.165639	0.000099
O19	O	-0.010354	-0.223829	0.000124
N20	N	-0.024106	-0.096166	0.000103
C21	C	-0.060687	-0.027634	0.000109
O22	O	-0.035817	0.031545	0.000114
C23	C	-0.120089	-0.028580	0.000110
C24	C	-0.142911	-0.098058	0.000099
C25	C	-0.129158	-0.236057	0.000084
C26	C	-0.188557	-0.237002	0.000077
C27	C	-0.225133	-0.168475	0.000081
C28	C	-0.202310	-0.099003	0.000092
C29	C	-0.156668	0.039951	0.000123
C30	C	-0.216073	0.038999	0.000124
C31	C	-0.238896	-0.030479	0.000112
C32	C	-0.298285	-0.031421	0.000090
N33	N	-0.321110	-0.100894	0.000086
C34	C	-0.284534	-0.169421	0.000082
C35	C	0.064061	-0.025652	0.000109
C36	C	0.123462	-0.024705	0.000103
C37	C	0.137213	-0.162710	0.000094
C38	C	0.077811	-0.163657	0.000095
C39	C	0.041236	-0.095125	0.000106
C40	C	-0.409277	-0.171401	0.000068
C41	C	-0.468682	-0.172340	0.000058
C42	C	-0.482427	-0.034335	0.000071
C43	C	-0.423028	-0.033395	0.000077
C44	C	-0.386453	-0.101935	0.000078
O45	O	-0.334897	0.026738	0.000068
O46	O	-0.309412	-0.228591	0.000088
C47	C	-0.668258	-0.236931	0.000077
C48	C	-0.669265	-0.320944	0.000071
N49	N	-0.672593	-0.098511	0.206635
C50	C	-0.727367	0.172781	0.000102
C51	C	-0.726417	0.251719	0.000095
C52	C	-0.674049	0.281774	0.000085
C53	C	-0.622627	0.232886	0.000074
C54	C	-0.623577	0.153949	0.000076
C55	C	-0.618793	0.551230	0.000067
C56	C	-0.617847	0.630173	0.000068
C57	C	-0.721633	0.649000	0.000087
C58	C	-0.722583	0.570063	0.000088
C59	C	-0.671162	0.521181	0.000073
C60	C	-0.672192	0.435587	0.000079
C61	C	-0.673018	0.367366	0.000085
N62	N	-0.672626	-0.098528	-0.206463
C63	C	-0.711393	-0.046787	0.248361
C64	C	-0.711396	-0.046786	0.331813
C65	C	-0.672602	-0.098514	0.373538
C66	C	-0.633798	-0.150241	0.331806
C67	C	-0.633792	-0.150237	0.248356
C68	C	-0.633818	-0.150256	0.668353
C69	C	-0.633828	-0.150257	0.751810
C70	C	-0.711422	-0.046804	0.751811
C71	C	-0.711417	-0.046801	0.668360
C72	C	-0.672611	-0.098525	0.626636
C73	C	-0.672607	-0.098524	0.536147
C74	C	-0.672608	-0.098519	0.464025
H75	H	-0.487260	-0.228920	0.000048
H76	H	-0.602222	-0.192373	0.634388
H77	H	-0.765227	0.545597	0.000100
H78	H	-0.575200	0.654640	0.000062
H79	H	-0.602208	-0.192357	0.365784
H80	H	-0.576922	0.511439	0.000055
H81	H	-0.138097	0.096527	0.000133
H82	H	-0.579988	0.257363	0.000061
C83	C	-0.557096	-0.252506	0.256731
C84	C	-0.591145	-0.207098	0.202487
H85	H	-0.530769	-0.287612	0.228413
H86	H	-0.536660	-0.221140	0.289288
H87	H	-0.580771	-0.279572	0.289272
H88	H	-0.567471	-0.180028	0.169951
H89	H	-0.611583	-0.238468	0.169917
H90	H	-0.742986	-0.004667	0.214394
C91	C	-0.829103	0.262400	0.000133
C92	C	-0.782938	0.305450	0.000114
H93	H	-0.863997	0.295573	0.000150
H94	H	-0.827323	0.231217	-0.046096
H95	H	-0.827301	0.231223	0.046369
H96	H	-0.784737	0.336624	-0.046125
H97	H	-0.784718	0.336646	0.046348
H98	H	-0.581708	0.114149	0.000069
H99	H	-0.770011	0.148316	0.000115
C100	C	-0.788112	0.055454	0.323431
C101	C	-0.754055	0.010060	0.377678
H102	H	-0.814452	0.090544	0.351748
H103	H	-0.764449	0.082531	0.290898
H104	H	-0.808539	0.024072	0.290868
H105	H	-0.733625	0.041442	0.410238
H106	H	-0.777722	-0.017018	0.410225
H107	H	-0.404445	0.023179	0.000074
C108	C	-0.401668	-0.307909	0.000043
C109	C	-0.369080	-0.246740	0.000059
H110	H	-0.376851	-0.354419	0.000028
H111	H	-0.425120	-0.305406	0.046273
H112	H	-0.425126	-0.305393	-0.046192
H113	H	-0.345625	-0.249253	0.046298
H114	H	-0.345618	-0.249244	-0.046175
H115	H	-0.743009	-0.004681	0.634390
C116	C	-0.766270	0.778366	0.000080
C117	C	-0.778158	0.702733	0.000091
H118	H	-0.801166	0.811535	0.000079
H119	H	-0.744792	0.787440	0.046305
H120	H	-0.744796	0.787419	-0.046160
H121	H	-0.799628	0.693678	0.046334
H122	H	-0.799645	0.693656	-0.046139
C123	C	-0.723936	0.056295	0.845668
C124	C	-0.754073	0.010062	0.797677
H125	H	-0.750268	0.091402	0.873978
H126	H	-0.700838	0.025489	0.882457
H127	H	-0.700271	0.083359	0.813111
H128	H	-0.777736	-0.017007	0.830235
H129	H	-0.777182	0.040872	0.760884
H130	H	0.059234	-0.220231	0.000090
C131	C	-0.195095	-0.354932	-0.068081
C132	C	-0.213629	-0.313380	0.000071
H133	H	-0.210567	-0.402090	-0.068080
H134	H	-0.207667	-0.326745	-0.114304
H135	H	-0.154482	-0.364151	-0.068072
H136	H	-0.254243	-0.304156	0.000059
H137	H	-0.201061	-0.341573	0.046305
C138	C	-0.557110	-0.252509	0.743432
C139	C	-0.591176	-0.207114	0.797676
H140	H	-0.530779	-0.287604	0.771749
H141	H	-0.580769	-0.279580	0.710875
H142	H	-0.536673	-0.221129	0.710891
H143	H	-0.611617	-0.238494	0.830213
H144	H	-0.567515	-0.180041	0.830247
H145	H	-0.099383	-0.291863	0.000083
C146	C	-0.290851	0.118012	0.068284
C147	C	-0.256275	0.114334	0.000133
H148	H	-0.315666	0.164523	0.068289
H149	H	-0.312947	0.076510	0.068270
H150	H	-0.267386	0.115509	0.114513
H151	H	-0.279740	0.116831	-0.046096
H152	H	-0.234177	0.155848	0.000140
C153	C	-0.557219	0.044650	-0.068071
C154	C	-0.522642	0.040986	0.000079
H155	H	-0.582049	0.091148	-0.068057
H156	H	-0.533762	0.042164	-0.114295
H157	H	-0.579305	0.003129	-0.068070
H158	H	-0.500553	0.082504	0.000076
H159	H	-0.546102	0.043480	0.046316
C160	C	0.103889	0.111610	0.000112
C161	C	0.148544	0.051667	0.000108
H162	H	0.119373	0.158760	0.000124
H163	H	0.081010	0.108366	-0.046120
H164	H	0.081004	0.108363	0.046345
H165	H	0.171426	0.054911	-0.046128
H166	H	0.171432	0.054913	0.046345
C167	C	0.144854	-0.299225	0.000088
C168	C	0.177425	-0.238039	0.000095
H169	H	0.169681	-0.345726	0.000084
H170	H	0.121399	-0.296724	0.046316
H171	H	0.121398	-0.296727	-0.046149
H172	H	0.200877	-0.240534	0.046336
H173	H	0.200889	-0.240542	-0.046138
C174	C	-0.010717	0.053351	-0.068046
C175	C	0.023858	0.049684	0.000106
H176	H	-0.035537	0.099858	-0.068043
H177	H	0.012743	0.050845	-0.114269
H178	H	-0.032814	0.011841	-0.068038
H179	H	0.045958	0.091191	0.000096
H180	H	0.000395	0.052198	0.046341
