data_functionalizedCrystal
_audit_creation_method	'MofGen! by Chris Wilmer'
_symmetry_space_group_name_H-M	'P1'
_symmetry_Int_Tables_number	1
_symmetry_cell_setting	triclinic
loop_
_symmetry_equiv_pos_as_xyz
  x,y,z
_cell_length_a	12.645331
_cell_length_b	12.645330
_cell_length_c	12.645324
_cell_angle_alpha	89.968234
_cell_angle_beta	89.977038
_cell_angle_gamma	90.016671
loop_
_atom_site_label
_atom_site_type_symbol
_atom_site_fract_x
_atom_site_fract_y
_atom_site_fract_z
Zn1	Zn	1.620734	-0.421988	-0.599446
Zn2	Zn	1.620615	-0.599297	-0.422186
Zn3	Zn	1.443448	-0.422045	-0.422191
Zn4	Zn	1.443431	-0.599206	-0.599402
O5	O	1.532057	-0.510634	-0.510806
O6	O	1.769066	-0.445522	-0.575949
O7	O	1.597071	-0.575846	-0.273840
O8	O	1.467023	-0.273690	-0.445724
O9	O	1.768978	-0.575791	-0.445717
O10	O	1.597274	-0.273648	-0.575953
O11	O	1.466907	-0.445620	-0.273843
O12	O	1.295098	-0.445532	-0.445681
O13	O	1.466993	-0.575636	-0.747755
O14	O	1.295086	-0.575692	-0.575877
O15	O	1.597257	-0.445434	-0.747788
O16	O	1.597054	-0.747632	-0.445674
O17	O	1.466877	-0.747566	-0.575873
C18	C	1.256627	-0.510609	-0.510776
C19	C	1.138797	-0.510624	-0.510788
C20	C	0.971206	-0.428363	-0.429333
C21	C	1.093766	-0.428576	-0.428974
C22	C	1.094277	-0.622301	-0.480273
C23	C	0.971678	-0.621852	-0.479717
C24	C	0.971648	-0.482269	-0.623072
C25	C	1.094254	-0.479774	-0.622448
C26	C	1.531980	-0.786064	-0.510791
C27	C	1.532044	-0.903894	-0.510821
C28	C	1.450487	-1.071460	-0.592982
C29	C	1.450070	-0.948901	-0.592717
C30	C	1.501798	-0.948501	-0.399099
C31	C	1.501300	-1.071099	-0.399597
C32	C	1.644345	-1.070982	-0.539475
C33	C	1.643657	-0.948374	-0.541918
C34	C	1.808562	-0.510660	-0.510838
C35	C	1.926392	-0.510671	-0.510851
C36	C	1.532136	-0.510519	-0.787312
C37	C	1.532170	-0.510470	-0.905142
C38	C	1.532164	-0.234129	-0.510844
C39	C	1.532209	-0.116299	-0.510861
C40	C	1.614439	-0.428797	-1.072727
C41	C	1.614175	-0.428502	-0.950167
C42	C	1.420488	-0.480110	-0.949620
C43	C	1.420988	-0.479490	-1.072218
C44	C	1.560678	-0.622622	-1.072340
C45	C	1.563121	-0.622058	-0.949734
C46	C	1.532039	-0.510672	-0.235377
C47	C	1.532210	-0.510423	-0.117547
H48	H	1.123043	-0.447349	-0.345814
C49	C	1.726604	-1.110152	-0.458682
C50	C	1.713692	-1.083109	-0.340659
C51	C	1.795940	-1.122285	-0.259863
C52	C	1.891101	-1.188505	-0.297089
C53	C	1.904017	-1.215552	-0.415118
C54	C	1.821768	-1.176376	-0.495915
H55	H	1.643244	-1.034085	-0.313096
H56	H	1.786378	-1.102262	-0.172490
H57	H	1.951986	-1.217505	-0.237279
H58	H	1.974464	-1.264575	-0.442681
H59	H	1.831330	-1.196399	-0.583288
H60	H	1.420680	-0.917891	-0.374420
H61	H	1.696989	-0.447515	-0.920096
H62	H	1.507584	-0.686148	-0.919082
C63	C	1.338877	-1.113192	-0.567701
C64	C	1.244452	-1.080381	-0.637220
C65	C	1.132843	-1.122113	-0.611934
C66	C	1.115659	-1.196657	-0.517129
C67	C	1.210087	-1.229472	-0.447604
C68	C	1.321696	-1.187740	-0.472890
H69	H	1.257170	-1.025196	-0.707405
H70	H	1.062942	-1.097821	-0.663402
H71	H	1.033039	-1.227549	-0.498412
H72	H	1.197368	-1.284657	-0.377419
H73	H	1.391597	-1.212032	-0.421422
H74	H	0.943032	-0.645936	-0.397678
H75	H	1.469237	-1.100862	-0.676094
H76	H	1.500792	-0.683442	-1.101332
C77	C	1.579649	-0.909120	-0.314173
C78	C	1.538975	-0.843330	-0.220141
C79	C	1.616828	-0.803946	-0.135217
C80	C	1.735354	-0.830352	-0.144325
C81	C	1.776034	-0.896145	-0.238361
C82	C	1.698182	-0.935529	-0.323285
H83	H	1.451229	-0.823779	-0.213395
H84	H	1.586713	-0.755241	-0.065606
H85	H	1.792985	-0.801198	-0.081460
H86	H	1.863780	-0.915696	-0.245107
H87	H	1.728297	-0.984234	-0.392896
C88	C	1.387289	-0.370541	-0.908172
C89	C	1.285848	-0.358740	-0.841807
C90	C	1.252657	-0.249168	-0.800362
C91	C	1.320906	-0.151398	-0.825282
C92	C	1.422353	-0.163196	-0.891651
C93	C	1.455545	-0.272767	-0.933096
H94	H	1.235321	-0.431118	-0.823356
H95	H	1.177558	-0.240435	-0.751231
H96	H	1.296335	-0.070286	-0.794602
H97	H	1.472881	-0.090817	-0.910101
H98	H	1.530643	-0.281500	-0.982226
C99	C	1.390561	-1.109870	-0.366858
C100	C	1.377195	-1.179745	-0.267973
C101	C	1.266453	-1.218509	-0.235235
C102	C	1.169077	-1.187397	-0.301382
C103	C	1.182440	-1.117518	-0.400273
C104	C	1.293182	-1.078754	-0.433010
H105	H	1.449282	-1.202779	-0.219002
H106	H	1.256562	-1.270238	-0.162030
H107	H	1.087100	-1.216093	-0.277148
H108	H	1.110354	-1.094484	-0.449244
H109	H	1.303073	-1.027025	-0.506216
C110	C	0.931621	-0.707516	-0.556410
C111	C	1.011191	-0.776118	-0.617961
C112	C	0.971139	-0.861788	-0.694643
C113	C	0.851518	-0.878856	-0.709773
C114	C	0.771941	-0.810252	-0.648220
C115	C	0.811992	-0.724582	-0.571539
H116	H	1.099748	-0.763485	-0.606762
H117	H	1.030048	-0.912573	-0.740208
H118	H	0.821869	-0.942275	-0.766538
H119	H	0.683383	-0.822886	-0.659420
H120	H	0.753084	-0.673797	-0.525973
C121	C	0.932504	-0.563247	-0.705134
C122	C	1.012725	-0.630269	-0.767576
C123	C	0.973576	-0.711249	-0.849629
C124	C	0.854205	-0.725208	-0.869242
C125	C	0.773976	-0.658184	-0.806799
C126	C	0.813126	-0.577204	-0.724745
H127	H	1.101097	-0.619938	-0.753059
H128	H	1.032967	-0.760864	-0.895853
H129	H	0.825225	-0.785154	-0.929983
H130	H	0.685605	-0.668515	-0.821316
H131	H	0.753734	-0.527588	-0.678521
H132	H	1.640693	-0.650261	-1.103325
C133	C	0.929531	-0.453430	-0.317647
C134	C	0.855057	-0.548229	-0.300217
C135	C	0.813382	-0.573301	-0.188533
C136	C	0.846180	-0.503573	-0.094278
C137	C	0.920658	-0.408768	-0.111705
C138	C	0.962334	-0.383696	-0.223390
H139	H	0.830774	-0.599852	-0.369993
H140	H	0.758248	-0.643482	-0.175633
H141	H	0.815330	-0.522132	-0.011603
H142	H	0.944941	-0.357145	-0.041930
H143	H	1.017467	-0.313515	-0.236290
H144	H	1.366938	-0.919667	-0.573760
C145	C	1.475583	-0.908167	-0.704649
C146	C	1.581432	-0.937209	-0.757407
C147	C	1.606919	-0.896494	-0.869354
C148	C	1.526556	-0.826736	-0.928542
C149	C	1.420700	-0.797690	-0.875784
C150	C	1.395213	-0.838406	-0.763837
H151	H	1.640928	-0.988851	-0.713592
H152	H	1.685281	-0.917996	-0.908408
H153	H	1.545423	-0.796597	-1.011411
H154	H	1.361204	-0.746048	-0.919598
H155	H	1.316850	-0.816903	-0.724782
C156	C	1.578195	-1.111193	-0.314106
C157	C	1.560332	-1.081467	-0.197380
C158	C	1.637214	-1.121559	-0.111882
C159	C	1.731958	-1.191377	-0.143109
C160	C	1.749825	-1.221106	-0.259840
C161	C	1.672944	-1.181014	-0.345339
H162	H	1.490193	-1.029780	-0.174259
H163	H	1.623987	-1.099551	-0.025470
H164	H	1.788871	-1.221055	-0.079818
H165	H	1.819964	-1.272793	-0.282962
H166	H	1.686170	-1.203023	-0.431751
H167	H	1.123446	-0.685266	-0.537783
H168	H	1.595326	-0.345387	-0.920853
C169	C	1.681622	-1.112629	-0.647664
C170	C	1.610706	-1.188334	-0.711412
C171	C	1.647970	-1.229984	-0.819604
C172	C	1.756148	-1.195927	-0.864048
C173	C	1.827071	-1.120218	-0.800298
C174	C	1.789807	-1.078569	-0.692106
H175	H	1.530620	-1.213549	-0.678513
H176	H	1.595468	-1.286029	-0.866795
H177	H	1.783733	-1.226759	-0.944138
H178	H	1.907157	-1.095004	-0.833197
H179	H	1.842309	-1.022523	-0.644915
C180	C	1.730235	-0.907065	-0.466941
C181	C	1.700971	-0.831879	-0.375760
C182	C	1.787540	-0.790609	-0.300743
C183	C	1.903372	-0.824526	-0.316907
C184	C	1.932641	-0.899717	-0.408091
C185	C	1.846072	-0.940987	-0.483108
H186	H	1.615221	-0.806768	-0.363791
H187	H	1.765872	-0.734948	-0.233242
H188	H	1.967455	-0.793976	-0.261374
H189	H	2.018391	-0.924828	-0.420060
H190	H	1.867740	-0.996648	-0.550610
H191	H	1.666466	-0.919214	-0.624140
C192	C	1.335456	-0.556363	-1.112280
C193	C	1.266911	-0.618113	-1.032713
C194	C	1.181401	-0.695007	-1.072769
C195	C	1.164437	-0.710151	-1.192391
C196	C	1.232984	-0.648399	-1.271965
C197	C	1.318494	-0.571505	-1.231909
H198	H	1.279467	-0.606904	-0.944155
H199	H	1.130658	-0.740719	-1.013863
H200	H	1.101138	-0.767072	-1.222043
H201	H	1.220428	-0.659608	-1.360523
H202	H	1.369237	-0.525793	-1.290816
H203	H	1.396857	-0.397473	-1.100828
H204	H	1.123866	-0.345763	-0.448101
H205	H	1.645310	-0.644951	-0.920663
H206	H	0.941742	-0.345301	-0.448254
H207	H	1.124932	-0.646799	-0.399115
H208	H	1.697527	-0.447571	-1.102219
H209	H	0.940752	-0.402255	-0.650823
H210	H	1.357554	-0.537735	-0.920453
H211	H	1.123358	-0.397592	-0.645458
H212	H	1.595832	-0.346142	-1.103550
H213	H	1.124912	-0.535349	-0.686433
