data_functionalizedCrystal
_audit_creation_method	'MofGen! by Chris Wilmer'
_symmetry_space_group_name_H-M	'P1'
_symmetry_Int_Tables_number	1
_symmetry_cell_setting	triclinic
loop_
_symmetry_equiv_pos_as_xyz
  x,y,z
_cell_length_a	21.395362
_cell_length_b	16.120484
_cell_length_c	21.395355
_cell_angle_alpha	92.880721
_cell_angle_beta	89.956060
_cell_angle_gamma	92.942400
loop_
_atom_site_label
_atom_site_type_symbol
_atom_site_fract_x
_atom_site_fract_y
_atom_site_fract_z
Zn1	Zn	0.945244	-0.331659	-0.367215
Zn2	Zn	0.939845	-0.471058	-0.267746
Zn3	Zn	0.840458	-0.331698	-0.262418
Zn4	Zn	0.835126	-0.471075	-0.372451
O5	O	0.890168	-0.401372	-0.317458
O6	O	1.032207	-0.350127	-0.354059
O7	O	0.926633	-0.452580	-0.179362
O8	O	0.858849	-0.215024	-0.271898
O9	O	1.028240	-0.452543	-0.280979
O10	O	0.935836	-0.214995	-0.348892
O11	O	0.853614	-0.350193	-0.175447
O12	O	0.752072	-0.350210	-0.276976
O13	O	0.849761	-0.452572	-0.459434
O14	O	0.748154	-0.452609	-0.357817
O15	O	0.930665	-0.350144	-0.455587
O16	O	0.921462	-0.587728	-0.286057
O17	O	0.844526	-0.587741	-0.362983
C18	C	0.727379	-0.401416	-0.317387
C19	C	0.657736	-0.401455	-0.317372
C20	C	0.881846	-0.617986	-0.325680
C21	C	0.878344	-0.710654	-0.329218
C22	C	0.622997	-0.454845	-0.359409
C23	C	0.557562	-0.454825	-0.359436
C24	C	0.526869	-0.401423	-0.317415
C25	C	0.561617	-0.348022	-0.275375
C26	C	0.627050	-0.348039	-0.275354
C27	C	0.423400	-0.394707	-0.260754
C28	C	0.357967	-0.394696	-0.260775
C29	C	0.325050	-0.401369	-0.317482
C30	C	0.357574	-0.408069	-0.374171
C31	C	0.423007	-0.408085	-0.374149
C32	C	0.455918	-0.401399	-0.317434
C33	C	0.219359	-0.454740	-0.359552
C34	C	0.153924	-0.454713	-0.359580
C35	C	0.157979	-0.347915	-0.275514
C36	C	0.223414	-0.347937	-0.275492
C37	C	0.254100	-0.401354	-0.317510
C38	C	0.871952	-0.880320	-0.335692
C39	C	0.908497	-0.921584	-0.299234
C40	C	0.904940	-1.015992	-0.302836
C41	C	0.875507	-0.785903	-0.332091
C42	C	1.053593	-0.401328	-0.317529
C43	C	1.123235	-0.401310	-0.317560
C44	C	0.890221	-0.401355	-0.480880
C45	C	0.890243	-0.401348	-0.550521
C46	C	0.898540	-0.183913	-0.309217
C47	C	0.902107	-0.091245	-0.305705
C48	C	0.932368	-0.348011	-0.581232
C49	C	0.932369	-0.347976	-0.646666
C50	C	0.890250	-0.401291	-0.681388
C51	C	0.848117	-0.454632	-0.650669
C52	C	0.848114	-0.454660	-0.585236
C53	C	0.882419	-0.476362	-0.787910
C54	C	0.882427	-0.476335	-0.853342
C55	C	0.890258	-0.401203	-0.883205
C56	C	0.898094	-0.326096	-0.847628
C57	C	0.898090	-0.326124	-0.782195
C58	C	0.890249	-0.401266	-0.752339
C59	C	0.932385	-0.347823	-0.984867
C60	C	0.932382	-0.347786	-1.050302
C61	C	0.848133	-0.454449	-1.054304
C62	C	0.848134	-0.454479	-0.988870
C63	C	0.890263	-0.401167	-0.954155
C64	C	0.890154	-0.401329	-0.154668
C65	C	0.890262	-0.401101	-0.085019
H66	H	0.647977	-0.498340	-0.393624
C67	C	0.954369	-0.873534	-0.253407
C68	C	0.948842	-0.885473	-0.182621
C69	C	0.994710	-0.837421	-0.136793
C70	C	1.046104	-0.777428	-0.161751
C71	C	1.051633	-0.765486	-0.232540
C72	C	1.005765	-0.813539	-0.278368
H73	H	0.910795	-0.929886	-0.164142
H74	H	0.990617	-0.846261	-0.084390
H75	H	1.080059	-0.741857	-0.127826
H76	H	1.089680	-0.721074	-0.251019
H77	H	1.009858	-0.804698	-0.330771
H78	H	0.837996	-0.915892	-0.369606
C79	C	0.978705	-0.289361	-0.543049
C80	C	0.977240	-0.194581	-0.548438
C81	C	1.023577	-0.135928	-0.510254
C82	C	1.071377	-0.172055	-0.466682
C83	C	1.072844	-0.266841	-0.461291
C84	C	1.026508	-0.325493	-0.499475
H85	H	0.941854	-0.167833	-0.580694
H86	H	1.022491	-0.065762	-0.514245
H87	H	1.105678	-0.128637	-0.438416
H88	H	1.108230	-0.293589	-0.429035
H89	H	1.027593	-0.395660	-0.495484
C90	C	0.978714	-0.289309	-0.680459
C91	C	1.025055	-0.230671	-0.642275
C92	C	1.071401	-0.172008	-0.676065
C93	C	1.071407	-0.171982	-0.748039
C94	C	1.025064	-0.230622	-0.786227
C95	C	0.978717	-0.289285	-0.752437
H96	H	1.025052	-0.230688	-0.588992
H97	H	1.105707	-0.128598	-0.647796
H98	H	1.105715	-0.128556	-0.773053
H99	H	1.025066	-0.230605	-0.839510
H100	H	0.944412	-0.332695	-0.780707
H101	H	0.904469	-0.264969	-0.753231
H102	H	0.904471	-0.264916	-0.871941
H103	H	0.966686	-0.304409	-0.956601
H104	H	0.966684	-0.304348	-1.075305
H105	H	0.813834	-0.497852	-1.082573
C106	C	0.801801	-0.513160	-0.955083
C107	C	0.755471	-0.571808	-0.993271
C108	C	0.709134	-0.630489	-0.959486
C109	C	0.709128	-0.630523	-0.887512
C110	C	0.755461	-0.571873	-0.849320
C111	C	0.801797	-0.513191	-0.883106
H112	H	0.755473	-0.571785	-1.046554
H113	H	0.674836	-0.673906	-0.987758
H114	H	0.674827	-0.673963	-0.862501
H115	H	0.755458	-0.571896	-0.796037
H116	H	0.836095	-0.469775	-0.854833
H117	H	0.876050	-0.537492	-0.882304
C118	C	0.873806	-0.559014	-0.755065
C119	C	0.865197	-0.641628	-0.794194
C120	C	0.856583	-0.724276	-0.761349
C121	C	0.856578	-0.724311	-0.689375
C122	C	0.865188	-0.641695	-0.650242
C123	C	0.873801	-0.559046	-0.683087
H124	H	0.865200	-0.641605	-0.847477
H125	H	0.850210	-0.785435	-0.790318
H126	H	0.850202	-0.785493	-0.665062
H127	H	0.865184	-0.641718	-0.596959
H128	H	0.880174	-0.497888	-0.654118
C129	C	0.801775	-0.513339	-0.551452
C130	C	0.730810	-0.506549	-0.560137
C131	C	0.684471	-0.565229	-0.526353
C132	C	0.709098	-0.630700	-0.483883
C133	C	0.780067	-0.637492	-0.475196
C134	C	0.826406	-0.578812	-0.508981
H135	H	0.712576	-0.458081	-0.591577
H136	H	0.631935	-0.560200	-0.532784
H137	H	0.674796	-0.674139	-0.458874
H138	H	0.798301	-0.685960	-0.443756
H139	H	0.878942	-0.583840	-0.502550
H140	H	0.449485	-0.413538	-0.420307
H141	H	0.813823	-0.498039	-0.678943
H142	H	0.529272	-0.498301	-0.393669
C143	C	0.459608	-0.387364	-0.198373
C144	C	0.453554	-0.310301	-0.153679
C145	C	0.489763	-0.302955	-0.091301
C146	C	0.532024	-0.372671	-0.073617
C147	C	0.538079	-0.449739	-0.118312
C148	C	0.501871	-0.457086	-0.180690
H149	H	0.422268	-0.258688	-0.166768
H150	H	0.485280	-0.245903	-0.058214
H151	H	0.558828	-0.367233	-0.027441
H152	H	0.569365	-0.501353	-0.105223
H153	H	0.506353	-0.514137	-0.213776
C154	C	0.321374	-0.415412	-0.436555
C155	C	0.249400	-0.415391	-0.436585
C156	C	0.213198	-0.422740	-0.498966
C157	C	0.248970	-0.430111	-0.561318
C158	C	0.320948	-0.430133	-0.561291
C159	C	0.357150	-0.422784	-0.498910
H160	H	0.222916	-0.409934	-0.390426
H161	H	0.159915	-0.422724	-0.498986
H162	H	0.222171	-0.435552	-0.607496
H163	H	0.347432	-0.435590	-0.607450
H164	H	0.410433	-0.422800	-0.498890
H165	H	0.536622	-0.304541	-0.241163
H166	H	0.331492	-0.389246	-0.214616
H167	H	0.244345	-0.498230	-0.393769
H168	H	0.125640	-0.498188	-0.393815
C169	C	0.665266	-0.289312	-0.229105
C170	C	0.659955	-0.194540	-0.230738
C171	C	0.698172	-0.135815	-0.184487
C172	C	0.741700	-0.171862	-0.136604
C173	C	0.747014	-0.266638	-0.134970
C174	C	0.708796	-0.325363	-0.181221
H175	H	0.627731	-0.167852	-0.266185
H176	H	0.694239	-0.065655	-0.185697
H177	H	0.769991	-0.128390	-0.102367
H178	H	0.779237	-0.293326	-0.099523
H179	H	0.712730	-0.395523	-0.180011
H180	H	0.132990	-0.304430	-0.241303
H181	H	0.251699	-0.304465	-0.241258
