data_functionalizedCrystal
_audit_creation_method	'MofGen! by Chris Wilmer'
_symmetry_space_group_name_H-M	'P1'
_symmetry_Int_Tables_number	1
_symmetry_cell_setting	triclinic
loop_
_symmetry_equiv_pos_as_xyz
  x,y,z
_cell_length_a	9.065218
_cell_length_b	10.654562
_cell_length_c	9.730223
_cell_angle_alpha	89.996961
_cell_angle_beta	90.000469
_cell_angle_gamma	84.752995
loop_
_atom_site_label
_atom_site_type_symbol
_atom_site_fract_x
_atom_site_fract_y
_atom_site_fract_z
O1	O	0.207318	1.668646	-0.114374
O2	O	0.227042	1.303247	-0.114357
O3	O	0.002497	1.493499	-0.114363
O4	O	0.431863	1.478394	-0.114368
O5	O	0.002502	1.493497	0.114217
O6	O	0.227048	1.303245	0.114223
O7	O	0.207323	1.668644	0.114206
Zn8	Zn	0.217186	1.485944	0.150506
Zn9	Zn	0.217179	1.485947	-0.150658
O10	O	0.431869	1.478392	0.114212
C11	C	0.225593	1.256443	-0.000065
C12	C	0.221248	1.116983	-0.000058
C13	C	0.219225	1.051443	0.124530
C14	C	0.215154	0.920405	0.124507
C15	C	0.215137	0.920457	-0.124703
C16	C	0.219197	1.051494	-0.124679
C17	C	0.219241	1.051411	0.268410
C18	C	0.215170	0.920373	0.268387
C19	C	-0.052479	1.492047	-0.000075
C20	C	-0.216299	1.487706	-0.000082
C21	C	0.486845	1.479845	-0.000079
C22	C	0.650664	1.484185	-0.000082
C23	C	0.208773	1.715448	-0.000090
C24	C	0.213117	1.854908	-0.000105
N25	N	0.217191	1.485951	0.356043
N26	N	0.217163	1.485950	-0.356194
C27	C	0.117796	1.570217	0.427966
C28	C	0.117778	1.570214	0.571849
C29	C	0.316563	1.401675	0.571873
C30	C	0.316572	1.401673	0.427992
C31	C	0.003033	1.667525	0.427953
C32	C	0.003015	1.667522	0.571836
H33	H	0.117276	1.097267	0.323664
O34	O	0.361751	1.091172	0.327584
H35	H	0.434022	1.006281	0.358938
O36	O	0.072655	0.880593	0.327543
H37	H	0.000389	0.965473	0.358931
H38	H	0.028301	1.764133	0.610882
O39	O	0.423763	1.310787	0.649473
H40	H	0.407066	1.324948	0.761606
H41	H	0.397494	1.333047	0.369434
O42	O	0.350243	0.859598	0.341547
H43	H	0.314898	0.805252	0.431151
O44	O	-0.147172	1.638540	0.376173
H45	H	-0.171745	1.544468	0.414207
O46	O	-0.138958	1.626558	0.630923
H47	H	-0.113551	1.541191	0.695105
H48	H	0.038974	1.758851	0.383322
H49	H	0.213467	0.867120	-0.226165
O50	O	0.221365	1.122192	-0.259054
H51	H	0.219270	1.054634	-0.345709
