data_functionalizedCrystal
_audit_creation_method	'MofGen! by Chris Wilmer'
_symmetry_space_group_name_H-M	'P1'
_symmetry_Int_Tables_number	1
_symmetry_cell_setting	triclinic
loop_
_symmetry_equiv_pos_as_xyz
  x,y,z
_cell_length_a	10.686220
_cell_length_b	10.686203
_cell_length_c	19.076919
_cell_angle_alpha	91.915911
_cell_angle_beta	96.464688
_cell_angle_gamma	89.652027
loop_
_atom_site_label
_atom_site_type_symbol
_atom_site_fract_x
_atom_site_fract_y
_atom_site_fract_z
Zn1	Zn	1.936340	0.375178	-0.299200
Zn2	Zn	1.960754	0.575147	-0.171936
Zn3	Zn	1.733810	0.382894	-0.189845
Zn4	Zn	1.742746	0.600893	-0.297810
O5	O	1.843412	0.483528	-0.239698
O6	O	2.115575	0.387700	-0.275405
O7	O	1.937126	0.542099	-0.075868
O8	O	1.746719	0.206950	-0.212428
O9	O	2.133511	0.534617	-0.181904
O10	O	1.895517	0.201280	-0.292771
O11	O	1.770392	0.400852	-0.089026
O12	O	1.558999	0.425817	-0.211081
O13	O	1.761950	0.578496	-0.396439
O14	O	1.565565	0.585979	-0.290402
O15	O	1.904182	0.412664	-0.397460
O16	O	1.945792	0.753483	-0.180557
O17	O	1.785623	0.772398	-0.273036
C18	C	1.516648	0.509530	-0.252534
C19	C	1.376858	0.520685	-0.258041
C20	C	1.869359	0.808294	-0.224716
C21	C	1.880573	0.947224	-0.218326
C22	C	2.171453	0.457426	-0.226812
C23	C	2.311244	0.446302	-0.221320
C24	C	1.817385	1.157493	-0.254760
C25	C	1.806261	1.018561	-0.261199
C26	C	1.831339	0.497591	-0.423188
C27	C	1.826195	0.503584	-0.501381
C28	C	1.897827	0.420064	-0.538649
C29	C	1.892977	0.425691	-0.612120
C30	C	1.816501	0.514846	-0.648322
C31	C	1.744861	0.598370	-0.611049
C32	C	1.749705	0.592736	-0.537580
C33	C	1.794067	0.540949	-0.867995
C34	C	1.789232	0.546579	-0.941469
C35	C	1.937347	0.373898	-0.942535
C36	C	1.942189	0.368277	-0.869064
C37	C	1.870544	0.451797	-0.831798
N38	N	1.811545	0.520603	-0.723421
N39	N	1.875494	0.446033	-0.756701
C40	C	1.855504	0.469424	-0.056923
C41	C	1.860864	0.463059	0.021263
H42	H	1.362013	0.374088	-0.185669
C43	C	1.708728	0.957486	-0.317397
N44	N	1.635266	0.911476	-0.359727
C45	C	1.978109	1.008303	-0.162123
N46	N	2.051572	1.054310	-0.119793
C47	C	1.308269	0.618258	-0.306205
N48	N	1.256606	0.691747	-0.342483
H49	H	1.960106	0.347468	-0.509179
H50	H	2.004468	0.295681	-0.839594
C51	C	2.016134	0.282019	-0.983535
N52	N	2.075473	0.212805	-1.014417
C53	C	1.971780	0.333814	-0.653111
N54	N	2.031139	0.264607	-0.683985
C55	C	1.705095	0.644657	-0.981289
N56	N	1.641727	0.718526	-1.011282
H57	H	1.735749	0.608974	-0.837660
H58	H	1.682588	0.670957	-0.640530
C59	C	1.670906	0.684617	-0.496585
N60	N	1.611550	0.753823	-0.465709
