data_functionalizedCrystal
_audit_creation_method	'MofGen! by Chris Wilmer'
_symmetry_space_group_name_H-M	'P1'
_symmetry_Int_Tables_number	1
_symmetry_cell_setting	triclinic
loop_
_symmetry_equiv_pos_as_xyz
  x,y,z
_cell_length_a	12.759401
_cell_length_b	21.395362
_cell_length_c	12.759393
_cell_angle_alpha	89.962807
_cell_angle_beta	89.980324
_cell_angle_gamma	90.030217
loop_
_atom_site_label
_atom_site_type_symbol
_atom_site_fract_x
_atom_site_fract_y
_atom_site_fract_z
Zn1	Zn	1.606156	-0.249401	-0.593936
Zn2	Zn	2.106156	0.250599	-0.093936
Zn3	Zn	1.606001	-0.354191	-0.418235
Zn4	Zn	2.106001	0.145809	0.081765
Zn5	Zn	1.430455	-0.249432	-0.418275
Zn6	Zn	1.930455	0.250568	0.081725
Zn7	Zn	1.430401	-0.354146	-0.593876
Zn8	Zn	1.930401	0.145854	-0.093876
O9	O	1.518253	-0.301793	-0.506081
O10	O	2.018253	0.198207	-0.006081
O11	O	1.753157	-0.263308	-0.570637
O12	O	2.253157	0.236692	-0.070637
O13	O	1.582672	-0.340327	-0.271219
O14	O	2.082672	0.159673	0.228781
O15	O	1.453850	-0.161750	-0.441618
O16	O	1.953850	0.338250	0.058382
O17	O	1.753043	-0.340297	-0.441551
O18	O	2.253043	0.159703	0.058449
O19	O	1.582937	-0.161727	-0.570675
O20	O	2.082937	0.338273	-0.070675
O21	O	1.453699	-0.263361	-0.271248
O22	O	1.953699	0.236639	0.228752
O23	O	1.283427	-0.263317	-0.441560
O24	O	1.783427	0.236683	0.058440
O25	O	1.453757	-0.340219	-0.740905
O26	O	1.953757	0.159781	-0.240905
O27	O	1.283387	-0.340249	-0.570574
O28	O	1.783387	0.159751	-0.070574
O29	O	1.582884	-0.263263	-0.740949
O30	O	2.082884	0.236737	-0.240949
O31	O	1.582620	-0.441863	-0.441493
O32	O	2.082620	0.058137	0.058507
O33	O	1.453607	-0.441830	-0.570536
O34	O	1.953607	0.058170	-0.070536
C35	C	1.245286	-0.301782	-0.506066
C36	C	1.745286	0.198218	-0.006066
C37	C	1.128509	-0.301792	-0.506084
C38	C	1.628509	0.198208	-0.006084
C39	C	1.073707	-0.261777	-0.573403
C40	C	1.573707	0.238223	-0.073403
C41	C	0.963983	-0.261783	-0.573410
C42	C	1.463983	0.238217	-0.073410
C43	C	0.963873	-0.341826	-0.438776
C44	C	1.463873	0.158174	0.061224
C45	C	1.073595	-0.341816	-0.438765
C46	C	1.573595	0.158184	0.061235
C47	C	1.518119	-0.464580	-0.506027
C48	C	2.018119	0.035420	-0.006027
C49	C	1.518157	-0.534222	-0.506039
C50	C	2.018157	-0.034222	-0.006039
C51	C	1.585335	-0.566866	-0.573287
C52	C	2.085335	-0.066866	-0.073287
C53	C	1.585371	-0.632301	-0.573313
C54	C	2.085371	-0.132301	-0.073313
C55	C	1.518242	-0.665090	-0.506071
C56	C	2.018242	-0.165090	-0.006071
C57	C	1.451052	-0.632438	-0.438819
C58	C	1.951052	-0.132438	0.061181
C59	C	1.451010	-0.567004	-0.438802
C60	C	1.951010	-0.067004	0.061198
C61	C	1.510067	-0.768807	-0.411434
C62	C	2.010067	-0.268807	0.088566
C63	C	1.510117	-0.834239	-0.411448
C64	C	2.010117	-0.334239	0.088552
C65	C	1.518367	-0.866911	-0.506122
C66	C	2.018367	-0.366911	-0.006122
C67	C	1.526589	-0.834141	-0.600785
C68	C	2.026589	-0.334141	-0.100785
C69	C	1.526547	-0.768706	-0.600768
C70	C	2.026547	-0.268706	-0.100768
C71	C	1.518280	-0.736042	-0.506082
C72	C	2.018280	-0.236042	-0.006082
C73	C	1.585588	-0.970507	-0.573404
C74	C	2.085588	-0.470507	-0.073404
C75	C	1.585617	-1.035944	-0.573431
C76	C	2.085617	-0.535944	-0.073431
C77	C	1.451304	-1.036079	-0.438928
C78	C	1.951304	-0.536079	0.061072
C79	C	1.451269	-0.970644	-0.438910
C80	C	1.951269	-0.470644	0.061090
C81	C	1.518416	-0.937862	-0.506146
C82	C	2.018416	-0.437862	-0.006146
C83	C	1.792286	-0.301804	-0.506096
C84	C	2.292286	0.198196	-0.006096
C85	C	1.909063	-0.301809	-0.506103
C86	C	2.409063	0.198191	-0.006103
C87	C	1.518332	-0.301732	-0.780114
C88	C	2.018332	0.198268	-0.280114
C89	C	1.518365	-0.301707	-0.896891
C90	C	2.018365	0.198293	-0.396891
C91	C	1.518417	-0.138369	-0.506158
C92	C	2.018417	0.361631	-0.006158
C93	C	1.518486	-0.068728	-0.506191
C94	C	2.018486	0.431272	-0.006191
C95	C	1.585607	-0.261630	-0.951777
C96	C	2.085607	0.238370	-0.451777
C97	C	1.585624	-0.261603	-1.061501
C98	C	2.085624	0.238397	-0.561501
C99	C	1.451157	-0.341735	-1.061443
C100	C	1.951157	0.158265	-0.561443
C101	C	1.451134	-0.341759	-0.951721
C102	C	1.951134	0.158241	-0.451721
C103	C	1.518235	-0.301807	-0.233113
C104	C	2.018235	0.198193	0.266887
C105	C	1.518405	-0.301656	-0.116337
C106	C	2.018405	0.198344	0.383663
H107	H	1.640007	-0.540177	-0.628037
H108	H	2.140007	-0.040177	-0.128037
C109	C	1.377204	-0.385789	-1.121766
C110	C	1.877204	0.114211	-0.621766
N111	N	1.321502	-0.418970	-1.167201
N112	N	1.821502	0.081030	-0.667201
H113	H	1.396371	-0.374394	-0.907031
H114	H	1.896371	0.125606	-0.407031
H115	H	1.396305	-0.540424	-0.384040
H116	H	1.896305	-0.040424	0.115960
H117	H	1.640066	-0.658885	-0.628086
H118	H	2.140066	-0.158885	-0.128086
C119	C	0.903706	-0.217764	-0.647469
C120	C	1.403706	0.282236	-0.147469
N121	N	0.858306	-0.184607	-0.703254
N122	N	1.358306	0.315393	-0.203254
H123	H	1.118415	-0.229185	-0.628216
H124	H	1.618415	0.270815	-0.128216
C125	C	1.535582	-0.732662	-0.704895
C126	C	2.035582	-0.232662	-0.204895
N127	N	1.542383	-0.705513	-0.783326
N128	N	2.042383	-0.205513	-0.283326
H129	H	1.640321	-1.062522	-0.628197
H130	H	2.140321	-0.562522	-0.128197
H131	H	1.640348	-0.229015	-0.907138
H132	H	2.140348	0.270985	-0.407138
H133	H	1.396639	-1.062775	-0.384185
H134	H	1.896639	-0.562775	0.115815
H135	H	0.919148	-0.374413	-0.383968
H136	H	1.419148	0.125587	0.116032
H137	H	1.118216	-0.374402	-0.383940
H138	H	1.618216	0.125598	0.116060
C139	C	1.535661	-0.870074	-0.704935
C140	C	2.035661	-0.370074	-0.204935
N141	N	1.542495	-0.897141	-0.783379
N142	N	2.042495	-0.397141	-0.283379
H143	H	1.640260	-0.943815	-0.628155
H144	H	2.140260	-0.443815	-0.128155
C145	C	1.659598	-0.217516	-1.121871
C146	C	2.159598	0.282484	-0.621871
N147	N	1.715318	-0.184308	-1.167341
N148	N	2.215318	0.315692	-0.667341
H149	H	1.503429	-0.860916	-0.334368
H150	H	2.003429	-0.360916	0.165632
C151	C	1.377361	-0.934734	-0.364937
C152	C	1.877361	-0.434734	0.135063
N153	N	1.321684	-0.907687	-0.309223
N154	N	1.821684	-0.407687	0.190777
H155	H	1.503345	-0.742211	-0.334333
H156	H	2.003345	-0.242211	0.165667
C157	C	1.377251	-0.668506	-0.364812
C158	C	1.877251	-0.168506	0.135188
N159	N	1.321674	-0.695673	-0.309056
N160	N	1.821674	-0.195673	0.190944
