data_functionalizedCrystal
_audit_creation_method	'MofGen! by Chris Wilmer'
_symmetry_space_group_name_H-M	'P1'
_symmetry_Int_Tables_number	1
_symmetry_cell_setting	triclinic
loop_
_symmetry_equiv_pos_as_xyz
  x,y,z
_cell_length_a	10.489716
_cell_length_b	19.188924
_cell_length_c	8.965430
_cell_angle_alpha	89.998356
_cell_angle_beta	89.996523
_cell_angle_gamma	83.835550
loop_
_atom_site_label
_atom_site_type_symbol
_atom_site_fract_x
_atom_site_fract_y
_atom_site_fract_z
O1	O	1.691866	0.098416	-0.124035
O2	O	1.320459	0.107680	-0.124041
O3	O	1.516885	0.001463	-0.124020
O4	O	1.495440	0.204633	-0.124056
O5	O	1.516869	0.001470	0.124058
O6	O	1.320443	0.107687	0.124038
O7	O	1.691850	0.098423	0.124044
Cu8	Cu	1.506145	0.103056	0.146692
Cu9	Cu	1.506164	0.103047	-0.146690
O10	O	1.495424	0.204640	0.124023
C11	C	1.272934	0.106987	-0.000002
C12	C	1.131350	0.104905	-0.000004
C13	C	1.032217	0.170040	-0.000019
C14	C	0.955634	0.135625	0.122309
C15	C	0.955657	0.135603	-0.122277
C16	C	1.056632	0.070517	0.122425
C17	C	1.056660	0.070504	-0.122271
C18	C	0.980128	0.036041	0.000088
C19	C	1.516184	-0.024549	0.000020
C20	C	1.514104	-0.102068	0.000024
C21	C	1.513142	-0.138477	-0.135204
C22	C	1.511169	-0.211313	-0.135215
C23	C	1.510184	-0.247738	0.000009
C24	C	1.511139	-0.211320	0.135255
C25	C	1.513099	-0.138484	0.135263
N26	N	1.579683	-0.366936	0.100655
N27	N	1.577823	-0.436127	0.100639
C28	C	1.504276	-0.467187	-0.000005
N29	N	1.432674	-0.426443	-0.100655
N30	N	1.434539	-0.357246	-0.100643
C31	C	1.508058	-0.326716	0.000016
C32	C	1.501173	-0.582573	-0.135255
C33	C	1.499192	-0.655409	-0.135261
C34	C	1.499175	-0.655416	0.135214
C35	C	1.501143	-0.582580	0.135216
C36	C	1.502148	-0.546163	-0.000023
C37	C	1.739375	0.099116	0.000002
C38	C	1.880959	0.101198	-0.000006
C39	C	1.496125	0.230652	-0.000021
C40	C	1.498205	0.308170	-0.000035
N41	N	1.506140	0.103061	0.353041
N42	N	1.506179	0.103036	-0.353039
C43	C	1.415272	0.152166	0.450338
C44	C	1.530454	0.166288	0.549751
C45	C	1.391008	0.088946	0.549756
C46	C	1.621380	0.117214	0.450265
C47	C	1.481858	0.039844	0.450262
C48	C	1.597123	0.053939	0.549630
H49	H	1.100779	0.043026	-0.225684
H50	H	1.461257	-0.013589	0.406528
H51	H	1.100557	0.043039	0.225946
H52	H	1.293626	0.077018	0.593462
N53	N	1.318959	0.204297	0.395601
N54	N	1.229987	0.186787	0.315863
H55	H	1.161970	0.223604	0.277201
N56	N	0.951056	-0.035084	0.000149
N57	N	0.989801	-0.075277	-0.103873
H58	H	0.969266	-0.125509	-0.103827
N59	N	1.061605	0.241110	0.000142
N60	N	1.125930	0.262953	0.104216
H61	H	1.146692	0.313145	0.104339
H62	H	0.911564	0.163109	-0.225681
N63	N	0.900315	0.170127	0.252033
N64	N	0.912005	0.233466	0.273818
H65	H	0.872942	0.257837	0.365433
H66	H	1.513957	-0.108830	-0.245326
H67	H	1.510378	-0.240962	-0.245338
N68	N	1.510120	-0.248534	0.273371
N69	N	1.508371	-0.313565	0.273347
H70	H	1.507645	-0.339847	0.370896
H71	H	1.718782	0.129207	0.406747
H72	H	1.501937	-0.552936	0.245333
H73	H	1.498363	-0.685072	0.245316
H74	H	1.551019	0.219738	0.593450
H75	H	1.513877	-0.108840	0.245385
N76	N	1.502202	-0.545379	-0.273403
N77	N	1.501335	-0.577900	-0.394138
H78	H	1.502064	-0.551635	-0.491708
H79	H	1.498403	-0.685052	-0.245384
N80	N	1.693655	0.001830	0.603968
N81	N	1.808756	0.005252	0.571759
H82	H	1.876935	-0.031548	0.610136
