data_functionalizedCrystal
_audit_creation_method	'MofGen! by Chris Wilmer'
_symmetry_space_group_name_H-M	'P1'
_symmetry_Int_Tables_number	1
_symmetry_cell_setting	triclinic
loop_
_symmetry_equiv_pos_as_xyz
  x,y,z
_cell_length_a	27.731994
_cell_length_b	27.732048
_cell_length_c	14.421503
_cell_angle_alpha	90.003297
_cell_angle_beta	89.986791
_cell_angle_gamma	82.631595
loop_
_atom_site_label
_atom_site_type_symbol
_atom_site_fract_x
_atom_site_fract_y
_atom_site_fract_z
O1	O	0.640937	0.057389	0.076989
O2	O	0.500139	0.066162	0.077022
O3	O	0.574911	-0.008622	0.076987
O4	O	0.566165	0.132173	0.077024
O5	O	0.574920	-0.008618	-0.077237
O6	O	0.500148	0.066166	-0.077202
O7	O	0.640946	0.057393	-0.077234
Cu8	Cu	0.570548	0.061780	-0.091300
Cu9	Cu	0.570537	0.061775	0.091087
O10	O	0.566174	0.132177	-0.077199
C11	C	0.482137	0.065984	-0.000086
C12	C	0.428480	0.065442	-0.000075
C13	C	0.095767	0.062028	-0.084179
C14	C	-0.105891	0.059967	-0.084190
O15	O	-0.131960	0.059682	-0.155686
N16	N	-0.131111	0.059708	-0.000123
C17	C	-0.105913	0.059962	0.083953
O18	O	-0.131990	0.059690	0.155457
C19	C	0.095745	0.062020	0.083963
C20	C	0.120961	0.062283	-0.000109
C21	C	0.120983	0.062291	-0.168244
C22	C	0.171394	0.062809	-0.168241
C23	C	0.196589	0.063064	-0.084171
C24	C	0.171372	0.062801	-0.000106
C25	C	0.120943	0.062270	0.168038
C26	C	0.171361	0.062783	0.168033
C27	C	0.196577	0.063047	0.083961
C28	C	0.246978	0.063575	0.083967
N29	N	0.272198	0.063833	-0.000100
C30	C	0.247003	0.063578	-0.084169
C31	C	-0.211786	0.058882	0.083942
C32	C	-0.262201	0.058369	0.083940
C33	C	-0.262176	0.058373	-0.084204
C34	C	-0.211761	0.058890	-0.084200
C35	C	-0.186566	0.059141	-0.000125
C36	C	0.352870	0.064666	-0.084155
C37	C	0.403286	0.065187	-0.084144
C38	C	0.403257	0.065180	0.083999
C39	C	0.352845	0.064662	0.083988
C40	C	0.327654	0.064404	-0.000096
O41	O	0.273078	0.063855	0.155426
O42	O	0.273091	0.063840	-0.155662
C43	C	0.045356	0.061510	-0.084182
C44	C	0.020139	0.061247	-0.000117
C45	C	0.045334	0.061502	0.083953
C46	C	-0.030275	0.060734	-0.000119
C47	C	-0.055470	0.060479	-0.084188
C48	C	-0.030250	0.060737	-0.168255
C49	C	0.020161	0.061255	-0.168252
C50	C	0.020114	0.061244	0.168020
C51	C	-0.030297	0.060726	0.168009
C52	C	-0.055492	0.060471	0.083940
C53	C	0.574732	-0.026627	-0.000127
C54	C	0.574179	-0.080282	-0.000135
C55	C	0.614884	-0.419105	-0.000097
C56	C	0.612833	-0.620764	-0.000083
O57	O	0.650055	-0.652027	-0.000051
N58	N	0.568496	-0.639879	-0.000074
C59	C	0.524670	-0.608576	-0.000062
O60	O	0.486912	-0.629462	-0.000044
C61	C	0.526721	-0.406918	-0.000069
C62	C	0.571061	-0.387805	-0.000087
C63	C	0.659220	-0.399992	-0.000114
C64	C	0.659732	-0.349580	-0.000123
C65	C	0.615908	-0.318281	-0.000113
C66	C	0.571573	-0.337394	-0.000096
C67	C	0.482895	-0.375615	-0.000050
C68	C	0.483412	-0.325198	-0.000049
C69	C	0.527751	-0.306086	-0.000068
C70	C	0.528262	-0.255683	-0.000095
N71	N	0.572598	-0.236567	-0.000104
C72	C	0.616421	-0.267867	-0.000114
C73	C	0.523596	-0.714450	-0.000060
C74	C	0.523083	-0.764864	-0.000060
C75	C	0.611246	-0.777049	-0.000080
C76	C	0.611759	-0.726633	-0.000086
C77	C	0.567932	-0.695335	-0.000070
C78	C	0.617494	-0.161998	-0.000132
C79	C	0.618002	-0.111581	-0.000144
C80	C	0.529839	-0.099401	-0.000120
C81	C	0.529331	-0.149813	-0.000112
C82	C	0.573162	-0.181111	-0.000115
O83	O	0.491060	-0.224391	-0.000117
O84	O	0.654174	-0.246971	-0.000111
C85	C	0.614372	-0.469517	-0.000088
C86	C	0.570036	-0.488629	-0.000071
C87	C	0.526213	-0.457330	-0.000061
C88	C	0.569523	-0.539043	-0.000071
C89	C	0.613346	-0.570343	-0.000080
C90	C	0.657683	-0.551228	-0.000089
C91	C	0.658195	-0.500816	-0.000098
C92	C	0.481876	-0.476445	-0.000052
C93	C	0.481367	-0.526857	-0.000045
C94	C	0.525191	-0.558157	-0.000054
C95	C	0.658949	0.057571	-0.000124
C96	C	0.712605	0.058114	-0.000130
C97	C	0.566353	0.150182	-0.000083
C98	C	0.566906	0.203837	-0.000069
N99	N	0.570559	0.061784	-0.219581
C100	C	0.605141	0.027196	-0.469226
C101	C	0.561531	0.018143	-0.531016
C102	C	0.570548	0.061778	-0.408742
C103	C	0.614148	0.070803	-0.531047
C104	C	0.570542	0.061771	-0.591464
C105	C	0.526916	0.052704	-0.469171
C106	C	0.579562	0.105382	-0.469197
C107	C	0.535921	0.096348	-0.530959
C108	C	0.570553	0.061781	-0.303481
C109	C	0.570532	0.061769	-0.696723
N110	N	0.570530	0.061767	0.219368
H111	H	0.191922	0.063021	-0.236701
C112	C	0.477089	0.042336	-0.432618
H113	H	0.477400	0.042388	-0.366744
H114	H	0.452512	0.066760	-0.454253
H115	H	0.470620	0.011460	-0.454292
H116	H	0.332365	0.064460	-0.152625
C117	C	-0.289912	0.058212	-0.176677
H118	H	-0.323552	0.057902	-0.164630
H119	H	-0.285508	0.086532	-0.211072
H120	H	-0.277798	0.030129	-0.211372
C121	C	0.551223	-0.031673	-0.567709
H122	H	0.575833	-0.056207	-0.546579
H123	H	0.520486	-0.038325	-0.545615
H124	H	0.551004	-0.031221	-0.633577
C125	C	0.496358	0.135852	-0.567357
H126	H	0.465417	0.129357	-0.546055
H127	H	0.502500	0.166752	-0.545255
H128	H	0.496742	0.135809	-0.633227
C129	C	0.589889	0.155183	-0.432474
H130	H	0.620900	0.161549	-0.453621
H131	H	0.565631	0.179808	-0.454528
H132	H	0.589521	0.154910	-0.366606
H133	H	0.651022	0.078440	-0.558225
C134	C	0.430978	0.065456	0.176467
H135	H	0.464614	0.065796	0.164421
H136	H	0.418816	0.093567	0.211031
H137	H	0.426613	0.037165	0.210993
C138	C	0.093217	0.061970	0.260520
H139	H	0.115450	0.062187	0.310580
H140	H	0.069647	0.089964	0.264047
H141	H	0.077456	0.033562	0.263996
H142	H	0.423814	0.065403	-0.152609
C143	C	0.199073	0.063061	0.260516
H144	H	0.232711	0.063403	0.248484
H145	H	0.186905	0.091173	0.295069
H146	H	0.194707	0.034771	0.295044
H147	H	-0.050773	0.060532	-0.236708
C148	C	0.706968	-0.479799	-0.000109
H149	H	0.732991	-0.505665	-0.000105
H150	H	0.709010	-0.460388	-0.053890
H151	H	0.709000	-0.460385	0.053679
C152	C	0.093276	0.062015	-0.260729
H153	H	0.115521	0.062249	-0.310786
H154	H	0.077506	0.033617	-0.264249
H155	H	0.069714	0.090020	-0.264217
H156	H	-0.191233	0.059105	-0.152660
C157	C	0.434121	-0.396628	-0.000022
H158	H	0.408099	-0.370760	-0.000004
H159	H	0.432082	-0.416044	-0.053797
H160	H	0.432086	-0.416035	0.053772
C161	C	0.708505	-0.328563	-0.000126
H162	H	0.734528	-0.354430	-0.000119
H163	H	0.710549	-0.309152	-0.053904
H164	H	0.710534	-0.309150	0.053665
C165	C	-0.289934	0.058085	0.176419
H166	H	-0.267704	0.058306	0.226483
H167	H	-0.313501	0.086083	0.179927
H168	H	-0.305700	0.029681	0.179908
C169	C	-0.184079	0.059164	0.176431
H170	H	-0.206325	0.058942	0.226490
H171	H	-0.160513	0.031167	0.179932
H172	H	-0.168315	0.087569	0.179935
H173	H	0.494160	-0.073908	-0.000115
H174	H	0.647863	-0.711076	-0.000101
H175	H	0.040622	0.061450	0.236481
C176	C	0.325104	0.064388	0.176465
H177	H	0.347331	0.064616	0.226533
H178	H	0.301537	0.092387	0.179955
H179	H	0.309338	0.035985	0.179964
C180	C	0.474311	-0.785884	-0.000050
H181	H	0.480277	-0.820392	-0.000058
H182	H	0.456281	-0.775114	0.053735
H183	H	0.456288	-0.775119	-0.053834
C184	C	-0.058030	0.060436	0.260496
H185	H	-0.035800	0.060657	0.310560
H186	H	-0.081600	0.088431	0.264010
H187	H	-0.073792	0.032029	0.263979
H188	H	0.040688	0.061470	-0.236712
H189	H	0.654110	-0.096023	-0.000162
C190	C	0.432591	-0.547875	-0.000021
H191	H	0.406567	-0.522010	-0.000007
H192	H	0.430554	-0.567294	-0.053794
H193	H	0.430558	-0.567281	0.053775
C194	C	0.665707	-0.196418	-0.000143
H195	H	0.692182	-0.177809	-0.000163
H196	H	0.667343	-0.216336	0.053638
H197	H	0.667343	-0.216340	-0.053931
C198	C	0.659451	-0.811484	-0.000075
H199	H	0.652791	-0.844244	-0.000063
H200	H	0.677659	-0.805734	-0.053853
H201	H	0.677637	-0.805722	0.053716
H202	H	0.694908	-0.425472	-0.000118
C203	C	0.475383	-0.680027	-0.000054
H204	H	0.448909	-0.698636	-0.000059
H205	H	0.473740	-0.660102	0.053724
H206	H	0.473754	-0.660111	-0.053845
H207	H	0.447722	-0.299716	-0.000034
C208	C	0.644616	-0.012329	-0.432596
H209	H	0.638127	-0.043294	-0.453763
H210	H	0.675531	-0.006221	-0.454688
H211	H	0.644535	-0.011864	-0.366728
H212	H	0.493226	-0.165375	-0.000123
H213	H	0.693365	-0.576720	-0.000101
H214	H	0.446189	-0.450966	-0.000042
