data_functionalizedCrystal
_audit_creation_method	'MofGen! by Chris Wilmer'
_symmetry_space_group_name_H-M	'P1'
_symmetry_Int_Tables_number	1
_symmetry_cell_setting	triclinic
loop_
_symmetry_equiv_pos_as_xyz
  x,y,z
_cell_length_a	9.130313
_cell_length_b	16.109301
_cell_length_c	16.109301
_cell_angle_alpha	96.538519
_cell_angle_beta	89.997330
_cell_angle_gamma	89.997515
loop_
_atom_site_label
_atom_site_type_symbol
_atom_site_fract_x
_atom_site_fract_y
_atom_site_fract_z
O1	O	-0.121711	-1.103127	0.106863
O2	O	0.378289	-0.603127	0.606863
O3	O	-0.121735	-0.861065	0.120163
O4	O	0.378265	-0.361065	0.620163
O5	O	-0.121708	-0.988746	-0.007518
O6	O	0.378292	-0.488746	0.492482
O7	O	-0.121739	-0.975447	0.234544
O8	O	0.378261	-0.475447	0.734544
O9	O	0.121891	-0.988744	-0.007514
O10	O	0.621891	-0.488744	0.492486
O11	O	0.121864	-0.861064	0.120166
O12	O	0.621864	-0.361064	0.620166
O13	O	0.121887	-1.103126	0.106867
O14	O	0.621887	-0.603126	0.606867
Cu15	Cu	0.144118	-0.982094	0.113517
Cu16	Cu	0.644118	-0.482094	0.613517
Cu17	Cu	-0.143966	-0.982096	0.113513
Cu18	Cu	0.356034	-0.482096	0.613513
O19	O	0.121860	-0.975445	0.234548
O20	O	0.621860	-0.475445	0.734548
C21	C	0.000061	-0.830090	0.119626
C22	C	0.500061	-0.330090	0.619626
C23	C	0.000053	-0.737794	0.118011
C24	C	0.500053	-0.237794	0.618011
N25	N	0.346741	-0.982099	0.113519
N26	N	0.846741	-0.482099	0.613519
N27	N	-0.346588	-0.982098	0.113504
N28	N	0.153412	-0.482098	0.613504
C29	C	0.423405	-1.038651	0.057001
C30	C	0.923405	-0.538651	0.557001
C31	C	0.576742	-1.038648	0.056991
C32	C	1.076742	-0.538648	0.556991
C33	C	0.576737	-0.925541	0.170024
C34	C	1.076737	-0.425541	0.670024
C35	C	0.423403	-0.925540	0.170030
C36	C	0.923403	-0.425540	0.670030
C37	C	0.346743	-1.095210	0.000491
C38	C	0.846743	-0.595210	0.500491
C39	C	0.423407	-1.151767	-0.056031
C40	C	0.923407	-0.651767	0.443969
C41	C	0.576744	-1.151764	-0.056041
C42	C	1.076744	-0.651764	0.443959
C43	C	0.653416	-1.095206	0.000471
C44	C	1.153416	-0.595206	0.500471
C45	C	0.000092	-0.988206	-0.038491
C46	C	0.500092	-0.488206	0.461509
C47	C	0.000094	-0.986591	-0.130786
C48	C	0.500094	-0.486591	0.369214
C49	C	0.000088	-1.134101	0.107404
C50	C	0.500088	-0.634101	0.607404
C51	C	0.000087	-1.226397	0.109019
C52	C	0.500087	-0.726397	0.609019
C53	C	0.000060	-0.515522	0.190018
C54	C	0.500060	-0.015522	0.690018
C55	C	0.000070	-0.428801	0.188494
C56	C	0.500070	0.071199	0.688494
C57	C	0.000083	-0.448676	0.037006
C58	C	0.500083	0.051324	0.537006
C59	C	0.000084	-0.535394	0.038530
C60	C	0.500084	-0.035394	0.538530
C61	C	0.000065	-0.568815	0.115039
C62	C	0.500065	-0.068815	0.615039
C63	C	0.000074	-0.395376	0.111990
C64	C	0.500074	0.104624	0.611990
C65	C	0.000084	-0.301350	0.110337
C66	C	0.500084	0.198650	0.610337
C67	C	0.000058	-0.662847	0.116693
C68	C	0.500058	-0.162847	0.616693
C69	C	0.000078	-1.058599	-0.353059
C70	C	0.500078	-0.558599	0.146941
C71	C	0.000066	-1.057075	-0.439779
C72	C	0.500066	-0.557075	0.060221
C73	C	0.000057	-0.905586	-0.419905
C74	C	0.500057	-0.405586	0.080095
C75	C	0.000058	-0.907111	-0.333186
C76	C	0.500058	-0.407111	0.166814
C77	C	0.000077	-0.983620	-0.299766
C78	C	0.500077	-0.483620	0.200234
C79	C	0.000063	-0.980571	-0.473205
C80	C	0.500063	-0.480571	0.026795
C81	C	0.000050	-0.978918	-0.567231
C82	C	0.500050	-0.478918	-0.067231
C83	C	0.000087	-0.985273	-0.205734
C84	C	0.500087	-0.485273	0.294266
C85	C	0.000057	-0.975984	0.265521
C86	C	0.500057	-0.475984	0.765521
C87	C	0.000045	-0.977600	0.357816
C88	C	0.500045	-0.477600	0.857816
H89	H	0.221888	-1.095219	0.000495
H90	H	0.721888	-0.595219	0.500495
O91	O	0.000093	-0.592885	-0.042343
O92	O	0.500093	-0.092885	0.457657
H93	H	0.000086	-0.555079	-0.095801
H94	H	0.500086	-0.055079	0.404199
O95	O	0.000068	-1.141114	-0.317007
O96	O	0.500068	-0.641114	0.182993
H97	H	0.000048	-1.192995	-0.368638
H98	H	0.500048	-0.692995	0.131362
O99	O	0.818803	-1.095204	0.000466
O100	O	1.318803	-0.595204	0.500466
H101	H	0.859234	-1.081934	-0.061651
H102	H	1.359234	-0.581934	0.438349
H103	H	0.000069	-0.385413	0.249550
H104	H	0.500069	0.114587	0.749550
H105	H	0.000064	-1.118130	-0.483168
H106	H	0.500064	-0.618130	0.016832
O107	O	0.000069	-0.823067	-0.455950
O108	O	0.500069	-0.323067	0.044050
H109	H	0.000089	-0.834602	-0.525205
H110	H	0.500089	-0.334602	-0.025205
O111	O	0.000093	-0.412631	-0.045513
O112	O	0.500093	0.087369	0.454487
H113	H	0.000078	-0.343376	-0.033979
H114	H	0.500078	0.156624	0.466021
H115	H	0.000053	-0.846050	-0.289792
H116	H	0.500053	-0.346050	0.210208
H117	H	0.000056	-0.542730	0.252317
H118	H	0.500056	-0.042730	0.752317
H119	H	0.639163	-1.197809	-0.102069
H120	H	1.139163	-0.697809	0.397931
O121	O	0.340724	-1.212748	-0.117002
O122	O	0.840724	-0.712748	0.382998
H123	H	0.221221	-1.203249	-0.107503
H124	H	0.721221	-0.703249	0.392497
H125	H	0.639173	-0.879494	0.216035
H126	H	1.139173	-0.379494	0.716035
O127	O	0.340697	-0.864552	0.230991
O128	O	0.840697	-0.364552	0.730991
H129	H	0.419763	-0.825232	0.270295
H130	H	0.919763	-0.325232	0.770295
