data_functionalizedCrystal
_audit_creation_method	'MofGen! by Chris Wilmer'
_symmetry_space_group_name_H-M	'P1'
_symmetry_Int_Tables_number	1
_symmetry_cell_setting	triclinic
loop_
_symmetry_equiv_pos_as_xyz
  x,y,z
_cell_length_a	18.050591
_cell_length_b	29.839131
_cell_length_c	29.839125
_cell_angle_alpha	89.988394
_cell_angle_beta	89.980084
_cell_angle_gamma	90.037426
loop_
_atom_site_label
_atom_site_type_symbol
_atom_site_fract_x
_atom_site_fract_y
_atom_site_fract_z
Zn1	Zn	1.135217	-0.178991	-0.254081
Zn2	Zn	1.135101	-0.254095	-0.178950
Zn3	Zn	1.011038	-0.178975	-0.178955
Zn4	Zn	1.010956	-0.254090	-0.254044
O5	O	1.073078	-0.216538	-0.216507
O6	O	1.239126	-0.188963	-0.244128
O7	O	1.118630	-0.244126	-0.116084
O8	O	1.027594	-0.116110	-0.188938
O9	O	1.239041	-0.244142	-0.188930
O10	O	1.118827	-0.116122	-0.244132
O11	O	1.027482	-0.188935	-0.116087
O12	O	0.907103	-0.188930	-0.188902
O13	O	1.027453	-0.244132	-0.316916
O14	O	0.907042	-0.244116	-0.244069
O15	O	1.118747	-0.188958	-0.316943
O16	O	1.118550	-0.316962	-0.188894
O17	O	1.027341	-0.316958	-0.244065
C18	C	0.880126	-0.216521	-0.216483
C19	C	0.797580	-0.216525	-0.216483
C20	C	0.598141	-0.186479	-0.186552
C21	C	0.548706	-0.227452	-0.175494
C22	C	0.646450	-0.216538	-0.216503
C23	C	0.548803	-0.175580	-0.227560
C24	C	0.500465	-0.216548	-0.216522
C25	C	0.598102	-0.257533	-0.205424
C26	C	0.598203	-0.205633	-0.257508
C27	C	0.548791	-0.246634	-0.246466
C28	C	0.730548	-0.216532	-0.216491
C29	C	0.416368	-0.216559	-0.216534
C30	C	1.072944	-0.333260	-0.216485
C31	C	1.072954	-0.383195	-0.216491
C32	C	1.120657	-0.692828	-0.187822
C33	C	1.120749	-0.880501	-0.187839
O34	O	1.161201	-0.904757	-0.163447
N35	N	1.073232	-0.903980	-0.216541
C36	C	1.025692	-0.880538	-0.245243
O37	O	0.985284	-0.904815	-0.269659
C38	C	1.025605	-0.692866	-0.245227
C39	C	1.073120	-0.669389	-0.216520
C40	C	1.168168	-0.669351	-0.159118
C41	C	1.168142	-0.622435	-0.159112
C42	C	1.120605	-0.598997	-0.187810
C43	C	1.073093	-0.622473	-0.216515
C44	C	0.978070	-0.669424	-0.273931
C45	C	0.978053	-0.622503	-0.273925
C46	C	1.025568	-0.599027	-0.245218
C47	C	1.025530	-0.552119	-0.245207
N48	N	1.073046	-0.528640	-0.216505
C49	C	1.120584	-0.552079	-0.187807
C50	C	1.025741	-0.979068	-0.245248
C51	C	1.025761	-1.025986	-0.245252
C52	C	1.120819	-1.025946	-0.187849
C53	C	1.120794	-0.979027	-0.187843
C54	C	1.073257	-0.955589	-0.216547
C55	C	1.120525	-0.453553	-0.187797
C56	C	1.120492	-0.406633	-0.187792
C57	C	1.025438	-0.406678	-0.245197
C58	C	1.025467	-0.453593	-0.245200
C59	C	1.073017	-0.477030	-0.216498
O60	O	0.985105	-0.527835	-0.269590
O61	O	1.160998	-0.527794	-0.163401
C62	C	1.120683	-0.739743	-0.187828
C63	C	1.073172	-0.763220	-0.216532
C64	C	1.025635	-0.739781	-0.245230
C65	C	1.073193	-0.810138	-0.216535
C66	C	1.120730	-0.833576	-0.187837
C67	C	1.168247	-0.810097	-0.159135
C68	C	1.168221	-0.763182	-0.159129
C69	C	0.978118	-0.763260	-0.273932
C70	C	0.978147	-0.810176	-0.273935
C71	C	1.025685	-0.833614	-0.245237
C72	C	1.266784	-0.216555	-0.216533
C73	C	1.349329	-0.216562	-0.216543
C74	C	1.073104	-0.216546	-0.333686
C75	C	1.073115	-0.216550	-0.383620
C76	C	1.073233	-0.099359	-0.216540
C77	C	1.073299	-0.049425	-0.216553
C78	C	1.025629	-0.245176	-0.740193
C79	C	1.025603	-0.245228	-0.552520
O80	O	0.985156	-0.269652	-0.528244
N81	N	1.073131	-0.216508	-0.529065
C82	C	1.120666	-0.187771	-0.552532
O83	O	1.161086	-0.163341	-0.528276
C84	C	1.120689	-0.187718	-0.740204
C85	C	1.073162	-0.216443	-0.763656
C86	C	0.978106	-0.273898	-0.763646
C87	C	0.978116	-0.273887	-0.810561
C88	C	1.025649	-0.245153	-0.834024
C89	C	1.073172	-0.216431	-0.810572
C90	C	1.168220	-0.158979	-0.763669
C91	C	1.168220	-0.158967	-0.810590
C92	C	1.120693	-0.187692	-0.834043
C93	C	1.120715	-0.187686	-0.880950
N94	N	1.073187	-0.216406	-0.904405
C95	C	1.025654	-0.245139	-0.880942
C96	C	1.120652	-0.187802	-0.454001
C97	C	1.120648	-0.187816	-0.407083
C98	C	1.025583	-0.245272	-0.407075
C99	C	1.025592	-0.245260	-0.453994
C100	C	1.073124	-0.216522	-0.477456
C101	C	1.025679	-0.245113	-0.979468
C102	C	1.025695	-0.245100	-1.026388
C103	C	1.120757	-0.187643	-1.026392
C104	C	1.120744	-0.187657	-0.979476
C105	C	1.073199	-0.216394	-0.956016
O106	O	1.161135	-0.163271	-0.905256
O107	O	0.985228	-0.269558	-0.905206
C108	C	1.025619	-0.245188	-0.693278
C109	C	1.073142	-0.216466	-0.669825
C110	C	1.120675	-0.187732	-0.693288
C111	C	1.073138	-0.216479	-0.622908
C112	C	1.025605	-0.245213	-0.599445
C113	C	0.978076	-0.273933	-0.622900
C114	C	0.978086	-0.273921	-0.669815
C115	C	1.168204	-0.159012	-0.669833
C116	C	1.168191	-0.159026	-0.622918
C117	C	1.120658	-0.187760	-0.599455
C118	C	1.073095	-0.216497	-0.099785
C119	C	1.073228	-0.216367	-0.049851
H120	H	1.159246	-0.472629	-0.164426
H121	H	0.527108	-0.140942	-0.236888
N122	N	1.169370	-1.049899	-0.158534
N123	N	1.169376	-1.091790	-0.158546
H124	H	1.203666	-1.108710	-0.137845
N125	N	1.216765	-0.129612	-0.834563
N126	N	1.190674	-0.100977	-0.860739
H127	H	1.224959	-0.080245	-0.877670
H128	H	0.619809	-0.161087	-0.161195
N129	N	0.521758	-0.278563	-0.278245
N130	N	0.453575	-0.283541	-0.283619
H131	H	0.434480	-0.306092	-0.306060
N132	N	1.169030	-0.382660	-0.158462
N133	N	1.211470	-0.403597	-0.132841
H134	H	1.245750	-0.386668	-0.112127
H135	H	0.986779	-0.472709	-0.268577
H136	H	0.619667	-0.292185	-0.196041
N137	N	1.169295	-0.158324	-0.955512
N138	N	1.216592	-0.174138	-0.929335
H139	H	1.250879	-0.153419	-0.912413
N140	N	0.521412	-0.239037	-0.132008
N141	N	0.481769	-0.273043	-0.127055
H142	H	0.462493	-0.281223	-0.096343
N143	N	0.976880	-0.382724	-0.274503
N144	N	0.976870	-0.340834	-0.274491
H145	H	0.942577	-0.323914	-0.295190
N146	N	1.216759	-0.739212	-0.129802
N147	N	1.259195	-0.760152	-0.104182
H148	H	1.293478	-0.743226	-0.083468
H149	H	1.206952	-0.829189	-0.135767
N150	N	0.625492	-0.194033	-0.300989
N151	N	0.609744	-0.156864	-0.317788
H152	H	0.629017	-0.148667	-0.348496
N153	N	1.216683	-0.598465	-0.129786
N154	N	1.259121	-0.619406	-0.104168
H155	H	1.293408	-0.602480	-0.083455
N156	N	1.169224	-0.158454	-0.477964
N157	N	1.216535	-0.174256	-0.504151
H158	H	1.250842	-0.153531	-0.521073
N159	N	0.929598	-0.834147	-0.303260
N160	N	0.887160	-0.813208	-0.328881
H161	H	0.852875	-0.830136	-0.349593
H162	H	1.206883	-0.688430	-0.135748
N163	N	0.977210	-1.049957	-0.274571
N164	N	0.934771	-1.029018	-0.300191
H165	H	0.900481	-1.045946	-0.320900
N166	N	0.977127	-0.274475	-0.955509
N167	N	1.003216	-0.303114	-0.929337
H168	H	0.968930	-0.323853	-0.912415
H169	H	1.159484	-0.959915	-0.164468
H170	H	0.987029	-0.959988	-0.268622
N171	N	0.929555	-0.739329	-0.303253
N172	N	0.887138	-0.760303	-0.328876
H173	H	0.852834	-0.743404	-0.349585
N174	N	1.216730	-0.129681	-0.598958
N175	N	1.216716	-0.129688	-0.557067
H176	H	1.250991	-0.108960	-0.540146
N177	N	0.929529	-0.693391	-0.303258
N178	N	0.887097	-0.672449	-0.328879
H179	H	0.852813	-0.689373	-0.349594
N180	N	1.216761	-0.129640	-0.739712
N181	N	1.264067	-0.145448	-0.713539
H182	H	1.298351	-0.124725	-0.696619
H183	H	0.939344	-0.603423	-0.297300
H184	H	0.986993	-0.268493	-1.045481
N185	N	0.929573	-0.303237	-0.834507
N186	N	0.887146	-0.328891	-0.813545
H187	H	0.852862	-0.349623	-0.830453
H188	H	0.939394	-0.297296	-0.744547
H189	H	0.986891	-0.268650	-0.473086
N190	N	0.977032	-0.274620	-0.383097
N191	N	0.977038	-0.274623	-0.341206
H192	H	0.942747	-0.295346	-0.324269
H193	H	1.159356	-0.164430	-0.387992
N194	N	1.169309	-0.158299	-1.050370
N195	N	1.169303	-0.158296	-1.092261
H196	H	1.203590	-0.137570	-1.109198
N197	N	0.929535	-0.303267	-0.693761
N198	N	0.887103	-0.328918	-0.672798
H199	H	0.852810	-0.349645	-0.689707
N200	N	0.929530	-0.303283	-0.598921
N201	N	0.929536	-0.303285	-0.557030
H202	H	0.895250	-0.324011	-0.540093
N203	N	1.216764	-0.129656	-0.693789
N204	N	1.259191	-0.104017	-0.672837
H205	H	1.293493	-0.083284	-0.689754
