data_functionalizedCrystal
_audit_creation_method	'MofGen! by Chris Wilmer'
_symmetry_space_group_name_H-M	'P1'
_symmetry_Int_Tables_number	1
_symmetry_cell_setting	triclinic
loop_
_symmetry_equiv_pos_as_xyz
  x,y,z
_cell_length_a	10.654550
_cell_length_b	8.559649
_cell_length_c	9.730223
_cell_angle_alpha	89.997407
_cell_angle_beta	89.999957
_cell_angle_gamma	77.131797
loop_
_atom_site_label
_atom_site_type_symbol
_atom_site_fract_x
_atom_site_fract_y
_atom_site_fract_z
O1	O	1.644681	0.224185	-0.114181
O2	O	1.276996	0.245543	-0.114206
O3	O	1.493232	0.002621	-0.114190
O4	O	1.428445	0.467107	-0.114197
O5	O	1.493220	0.002614	0.114390
O6	O	1.276985	0.245537	0.114374
O7	O	1.644669	0.224178	0.114398
Zn8	Zn	1.460825	0.234856	0.150678
Zn9	Zn	1.460841	0.234865	-0.150486
O10	O	1.428434	0.467100	0.114383
C11	C	1.230355	0.243972	0.000081
C12	C	1.091396	0.239280	0.000071
C13	C	0.997136	0.382309	0.000073
C14	C	0.866571	0.377890	0.000097
C15	C	0.924541	0.087402	0.000112
C16	C	1.055103	0.091822	0.000097
C17	C	1.498136	-0.056858	0.000097
C18	C	1.512750	-0.234076	0.000091
C19	C	1.691311	0.225750	0.000109
C20	C	1.830270	0.230442	0.000109
C21	C	1.423530	0.526579	0.000092
C22	C	1.408915	0.703797	0.000089
N23	N	1.460824	0.234849	0.356214
N24	N	1.460853	0.234860	-0.356022
C25	C	1.556598	0.127329	0.428147
C26	C	1.556610	0.127330	0.572030
C27	C	1.365070	0.342385	0.572035
C28	C	1.365053	0.342375	0.428154
H29	H	0.789827	0.494359	0.000101
H30	H	1.308837	-0.213815	0.000087
H31	H	0.894975	-0.032654	0.000141
C32	C	1.661934	0.009042	0.349013
C33	C	1.767278	-0.109235	0.428146
C34	C	1.872615	-0.227530	0.349016
C35	C	1.872608	-0.227549	0.190754
C36	C	1.767261	-0.109268	0.111612
C37	C	1.661924	0.009027	0.190741
H38	H	1.767286	-0.109225	0.545309
H39	H	1.950600	-0.315090	0.407603
H40	H	1.950585	-0.315119	0.132177
H41	H	1.767252	-0.109278	-0.005552
H42	H	1.583939	0.096586	0.132154
C43	C	1.259733	0.460672	0.651169
C44	C	1.259807	0.460789	0.809432
C45	C	1.154469	0.579085	0.888562
C46	C	1.049059	0.697263	0.809429
C47	C	1.048982	0.697151	0.651157
C48	C	1.154319	0.578856	0.572027
H49	H	1.337841	0.373302	0.868019
H50	H	1.154527	0.579167	1.005725
H51	H	0.971082	0.784833	0.868005
H52	H	0.970947	0.784638	0.592570
H53	H	1.154261	0.578773	0.454864
H54	H	1.026680	0.502378	0.000062
H55	H	1.634596	0.039775	0.630594
H56	H	1.287057	0.429932	0.369583
H57	H	1.612835	-0.316473	0.000109
H58	H	1.131856	-0.024657	0.000100
