data_functionalizedCrystal
_audit_creation_method	'MofGen! by Chris Wilmer'
_symmetry_space_group_name_H-M	'P1'
_symmetry_Int_Tables_number	1
_symmetry_cell_setting	triclinic
loop_
_symmetry_equiv_pos_as_xyz
  x,y,z
_cell_length_a	19.121063
_cell_length_b	12.759401
_cell_length_c	19.121175
_cell_angle_alpha	92.459347
_cell_angle_beta	94.951770
_cell_angle_gamma	87.531822
loop_
_atom_site_label
_atom_site_type_symbol
_atom_site_fract_x
_atom_site_fract_y
_atom_site_fract_z
Zn1	Zn	-0.297125	-1.613287	-0.409816
Zn2	Zn	0.202875	-1.113287	0.090184
Zn3	Zn	-0.409773	-1.598783	-0.297165
Zn4	Zn	0.090227	-1.098783	0.202835
Zn5	Zn	-0.292125	-1.430419	-0.292163
Zn6	Zn	0.207875	-0.930419	0.207837
Zn7	Zn	-0.414750	-1.430348	-0.414783
Zn8	Zn	0.085250	-0.930348	0.085217
O9	O	-0.353443	-1.518209	-0.353482
O10	O	0.146557	-1.018209	0.146518
O11	O	-0.312078	-1.758384	-0.394888
O12	O	0.187922	-1.258384	0.105112
O13	O	-0.389991	-1.570409	-0.198040
O14	O	0.110009	-1.070409	0.301960
O15	O	-0.194326	-1.460777	-0.303598
O16	O	0.305674	-0.960777	0.196402
O17	O	-0.394840	-1.747728	-0.312124
O18	O	0.105160	-1.247728	0.187876
O19	O	-0.197999	-1.595129	-0.390037
O20	O	0.302001	-1.095129	0.109963
O21	O	-0.303556	-1.446713	-0.194365
O22	O	0.196444	-0.946713	0.305635
O23	O	-0.308382	-1.283388	-0.308414
O24	O	0.191618	-0.783388	0.191586
O25	O	-0.403322	-1.460656	-0.512585
O26	O	0.096678	-0.960656	-0.012585
O27	O	-0.398474	-1.283336	-0.398502
O28	O	0.101526	-0.783336	0.101498
O29	O	-0.316904	-1.595060	-0.508937
O30	O	0.183096	-1.095060	-0.008937
O31	O	-0.508896	-1.570340	-0.316940
O32	O	-0.008896	-1.070340	0.183060
O33	O	-0.512552	-1.446592	-0.403353
O34	O	-0.012552	-0.946592	0.096647
C35	C	-0.353426	-1.245241	-0.353455
C36	C	0.146574	-0.745241	0.146545
C37	C	-0.353436	-1.128464	-0.353460
C38	C	0.146564	-0.628464	0.146540
C39	C	-0.396470	-0.958321	-0.310321
C40	C	0.103530	-0.458321	0.189679
C41	C	-0.396458	-1.068045	-0.310304
C42	C	0.103542	-0.568045	0.189696
C43	C	-0.310418	-1.079155	-0.396631
C44	C	0.189582	-0.579155	0.103369
C45	C	-0.310428	-0.969433	-0.396644
C46	C	0.189572	-0.469433	0.103356
C47	C	-0.446147	-0.951907	-0.260483
C48	C	0.053853	-0.451907	0.239517
C49	C	-0.446134	-1.061631	-0.260466
C50	C	0.053866	-0.561631	0.239534
C51	C	-0.536255	-1.506914	-0.361243
C52	C	-0.036255	-1.006914	0.138757
C53	C	-0.614464	-1.502179	-0.364587
C54	C	-0.114464	-1.002179	0.135413
C55	C	-0.649281	-1.564438	-0.321205
C56	C	-0.149281	-1.064438	0.178795
C57	C	-0.722766	-1.559992	-0.324354
C58	C	-0.222766	-1.059992	0.175646
C59	C	-0.761433	-1.493280	-0.370882
C60	C	-0.261433	-0.993280	0.129118
C61	C	-0.726611	-1.431018	-0.414269
C62	C	-0.226611	-0.931018	0.085731
C63	C	-0.653127	-1.435471	-0.411123
C64	C	-0.153127	-0.935471	0.088877
C65	C	-0.983405	-1.476615	-0.382633
C66	C	-0.483405	-0.976615	0.117367
C67	C	-1.056894	-1.472164	-0.385774
C68	C	-0.556894	-0.972164	0.114226
C69	C	-1.053044	-1.601140	-0.295859
C70	C	-0.553044	-1.101140	0.204141
C71	C	-0.979558	-1.605582	-0.292715
C72	C	-0.479558	-1.105582	0.207285
C73	C	-0.944743	-1.543324	-0.336104
C74	C	-0.444743	-1.043324	0.163896
C75	C	-0.836548	-1.488731	-0.374100
C76	C	-0.336548	-0.988731	0.125900
C77	C	-0.869630	-1.547880	-0.332889
C78	C	-0.369630	-1.047880	0.167111
C79	C	-0.169918	-1.529579	-0.345706
C80	C	0.330082	-1.029579	0.154294
C81	C	-0.091711	-1.534423	-0.342392
C82	C	0.408289	-1.034423	0.157608
C83	C	-0.361226	-1.529468	-0.537005
C84	C	0.138774	-1.029468	-0.037005
C85	C	-0.364542	-1.534266	-0.615211
C86	C	0.135458	-1.034266	-0.115211
C87	C	-0.353458	-0.792243	-0.353502
C88	C	0.146542	-0.292243	0.146498
C89	C	-0.353458	-0.909019	-0.353490
C90	C	0.146542	-0.409019	0.146510
C91	C	-0.321099	-1.472121	-0.650039
C92	C	0.178901	-0.972121	-0.150039
C93	C	-0.324221	-1.476625	-0.723523
C94	C	0.175779	-0.976625	-0.223523
C95	C	-0.370783	-1.543280	-0.762177
C96	C	0.129217	-1.043280	-0.262177
C97	C	-0.414231	-1.605427	-0.727345
C98	C	0.085769	-1.105427	-0.227345
C99	C	-0.411112	-1.600917	-0.653862
C100	C	0.088888	-1.100917	-0.153862
C101	C	-0.382455	-1.560113	-0.984142
C102	C	0.117545	-1.060113	-0.484142
C103	C	-0.385569	-1.564621	-1.057629
C104	C	0.114431	-1.064621	-0.557629
C105	C	-0.295559	-1.435817	-1.053802
C106	C	0.204441	-0.935817	-0.553802
C107	C	-0.292441	-1.431317	-0.980318
C108	C	0.207559	-0.931317	-0.480318
C109	C	-0.335892	-1.493460	-0.945492
C110	C	0.164108	-0.993460	-0.445492
C111	C	-0.373974	-1.547887	-0.837289
C112	C	0.126026	-1.047887	-0.337289
C113	C	-0.332704	-1.488847	-0.870382
C114	C	0.167296	-0.988847	-0.370382
C115	C	-0.345640	-1.507058	-0.170671
C116	C	0.154360	-1.007058	0.329329
C117	C	-0.342126	-1.502476	-0.092456
C118	C	0.157874	-1.002476	0.407544
H119	H	-0.275397	-0.929296	-0.431790
H120	H	0.224603	-0.429296	0.068210
H121	H	-0.275384	-1.128358	-0.431764
H122	H	0.224616	-0.628358	0.068236
H123	H	-0.955063	-1.425920	-0.417961
H124	H	-0.455063	-0.925920	0.082039
H125	H	-0.838145	-1.602201	-0.295008
H126	H	-0.338145	-1.102201	0.204992
C127	C	-0.281483	-1.415535	-0.827859
C128	C	0.218517	-0.915535	-0.327859
N129	N	-0.242898	-1.360323	-0.795825
N130	N	0.257102	-0.860323	-0.295825
C131	C	-0.465610	-1.678500	-0.769874
C132	C	0.034390	-1.178500	-0.269874
N133	N	-0.504364	-1.733453	-0.801908
N134	N	-0.004364	-1.233453	-0.301908
C135	C	-0.269876	-1.398794	-0.607526
C136	C	0.230124	-0.898794	-0.107526
N137	N	-0.231296	-1.343559	-0.575507
N138	N	0.268704	-0.843559	-0.075507
C139	C	-0.520609	-1.098540	-0.283194
C140	C	-0.020609	-0.598540	0.216806
N141	N	-0.576701	-1.126340	-0.300314
N142	N	-0.076701	-0.626340	0.199686
H143	H	-1.088375	-1.417853	-0.423676
H144	H	-0.588375	-0.917853	0.076324
H145	H	-0.498768	-0.915884	-0.282122
H146	H	0.001232	-0.415884	0.217878
H147	H	-0.417843	-1.610703	-0.955795
H148	H	0.082157	-1.110703	-0.455795
H149	H	-0.411886	-1.602157	-0.868770
H150	H	0.088114	-1.102157	-0.368770
H151	H	-0.868038	-1.434412	-0.411983
H152	H	-0.368038	-0.934412	0.088017
C153	C	-0.416693	-1.104919	-0.189445
C154	C	0.083307	-0.604919	0.310555
N155	N	-0.394517	-1.137525	-0.135953
N156	N	0.105483	-0.637525	0.364047
H157	H	-0.429162	-0.919668	-0.205393
H158	H	0.070838	-0.419668	0.294607
H159	H	-0.260185	-1.385222	-1.082165
H160	H	0.239815	-0.885222	-0.582165
H161	H	-0.617803	-1.618757	-0.283313
H162	H	-0.117803	-1.118757	0.216687
C163	C	-0.769148	-1.357631	-0.465449
C164	C	-0.269148	-0.857631	0.034551
N165	N	-0.801185	-1.302349	-0.503995
N166	N	-0.301185	-0.802349	-0.003995
H167	H	-0.254527	-1.377037	-0.948850
H168	H	0.245473	-0.877037	-0.448850
C169	C	-0.761062	-1.628475	-0.276625
C170	C	-0.261062	-1.128475	0.223375
N171	N	-0.789905	-1.680059	-0.240672
N172	N	-0.289905	-1.180059	0.259328
C173	C	-0.937029	-1.678942	-0.241512
C174	C	-0.437029	-1.178942	0.258488
N175	N	-0.904996	-1.734185	-0.202936
N176	N	-0.404996	-1.234185	0.297064
C177	C	-0.614829	-1.366982	-0.458848
C178	C	-0.114829	-0.866982	0.041152
N179	N	-0.585984	-1.315396	-0.494797
N180	N	-0.085984	-0.815396	0.005203
C181	C	-0.458900	-1.669287	-0.615552
C182	C	0.041100	-1.169287	-0.115552
N183	N	-0.494897	-1.720784	-0.586698
N184	N	0.005103	-1.220784	-0.086698
C185	C	-1.091347	-1.669622	-0.248136
C186	C	-0.591347	-1.169622	0.251864
N187	N	-1.120197	-1.721207	-0.212191
N188	N	-0.620197	-1.221207	0.287809
C189	C	-0.436796	-1.637946	-1.100147
C190	C	0.063204	-1.137946	-0.600147
N191	N	-0.475378	-1.693171	-1.132173
N192	N	0.024622	-1.193171	-0.632173
H193	H	-0.288847	-1.426015	-0.751876
H194	H	0.211153	-0.926015	-0.251876
