data_functionalizedCrystal
_audit_creation_method	'MofGen! by Chris Wilmer'
_symmetry_space_group_name_H-M	'P1'
_symmetry_Int_Tables_number	1
_symmetry_cell_setting	triclinic
loop_
_symmetry_equiv_pos_as_xyz
  x,y,z
_cell_length_a	10.540510
_cell_length_b	10.489716
_cell_length_c	9.016244
_cell_angle_alpha	90.001835
_cell_angle_beta	89.992396
_cell_angle_gamma	84.521223
loop_
_atom_site_label
_atom_site_type_symbol
_atom_site_fract_x
_atom_site_fract_y
_atom_site_fract_z
O1	O	1.685921	0.179581	-0.123335
O2	O	1.316503	0.196558	-0.123335
O3	O	1.509634	0.002467	-0.123340
O4	O	1.492790	0.373671	-0.123329
O5	O	1.509606	0.002472	0.123341
O6	O	1.316475	0.196562	0.123346
O7	O	1.685892	0.179585	0.123346
Cu8	Cu	1.501181	0.188074	0.145870
Cu9	Cu	1.501215	0.188069	-0.145859
O10	O	1.492761	0.373675	0.123351
C11	C	1.269186	0.195295	0.000006
C12	C	1.128236	0.191510	0.000005
C13	C	0.910784	0.326343	-0.000558
C14	C	1.057380	0.330381	0.000007
C15	C	1.083457	0.120423	0.140866
C16	C	0.936696	0.117369	0.140975
C17	C	0.936922	0.114472	-0.139547
C18	C	1.083264	0.121059	-0.141399
C19	C	1.508354	-0.045062	-0.000004
C20	C	1.504568	-0.186693	-0.000018
C21	C	1.623002	-0.284393	-0.000004
C22	C	1.560433	-0.361742	-0.121627
C23	C	1.560377	-0.361702	0.121581
C24	C	1.442048	-0.262176	-0.121741
C25	C	1.442010	-0.262130	0.121576
C26	C	1.379354	-0.339429	-0.000076
C27	C	1.733210	0.180848	0.000002
C28	C	1.874160	0.184633	-0.000007
C29	C	1.494041	0.421205	0.000012
C30	C	1.497828	0.562835	0.000016
N31	N	1.501167	0.188077	0.351056
N32	N	1.501239	0.188056	-0.351045
C33	C	1.397537	0.291554	0.586092
C34	C	1.397767	0.291941	0.414200
C35	C	1.633892	0.218342	0.413395
C36	C	1.633327	0.219075	0.585340
C37	C	1.473388	0.053995	0.585596
C38	C	1.470343	0.054864	0.413642
H39	H	0.894388	0.158264	-0.246313
H40	H	0.867267	0.380136	0.099892
C41	C	1.374584	-0.203676	-0.260815
H42	H	1.377476	-0.113434	-0.260007
H43	H	1.288308	-0.222847	-0.261173
H44	H	1.416376	-0.238645	-0.347075
C45	C	1.147475	-0.017682	0.147958
H46	H	1.202216	-0.033250	0.064879
H47	H	1.083924	-0.076073	0.146647
H48	H	1.195805	-0.028913	0.236718
H49	H	1.086739	0.385993	-0.100971
C50	C	1.667544	0.348974	0.355218
H51	H	1.748035	0.366431	0.393556
H52	H	1.604233	0.414039	0.386245
H53	H	1.671142	0.347033	0.249952
H54	H	1.726019	-0.259740	-0.000128
C55	C	0.905618	-0.022938	0.149628
H56	H	0.982659	-0.077820	0.153073
H57	H	0.857936	-0.042748	0.064684
H58	H	0.857102	-0.034808	0.236496
C59	C	0.882344	0.183014	0.283212
H60	H	0.949988	0.211298	0.340380
H61	H	0.839308	0.123859	0.339530
H62	H	0.824221	0.254408	0.257468
H63	H	1.114301	0.169795	0.245699
C64	C	0.906997	-0.026378	-0.140850
H65	H	0.945182	-0.068275	-0.225412
H66	H	0.817333	-0.029910	-0.144473
H67	H	0.940037	-0.067849	-0.053461
C68	C	1.121936	0.190926	-0.282180
H69	H	1.165316	0.262727	-0.254911
H70	H	1.047810	0.219068	-0.337489
H71	H	1.176569	0.134087	-0.340980
H72	H	1.392046	-0.218599	0.224405
C73	C	1.627923	-0.420428	0.260491
H74	H	1.714419	-0.401944	0.260328
H75	H	1.624329	-0.510569	0.259986
H76	H	1.586706	-0.384975	0.346860
H77	H	1.610440	-0.405250	-0.224452
H78	H	1.299148	0.273733	0.372056
H79	H	1.548999	-0.023039	0.626246
H80	H	1.298610	0.273625	0.627484
H81	H	1.276259	-0.363836	-0.000141
H82	H	0.868844	0.380444	-0.101578
C83	C	1.421406	0.425160	0.644430
H84	H	1.494298	0.418141	0.706926
H85	H	1.349264	0.460021	0.699173
H86	H	1.435409	0.479739	0.563169
H87	H	1.540868	-0.025853	0.370663
C88	C	1.666222	0.351199	0.639517
H89	H	1.666172	0.352809	0.744870
H90	H	1.604601	0.415626	0.603151
H91	H	1.748204	0.366663	0.603964
H92	H	1.132329	0.019673	-0.149909
C93	C	1.095753	0.405919	0.136681
H94	H	1.021706	0.434248	0.192080
H95	H	1.137088	0.477877	0.105308
H96	H	1.152128	0.352210	0.197004
H97	H	1.415670	0.391403	0.373057
H98	H	1.712967	0.146728	0.626921
H99	H	1.712946	0.145017	0.372489
C100	C	1.345381	0.015093	0.644228
H101	H	1.330398	-0.066063	0.604666
H102	H	1.278587	0.077150	0.614800
H103	H	1.348195	0.010181	0.749404
H104	H	1.372703	0.031924	0.372899
