data_functionalizedCrystal
_audit_creation_method	'MofGen! by Chris Wilmer'
_symmetry_space_group_name_H-M	'P1'
_symmetry_Int_Tables_number	1
_symmetry_cell_setting	triclinic
loop_
_symmetry_equiv_pos_as_xyz
  x,y,z
_cell_length_a	10.654541
_cell_length_b	14.853567
_cell_length_c	9.130307
_cell_angle_alpha	90.000499
_cell_angle_beta	89.999822
_cell_angle_gamma	84.059429
loop_
_atom_site_label
_atom_site_type_symbol
_atom_site_fract_x
_atom_site_fract_y
_atom_site_fract_z
O1	O	1.666523	0.126614	-0.121741
O2	O	1.300919	0.138681	-0.121752
O3	O	1.493487	0.001470	-0.121751
O4	O	1.473955	0.263825	-0.121743
O5	O	1.493481	0.001468	0.121848
O6	O	1.300913	0.138679	0.121847
O7	O	1.666517	0.126613	0.121858
Cu8	Cu	1.483714	0.132646	0.144095
Cu9	Cu	1.483722	0.132648	-0.143989
O10	O	1.473949	0.263824	0.121856
C11	C	1.254127	0.137794	0.000045
C12	C	1.114711	0.135145	0.000040
C13	C	1.492599	-0.032124	0.000044
C14	C	1.489947	-0.132222	0.000032
C15	C	1.085036	0.299218	0.000027
C16	C	1.004702	0.380006	0.000015
C17	C	0.873710	0.377511	0.000013
C18	C	0.823050	0.294219	0.000029
C19	C	0.903383	0.213431	0.000041
C20	C	1.034377	0.215935	0.000038
C21	C	0.933059	0.049360	0.000065
C22	C	1.064051	0.051853	0.000056
C23	C	0.882399	-0.033931	0.000080
C24	C	0.962733	-0.114721	0.000082
C25	C	1.093732	-0.112223	0.000082
C26	C	1.144385	-0.028935	0.000068
C27	C	1.364347	-0.545428	0.000056
C28	C	1.593122	-0.565485	0.000063
C29	C	1.595615	-0.471438	0.000054
C30	C	1.482473	-0.414381	0.000048
C31	C	1.366837	-0.451372	0.000051
C32	C	1.711250	-0.434441	0.000066
C33	C	1.713748	-0.340388	0.000059
C34	C	1.600604	-0.283330	0.000043
C35	C	1.484963	-0.320325	0.000044
C36	C	1.371821	-0.263268	0.000039
C37	C	1.256178	-0.300262	0.000029
C38	C	1.253693	-0.394313	0.000035
C39	C	1.603089	-0.189279	0.000037
C40	C	1.374311	-0.169212	0.000035
C41	C	1.713309	0.127499	0.000057
C42	C	1.852725	0.130148	0.000052
C43	C	1.474837	0.297418	0.000058
C44	C	1.477489	0.397516	0.000061
N45	N	1.483718	0.132644	0.346718
N46	N	1.483728	0.132642	-0.346612
C47	C	1.654307	0.011180	0.346709
C48	C	1.739609	-0.049550	0.423371
C49	C	1.739622	-0.049550	0.576705
C50	C	1.654320	0.011183	0.653379
C51	C	1.569018	0.071913	0.576717
C52	C	1.569017	0.071909	0.423380
C53	C	1.398425	0.193372	0.576726
C54	C	1.398417	0.193378	0.423392
C55	C	1.313124	0.254105	0.653400
C56	C	1.227825	0.314841	0.576738
C57	C	1.227817	0.314840	0.423395
C58	C	1.313114	0.254108	0.346730
H59	H	1.191695	0.301257	-0.000004
Cl60	Cl	1.846837	-0.125901	0.326979
Cl61	Cl	1.108328	-0.440826	0.000020
Cl62	Cl	1.313117	0.254104	0.153966
H63	H	1.270193	-0.575552	0.000042
Cl64	Cl	1.068395	0.484710	-0.000006
H65	H	0.716388	0.292195	0.000045
H66	H	0.808301	0.443295	0.000013
H67	H	1.164058	-0.253794	0.000035
H68	H	1.685237	-0.611946	0.000079
Cl69	Cl	0.717722	-0.037068	0.000086
Cl70	Cl	1.654320	0.011171	0.846143
Cl71	Cl	0.899039	-0.219419	0.000114
H72	H	1.803364	-0.480903	0.000084
Cl73	Cl	1.309060	-0.025787	0.000060
Cl74	Cl	1.859123	-0.293890	0.000046
Cl75	Cl	1.120565	0.391185	0.327033
Cl76	Cl	1.846854	-0.125902	0.673083
H77	H	1.313132	0.254099	0.778252
Cl78	Cl	1.120593	0.391178	0.673132
H79	H	1.697243	-0.159163	0.000054
Cl80	Cl	1.232065	-0.097491	0.000016
H81	H	1.159134	-0.178011	0.000098
H82	H	1.654315	0.011182	0.221857
