data_functionalizedCrystal
_audit_creation_method	'MofGen! by Chris Wilmer'
_symmetry_space_group_name_H-M	'P1'
_symmetry_Int_Tables_number	1
_symmetry_cell_setting	triclinic
loop_
_symmetry_equiv_pos_as_xyz
  x,y,z
_cell_length_a	13.339070
_cell_length_b	14.044220
_cell_length_c	11.804365
_cell_angle_alpha	102.927057
_cell_angle_beta	74.875130
_cell_angle_gamma	104.409086
loop_
_atom_site_label
_atom_site_type_symbol
_atom_site_fract_x
_atom_site_fract_y
_atom_site_fract_z
O1	O	1.405383	0.472644	-0.099085
O2	O	1.105089	0.408756	-0.099076
O3	O	1.250726	0.301532	-0.099069
O4	O	1.259745	0.579868	-0.099093
O5	O	1.212382	0.329720	0.098985
O6	O	1.066744	0.436945	0.098978
O7	O	1.367038	0.500832	0.098969
Cu8	Cu	1.213390	0.471462	0.117057
Cu9	Cu	1.258737	0.438126	-0.117165
O10	O	1.221401	0.608057	0.098961
C11	C	1.047253	0.412058	-0.000048
C12	C	0.932048	0.379890	-0.000044
C13	C	1.227608	0.279274	-0.000041
C14	C	1.215837	0.170953	-0.000039
C15	C	0.589834	0.630011	-0.000084
C16	C	0.698075	0.660237	-0.000092
C17	C	0.756574	0.590153	-0.000079
C18	C	0.706820	0.489838	-0.000060
C19	C	0.598569	0.459607	-0.000062
C20	C	0.765309	0.419749	-0.000057
C21	C	0.715555	0.319434	-0.000038
C22	C	0.607315	0.289209	-0.000040
C23	C	0.548817	0.359293	-0.000052
C24	C	0.873560	0.449980	-0.000055
C25	C	0.882295	0.279576	-0.000034
C26	C	0.774054	0.249350	-0.000026
C27	C	1.194321	-0.027371	-0.000056
C28	C	1.277803	-0.063049	-0.000062
C29	C	1.265832	-0.173403	-0.000071
C30	C	1.206291	0.082993	-0.000047
C31	C	1.424874	0.497530	-0.000062
C32	C	1.540081	0.529697	-0.000074
C33	C	1.244520	0.630314	-0.000069
C34	C	1.256292	0.738634	-0.000078
N35	N	1.181503	0.494911	0.281796
N36	N	1.290631	0.414672	-0.281904
C37	C	1.367201	0.358346	0.655754
C38	C	1.391322	0.340602	0.531094
C39	C	1.338869	0.379178	0.468763
C40	C	1.262292	0.435500	0.531106
C41	C	1.238175	0.453251	0.655778
C42	C	1.209842	0.474083	0.468787
C43	C	1.133265	0.530405	0.531129
C44	C	1.109151	0.548153	0.655790
C45	C	1.161604	0.509578	0.718120
C46	C	1.233960	0.456332	0.344115
C47	C	1.104933	0.551237	0.344138
C48	C	1.080812	0.568980	0.468799
H49	H	0.914058	0.531657	-0.000066
H50	H	1.453671	0.294747	0.480339
N51	N	1.002599	0.626522	0.532468
N52	N	0.955769	0.660963	0.476815
H53	H	0.900529	0.701601	0.521780
N54	N	1.093395	-0.093026	-0.000061
N55	N	1.083692	-0.183875	-0.000067
H56	H	1.012413	-0.230255	-0.000068
H57	H	1.296309	0.410475	0.293367
N58	N	0.867134	0.621046	-0.000064
N59	N	0.897321	0.684466	0.083418
H60	H	0.975407	0.706292	0.083436
N61	N	0.556472	0.186747	-0.000007
N62	N	0.459824	0.159771	-0.000000
H63	H	0.423915	0.087408	0.000027
N64	N	1.378733	0.002611	-0.000034
N65	N	1.389463	0.074247	0.083464
H66	H	1.460740	0.120624	0.083490
H67	H	0.460677	0.334688	-0.000045
N68	N	1.030920	0.605672	0.719468
N69	N	0.950361	0.567819	0.789049
H70	H	0.895107	0.608441	0.834019
N71	N	1.420801	0.318951	0.719395
N72	N	1.519397	0.343544	0.705435
H73	H	1.557262	0.315720	0.750377
N74	N	1.363524	0.361053	0.341427
N75	N	1.431899	0.310768	0.285779
H76	H	1.449315	0.297963	0.195842
H77	H	0.738579	0.741912	-0.000116
N78	N	1.136937	0.527678	0.845462
N79	N	1.044659	0.498423	0.901101
H80	H	1.027234	0.511194	0.991038
N81	N	0.530070	0.701574	-0.000122
N82	N	0.433428	0.674565	-0.000138
H83	H	0.391218	0.725110	-0.000171
N84	N	0.723208	0.146888	-0.000002
N85	N	0.626560	0.119917	0.000003
H86	H	0.590648	0.047554	0.000021
N87	N	1.051366	0.590648	0.280465
N88	N	1.072910	0.574795	0.169158
H89	H	1.035086	0.602630	0.124180
H90	H	0.929926	0.222507	-0.000029
