data_functionalizedCrystal
_audit_creation_method	'MofGen! by Chris Wilmer'
_symmetry_space_group_name_H-M	'P1'
_symmetry_Int_Tables_number	1
_symmetry_cell_setting	triclinic
loop_
_symmetry_equiv_pos_as_xyz
  x,y,z
_cell_length_a	10.654550
_cell_length_b	10.654551
_cell_length_c	9.130313
_cell_angle_alpha	89.995303
_cell_angle_beta	89.998681
_cell_angle_gamma	84.485180
loop_
_atom_site_label
_atom_site_type_symbol
_atom_site_fract_x
_atom_site_fract_y
_atom_site_fract_z
O1	O	1.667842	0.176402	-0.121684
O2	O	1.302363	0.193208	-0.121710
O3	O	1.493505	0.002066	-0.121693
O4	O	1.476700	0.367544	-0.121701
O5	O	1.493488	0.002054	0.121906
O6	O	1.302347	0.193196	0.121889
O7	O	1.667825	0.176390	0.121915
Cu8	Cu	1.485085	0.184792	0.144144
Cu9	Cu	1.485104	0.184806	-0.143939
O10	O	1.476684	0.367532	0.121898
C11	C	1.255557	0.191968	0.000086
C12	C	1.116114	0.188276	0.000076
C13	C	1.036629	0.300818	0.000078
C14	C	0.905608	0.297341	0.000103
C15	C	0.933570	0.068772	0.000119
C16	C	1.064589	0.072249	0.000104
C17	C	1.492262	-0.044738	0.000104
C18	C	1.488570	-0.184181	0.000097
C19	C	1.486846	-0.249678	-0.132690
C20	C	1.483366	-0.380699	-0.132692
C21	C	1.483339	-0.380714	0.132893
C22	C	1.486810	-0.249695	0.132893
C23	C	1.405185	-0.550763	-0.292232
C24	C	1.403483	-0.616267	-0.425026
C25	C	1.478084	-0.582721	-0.542260
C26	C	1.554418	-0.483676	-0.526704
C27	C	1.556131	-0.418180	-0.393908
C28	C	1.481501	-0.451721	-0.276680
C29	C	1.565002	-0.079630	0.292423
C30	C	1.566724	-0.014133	0.425221
C31	C	1.492131	-0.047677	0.542467
C32	C	1.415816	-0.146729	0.526927
C33	C	1.414093	-0.212226	0.394128
C34	C	1.488684	-0.178672	0.276882
C35	C	1.714632	0.177630	0.000116
C36	C	1.854075	0.181322	0.000116
C37	C	1.477926	0.414336	0.000098
C38	C	1.481619	0.553779	0.000095
N39	N	1.485080	0.184781	0.346767
N40	N	1.485118	0.184807	-0.346562
C41	C	1.408282	0.107920	0.576809
C42	C	1.408265	0.107903	0.423472
C43	C	1.561926	0.261671	0.423406
C44	C	1.561948	0.261680	0.576740
H45	H	0.840896	0.388984	0.000108
H46	H	0.891602	-0.025693	0.000151
Br47	Br	1.106553	0.458281	0.000045
Br48	Br	1.172471	-0.080497	0.000120
Br49	Br	1.303978	0.003556	0.319481
Br50	Br	1.489230	-0.160770	-0.312912
H51	H	1.624476	0.324259	0.360941
H52	H	1.618283	-0.337541	-0.381242
Br53	Br	1.666244	0.366025	0.680747
Br54	Br	1.494489	0.041198	0.722706
Br55	Br	1.655688	-0.438172	-0.685809
H56	H	1.341323	-0.696908	-0.437682
Br57	Br	1.475792	-0.671639	-0.722468
H58	H	1.345723	0.045325	0.639252
H59	H	1.481909	-0.434072	0.241011
Br60	Br	1.670316	0.120281	0.446323
Br61	Br	1.303905	-0.596276	-0.133141
Br62	Br	1.310528	-0.346662	0.373039
Br63	Br	1.314589	-0.192272	0.686054
Br64	Br	1.666266	-0.034117	0.133310
