data_functionalizedCrystal
_audit_creation_method	'MofGen! by Chris Wilmer'
_symmetry_space_group_name_H-M	'P1'
_symmetry_Int_Tables_number	1
_symmetry_cell_setting	triclinic
loop_
_symmetry_equiv_pos_as_xyz
  x,y,z
_cell_length_a	27.354012
_cell_length_b	27.353283
_cell_length_c	27.349551
_cell_angle_alpha	60.005606
_cell_angle_beta	60.011434
_cell_angle_gamma	59.993282
loop_
_atom_site_label
_atom_site_type_symbol
_atom_site_fract_x
_atom_site_fract_y
_atom_site_fract_z
O1	O	0.067635	-0.714267	0.597330
O2	O	0.025429	-0.556105	0.481282
O3	O	0.125575	-0.656186	0.481214
O4	O	-0.032512	-0.614186	0.597397
O5	O	0.158797	-0.622968	0.514367
O6	O	0.058650	-0.522887	0.514434
O7	O	0.100856	-0.681048	0.630482
Zn8	Zn	0.085028	-0.596693	0.577722
Zn9	Zn	0.041257	-0.640460	0.534042
O10	O	0.000709	-0.580967	0.630549
N11	N	0.114901	-0.566828	0.607534
N12	N	0.011389	-0.670331	0.504229
C13	C	0.179404	-0.338196	0.672015
C14	C	0.179501	-0.502386	0.836160
C15	C	0.179415	-0.502363	0.671996
C16	C	0.343611	-0.502373	0.671960
C17	C	0.197478	-0.392371	0.690061
C18	C	0.197534	-0.484321	0.781984
C19	C	0.289434	-0.484312	0.690032
C20	C	0.197486	-0.484308	0.690051
C21	C	0.156398	-0.269238	0.649045
C22	C	0.156418	-0.525342	0.649015
C23	C	0.220484	-0.461329	0.713032
C24	C	0.443889	-0.485097	0.619172
C25	C	0.506571	-0.505993	0.598266
C26	C	0.506589	-0.607412	0.636940
C27	C	0.443909	-0.586515	0.657848
C28	C	0.171510	-0.237888	0.587422
C29	C	0.150593	-0.175201	0.566543
C30	C	0.099458	-0.175218	0.668913
C31	C	0.120375	-0.237905	0.689792
C32	C	0.094789	-0.510201	0.664176
C33	C	0.073888	-0.531091	0.643278
C34	C	0.176239	-0.582263	0.592072
C35	C	0.197142	-0.561373	0.612963
C36	C	0.094933	-0.510244	0.936476
C37	C	0.074073	-0.531151	0.999161
C38	C	0.176453	-0.582335	0.999126
C39	C	0.197312	-0.561429	0.936439
C40	C	0.156551	-0.525382	0.905116
C41	C	0.412561	-0.525357	0.648961
C42	C	-0.098513	-0.688235	0.485867
C43	C	-0.006461	-0.688368	0.394066
C44	C	-0.006645	-0.780264	0.486040
C45	C	-0.006630	-0.688361	0.486097
C46	C	-0.029562	-0.711308	0.463018
N47	N	0.537030	-0.566846	0.607436
O48	O	0.741877	-0.576849	0.459995
O49	O	0.742050	-0.693241	0.618010
O50	O	0.741986	-0.692977	0.517791
O51	O	0.741941	-0.577114	0.560214
O52	O	0.642405	-0.659839	0.551046
O53	O	0.642469	-0.660104	0.651265
O54	O	0.642296	-0.543712	0.493251
Zn55	Zn	0.626572	-0.596646	0.577538
Zn56	Zn	0.757774	-0.640307	0.533723
O57	O	0.642360	-0.543976	0.593469
N58	N	0.847316	-0.670107	0.503818
N59	N	0.114877	-0.144758	0.607577
O60	O	-0.032498	0.060193	0.597441
O61	O	0.125523	0.060193	0.481067
O62	O	0.025289	0.060179	0.481345
O63	O	0.067736	0.060207	0.597163
O64	O	0.058511	-0.039410	0.514543
O65	O	0.158745	-0.039397	0.514265
O66	O	0.000724	-0.039396	0.630638
Zn67	Zn	0.085009	-0.055208	0.577722
Zn68	Zn	0.041238	0.076005	0.533983
O69	O	0.100958	-0.039382	0.630360
N70	N	0.011362	0.165555	0.504130
N71	N	0.115121	-0.566884	1.029592
O72	O	0.104990	-0.714248	1.234528
O73	O	-0.011371	-0.556177	1.234539
O74	O	-0.011103	-0.656395	1.234497
O75	O	0.104722	-0.614030	1.234569
O76	O	0.022090	-0.623190	1.134913
O77	O	0.021822	-0.522972	1.134954
O78	O	0.138182	-0.681044	1.134943
Zn79	Zn	0.085272	-0.596736	1.119137
Zn80	Zn	0.041539	-0.640484	1.250344
O81	O	0.137914	-0.580826	1.134984
N82	N	0.011689	-0.670343	1.339890
C83	C	0.038085	-0.519567	0.481870
C84	C	0.162104	-0.643505	0.481786
C85	C	0.088200	-0.717587	0.629893
C86	C	-0.035819	-0.593649	0.629977
C87	C	0.692280	-0.692701	0.654545
C88	C	0.692203	-0.692374	0.530435
C89	C	0.692063	-0.544251	0.456717
C90	C	0.692144	-0.544580	0.580825
C91	C	0.162000	0.010521	0.481600
C92	C	0.037914	0.010381	0.481984
C93	C	-0.035795	0.010399	0.630065
C94	C	0.088333	0.010415	0.629722
C95	C	-0.010799	-0.519660	1.184747
C96	C	-0.010461	-0.643761	1.184677
C97	C	0.137610	-0.717561	1.184734
C98	C	0.137280	-0.593452	1.184783
H99	H	0.061737	-0.480889	0.910978
C100	C	-0.059599	-0.655976	1.184591
H101	H	-0.094445	-0.621352	1.184581
H102	H	-0.045742	-0.665470	1.149845
H103	H	-0.068934	-0.688637	1.219304
H104	H	0.173667	-0.584388	1.184797
C105	C	0.025914	-0.458194	0.432629
H106	H	0.060550	-0.458036	0.397810
H107	H	-0.006740	-0.450925	0.423287
H108	H	0.016434	-0.427758	0.446410
H109	H	0.692323	-0.729239	0.699929
C110	C	-0.060152	-0.458333	1.184752
H111	H	-0.045693	-0.433181	1.184773
H112	H	-0.071031	-0.440411	1.150018
H113	H	-0.094178	-0.463574	1.219477
H114	H	0.174144	-0.762957	1.184724
C115	C	0.223439	-0.655594	0.432493
H116	H	0.223541	-0.620931	0.397694
H117	H	0.253895	-0.665071	0.446242
H118	H	0.230713	-0.688236	0.423125
C119	C	0.006292	-0.514486	1.033649
H120	H	-0.014992	-0.490018	1.006013
H121	H	-0.003979	-0.549928	1.058100
H122	H	-0.003971	-0.493221	1.058105
H123	H	0.097215	-0.763020	0.666340
C124	C	-0.097100	0.010400	0.679423
H125	H	-0.122269	0.010397	0.664964
H126	H	-0.091843	-0.024325	0.713452
H127	H	-0.115015	0.045138	0.690295
C128	C	0.221288	-0.621974	1.033582
H129	H	0.200041	-0.632254	1.075405
H130	H	0.245746	-0.657417	1.023298
H131	H	0.245733	-0.600700	1.023306
C132	C	0.265094	-0.578079	0.901947
H133	H	0.286380	-0.602534	0.929581
H134	H	0.275367	-0.599343	0.877488
H135	H	0.275354	-0.542628	0.877499
H136	H	0.061625	-0.480862	0.693528
C137	C	0.541036	-0.461708	0.565493
H138	H	0.513390	-0.422290	0.563189
H139	H	0.565506	-0.472195	0.586840
H140	H	0.565469	-0.463311	0.526219
C141	C	0.223169	0.010924	0.432106
H142	H	0.223184	0.011000	0.397324
H143	H	0.230257	0.045741	0.422802
H144	H	0.253800	-0.023720	0.445655
H145	H	0.028825	0.010378	0.445599
C146	C	-0.097158	-0.581559	0.679266
H147	H	-0.122276	-0.541921	0.664739
H148	H	-0.115105	-0.609229	0.690173
H149	H	-0.091932	-0.586058	0.713292
H150	H	0.023705	-0.518748	0.655609
C151	C	0.100605	0.010422	0.678876
H152	H	0.140256	0.010420	0.664241
H153	H	0.072983	0.045152	0.689782
H154	H	0.096157	-0.024311	0.712931
H155	H	0.247325	-0.573698	0.600612
C156	C	0.221040	-0.621900	0.552418
H157	H	0.260737	-0.627922	0.546381
H158	H	0.215029	-0.659472	0.571551
H159	H	0.214997	-0.602749	0.514849
C160	C	0.692123	-0.495408	0.593085
H161	H	0.692153	-0.510044	0.632732
H162	H	0.726824	-0.484478	0.565451
H163	H	0.657367	-0.461368	0.588648
H164	H	0.692221	-0.728771	0.521355
H165	H	0.692005	-0.507708	0.411338
H166	H	0.418403	-0.619300	0.682106
H167	H	0.418366	-0.435297	0.611936
C168	C	0.541071	-0.674683	0.646711
H169	H	0.513435	-0.695669	0.667451
H170	H	0.565509	-0.680497	0.609047
H171	H	0.565537	-0.689388	0.669675
H172	H	0.162897	-0.149674	0.516363
C173	C	0.211130	-0.272351	0.542599
H174	H	0.217126	-0.244700	0.502907
H175	H	0.248711	-0.296804	0.548606
H176	H	0.191988	-0.296804	0.548627
H177	H	0.070133	-0.149706	0.702094
H178	H	0.108067	-0.263426	0.739970
