data_functionalizedCrystal
_audit_creation_method	'MofGen! by Chris Wilmer'
_symmetry_space_group_name_H-M	'P1'
_symmetry_Int_Tables_number	1
_symmetry_cell_setting	triclinic
loop_
_symmetry_equiv_pos_as_xyz
  x,y,z
_cell_length_a	17.699077
_cell_length_b	14.853576
_cell_length_c	16.776229
_cell_angle_alpha	89.994410
_cell_angle_beta	89.993415
_cell_angle_gamma	83.459530
loop_
_atom_site_label
_atom_site_type_symbol
_atom_site_fract_x
_atom_site_fract_y
_atom_site_fract_z
O1	O	1.004380	0.113982	-0.066276
O2	O	0.784040	0.128820	-0.066279
O3	O	0.900092	-0.009850	-0.066274
O4	O	0.888328	0.252652	-0.066281
O5	O	0.900077	-0.009858	0.066302
O6	O	0.784025	0.128812	0.066297
O7	O	1.004365	0.113974	0.066301
Zn8	Zn	0.894192	0.121391	0.087348
Zn9	Zn	0.894213	0.121403	-0.087327
O10	O	0.888312	0.252644	0.066296
C11	C	0.755834	0.128285	0.000008
C12	C	0.671811	0.126693	0.000007
C13	C	0.632334	0.125938	0.072275
C14	C	0.553387	0.124427	0.072276
C15	C	0.513919	0.123678	0.000008
C16	C	0.553403	0.124431	-0.072266
C17	C	0.632348	0.125935	-0.072266
C18	C	0.235023	0.118364	-0.072267
C19	C	0.156072	0.116862	-0.072262
C20	C	0.156062	0.116857	0.072275
C21	C	0.235008	0.118361	0.072275
C22	C	0.274485	0.119108	0.000001
C23	C	0.360088	0.120744	0.000001
C24	C	0.428317	0.122049	0.000007
C25	C	0.899550	-0.043441	0.000013
C26	C	0.897949	-0.143518	0.000010
C27	C	0.897204	-0.190526	-0.072261
C28	C	0.897196	-0.190548	0.072279
C29	C	0.895696	-0.284577	0.072279
C30	C	0.894951	-0.331584	0.000008
C31	C	0.895706	-0.284563	-0.072263
C32	C	0.894949	-0.331606	0.144549
C33	C	0.893449	-0.425641	0.144552
C34	C	0.892699	-0.472649	0.072280
C35	C	0.893453	-0.425622	0.000006
C36	C	0.892708	-0.472629	-0.072265
C37	C	0.893457	-0.425603	-0.144540
C38	C	0.894956	-0.331572	-0.144535
C39	C	0.891200	-0.566681	0.072275
C40	C	0.891210	-0.566667	-0.072267
C41	C	1.032571	0.114509	0.000011
C42	C	1.116593	0.116101	0.000007
C43	C	0.888854	0.286235	0.000007
C44	C	0.890455	0.386312	0.000004
N45	N	0.894184	0.121383	0.206559
N46	N	0.894227	0.121404	-0.206538
C47	C	0.945587	0.060005	0.248279
C48	C	0.945592	0.060004	0.331731
C49	C	0.894195	0.121387	0.373462
C50	C	0.842786	0.182768	0.331737
C51	C	0.842779	0.182763	0.248287
C52	C	0.842814	0.182785	0.668284
C53	C	0.842826	0.182787	0.751741
C54	C	0.945626	0.060026	0.751729
C55	C	0.945619	0.060022	0.668278
C56	C	0.894208	0.121399	0.626560
C57	C	0.894203	0.121398	0.536072
C58	C	0.894203	0.121393	0.463949
H59	H	0.521249	0.123798	0.131124
H60	H	0.987486	0.010047	0.785704
H61	H	0.895561	-0.293327	0.203388
O62	O	0.892684	-0.471172	0.214827
C63	C	0.892876	-0.461269	0.358193
C64	C	0.893730	-0.409590	0.278665
H65	H	0.893737	-0.411505	0.409827
H66	H	0.839234	-0.496899	0.361862
H67	H	0.945084	-0.513682	0.361762
H68	H	0.841559	-0.357133	0.275043
H69	H	0.947406	-0.374022	0.275030
H70	H	0.890593	-0.604965	0.131120
O71	O	0.892699	-0.471404	-0.214671
C72	C	0.890451	-0.616276	-0.278717
C73	C	0.891289	-0.564512	-0.199241
H74	H	0.889327	-0.691565	-0.266270
H75	H	0.837806	-0.589497	-0.314365
H76	H	0.943659	-0.606089	-0.314361
H77	H	0.838117	-0.574677	-0.163533
H78	H	0.943968	-0.591301	-0.163653
O79	O	0.117810	0.116000	0.142535
C80	C	0.102116	0.037435	0.266059
C81	C	0.145504	0.038301	0.186531
H82	H	0.124478	-0.025388	0.301645
H83	H	0.110791	0.100756	0.301748
H84	H	0.038911	0.036272	0.253631
H85	H	0.208722	0.039433	0.198886
H86	H	0.136766	-0.025016	0.150866
O87	O	0.897783	-0.144819	0.142454
C88	C	0.833968	-0.028254	0.226298
C89	C	0.833205	-0.079996	0.146804
H90	H	0.781772	0.024179	0.229834
H91	H	0.833120	-0.077957	0.277990
H92	H	0.887618	0.007364	0.229897
H93	H	0.779565	-0.115617	0.143128
H94	H	0.834094	-0.030251	0.095150
H95	H	0.800934	0.232743	0.365720
H96	H	0.267138	0.118975	0.131123
H97	H	0.895569	-0.293275	-0.203377
O98	O	0.117853	0.116092	-0.142539
C99	C	0.126184	0.116300	-0.285906
C100	C	0.169563	0.117151	-0.206381
H101	H	0.167971	0.117175	-0.337543
H102	H	0.096106	0.052517	-0.289565
H103	H	0.082345	0.178651	-0.289478
H104	H	0.213439	0.054844	-0.202756
H105	H	0.199590	0.180975	-0.202756
H106	H	0.987443	0.010024	0.214307
O107	O	0.897837	-0.144734	-0.142414
C108	C	0.833994	-0.028247	-0.226321
C109	C	0.833191	-0.080021	-0.146837
H110	H	0.781726	0.024072	-0.229931
H111	H	0.887586	0.007482	-0.229946
H112	H	0.833244	-0.078022	-0.277961
H113	H	0.833913	-0.030308	-0.095153
H114	H	0.779604	-0.115765	-0.143283
H115	H	0.267157	0.118969	-0.131117
H116	H	0.521262	0.123814	-0.131108
H117	H	0.664490	0.126551	-0.131114
H118	H	0.987448	0.010025	0.365699
O119	O	0.792915	0.242331	0.627643
C120	C	0.747382	0.296799	0.499091
C121	C	0.803918	0.229290	0.545022
H122	H	0.756268	0.286291	0.432284
H123	H	0.686733	0.285157	0.515453
H124	H	0.757325	0.368978	0.515543
H125	H	0.794044	0.157084	0.528595
H126	H	0.864547	0.241011	0.528656
O127	O	0.890584	-0.612437	-0.142425
C128	C	0.954435	-0.728891	-0.226355
C129	C	0.955231	-0.677147	-0.146864
H130	H	1.006704	-0.781208	-0.229977
H131	H	0.900844	-0.764620	-0.229978
H132	H	0.955189	-0.679098	-0.277988
H133	H	0.954505	-0.726880	-0.095186
H134	H	1.008817	-0.641404	-0.143310
O135	O	0.670557	0.126622	0.142549
C136	C	0.662201	0.126503	0.285915
C137	C	0.618824	0.125710	0.206386
H138	H	0.620391	0.125784	0.337547
H139	H	0.706004	0.064124	0.289584
H140	H	0.692321	0.190259	0.289486
H141	H	0.588658	0.061995	0.202761
H142	H	0.575064	0.188131	0.202750
O143	O	0.995573	0.000308	0.627865
C144	C	1.097568	-0.121427	0.636663
C145	C	1.041026	-0.053860	0.682528
H146	H	1.134341	-0.165227	0.680838
H147	H	1.064879	-0.166479	0.597629
H148	H	1.135378	-0.082546	0.597556
H149	H	1.003201	-0.092667	0.721677
H150	H	1.073761	-0.008809	0.721511
O151	O	0.792819	0.242445	0.792157
C152	C	0.690870	0.364235	0.783367
C153	C	0.747445	0.296712	0.737497
H154	H	0.654181	0.408140	0.739195
H155	H	0.652981	0.325408	0.822430
H156	H	0.723606	0.409188	0.822444
H157	H	0.714770	0.251741	0.698377
H158	H	0.785334	0.335595	0.698485
O159	O	0.792819	0.242475	0.207881
C160	C	0.690822	0.364206	0.216695
C161	C	0.747376	0.296647	0.262551
H162	H	0.654056	0.408008	0.260876
H163	H	0.723499	0.409255	0.177633
H164	H	0.653005	0.325318	0.177618
H165	H	0.785207	0.335461	0.301671
H166	H	0.714651	0.251598	0.301563
