data_functionalizedCrystal
_audit_creation_method	'MofGen! by Chris Wilmer'
_symmetry_space_group_name_H-M	'P1'
_symmetry_Int_Tables_number	1
_symmetry_cell_setting	triclinic
loop_
_symmetry_equiv_pos_as_xyz
  x,y,z
_cell_length_a	21.295419
_cell_length_b	21.295417
_cell_length_c	19.805399
_cell_angle_alpha	89.969157
_cell_angle_beta	89.981377
_cell_angle_gamma	90.045308
loop_
_atom_site_label
_atom_site_type_symbol
_atom_site_fract_x
_atom_site_fract_y
_atom_site_fract_z
Zn1	Zn	0.962319	-0.250375	-0.382687
Zn2	Zn	0.962232	-0.355644	-0.269493
Zn3	Zn	0.857053	-0.250420	-0.269514
Zn4	Zn	0.857011	-0.355638	-0.382641
O5	O	0.909654	-0.303019	-0.326084
O6	O	1.050397	-0.264323	-0.367682
O7	O	0.948261	-0.341707	-0.174779
O8	O	0.871070	-0.162324	-0.284555
O9	O	1.050333	-0.341664	-0.284519
O10	O	0.948409	-0.162292	-0.367703
O11	O	0.870986	-0.264399	-0.174794
O12	O	0.768958	-0.264393	-0.284510
O13	O	0.871000	-0.341653	-0.477364
O14	O	0.768928	-0.341696	-0.367624
O15	O	0.948369	-0.264317	-0.477398
O16	O	0.948221	-0.443733	-0.284474
O17	O	0.870916	-0.443728	-0.367604
C18	C	0.746102	-0.303049	-0.326065
C19	C	0.676134	-0.303077	-0.326073
C20	C	0.909571	-0.466571	-0.326046
C21	C	0.909594	-0.536539	-0.326053
C22	C	0.643323	-0.262872	-0.369443
C23	C	0.577581	-0.262855	-0.369446
C24	C	0.544652	-0.303055	-0.326085
C25	C	0.577470	-0.343263	-0.282706
C26	C	0.643212	-0.343274	-0.282700
N27	N	0.441377	-0.358133	-0.320795
N28	N	0.378925	-0.358120	-0.320805
C29	C	0.346577	-0.303022	-0.326100
N30	N	0.379039	-0.247936	-0.331398
N31	N	0.441496	-0.247949	-0.331392
C32	C	0.473366	-0.303047	-0.326087
C33	C	0.242480	-0.262795	-0.369475
C34	C	0.176737	-0.262777	-0.369473
C35	C	0.176628	-0.343191	-0.282738
C36	C	0.242370	-0.343203	-0.282736
C37	C	0.275293	-0.303006	-0.326109
C38	C	0.949882	-0.569387	-0.282811
C39	C	0.949912	-0.635130	-0.282827
C40	C	0.909641	-0.668021	-0.326076
C41	C	0.869350	-0.635165	-0.369326
C42	C	0.869326	-0.569424	-0.369314
N43	N	0.854574	-0.771301	-0.331230
N44	N	0.854598	-0.833753	-0.331237
C45	C	0.909712	-0.866096	-0.326115
N46	N	0.964801	-0.833629	-0.320972
N47	N	0.964776	-0.771171	-0.320962
C48	C	0.909663	-0.739307	-0.326094
C49	C	0.950036	-0.970230	-0.282888
C50	C	0.950066	-1.035973	-0.282908
C51	C	0.869499	-1.036008	-0.369403
C52	C	0.869474	-0.970265	-0.369387
C53	C	0.909742	-0.937380	-0.326126
C54	C	1.073844	-0.302989	-0.326103
C55	C	1.143812	-0.302977	-0.326111
C56	C	0.909689	-0.302980	-0.502626
C57	C	0.909704	-0.302963	-0.577859
C58	C	0.909754	-0.138829	-0.326136
C59	C	0.909796	-0.068861	-0.326158
C60	C	0.949991	-0.262692	-0.613221
C61	C	0.949998	-0.262674	-0.683910
C62	C	0.909720	-0.302930	-0.719234
C63	C	0.869428	-0.343202	-0.683866
C64	C	0.869419	-0.343217	-0.613179
C65	C	0.869464	-0.343144	-0.968940
C66	C	0.869478	-0.343127	-1.039632
C67	C	0.950042	-0.262600	-1.039671
C68	C	0.950033	-0.262615	-0.968983
C69	C	0.909740	-0.302885	-0.933622
C70	C	0.909732	-0.302903	-0.856973
C71	C	0.909730	-0.302915	-0.795881
C72	C	0.909655	-0.303013	-0.150228
C73	C	0.909762	-0.302853	-0.074996
H74	H	0.670124	-0.230140	-0.404760
H75	H	0.982849	-0.229808	-1.068470
H76	H	0.982792	-0.229912	-0.584465
O77	O	0.830154	-0.537443	-0.411224
C78	C	0.789492	-0.499503	-0.372640
H79	H	0.811717	-0.489664	-0.321365
H80	H	0.742856	-0.524899	-0.365164
C81	C	0.750753	-0.449127	-0.472831
C82	C	0.778053	-0.437038	-0.409856
H83	H	0.743694	-0.410596	-0.495788
H84	H	0.778146	-0.474689	-0.498827
H85	H	0.711893	-0.470292	-0.466592
H86	H	0.816916	-0.415881	-0.416096
H87	H	0.750666	-0.411470	-0.383862
H88	H	0.550861	-0.230112	-0.404762
O89	O	0.144833	-0.223653	-0.411509
C90	C	0.106820	-0.182948	-0.373063
H91	H	0.126617	-0.178991	-0.319762
H92	H	0.056976	-0.202399	-0.370692
C93	C	0.081569	-0.122412	-0.471736
C94	C	0.105887	-0.117548	-0.406272
H95	H	0.080991	-0.082071	-0.492222
H96	H	0.107177	-0.149837	-0.497639
H97	H	0.040034	-0.138624	-0.469751
H98	H	0.147423	-0.101344	-0.408258
H99	H	0.080286	-0.090118	-0.380370
O100	O	0.144622	-0.382310	-0.240713
C101	C	0.106557	-0.422997	-0.279170
H102	H	0.126383	-0.426952	-0.332470
H103	H	0.056752	-0.403529	-0.281542
C104	C	0.081123	-0.483539	-0.180510
C105	C	0.105477	-0.488401	-0.245973
H106	H	0.080454	-0.523883	-0.160032
H107	H	0.106766	-0.456126	-0.154600
H108	H	0.039621	-0.467313	-0.182496
H109	H	0.146981	-0.504619	-0.243985
H110	H	0.079841	-0.515819	-0.271881
H111	H	0.982672	-0.542614	-0.247587
H112	H	0.269085	-0.375945	-0.247422
H113	H	0.982878	-1.062717	-0.247697
O114	O	0.989067	-0.666950	-0.240754
C115	C	1.024615	-0.623827	-0.202582
H116	H	0.998819	-0.576994	-0.200207
H117	H	1.072411	-0.616768	-0.227407
C118	C	1.065409	-0.707045	-0.133474
C119	C	1.033724	-0.649524	-0.130553
H120	H	1.071031	-0.722896	-0.089044
H121	H	1.041462	-0.736098	-0.159192
H122	H	1.105236	-0.701154	-0.154165
H123	H	0.993895	-0.655417	-0.109870
H124	H	1.057664	-0.620473	-0.104829
H125	H	0.982826	-0.943454	-0.247664
O126	O	0.830402	-1.068048	-0.411355
C127	C	0.839076	-1.133118	-0.402110
H128	H	0.859722	-1.142109	-0.349896
H129	H	0.872586	-1.151705	-0.442293
C130	C	0.750037	-1.155899	-0.472391
C131	C	0.775390	-1.166943	-0.408259
H132	H	0.710753	-1.176765	-0.476187
H133	H	0.744194	-1.112061	-0.478623
H134	H	0.777968	-1.171389	-0.505870
H135	H	0.747463	-1.151446	-0.374783
H136	H	0.781226	-1.210779	-0.402023
H137	H	0.982805	-0.229883	-0.712699
H138	H	0.836665	-0.943519	-0.404595
O139	O	0.989179	-0.223450	-0.934775
C140	C	1.024750	-0.187911	-0.981146
H141	H	0.998975	-0.185726	-1.031531
H142	H	1.072546	-0.210952	-0.988664
C143	C	1.065513	-0.123602	-0.891698
C144	C	1.033854	-0.120914	-0.953580
H145	H	1.071133	-0.082276	-0.874694
H146	H	1.041550	-0.147547	-0.860456
H147	H	1.105341	-0.142805	-0.897971
H148	H	0.994025	-0.101719	-0.947305
H149	H	1.057811	-0.096965	-0.984820
O150	O	0.830287	-0.382252	-1.073843
C151	C	0.794730	-0.417809	-1.027475
H152	H	0.792558	-0.392037	-0.977094
H153	H	0.817747	-0.465617	-1.019945
C154	C	0.730401	-0.458533	-1.116931
C155	C	0.727729	-0.426877	-1.055054
H156	H	0.689072	-0.464130	-1.133944
H157	H	0.754357	-0.434580	-1.148171
H158	H	0.749584	-0.498370	-1.110648
H159	H	0.708553	-0.387038	-1.061340
H160	H	0.703767	-0.450824	-1.023816
H161	H	0.836664	-0.375943	-0.940157
H162	H	0.550656	-0.375993	-0.247401
O163	O	0.830318	-0.667183	-0.411371
C164	C	0.866148	-0.705130	-0.455138
H165	H	0.913869	-0.714940	-0.431314
H166	H	0.873029	-0.679755	-0.505301
C167	C	0.772916	-0.755562	-0.496631
C168	C	0.831526	-0.767614	-0.467367
H169	H	0.751559	-0.794104	-0.504177
H170	H	0.748776	-0.729994	-0.467146
H171	H	0.778659	-0.734414	-0.538429
H172	H	0.825783	-0.788754	-0.425565
H173	H	0.855664	-0.793186	-0.496845
H174	H	0.836631	-0.375977	-0.712633
H175	H	0.836607	-0.376003	-0.584388
H176	H	0.669926	-0.376015	-0.247382
H177	H	0.269287	-0.230060	-0.404787
