data_functionalizedCrystal
_audit_creation_method	'MofGen! by Chris Wilmer'
_symmetry_space_group_name_H-M	'P1'
_symmetry_Int_Tables_number	1
_symmetry_cell_setting	triclinic
loop_
_symmetry_equiv_pos_as_xyz
  x,y,z
_cell_length_a	8.559649
_cell_length_b	14.044220
_cell_length_c	7.088929
_cell_angle_alpha	83.206932
_cell_angle_beta	95.325015
_cell_angle_gamma	81.483771
loop_
_atom_site_label
_atom_site_type_symbol
_atom_site_fract_x
_atom_site_fract_y
_atom_site_fract_z
O1	O	2.100735	-0.021003	-0.158955
O2	O	2.600735	0.478997	0.341045
O3	O	1.642435	0.027448	-0.158968
O4	O	2.142435	0.527448	0.341032
O5	O	1.864708	-0.134262	-0.158943
O6	O	2.364708	0.365738	0.341057
O7	O	1.878463	0.140708	-0.158981
O8	O	2.378463	0.640708	0.341019
O9	O	1.894406	-0.155917	0.159035
O10	O	2.394406	0.344083	0.659035
O11	O	1.672134	0.005793	0.159010
O12	O	2.172134	0.505793	0.659010
O13	O	2.130433	-0.042657	0.159023
O14	O	2.630433	0.457343	0.659023
Cu15	Cu	1.903995	-0.020409	0.188051
Cu16	Cu	2.403995	0.479591	0.688051
Cu17	Cu	1.868874	0.005200	-0.187996
Cu18	Cu	2.368874	0.505200	0.312004
O19	O	1.908161	0.119053	0.158998
O20	O	2.408161	0.619053	0.658998
C21	C	1.598278	0.020292	0.000019
C22	C	2.098278	0.520292	0.500019
C23	C	1.422455	0.031222	0.000015
C24	C	1.922455	0.531222	0.500015
C25	C	1.873535	-0.179966	0.000047
C26	C	2.373535	0.320034	0.500047
C27	C	1.855571	-0.283884	0.000048
C28	C	2.355571	0.216116	0.500048
C29	C	1.822727	-0.474153	0.000020
C30	C	2.322727	0.025847	0.500020
C31	C	1.950133	-0.541060	0.000018
C32	C	2.450133	-0.041060	0.500018
C33	C	1.931858	-0.646933	0.000002
C34	C	2.431858	-0.146933	0.500002
C35	C	1.841000	-0.368270	0.000036
C36	C	2.341000	0.131730	0.500036
C37	C	2.174590	-0.035501	0.000031
C38	C	2.674590	0.464499	0.500031
C39	C	2.350412	-0.046430	0.000023
C40	C	2.850412	0.453570	0.500023
C41	C	1.899334	0.164757	0.000004
C42	C	2.399334	0.664757	0.500004
C43	C	1.917296	0.268676	-0.000011
C44	C	2.417296	0.768676	0.499989
N45	N	1.928709	-0.038422	0.452541
N46	N	2.428709	0.461578	0.952541
N47	N	1.844171	0.023205	-0.452487
N48	N	2.344171	0.523205	0.047513
H49	H	1.423242	-0.121272	0.000024
H50	H	1.923242	0.378728	0.500024
C51	C	1.163149	0.123905	-0.000004
C52	C	1.663149	0.623905	0.499996
C53	C	1.324140	0.132267	-0.000001
C54	C	1.824140	0.632267	0.499999
H55	H	1.102458	0.186285	-0.000002
H56	H	1.602458	0.686285	0.499998
H57	H	1.128547	0.097441	-0.110881
H58	H	1.628547	0.597441	0.389119
H59	H	1.149260	0.082330	0.110893
H60	H	1.649260	0.582330	0.610893
H61	H	1.338030	0.173837	-0.110905
H62	H	1.838030	0.673837	0.389095
H63	H	1.358753	0.158745	0.110888
H64	H	1.858753	0.658745	0.610888
H65	H	1.699936	-0.496383	0.000012
H66	H	2.199936	0.003617	0.500012
C67	C	1.769065	0.196560	0.485514
C68	C	2.269065	0.696560	0.985514
C69	C	1.725885	0.109421	0.437291
C70	C	2.225885	0.609421	0.937291
H71	H	1.696043	0.249786	0.417448
H72	H	2.196043	0.749786	0.917448
H73	H	1.767377	0.197787	0.618992
H74	H	2.267377	0.697787	1.118992
H75	H	1.873054	0.201210	0.452774
H76	H	2.373054	0.701210	0.952774
H77	H	1.621900	0.104767	0.470044
H78	H	2.121900	0.604767	0.970044
H79	H	1.727557	0.108193	0.303782
H80	H	2.227557	0.608193	0.803782
H81	H	2.016343	-0.102285	0.534207
H82	H	2.516343	0.397715	1.034207
H83	H	2.072921	-0.518820	-0.000107
H84	H	2.572921	-0.018820	0.499893
