data_functionalizedCrystal
_audit_creation_method	'MofGen! by Chris Wilmer'
_symmetry_space_group_name_H-M	'P1'
_symmetry_Int_Tables_number	1
_symmetry_cell_setting	triclinic
loop_
_symmetry_equiv_pos_as_xyz
  x,y,z
_cell_length_a	14.908783
_cell_length_b	14.908178
_cell_length_c	14.908308
_cell_angle_alpha	90.221621
_cell_angle_beta	90.211273
_cell_angle_gamma	96.402596
loop_
_atom_site_label
_atom_site_type_symbol
_atom_site_fract_x
_atom_site_fract_y
_atom_site_fract_z
Zn1	Zn	1.328235	-0.315439	0.568627
Zn2	Zn	1.329145	-0.457100	0.409643
Zn3	Zn	1.186601	-0.314463	0.409657
Zn4	Zn	1.169235	-0.474370	0.550213
O5	O	1.253304	-0.390343	0.484535
O6	O	1.454552	-0.327412	0.555237
O7	O	1.317884	-0.430543	0.284287
O8	O	1.212275	-0.188386	0.438457
O9	O	1.455221	-0.431489	0.438433
O10	O	1.316333	-0.189103	0.555251
O11	O	1.213158	-0.325749	0.284297
O12	O	1.058100	-0.342494	0.420603
O13	O	1.182678	-0.460923	0.678014
O14	O	1.045342	-0.459977	0.523868
O15	O	1.299495	-0.344158	0.691543
O16	O	1.301046	-0.585597	0.420578
O17	O	1.183561	-0.598285	0.523854
C18	C	1.018999	-0.403004	0.470239
C19	C	0.918760	-0.408444	0.464144
C20	C	0.729683	-0.310458	0.574483
C21	C	0.635500	-0.315566	0.568758
C22	C	0.636209	-0.423762	0.446966
C23	C	0.730392	-0.418654	0.452691
C24	C	0.777126	-0.362001	0.516452
C25	C	0.871311	-0.356899	0.522180
C26	C	0.872019	-0.465090	0.400385
C27	C	0.777835	-0.470197	0.394660
C28	C	1.240541	-0.624665	0.470237
C29	C	1.235162	-0.724907	0.464156
C30	C	1.333314	-0.913880	0.574463
C31	C	1.328262	-1.008065	0.568752
C32	C	1.220003	-1.007466	0.447028
C33	C	1.225054	-0.913280	0.452739
C34	C	1.281713	-0.866490	0.516458
C35	C	1.286768	-0.772302	0.522164
C36	C	1.178505	-0.771705	0.400444
C37	C	1.173453	-0.865891	0.394733
C38	C	1.488523	-0.377633	0.498887
C39	C	1.588759	-0.372217	0.505003
C40	C	1.239048	-0.404576	0.718191
C41	C	1.232973	-0.410641	0.817762
C42	C	1.266140	-0.155106	0.498910
C43	C	1.271610	-0.054862	0.505035
C44	C	1.267560	-0.376098	0.251795
C45	C	1.273823	-0.369770	0.152251
C46	C	1.343196	-0.300429	1.018955
C47	C	1.337491	-0.306124	1.112510
C48	C	1.215854	-0.427722	1.098430
C49	C	1.221559	-0.422026	1.004875
C50	C	1.285233	-0.358379	0.965140
C51	C	1.290942	-0.352688	0.871583
C52	C	1.169301	-0.474281	0.857505
C53	C	1.163596	-0.479976	0.951060
H54	H	0.767734	-0.264333	0.626403
H55	H	1.379454	-0.875782	0.626340
H56	H	1.173870	-1.045579	0.395155
C57	C	0.584787	-0.486068	0.376828
N58	N	0.546054	-0.532996	0.323999
H59	H	1.111753	-0.531795	0.983425
C60	C	0.924213	-0.521793	0.336548
N61	N	0.963527	-0.564502	0.288469
H62	H	1.342790	-0.300864	0.839233
H63	H	1.395047	-0.248609	0.986603
H64	H	0.739772	-0.516320	0.342745
C65	C	1.105538	-0.538031	0.798301
N66	N	1.057514	-0.586047	0.753708
H67	H	1.136491	-0.733110	0.353210
H68	H	1.127322	-0.904000	0.342857
H69	H	1.384689	-0.258933	1.156323
H70	H	1.164013	-0.479540	1.130798
C71	C	1.385033	-1.060190	0.632558
N72	N	1.427796	-1.099450	0.680619
C73	C	0.583316	-0.258867	0.632600
N74	N	0.544011	-0.216159	0.680688
C75	C	1.349092	-0.720835	0.592256
N76	N	1.396034	-0.682073	0.645053
C77	C	0.922717	-0.294577	0.592316
N78	N	0.961434	-0.247631	0.645141
