data_functionalizedCrystal
_audit_creation_method	'MofGen! by Chris Wilmer'
_symmetry_space_group_name_H-M	'P1'
_symmetry_Int_Tables_number	1
_symmetry_cell_setting	triclinic
loop_
_symmetry_equiv_pos_as_xyz
  x,y,z
_cell_length_a	14.044220
_cell_length_b	10.723024
_cell_length_c	9.198806
_cell_angle_alpha	90.002012
_cell_angle_beta	90.000900
_cell_angle_gamma	91.171626
loop_
_atom_site_label
_atom_site_type_symbol
_atom_site_fract_x
_atom_site_fract_y
_atom_site_fract_z
O1	O	1.259664	-0.301050	-0.120731
O2	O	1.592997	0.032284	0.212602
O3	O	1.926330	0.365617	0.545936
O4	O	0.983624	-0.290186	-0.120768
O5	O	1.316957	0.043147	0.212565
O6	O	1.650291	0.376481	0.545899
O7	O	1.128011	-0.114679	-0.120743
O8	O	1.461344	0.218655	0.212590
O9	O	1.794678	0.551988	0.545923
O10	O	1.115277	-0.476557	-0.120756
O11	O	1.448610	-0.143224	0.212578
O12	O	1.781943	0.190110	0.545911
O13	O	1.128000	-0.114677	0.121042
O14	O	1.461333	0.218656	0.454375
O15	O	1.794666	0.551990	0.787708
O16	O	0.983612	-0.290184	0.121017
O17	O	1.316946	0.043149	0.454350
O18	O	1.650279	0.376482	0.787684
O19	O	1.259652	-0.301048	0.121054
O20	O	1.592986	0.032285	0.454387
O21	O	1.926319	0.365619	0.787721
Cu22	Cu	1.121631	-0.295616	0.143112
Cu23	Cu	1.454965	0.037717	0.476446
Cu24	Cu	1.788298	0.371051	0.809779
Cu25	Cu	1.121645	-0.295618	-0.142826
Cu26	Cu	1.454978	0.037715	0.190507
Cu27	Cu	1.788312	0.371049	0.523840
O28	O	1.115265	-0.476555	0.121029
O29	O	1.448598	-0.143222	0.454363
O30	O	1.781932	0.190111	0.787696
C31	C	0.948273	-0.285430	0.000120
C32	C	1.281606	0.047903	0.333453
C33	C	1.614939	0.381237	0.666786
C34	C	0.842955	-0.271245	0.000106
C35	C	1.176288	0.062088	0.333439
C36	C	1.509621	0.395421	0.666772
N37	N	1.121629	-0.295615	0.344226
N38	N	1.454962	0.037719	0.677560
N39	N	1.788295	0.371052	1.010893
C40	C	1.127079	-0.068086	0.000147
C41	C	1.460412	0.265248	0.333481
C42	C	1.793745	0.598581	0.666814
C43	C	1.124306	0.070746	0.000142
C44	C	1.457639	0.404079	0.333475
C45	C	1.790973	0.737413	0.666809
C46	C	0.650125	-0.245313	0.000135
C47	C	0.983458	0.088020	0.333469
C48	C	1.316791	0.421353	0.666802
C49	C	0.593146	-0.345915	0.000138
C50	C	0.926479	-0.012582	0.333471
C51	C	1.259812	0.320752	0.666805
C52	C	0.485848	-0.331486	0.000155
C53	C	0.819182	0.001847	0.333488
C54	C	1.152515	0.335181	0.666821
C55	C	0.757432	-0.259740	0.000119
C56	C	1.090765	0.073593	0.333452
C57	C	1.424099	0.406926	0.666785
C58	C	1.295003	-0.305804	0.000163
C59	C	1.628337	0.027529	0.333496
C60	C	1.961670	0.360863	0.666830
C61	C	1.400321	-0.319989	0.000168
C62	C	1.733655	0.013345	0.333501
C63	C	2.066988	0.346678	0.666834
C64	C	1.116197	-0.523149	0.000135
C65	C	1.449531	-0.189815	0.333469
C66	C	1.782864	0.143518	0.666802
C67	C	1.118970	-0.661980	0.000131
C68	C	1.452304	-0.328647	0.333465
C69	C	1.785637	0.004687	0.666798
C70	C	1.205097	0.137646	0.000151
C71	C	1.538431	0.470979	0.333484
C72	C	1.871764	0.804313	0.666817
C73	C	1.202234	0.281136	0.000145
C74	C	1.535567	0.614469	0.333478
C75	C	1.868900	0.947802	0.666812
N76	N	1.121655	-0.295610	-0.343940
N77	N	1.454988	0.037723	-0.010607
N78	N	1.788322	0.371056	0.322726
C79	C	1.182253	-0.221572	0.416434
C80	C	1.515586	0.111761	0.749767
C81	C	1.848919	0.445094	1.083100
C82	C	1.182267	-0.221570	0.583846
C83	C	1.515601	0.111764	0.917179
C84	C	1.848934	0.445097	1.250513
H85	H	0.624947	-0.442880	0.000128
H86	H	0.958281	-0.109546	0.333461
H87	H	1.291614	0.223787	0.666794
Br88	Br	1.268788	-0.115919	0.687334
Br89	Br	1.602121	0.217414	1.020668
Br90	Br	1.935455	0.550748	1.354001
H91	H	0.618325	-0.148357	0.000147
H92	H	0.951658	0.184977	0.333480
H93	H	1.284992	0.518310	0.666813
Br94	Br	1.035126	-0.401261	0.447750
Br95	Br	1.368459	-0.067928	0.781083
Br96	Br	1.701793	0.265405	1.114416
Br97	Br	1.005479	0.152326	0.000105
Br98	Br	1.338813	0.485660	0.333438
Br99	Br	1.672146	0.818993	0.666772
H100	H	1.276386	0.088691	0.000169
H101	H	1.609719	0.422025	0.333503
H102	H	1.943053	0.755358	0.666836
Br103	Br	1.317519	0.376986	0.000175
Br104	Br	1.650852	0.710319	0.333508
Br105	Br	1.984186	1.043653	0.666842
H106	H	1.049803	0.280515	0.000134
H107	H	1.383136	0.613848	0.333467
H108	H	1.716469	0.947181	0.666800
Br109	Br	1.268505	-0.115575	0.312911
Br110	Br	1.601839	0.217758	0.646245
Br111	Br	1.935172	0.551092	0.979578
H112	H	1.069753	-0.359009	0.593974
H113	H	1.403086	-0.025676	0.927307
H114	H	1.736420	0.307657	1.260640
