data_functionalizedCrystal
_audit_creation_method	'MofGen! by Chris Wilmer'
_symmetry_space_group_name_H-M	'P1'
_symmetry_Int_Tables_number	1
_symmetry_cell_setting	triclinic
loop_
_symmetry_equiv_pos_as_xyz
  x,y,z
_cell_length_a	23.096457
_cell_length_b	23.096457
_cell_length_c	19.902436
_cell_angle_alpha	119.991938
_cell_angle_beta	90.001729
_cell_angle_gamma	119.999981
loop_
_atom_site_label
_atom_site_type_symbol
_atom_site_fract_x
_atom_site_fract_y
_atom_site_fract_z
Zr1	Zr	0.557781	-0.633726	-0.088154
O2	O	0.465336	-0.754499	-0.195422
O3	O	0.586118	-0.512945	-0.055276
O4	O	0.586122	-0.633715	-0.195435
O5	O	0.465332	-0.633739	0.055303
O6	O	0.681402	-0.633717	-0.195439
O7	O	0.465333	-0.633728	-0.055263
O8	O	0.681396	-0.417680	0.055280
O9	O	0.465338	-0.849776	-0.195416
O10	O	0.669313	-0.562628	-0.041250
O11	O	0.598206	-0.562635	0.041267
O12	O	0.598210	-0.704827	-0.123753
O13	O	0.527103	-0.704835	-0.041236
Zr14	Zr	0.709742	-0.633746	0.088179
Zr15	Zr	0.709742	-0.633728	-0.088161
Zr16	Zr	0.557781	-0.633744	0.088186
Zr17	Zr	0.557785	-0.785682	-0.088145
Zr18	Zr	0.709738	-0.481790	0.088170
O19	O	0.681405	-0.754528	0.055301
O20	O	0.681405	-0.754502	-0.195431
O21	O	0.465336	-0.754524	0.055310
O22	O	0.802187	-0.512974	0.195447
O23	O	0.802188	-0.512948	-0.055285
O24	O	0.586118	-0.512970	0.195456
O25	O	0.802191	-0.633733	-0.055278
O26	O	0.681402	-0.633757	0.195460
O27	O	0.586121	-0.633755	0.195464
O28	O	0.802191	-0.633745	0.055288
O29	O	0.586127	-0.849778	-0.195421
O30	O	0.681396	-0.417694	0.195446
O31	O	0.802185	-0.417696	0.195441
O32	O	0.802185	-0.417682	0.055275
O33	O	0.465338	-0.849790	-0.055250
O34	O	0.586127	-0.849792	-0.055255
O35	O	0.669313	-0.562645	0.123778
O36	O	0.740420	-0.562638	0.041261
O37	O	0.669317	-0.704837	-0.041242
O38	O	0.598210	-0.704844	0.041275
C39	C	0.633757	-0.443662	0.000001
C40	C	0.633755	-0.379152	-0.000003
C41	C	0.443681	-0.633733	0.000021
C42	C	0.379170	-0.633732	0.000023
C43	C	0.670867	-0.348848	-0.043080
C44	C	0.670874	-0.288226	-0.043074
C45	C	0.633755	-0.257922	-0.000003
C46	C	0.596641	-0.288231	0.043083
C47	C	0.596641	-0.348846	0.043083
N48	N	0.573351	-0.195525	-0.005973
N49	N	0.573352	-0.137945	-0.005977
C50	C	0.633754	-0.075291	0.000003
N51	N	0.694154	-0.072401	0.005971
N52	N	0.694151	-0.129989	0.005971
C53	C	0.633751	-0.192195	0.000003
C54	C	0.670877	0.020747	-0.043070
C55	C	0.670886	0.081374	-0.043058
C56	C	0.596646	0.081362	0.043094
C57	C	0.596644	0.020742	0.043088
C58	C	0.633758	-0.009564	0.000001
C59	C	0.385979	-0.559507	0.043081
C60	C	0.325364	-0.559506	0.043084
C61	C	0.257939	-0.633734	0.000014
C62	C	0.251132	-0.707968	-0.043045
C63	C	0.311748	-0.707967	-0.043040
N64	N	0.135145	-0.688981	-0.070084
N65	N	0.077565	-0.688977	-0.070086
C66	C	0.075306	-0.633741	-0.000000
N67	N	0.132808	-0.578497	0.070088
N68	N	0.190394	-0.578499	0.070089
C69	C	0.192208	-0.633743	0.000005
C70	C	0.016392	-0.559510	0.043065
C71	C	-0.044226	-0.559512	0.043071
C72	C	-0.118457	-0.707976	-0.043066
C73	C	-0.057839	-0.707972	-0.043064
C74	C	0.009583	-0.633737	-0.000000
C75	C	0.823842	-0.633739	0.000004
C76	C	0.888353	-0.633740	0.000002
C77	C	0.633766	0.176188	0.000021
C78	C	0.633768	0.111674	0.000015
C79	C	0.633762	-0.633714	-0.220562
C80	C	0.633762	-0.633706	-0.295422
C81	C	0.633761	-0.633746	-0.567471
C82	C	0.678828	-0.544044	-0.486937
C83	C	0.678633	-0.543988	-0.409033
C84	C	0.633762	-0.633726	-0.432504
C85	C	0.556500	-0.678273	-0.486618
C86	C	0.556747	-0.677699	-0.564180
C87	C	0.665333	-0.679543	-0.565324
C88	C	0.666897	-0.677858	-0.486446
C89	C	0.633758	-0.633719	-0.356229
C90	C	0.633760	-0.633756	-0.643747
C91	C	0.633762	-0.633758	0.220587
C92	C	0.633761	-0.633766	0.295447
C93	C	0.823837	-0.443665	-0.000007
C94	C	0.888347	-0.379157	-0.000014
C95	C	0.633757	-0.443684	0.220575
C96	C	0.633755	-0.379182	0.295431
C97	C	0.823837	-0.443687	0.220567
C98	C	0.888347	-0.379187	0.295421
C99	C	0.443686	-0.823785	-0.220542
C100	C	0.379176	-0.888286	-0.295396
C101	C	0.443686	-0.823807	0.000032
C102	C	0.379176	-0.888316	0.000039
C103	C	0.633767	-0.823788	-0.220550
C104	C	0.633768	-0.888290	-0.295406
C105	C	0.881524	-0.348858	-0.043095
C106	C	0.942132	-0.288254	-0.043117
C107	C	1.009562	-0.257945	-0.000054
C108	C	1.016383	-0.288250	0.043027
C109	C	0.955776	-0.348857	0.043045
C110	C	0.670871	-0.348896	0.373662
C111	C	0.670867	-0.288299	0.444005
C112	C	0.633750	-0.257983	0.436115
C113	C	0.596629	-0.288275	0.357876
C114	C	0.596630	-0.348876	0.287535
C115	C	0.955765	-0.348893	0.287500
C116	C	1.016384	-0.288296	0.357826
C117	C	1.009584	-0.257990	0.436073
C118	C	0.942159	-0.288290	0.443992
C119	C	0.881541	-0.348890	0.373666
C120	C	0.311759	-0.918587	-0.287475
C121	C	0.251139	-0.979203	-0.357801
C122	C	0.257939	-1.009512	-0.436048
C123	C	0.325364	-0.979208	-0.443967
C124	C	0.385982	-0.918598	-0.373641
C125	C	0.385999	-0.918621	0.043112
C126	C	0.325391	-0.979242	0.043116
C127	C	0.257961	-1.009552	0.000050
C128	C	0.251140	-0.979244	-0.043028
C129	C	0.311747	-0.918629	-0.043036
C130	C	0.670892	-0.918586	-0.287490
C131	C	0.670908	-0.979184	-0.357819
C132	C	0.633795	-1.009490	-0.436064
C133	C	0.596670	-0.979188	-0.443979
C134	C	0.596659	-0.918586	-0.373650
H135	H	0.701089	-0.373519	-0.078161
Cl136	Cl	0.717556	-0.880499	-0.189134
H137	H	0.566421	-0.003935	0.078162
H138	H	-0.173354	-0.768413	-0.078135
Cl139	Cl	0.614896	-0.781567	-0.652964
Cl140	Cl	-0.066400	-0.801288	-0.097202
Cl141	Cl	0.550009	-1.017303	-0.542350
H142	H	0.656736	-0.508811	-0.369996
H143	H	0.440898	-0.893947	0.078187
Cl144	Cl	0.166385	-1.017283	-0.347827
H145	H	0.566425	-0.893926	-0.380108
Cl146	Cl	0.766895	-0.489676	-0.484322
Cl147	Cl	0.470735	-0.466183	0.097224
Cl148	Cl	0.181725	-1.085708	-0.524451
H149	H	0.633755	-0.208638	0.493398
Cl150	Cl	0.621483	-0.778941	-0.515044
Cl151	Cl	0.333919	-0.466188	0.097213
H152	H	0.531046	-0.647334	-0.449164
H153	H	0.330892	-1.003894	-0.507684
H154	H	0.566410	-0.263584	0.351464
Cl155	Cl	0.796763	-0.386950	-0.097242
Cl156	Cl	1.101158	-0.250136	0.097164
Cl157	Cl	0.549969	-0.386937	0.189190
H158	H	0.961315	-0.373559	0.223794
H159	H	0.701138	-1.003850	-0.351359
Cl160	Cl	0.933623	-0.250181	0.542366
Cl161	Cl	0.717540	-0.250113	-0.097223
H162	H	0.566418	-0.373520	0.078161
Cl163	Cl	0.517725	-0.628820	-0.563883
Cl164	Cl	0.933541	-0.250165	-0.097277
Cl165	Cl	0.549981	0.119451	0.097241
Cl166	Cl	1.101138	-0.250213	0.347852
Cl167	Cl	0.964365	-0.386934	0.097215
H168	H	0.566419	-0.263553	0.078153
Cl169	Cl	0.717540	-0.386992	0.383603
Cl170	Cl	0.717543	0.119468	-0.097220
Cl171	Cl	1.085798	-0.181804	0.524476
H172	H	0.440875	-0.893927	-0.380100
Cl173	Cl	0.796790	-0.386961	0.383639
H174	H	0.735526	-0.509037	-0.369643
H175	H	0.657130	-0.509012	-0.486188
H176	H	0.330958	-1.003908	0.078198
Cl177	Cl	0.166365	-1.017354	-0.097160
H178	H	0.633809	-1.058835	-0.493323
H179	H	0.521341	-0.743512	-0.621210
Cl180	Cl	0.181775	-1.085754	0.000070
H181	H	0.723821	-0.645370	-0.449129
Cl182	Cl	0.717539	-0.017349	-0.097227
Cl183	Cl	0.166371	-0.801282	-0.097185
Cl184	Cl	0.303186	-0.801286	-0.097175
H185	H	0.306209	-0.893913	-0.223769
H186	H	0.071291	-0.499064	0.078147
H187	H	0.521463	-0.744254	-0.506377
Cl188	Cl	-0.035662	-0.466192	0.097215
Cl189	Cl	0.751847	-0.635221	-0.569941
Cl190	Cl	1.085748	-0.181750	-0.000083
Cl191	Cl	0.303158	-0.880533	-0.097184
Cl192	Cl	0.717539	-0.250227	0.542352
