data_functionalizedCrystal
_audit_creation_method	'MofGen! by Chris Wilmer'
_symmetry_space_group_name_H-M	'P1'
_symmetry_Int_Tables_number	1
_symmetry_cell_setting	triclinic
loop_
_symmetry_equiv_pos_as_xyz
  x,y,z
_cell_length_a	15.698487
_cell_length_b	20.875641
_cell_length_c	20.875641
_cell_angle_alpha	60.089808
_cell_angle_beta	90.001162
_cell_angle_gamma	62.440568
loop_
_atom_site_label
_atom_site_type_symbol
_atom_site_fract_x
_atom_site_fract_y
_atom_site_fract_z
Zr1	Zr	0.859605	0.694362	-0.105781
O2	O	0.734772	0.820600	-0.209043
O3	O	0.893202	0.563107	-0.070850
O4	O	0.905747	0.687131	-0.204322
O5	O	0.717645	0.704030	0.025988
O6	O	1.045928	0.687133	-0.204324
O7	O	0.722227	0.696576	-0.075571
O8	O	1.023488	0.465278	0.034434
O9	O	0.740085	0.925885	-0.212769
O10	O	1.017790	0.618954	-0.059911
O11	O	0.909754	0.624514	0.015883
O12	O	0.924524	0.770536	-0.141263
O13	O	0.816489	0.776097	-0.065469
Zr14	Zr	1.075869	0.706253	0.056192
Zr15	Zr	1.083178	0.694366	-0.105783
Zr16	Zr	0.852296	0.706249	0.056195
Zr17	Zr	0.868079	0.862280	-0.111723
Zr18	Zr	1.067396	0.538335	0.062135
O19	O	1.042272	0.837508	0.021261
O20	O	1.052664	0.820605	-0.209047
O21	O	0.724380	0.837502	0.021265
O22	O	1.200703	0.580015	0.159455
O23	O	1.211094	0.563113	-0.070853
O24	O	0.882811	0.580009	0.159458
O25	O	1.217830	0.696585	-0.075577
O26	O	1.029727	0.713484	0.154733
O27	O	0.889546	0.713482	0.154735
O28	O	1.213247	0.704038	0.025982
O29	O	0.917796	0.925888	-0.212772
O30	O	1.017679	0.474726	0.163183
O31	O	1.195390	0.474730	0.163181
O32	O	1.201199	0.465281	0.034432
O33	O	0.734276	0.935334	-0.084021
O34	O	0.911986	0.935337	-0.084023
O35	O	1.010950	0.630079	0.091674
O36	O	1.118986	0.624518	0.015881
O37	O	1.025720	0.776100	-0.065472
O38	O	0.917684	0.781661	0.010322
C39	C	0.957138	0.490268	-0.017361
C40	C	0.953541	0.418982	-0.014838
C41	C	0.688081	0.700303	-0.024791
C42	C	0.593169	0.700301	-0.024790
C43	C	1.008241	0.382590	-0.053217
C44	C	1.004863	0.315605	-0.050839
C45	C	0.946779	0.285019	-0.010087
C46	C	0.892076	0.321414	0.028296
C47	C	0.895460	0.388393	0.025923
C48	C	0.930616	0.085007	0.001259
C49	C	0.927233	0.018025	0.003628
C50	C	1.040022	0.012219	-0.075506
C51	C	1.043396	0.079203	-0.077880
C52	C	0.988698	0.115590	-0.039494
N53	N	0.943322	0.216552	-0.007657
N54	N	0.992161	0.184052	-0.041919
C55	C	0.419385	0.700316	-0.024798
C56	C	0.516088	0.700311	-0.024795
C57	C	1.247393	0.700312	-0.024798
C58	C	1.342306	0.700314	-0.024799
C59	C	0.976879	0.685438	-0.227401
C60	C	0.979982	0.680392	-0.296163
C61	C	0.978337	0.910347	-0.032228
C62	C	0.981934	0.981632	-0.034751
C63	C	0.932757	0.757143	-0.370933
C64	C	0.935686	0.752396	-0.435541
C65	C	0.985833	0.670897	-0.425376
C66	C	1.033063	0.594140	-0.350598
C67	C	1.030141	0.598888	-0.285993
C68	C	0.999801	0.648213	-0.614042
C69	C	1.002717	0.643471	-0.678655
C70	C	0.905340	0.801729	-0.763594
C71	C	0.902417	0.806469	-0.698983
C72	C	0.949652	0.729712	-0.624211
N73	N	0.988825	0.666043	-0.491414
N74	N	0.946666	0.734567	-0.558175
C75	C	0.958595	0.715176	0.177812
C76	C	0.955493	0.720223	0.246575
C77	C	1.236794	0.490273	-0.017364
C78	C	1.328109	0.418989	-0.014843
C79	C	0.947996	0.505137	0.185245
C80	C	0.941296	0.438898	0.256531
C81	C	1.227652	0.505142	0.185242
C82	C	1.315864	0.438904	0.256526
C83	C	0.707823	0.895473	-0.234831
C84	C	0.619610	0.961710	-0.306115
C85	C	0.698681	0.910342	-0.032224
C86	C	0.607365	0.981626	-0.034746
C87	C	0.987478	0.895478	-0.234834
C88	C	0.994178	0.961717	-0.306120
C89	C	1.318169	0.382608	-0.053227
C90	C	1.403962	0.315638	-0.050874
C91	C	1.499694	0.285045	-0.010130
C92	C	1.509632	0.321432	0.028256
C93	C	1.423840	0.388405	0.025897
C94	C	0.990973	0.410696	0.329576
C95	C	0.984673	0.348467	0.396562
C96	C	0.928703	0.314437	0.390502
C97	C	0.879021	0.342644	0.317448
C98	C	0.885314	0.404877	0.250464
C99	C	1.413693	0.404896	0.250439
C100	C	1.496587	0.342668	0.317411
C101	C	1.481651	0.314444	0.390471
C102	C	1.383812	0.348459	0.396557
C103	C	1.300920	0.410691	0.329585
C104	C	0.521782	0.995727	-0.300028
C105	C	0.438889	1.057976	-0.367001
C106	C	0.453825	1.086203	-0.440061
C107	C	0.551663	1.052184	-0.446147
C108	C	0.634555	0.989940	-0.379174
C109	C	0.617306	1.018013	0.003632
C110	C	0.531515	1.085001	0.001259
C111	C	0.435783	1.115596	-0.039487
C112	C	0.425845	1.079206	-0.077869
C113	C	0.511635	1.012224	-0.075501
C114	C	1.050157	0.995728	-0.300034
C115	C	1.056472	1.057958	-0.367008
C116	C	1.006802	1.086181	-0.440067
C117	C	0.950821	1.052163	-0.446151
C118	C	0.944513	0.989929	-0.379177
H119	H	1.055535	0.407492	-0.086405
H120	H	1.425874	0.427866	0.190956
H121	H	0.861585	0.872834	-0.707268
H122	H	1.025136	0.325508	0.456039
C123	C	1.604200	0.305254	0.310700
N124	N	1.685252	0.277074	0.305642
H125	H	1.587588	0.296513	0.061428
H126	H	1.549156	0.263771	0.444998
H127	H	0.563813	1.075174	-0.505640
H128	H	1.043552	0.577102	-0.670370
C129	C	0.870481	0.124998	0.043514
N130	N	0.825198	0.155111	0.075354
H131	H	1.371666	0.325471	0.456051
H132	H	0.503527	0.982599	-0.106751
H133	H	0.386321	1.136885	-0.494588
C134	C	1.193310	0.448092	0.336295
N135	N	1.112258	0.476261	0.341354
C136	C	1.212871	0.416252	-0.098057
N137	N	1.133564	0.441593	-0.131829
H138	H	0.714209	0.962244	-0.384140
H139	H	1.011946	1.136856	-0.494594
H140	H	0.539627	1.114619	0.032518
C141	C	1.434791	0.428409	0.068135
N142	N	1.443046	0.458536	0.099953
C143	C	0.896230	1.083185	-0.526522
N144	N	0.855123	1.106544	-0.587060
C145	C	0.921801	0.245971	0.464195
N146	N	0.916610	0.194399	0.519704
C147	C	1.051751	0.563777	-0.531800
N148	N	1.090879	0.500176	-0.469851
H149	H	0.833450	0.314927	0.312525
C150	C	1.088224	0.504490	-0.339419
N151	N	1.129767	0.436963	-0.330997
H152	H	1.036549	0.438398	0.334526
H153	H	0.891915	0.823509	-0.379219
H154	H	0.897232	0.814896	-0.496420
C155	C	0.505327	0.964695	-0.219668
N156	N	0.492925	0.941331	-0.159143
C157	C	0.830674	0.435881	0.170115
N158	N	0.789517	0.459230	0.109598
H159	H	1.049405	0.285974	-0.082089
H160	H	0.898924	0.962244	-0.384144
C161	C	1.100195	-0.027818	-0.117722
N162	N	1.145523	-0.057977	-0.149517
C163	C	0.863294	-0.015589	0.048429
N164	N	0.815121	-0.040896	0.082158
C165	C	0.828182	0.287767	0.073124
N166	N	0.780052	0.262427	0.106886
C167	C	1.107298	0.112841	-0.122708
N168	N	1.155428	0.138177	-0.156474
H169	H	1.102055	1.085650	-0.362039
H170	H	0.850914	0.418026	0.057172
C171	C	1.393006	0.275616	-0.093095
N172	N	1.384751	0.245472	-0.124894
H173	H	0.359232	1.085664	-0.362031
H174	H	0.866885	0.864220	-0.824478
C175	C	0.341420	1.189276	-0.042080
N176	N	0.270348	1.244769	-0.044028
H177	H	1.569542	0.230509	-0.008214
H178	H	1.068596	0.536388	-0.225111
H179	H	0.695248	0.993108	0.036817
C180	C	0.320529	1.112859	-0.122675
N181	N	0.241202	1.138202	-0.156415
H182	H	1.090606	0.972760	-0.240552
