data_functionalizedCrystal
_audit_creation_method	'MofGen! by Chris Wilmer'
_symmetry_space_group_name_H-M	'P1'
_symmetry_Int_Tables_number	1
_symmetry_cell_setting	triclinic
loop_
_symmetry_equiv_pos_as_xyz
  x,y,z
_cell_length_a	12.759401
_cell_length_b	18.050590
_cell_length_c	12.759393
_cell_angle_alpha	89.965321
_cell_angle_beta	89.979062
_cell_angle_gamma	90.020077
loop_
_atom_site_label
_atom_site_type_symbol
_atom_site_fract_x
_atom_site_fract_y
_atom_site_fract_z
Zn1	Zn	1.606238	-0.295593	-0.593990
Zn2	Zn	1.606118	-0.419801	-0.418297
Zn3	Zn	1.430537	-0.295633	-0.418325
Zn4	Zn	1.430517	-0.419749	-0.593934
O5	O	1.518352	-0.357694	-0.506136
O6	O	1.753243	-0.312075	-0.570695
O7	O	1.582784	-0.403368	-0.271279
O8	O	1.453903	-0.191703	-0.441662
O9	O	1.753155	-0.403330	-0.441614
O10	O	1.582990	-0.191674	-0.570722
O11	O	1.453786	-0.312142	-0.271300
O12	O	1.283513	-0.312092	-0.441608
O13	O	1.453869	-0.403241	-0.740963
O14	O	1.283499	-0.403280	-0.570628
O15	O	1.582971	-0.312025	-0.741003
O16	O	1.582765	-0.523719	-0.441561
O17	O	1.453752	-0.523681	-0.570601
C18	C	1.245385	-0.357685	-0.506115
C19	C	1.128608	-0.357699	-0.506131
C20	C	1.073766	-0.405253	-0.573206
C21	C	0.964042	-0.405256	-0.573227
C22	C	0.964012	-0.310149	-0.439089
C23	C	1.073734	-0.310143	-0.439075
C24	C	1.518272	-0.550646	-0.506094
C25	C	1.518333	-0.633192	-0.506112
C26	C	1.588636	-0.832636	-0.436038
C27	C	1.614306	-0.881961	-0.531925
C28	C	1.518393	-0.784322	-0.506154
C29	C	1.492831	-0.882079	-0.410310
C30	C	1.518452	-0.930307	-0.506186
C31	C	1.544111	-0.832560	-0.602091
C32	C	1.422592	-0.832674	-0.480411
C33	C	1.448224	-0.881976	-0.576364
C34	C	1.518361	-0.700224	-0.506134
C35	C	1.518484	-1.014404	-0.506216
C36	C	1.792386	-0.357704	-0.506158
C37	C	1.909162	-0.357708	-0.506167
C38	C	1.518431	-0.357623	-0.780170
C39	C	1.518465	-0.357592	-0.896947
C40	C	1.518462	-0.163989	-0.506201
C41	C	1.518509	-0.081443	-0.506229
C42	C	1.585693	-0.310088	-0.951831
C43	C	1.585711	-0.310056	-1.061556
C44	C	1.451269	-0.405039	-1.061500
C45	C	1.451247	-0.405067	-0.951778
C46	C	1.518335	-0.357712	-0.233169
C47	C	1.518505	-0.357533	-0.116393
H48	H	0.919320	-0.271431	-0.384493
O49	O	1.385886	-0.451183	-1.114603
C50	C	1.326562	-0.493130	-1.042628
H51	H	1.322922	-0.462729	-0.964426
H52	H	1.243787	-0.501043	-1.074316
H53	H	1.365003	-0.549537	-1.030941
H54	H	0.919395	-0.443978	-0.627847
O55	O	1.569879	-0.806764	-0.698898
C56	C	1.496234	-0.832505	-0.772760
H57	H	1.419747	-0.846719	-0.731139
H58	H	1.481211	-0.787529	-0.833685
H59	H	1.528191	-0.884082	-0.813182
O60	O	1.466875	-0.908115	-0.313681
C61	C	1.374859	-0.951087	-0.320834
H62	H	1.365515	-0.972339	-0.404427
H63	H	1.380447	-1.000073	-0.264681
H64	H	1.304213	-0.915598	-0.299179
O65	O	1.710922	-0.907817	-0.558117
C66	C	1.703631	-0.950727	-0.650126
H67	H	1.630653	-0.933888	-0.695807
H68	H	1.776112	-0.941116	-0.700609
H69	H	1.698233	-1.011876	-0.628363
O70	O	1.659664	-0.806818	-0.365490
C71	C	1.760592	-0.831947	-0.393034
H72	H	1.762534	-0.845753	-0.480185
H73	H	1.820518	-0.786759	-0.375555
H74	H	1.780339	-0.883647	-0.345637
H75	H	1.118388	-0.271414	-0.384454
H76	H	1.396494	-0.443750	-0.907090
O77	O	1.377518	-0.907754	-0.647260
C78	C	1.429461	-0.951636	-0.722452
H79	H	1.505898	-0.973406	-0.687971
H80	H	1.377289	-1.000274	-0.745389
H81	H	1.447196	-0.916713	-0.794797
O82	O	1.127119	-0.451520	-0.638200
C83	C	1.190558	-0.499423	-0.578261
H84	H	1.157452	-0.503945	-0.495506
H85	H	1.191798	-0.556607	-0.616118
H86	H	1.273722	-0.476455	-0.574690
O87	O	1.325970	-0.806852	-0.454198
C88	C	1.299277	-0.832056	-0.353035
H89	H	1.373756	-0.845919	-0.307778
H90	H	1.254166	-0.786890	-0.309892
H91	H	1.248324	-0.883736	-0.359632
H92	H	1.640423	-0.271430	-0.907191
H93	H	1.640453	-0.271372	-1.106238
