data_functionalizedCrystal
_audit_creation_method	'MofGen! by Chris Wilmer'
_symmetry_space_group_name_H-M	'P1'
_symmetry_Int_Tables_number	1
_symmetry_cell_setting	triclinic
loop_
_symmetry_equiv_pos_as_xyz
  x,y,z
_cell_length_a	12.759401
_cell_length_b	19.121063
_cell_length_c	19.121605
_cell_angle_alpha	90.075163
_cell_angle_beta	87.548106
_cell_angle_gamma	92.469017
loop_
_atom_site_label
_atom_site_type_symbol
_atom_site_fract_x
_atom_site_fract_y
_atom_site_fract_z
Zn1	Zn	1.615417	-0.262209	-0.408235
Zn2	Zn	1.600326	-0.384451	-0.295992
Zn3	Zn	1.431937	-0.267230	-0.291018
Zn4	Zn	1.432505	-0.379413	-0.413195
O5	O	1.520046	-0.323326	-0.352110
O6	O	1.760436	-0.278432	-0.393351
O7	O	1.571435	-0.373111	-0.197227
O8	O	1.462354	-0.168457	-0.302410
O9	O	1.749349	-0.368242	-0.310887
O10	O	1.597156	-0.164768	-0.388529
O11	O	1.447720	-0.286989	-0.193572
O12	O	1.284991	-0.282105	-0.307220
O13	O	1.463322	-0.359656	-0.510643
O14	O	1.285409	-0.364525	-0.396982
O15	O	1.597707	-0.273547	-0.506998
O16	O	1.571986	-0.481890	-0.315696
O17	O	1.448689	-0.478189	-0.401805
C18	C	1.247079	-0.323313	-0.352100
C19	C	1.130303	-0.323324	-0.352113
C20	C	1.075676	-0.366315	-0.398781
C21	C	0.965952	-0.366324	-0.398789
C22	C	0.965490	-0.280348	-0.305454
C23	C	1.075213	-0.280337	-0.305450
C24	C	1.130766	-0.409303	-0.445444
C25	C	1.076139	-0.452298	-0.492116
C26	C	0.966415	-0.452306	-0.492124
C27	C	0.911318	-0.409320	-0.445460
C28	C	1.508791	-0.505477	-0.359844
C29	C	1.504074	-0.583401	-0.363176
C30	C	1.566107	-0.621912	-0.319946
C31	C	1.561677	-0.695129	-0.323084
C32	C	1.495208	-0.729834	-0.369449
C33	C	1.433172	-0.691318	-0.412683
C34	C	1.437609	-0.618102	-0.409548
C35	C	1.478604	-0.950805	-0.381159
C36	C	1.474170	-1.024027	-0.384289
C37	C	1.602676	-1.027833	-0.294690
C38	C	1.607102	-0.954615	-0.291557
C39	C	1.545071	-0.916105	-0.334794
C40	C	1.490675	-0.804674	-0.372656
C41	C	1.549609	-0.841266	-0.331590
C42	C	1.794079	-0.323339	-0.352121
C43	C	1.910856	-0.323344	-0.352125
C44	C	1.532261	-0.315479	-0.534969
C45	C	1.537467	-0.312136	-0.612893
C46	C	1.531375	-0.140463	-0.344361
C47	C	1.536203	-0.062538	-0.341059
C48	C	1.570470	-0.290978	-1.053520
C49	C	1.565572	-0.294123	-0.980302
C50	C	1.493151	-0.340524	-0.945594
C51	C	1.425631	-0.383788	-0.984108
C52	C	1.430535	-0.380646	-1.057324
C53	C	1.474850	-0.352257	-0.724623
C54	C	1.469950	-0.355395	-0.651401
C55	C	1.609892	-0.265730	-0.647601
C56	C	1.614785	-0.262590	-0.720819
C57	C	1.547269	-0.305856	-0.759326
C58	C	1.488141	-0.343739	-0.870754
C59	C	1.552285	-0.302645	-0.834165
C60	C	1.507942	-0.331091	-0.169960
C61	C	1.502953	-0.334237	-0.092028
H62	H	0.821974	-0.409324	-0.445476
H63	H	1.603733	-0.813007	-0.293842
Cl64	Cl	1.694758	-0.211338	-0.599188
H65	H	1.620228	-0.593660	-0.282188
Cl66	Cl	1.349617	-0.734948	-0.470975
H67	H	0.920621	-0.245351	-0.267463
Cl68	Cl	1.680660	-1.076249	-0.240344
H69	H	1.119691	-0.245324	-0.267454
Cl70	Cl	1.345654	-0.435033	-1.105735
H71	H	1.620555	-0.258899	-0.948952
Cl72	Cl	1.690682	-0.910990	-0.233277
H73	H	1.420056	-1.052281	-0.422056
H74	H	0.921942	-0.487310	-0.530131
H75	H	1.436554	-0.832940	-0.410405
H76	H	1.428093	-0.919456	-0.416362
Cl77	Cl	1.639669	-0.743540	-0.268738
Cl78	Cl	1.661507	-0.232635	-1.097145
Cl79	Cl	1.705888	-0.204294	-0.764448
Cl80	Cl	1.359625	-0.569688	-0.463899
H81	H	1.410951	-0.393167	-0.623144
H82	H	1.611253	-0.264868	-0.862428
H83	H	1.419872	-0.387487	-0.755967
H84	H	1.429174	-0.381517	-0.842486
H85	H	1.220109	-0.409302	-0.445441
Cl86	Cl	1.145403	-0.506331	-0.550779
H87	H	1.366669	-0.421572	-0.955843
