data_functionalizedCrystal
_audit_creation_method	'MofGen! by Chris Wilmer'
_symmetry_space_group_name_H-M	'P1'
_symmetry_Int_Tables_number	1
_symmetry_cell_setting	triclinic
loop_
_symmetry_equiv_pos_as_xyz
  x,y,z
_cell_length_a	12.837943
_cell_length_b	12.837942
_cell_length_c	11.892095
_cell_angle_alpha	85.697431
_cell_angle_beta	85.689438
_cell_angle_gamma	85.171060
loop_
_atom_site_label
_atom_site_type_symbol
_atom_site_fract_x
_atom_site_fract_y
_atom_site_fract_z
O1	O	1.408367	-0.266110	-0.093982
O2	O	1.105234	-0.252667	-0.093989
O3	O	1.250078	-0.107822	-0.093979
O4	O	1.263522	-0.410955	-0.093992
O5	O	1.237999	-0.119879	0.094028
O6	O	1.093155	-0.264723	0.094018
O7	O	1.396288	-0.278167	0.094025
Zn8	Zn	1.242803	-0.273359	0.123871
Zn9	Zn	1.258718	-0.257474	-0.123836
O10	O	1.251443	-0.423011	0.094014
C11	C	1.060125	-0.254153	0.000014
C12	C	0.943710	-0.240609	0.000011
C13	C	0.718835	-0.403439	0.000020
C14	C	0.609453	-0.390717	0.000019
C15	C	0.615561	-0.202446	0.000015
C16	C	0.724943	-0.215167	0.000017
C17	C	0.776577	-0.315667	0.000017
C18	C	0.885961	-0.328387	0.000011
C19	C	0.892066	-0.140117	0.000015
C20	C	0.782684	-0.127395	0.000014
C21	C	1.239497	-0.074781	0.000024
C22	C	1.225953	0.041634	0.000022
C23	C	1.441397	-0.276680	0.000020
C24	C	1.557812	-0.290224	0.000015
C25	C	1.262024	-0.456052	0.000009
C26	C	1.275569	-0.572467	0.000004
N27	N	1.231950	-0.284200	0.292925
C28	C	1.388784	0.266509	0.000002
C29	C	1.376062	0.375892	-0.000000
C30	C	1.187791	0.369784	0.000007
C31	C	1.200512	0.260402	0.000009
C32	C	1.301011	0.208768	0.000008
C33	C	1.313731	0.099383	0.000019
C34	C	1.125461	0.093278	0.000018
C35	C	1.112740	0.202660	0.000016
N36	N	1.269579	-0.246626	-0.292889
C37	C	1.345098	-0.171130	0.529580
C38	C	1.337519	-0.178716	0.647922
C39	C	1.209210	-0.306952	0.647951
C40	C	1.216788	-0.299366	0.529610
C41	C	1.284736	-0.231454	0.470428
C42	C	1.292319	-0.223874	0.352085
C43	C	1.164005	-0.352104	0.352116
C44	C	1.156426	-0.359690	0.470458
H45	H	0.928000	-0.410219	0.000013
C46	C	1.424272	0.042582	0.000018
H47	H	1.419280	-0.030834	0.000031
H48	H	1.465074	0.065963	-0.065546
H49	H	1.456653	0.057564	0.065586
C50	C	0.558751	-0.091910	0.000026
H51	H	0.485337	-0.096909	0.000024
H52	H	0.573723	-0.059519	0.065588
H53	H	0.582134	-0.051110	-0.065544
H54	H	0.760876	-0.485269	0.000019
C55	C	1.077253	0.426590	-0.000014
H56	H	1.026797	0.376538	-0.000022
H57	H	1.064159	0.464945	0.065537
H58	H	1.072605	0.473323	-0.065595
C59	C	1.002198	0.259458	0.000012
H60	H	0.951747	0.209401	0.000009
H61	H	0.989110	0.297807	0.065569
H62	H	0.997535	0.306197	-0.065563
H63	H	1.347647	-0.168579	0.303901
C64	C	1.472608	0.439409	-0.000009
H65	H	1.450642	0.511950	-0.000020
H66	H	1.509167	0.418539	0.065548
H67	H	1.517574	0.426937	-0.065584
H68	H	0.562444	-0.462191	0.000024
H69	H	1.386671	-0.129593	0.696080
C70	C	1.081696	-0.434391	0.535563
H71	H	1.085831	-0.430276	0.614515
H72	H	1.011947	-0.414851	0.516184
H73	H	1.101223	-0.504146	0.516164
C74	C	1.028908	0.029761	0.000016
H75	H	1.050876	-0.042779	0.000009
H76	H	0.983932	0.042233	0.065575
H77	H	0.992362	0.050634	-0.065557
C78	C	1.419838	-0.096439	0.464473
H79	H	1.415711	-0.100567	0.385521
H80	H	1.400334	-0.026686	0.483869
H81	H	1.489589	-0.116003	0.483850
H82	H	0.740628	-0.045572	0.000026
C83	C	1.134474	-0.381644	0.713063
H84	H	1.138612	-0.377522	0.792014
H85	H	1.064726	-0.362098	0.693684
H86	H	1.153994	-0.451403	0.693673
H87	H	1.470613	0.224468	0.000012
C88	C	1.097617	-0.418476	0.287047
H89	H	1.111860	-0.404234	0.208091
H90	H	1.114656	-0.490710	0.306449
H91	H	1.025376	-0.401418	0.306447
H92	H	0.939091	-0.068646	0.000005
