data_functionalizedCrystal
_audit_creation_method	'MofGen! by Chris Wilmer'
_symmetry_space_group_name_H-M	'P1'
_symmetry_Int_Tables_number	1
_symmetry_cell_setting	triclinic
loop_
_symmetry_equiv_pos_as_xyz
  x,y,z
_cell_length_a	18.215407
_cell_length_b	21.295418
_cell_length_c	21.295412
_cell_angle_alpha	90.029499
_cell_angle_beta	90.016570
_cell_angle_gamma	90.027848
loop_
_atom_site_label
_atom_site_type_symbol
_atom_site_fract_x
_atom_site_fract_y
_atom_site_fract_z
Zn1	Zn	1.125035	-0.250614	0.355921
Zn2	Zn	1.458369	0.082719	0.689254
Zn3	Zn	1.791702	0.416053	1.022588
Zn4	Zn	1.124945	-0.355883	0.250649
Zn5	Zn	1.458279	-0.022550	0.583983
Zn6	Zn	1.791612	0.310783	0.917316
Zn7	Zn	1.001975	-0.250633	0.250666
Zn8	Zn	1.335308	0.082700	0.583999
Zn9	Zn	1.668642	0.416034	0.917332
Zn10	Zn	1.001928	-0.355850	0.355881
Zn11	Zn	1.335262	-0.022517	0.689214
Zn12	Zn	1.668595	0.310816	1.022548
O13	O	1.063471	-0.303245	0.303279
O14	O	1.396804	0.030088	0.636613
O15	O	1.730138	0.363421	0.969946
O16	O	1.228008	-0.264584	0.341966
O17	O	1.561341	0.068749	0.675300
O18	O	1.894674	0.402082	1.008633
O19	O	1.108615	-0.341944	0.162562
O20	O	1.441948	-0.008610	0.495895
O21	O	1.775282	0.324723	0.829229
O22	O	1.018356	-0.162541	0.264652
O23	O	1.351690	0.170792	0.597985
O24	O	1.685023	0.504126	0.931318
O25	O	1.227942	-0.341925	0.264624
O26	O	1.561275	-0.008592	0.597957
O27	O	1.894608	0.324741	0.931290
O28	O	1.108768	-0.162527	0.341982
O29	O	1.442102	0.170806	0.675315
O30	O	1.775435	0.504139	1.008649
O31	O	1.018269	-0.264616	0.162574
O32	O	1.351602	0.068717	0.495907
O33	O	1.684936	0.402050	0.829241
O34	O	0.898985	-0.264584	0.264613
O35	O	1.232318	0.068749	0.597946
O36	O	1.565651	0.402082	0.931279
O37	O	1.018277	-0.341869	0.443976
O38	O	1.351610	-0.008535	0.777309
O39	O	1.684944	0.324798	1.110642
O40	O	0.898950	-0.341887	0.341914
O41	O	1.232284	-0.008554	0.675247
O42	O	1.565617	0.324780	1.008581
O43	O	1.108723	-0.264552	0.444005
O44	O	1.442057	0.068781	0.777338
O45	O	1.775390	0.402115	1.110672
O46	O	1.108570	-0.443968	0.264585
O47	O	1.441903	-0.110635	0.597918
O48	O	1.775236	0.222698	0.931252
O49	O	1.018190	-0.443944	0.341898
O50	O	1.351523	-0.110611	0.675231
O51	O	1.684856	0.222723	1.008565
C52	C	0.872265	-0.303234	0.303261
C53	C	1.205598	0.030099	0.636594
C54	C	1.538931	0.363432	0.969928
C55	C	0.790466	-0.303245	0.303268
C56	C	1.123799	0.030088	0.636602
C57	C	1.457133	0.363422	0.969935
C58	C	0.602273	-0.343560	0.343469
C59	C	0.935607	-0.010226	0.676802
C60	C	1.268940	0.323107	1.010135
C61	C	0.525415	-0.343562	0.343476
C62	C	0.858748	-0.010228	0.676810
C63	C	1.192081	0.323105	1.010143
C64	C	0.525421	-0.262942	0.263104
C65	C	0.858754	0.070391	0.596437
C66	C	1.192087	0.403725	0.929770
C67	C	0.602278	-0.262937	0.263099
C68	C	0.935611	0.070396	0.596433
C69	C	1.268945	0.403729	0.929766
C70	C	0.640702	-0.303250	0.303281
C71	C	0.974036	0.030084	0.636614
C72	C	1.307369	0.363417	0.969948
C73	C	0.486986	-0.303256	0.303293
C74	C	0.820320	0.030077	0.636626
C75	C	1.153653	0.363410	0.969960
C76	C	0.403653	-0.303258	0.303301
C77	C	0.736986	0.030075	0.636635
C78	C	1.070319	0.363408	0.969968
C79	C	0.724041	-0.303247	0.303274
C80	C	1.057375	0.030086	0.636607
C81	C	1.390708	0.363419	0.969940
C82	C	1.063385	-0.466797	0.303249
C83	C	1.396718	-0.133464	0.636583
C84	C	1.730052	0.199870	0.969916
C85	C	1.063415	-0.536765	0.303257
C86	C	1.396749	-0.203432	0.636591
C87	C	1.730082	0.129902	0.969924
C88	C	1.110709	-1.036215	0.263124
C89	C	1.444042	-0.702881	0.596457
C90	C	1.777375	-0.369548	0.929790
C91	C	1.110681	-0.970472	0.263109
C92	C	1.444014	-0.637139	0.596442
C93	C	1.777347	-0.303805	0.929776
C94	C	1.063575	-0.937604	0.303323
C95	C	1.396908	-0.604271	0.636657
C96	C	1.730241	-0.270938	0.969990
C97	C	1.016480	-0.970484	0.343544
C98	C	1.349813	-0.637151	0.676878
C99	C	1.683147	-0.303818	1.010211
C100	C	1.016504	-1.036226	0.343553
C101	C	1.349837	-0.702892	0.676887
C102	C	1.683171	-0.369559	1.010220
N103	N	1.057850	-0.834352	0.358406
N104	N	1.391183	-0.501019	0.691740
N105	N	1.724517	-0.167686	1.025073
N106	N	1.057831	-0.771901	0.358396
N107	N	1.391165	-0.438567	0.691729
N108	N	1.724498	-0.105234	1.025062
C109	C	1.063498	-0.739530	0.303297
C110	C	1.396831	-0.406196	0.636630
C111	C	1.730165	-0.072863	0.969964
N112	N	1.069198	-0.771969	0.248208
N113	N	1.402532	-0.438636	0.581541
N114	N	1.735865	-0.105302	0.914875
N115	N	1.069221	-0.834426	0.248219
N116	N	1.402554	-0.501093	0.581553
N117	N	1.735888	-0.167760	0.914886
C118	C	1.063543	-0.866319	0.303317
C119	C	1.396876	-0.532986	0.636651
C120	C	1.730210	-0.199652	0.969984
C121	C	1.110556	-0.635372	0.263059
C122	C	1.443889	-0.302039	0.596393
C123	C	1.777222	0.031295	0.929726
C124	C	1.110523	-0.569628	0.263043
C125	C	1.443856	-0.236295	0.596377
C126	C	1.777189	0.097038	0.929710
C127	C	1.016326	-0.569642	0.343484
C128	C	1.349659	-0.236308	0.676818
C129	C	1.682993	0.097025	1.010151
C130	C	1.016355	-0.635384	0.343495
C131	C	1.349688	-0.302051	0.676828
C132	C	1.683022	0.031282	1.010161
C133	C	1.063474	-0.668245	0.303283
C134	C	1.396807	-0.334912	0.636616
C135	C	1.730141	-0.001579	0.969950
C136	C	1.255424	-0.303256	0.303298
C137	C	1.588757	0.030077	0.636631
C138	C	1.922091	0.363410	0.969964
C139	C	1.337223	-0.303261	0.303306
C140	C	1.670556	0.030072	0.636639
C141	C	2.003889	0.363405	0.969972
C142	C	1.063505	-0.303205	0.467470
C143	C	1.396838	0.030129	0.800803
C144	C	1.730172	0.363462	1.134136
C145	C	1.063519	-0.303187	0.537438
C146	C	1.396853	0.030146	0.870771
C147	C	1.730186	0.363479	1.204104
C148	C	1.063578	-0.139055	0.303323
C149	C	1.396911	0.194278	0.636656
C150	C	1.730244	0.527612	0.969990
C151	C	1.063623	-0.069087	0.303342
C152	C	1.396956	0.264247	0.636675
C153	C	1.730290	0.597580	0.970009
C154	C	1.063480	-0.303240	0.139728
C155	C	1.396813	0.030093	0.473061
C156	C	1.730146	0.363426	0.806394
C157	C	1.063608	-0.303080	0.069760
C158	C	1.396941	0.030253	0.403093
C159	C	1.730274	0.363586	0.736427
C160	C	1.110685	-0.262829	1.036912
C161	C	1.444018	0.070504	1.370246
C162	C	1.777351	0.403838	1.703579
C163	C	1.110679	-0.262844	0.971170
C164	C	1.444012	0.070489	1.304503
C165	C	1.777345	0.403823	1.637836
C166	C	1.063583	-0.303104	0.938277
C167	C	1.396917	0.030229	1.271611
C168	C	1.730250	0.363563	1.604944
C169	C	1.016503	-0.343363	0.971133
C170	C	1.349837	-0.010030	1.304466
C171	C	1.683170	0.323303	1.637800
C172	C	1.016515	-0.343351	1.036874
C173	C	1.349849	-0.010018	1.370208
C174	C	1.683182	0.323315	1.703541
N175	N	0.999142	-0.307948	0.835049
N176	N	1.332475	0.025385	1.168382
N177	N	1.665808	0.358718	1.501715
N178	N	0.999132	-0.307956	0.772597
N179	N	1.332466	0.025377	1.105931
N180	N	1.665799	0.358711	1.439264
C181	C	1.063545	-0.303143	0.740203
C182	C	1.396878	0.030190	1.073536
C183	C	1.730211	0.363523	1.406869
N184	N	1.127968	-0.298311	0.772619
N185	N	1.461302	0.035023	1.105952
N186	N	1.794635	0.368356	1.439285
N187	N	1.127977	-0.298300	0.835076
N188	N	1.461310	0.035034	1.168409
N189	N	1.794644	0.368367	1.501742
C190	C	1.063565	-0.303122	0.866992
C191	C	1.396898	0.030212	1.200325
C192	C	1.730232	0.363545	1.533659
C193	C	1.110619	-0.262906	0.636069
C194	C	1.443952	0.070427	0.969403
C195	C	1.777286	0.403760	1.302736
C196	C	1.110615	-0.262926	0.570325
C197	C	1.443948	0.070407	0.903659
C198	C	1.777281	0.403741	1.236992
C199	C	1.016432	-0.343442	0.570290
C200	C	1.349766	-0.010109	0.903623
C201	C	1.683099	0.323225	1.236957
C202	C	1.016443	-0.343426	0.636033
C203	C	1.349777	-0.010092	0.969366
C204	C	1.683110	0.323241	1.302699
C205	C	1.063536	-0.303155	0.668918
C206	C	1.396869	0.030179	1.002252
C207	C	1.730202	0.363512	1.335585
H208	H	0.633556	-0.376383	0.376189
H209	H	0.966890	-0.043050	0.709522
H210	H	1.300223	0.290283	1.042855
N211	N	1.158802	-0.221709	1.070504
N212	N	1.492136	0.111625	1.403837
N213	N	1.825469	0.444958	1.737171
N214	N	1.205694	-0.243853	1.107183
N215	N	1.539027	0.089480	1.440516
N216	N	1.872360	0.422813	1.773849
H217	H	1.239679	-0.214814	1.130909
H218	H	1.573012	0.118519	1.464242
H219	H	1.906346	0.451853	1.797576
H220	H	0.978161	-1.062990	0.376306
H221	H	1.311495	-0.729657	0.709639
H222	H	1.644828	-0.396323	1.042973
H223	H	0.978179	-0.376130	1.063619
H224	H	1.311512	-0.042797	1.396952
H225	H	1.644845	0.290537	1.730285
N226	N	1.158773	-0.221722	0.937617
N227	N	1.492107	0.111611	1.270950
N228	N	1.825440	0.444944	1.604283
N229	N	1.200815	-0.185771	0.966987
N230	N	1.534149	0.147562	1.300320
N231	N	1.867482	0.480895	1.633653
H232	H	1.234782	-0.156728	0.943292
H233	H	1.568115	0.176606	1.276625
H234	H	1.901448	0.509939	1.609959
N235	N	0.968365	-0.936924	0.384633
N236	N	1.301698	-0.603590	0.717966
N237	N	1.635032	-0.270257	1.051299
N238	N	0.926329	-0.966285	0.420543
N239	N	1.259662	-0.632952	0.753877
N240	N	1.592996	-0.299619	1.087210
H241	H	0.892344	-0.942584	0.449563
H242	H	1.225678	-0.609251	0.782896
H243	H	1.559011	-0.275918	1.116230
N244	N	0.486181	-0.221770	0.222049
N245	N	0.819514	0.111563	0.555383
N246	N	1.152848	0.444897	0.888716
N247	N	0.520504	-0.185782	0.186170
N248	N	0.853838	0.147551	0.519503
N249	N	1.187171	0.480885	0.852837
H250	H	0.492793	-0.156704	0.157173
H251	H	0.826127	0.176630	0.490506
H252	H	1.159460	0.509963	0.823839
N253	N	0.968405	-0.384488	0.937528
N254	N	1.301738	-0.051154	1.270861
N255	N	1.635071	0.282179	1.604195
N256	N	0.968399	-0.384493	0.878831
N257	N	1.301732	-0.051159	1.212164
N258	N	1.635066	0.282174	1.545498
H259	H	0.934430	-0.413540	0.855097
H260	H	1.267764	-0.080206	1.188430
H261	H	1.601097	0.253127	1.521763
N262	N	1.158722	-0.221767	0.669656
N263	N	1.492055	0.111567	1.002989
N264	N	1.825389	0.444900	1.336323
N265	N	1.200756	-0.185831	0.640316
N266	N	1.534089	0.147502	0.973650
N267	N	1.867423	0.480835	1.306983
H268	H	1.234728	-0.156774	0.664035
H269	H	1.568061	0.176559	0.997368
H270	H	1.901395	0.509892	1.330701
N271	N	1.158677	-0.668950	0.221986
N272	N	1.492011	-0.335617	0.555320
N273	N	1.825344	-0.002283	0.888653
N274	N	1.205573	-0.705586	0.244175
N275	N	1.538906	-0.372253	0.577508
N276	N	1.872240	-0.038919	0.910842
H277	H	1.239559	-0.729299	0.215166
H278	H	1.572892	-0.395966	0.548500
H279	H	1.906226	-0.062632	0.881833
H280	H	1.148863	-0.542863	0.230289
H281	H	1.482196	-0.209530	0.563623
H282	H	1.815530	0.123804	0.896956
N283	N	0.641538	-0.221750	0.222055
N284	N	0.974871	0.111583	0.555389
N285	N	1.308205	0.444916	0.888722
N286	N	0.632986	-0.163670	0.226338
N287	N	0.966319	0.169663	0.559671
N288	N	1.299653	0.502996	0.893005
H289	H	0.660714	-0.134581	0.197355
H290	H	0.994047	0.198753	0.530688
H291	H	1.327381	0.532086	0.864021
H292	H	1.149074	-1.062966	0.230378
H293	H	1.482407	-0.729633	0.563712
H294	H	1.815741	-0.396299	0.897045
H295	H	0.978105	-0.376200	0.662777
H296	H	1.311439	-0.042867	0.996111
H297	H	1.644772	0.290466	1.329444
H298	H	1.148955	-0.230150	0.543582
H299	H	1.482289	0.103183	0.876915
H300	H	1.815622	0.436516	1.210249
H301	H	1.149025	-0.943703	0.230357
H302	H	1.482358	-0.610369	0.563691
H303	H	1.815691	-0.277036	0.897024
H304	H	0.977968	-0.542881	0.376225
H305	H	1.311302	-0.209548	0.709558
H306	H	1.644635	0.123785	1.042892
N307	N	0.968254	-0.668956	0.384582
N308	N	1.301588	-0.335623	0.717915
N309	N	1.634921	-0.002290	1.051249
N310	N	0.926195	-0.639606	0.420484
N311	N	1.259529	-0.306272	0.753817
N312	N	1.592862	0.027061	1.087150
H313	H	0.892220	-0.663315	0.449503
H314	H	1.225553	-0.329982	0.782836
H315	H	1.558886	0.003351	1.116169
N316	N	0.968321	-0.384558	0.536692
N317	N	1.301654	-0.051224	0.870025
N318	N	1.634987	0.282109	1.203358
N319	N	0.921433	-0.362412	0.500010
N320	N	1.254766	-0.029079	0.833343
N321	N	1.588099	0.304254	1.166677
H322	H	0.887452	-0.391451	0.476278
H323	H	1.220786	-0.058118	0.809612
H324	H	1.554119	0.275215	1.142945
N325	N	0.486172	-0.384738	0.384534
N326	N	0.819505	-0.051405	0.717868
N327	N	1.152839	0.281928	1.051201
N328	N	0.520492	-0.420723	0.420408
N329	N	0.853825	-0.087390	0.753741
N330	N	1.187158	0.245943	1.087075
H331	H	0.492777	-0.449805	0.449409
H332	H	0.826111	-0.116472	0.782742
H333	H	1.159444	0.216861	1.116075
