data_functionalizedCrystal
_audit_creation_method	'MofGen! by Chris Wilmer'
_symmetry_space_group_name_H-M	'P1'
_symmetry_Int_Tables_number	1
_symmetry_cell_setting	triclinic
loop_
_symmetry_equiv_pos_as_xyz
  x,y,z
_cell_length_a	14.908520
_cell_length_b	14.908571
_cell_length_c	14.908308
_cell_angle_alpha	90.175053
_cell_angle_beta	96.360765
_cell_angle_gamma	90.205961
loop_
_atom_site_label
_atom_site_type_symbol
_atom_site_fract_x
_atom_site_fract_y
_atom_site_fract_z
Zn1	Zn	-0.470613	1.316651	-0.613065
Zn2	Zn	-0.613252	1.316549	-0.470429
Zn3	Zn	-0.453291	1.176020	-0.453125
Zn4	Zn	-0.612180	1.157642	-0.612023
O5	O	-0.537334	1.241715	-0.537161
O6	O	-0.497231	1.441995	-0.601822
O7	O	-0.585232	1.305556	-0.341941
O8	O	-0.329399	1.202409	-0.467536
O9	O	-0.602028	1.441920	-0.497029
O10	O	-0.342124	1.305730	-0.585043
O11	O	-0.467710	1.202310	-0.329228
O12	O	-0.466671	1.048225	-0.466525
O13	O	-0.600202	1.171086	-0.738354
O14	O	-0.583406	1.034722	-0.583267
O15	O	-0.496192	1.287909	-0.739120
O16	O	-0.739300	1.287736	-0.496018
O17	O	-0.738513	1.170987	-0.600046
C18	C	-0.523043	1.008970	-0.522906
C19	C	-0.516953	0.909397	-0.516830
C20	C	-0.627234	0.708277	-0.626831
C21	C	-0.621514	0.614720	-0.621125
C22	C	-0.499789	0.628723	-0.499719
C23	C	-0.505509	0.722281	-0.505424
C24	C	-0.569235	0.762054	-0.568981
C25	C	-0.574958	0.855613	-0.574682
C26	C	-0.453230	0.869615	-0.453280
C27	C	-0.447510	0.776058	-0.447575
C28	C	-0.771629	1.227379	-0.549818
C29	C	-0.871868	1.221326	-0.555268
C30	C	-1.060998	1.331634	-0.457284
C31	C	-1.155181	1.325950	-0.462402
C32	C	-1.154420	1.204279	-0.570626
C33	C	-1.060237	1.209963	-0.565508
C34	C	-1.013529	1.273642	-0.508834
C35	C	-0.919343	1.279321	-0.503712
C36	C	-0.918584	1.157655	-0.611940
C37	C	-1.012768	1.151970	-0.617058
C38	C	-0.302127	1.256131	-0.524476
C39	C	-0.201896	1.262274	-0.519070
C40	C	-0.550010	1.227459	-0.772372
C41	C	-0.555411	1.221383	-0.872606
C42	C	-0.551681	1.475370	-0.551472
C43	C	-0.557795	1.574939	-0.557571
C44	C	-0.457236	1.331614	-1.061752
C45	C	-0.462308	1.325908	-1.155930
C46	C	-0.570623	1.204264	-1.155141
C47	C	-0.565551	1.209969	-1.060963
C48	C	-0.508856	1.273647	-1.014272
C49	C	-0.503789	1.279356	-0.920093
C50	C	-0.612099	1.157708	-0.919305
C51	C	-0.617171	1.152002	-1.013483
C52	C	-0.524646	1.255972	-0.302864
C53	C	-0.519001	1.262236	-0.202628
H54	H	-0.395624	0.743661	-0.395831
H55	H	-1.192467	1.152440	-0.616773
H56	H	-0.679126	0.740661	-0.678577
Cl57	Cl	-1.214855	1.398860	-0.397596
H58	H	-0.457627	1.331207	-0.882079
H59	H	-0.626848	0.887995	-0.626432
Cl60	Cl	-1.071495	1.071924	-0.688303
H61	H	-1.022967	1.383478	-0.411132
Cl62	Cl	-0.380319	0.937226	-0.380544
H63	H	-0.881314	1.331169	-0.457563
H64	H	-0.663328	1.100156	-1.051511
Cl65	Cl	-0.641883	1.124213	-1.213853
Cl66	Cl	-0.419672	0.578707	-0.419838
Cl67	Cl	-0.694429	0.547117	-0.693855
H68	H	-0.879924	1.110431	-0.653913
Cl69	Cl	-0.385975	1.411672	-1.003053
H70	H	-0.420271	1.373109	-1.194585
Cl71	Cl	-0.677007	1.084840	-0.859611
