data_functionalizedCrystal
_audit_creation_method	'MofGen! by Chris Wilmer'
_symmetry_space_group_name_H-M	'P1'
_symmetry_Int_Tables_number	1
_symmetry_cell_setting	triclinic
loop_
_symmetry_equiv_pos_as_xyz
  x,y,z
_cell_length_a	25.639242
_cell_length_b	25.639239
_cell_length_c	25.639233
_cell_angle_alpha	90.018747
_cell_angle_beta	89.977834
_cell_angle_gamma	89.965787
loop_
_atom_site_label
_atom_site_type_symbol
_atom_site_fract_x
_atom_site_fract_y
_atom_site_fract_z
Zn1	Zn	0.799225	0.208277	-0.295742
Zn2	Zn	0.799149	0.295696	-0.208307
Zn3	Zn	0.711801	0.208269	-0.208306
Zn4	Zn	0.711746	0.295676	-0.295696
O5	O	0.755480	0.251979	-0.252013
O6	O	0.872380	0.219884	-0.284163
O7	O	0.787553	0.284103	-0.135141
O8	O	0.723453	0.135105	-0.219924
O9	O	0.872324	0.284111	-0.219924
O10	O	0.787683	0.135111	-0.284163
O11	O	0.723379	0.219871	-0.135141
O12	O	0.638629	0.219853	-0.219880
O13	O	0.723360	0.284078	-0.368868
O14	O	0.638589	0.284070	-0.284085
O15	O	0.787630	0.219866	-0.368901
O16	O	0.787499	0.368858	-0.219880
O17	O	0.723286	0.368844	-0.284085
C18	C	0.755392	0.387822	-0.251989
C19	C	0.755403	0.445936	-0.251996
C20	C	0.619638	0.251959	-0.251977
C21	C	0.561524	0.251963	-0.251975
C22	C	0.755497	0.251970	-0.388386
C23	C	0.755504	0.251966	-0.446500
C24	C	0.201149	0.285473	-0.285413
C25	C	0.146544	0.285477	-0.285421
O26	O	0.118297	0.313943	-0.313821
N27	N	0.119241	0.251994	-0.252047
C28	C	0.146545	0.218502	-0.218666
O29	O	0.118308	0.190022	-0.190280
C30	C	0.201149	0.218496	-0.218661
C31	C	0.228449	0.251985	-0.252034
C32	C	0.228449	0.318959	-0.318783
C33	C	0.283049	0.318956	-0.318774
C34	C	0.310350	0.285468	-0.285395
C35	C	0.283049	0.251983	-0.252024
C36	C	0.228452	0.185002	-0.185283
C37	C	0.283059	0.185000	-0.185281
C38	C	0.310359	0.218488	-0.218654
C39	C	0.364950	0.218492	-0.218636
N40	N	0.392253	0.251974	-0.252010
C41	C	0.364953	0.285463	-0.285389
C42	C	0.031875	0.218515	-0.218680
C43	C	-0.022728	0.218523	-0.218683
C44	C	-0.022725	0.285497	-0.285438
C45	C	0.031878	0.285492	-0.285433
C46	C	0.059178	0.251998	-0.252054
C47	C	0.479618	0.285455	-0.285368
C48	C	0.534223	0.285451	-0.285354
C49	C	0.534216	0.218475	-0.218601
C50	C	0.479615	0.218481	-0.218612
C51	C	0.452318	0.251972	-0.252000
O52	O	0.393232	0.190038	-0.190252
O53	O	0.393197	0.313933	-0.313776
C54	C	0.891853	0.252000	-0.252049
C55	C	0.949967	0.252009	-0.252064
C56	C	0.755583	0.115606	-0.252048
C57	C	0.755627	0.057492	-0.252064
C58	C	0.789004	0.806294	-0.218638
C59	C	0.789024	0.860898	-0.218645
O60	O	0.817502	0.889131	-0.190257
N61	N	0.755572	0.888218	-0.252048
C62	C	0.722102	0.860932	-0.285449
O63	O	0.693651	0.889184	-0.313861
C64	C	0.722085	0.806328	-0.285444
C65	C	0.755535	0.779011	-0.252036
C66	C	0.822452	0.778976	-0.185233
C67	C	0.822431	0.724376	-0.185226
C68	C	0.788962	0.697093	-0.218623
C69	C	0.755514	0.724410	-0.252028
C70	C	0.688617	0.779042	-0.318847
C71	C	0.688603	0.724435	-0.318840
C72	C	0.722053	0.697118	-0.285432
C73	C	0.722024	0.642527	-0.285418
N74	N	0.755475	0.615206	-0.252016
C75	C	0.788944	0.642490	-0.218618
C76	C	0.722141	0.975602	-0.285457
C77	C	0.722155	1.030204	-0.285459
C78	C	0.789078	1.030167	-0.218656
C79	C	0.789061	0.975564	-0.218652
C80	C	0.755593	0.948282	-0.252055
C81	C	0.788897	0.527824	-0.218605
C82	C	0.788872	0.473219	-0.218599
C83	C	0.721951	0.473261	-0.285403
C84	C	0.721974	0.527862	-0.285408
C85	C	0.755452	0.555142	-0.252007
O86	O	0.693562	0.614260	-0.313793
O87	O	0.817396	0.614231	-0.190216
C88	C	0.789012	0.218432	-0.806886
C89	C	0.789019	0.218417	-0.861491
O90	O	0.817466	0.189967	-0.889747
N91	N	0.755562	0.251844	-0.888783
C92	C	0.722093	0.285283	-0.861468
O93	O	0.693636	0.313713	-0.889695
C94	C	0.722084	0.285294	-0.806864
C95	C	0.755547	0.251870	-0.779575
C96	C	0.822472	0.185009	-0.779597
C97	C	0.822466	0.185025	-0.724997
C98	C	0.789000	0.218462	-0.697685
C99	C	0.755541	0.251885	-0.724974
C100	C	0.688613	0.318731	-0.779550
C101	C	0.688607	0.318739	-0.724943
C102	C	0.722069	0.285314	-0.697654
C103	C	0.722070	0.285338	-0.643063
N104	N	0.755526	0.251912	-0.615771
C105	C	0.788992	0.218474	-0.643082
C106	C	0.722113	0.285256	-0.976138
C107	C	0.722124	0.285247	-1.030741
C108	C	0.789049	0.218381	-1.030760
C109	C	0.789041	0.218392	-0.976157
C110	C	0.755570	0.251829	-0.948846
C111	C	0.788977	0.218509	-0.528417
C112	C	0.788970	0.218529	-0.473811
C113	C	0.722043	0.285393	-0.473797
C114	C	0.722052	0.285375	-0.528397
C115	C	0.755521	0.251929	-0.555706
O116	O	0.693635	0.313773	-0.614771
O117	O	0.817439	0.190044	-0.614847
C118	C	0.755494	0.251951	-0.116170
C119	C	0.755588	0.251807	-0.058057
H120	H	0.556449	0.312723	-0.312530
O121	O	0.821515	0.186094	-0.554997
C122	C	0.855277	0.215857	-0.586578
H123	H	0.836807	0.255473	-0.594758
H124	H	0.894013	0.221618	-0.565540
C125	C	0.887465	0.138416	-0.628400
C126	C	0.864778	0.187071	-0.638450
H127	H	0.893328	0.120659	-0.660395
H128	H	0.864721	0.118363	-0.607122
H129	H	0.919743	0.143223	-0.610867
H130	H	0.832498	0.182263	-0.655976
H131	H	0.887517	0.207122	-0.659732
O132	O	0.058449	0.186056	-0.186222
C133	C	0.089991	0.215771	-0.152385
H134	H	0.098165	0.255418	-0.170755
H135	H	0.068920	0.221465	-0.113634
C136	C	0.131824	0.138286	-0.120395
C137	C	0.141868	0.186980	-0.142958
H138	H	0.163824	0.120526	-0.114577
H139	H	0.110573	0.118266	-0.143189
H140	H	0.114265	0.143038	-0.088104
H141	H	0.159422	0.182228	-0.175251
H142	H	0.163124	0.206999	-0.120169
O143	O	0.309635	0.152537	-0.152829
C144	C	0.341175	0.182252	-0.118990
H145	H	0.349345	0.221902	-0.137356
H146	H	0.320106	0.187939	-0.080238
C147	C	0.383018	0.104768	-0.087009
C148	C	0.393056	0.153465	-0.109568
H149	H	0.415020	0.087011	-0.081195
H150	H	0.361768	0.084748	-0.109806
H151	H	0.365459	0.109515	-0.054718
H152	H	0.410608	0.148718	-0.141862
H153	H	0.414310	0.173484	-0.086777
H154	H	0.694857	0.312487	-0.953905
H155	H	0.457387	0.191213	-0.191436
O156	O	0.855007	0.152598	-0.806181
C157	C	0.888771	0.182361	-0.837760
H158	H	0.870303	0.221978	-0.845938
H159	H	0.927507	0.188119	-0.816720
C160	C	0.920959	0.104920	-0.879583
C161	C	0.898273	0.153577	-0.889632
H162	H	0.926822	0.087165	-0.911580
H163	H	0.898213	0.084868	-0.858307
H164	H	0.953236	0.109726	-0.862049
H165	H	0.865994	0.148771	-0.907160
H166	H	0.921014	0.173628	-0.910912
H167	H	0.849714	0.157806	-0.702783
H168	H	0.206233	0.157734	-0.158106
H169	H	0.816333	1.052391	-0.191464
O170	O	0.689641	1.056657	-0.317957
C171	C	0.660089	1.020860	-0.347420
H172	H	0.681491	0.981917	-0.349245
H173	H	0.620391	1.015099	-0.328229
C174	C	0.626233	1.089977	-0.400822
C175	C	0.652522	1.042147	-0.403067
H176	H	0.621563	1.103108	-0.435146
H177	H	0.646141	1.114094	-0.380971
H178	H	0.593155	1.085169	-0.384827
H179	H	0.685602	1.046957	-0.419055
H180	H	0.632619	1.018031	-0.422921
O181	O	-0.049306	0.185979	-0.186328
C182	C	-0.080853	0.152243	-0.216151
H183	H	-0.089022	0.170734	-0.255746
H184	H	-0.059790	0.113501	-0.221954
C185	C	-0.122696	0.120041	-0.138772
C186	C	-0.132734	0.142753	-0.187402
H187	H	-0.154698	0.114184	-0.121038
H188	H	-0.101441	0.142768	-0.118679
H189	H	-0.105143	0.087758	-0.143615
H190	H	-0.150281	0.175038	-0.182558
H191	H	-0.153993	0.120031	-0.207493
H192	H	0.661376	0.801275	-0.346049
H193	H	0.849709	0.801185	-0.158037
O194	O	0.689502	0.317864	-0.554828
C195	C	0.659976	0.347392	-0.519011
H196	H	0.658180	0.325988	-0.480087
H197	H	0.679093	0.387105	-0.513210
C198	C	0.606530	0.381202	-0.588107
C199	C	0.604321	0.354911	-0.540302
H200	H	0.572200	0.385842	-0.601241
H201	H	0.626423	0.361310	-0.612239
H202	H	0.622463	0.414293	-0.583267
H203	H	0.588394	0.321817	-0.545145
H204	H	0.584424	0.374797	-0.516172
H205	H	0.661350	0.702225	-0.346042
H206	H	0.556454	0.191211	-0.191422
O207	O	0.821605	0.949111	-0.186185
C208	C	0.851136	0.984907	-0.156699
H209	H	0.852940	1.023819	-0.178123
H210	H	0.832016	0.990749	-0.116971
C211	C	0.904565	0.915764	-0.122906
C212	C	0.906786	0.963554	-0.149220
H213	H	0.938892	0.902592	-0.118290
H214	H	0.884669	0.891646	-0.142769
H215	H	0.888630	0.920638	-0.089802
H216	H	0.922715	0.958678	-0.182326
H217	H	0.926686	0.987670	-0.129362
O218	O	-0.049331	0.317976	-0.317851
C219	C	-0.103378	0.310804	-0.310688
H220	H	-0.110817	0.270430	-0.293635
H221	H	-0.118906	0.341776	-0.282792
C222	C	-0.122255	0.365256	-0.384528
C223	C	-0.131392	0.315666	-0.363586
H224	H	-0.139536	0.368257	-0.417157
H225	H	-0.085842	0.370090	-0.389353
H226	H	-0.135194	0.391061	-0.361276
H227	H	-0.118447	0.289862	-0.386835
H228	H	-0.167803	0.310828	-0.358767
H229	H	0.816111	0.450979	-0.191392
H230	H	0.457399	0.312726	-0.312556
H231	H	0.816159	0.550030	-0.191408
O232	O	0.689573	0.317737	-1.057165
C233	C	0.660048	0.347261	-1.021344
H234	H	0.658252	0.325852	-0.982423
H235	H	0.679165	0.386974	-1.015538
C236	C	0.606602	0.381079	-1.090436
C237	C	0.604393	0.354783	-1.042634
H238	H	0.572272	0.385722	-1.103569
H239	H	0.626495	0.361191	-1.114570
H240	H	0.622535	0.414171	-1.085591
H241	H	0.588466	0.321690	-1.047480
H242	H	0.584496	0.374667	-1.018501
O243	O	0.854979	0.697924	-0.152762
C244	C	0.884513	0.733723	-0.123283
H245	H	0.886312	0.772634	-0.144707
H246	H	0.865400	0.739565	-0.083552
C247	C	0.937952	0.664583	-0.089496
C248	C	0.940165	0.712373	-0.115813
H249	H	0.972280	0.651413	-0.084886
H250	H	0.918054	0.640464	-0.109355
H251	H	0.922022	0.669458	-0.056390
H252	H	0.956089	0.707497	-0.148921
H253	H	0.960068	0.736491	-0.095959
H254	H	0.206227	0.346229	-0.345967
O255	O	0.656054	0.351214	-0.805969
C256	C	0.626526	0.380731	-0.770144
H257	H	0.624738	0.359320	-0.731224
H258	H	0.645637	0.420446	-0.764337
C259	C	0.573069	0.414543	-0.839230
C260	C	0.570868	0.388244	-0.791429
H261	H	0.538737	0.419180	-0.852360
H262	H	0.592963	0.394659	-0.863367
H263	H	0.588996	0.447637	-0.834385
H264	H	0.554947	0.355148	-0.796276
H265	H	0.550970	0.408123	-0.767294
H266	H	0.694883	0.953392	-0.312656
H267	H	0.694738	0.550105	-0.312613
H268	H	0.694699	0.451039	-0.312594
H269	H	0.816221	0.191310	-0.451595
H270	H	0.694798	0.312619	-0.451550
H271	H	0.816288	0.191174	-0.953941
H272	H	0.816298	0.191153	-1.053007
H273	H	0.305272	0.346225	-0.345950
H274	H	0.054103	0.312760	-0.312609
H275	H	0.661345	0.345963	-0.702710
