data_functionalizedCrystal
_audit_creation_method	'MofGen! by Chris Wilmer'
_symmetry_space_group_name_H-M	'P1'
_symmetry_Int_Tables_number	1
_symmetry_cell_setting	triclinic
loop_
_symmetry_equiv_pos_as_xyz
  x,y,z
_cell_length_a	21.395364
_cell_length_b	18.050589
_cell_length_c	21.395356
_cell_angle_alpha	89.977927
_cell_angle_beta	89.976411
_cell_angle_gamma	90.043172
loop_
_atom_site_label
_atom_site_type_symbol
_atom_site_fract_x
_atom_site_fract_y
_atom_site_fract_z
Zn1	Zn	0.957864	-0.295382	-0.354286
Zn2	Zn	1.457864	0.204618	0.145714
Zn3	Zn	0.957773	-0.419574	-0.249519
Zn4	Zn	1.457773	0.080426	0.250481
Zn5	Zn	0.853081	-0.295434	-0.249523
Zn6	Zn	1.353081	0.204566	0.250477
Zn7	Zn	0.853053	-0.419567	-0.354259
Zn8	Zn	1.353053	0.080433	0.145741
O9	O	0.905443	-0.357489	-0.301897
O10	O	1.405443	0.142511	0.198103
O11	O	1.045530	-0.311837	-0.340398
O12	O	1.545530	0.188163	0.159602
O13	O	0.943859	-0.403131	-0.161841
O14	O	1.443859	0.096869	0.338159
O15	O	0.867030	-0.191503	-0.263433
O16	O	1.367030	0.308497	0.236567
O17	O	1.045463	-0.403080	-0.263426
O18	O	1.545463	0.096920	0.236574
O19	O	0.944014	-0.191464	-0.340402
O20	O	1.444014	0.308536	0.159598
O21	O	0.866942	-0.311926	-0.161844
O22	O	1.366942	0.188074	0.338156
O23	O	0.765399	-0.311920	-0.263406
O24	O	1.265399	0.188080	0.236594
O25	O	0.866983	-0.403069	-0.441940
O26	O	1.366983	0.096931	0.058060
O27	O	0.765379	-0.403120	-0.340356
O28	O	1.265379	0.096880	0.159644
O29	O	0.943987	-0.311831	-0.441960
O30	O	1.443987	0.188169	0.058040
O31	O	0.943832	-0.523497	-0.263400
O32	O	1.443832	-0.023497	0.236600
O33	O	0.866894	-0.523493	-0.340352
O34	O	1.366894	-0.023493	0.159648
C35	C	0.742655	-0.357525	-0.301879
C36	C	1.242655	0.142475	0.198121
C37	C	0.673014	-0.357559	-0.301886
C38	C	1.173014	0.142441	0.198114
C39	C	0.640358	-0.310126	-0.342028
C40	C	1.140358	0.189874	0.157972
C41	C	0.574923	-0.310107	-0.342030
C42	C	1.074923	0.189893	0.157970
C43	C	0.542145	-0.357533	-0.301898
C44	C	1.042145	0.142467	0.198102
C45	C	0.574809	-0.404968	-0.261749
C46	C	1.074809	0.095032	0.238251
C47	C	0.640243	-0.404982	-0.261743
C48	C	1.140243	0.095018	0.238257
C49	C	0.438424	-0.424414	-0.296866
C50	C	0.938424	0.075586	0.203134
C51	C	0.372991	-0.424402	-0.296876
C52	C	0.872991	0.075598	0.203124
C53	C	0.340325	-0.357492	-0.301912
C54	C	0.840325	0.142508	0.198088
C55	C	0.373100	-0.290591	-0.306951
C56	C	0.873100	0.209409	0.193049
C57	C	0.438534	-0.290604	-0.306945
C58	C	0.938534	0.209396	0.193055
C59	C	0.471193	-0.357523	-0.301899
C60	C	0.971193	0.142477	0.198101
C61	C	0.236716	-0.310034	-0.342058
C62	C	0.736716	0.189966	0.157942
C63	C	0.171280	-0.310013	-0.342056
C64	C	0.671280	0.189987	0.157944
C65	C	0.171168	-0.404881	-0.261778
C66	C	0.671168	0.095119	0.238222
C67	C	0.236603	-0.404896	-0.261776
C68	C	0.736603	0.095104	0.238224
C69	C	0.269373	-0.357473	-0.301920
C70	C	0.769373	0.142527	0.198080
C71	C	0.905367	-0.550442	-0.301886
C72	C	1.405367	-0.050442	0.198114
C73	C	0.905392	-0.632987	-0.301903
C74	C	1.405392	-0.132987	0.198097
C75	C	0.863595	-0.832462	-0.343735
C76	C	1.363595	-0.332462	0.156265
C77	C	0.848317	-0.881905	-0.286561
C78	C	1.348317	-0.381905	0.213439
C79	C	0.905454	-0.784118	-0.301911
C80	C	1.405454	-0.284118	0.198089
C81	C	0.920762	-0.881756	-0.359090
C82	C	1.420762	-0.381756	0.140910
C83	C	0.905512	-0.930103	-0.301924
C84	C	1.405512	-0.430103	0.198076
C85	C	0.890146	-0.832474	-0.244707
C86	C	1.390146	-0.332474	0.255293
C87	C	0.962617	-0.832320	-0.317275
C88	C	1.462617	-0.332320	0.182725
C89	C	0.947362	-0.881741	-0.260062
C90	C	1.447362	-0.381741	0.239938
C91	C	0.905418	-0.700019	-0.301904
C92	C	1.405418	-0.200019	0.198096
C93	C	0.905547	-1.014199	-0.301924
C94	C	1.405547	-0.514199	0.198076
C95	C	1.068866	-0.357454	-0.301915
C96	C	1.568866	0.142546	0.198085
C97	C	1.138507	-0.357438	-0.301922
C98	C	1.638507	0.142562	0.198078
C99	C	0.905536	-0.163784	-0.301921
C100	C	1.405536	0.336216	0.198079
C101	C	0.905575	-0.081238	-0.301931
C102	C	1.405575	0.418762	0.198069
C103	C	0.905492	-0.357443	-0.465320
C104	C	1.405492	0.142557	0.034680
C105	C	0.905513	-0.357424	-0.534961
C106	C	1.405513	0.142576	-0.034961
C107	C	0.865473	-0.309928	-0.567666
C108	C	1.365473	0.190072	-0.067666
C109	C	0.865471	-0.309914	-0.633101
C110	C	1.365471	0.190086	-0.133101
C111	C	0.905520	-0.357388	-0.665830
C112	C	1.405520	0.142612	-0.165830
C113	C	0.945563	-0.404893	-0.633117
C114	C	1.445563	0.095107	-0.133117
C115	C	0.945559	-0.404911	-0.567683
C116	C	1.445559	0.095089	-0.067683
C117	C	0.961972	-0.363210	-0.769516
C118	C	1.461972	0.136790	-0.269516
C119	C	0.961977	-0.363187	-0.834949
C120	C	1.461977	0.136813	-0.334949
C121	C	0.905530	-0.357338	-0.867650
C122	C	1.405530	0.142662	-0.367650
C123	C	0.849078	-0.351497	-0.834910
C124	C	1.349078	0.148503	-0.334910
C125	C	0.849074	-0.351515	-0.769476
C126	C	1.349074	0.148485	-0.269476
C127	C	0.905528	-0.357375	-0.736782
C128	C	1.405528	0.142625	-0.236782
C129	C	0.865485	-0.309825	-0.971308
C130	C	1.365485	0.190175	-0.471308
C131	C	0.865481	-0.309817	-1.036744
C132	C	1.365481	0.190183	-0.536744
C133	C	0.945579	-0.404792	-1.036759
C134	C	1.445579	0.095208	-0.536759
C135	C	0.945576	-0.404804	-0.971323
C136	C	1.445576	0.095196	-0.471323
C137	C	0.905530	-0.357317	-0.938602
C138	C	1.405530	0.142683	-0.438602
C139	C	0.905430	-0.357482	-0.139109
C140	C	1.405430	0.142518	0.360891
C141	C	0.905530	-0.357292	-0.069468
C142	C	1.405530	0.142708	0.430532
H143	H	0.666831	-0.443608	-0.229054
H144	H	1.166831	0.056392	0.270946
H145	H	0.933686	-0.903404	-0.407442
H146	H	1.433686	-0.403404	0.092558
C147	C	0.337523	-0.497107	-0.291366
C148	C	0.837523	0.002893	0.208634
C149	C	0.380133	-0.555704	-0.286927
C150	C	0.880133	-0.055704	0.213073
C151	C	0.347484	-0.622690	-0.281841
C152	C	0.847484	-0.122690	0.218159
H153	H	0.312007	-0.503796	-0.327248
H154	H	0.812007	-0.003796	0.172752
H155	H	0.311993	-0.496112	-0.255034
H156	H	0.811993	0.003888	0.244966
H157	H	0.405652	-0.556699	-0.323256
H158	H	0.905652	-0.056699	0.176744
H159	H	0.405650	-0.549039	-0.251046
H160	H	0.905650	-0.049039	0.248954
H161	H	0.321954	-0.621696	-0.245509
H162	H	0.821954	-0.121696	0.254491
H163	H	0.321970	-0.629372	-0.317724
H164	H	0.821970	-0.129372	0.182276
H165	H	0.376390	-0.662456	-0.278823
H166	H	0.876390	-0.162456	0.221177
C167	C	0.816229	-0.803643	-0.390746
C168	C	1.316229	-0.303643	0.109254
C169	C	0.756494	-0.828758	-0.374370
C170	C	1.256494	-0.328758	0.125630
C171	C	0.712844	-0.802215	-0.417654
C172	C	1.212844	-0.302215	0.082346
H173	H	0.826601	-0.821225	-0.431282
H174	H	1.326601	-0.321225	0.068718
H175	H	0.816762	-0.751013	-0.390671
H176	H	1.316762	-0.251013	0.109329
H177	H	0.755963	-0.881376	-0.374452
H178	H	1.255963	-0.381376	0.125548
H179	H	0.746103	-0.811178	-0.333842
H180	H	1.246103	-0.311178	0.166158
H181	H	0.713377	-0.749585	-0.417580
H182	H	1.213377	-0.249585	0.082420
H183	H	0.723221	-0.819799	-0.458188
H184	H	1.223221	-0.319799	0.041812
H185	H	0.672308	-0.819246	-0.406546
H186	H	1.172308	-0.319246	0.093454
H187	H	0.978183	-0.443478	-0.944695
H188	H	1.478183	0.056522	-0.444695
H189	H	0.832872	-0.271142	-1.063372
H190	H	1.332872	0.228858	-0.563372
H191	H	0.978167	-0.443587	-0.541055
H192	H	1.478167	0.056413	-0.041055
H193	H	1.007944	-0.367939	-0.861601
H194	H	1.507944	0.132061	-0.361601
H195	H	0.832862	-0.271263	-0.541028
H196	H	1.332862	0.228737	-0.041028
H197	H	0.144481	-0.443496	-0.229101
H198	H	0.644481	0.056504	0.270899
H199	H	0.144692	-0.271383	-0.374743
H200	H	0.644692	0.228617	0.125257
C201	C	0.787824	-0.345303	-0.733850
C202	C	1.287824	0.154697	-0.233850
C203	C	0.779846	-0.408117	-0.696262
C204	C	1.279846	0.091883	-0.196262
C205	C	0.723433	-0.402420	-0.663428
C206	C	1.223433	0.097580	-0.163428
H207	H	0.754150	-0.341849	-0.762620
H208	H	1.254150	0.158151	-0.262620
H209	H	0.788650	-0.302284	-0.708292
H210	H	1.288650	0.197716	-0.208292
H211	H	0.779015	-0.451124	-0.721818
H212	H	1.279015	0.048876	-0.221818
H213	H	0.813506	-0.411583	-0.667480
H214	H	1.313506	0.088417	-0.167480
H215	H	0.724259	-0.359401	-0.637871
H216	H	1.224259	0.140599	-0.137871
H217	H	0.689763	-0.398965	-0.692203
H218	H	1.189763	0.101035	-0.192203
H219	H	0.718015	-0.445035	-0.637917
H220	H	1.218015	0.054965	-0.137917
H221	H	0.667036	-0.271510	-0.374715
H222	H	1.167036	0.228490	0.125285
H223	H	0.832867	-0.271234	-0.659735
H224	H	1.332867	0.228766	-0.159735
H225	H	0.803114	-0.346729	-0.861534
H226	H	1.303114	0.153271	-0.361534
H227	H	0.800003	-0.903702	-0.273578
H228	H	1.300003	-0.403702	0.226422
H229	H	0.877166	-0.810915	-0.196343
H230	H	1.377166	-0.310915	0.303657
H231	H	0.978189	-0.443444	-1.063405
H232	H	1.478189	0.056556	-0.563405
H233	H	0.982785	-0.903242	-0.224658
H234	H	1.482785	-0.403242	0.275342
C235	C	1.023329	-0.369532	-0.734129
C236	C	1.523329	0.130468	-0.234129
C237	C	1.072768	-0.374617	-0.776804
C238	C	1.572768	0.125383	-0.276804
C239	C	1.129297	-0.380435	-0.744229
C240	C	1.629297	0.119565	-0.244229
H241	H	1.022583	-0.412585	-0.708595
H242	H	1.522583	0.087415	-0.208595
H243	H	1.028891	-0.326963	-0.708624
H244	H	1.528891	0.173037	-0.208624
H245	H	1.067209	-0.417182	-0.802298
H246	H	1.567209	0.082818	-0.302298
H247	H	1.073535	-0.331569	-0.802339
H248	H	1.573535	0.168431	-0.302339
H249	H	1.134858	-0.337866	-0.718723
H250	H	1.634858	0.162134	-0.218723
H251	H	1.128544	-0.423488	-0.718696
H252	H	1.628544	0.076512	-0.218696
H253	H	1.162849	-0.383879	-0.773178
H254	H	1.662849	0.116121	-0.273178
H255	H	0.548329	-0.271478	-0.374717
H256	H	1.048329	0.228522	0.125283
C257	C	1.027001	-0.803292	-0.334749
C258	C	1.527001	-0.303292	0.165251
C259	C	1.042758	-0.828202	-0.394682
C260	C	1.542758	-0.328202	0.105318
C261	C	1.102060	-0.801467	-0.410811
C262	C	1.602060	-0.301467	0.089189
H263	H	1.056926	-0.820881	-0.305520
H264	H	1.556926	-0.320881	0.194480
H265	H	1.026612	-0.750665	-0.334276
H266	H	1.526612	-0.250665	0.165724
H267	H	1.043152	-0.880818	-0.395150
H268	H	1.543152	-0.380818	0.104850
H269	H	1.012849	-0.810615	-0.423925
H270	H	1.512849	-0.310615	0.076075
H271	H	1.101670	-0.748839	-0.410337
H272	H	1.601670	-0.248839	0.089663
H273	H	1.131979	-0.819057	-0.381577
H274	H	1.631979	-0.319057	0.118423
H275	H	1.112756	-0.818358	-0.451478
H276	H	1.612756	-0.318358	0.048522
H277	H	0.832876	-0.271159	-0.944664
H278	H	1.332876	0.228841	-0.444664
H279	H	0.978171	-0.443547	-0.659768
H280	H	1.478171	0.056453	-0.159768
H281	H	0.465217	-0.236132	-0.311046
H282	H	0.965217	0.263868	0.188954
H283	H	0.263399	-0.271415	-0.374741
H284	H	0.763399	0.228585	0.125259
C285	C	0.337681	-0.217927	-0.312549
C286	C	0.837681	0.282073	0.187451
C287	C	0.353642	-0.183190	-0.368865
C288	C	0.853642	0.316810	0.131135
C289	C	0.321019	-0.116257	-0.374050
C290	C	0.821019	0.383743	0.125950
H291	H	0.348390	-0.186554	-0.278560
H292	H	0.848390	0.313446	0.221440
H293	H	0.294010	-0.227464	-0.311864
H294	H	0.794010	0.272536	0.188136
H295	H	0.397303	-0.173649	-0.369544
H296	H	0.897303	0.326351	0.130456
H297	H	0.342931	-0.214541	-0.402864
H298	H	0.842931	0.285459	0.097136
H299	H	0.277348	-0.125794	-0.373366
H300	H	0.777348	0.374206	0.126634
H301	H	0.331731	-0.084890	-0.340058
H302	H	0.831731	0.415110	0.159942
H303	H	0.331840	-0.092682	-0.412263
H304	H	0.831840	0.407318	0.087737
H305	H	0.263192	-0.443523	-0.229091
H306	H	0.763192	0.056477	0.270909
C307	C	0.473969	-0.497019	-0.291500
C308	C	0.973969	0.002981	0.208500
C309	C	0.511565	-0.506530	-0.344466
C310	C	1.011565	-0.006530	0.155534
C311	C	0.544324	-0.573397	-0.339541
C312	C	1.044324	-0.073397	0.160459
H313	H	0.445153	-0.536926	-0.288532
H314	H	0.945153	-0.036926	0.211468
H315	H	0.499514	-0.496012	-0.255199
H316	H	0.999514	0.003988	0.244801
H317	H	0.486022	-0.507544	-0.380757
H318	H	0.986022	-0.007544	0.119243
H319	H	0.540392	-0.466640	-0.347444
H320	H	1.040392	0.033360	0.152556
H321	H	0.569869	-0.572389	-0.303240
H322	H	1.069869	-0.072389	0.196760
H323	H	0.515504	-0.613298	-0.336572
H324	H	1.015504	-0.113298	0.163428
H325	H	0.569842	-0.579855	-0.375474
H326	H	1.069842	-0.079855	0.124526
C327	C	0.539306	-0.456583	-0.218213
C328	C	1.039306	0.043417	0.281787
C329	C	0.555187	-0.530085	-0.231738
C330	C	1.055187	-0.030085	0.268262
C331	C	0.522500	-0.577651	-0.191638
C332	C	1.022500	-0.077651	0.308362
H333	H	0.495648	-0.449885	-0.223927
H334	H	0.995648	0.050115	0.276073
H335	H	0.550029	-0.445694	-0.176119
H336	H	1.050029	0.054306	0.323881
H337	H	0.544460	-0.540969	-0.273822
H338	H	1.044460	-0.040969	0.226178
H339	H	0.598838	-0.536806	-0.226021
H340	H	1.098838	-0.036806	0.273979
H341	H	0.533223	-0.566762	-0.149544
H342	H	1.033223	-0.066762	0.350456
H343	H	0.478845	-0.570946	-0.197354
H344	H	0.978845	-0.070946	0.302646
H345	H	0.533275	-0.627526	-0.200805
H346	H	1.033275	-0.127526	0.299195
