data_functionalizedCrystal
_audit_creation_method	'MofGen! by Chris Wilmer'
_symmetry_space_group_name_H-M	'P1'
_symmetry_Int_Tables_number	1
_symmetry_cell_setting	triclinic
loop_
_symmetry_equiv_pos_as_xyz
  x,y,z
_cell_length_a	21.395362
_cell_length_b	19.077068
_cell_length_c	21.395356
_cell_angle_alpha	92.269849
_cell_angle_beta	89.957023
_cell_angle_gamma	92.343691
loop_
_atom_site_label
_atom_site_type_symbol
_atom_site_fract_x
_atom_site_fract_y
_atom_site_fract_z
Zn1	Zn	0.947857	-0.279924	-0.364584
Zn2	Zn	1.197857	-0.029924	-0.114584
Zn3	Zn	1.447857	0.220076	0.135416
Zn4	Zn	1.697857	0.470076	0.385416
Zn5	Zn	0.943558	-0.397624	-0.264010
Zn6	Zn	1.193558	-0.147624	-0.014010
Zn7	Zn	1.443558	0.102376	0.235990
Zn8	Zn	1.693558	0.352376	0.485990
Zn9	Zn	0.843072	-0.279976	-0.259787
Zn10	Zn	1.093072	-0.029976	-0.009787
Zn11	Zn	1.343072	0.220024	0.240213
Zn12	Zn	1.593072	0.470024	0.490213
Zn13	Zn	0.838838	-0.397620	-0.368715
Zn14	Zn	1.088838	-0.147620	-0.118715
Zn15	Zn	1.338838	0.102380	0.131285
Zn16	Zn	1.588838	0.352380	0.381285
O17	O	0.893331	-0.338786	-0.314274
O18	O	1.143331	-0.088786	-0.064274
O19	O	1.393331	0.161214	0.185726
O20	O	1.643331	0.411214	0.435726
O21	O	1.034965	-0.295518	-0.351281
O22	O	1.284965	-0.045518	-0.101281
O23	O	1.534965	0.204482	0.148719
O24	O	1.784965	0.454482	0.398719
O25	O	0.930201	-0.382041	-0.175773
O26	O	1.180201	-0.132041	0.074227
O27	O	1.430201	0.117959	0.324227
O28	O	1.680201	0.367959	0.574227
O29	O	0.860543	-0.181477	-0.270192
O30	O	1.110543	0.068523	-0.020192
O31	O	1.360543	0.318523	0.229808
O32	O	1.610543	0.568523	0.479808
O33	O	1.031807	-0.381991	-0.277390
O34	O	1.281807	-0.131991	-0.027390
O35	O	1.531807	0.118009	0.222610
O36	O	1.781807	0.368009	0.472610
O37	O	0.937528	-0.181439	-0.347186
O38	O	1.187528	0.068561	-0.097186
O39	O	1.437528	0.318561	0.152814
O40	O	1.687528	0.568561	0.402814
O41	O	0.856374	-0.295606	-0.172670
O42	O	1.106374	-0.045606	0.077330
O43	O	1.356374	0.204394	0.327330
O44	O	1.606374	0.454394	0.577330
O45	O	0.754831	-0.295601	-0.274198
O46	O	1.004831	-0.045601	-0.024198
O47	O	1.254831	0.204399	0.225802
O48	O	1.504831	0.454399	0.475802
O49	O	0.853327	-0.381984	-0.455844
O50	O	1.103327	-0.131984	-0.205844
O51	O	1.353327	0.118016	0.044156
O52	O	1.603327	0.368016	0.294156
O53	O	0.751721	-0.382034	-0.354227
O54	O	1.001721	-0.132034	-0.104227
O55	O	1.251721	0.117966	0.145773
O56	O	1.501721	0.367966	0.395773
O57	O	0.933423	-0.295514	-0.452809
O58	O	1.183423	-0.045514	-0.202809
O59	O	1.433423	0.204486	0.047191
O60	O	1.683423	0.454486	0.297191
O61	O	0.926095	-0.496116	-0.281396
O62	O	1.176095	-0.246116	-0.031396
O63	O	1.426095	0.003884	0.218604
O64	O	1.676095	0.253884	0.468604
O65	O	0.849158	-0.496113	-0.358322
O66	O	1.099158	-0.246113	-0.108322
O67	O	1.349158	0.003887	0.141678
O68	O	1.599158	0.253887	0.391678
C69	C	0.730542	-0.338823	-0.314203
C70	C	0.980542	-0.088823	-0.064203
C71	C	1.230542	0.161177	0.185797
C72	C	1.480542	0.411177	0.435797
C73	C	0.660900	-0.338856	-0.314188
C74	C	0.910900	-0.088856	-0.064188
C75	C	1.160900	0.161144	0.185812
C76	C	1.410900	0.411144	0.435812
C77	C	0.626581	-0.383921	-0.355801
C78	C	0.876581	-0.133921	-0.105801
C79	C	1.126581	0.116079	0.144199
C80	C	1.376581	0.366079	0.394199
C81	C	0.561146	-0.383904	-0.355828
C82	C	0.811146	-0.133904	-0.105828
C83	C	1.061146	0.116096	0.144172
C84	C	1.311146	0.366096	0.394172
C85	C	0.530032	-0.338829	-0.314231
C86	C	0.780032	-0.088829	-0.064231
C87	C	1.030032	0.161171	0.185769
C88	C	1.280032	0.411171	0.435769
C89	C	0.564359	-0.293755	-0.272615
C90	C	0.814359	-0.043755	-0.022615
C91	C	1.064359	0.206245	0.227385
C92	C	1.314359	0.456245	0.477385
C93	C	0.629793	-0.293769	-0.272593
C94	C	0.879793	-0.043769	-0.022593
C95	C	1.129793	0.206231	0.227407
C96	C	1.379793	0.456231	0.477407
C97	C	0.426511	-0.333169	-0.257624
C98	C	0.676511	-0.083169	-0.007624
C99	C	0.926511	0.166831	0.242376
C100	C	1.176511	0.416831	0.492376
C101	C	0.361078	-0.333161	-0.257645
C102	C	0.611078	-0.083161	-0.007645
C103	C	0.861078	0.166839	0.242355
C104	C	1.111078	0.416839	0.492355
C105	C	0.328213	-0.338783	-0.314299
C106	C	0.578213	-0.088783	-0.064299
C107	C	0.828213	0.161217	0.185701
C108	C	1.078213	0.411217	0.435701
C109	C	0.360789	-0.344429	-0.370934
C110	C	0.610789	-0.094429	-0.120934
C111	C	0.860789	0.155571	0.129066
C112	C	1.110789	0.405571	0.379066
C113	C	0.426222	-0.344443	-0.370912
C114	C	0.676222	-0.094443	-0.120912
C115	C	0.926222	0.155557	0.129088
C116	C	1.176222	0.405557	0.379088
C117	C	0.459081	-0.338809	-0.314251
C118	C	0.709081	-0.088809	-0.064251
C119	C	0.959081	0.161191	0.185749
C120	C	1.209081	0.411191	0.435749
C121	C	0.222943	-0.383832	-0.355945
C122	C	0.472943	-0.133832	-0.105945
C123	C	0.722943	0.116168	0.144055
C124	C	0.972943	0.366168	0.394055
C125	C	0.157507	-0.383810	-0.355973
C126	C	0.407507	-0.133810	-0.105973
C127	C	0.657507	0.116190	0.144027
C128	C	0.907507	0.366190	0.394027
C129	C	0.160721	-0.293665	-0.272755
C130	C	0.410721	-0.043665	-0.022755
C131	C	0.660721	0.206335	0.227245
C132	C	0.910721	0.456335	0.477245
C133	C	0.226156	-0.293683	-0.272732
C134	C	0.476156	-0.043683	-0.022732
C135	C	0.726156	0.206317	0.227268
C136	C	0.976156	0.456317	0.477268
C137	C	0.257262	-0.338771	-0.314326
C138	C	0.507262	-0.088771	-0.064326
C139	C	0.757262	0.161229	0.185674
C140	C	1.007262	0.411229	0.435674
C141	C	0.886718	-0.521652	-0.320779
C142	C	1.136718	-0.271652	-0.070779
C143	C	1.386718	-0.021652	0.179221
C144	C	1.636718	0.228348	0.429221
C145	C	0.883946	-0.599883	-0.323583
C146	C	1.133946	-0.349883	-0.073583
C147	C	1.383946	-0.099883	0.176417
C148	C	1.633946	0.150117	0.426417
C149	C	0.922732	-0.636615	-0.284883
C150	C	1.172732	-0.386615	-0.034883
C151	C	1.422732	-0.136615	0.215117
C152	C	1.672732	0.113385	0.465117
C153	C	0.920129	-0.710121	-0.287523
C154	C	1.170129	-0.460121	-0.037523
C155	C	1.420129	-0.210121	0.212477
C156	C	1.670129	0.039879	0.462477
C157	C	0.878736	-0.746895	-0.328862
C158	C	1.128736	-0.496895	-0.078862
C159	C	1.378736	-0.246895	0.171138
C160	C	1.628736	0.003105	0.421138
C161	C	0.839948	-0.710158	-0.367567
C162	C	1.089948	-0.460158	-0.117567
C163	C	1.339948	-0.210158	0.132433
C164	C	1.589948	0.039842	0.382433
C165	C	0.842555	-0.636653	-0.364929
C166	C	1.092555	-0.386653	-0.114929
C167	C	1.342555	-0.136653	0.135071
C168	C	1.592555	0.113347	0.385071
C169	C	0.866643	-0.966733	-0.341047
C170	C	1.116643	-0.716733	-0.091047
C171	C	1.366643	-0.466733	0.158953
C172	C	1.616643	-0.216733	0.408953
C173	C	0.864038	-1.040243	-0.343681
C174	C	1.114038	-0.790243	-0.093681
C175	C	1.364038	-0.540243	0.156319
C176	C	1.614038	-0.290243	0.406319
C177	C	0.944219	-1.040201	-0.263637
C178	C	1.194219	-0.790201	-0.013637
C179	C	1.444219	-0.540201	0.236363
C180	C	1.694219	-0.290201	0.486363
C181	C	0.946820	-0.966695	-0.261000
C182	C	1.196820	-0.716695	-0.011000
C183	C	1.446820	-0.466695	0.239000
C184	C	1.696820	-0.216695	0.489000
C185	C	0.908035	-0.929965	-0.299707
C186	C	1.158035	-0.679965	-0.049707
C187	C	1.408035	-0.429965	0.200293
C188	C	1.658035	-0.179965	0.450293
N189	N	0.876072	-0.822030	-0.331561
N190	N	1.126072	-0.572030	-0.081561
N191	N	1.376072	-0.322030	0.168439
N192	N	1.626072	-0.072030	0.418439
N193	N	0.910702	-0.854831	-0.297011
N194	N	1.160702	-0.604831	-0.047011
N195	N	1.410702	-0.354831	0.202989
N196	N	1.660702	-0.104831	0.452989
C197	C	1.056756	-0.338749	-0.314346
C198	C	1.306756	-0.088749	-0.064346
C199	C	1.556756	0.161251	0.185654
C200	C	1.806756	0.411251	0.435654
C201	C	1.126398	-0.338734	-0.314377
C202	C	1.376398	-0.088734	-0.064377
C203	C	1.626398	0.161266	0.185623
C204	C	1.876398	0.411266	0.435623
C205	C	0.893382	-0.338743	-0.477696
C206	C	1.143382	-0.088743	-0.227696
C207	C	1.393382	0.161257	0.022304
C208	C	1.643382	0.411257	0.272304
C209	C	0.893404	-0.338724	-0.547337
C210	C	1.143404	-0.088724	-0.297337
C211	C	1.393404	0.161276	-0.047337
C212	C	1.643404	0.411276	0.202663
C213	C	0.899987	-0.155206	-0.307757
C214	C	1.149987	0.094794	-0.057757
C215	C	1.399987	0.344794	0.192243
C216	C	1.649987	0.594794	0.442243
C217	C	0.902824	-0.076975	-0.304980
C218	C	1.152824	0.173025	-0.054980
C219	C	1.402824	0.423025	0.195020
C220	C	1.652824	0.673025	0.445020
C221	C	0.854973	-0.293712	-0.578424
C222	C	1.104973	-0.043712	-0.328424
C223	C	1.354973	0.206288	-0.078424
C224	C	1.604973	0.456288	0.171576
C225	C	0.854971	-0.293699	-0.643859
C226	C	1.104971	-0.043699	-0.393859
C227	C	1.354971	0.206301	-0.143859
C228	C	1.604971	0.456301	0.106141
C229	C	0.893412	-0.338690	-0.678204
C230	C	1.143412	-0.088690	-0.428204
C231	C	1.393412	0.161310	-0.178204
C232	C	1.643412	0.411310	0.071796
C233	C	0.931845	-0.383711	-0.647109
C234	C	1.181845	-0.133711	-0.397109
C235	C	1.431845	0.116289	-0.147109
C236	C	1.681845	0.366289	0.102891
C237	C	0.931841	-0.383728	-0.581675
C238	C	1.181841	-0.133728	-0.331675
C239	C	1.431841	0.116272	-0.081675
C240	C	1.681841	0.366272	0.168325
C241	C	0.949667	-0.344206	-0.782106
C242	C	1.199667	-0.094206	-0.532106
C243	C	1.449667	0.155794	-0.282106
C244	C	1.699667	0.405794	-0.032106
C245	C	0.949672	-0.344185	-0.847538
C246	C	1.199672	-0.094185	-0.597538
C247	C	1.449672	0.155815	-0.347538
C248	C	1.699672	0.405815	-0.097538
C249	C	0.893424	-0.338643	-0.880023
C250	C	1.143424	-0.088643	-0.630023
C251	C	1.393424	0.161357	-0.380023
C252	C	1.643424	0.411357	-0.130023
C253	C	0.837169	-0.333108	-0.847067
C254	C	1.087169	-0.083108	-0.597067
C255	C	1.337169	0.166892	-0.347067
C256	C	1.587169	0.416892	-0.097067
C257	C	0.837165	-0.333125	-0.781633
C258	C	1.087165	-0.083125	-0.531633
C259	C	1.337165	0.166875	-0.281633
C260	C	1.587165	0.416875	-0.031633
C261	C	0.893420	-0.338678	-0.749156
C262	C	1.143420	-0.088678	-0.499156
C263	C	1.393420	0.161322	-0.249156
C264	C	1.643420	0.411322	0.000844
C265	C	0.854988	-0.293614	-0.982062
C266	C	1.104988	-0.043614	-0.732062
C267	C	1.354988	0.206386	-0.482062
C268	C	1.604988	0.456386	-0.232062
C269	C	0.854985	-0.293606	-1.047499
C270	C	1.104985	-0.043606	-0.797499
C271	C	1.354985	0.206394	-0.547499
C272	C	1.604985	0.456394	-0.297499
C273	C	0.931864	-0.383615	-1.050747
C274	C	1.181864	-0.133615	-0.800747
C275	C	1.431864	0.116385	-0.550747
C276	C	1.681864	0.366385	-0.300747
C277	C	0.931862	-0.383627	-0.985312
C278	C	1.181862	-0.133627	-0.735312
C279	C	1.431862	0.116373	-0.485312
C280	C	1.681862	0.366373	-0.235312
C281	C	0.893424	-0.338623	-0.950973
C282	C	1.143424	-0.088623	-0.700973
C283	C	1.393424	0.161377	-0.450973
C284	C	1.643424	0.411377	-0.200973
C285	C	0.893318	-0.338779	-0.151486
C286	C	1.143318	-0.088779	0.098514
C287	C	1.393318	0.161221	0.348514
C288	C	1.643318	0.411221	0.598514
C289	C	0.893425	-0.338599	-0.081839
C290	C	1.143425	-0.088599	0.168161
C291	C	1.393425	0.161401	0.418161
C292	C	1.643425	0.411401	0.668161
H293	H	0.254098	-0.256990	-0.238843
H294	H	0.504098	-0.006990	0.011157
H295	H	0.754098	0.243010	0.261157
H296	H	1.004098	0.493010	0.511157
H297	H	0.963158	-0.420279	-0.960001
H298	H	1.213158	-0.170279	-0.710001
H299	H	1.463158	0.079721	-0.460001
H300	H	1.713158	0.329721	-0.210001
H301	H	0.334032	-0.349006	-0.417067
H302	H	0.584032	-0.099006	-0.167067
H303	H	0.834032	0.150994	0.082933
H304	H	1.084032	0.400994	0.332933
Cl305	Cl	0.811989	-1.086472	-0.395646
Cl306	Cl	1.061989	-0.836472	-0.145646
Cl307	Cl	1.311989	-0.586472	0.104354
Cl308	Cl	1.561989	-0.336472	0.354354
Cl309	Cl	0.766448	-0.326172	-0.740205
Cl310	Cl	1.016448	-0.076172	-0.490205
Cl311	Cl	1.266448	0.173828	-0.240205
Cl312	Cl	1.516448	0.423828	0.009795
H313	H	0.835061	-0.936833	-0.372563
H314	H	1.085061	-0.686833	-0.122563
H315	H	1.335061	-0.436833	0.127437
H316	H	1.585061	-0.186833	0.377437
H317	H	0.248271	-0.420541	-0.389817
H318	H	0.498271	-0.170541	-0.139817
H319	H	0.748271	0.079459	0.110183
H320	H	0.998271	0.329459	0.360183
H321	H	0.452743	-0.349038	-0.417027
H322	H	0.702743	-0.099038	-0.167027
H323	H	0.952743	0.150962	0.082973
H324	H	1.202743	0.400962	0.332973
Cl325	Cl	0.968893	-0.756295	-0.238871
Cl326	Cl	1.218893	-0.506295	0.011129
Cl327	Cl	1.468893	-0.256295	0.261129
Cl328	Cl	1.718893	-0.006295	0.511129
Cl329	Cl	0.787914	-0.756388	-0.419540
Cl330	Cl	1.037914	-0.506388	-0.169540
Cl331	Cl	1.287914	-0.256388	0.080460
Cl332	Cl	1.537914	-0.006388	0.330460
Cl333	Cl	0.467819	-0.326103	-0.186394
Cl334	Cl	0.717819	-0.076103	0.063606
Cl335	Cl	0.967819	0.173897	0.313606
Cl336	Cl	1.217819	0.423897	0.563606
H337	H	0.791367	-0.328591	-0.873514
H338	H	1.041367	-0.078591	-0.623514
H339	H	1.291367	0.171409	-0.373514
H340	H	1.541367	0.421409	-0.123514
Cl341	Cl	0.992979	-1.086380	-0.214984
Cl342	Cl	1.242979	-0.836380	0.035016
Cl343	Cl	1.492979	-0.586380	0.285016
Cl344	Cl	1.742979	-0.336380	0.535016
H345	H	0.539022	-0.257054	-0.238748
H346	H	0.789022	-0.007054	0.011252
H347	H	1.039022	0.242946	0.261252
H348	H	1.289022	0.492946	0.511252
Cl349	Cl	0.806669	-0.237092	-0.682948
Cl350	Cl	1.056669	0.012908	-0.432948
Cl351	Cl	1.306669	0.262908	-0.182948
Cl352	Cl	1.556669	0.512908	0.067052
H353	H	0.810972	-0.606747	-0.396444
H354	H	1.060972	-0.356747	-0.146444
H355	H	1.310972	-0.106747	0.103556
H356	H	1.560972	0.143253	0.353556
H357	H	0.651904	-0.420634	-0.389671
H358	H	0.901904	-0.170634	-0.139671
H359	H	1.151904	0.079366	0.110329
H360	H	1.401904	0.329366	0.360329
H361	H	0.995475	-0.348713	-0.755662
H362	H	1.245475	-0.098713	-0.505662
H363	H	1.495475	0.151287	-0.255662
H364	H	1.745475	0.401287	-0.005662
H365	H	0.980525	-0.936755	-0.227339
H366	H	1.230525	-0.686755	0.022661
H367	H	1.480525	-0.436755	0.272661
H368	H	1.730525	-0.186755	0.522661
Cl369	Cl	0.806664	-0.237043	-0.938891
Cl370	Cl	1.056664	0.012957	-0.688891
Cl371	Cl	1.306664	0.262957	-0.438891
Cl372	Cl	1.556664	0.512957	-0.188891
H373	H	0.995478	-0.348688	-0.874366
H374	H	1.245478	-0.098688	-0.624366
H375	H	1.495478	0.151312	-0.374366
H376	H	1.745478	0.401312	-0.124366
H377	H	0.963143	-0.420344	-0.675076
H378	H	1.213143	-0.170344	-0.425076
H379	H	1.463143	0.079656	-0.175076
H380	H	1.713143	0.329656	0.074924
H381	H	0.963138	-0.420382	-0.556364
H382	H	1.213138	-0.170382	-0.306364
H383	H	1.463138	0.079618	-0.056364
H384	H	1.713138	0.329618	0.193636
H385	H	0.956436	-0.606679	-0.251217
H386	H	1.206436	-0.356679	-0.001217
H387	H	1.456436	-0.106679	0.248783
H388	H	1.706436	0.143321	0.498783
H389	H	0.135389	-0.256961	-0.238889
H390	H	0.385389	-0.006961	0.011111
H391	H	0.635389	0.243039	0.261111
H392	H	0.885389	0.493039	0.511111
H393	H	0.823686	-0.256954	-1.072809
H394	H	1.073686	-0.006954	-0.822809
H395	H	1.323686	0.243046	-0.572809
H396	H	1.573686	0.493046	-0.322809
Cl397	Cl	0.806649	-0.237139	-0.535259
Cl398	Cl	1.056649	0.012861	-0.285259
Cl399	Cl	1.306649	0.262861	-0.035259
Cl400	Cl	1.556649	0.512861	0.214741
H401	H	0.533199	-0.420601	-0.389717
H402	H	0.783199	-0.170601	-0.139717
H403	H	1.033199	0.079399	0.110283
H404	H	1.283199	0.329399	0.360283
Cl405	Cl	0.672938	-0.237111	-0.220275
Cl406	Cl	0.922938	0.012889	0.029725
Cl407	Cl	1.172938	0.262889	0.279725
Cl408	Cl	1.422938	0.512889	0.529725
Cl409	Cl	0.114363	-0.440465	-0.408296
Cl410	Cl	0.364363	-0.190465	-0.158296
Cl411	Cl	0.614363	0.059535	0.091704
Cl412	Cl	0.864363	0.309535	0.341704
H413	H	0.334560	-0.328568	-0.211529
H414	H	0.584560	-0.078568	0.038471
H415	H	0.834560	0.171432	0.288471
H416	H	1.084560	0.421432	0.538471
Cl417	Cl	0.980186	-0.440182	-1.093917
Cl418	Cl	1.230186	-0.190182	-0.843917
Cl419	Cl	1.480186	0.059818	-0.593917
Cl420	Cl	1.730186	0.309818	-0.343917
