data_functionalizedCrystal
_audit_creation_method	'MofGen! by Chris Wilmer'
_symmetry_space_group_name_H-M	'P1'
_symmetry_Int_Tables_number	1
_symmetry_cell_setting	triclinic
loop_
_symmetry_equiv_pos_as_xyz
  x,y,z
_cell_length_a	19.288864
_cell_length_b	10.065918
_cell_length_c	19.288865
_cell_angle_alpha	99.849149
_cell_angle_beta	83.136245
_cell_angle_gamma	99.901568
loop_
_atom_site_label
_atom_site_type_symbol
_atom_site_fract_x
_atom_site_fract_y
_atom_site_fract_z
O1	O	0.930471	0.113954	0.095719
O2	O	1.263805	0.447287	0.429053
O3	O	1.597138	0.780621	0.762386
O4	O	0.728203	0.113863	0.107401
O5	O	1.061537	0.447196	0.440734
O6	O	1.394870	0.780529	0.774068
O7	O	0.835180	0.113884	0.000428
O8	O	1.168513	0.447217	0.333761
O9	O	1.501846	0.780551	0.667095
O10	O	0.823495	0.113933	0.202692
O11	O	1.156828	0.447266	0.536026
O12	O	1.490162	0.780599	0.869359
O13	O	0.816997	-0.113118	-0.017647
O14	O	1.150330	0.220216	0.315687
O15	O	1.483664	0.553549	0.649020
O16	O	0.710021	-0.113139	0.089326
O17	O	1.043354	0.220194	0.422660
O18	O	1.376687	0.553528	0.755993
O19	O	0.912289	-0.113048	0.077645
O20	O	1.245622	0.220286	0.410978
O21	O	1.578955	0.553619	0.744311
Zn22	Zn	0.808268	-0.149135	0.080616
Zn23	Zn	1.141601	0.184199	0.413949
Zn24	Zn	1.474934	0.517532	0.747282
Zn25	Zn	0.832224	0.149950	0.104430
Zn26	Zn	1.165558	0.483283	0.437763
Zn27	Zn	1.498891	0.816616	0.771097
O28	O	0.805312	-0.113069	0.184618
O29	O	1.138646	0.220264	0.517951
O30	O	1.471979	0.553598	0.851284
C31	C	0.693235	0.000350	0.097987
C32	C	1.026568	0.333683	0.431320
C33	C	1.359901	0.667016	0.764653
C34	C	0.616128	0.000314	0.096855
C35	C	0.949461	0.333647	0.430188
C36	C	1.282795	0.666981	0.763521
N37	N	0.791923	-0.353252	0.064363
N38	N	1.125256	-0.019919	0.397696
N39	N	1.458590	0.313415	0.731030
C40	C	0.571435	0.000350	0.159625
C41	C	0.904768	0.333684	0.492959
C42	C	1.238101	0.667017	0.826292
C43	C	0.498989	0.000365	0.158566
C44	C	0.832322	0.333699	0.491899
C45	C	1.165656	0.667032	0.825233
C46	C	0.471242	0.000371	0.094734
C47	C	0.804575	0.333704	0.428068
C48	C	1.137908	0.667038	0.761401
C49	C	0.515944	0.000327	0.031955
C50	C	0.849278	0.333660	0.365288
C51	C	1.182611	0.666993	0.698621
C52	C	0.588388	0.000298	0.033015
C53	C	0.921721	0.333631	0.366348
C54	C	1.255054	0.666965	0.699681
C55	C	0.369353	0.079933	0.050890
C56	C	0.702686	0.413267	0.384223
C57	C	1.036019	0.746600	0.717557
C58	C	0.296911	0.079970	0.049833
C59	C	0.630245	0.413304	0.383167
C60	C	0.963578	0.746637	0.716500
C61	C	0.247803	0.000453	0.091461
C62	C	0.581136	0.333786	0.424794
C63	C	0.914469	0.667119	0.758128
C64	C	0.271145	-0.079084	0.134159
C65	C	0.604478	0.254249	0.467492
C66	C	0.937811	0.587582	0.800826
C67	C	0.343588	-0.079113	0.135219
C68	C	0.676921	0.254221	0.468553
C69	C	1.010254	0.587554	0.801886
C70	C	0.392690	0.000401	0.093578
C71	C	0.726024	0.333734	0.426911
C72	C	1.059357	0.667068	0.760244
C73	C	0.124555	0.000503	0.153087
C74	C	0.457888	0.333837	0.486421
C75	C	0.791221	0.667170	0.819754
C76	C	0.052107	0.000510	0.152024
C77	C	0.385440	0.333843	0.485358
C78	C	0.718774	0.667177	0.818691
C79	C	0.069065	0.000485	0.025412
C80	C	0.402399	0.333818	0.358746
C81	C	0.735732	0.667152	0.692079
C82	C	0.141510	0.000465	0.026476
C83	C	0.474843	0.333798	0.359809
C84	C	0.808177	0.667131	0.693143
C85	C	0.169251	0.000481	0.090316
C86	C	0.502584	0.333814	0.423649
C87	C	0.835917	0.667147	0.756982
C88	C	0.826533	-0.421006	0.098775
C89	C	1.159866	-0.087673	0.432109
C90	C	1.493199	0.245661	0.765442
C91	C	0.813960	-0.578182	0.086260
C92	C	1.147293	-0.244849	0.419593
C93	C	1.480626	0.088484	0.752927
C94	C	0.947258	0.000468	0.087059
C95	C	1.280591	0.333802	0.420393
C96	C	1.613924	0.667135	0.753726
C97	C	1.024365	0.000513	0.088192
C98	C	1.357698	0.333846	0.421525
C99	C	1.691031	0.667180	0.754859
C100	C	0.825712	0.000379	-0.034486
C101	C	1.159045	0.333712	0.298847
C102	C	1.492379	0.667046	0.632180
C103	C	0.824582	0.000366	-0.111591
C104	C	1.157915	0.333700	0.221743
C105	C	1.491249	0.667033	0.555076
N106	N	0.848574	0.354067	0.120677
N107	N	1.181908	0.687400	0.454011
N108	N	1.515241	1.020734	0.787344
C109	C	0.887352	0.000388	-0.156285
C110	C	1.220685	0.333721	0.177048
C111	C	1.554018	0.667055	0.510381
C112	C	0.886293	0.000409	-0.228731
C113	C	1.219626	0.333742	0.104603
C114	C	1.552959	0.667076	0.437936
C115	C	0.822458	0.000381	-0.256481
C116	C	1.155792	0.333715	0.076853
C117	C	1.489125	0.667048	0.410186
C118	C	0.759681	0.000367	-0.211775
C119	C	1.093014	0.333701	0.121558
C120	C	1.426348	0.667034	0.454891
C121	C	0.760743	0.000360	-0.139331
C122	C	1.094076	0.333693	0.194003
C123	C	1.427409	0.667026	0.527336
C124	C	0.765908	-0.079155	-0.371101
C125	C	1.099241	0.254178	-0.037768
C126	C	1.432575	0.587511	0.295566
C127	C	0.764848	-0.079156	-0.443545
C128	C	1.098181	0.254177	-0.110212
C129	C	1.431515	0.587510	0.223121
C130	C	0.819181	0.000410	-0.479924
C131	C	1.152514	0.333744	-0.146590
C132	C	1.485848	0.667077	0.186743
C133	C	0.874584	0.079960	-0.443852
C134	C	1.207918	0.413293	-0.110518
C135	C	1.541251	0.746627	0.222815
C136	C	0.875646	0.079953	-0.371407
C137	C	1.208979	0.413286	-0.038073
C138	C	1.542313	0.746619	0.295260
C139	C	0.821300	0.000390	-0.335034
C140	C	1.154633	0.333723	-0.001700
C141	C	1.487966	0.667057	0.331633
C142	C	0.880807	0.000457	-0.603172
C143	C	1.214140	0.333790	-0.269839
C144	C	1.547473	0.667123	0.063494
C145	C	0.879746	0.000486	-0.675618
C146	C	1.213079	0.333820	-0.342285
C147	C	1.546412	0.667153	-0.008951
C148	C	0.753131	0.000431	-0.658662
C149	C	1.086465	0.333764	-0.325329
C150	C	1.419798	0.667097	0.008004
C151	C	0.754195	0.000415	-0.586217
C152	C	1.087528	0.333748	-0.252884
C153	C	1.420862	0.667082	0.080450
C154	C	0.818034	0.000421	-0.558477
C155	C	1.151368	0.333755	-0.225144
C156	C	1.484701	0.667088	0.108189
C157	C	0.814780	0.000439	0.219532
C158	C	1.148114	0.333772	0.552865
C159	C	1.481447	0.667106	0.886199
C160	C	0.815911	0.000461	0.296637
C161	C	1.149244	0.333794	0.629971
C162	C	1.482578	0.667127	0.963304
H163	H	0.594016	0.000366	0.211609
H164	H	0.927350	0.333699	0.544942
H165	H	1.260683	0.667033	0.878276
H166	H	0.493350	0.000350	-0.020016
H167	H	0.826683	0.333683	0.313317
H168	H	1.160016	0.667017	0.646650
O169	O	0.450775	0.000399	0.226273
O170	O	0.784108	0.333733	0.559607
O171	O	1.117441	0.667066	0.892940
H172	H	0.395739	0.000405	0.214808
H173	H	0.729073	0.333739	0.548142
H174	H	1.062406	0.667072	0.881475
H175	H	0.701157	0.000415	-0.681255
H176	H	1.034490	0.333748	-0.347921
H177	H	1.367823	0.667081	-0.014588
H178	H	0.887518	-0.587585	0.159406
H179	H	1.220851	-0.254252	0.492739
H180	H	1.554184	0.079082	0.826072
H181	H	0.752986	-0.411607	0.025634
H182	H	1.086319	-0.078274	0.358967
H183	H	1.419653	0.255059	0.692301
H184	H	0.624778	0.000269	-0.018102
H185	H	0.958111	0.333602	0.315231
H186	H	1.291444	0.666936	0.648564
H187	H	0.721661	-0.143955	-0.341488
H188	H	1.054994	0.189378	-0.008155
H189	H	1.388328	0.522711	0.325179
H190	H	0.932789	0.000468	-0.580585
H191	H	1.266122	0.333802	-0.247252
H192	H	1.599456	0.667135	0.086082
H193	H	0.277913	0.144740	0.015069
H194	H	0.611246	0.478073	0.348403
H195	H	0.944579	0.811406	0.681736
H196	H	0.865475	-0.362651	0.137499
H197	H	1.198808	-0.029318	0.470833
H198	H	1.532141	0.304016	0.804166
O199	O	0.690827	0.000322	-0.241700
O200	O	1.024161	0.333655	0.091633
O201	O	1.357494	0.666988	0.424967
H202	H	0.700632	0.000311	-0.299586
H203	H	1.033965	0.333645	0.033747
H204	H	1.367299	0.666978	0.367080
H205	H	0.362589	-0.143879	0.169983
H206	H	0.695923	0.189454	0.503316
H207	H	1.029256	0.522788	0.836650
H208	H	0.939335	0.000398	-0.133704
H209	H	1.272668	0.333731	0.199629
H210	H	1.606001	0.667065	0.532962
H211	H	0.775020	-0.636532	0.047528
H212	H	1.108353	-0.303199	0.380862
H213	H	1.441687	0.030134	0.714195
H214	H	0.231161	-0.143836	0.168056
H215	H	0.564494	0.189497	0.501390
H216	H	0.897828	0.522830	0.834723
H217	H	0.937409	0.000432	-0.265128
H218	H	1.270743	0.333766	0.068206
H219	H	1.604076	0.667099	0.401539
H220	H	0.920756	0.144727	-0.342039
H221	H	1.254089	0.478061	-0.008706
H222	H	1.587423	0.811394	0.324627
O223	O	0.705094	-0.164955	-0.482446
O224	O	1.038427	0.168379	-0.149113
O225	O	1.371760	0.501712	0.184220
H226	H	0.726728	-0.239637	-0.525163
H227	H	1.060062	0.093696	-0.191829
H228	H	1.393395	0.427029	0.141504
O229	O	0.933190	0.165798	-0.483074
O230	O	1.266524	0.499131	-0.149740
O231	O	1.599857	0.832464	0.183593
H232	H	0.923142	0.152459	-0.539507
H233	H	1.256475	0.485792	-0.206174
H234	H	1.589808	0.819125	0.127160
O235	O	0.947449	0.000498	-0.723832
O236	O	1.280783	0.333832	-0.390498
O237	O	1.614116	0.667165	-0.057165
H238	H	0.992014	0.000484	-0.692369
H239	H	1.325347	0.333818	-0.359036
H240	H	1.658681	0.667151	-0.025702
O241	O	0.686491	0.000358	-0.538006
O242	O	1.019824	0.333691	-0.204673
O243	O	1.353157	0.667024	0.128661
H244	H	0.641922	0.000325	-0.569472
H245	H	0.975255	0.333659	-0.236138
H246	H	1.308589	0.666992	0.097195
O247	O	0.693037	0.000313	-0.091119
O248	O	1.026371	0.333646	0.242215
O249	O	1.359704	0.666979	0.575548
H250	H	0.648468	0.000287	-0.122583
H251	H	0.981802	0.333620	0.210750
H252	H	1.315135	0.666954	0.544084
H253	H	0.015717	0.000532	0.203142
H254	H	0.349050	0.333865	0.536475
H255	H	0.682384	0.667198	0.869808
O256	O	0.154482	0.000493	0.221936
O257	O	0.487815	0.333826	0.555269
O258	O	0.821148	0.667160	0.888603
H259	H	0.111227	0.000495	0.265406
H260	H	0.444560	0.333828	0.598740
H261	H	0.777893	0.667161	0.932073
H262	H	0.046481	0.000574	-0.026554
H263	H	0.379815	0.333907	0.306779
H264	H	0.713148	0.667241	0.640113
H265	H	0.177901	0.000442	-0.024638
H266	H	0.511235	0.333776	0.308695
H267	H	0.844568	0.667109	0.642028
O268	O	0.422320	0.165712	0.005993
O269	O	0.755653	0.499045	0.339326
O270	O	1.088986	0.832378	0.672660
H271	H	0.393920	0.221040	-0.023864
H272	H	0.727254	0.554374	0.309469
H273	H	1.060587	0.887707	0.642803
