data_functionalizedCrystal
_audit_creation_method	'MofGen! by Chris Wilmer'
_symmetry_space_group_name_H-M	'P1'
_symmetry_Int_Tables_number	1
_symmetry_cell_setting	triclinic
loop_
_symmetry_equiv_pos_as_xyz
  x,y,z
_cell_length_a	11.792241
_cell_length_b	17.699083
_cell_length_c	16.176319
_cell_angle_alpha	89.992304
_cell_angle_beta	89.996803
_cell_angle_gamma	83.738215
loop_
_atom_site_label
_atom_site_type_symbol
_atom_site_fract_x
_atom_site_fract_y
_atom_site_fract_z
O1	O	1.505670	0.103738	-0.068668
O2	O	1.175201	0.114429	-0.068688
O3	O	1.349772	-0.001056	-0.068670
O4	O	1.331099	0.219223	-0.068686
O5	O	1.349748	-0.001063	0.068823
O6	O	1.175177	0.114422	0.068806
O7	O	1.505646	0.103731	0.068825
Cu8	Cu	1.340409	0.109075	0.081370
Cu9	Cu	1.340437	0.109084	-0.081232
O10	O	1.331075	0.219216	0.068808
C11	C	1.132906	0.113754	0.000057
C12	C	1.006916	0.111744	0.000049
C13	C	1.349091	-0.029260	0.000077
C14	C	1.347083	-0.113289	0.000077
C15	C	1.449553	-0.161364	0.000084
C16	C	1.447660	-0.240317	0.000077
C17	C	1.343297	-0.271194	0.000068
C18	C	1.240819	-0.223113	0.000058
C19	C	1.242713	-0.144161	0.000060
C20	C	1.233178	-0.541517	0.000051
C21	C	1.231292	-0.620475	0.000052
C22	C	1.438126	-0.637673	0.000068
C23	C	1.440020	-0.558721	0.000070
C24	C	1.337543	-0.510647	0.000055
C25	C	1.339596	-0.425037	0.000062
C26	C	1.341242	-0.356803	0.000067
C27	C	0.776248	0.108048	0.000073
C28	C	0.904609	0.110101	0.000060
C29	C	1.547941	0.104406	0.000079
C30	C	1.673930	0.106416	0.000081
C31	C	1.331756	0.247420	0.000059
C32	C	1.333763	0.331449	0.000053
N33	N	1.340397	0.109069	0.195735
N34	N	1.340458	0.109085	-0.195597
C35	C	1.417721	0.057953	0.239007
C36	C	1.417727	0.057952	0.325554
C37	C	1.340413	0.109071	0.368827
C38	C	1.263082	0.160189	0.325549
C39	C	1.263072	0.160186	0.239004
C40	C	1.263121	0.160204	0.674578
C41	C	1.263139	0.160205	0.761129
C42	C	1.417776	0.057970	0.761128
C43	C	1.417765	0.057967	0.674582
C44	C	1.340430	0.109082	0.631312
C45	C	1.340424	0.109081	0.537468
C46	C	1.340425	0.109076	0.462670
H47	H	1.534538	-0.136230	0.000096
H48	H	1.149735	-0.502384	0.000040
H49	H	1.200177	0.201834	0.796361
H50	H	1.521567	-0.676825	0.000075
H51	H	1.480724	0.016343	0.639351
O52	O	1.547172	-0.287045	-0.000063
C53	C	1.552274	-0.333228	-0.071266
H54	H	1.494163	-0.304548	-0.121039
H55	H	1.643726	-0.341721	-0.095161
H56	H	1.523060	-0.390759	-0.055174
H57	H	1.155844	-0.248259	0.000046
O58	O	1.187920	0.209915	0.197095
C59	C	1.119665	0.255023	0.253845
H60	H	1.166200	0.256092	0.315532
H61	H	1.102173	0.315388	0.228828
H62	H	1.035429	0.230068	0.263065
H63	H	1.146302	-0.645611	0.000047
H64	H	1.159272	-0.105019	0.000054
O65	O	1.492961	0.008279	0.367460
C66	C	1.561188	-0.036846	0.310707
H67	H	1.562358	-0.005811	0.249007
H68	H	1.651861	-0.047969	0.335702
H69	H	1.524518	-0.093244	0.301522
O70	O	1.187964	0.209931	0.632680
C71	C	1.119716	0.255038	0.689436
H72	H	1.166258	0.256103	0.751121
H73	H	1.102225	0.315404	0.664423
H74	H	1.035481	0.230084	0.698659
H75	H	1.480683	0.016329	0.203779
O76	O	1.492841	0.008204	0.803073
C77	C	1.474584	-0.066802	0.781952
H78	H	1.430833	-0.066904	0.719118
H79	H	1.559995	-0.103693	0.778990
H80	H	1.418161	-0.090461	0.830668
O81	O	1.187933	0.209742	0.367676
C82	C	1.118024	0.168894	0.417740
H83	H	1.163397	0.109872	0.430710
H84	H	1.099991	0.200406	0.478595
H85	H	1.034156	0.163373	0.384399
O86	O	1.541498	-0.528853	0.000041
C87	C	1.631537	-0.588217	0.000065
H88	H	1.599875	-0.641973	-0.025967
H89	H	1.704419	-0.571415	-0.039850
H90	H	1.663126	-0.599265	0.066029
