data_functionalizedCrystal
_audit_creation_method	'MofGen! by Chris Wilmer'
_symmetry_space_group_name_H-M	'P1'
_symmetry_Int_Tables_number	1
_symmetry_cell_setting	triclinic
loop_
_symmetry_equiv_pos_as_xyz
  x,y,z
_cell_length_a	10.654555
_cell_length_b	8.559649
_cell_length_c	7.088929
_cell_angle_alpha	84.674985
_cell_angle_beta	83.718185
_cell_angle_gamma	102.865891
loop_
_atom_site_label
_atom_site_type_symbol
_atom_site_fract_x
_atom_site_fract_y
_atom_site_fract_z
O1	O	-0.028084	-2.103416	-0.158958
O2	O	0.036703	-1.638932	-0.158965
O3	O	-0.179531	-1.881844	-0.158961
O4	O	0.188150	-1.860504	-0.158962
O5	O	-0.208487	-1.914306	0.159015
O6	O	0.007747	-1.671394	0.159011
O7	O	-0.057040	-2.135878	0.159017
Cu8	Cu	-0.027290	-1.906600	0.188048
Cu9	Cu	0.006953	-1.868210	-0.187995
O10	O	0.159194	-1.892966	0.159014
C11	C	0.027134	-1.595688	0.000022
C12	C	0.041749	-1.418470	0.000019
C13	C	-0.240644	-1.896504	0.000023
C14	C	-0.379601	-1.891803	0.000011
C15	C	-0.047471	-2.179121	0.000026
C16	C	-0.062085	-2.356338	0.000017
C17	C	-0.672290	-1.918377	0.346692
C18	C	-0.622787	-1.938272	0.520023
C19	C	-0.492223	-1.942680	0.520024
C20	C	-0.411158	-1.927186	0.346674
C21	C	-0.460661	-1.907291	0.173342
C22	C	-0.591230	-1.902889	0.173361
C23	C	-0.429104	-1.871908	-0.173321
C24	C	-0.559669	-1.867511	-0.173325
C25	C	-0.348038	-1.856414	-0.346671
C26	C	-0.397543	-1.836529	-0.520006
C27	C	-0.528116	-1.832124	-0.520000
C28	C	-0.609173	-1.847615	-0.346657
C29	C	0.220308	-1.878306	0.000025
C30	C	0.359265	-1.883005	0.000025
N31	N	-0.051377	-1.933613	0.452536
N32	N	0.031029	-1.841209	-0.452484
H33	H	-0.778607	-1.914806	0.346709
H34	H	-0.304843	-1.930758	0.346690
C35	C	-0.195529	-1.466058	-0.000377
C36	C	-0.247381	-1.419705	-0.163993
C37	C	-0.370301	-1.520766	-0.164435
H38	H	-0.251269	-1.457544	0.110378
H39	H	-0.187992	-1.574577	-0.000478
H40	H	-0.254926	-1.311213	-0.163874
H41	H	-0.191679	-1.428227	-0.274774
H42	H	-0.362764	-1.629285	-0.164536
H43	H	-0.426029	-1.512244	-0.053673
H44	H	-0.405494	-1.489340	-0.275454
H45	H	-0.688804	-1.950883	0.661161
C46	C	-0.165297	-2.061463	0.561055
C47	C	-0.237413	-2.142364	0.430746
C48	C	-0.342353	-2.260158	0.530642
H49	H	-0.219120	-2.011474	0.639163
H50	H	-0.133733	-2.136502	0.639089
H51	H	-0.268977	-2.067337	0.352746
H52	H	-0.183627	-2.192387	0.352634
H53	H	-0.310790	-2.335197	0.608676
H54	H	-0.396166	-2.210156	0.608746
H55	H	-0.391290	-2.315074	0.442243
H56	H	0.141834	-1.336078	0.000009
H57	H	-0.451914	-1.958852	0.661165
C58	C	0.145013	-1.713470	0.439005
C59	C	0.217165	-1.632615	0.569310
C60	C	0.322187	-1.514944	0.469408
H61	H	0.113570	-1.638370	0.360921
H62	H	0.198770	-1.763607	0.360948
H63	H	0.163417	-1.582478	0.647334
H64	H	0.248639	-1.707670	0.647398
H65	H	0.375945	-1.565082	0.391351
H66	H	0.290733	-1.439856	0.391327
H67	H	0.371162	-1.460080	0.557804
H68	H	-0.241726	-1.859996	-0.346658
H69	H	-0.331528	-1.823904	-0.661134
H70	H	-0.568409	-1.815909	-0.661148
H71	H	-0.715488	-1.844037	-0.346635
