data_functionalizedCrystal
_audit_creation_method	'MofGen! by Chris Wilmer'
_symmetry_space_group_name_H-M	'P1'
_symmetry_Int_Tables_number	1
_symmetry_cell_setting	triclinic
loop_
_symmetry_equiv_pos_as_xyz
  x,y,z
_cell_length_a	17.077404
_cell_length_b	13.032721
_cell_length_c	17.077396
_cell_angle_alpha	97.153695
_cell_angle_beta	89.980499
_cell_angle_gamma	97.204757
loop_
_atom_site_label
_atom_site_type_symbol
_atom_site_fract_x
_atom_site_fract_y
_atom_site_fract_z
Zn1	Zn	1.160375	-0.416035	-0.483523
Zn2	Zn	1.143613	-0.590801	-0.368926
Zn3	Zn	1.029103	-0.416072	-0.352275
Zn4	Zn	1.012412	-0.590739	-0.500144
O5	O	1.086376	-0.503412	-0.426217
O6	O	1.267997	-0.439229	-0.468335
O7	O	1.128394	-0.567664	-0.256874
O8	O	1.060517	-0.269828	-0.355761
O9	O	1.255683	-0.567629	-0.384141
O10	O	1.156961	-0.269801	-0.452188
O11	O	1.044264	-0.439292	-0.244641
O12	O	0.917043	-0.439231	-0.371877
O13	O	1.032069	-0.567523	-0.607782
O14	O	0.904780	-0.567559	-0.480516
O15	O	1.140777	-0.439169	-0.595571
O16	O	1.112209	-0.737032	-0.400257
O17	O	1.015816	-0.736987	-0.496662
C18	C	0.882430	-0.503393	-0.426193
C19	C	0.795178	-0.503410	-0.426204
C20	C	0.747814	-0.570331	-0.482702
C21	C	0.665833	-0.570333	-0.482715
C22	C	0.631218	-0.503419	-0.426226
C23	C	0.678589	-0.436491	-0.369726
C24	C	0.760569	-0.436484	-0.369717
C25	C	0.507717	-0.436512	-0.369747
C26	C	0.425732	-0.436519	-0.369754
C27	C	0.412982	-0.570361	-0.482744
C28	C	0.494961	-0.570354	-0.482735
C29	C	0.542326	-0.503427	-0.426234
C30	C	1.060404	-0.774928	-0.452087
C31	C	1.049365	-0.891083	-0.463180
C32	C	1.092179	-0.942857	-0.420462
C33	C	1.080770	-1.062910	-0.431927
C34	C	1.291118	-0.503432	-0.426241
C35	C	1.378367	-0.503440	-0.426251
C36	C	1.086431	-0.503335	-0.630954
C37	C	1.086454	-0.503302	-0.718201
C38	C	1.112470	-0.230836	-0.400263
C39	C	1.123590	-0.114681	-0.389203
C40	C	1.143060	-0.436463	-0.752833
C41	C	1.143073	-0.436428	-0.834811
C42	C	1.086482	-0.503239	-0.882154
C43	C	1.029870	-0.570081	-0.847516
C44	C	1.029855	-0.570110	-0.765540
C45	C	1.029908	-0.570018	-1.018380
C46	C	1.029924	-0.569991	-1.100362
C47	C	1.143126	-0.436336	-1.087651
C48	C	1.143111	-0.436365	-1.005675
C49	C	1.086499	-0.503209	-0.971042
C50	C	1.086374	-0.503413	-0.222269
C51	C	1.086530	-0.503152	-0.134995
H52	H	0.397552	-0.382020	-0.323764
C53	C	0.559005	-0.363817	-0.308307
C54	C	0.511144	-0.305243	-0.258820
C55	C	0.558361	-0.238287	-0.202204
H56	H	0.595364	-0.318236	-0.333949
H57	H	0.587133	-0.403720	-0.277815
H58	H	0.483029	-0.265343	-0.289308
H59	H	0.474786	-0.350797	-0.233159
H60	H	0.586489	-0.278190	-0.171712
H61	H	0.594718	-0.192712	-0.227853
H62	H	0.525894	-0.198543	-0.168616
H63	H	0.799133	-0.381985	-0.323715
H64	H	1.189196	-0.381968	-0.967130
H65	H	0.627272	-0.624828	-0.528720
H66	H	1.168697	-1.070133	-0.344143
C67	C	0.532400	-0.643045	-0.544153
C68	C	0.473377	-0.701638	-0.593650
C69	C	0.507837	-0.768600	-0.650245
H70	H	0.560012	-0.688614	-0.518494
H71	H	0.568194	-0.603145	-0.574641
H72	H	0.437597	-0.741535	-0.563167
H73	H	0.445761	-0.656096	-0.619329
H74	H	0.543631	-0.728700	-0.680733
H75	H	0.535449	-0.814162	-0.624579
H76	H	0.467797	-0.808357	-0.683840
C77	C	0.968364	-0.642429	-0.980729
C78	C	0.923684	-0.583286	-0.928037
C79	C	0.866981	-0.649959	-0.893349
H80	H	0.993935	-0.687999	-0.953031
H81	H	0.934625	-0.682196	-1.020644
H82	H	0.957418	-0.543536	-0.888127
H83	H	0.898096	-0.537719	-0.955715
H84	H	0.833242	-0.689727	-0.933265
H85	H	0.892559	-0.695526	-0.865656
H86	H	0.836654	-0.609840	-0.857600
C87	C	1.152191	-0.883404	-0.360275
C88	C	1.113673	-0.820855	-0.303980
C89	C	1.168930	-0.766085	-0.248516
H90	H	1.190423	-0.840674	-0.386191
H91	H	1.177563	-0.931419	-0.334910
H92	H	1.088314	-0.772846	-0.329342
H93	H	1.075445	-0.863560	-0.278043
H94	H	1.194302	-0.814101	-0.223151
H95	H	1.207159	-0.723361	-0.274440
H96	H	1.142802	-0.723647	-0.210309
H97	H	1.004267	-0.935636	-0.508243
C98	C	1.204412	-0.363717	-0.872433
C99	C	1.166386	-0.296689	-0.913082
C100	C	1.222866	-0.229675	-0.947736
H101	H	1.234825	-0.403550	-0.908281
H102	H	1.238102	-0.323876	-0.832510
H103	H	1.132710	-0.336527	-0.953001
H104	H	1.135977	-0.256834	-0.877251
H105	H	1.256556	-0.189833	-0.907813
H106	H	1.253275	-0.269516	-0.983581
H107	H	1.197073	-0.184182	-0.975314
C108	C	0.968486	-0.642864	-0.727989
C109	C	0.975705	-0.746255	-0.757760
C110	C	0.919193	-0.813305	-0.723178
H111	H	0.917166	-0.627708	-0.739932
H112	H	0.976587	-0.633379	-0.672387
H113	H	0.967598	-0.755734	-0.813350
H114	H	1.027013	-0.761443	-0.745819
H115	H	0.927294	-0.803821	-0.667575
H116	H	0.867877	-0.798140	-0.735123
H117	H	0.924088	-0.883464	-0.743367
H118	H	0.650399	-0.382004	-0.323735
C119	C	0.785247	-0.643022	-0.544125
C120	C	0.726218	-0.701606	-0.593619
C121	C	0.760670	-0.768568	-0.650220
H122	H	0.812859	-0.688596	-0.518470
H123	H	0.821040	-0.603122	-0.574613
H124	H	0.690439	-0.741503	-0.563134
H125	H	0.698602	-0.656059	-0.619292
H126	H	0.796463	-0.728669	-0.680709
H127	H	0.788281	-0.814136	-0.624559
H128	H	0.720625	-0.808319	-0.683813
C129	C	0.361430	-0.642907	-0.544053
C130	C	0.282229	-0.628571	-0.531989
C131	C	0.234716	-0.695372	-0.588453
H132	H	0.368047	-0.713144	-0.539217
H133	H	0.376302	-0.627693	-0.595379
H134	H	0.267363	-0.643792	-0.480675
H135	H	0.275588	-0.558347	-0.536832
H136	H	0.249587	-0.680159	-0.639779
H137	H	0.241339	-0.765605	-0.583612
H138	H	0.180974	-0.685648	-0.580280
H139	H	1.189145	-0.382061	-0.714292
C140	C	1.020743	-1.122434	-0.492074
C141	C	1.059256	-1.185020	-0.548349
C142	C	1.003985	-1.239879	-0.603761
H143	H	0.995332	-1.074504	-0.517475
H144	H	0.982542	-1.165142	-0.466086
H145	H	1.097443	-1.142316	-0.574335
H146	H	1.084664	-1.232969	-0.522972
H147	H	0.965784	-1.282587	-0.577773
H148	H	0.978577	-1.191942	-0.629156
H149	H	1.030106	-1.282357	-0.641946
C150	C	1.204492	-0.363785	-1.125391
C151	C	1.192378	-0.378027	-1.207312
C152	C	1.248882	-0.311202	-1.242107
H153	H	1.255808	-0.379015	-1.113517
H154	H	1.199712	-0.293554	-1.105305
H155	H	1.197165	-0.448241	-1.227391
H156	H	1.141073	-0.362788	-1.219209
H157	H	1.244102	-0.240972	-1.222021
H158	H	1.300195	-0.326439	-1.230227
H159	H	1.240666	-0.320849	-1.297693
C160	C	0.968390	-0.642563	-1.151628
C161	C	0.918791	-0.701082	-1.103752
C162	C	0.862091	-0.767936	-1.150949
H163	H	0.993966	-0.688183	-1.187958
H164	H	0.937984	-0.602588	-1.179781
H165	H	0.949194	-0.741054	-1.075613
H166	H	0.893196	-0.655489	-1.067423
H167	H	0.831684	-0.727961	-1.179102
H168	H	0.887674	-0.813549	-1.187278
H169	H	0.828427	-0.807643	-1.118473
H170	H	0.983790	-0.624476	-0.886069
