data_functionalizedCrystal
_audit_creation_method	'MofGen! by Chris Wilmer'
_symmetry_space_group_name_H-M	'P1'
_symmetry_Int_Tables_number	1
_symmetry_cell_setting	triclinic
loop_
_symmetry_equiv_pos_as_xyz
  x,y,z
_cell_length_a	15.944493
_cell_length_b	15.021413
_cell_length_c	11.792240
_cell_angle_alpha	89.994693
_cell_angle_beta	96.165770
_cell_angle_gamma	90.006749
loop_
_atom_site_label
_atom_site_type_symbol
_atom_site_fract_x
_atom_site_fract_y
_atom_site_fract_z
O1	O	1.115218	0.074039	-0.146051
O2	O	1.615218	0.574039	0.353949
O3	O	0.870744	0.074046	-0.164167
O4	O	1.370744	0.574046	0.335833
O5	O	0.998914	0.074015	0.010112
O6	O	1.498914	0.574015	0.510112
O7	O	0.987048	0.074070	-0.320330
O8	O	1.487048	0.574070	0.179670
O9	O	0.998893	-0.074049	0.010087
O10	O	1.498893	0.425951	0.510087
O11	O	0.870723	-0.074019	-0.164192
O12	O	1.370723	0.425981	0.335808
O13	O	1.115198	-0.074025	-0.146076
O14	O	1.615198	0.425975	0.353924
Zn15	Zn	0.992957	-0.097530	-0.155138
Zn16	Zn	1.492957	0.402470	0.344862
Zn17	Zn	0.992984	0.097551	-0.155105
Zn18	Zn	1.492984	0.597551	0.344895
O19	O	0.987028	-0.073995	-0.320355
O20	O	1.487028	0.426005	0.179645
C21	C	0.839435	0.000014	-0.163439
C22	C	1.339435	0.500014	0.336561
C23	C	0.746177	0.000015	-0.161219
C24	C	1.246177	0.500015	0.338781
N25	N	0.992945	-0.230668	-0.155159
N26	N	1.492945	0.269332	0.344841
C27	C	0.510880	0.000033	-0.263804
C28	C	1.010880	0.500033	0.236196
C29	C	0.460062	-0.072984	-0.208496
C30	C	0.960062	0.427016	0.291504
C31	C	0.575437	0.000013	-0.157106
C32	C	1.075437	0.500013	0.342894
C33	C	0.460086	0.072996	-0.208446
C34	C	0.960086	0.572996	0.291554
C35	C	0.410510	0.000014	-0.153141
C36	C	0.910510	0.500014	0.346859
C37	C	0.525847	-0.073064	-0.101827
C38	C	1.025847	0.426936	0.398173
C39	C	0.525875	0.072982	-0.101793
C40	C	1.025875	0.572982	0.398207
C41	C	0.475090	-0.000053	-0.046407
C42	C	0.975090	0.499947	0.453593
C43	C	0.670447	0.000011	-0.159393
C44	C	1.170447	0.500011	0.340607
C45	C	0.315502	0.000010	-0.150845
C46	C	0.815502	0.500010	0.349155
C47	C	0.933670	-0.470337	-0.235708
C48	C	1.433670	0.029663	0.264292
C49	C	1.009672	-0.529669	-0.257721
C50	C	1.509672	-0.029669	0.242279
C51	C	0.992966	-0.412275	-0.155131
C52	C	1.492966	0.087725	0.344869
C53	C	0.916985	-0.529684	-0.133144
C54	C	1.416985	-0.029684	0.366856
C55	C	0.992980	-0.587699	-0.155106
C56	C	1.492980	-0.087699	0.344894
C57	C	1.069007	-0.470300	-0.177195
C58	C	1.569007	0.029700	0.322805
C59	C	0.976270	-0.470310	-0.052573
C60	C	1.476270	0.029690	0.447427
C61	C	1.052327	-0.529616	-0.074542
C62	C	1.552327	-0.029616	0.425458
C63	C	0.992957	-0.311217	-0.155148
C64	C	1.492957	0.188783	0.344852
C65	C	0.992998	-0.688754	-0.155088
C66	C	1.492998	-0.188754	0.344912
C67	C	1.146506	0.000008	-0.146804
C68	C	1.646506	0.500008	0.353196
C69	C	1.239765	0.000013	-0.149024
C70	C	1.739765	0.500013	0.350976
N71	N	0.993003	0.230688	-0.155074
N72	N	1.493003	0.730688	0.344926
C73	C	0.998158	-0.000022	0.052384
C74	C	1.498158	0.499978	0.552384
C75	C	0.995927	-0.000037	0.178379
C76	C	1.495927	0.499963	0.678379
C77	C	0.991825	-0.000051	0.409056
C78	C	1.491825	0.499949	0.909056
C79	C	0.994104	-0.000043	0.280690
C80	C	1.494104	0.499957	0.780690
C81	C	0.987783	0.000013	0.637373
C82	C	1.487783	0.500013	1.137373
C83	C	0.990014	-0.000061	0.511378
C84	C	1.490014	0.499939	1.011378
H85	H	0.526918	-0.000020	-0.355712
H86	H	1.026918	0.499980	0.144288
H87	H	0.852724	-0.555771	-0.114558
H88	H	1.352724	-0.055771	0.385442
H89	H	1.102533	-0.555480	-0.006386
H90	H	1.602533	-0.055480	0.493614
C91	C	0.621604	0.130434	0.051903
C92	C	1.121604	0.630434	0.551903
C93	C	0.564706	0.156293	-0.041001
C94	C	1.064706	0.656293	0.458999
H95	H	0.645572	0.181873	0.089429
H96	H	1.145572	0.681873	0.589429
H97	H	0.665079	0.095253	0.025614
H98	H	1.165079	0.595253	0.525614
H99	H	0.592743	0.096648	0.103683
H100	H	1.092743	0.596648	0.603683
H101	H	0.593568	0.190074	-0.092785
H102	H	1.093568	0.690074	0.407215
H103	H	0.521224	0.191489	-0.014713
H104	H	1.021224	0.691489	0.485287
C105	C	1.209202	-0.507197	-0.217900
C106	C	1.709202	-0.007197	0.282100
C107	C	1.155779	-0.435245	-0.202429
C108	C	1.655779	0.064755	0.297571
H109	H	1.262770	-0.485552	-0.233474
H110	H	1.762770	0.014448	0.266526
H111	H	1.185452	-0.542436	-0.280114
H112	H	1.685452	-0.042436	0.219886
H113	H	1.215623	-0.542393	-0.150595
H114	H	1.715623	-0.042393	0.349405
H115	H	1.149353	-0.400053	-0.269738
H116	H	1.649353	0.099947	0.230262
H117	H	1.179534	-0.399991	-0.140210
H118	H	1.679534	0.100009	0.359790
H119	H	0.431360	0.134717	-0.253518
H120	H	0.931360	0.634717	0.246482
C121	C	0.438938	-0.156141	-0.383103
C122	C	0.938938	0.343859	0.116897
C123	C	0.421251	-0.156292	-0.269335
C124	C	0.921251	0.343708	0.230665
H125	H	0.414975	-0.207568	-0.420667
H126	H	0.914975	0.292432	0.079333
H127	H	0.498283	-0.156467	-0.385578
H128	H	0.998283	0.343533	0.114422
H129	H	0.415537	-0.104291	-0.420227
H130	H	0.915537	0.395709	0.079773
H131	H	0.444658	-0.208139	-0.232209
H132	H	0.944658	0.291861	0.267791
H133	H	0.361894	-0.155975	-0.266854
H134	H	0.861894	0.344025	0.233146
H135	H	0.883576	-0.444309	-0.303905
H136	H	1.383576	0.055691	0.196095
H137	H	0.962112	-0.444217	0.034120
H138	H	1.462112	0.055783	0.534120
H139	H	0.554464	-0.134854	-0.056805
H140	H	1.054464	0.365146	0.443195
H141	H	0.459209	-0.000110	0.045571
H142	H	0.959209	0.499890	0.545571
H143	H	1.023806	-0.555742	-0.344441
H144	H	1.523806	-0.055742	0.155559
