data_functionalizedCrystal
_audit_creation_method	'MofGen! by Chris Wilmer'
_symmetry_space_group_name_H-M	'P1'
_symmetry_Int_Tables_number	1
_symmetry_cell_setting	triclinic
loop_
_symmetry_equiv_pos_as_xyz
  x,y,z
_cell_length_a	14.519709
_cell_length_b	16.109301
_cell_length_c	13.596369
_cell_angle_alpha	90.007256
_cell_angle_beta	90.000221
_cell_angle_gamma	83.570813
loop_
_atom_site_label
_atom_site_type_symbol
_atom_site_fract_x
_atom_site_fract_y
_atom_site_fract_z
O1	O	-1.223637	-0.108987	-0.081667
O2	O	-0.955133	-0.121821	-0.081697
O3	O	-1.096761	0.005614	-0.081671
O4	O	-1.082009	-0.236422	-0.081693
O5	O	-1.096745	0.005621	0.081912
O6	O	-0.955117	-0.121815	0.081886
O7	O	-1.223621	-0.108980	0.081916
Zn8	Zn	-1.089367	-0.115397	0.107873
Zn9	Zn	-1.089387	-0.115405	-0.107654
O10	O	-1.081993	-0.236416	0.081890
C11	C	-0.920766	-0.121220	0.000091
C12	C	-0.818389	-0.119427	0.000079
C13	C	-1.257988	-0.109582	0.000127
C14	C	-1.360365	-0.111374	0.000131
C15	C	-1.096156	0.036593	0.000121
C16	C	-1.094364	0.128892	0.000122
C17	C	-0.443507	-0.112829	0.000125
C18	C	-0.547811	-0.114661	0.000112
C19	C	-0.630945	-0.116128	0.000101
C20	C	-0.735256	-0.117961	0.000090
C21	C	-1.082599	-0.267395	0.000096
C22	C	-1.084390	-0.359693	0.000089
N23	N	-1.089360	-0.115390	0.254965
C24	C	-1.174238	0.351026	0.000116
C25	C	-1.172547	0.437749	0.000107
C26	C	-1.004510	0.418166	0.000092
C27	C	-1.006202	0.331444	0.000093
C28	C	-1.091068	0.297877	0.000110
C29	C	-1.087686	0.471322	0.000101
C30	C	-1.085852	0.565351	0.000092
C31	C	-1.092902	0.203842	0.000117
C32	C	-1.089379	-0.115408	0.656256
C33	C	-1.089371	-0.115406	0.544605
C34	C	-1.089370	-0.115400	0.455614
C35	C	-1.089361	-0.115397	0.343956
N36	N	-1.089393	-0.115408	0.745254
H37	H	-1.243341	0.323699	0.000127
H38	H	-1.240272	0.481020	0.000110
Cl39	Cl	-0.897827	0.460371	0.000072
Cl40	Cl	-0.901637	0.264623	0.000078
