data_functionalizedCrystal
_audit_creation_method	'MofGen! by Chris Wilmer'
_symmetry_space_group_name_H-M	'P1'
_symmetry_Int_Tables_number	1
_symmetry_cell_setting	triclinic
loop_
_symmetry_equiv_pos_as_xyz
  x,y,z
_cell_length_a	15.538191
_cell_length_b	15.995350
_cell_length_c	14.750779
_cell_angle_alpha	77.359549
_cell_angle_beta	97.572172
_cell_angle_gamma	65.382234
loop_
_atom_site_label
_atom_site_type_symbol
_atom_site_fract_x
_atom_site_fract_y
_atom_site_fract_z
O1	O	1.229458	-0.247558	-0.079847
O2	O	0.955200	-0.150879	-0.079843
O3	O	1.099826	-0.323385	-0.079844
O4	O	1.084832	-0.075052	-0.079846
O5	O	1.140710	-0.372146	0.079806
O6	O	0.996084	-0.199640	0.079807
O7	O	1.270342	-0.296319	0.079803
Zn8	Zn	1.139704	-0.255722	0.105153
Zn9	Zn	1.085838	-0.191476	-0.105193
O10	O	1.125716	-0.123813	0.079804
C11	C	0.940547	-0.165145	-0.000017
C12	C	0.835974	-0.135015	-0.000016
C13	C	0.548180	-0.434345	-0.000029
C14	C	0.449914	-0.406012	-0.000030
C15	C	0.427471	-0.246646	-0.000030
C16	C	0.525738	-0.274967	-0.000025
C17	C	0.586085	-0.368818	-0.000025
C18	C	0.563643	-0.209440	-0.000021
C19	C	0.661900	-0.237757	-0.000021
C20	C	0.722253	-0.331603	-0.000024
C21	C	0.684342	-0.397135	-0.000025
C22	C	0.503293	-0.115588	-0.000028
C23	C	0.541198	-0.050060	-0.000024
C24	C	0.639459	-0.078380	-0.000017
C25	C	0.699811	-0.172225	-0.000020
C26	C	0.677369	-0.012847	-0.000016
C27	C	0.775627	-0.041165	-0.000015
C28	C	0.798068	-0.200543	-0.000019
C29	C	1.119648	-0.378771	-0.000021
C30	C	1.117788	-0.471155	-0.000026
C31	C	1.111115	-0.806875	-0.000023
C32	C	1.008023	-0.728029	-0.000379
C33	C	1.009974	-0.632013	-0.000020
C34	C	1.114425	-0.640320	-0.000025
C35	C	1.188574	-0.724682	0.091140
C36	C	1.186007	-0.820555	0.091216
C37	C	1.141642	-0.766109	-0.090335
C38	C	1.141309	-0.668788	-0.091540
C39	C	1.116302	-0.546194	-0.000023
C40	C	1.109243	-0.901005	-0.000019
C41	C	1.284995	-0.282053	-0.000025
C42	C	1.389566	-0.312180	-0.000033
C43	C	1.105894	-0.068426	-0.000021
C44	C	1.107752	0.023960	-0.000022
N45	N	1.176474	-0.299570	0.248708
N46	N	1.049076	-0.147637	-0.248748
C47	C	0.946384	-0.025213	0.600529
C48	C	0.972157	-0.055935	0.701028
C49	C	1.100250	-0.208655	0.700989
C50	C	1.074485	-0.177947	0.600488
C51	C	0.997552	-0.086225	0.550266
C52	C	1.125653	-0.238959	0.550225
C53	C	1.099893	-0.208251	0.449733
C54	C	1.022965	-0.116531	0.399504
C55	C	0.971792	-0.055517	0.449774
C56	C	1.202589	-0.330678	0.600449
C57	C	1.253757	-0.391690	0.550186
C58	C	1.227993	-0.360985	0.449692
C59	C	1.151066	-0.269266	0.399463
C60	C	1.279166	-0.422000	0.399422
C61	C	1.253406	-0.391292	0.298930
C62	C	1.125306	-0.238558	0.298971
H63	H	0.628218	0.063569	-0.000025
C64	C	1.289598	-0.896880	0.096814
N65	N	1.367624	-0.954366	0.101036
H66	H	1.170663	-0.706299	0.158986
H67	H	0.953304	-0.571494	-0.065370
H68	H	1.001996	-0.091529	0.317677
H69	H	0.492049	0.026354	-0.000028
C70	C	0.408223	-0.478106	-0.000034
N71	N	0.376821	-0.532405	-0.000039
C72	C	1.363793	-0.522890	0.454680
N73	N	1.427535	-0.598883	0.496301
H74	H	0.950113	-0.714081	-0.065756
C75	C	1.293414	-0.738490	0.095731
N76	N	1.372378	-0.748883	0.099190
H77	H	1.062653	-0.163872	0.258078
C78	C	0.861716	0.075665	0.545279
N79	N	0.797936	0.151636	0.503664
H80	H	1.295074	-0.440975	0.258006
H81	H	0.909140	0.019169	0.408881
C82	C	1.244018	-0.839945	-0.091173
N83	N	1.321126	-0.895564	-0.091798
H84	H	0.930484	-0.006243	0.741947
C85	C	1.184871	-0.309549	0.756245
N86	N	1.248606	-0.385546	0.797862
H87	H	0.847208	-0.276967	-0.000014
H88	H	0.423285	-0.092534	-0.000031
H89	H	1.316399	-0.466370	0.591089
H90	H	1.223563	-0.355675	0.682276
H91	H	0.802257	-0.354653	-0.000036
H92	H	0.986535	-0.611924	0.065444
C93	C	0.750731	-0.500377	-0.000020
N94	N	0.800734	-0.578135	-0.000020
C95	C	0.975160	-0.764479	0.087471
N96	N	0.950417	-0.791932	0.153648
H97	H	0.597320	-0.510769	-0.000023
C98	C	1.159525	-0.858185	0.183280
N99	N	1.139573	-0.886522	0.252623
H100	H	1.090271	-0.755309	-0.159433
C101	C	1.067843	-0.588863	-0.182655
N102	N	1.012500	-0.528664	-0.251281
C103	C	0.361080	-0.143415	-0.000025
N104	N	0.311076	-0.065661	-0.000016
H105	H	0.806491	0.012192	-0.000003
C106	C	1.242311	-0.677045	-0.098980
N107	N	1.318394	-0.683273	-0.104574
