data_functionalizedCrystal
_audit_creation_method	'MofGen! by Chris Wilmer'
_symmetry_space_group_name_H-M	'P1'
_symmetry_Int_Tables_number	1
_symmetry_cell_setting	triclinic
loop_
_symmetry_equiv_pos_as_xyz
  x,y,z
_cell_length_a	15.944493
_cell_length_b	15.944493
_cell_length_c	13.330367
_cell_angle_alpha	89.998770
_cell_angle_beta	90.006988
_cell_angle_gamma	83.475044
loop_
_atom_site_label
_atom_site_type_symbol
_atom_site_fract_x
_atom_site_fract_y
_atom_site_fract_z
O1	O	1.114536	0.108102	0.083397
O2	O	0.869977	0.121510	0.083400
O3	O	0.998960	-0.007473	0.083407
O4	O	0.985552	0.237086	0.083390
O5	O	0.998941	-0.007476	-0.083440
O6	O	0.869958	0.121507	-0.083447
O7	O	1.114517	0.108100	-0.083450
Cu8	Cu	0.992236	0.114803	-0.098683
Cu9	Cu	0.992258	0.114806	0.098633
O10	O	0.985534	0.237083	-0.083457
C11	C	0.838673	0.120961	-0.000023
C12	C	0.745424	0.119318	-0.000021
C13	C	0.509649	0.195240	-0.000025
C14	C	0.459090	0.154297	-0.082291
C15	C	0.574704	0.116273	-0.000022
C16	C	0.459113	0.154281	0.082207
C17	C	0.409795	0.113339	-0.000020
C18	C	0.525373	0.075351	-0.082356
C19	C	0.525400	0.075347	0.082216
C20	C	0.474873	0.034346	-0.000070
C21	C	0.669704	0.117966	-0.000025
C22	C	0.314798	0.111640	-0.000025
C23	C	0.998403	-0.038769	-0.000012
C24	C	0.996760	-0.132018	0.000000
C25	C	1.072682	-0.367793	-0.000020
C26	C	1.031749	-0.418351	0.082245
C27	C	0.993716	-0.302738	-0.000012
C28	C	1.031712	-0.418330	-0.082254
C29	C	0.990781	-0.467647	-0.000028
C30	C	0.952804	-0.352068	0.082320
C31	C	0.952779	-0.352043	-0.082252
C32	C	0.911788	-0.402569	0.000033
C33	C	0.995408	-0.207739	-0.000002
C34	C	0.989082	-0.562644	-0.000031
C35	C	1.145821	0.108649	-0.000025
C36	C	1.239069	0.110292	-0.000020
C37	C	0.986091	0.268379	-0.000035
C38	C	0.987734	0.361627	-0.000042
N39	N	0.992226	0.114800	-0.237465
C40	C	0.935142	0.171898	-0.710090
C41	C	1.049397	0.057709	-0.710052
C42	C	1.049387	0.057706	-0.605034
C43	C	0.992255	0.114801	-0.552539
C44	C	0.935132	0.171899	-0.605062
C45	C	1.106515	0.000615	-0.552503
C46	C	1.106508	0.000611	-0.447478
C47	C	1.049371	0.057703	-0.394981
C48	C	0.992245	0.114802	-0.447511
C49	C	0.935113	0.171897	-0.395016
C50	C	0.877983	0.228993	-0.447544
C51	C	0.877995	0.228991	-0.552565
C52	C	1.049359	0.057705	-0.289960
C53	C	0.935104	0.171898	-0.289988
N54	N	0.992274	0.114803	0.237415
H55	H	0.554360	0.042025	0.151772
O56	O	0.912924	-0.317705	0.165314
C57	C	0.783339	-0.296827	0.259679
C58	C	0.828388	-0.335773	0.165637
H59	H	0.714989	-0.311436	0.259982
H60	H	0.784895	-0.225522	0.259037
H61	H	0.816810	-0.324744	0.329683
H62	H	0.794951	-0.307922	0.095583
H63	H	0.826840	-0.407077	0.166367
O64	O	0.822590	0.284422	-0.603745
C65	C	0.771948	0.334999	-0.765558
C66	C	0.834748	0.272189	-0.707717
H67	H	0.781744	0.325119	-0.849629
H68	H	0.782879	0.402302	-0.744979
H69	H	0.704679	0.324037	-0.744874
H70	H	0.902041	0.283075	-0.728370
H71	H	0.823743	0.204909	-0.728300
O72	O	0.528433	0.276334	-0.000077
C73	C	0.637953	0.368769	0.000636
C74	C	0.616796	0.276896	0.000726
H75	H	0.709393	0.369254	0.001264
H76	H	0.609599	0.402786	0.070072
H77	H	0.610519	0.402287	-0.069573
H78	H	0.644225	0.243306	0.070889
H79	H	0.645134	0.242943	-0.068756
H80	H	0.919451	-0.323077	-0.151803
O81	O	0.424690	0.194193	0.165152
C82	C	0.402916	0.324091	0.258833
C83	C	0.441949	0.278983	0.164872
H84	H	0.416840	0.392656	0.258627
H85	H	0.431243	0.291166	0.328969
H86	H	0.331706	0.321852	0.258429
H87	H	0.513157	0.281209	0.165179
H88	H	0.413555	0.311921	0.094778
O89	O	1.161802	-0.055043	-0.396452
C90	C	1.179400	-0.170055	-0.278265
C91	C	1.116743	-0.106958	-0.335904
H92	H	1.142994	-0.212056	-0.229314
H93	H	1.221466	-0.134053	-0.228908
H94	H	1.220135	-0.210809	-0.333967
H95	H	1.075953	-0.066187	-0.280275
H96	H	1.074736	-0.143012	-0.385277
O97	O	0.456291	-0.046814	-0.000056
C98	C	0.347030	-0.139545	0.000677
C99	C	0.367954	-0.047595	0.000681
H100	H	0.275611	-0.140207	0.001251
H101	H	0.375431	-0.173447	0.070171
H102	H	0.374569	-0.173060	-0.069475
H103	H	0.340420	-0.014009	0.070786
H104	H	0.339569	-0.013756	-0.068860
O105	O	0.822602	0.284490	-0.396435
C106	C	0.804701	0.399233	-0.277909
C107	C	0.867508	0.336420	-0.335714
H108	H	0.840983	0.441247	-0.228819
H109	H	0.762763	0.362992	-0.228676
H110	H	0.763852	0.440003	-0.333504
H111	H	0.908413	0.295634	-0.280192
H112	H	0.909388	0.372713	-0.384962
H113	H	1.153034	-0.045866	-0.595248
H114	H	0.430137	0.187644	-0.151844
O115	O	0.830595	-0.421053	-0.000095
C116	C	0.724025	-0.488767	-0.086838
C117	C	0.815986	-0.467872	-0.086837
H118	H	0.712189	-0.526637	-0.156951
H119	H	0.679277	-0.427686	-0.086204
H120	H	0.712545	-0.527498	-0.017307
H121	H	0.827547	-0.429164	-0.156356
H122	H	0.860685	-0.528984	-0.087418
O123	O	1.153829	-0.349167	0.000272
C124	C	1.287128	-0.361961	0.087329
C125	C	1.195255	-0.383119	0.087116
H126	H	1.320654	-0.389415	0.157525
H127	H	1.287653	-0.290524	0.086688
H128	H	1.321110	-0.390331	0.017882
H129	H	1.161219	-0.354804	0.156551
H130	H	1.194791	-0.454562	0.087706
O131	O	1.071463	-0.452783	0.165320
C132	C	1.075623	-0.456872	0.345967
C133	C	1.030573	-0.417802	0.251974
H134	H	1.042571	-0.428619	0.416051
H135	H	1.144171	-0.442885	0.345944
H136	H	1.073445	-0.528090	0.345484
H137	H	1.032687	-0.346578	0.252396
H138	H	0.962047	-0.431856	0.252033
O139	O	1.071617	-0.452766	-0.165195
C140	C	1.201512	-0.474569	-0.258867
C141	C	1.156410	-0.435514	-0.164914
H142	H	1.270079	-0.460650	-0.258660
H143	H	1.168587	-0.446254	-0.329009
H144	H	1.199268	-0.545778	-0.258450
H145	H	1.158641	-0.364306	-0.165234
H146	H	1.189348	-0.463895	-0.094814
H147	H	1.095916	0.011227	-0.752797
H148	H	0.888576	0.218389	-0.247253
H149	H	1.095877	0.011222	-0.247196
H150	H	0.554200	0.042021	-0.151975
H151	H	0.888624	0.218382	-0.752861
