data_functionalizedCrystal
_audit_creation_method	'MofGen! by Chris Wilmer'
_symmetry_space_group_name_H-M	'P1'
_symmetry_Int_Tables_number	1
_symmetry_cell_setting	triclinic
loop_
_symmetry_equiv_pos_as_xyz
  x,y,z
_cell_length_a	17.699083
_cell_length_b	17.699083
_cell_length_c	16.176319
_cell_angle_alpha	90.001389
_cell_angle_beta	90.013827
_cell_angle_gamma	83.283016
loop_
_atom_site_label
_atom_site_type_symbol
_atom_site_fract_x
_atom_site_fract_y
_atom_site_fract_z
O1	O	-0.095713	-1.004079	-0.068643
O2	O	-0.108166	-0.783700	-0.068672
O3	O	0.008250	-0.900116	-0.068637
O4	O	-0.212129	-0.887663	-0.068679
O5	O	0.008257	-0.900100	0.068856
O6	O	-0.108158	-0.783684	0.068821
O7	O	-0.095706	-1.004063	0.068850
Cu8	Cu	-0.101931	-0.893872	0.081390
Cu9	Cu	-0.101940	-0.893891	-0.081212
O10	O	-0.212121	-0.887647	0.068814
C11	C	0.036451	-0.899662	0.000113
C12	C	0.120469	-0.898323	0.000123
C13	C	-0.107716	-0.755495	0.000071
C14	C	-0.106377	-0.671477	0.000061
C15	C	0.169090	-0.966656	0.000138
C16	C	0.248033	-0.965394	0.000140
C17	C	0.278354	-0.895798	0.000133
C18	C	0.229727	-0.827459	0.000115
C19	C	0.150785	-0.828722	0.000107
C20	C	0.548090	-0.822364	0.000145
C21	C	0.627038	-0.821106	0.000155
C22	C	0.645338	-0.959036	0.000178
C23	C	0.566396	-0.960299	0.000170
C24	C	0.517776	-0.891961	0.000148
C25	C	0.432177	-0.893330	0.000144
C26	C	0.363951	-0.894427	0.000142
C27	C	-0.096156	-1.032268	0.000105
C28	C	-0.097494	-1.116286	0.000109
C29	C	0.759678	-0.888102	0.000092
C30	C	0.675660	-0.889440	0.000164
N31	N	-0.101925	-0.893864	0.195755
C32	C	-0.174711	-0.622856	0.000048
C33	C	-0.173448	-0.543913	0.000059
C34	C	-0.103852	-0.513592	0.000077
C35	C	-0.035513	-0.562219	0.000092
C36	C	-0.036776	-0.641161	0.000087
C37	C	-0.030418	-0.243856	0.000114
C38	C	-0.029160	-0.164908	0.000116
C39	C	-0.167090	-0.146608	0.000086
C40	C	-0.168353	-0.225550	0.000081
C41	C	-0.100015	-0.274170	0.000100
C42	C	-0.101384	-0.359769	0.000090
C43	C	-0.102481	-0.427995	0.000081
N44	N	-0.101941	-0.893905	-0.195577
C45	C	-0.050397	-0.945429	0.239035
C46	C	-0.050396	-0.945432	0.325582
C47	C	-0.101927	-0.893875	0.368847
C48	C	-0.153457	-0.842305	0.325561
C49	C	-0.153454	-0.842299	0.239016
C50	C	-0.153472	-0.842331	0.674590
C51	C	-0.153473	-0.842344	0.761141
C52	C	-0.050414	-0.945465	0.761155
C53	C	-0.050410	-0.945458	0.674610
C54	C	-0.101937	-0.893886	0.631332
C55	C	-0.101937	-0.893882	0.537487
C56	C	-0.101932	-0.893883	0.462690
H57	H	0.287618	-1.021038	0.000154
C58	C	-0.244907	-0.258903	0.000058
H59	H	-0.235871	-0.312881	0.000050
H60	H	-0.273037	-0.242208	0.047999
H61	H	-0.273037	-0.242203	-0.047901
C62	C	-0.210120	-0.785569	0.373147
H63	H	-0.240796	-0.754847	0.334974
H64	H	-0.241604	-0.812714	0.406908
H65	H	-0.182906	-0.754127	0.406908
H66	H	0.027517	-0.140225	0.000132
C67	C	-0.210137	-0.785581	0.191408
H68	H	-0.240833	-0.754881	0.229569
H69	H	-0.182949	-0.754126	0.157659
H70	H	-0.241611	-0.812749	0.157634
H71	H	0.651721	-0.764429	0.000150
C72	C	0.006258	-1.002183	0.627018
H73	H	-0.001128	-0.994802	0.569276
H74	H	0.056767	-0.994076	0.641210
H75	H	-0.001918	-1.052676	0.641200
C76	C	0.044749	-0.297332	0.000123
H77	H	0.034034	-0.348690	0.000125
H78	H	0.073287	-0.288151	-0.047819
H79	H	0.073296	-0.288154	0.048081
C80	C	0.041041	-0.528869	0.000110
H81	H	0.032008	-0.474890	0.000102
H82	H	0.069176	-0.545567	0.048061
H83	H	0.069166	-0.545567	-0.047839
H84	H	0.684934	-1.014680	0.000192
H85	H	0.254420	-0.770792	0.000103
C86	C	0.533043	-1.036852	0.000182
H87	H	0.479065	-1.027817	0.000183
H88	H	0.549734	-1.064991	-0.047758
H89	H	0.549747	-1.064974	0.048141
C90	C	0.006284	-1.002151	0.373190
H91	H	-0.001090	-0.994766	0.430930
H92	H	-0.001872	-1.052645	0.359001
H93	H	0.056789	-0.994021	0.359019
C94	C	0.135744	-1.043214	0.000147
H95	H	0.176010	-1.083729	0.000148
H96	H	0.105334	-1.046570	0.048090
H97	H	0.105324	-1.046578	-0.047810
C98	C	0.494618	-0.747195	0.000135
H99	H	0.523984	-0.705567	0.000143
H100	H	0.463433	-0.744818	-0.047814
H101	H	0.463451	-0.744818	0.048086
C102	C	0.097298	-0.753558	0.000090
H103	H	0.045941	-0.764277	0.000077
H104	H	0.106478	-0.725004	0.048032
H105	H	0.106472	-0.725024	-0.047868
C106	C	-0.210167	-0.785626	0.626990
H107	H	-0.202788	-0.793001	0.569250
H108	H	-0.260664	-0.793766	0.641166
H109	H	-0.202021	-0.735124	0.641178
H110	H	-0.231384	-0.647537	0.000033
C111	C	0.038390	-0.694644	0.000093
H112	H	0.080021	-0.665282	0.000095
H113	H	0.040770	-0.725824	0.048037
H114	H	0.040759	-0.725815	-0.047863
C115	C	0.006274	-1.002187	0.808764
H116	H	-0.001100	-0.994804	0.866504
H117	H	-0.001883	-1.052680	0.794572
H118	H	0.056780	-0.994057	0.794593
C119	C	-0.210146	-0.785614	0.808732
H120	H	-0.240826	-0.754891	0.770563
H121	H	-0.241626	-0.812770	0.842485
H122	H	-0.182940	-0.754172	0.842501
H123	H	-0.229092	-0.504328	0.000048
H124	H	-0.222734	-0.107012	0.000074
H125	H	-0.008438	-0.987416	0.203813
