data_functionalizedCrystal
_audit_creation_method	'MofGen! by Chris Wilmer'
_symmetry_space_group_name_H-M	'P1'
_symmetry_Int_Tables_number	1
_symmetry_cell_setting	triclinic
loop_
_symmetry_equiv_pos_as_xyz
  x,y,z
_cell_length_a	23.532361
_cell_length_b	14.044220
_cell_length_c	22.010155
_cell_angle_alpha	90.003727
_cell_angle_beta	90.004127
_cell_angle_gamma	91.990727
loop_
_atom_site_label
_atom_site_type_symbol
_atom_site_fract_x
_atom_site_fract_y
_atom_site_fract_z
O1	O	0.761503	-0.114784	0.050465
O2	O	1.261503	0.385216	0.550465
O3	O	0.596540	-0.131471	0.050480
O4	O	1.096540	0.368529	0.550480
O5	O	0.676545	0.014833	0.050467
O6	O	1.176545	0.514833	0.550467
O7	O	0.681497	-0.261088	0.050479
O8	O	1.181497	0.238912	0.550479
O9	O	0.676530	0.014811	-0.050583
O10	O	1.176530	0.514811	0.449417
O11	O	0.596525	-0.131493	-0.050570
O12	O	1.096525	0.368507	0.449430
O13	O	0.761488	-0.114806	-0.050585
O14	O	1.261488	0.385194	0.449415
Cu15	Cu	0.679005	-0.123152	-0.059804
Cu16	Cu	1.179005	0.376848	0.440196
Cu17	Cu	0.679023	-0.123126	0.059700
Cu18	Cu	1.179023	0.376874	0.559700
O19	O	0.681483	-0.261110	-0.050572
O20	O	1.181483	0.238890	0.449428
C21	C	0.575293	-0.131064	-0.000043
C22	C	1.075293	0.368936	0.499957
C23	C	0.512007	-0.129808	-0.000038
C24	C	1.012007	0.370192	0.499962
C25	C	0.238473	-0.124301	0.055041
C26	C	0.738473	0.375699	0.555041
C27	C	0.297937	-0.125490	0.055043
C28	C	0.797937	0.374510	0.555043
O29	O	0.328702	-0.126062	0.101887
O30	O	0.828702	0.373938	0.601887
N31	N	0.327668	-0.126103	-0.000040
N32	N	0.827668	0.373897	0.499960
C33	C	0.297931	-0.125516	-0.055128
C34	C	0.797931	0.374484	0.444872
O35	O	0.328679	-0.126146	-0.101980
O36	O	0.828679	0.373854	0.398020
C37	C	0.238468	-0.124320	-0.055129
C38	C	0.738468	0.375680	0.444871
C39	C	0.208740	-0.123717	-0.000043
C40	C	0.708740	0.376283	0.499957
C41	C	0.208746	-0.123696	0.110123
C42	C	0.708746	0.376304	0.610123
C43	C	0.149286	-0.122509	0.110121
C44	C	0.649286	0.377491	0.610121
C45	C	0.119553	-0.121926	0.055037
C46	C	0.619553	0.378074	0.555037
C47	C	0.149280	-0.122530	-0.000044
C48	C	0.649280	0.377470	0.499956
C49	C	0.208732	-0.123727	-0.110216
C50	C	0.708732	0.376273	0.389784
C51	C	0.149265	-0.122530	-0.110212
C52	C	0.649265	0.377470	0.389788
C53	C	0.119538	-0.121927	-0.055126
C54	C	0.619538	0.378073	0.444874
C55	C	0.060087	-0.120759	-0.055130
C56	C	0.560087	0.379241	0.444870
N57	N	0.030357	-0.120146	-0.000047
N58	N	0.530357	0.379854	0.499953
C59	C	0.060090	-0.120730	0.055037
C60	C	0.560090	0.379270	0.555037
C61	C	0.422807	-0.128027	-0.055122
C62	C	0.922807	0.371973	0.444878
C63	C	0.482269	-0.129229	-0.055122
C64	C	0.982269	0.370771	0.444878
C65	C	0.482271	-0.129201	0.055049
C66	C	0.982271	0.370799	0.555049
C67	C	0.422808	-0.128005	0.055048
C68	C	0.922808	0.371995	0.555048
C69	C	0.393077	-0.127414	-0.000039
C70	C	0.893077	0.372586	0.499961
C71	C	-0.064781	-0.118237	0.055029
C72	C	0.435219	0.381763	0.555029
C73	C	-0.124246	-0.117053	0.055022
C74	C	0.375754	0.382947	0.555022
C75	C	-0.124244	-0.117076	-0.055148
C76	C	0.375756	0.382924	0.444852
C77	C	-0.064783	-0.118265	-0.055142
C78	C	0.435217	0.381735	0.444858
C79	C	-0.035053	-0.118842	-0.000049
C80	C	0.464947	0.381158	0.499951
O81	O	0.029285	-0.120182	-0.101950
O82	O	0.529285	0.379818	0.398050
O83	O	0.029335	-0.120087	0.101881
O84	O	0.529335	0.379913	0.601881
C85	C	0.674370	0.050115	-0.000058
C86	C	1.174370	0.550115	0.499942
C87	C	0.667904	0.155278	-0.000058
C88	C	1.167904	0.655278	0.499942
C89	C	0.782734	-0.115213	-0.000060
C90	C	1.282734	0.384787	0.499940
C91	C	0.846021	-0.116470	-0.000062
C92	C	1.346021	0.383530	0.499938
C93	C	0.683658	-0.296393	-0.000045
C94	C	1.183658	0.203607	0.499955
C95	C	0.690124	-0.401556	-0.000041
C96	C	1.190124	0.098444	0.499959
N97	N	0.678997	-0.123169	-0.143857
N98	N	1.178997	0.376831	0.356143
C99	C	0.656083	0.347825	-0.000049
C100	C	1.156083	0.847825	0.499951
C101	C	0.701942	0.405903	-0.000051
C102	C	1.201942	0.905903	0.499949
C103	C	0.695365	0.513043	-0.000045
C104	C	1.195365	1.013043	0.499955
C105	C	0.662659	0.240675	-0.000054
C106	C	1.162659	0.740675	0.499946
C107	C	0.714452	-0.058352	-0.563642
C108	C	1.214452	0.441648	-0.063642
C109	C	0.714454	-0.058345	-0.627249
C110	C	1.214454	0.441655	-0.127249
O111	O	0.744576	-0.003247	-0.660146
O112	O	1.244576	0.496753	-0.160146
N113	N	0.679021	-0.123106	-0.659064
N114	N	1.179021	0.376894	-0.159064
C115	C	0.643580	-0.187871	-0.627267
C116	C	1.143580	0.312129	-0.127267
O117	O	0.613441	-0.242954	-0.660168
O118	O	1.113441	0.257046	-0.160168
C119	C	0.643575	-0.187873	-0.563661
C120	C	1.143575	0.312127	-0.063661
C121	C	0.679014	-0.123114	-0.531850
C122	C	1.179014	0.376886	-0.031850
C123	C	0.749887	0.006403	-0.531831
C124	C	1.249887	0.506403	-0.031831
C125	C	0.749886	0.006395	-0.468228
C126	C	1.249886	0.506395	0.031772
C127	C	0.714448	-0.058367	-0.436435
C128	C	1.214448	0.441633	0.063565
C129	C	0.679012	-0.123122	-0.468246
C130	C	1.179012	0.376878	0.031754
C131	C	0.608131	-0.252633	-0.531865
C132	C	1.108131	0.247367	-0.031865
C133	C	0.608129	-0.252628	-0.468255
C134	C	1.108129	0.247372	0.031745
C135	C	0.643568	-0.187869	-0.436443
C136	C	1.143568	0.312131	0.063557
C137	C	0.643573	-0.187892	-0.372851
C138	C	1.143573	0.312108	0.127149
N139	N	0.679006	-0.123131	-0.341037
N140	N	1.179006	0.376869	0.158963
C141	C	0.714443	-0.058369	-0.372829
C142	C	1.214443	0.441631	0.127171
C143	C	0.643592	-0.187863	-0.760845
C144	C	1.143592	0.312137	-0.260845
C145	C	0.643599	-0.187867	-0.824450
C146	C	1.143599	0.312133	-0.324450
C147	C	0.714473	-0.058339	-0.824428
C148	C	1.214473	0.441661	-0.324428
C149	C	0.714468	-0.058340	-0.760822
C150	C	1.214468	0.441660	-0.260822
C151	C	0.679025	-0.123102	-0.729031
C152	C	1.179025	0.376898	-0.229031
C153	C	0.714438	-0.058391	-0.239258
C154	C	1.214438	0.441609	0.260742
C155	C	0.714434	-0.058407	-0.175649
C156	C	1.214434	0.441593	0.324351
C157	C	0.643559	-0.187931	-0.175676
C158	C	1.143559	0.312069	0.324324
C159	C	0.643564	-0.187919	-0.239280
C160	C	1.143564	0.312081	0.260720
C161	C	0.679005	-0.123141	-0.271069
C162	C	1.179005	0.376859	0.228931
O163	O	0.613464	-0.242959	-0.339914
O164	O	1.113464	0.257041	0.160086
O165	O	0.744571	-0.003287	-0.339920
O166	O	1.244571	0.496713	0.160080
N167	N	0.679035	-0.123101	0.143752
N168	N	1.179035	0.376899	0.643752
H169	H	0.125087	-0.122014	0.154978
H170	H	0.625087	0.377986	0.654978
H171	H	0.232948	-0.124168	0.154981
H172	H	0.732948	0.375832	0.654981
H173	H	0.746144	0.375160	-0.000014
H174	H	1.246144	0.875160	0.499986
O175	O	0.603342	0.384448	0.000062
O176	O	1.103342	0.884448	0.500062
C177	C	0.573596	0.353191	0.052388
C178	C	1.073596	0.853191	0.552388
H179	H	0.605253	0.332840	0.088967
H180	H	1.105253	0.832840	0.588967
H181	H	0.545082	0.288557	0.040554
H182	H	1.045082	0.788557	0.540554
C183	C	0.497979	0.458843	0.031195
C184	C	0.997979	0.958843	0.531195
C185	C	0.536860	0.433856	0.076123
C186	C	1.036860	0.933856	0.576123
H187	H	0.475316	0.508598	0.045834
H188	H	0.975316	1.008598	0.545834
H189	H	0.518017	0.479899	-0.004060
H190	H	1.018017	0.979899	0.495940
H191	H	0.474223	0.404975	0.021337
H192	H	0.974223	0.904975	0.521337
H193	H	0.560620	0.487720	0.085975
H194	H	1.060620	0.987720	0.585975
H195	H	0.516824	0.412810	0.111380
H196	H	1.016824	0.912810	0.611380
O197	O	0.748877	0.004597	-0.144842
O198	O	1.248877	0.504597	0.355158
C199	C	0.780163	0.061743	-0.186548
C200	C	1.280163	0.561743	0.313452
H201	H	0.756770	0.062611	-0.231890
H202	H	1.256770	0.562611	0.268110
H203	H	0.824011	0.031349	-0.193312
H204	H	1.324011	0.531349	0.306688
C205	C	0.815439	0.162985	-0.106028
C206	C	1.315439	0.662985	0.393972
C207	C	0.786704	0.164057	-0.161716
C208	C	1.286704	0.664057	0.338284
H209	H	0.819476	0.226096	-0.090710
H210	H	1.319476	0.726096	0.409290
H211	H	0.794363	0.124483	-0.077929
H212	H	1.294363	0.624483	0.422071
H213	H	0.851976	0.137652	-0.111672
H214	H	1.351976	0.637652	0.388328
H215	H	0.750166	0.189378	-0.156070
H216	H	1.250166	0.689378	0.343930
H217	H	0.807774	0.202566	-0.189813
H218	H	1.307774	0.702566	0.310187
O219	O	-0.035996	-0.118846	0.108600
O220	O	0.464004	0.381154	0.608600
C221	C	-0.074994	-0.118038	0.157210
C222	C	0.425006	0.381962	0.657210
H223	H	-0.118216	-0.147184	0.141051
H224	H	0.381784	0.352816	0.641051
H225	H	-0.079201	-0.041893	0.174148
H226	H	0.420799	0.458107	0.674148
C227	C	-0.000440	-0.144842	0.229102
C228	C	0.499560	0.355158	0.729102
C229	C	-0.053525	-0.180649	0.209257
C230	C	0.446475	0.319351	0.709257
H231	H	0.012804	-0.183460	0.261208
H232	H	0.512804	0.316540	0.761208
H233	H	0.025834	-0.145384	0.196353
H234	H	0.525834	0.354616	0.696353
H235	H	-0.003953	-0.081389	0.243213
H236	H	0.496047	0.418611	0.743213
H237	H	-0.050010	-0.244096	0.195139
H238	H	0.449990	0.255904	0.695139
H239	H	-0.079798	-0.180120	0.242005
H240	H	0.420202	0.319880	0.742005
O241	O	0.784143	0.069581	-0.437349
O242	O	1.284143	0.569581	0.062651
C243	C	0.750557	0.127755	-0.400694
C244	C	1.250557	0.627755	0.099306
H245	H	0.708014	0.089415	-0.391083
H246	H	1.208014	0.589415	0.108917
H247	H	0.742970	0.197553	-0.425358
H248	H	1.242970	0.697553	0.074642
C249	C	0.833842	0.195898	-0.352122
C250	C	1.333842	0.695898	0.147878
C251	C	0.781591	0.148804	-0.340314
C252	C	1.281591	0.648804	0.159686
H253	H	0.852985	0.208886	-0.314878
H254	H	1.352985	0.708886	0.185122
H255	H	0.856469	0.156707	-0.376818
H256	H	1.356469	0.656707	0.123182
H257	H	0.827511	0.254057	-0.372677
H258	H	1.327511	0.754057	0.127323
H259	H	0.787923	0.090641	-0.319766
H260	H	1.287923	0.590641	0.180234
H261	H	0.758965	0.187985	-0.315612
H262	H	1.258965	0.687985	0.184388
O263	O	0.609215	-0.250874	-0.144719
O264	O	1.109215	0.249126	0.355281
C265	C	0.642664	-0.309076	-0.107935
C266	C	1.142664	0.190924	0.392065
H267	H	0.685294	-0.270962	-0.098405
H268	H	1.185294	0.229038	0.401595
H269	H	0.650079	-0.379071	-0.132446
H270	H	1.150079	0.120929	0.367554
C271	C	0.559239	-0.376399	-0.059221
C272	C	1.059239	0.123601	0.440779
C273	C	0.611596	-0.329584	-0.047512
C274	C	1.111596	0.170416	0.452488
H275	H	0.540074	-0.389054	-0.021951
H276	H	1.040074	0.110946	0.478049
H277	H	0.536703	-0.337190	-0.084005
H278	H	1.036703	0.162810	0.415995
H279	H	0.565425	-0.434723	-0.079649
H280	H	1.065425	0.065277	0.420351
H281	H	0.605408	-0.271256	-0.027092
H282	H	1.105408	0.228744	0.472908
H283	H	0.634130	-0.368784	-0.022723
H284	H	1.134130	0.131216	0.477277
H285	H	0.398608	-0.127514	0.099904
H286	H	0.898608	0.372486	0.599904
O287	O	0.784369	0.069352	-0.562614
O288	O	1.284369	0.569352	-0.062614
C289	C	0.815628	0.126513	-0.520884
C290	C	1.315628	0.626513	-0.020884
H291	H	0.818229	0.087663	-0.475548
H292	H	1.318229	0.587663	0.024452
H293	H	0.793575	0.196735	-0.514119
H294	H	1.293575	0.696735	-0.014119
C295	C	0.872857	0.194287	-0.601367
C296	C	1.372857	0.694287	-0.101367
C297	C	0.876056	0.146568	-0.545685
C298	C	1.376056	0.646568	-0.045685
H299	H	0.910131	0.206662	-0.616666
H300	H	1.410131	0.706662	-0.116666
H301	H	0.851796	0.155780	-0.629482
H302	H	1.351796	0.655780	-0.129482
H303	H	0.854477	0.252801	-0.595722
H304	H	1.354477	0.752801	-0.095722
H305	H	0.894429	0.088051	-0.551333
H306	H	1.394429	0.588051	-0.051333
H307	H	0.897121	0.185066	-0.517572
H308	H	1.397121	0.685066	-0.017572
H309	H	0.743296	-0.005642	-0.265133
H310	H	1.243296	0.494358	0.234867
H311	H	-0.040579	-0.118775	-0.099998
H312	H	0.459421	0.381225	0.400002
H313	H	0.743325	-0.005608	-0.734925
H314	H	1.243325	0.494392	-0.234925
H315	H	0.506490	-0.129676	0.099901
H316	H	1.006490	0.370324	0.599901
O317	O	0.748865	0.004708	-0.855250
O318	O	1.248865	0.504708	-0.355250
C319	C	0.734838	0.098415	-0.839717
C320	C	1.234838	0.598415	-0.339717
H321	H	0.712904	0.098107	-0.793535
H322	H	1.212904	0.598107	-0.293535
H323	H	0.705013	0.127461	-0.875516
H324	H	1.205013	0.627461	-0.375516
C325	C	0.816372	0.162332	-0.893497
C326	C	1.316372	0.662332	-0.393497
C327	C	0.789437	0.161955	-0.836773
C328	C	1.289437	0.661955	-0.336773
H329	H	0.850051	0.201529	-0.891684
H330	H	1.350051	0.701529	-0.391684
H331	H	0.825822	0.099201	-0.903964
H332	H	1.325822	0.599201	-0.403964
H333	H	0.791512	0.186535	-0.923324
H334	H	1.291512	0.686535	-0.423324
H335	H	0.814294	0.137741	-0.806950
H336	H	1.314294	0.637741	-0.306950
H337	H	0.779993	0.225084	-0.826301
H338	H	1.279993	0.725084	-0.326301
O339	O	0.609125	-0.250816	-0.855254
O340	O	1.109125	0.249184	-0.355254
C341	C	0.577860	-0.307990	-0.813545
C342	C	1.077860	0.192010	-0.313545
H343	H	0.575248	-0.269151	-0.768203
H344	H	1.075248	0.230849	-0.268203
H345	H	0.599917	-0.378211	-0.806783
H346	H	1.099917	0.121789	-0.306783
C347	C	0.520652	-0.375757	-0.894061
C348	C	1.020652	0.124243	-0.394061
C349	C	0.517439	-0.328050	-0.838372
C350	C	1.017439	0.171950	-0.338372
H351	H	0.483382	-0.388135	-0.909376
H352	H	0.983382	0.111865	-0.409376
H353	H	0.541716	-0.337241	-0.922161
H354	H	1.041716	0.162759	-0.422161
H355	H	0.539034	-0.434269	-0.888418
H356	H	1.039034	0.065731	-0.388418
H357	H	0.499063	-0.269535	-0.844018
H358	H	0.999063	0.230465	-0.344018
H359	H	0.496370	-0.366557	-0.810273
H360	H	0.996370	0.133443	-0.310273
H361	H	0.614731	-0.240607	-0.734964
H362	H	1.114731	0.259393	-0.234964
O363	O	0.511163	-0.129993	-0.108617
O364	O	1.011163	0.370007	0.391383
C365	C	0.543286	-0.212731	-0.111907
C366	C	1.043286	0.287269	0.388093
H367	H	0.523775	-0.269725	-0.080645
H368	H	1.023775	0.230275	0.419355
H369	H	0.588871	-0.195073	-0.097113
H370	H	1.088871	0.304927	0.402887
C371	C	0.567117	-0.179970	-0.216113
C372	C	1.067117	0.320030	0.283887
C373	C	0.543151	-0.249974	-0.177720
C374	C	1.043151	0.250026	0.322280
H375	H	0.567037	-0.202942	-0.256710
H376	H	1.067037	0.297058	0.243290
H377	H	0.545477	-0.124226	-0.213896
H378	H	1.045477	0.375774	0.286104
H379	H	0.605103	-0.165262	-0.203778
H380	H	1.105103	0.334738	0.296222
H381	H	0.505165	-0.264673	-0.190051
H382	H	1.005165	0.235327	0.309949
H383	H	0.564785	-0.305722	-0.179941
H384	H	1.064785	0.194278	0.320059
O385	O	0.573650	-0.315574	-0.562662
O386	O	1.073650	0.184426	-0.062662
C387	C	0.542384	-0.372738	-0.520950
C388	C	1.042384	0.127262	-0.020950
H389	H	0.539776	-0.333892	-0.475609
H390	H	1.039776	0.166108	0.024391
H391	H	0.564437	-0.442961	-0.514184
H392	H	1.064437	0.057039	-0.014184
C393	C	0.485168	-0.440507	-0.601459
C394	C	0.985168	0.059493	-0.101459
C395	C	0.481961	-0.392792	-0.545773
C396	C	0.981961	0.107208	-0.045773
H397	H	0.447897	-0.452881	-0.616771
H398	H	0.947897	0.047119	-0.116771
H399	H	0.506234	-0.401997	-0.629562
H400	H	1.006234	0.098003	-0.129562
H401	H	0.503548	-0.499021	-0.595813
H402	H	1.003548	0.000979	-0.095813
H403	H	0.463588	-0.334274	-0.551420
H404	H	0.963588	0.165726	-0.051420
H405	H	0.460891	-0.431292	-0.517671
H406	H	0.960891	0.068708	-0.017671
O407	O	0.573779	-0.315581	-0.437307
O408	O	1.073779	0.184419	0.062693
C409	C	0.607228	-0.373791	-0.400528
C410	C	1.107228	0.126209	0.099472
H411	H	0.649855	-0.335673	-0.390987
H412	H	1.149855	0.164327	0.109013
H413	H	0.614651	-0.443774	-0.425049
H414	H	1.114651	0.056226	0.074951
C415	C	0.523802	-0.441147	-0.351833
C416	C	1.023802	0.058853	0.148167
C417	C	0.576156	-0.394326	-0.340111
C418	C	1.076156	0.105674	0.159889
H419	H	0.504635	-0.453819	-0.314566
H420	H	1.004635	0.046181	0.185434
H421	H	0.501266	-0.401933	-0.376613
H422	H	1.001266	0.098067	0.123387
H423	H	0.529995	-0.499461	-0.372268
H424	H	1.029995	0.000539	0.127732
H425	H	0.569962	-0.336008	-0.319683
H426	H	1.069962	0.163992	0.180317
H427	H	0.598690	-0.433531	-0.315326
H428	H	1.098690	0.066469	0.184674
H429	H	-0.148463	-0.116605	-0.099996
H430	H	0.351537	0.383395	0.400004
H431	H	-0.148448	-0.116565	0.099882
H432	H	0.351552	0.383435	0.599882
H433	H	0.232926	-0.124215	-0.155074
H434	H	0.732926	0.375785	0.344926
H435	H	0.614712	-0.240660	-0.265181
H436	H	1.114712	0.259340	0.234819
H437	H	0.125061	-0.122057	-0.155072
H438	H	0.625061	0.377943	0.344928
O439	O	0.394014	-0.127510	-0.108692
O440	O	0.894014	0.372490	0.391308
C441	C	0.433012	-0.128285	-0.157304
C442	C	0.933012	0.371715	0.342696
H443	H	0.474562	-0.159128	-0.141145
H444	H	0.974562	0.340872	0.358855
H445	H	0.441456	-0.052400	-0.174246
H446	H	0.941456	0.447600	0.325754
C447	C	0.357045	-0.152093	-0.229192
C448	C	0.857045	0.347907	0.270808
C449	C	0.408076	-0.189983	-0.209346
C450	C	0.908076	0.310017	0.290654
H451	H	0.341663	-0.190148	-0.261295
H452	H	0.841663	0.309852	0.238705
H453	H	0.330771	-0.151568	-0.196442
H454	H	0.830771	0.348432	0.303558
H455	H	0.364089	-0.088857	-0.243306
H456	H	0.864089	0.411143	0.256694
H457	H	0.401031	-0.253213	-0.195225
H458	H	0.901031	0.246787	0.304775
H459	H	0.434349	-0.190520	-0.242095
H460	H	0.934349	0.309480	0.257905
