data_functionalizedCrystal
_audit_creation_method	'MofGen! by Chris Wilmer'
_symmetry_space_group_name_H-M	'P1'
_symmetry_Int_Tables_number	1
_symmetry_cell_setting	triclinic
loop_
_symmetry_equiv_pos_as_xyz
  x,y,z
_cell_length_a	23.532407
_cell_length_b	23.532407
_cell_length_c	22.610064
_cell_angle_alpha	90.000603
_cell_angle_beta	89.997161
_cell_angle_gamma	97.151322
loop_
_atom_site_label
_atom_site_type_symbol
_atom_site_fract_x
_atom_site_fract_y
_atom_site_fract_z
O1	O	0.755263	-0.069127	-0.049117
O2	O	1.255263	0.430873	0.450883
O3	O	0.589400	-0.079130	-0.049135
O4	O	1.089400	0.420870	0.450865
O5	O	0.677333	0.008803	-0.049114
O6	O	1.177333	0.508803	0.450886
O7	O	0.667330	-0.157060	-0.049137
O8	O	1.167330	0.342940	0.450863
O9	O	0.677318	0.008790	0.049255
O10	O	1.177318	0.508790	0.549255
O11	O	0.589385	-0.079143	0.049234
O12	O	1.089385	0.420857	0.549234
O13	O	0.755248	-0.069140	0.049252
O14	O	1.255248	0.430860	0.549252
Zn15	Zn	0.672314	-0.074144	0.064862
Zn16	Zn	1.172314	0.425856	0.564862
Zn17	Zn	0.672334	-0.074127	-0.064744
Zn18	Zn	1.172334	0.425873	0.435256
O19	O	0.667315	-0.157073	0.049232
O20	O	1.167315	0.342927	0.549232
C21	C	0.568176	-0.078882	0.000048
C22	C	1.068176	0.421118	0.500048
C23	C	0.504959	-0.078116	0.000041
C24	C	1.004959	0.421884	0.500041
C25	C	0.105856	-0.125350	0.000061
C26	C	0.605856	0.374650	0.500061
C27	C	0.046456	-0.124638	0.000065
C28	C	0.546456	0.375362	0.500065
O29	O	0.009711	-0.168424	0.000081
O30	O	0.509711	0.331576	0.500081
N31	N	0.023830	-0.072362	0.000071
N32	N	0.523830	0.427638	0.500071
C33	C	0.060607	-0.020794	0.000080
C34	C	0.560607	0.479206	0.500080
O35	O	0.035908	0.023737	0.000086
O36	O	0.535908	0.523737	0.500086
C37	C	0.120006	-0.021506	0.000080
C38	C	0.620006	0.478494	0.500080
C39	C	0.142629	-0.073785	0.000068
C40	C	0.642629	0.426215	0.500068
C41	C	0.128479	-0.177625	0.000050
C42	C	0.628479	0.322375	0.500050
C43	C	0.187876	-0.178336	0.000045
C44	C	0.687876	0.321664	0.500045
C45	C	0.224649	-0.126772	0.000052
C46	C	0.724649	0.373228	0.500052
C47	C	0.202025	-0.074497	0.000063
C48	C	0.702025	0.425503	0.500063
C49	C	0.156783	0.030062	0.000093
C50	C	0.656783	0.530062	0.500093
C51	C	0.216185	0.029345	0.000094
C52	C	0.716185	0.529345	0.500094
C53	C	0.238808	-0.022934	0.000082
C54	C	0.738808	0.477066	0.500082
C55	C	0.298194	-0.023643	0.000065
C56	C	0.798194	0.476357	0.500065
N57	N	0.320820	-0.075920	0.000059
N58	N	0.820820	0.424080	0.500059
C59	C	0.284048	-0.127484	0.000052
C60	C	0.784048	0.372516	0.500052
C61	C	-0.064135	-0.019302	0.000080
C62	C	0.435865	0.480698	0.500080
C63	C	-0.123533	-0.018589	0.000075
C64	C	0.376467	0.481411	0.500075
C65	C	-0.137680	-0.122434	0.000061
C66	C	0.362320	0.377566	0.500061
C67	C	-0.078281	-0.123146	0.000062
C68	C	0.421719	0.376854	0.500062
C69	C	-0.041509	-0.071578	0.000074
C70	C	0.458491	0.428422	0.500074
C71	C	0.408784	-0.128974	0.000042
C72	C	0.908784	0.371026	0.500042
C73	C	0.468186	-0.129680	0.000034
C74	C	0.968186	0.370320	0.500034
C75	C	0.482329	-0.025836	0.000051
C76	C	0.982329	0.474164	0.500051
C77	C	0.422932	-0.025129	0.000055
C78	C	0.922932	0.474871	0.500055
C79	C	0.386160	-0.076702	0.000052
C80	C	0.886160	0.423298	0.500052
O81	O	0.334974	0.020119	0.000052
O82	O	0.834974	0.520119	0.500052
O83	O	0.308755	-0.172007	0.000054
O84	O	0.808755	0.327993	0.500054
C85	C	0.677071	0.030013	0.000072
C86	C	1.177071	0.530013	0.500072
C87	C	0.676305	0.093230	0.000076
C88	C	1.176305	0.593230	0.500076
C89	C	0.776472	-0.069388	0.000069
C90	C	1.276472	0.430612	0.500069
C91	C	0.839689	-0.070154	0.000071
C92	C	1.339689	0.429846	0.500071
C93	C	0.667577	-0.178283	0.000045
C94	C	1.167577	0.321717	0.500045
C95	C	0.668343	-0.241500	0.000036
C96	C	1.168343	0.258500	0.500036
N97	N	0.672304	-0.074155	0.153314
N98	N	1.172304	0.425845	0.653314
C99	C	0.723539	0.492333	0.000049
C100	C	1.223539	0.992333	0.500049
C101	C	0.722827	0.551733	0.000044
C102	C	1.222827	1.051733	0.500044
O103	O	0.766613	0.588478	0.000027
O104	O	1.266613	1.088478	0.500027
N105	N	0.670551	0.574359	0.000039
N106	N	1.170551	1.074359	0.500039
C107	C	0.618983	0.537582	0.000032
C108	C	1.118983	1.037582	0.500032
O109	O	0.574452	0.562281	0.000027
O110	O	1.074452	1.062281	0.500027
C111	C	0.619695	0.478182	0.000033
C112	C	1.119695	0.978182	0.500033
C113	C	0.671974	0.455560	0.000044
C114	C	1.171974	0.955560	0.500044
C115	C	0.775814	0.469710	0.000060
C116	C	1.275814	0.969710	0.500060
C117	C	0.776525	0.410313	0.000065
C118	C	1.276525	0.910313	0.500065
C119	C	0.724961	0.373540	0.000060
C120	C	1.224961	0.873540	0.500060
C121	C	0.672685	0.396164	0.000050
C122	C	1.172685	0.896164	0.500050
C123	C	0.568127	0.441406	0.000022
C124	C	1.068127	0.941406	0.500022
C125	C	0.568844	0.382004	0.000021
C126	C	1.068844	0.882004	0.500021
C127	C	0.621123	0.359381	0.000033
C128	C	1.121123	0.859381	0.500033
C129	C	0.621832	0.299995	0.000050
C130	C	1.121832	0.799995	0.500050
N131	N	0.674109	0.277368	0.000056
N132	N	1.174109	0.777368	0.500056
C133	C	0.725673	0.314141	0.000061
C134	C	1.225673	0.814141	0.500061
C135	C	0.617491	0.662324	0.000031
C136	C	1.117491	1.162324	0.500031
C137	C	0.616778	0.721722	0.000034
C138	C	1.116778	1.221722	0.500034
C139	C	0.720623	0.735869	0.000045
C140	C	1.220623	1.235869	0.500045
C141	C	0.721335	0.676470	0.000046
C142	C	1.221335	1.176470	0.500046
C143	C	0.669767	0.639698	0.000036
C144	C	1.169767	1.139698	0.500036
C145	C	0.727163	0.189405	0.000073
C146	C	1.227163	0.689405	0.500073
C147	C	0.727869	0.130003	0.000081
C148	C	1.227869	0.630003	0.500081
C149	C	0.624025	0.115860	0.000067
C150	C	1.124025	0.615860	0.500067
C151	C	0.623318	0.175257	0.000062
C152	C	1.123318	0.675257	0.500062
C153	C	0.674891	0.212029	0.000063
C154	C	1.174891	0.712029	0.500063
O155	O	0.578070	0.263215	0.000065
O156	O	1.078070	0.763215	0.500065
O157	O	0.770196	0.289433	0.000058
O158	O	1.270196	0.789433	0.500058
N159	N	0.672349	-0.074111	-0.153196
N160	N	1.172349	0.425889	0.346804
C161	C	0.711273	-0.035196	0.561965
C162	C	1.211273	0.464804	1.061965
C163	C	0.711276	-0.035192	0.623884
C164	C	1.211276	0.464808	1.123884
O165	O	0.744384	-0.002076	0.655911
O166	O	1.244384	0.497924	1.155911
N167	N	0.672334	-0.074115	0.654851
N168	N	1.172334	0.425885	1.154851
C169	C	0.633383	-0.113041	0.623895
C170	C	1.133383	0.386959	1.123895
O171	O	0.600259	-0.146147	0.655920
O172	O	1.100259	0.353853	1.155920
C173	C	0.633377	-0.113042	0.561976
C174	C	1.133377	0.386958	1.061976
C175	C	0.672326	-0.074120	0.531013
C176	C	1.172326	0.425880	1.031013
C177	C	0.750218	0.003724	0.531001
C178	C	1.250218	0.503724	1.031001
C179	C	0.750215	0.003719	0.469085
C180	C	1.250215	0.503719	0.969085
C181	C	0.711268	-0.035206	0.438133
C182	C	1.211268	0.464794	0.938133
C183	C	0.672323	-0.074125	0.469097
C184	C	1.172323	0.425875	0.969097
C185	C	0.594424	-0.151965	0.531021
C186	C	1.094424	0.348035	1.031021
C187	C	0.594422	-0.151962	0.469098
C188	C	1.094422	0.348038	0.969098
C189	C	0.633370	-0.113040	0.438134
C190	C	1.133370	0.386960	0.938134
C191	C	0.633374	-0.113054	0.376229
C192	C	1.133374	0.386946	0.876229
N193	N	0.672316	-0.074131	0.345262
N194	N	1.172316	0.425869	0.845262
C195	C	0.711263	-0.035207	0.376214
C196	C	1.211263	0.464793	0.876214
C197	C	0.633396	-0.113035	0.753928
C198	C	1.133396	0.386965	1.253928
C199	C	0.633403	-0.113037	0.815846
C200	C	1.133403	0.386963	1.315846
C201	C	0.711296	-0.035187	0.815831
C202	C	1.211296	0.464813	1.315831
C203	C	0.711291	-0.035188	0.753913
C204	C	1.211291	0.464812	1.253913
C205	C	0.672338	-0.074112	0.722962
C206	C	1.172338	0.425888	1.222962
C207	C	0.711255	-0.035220	0.246187
C208	C	1.211255	0.464780	0.746187
C209	C	0.711251	-0.035230	0.184266
C210	C	1.211251	0.464770	0.684266
C211	C	0.633357	-0.113078	0.184286
C212	C	1.133357	0.386922	0.684286
C213	C	0.633363	-0.113071	0.246202
C214	C	1.133363	0.386929	0.746202
C215	C	0.672314	-0.074137	0.277151
C216	C	1.172314	0.425863	0.777151
O217	O	0.600281	-0.146152	0.344163
O218	O	1.100281	0.353848	0.844163
O219	O	0.744376	-0.002101	0.344182
O220	O	1.244376	0.497899	0.844182
H221	H	0.486602	-0.172255	0.000024
H222	H	0.986602	0.327745	0.500024
H223	H	0.575496	0.632386	0.000028
H224	H	1.075496	1.132386	0.500028
C225	C	0.788763	-0.022378	0.114533
C226	C	1.288763	0.477622	0.614533
C227	C	0.753989	0.007595	0.150187
C228	C	1.253989	0.507595	0.650187
H229	H	0.815125	0.004073	0.093487
H230	H	1.315125	0.504073	0.593487
H231	H	0.765565	-0.045594	0.087273
H232	H	1.265565	0.454406	0.587273
H233	H	0.809190	-0.045934	0.138664
H234	H	1.309190	0.454066	0.638664
H235	H	0.733559	0.031149	0.126056
H236	H	1.233559	0.531149	0.626056
H237	H	0.777190	0.030821	0.177451
H238	H	1.277190	0.530821	0.677451
H239	H	-0.167632	-0.164421	0.000059
H240	H	0.332368	0.335579	0.500059
C241	C	0.579669	0.019171	0.000063
C242	C	1.079669	0.519171	0.500063
C243	C	0.522757	0.030842	0.000063
C244	C	1.022757	0.530842	0.500063
H245	H	0.604628	0.054162	0.000078
H246	H	1.104628	0.554162	0.500078
H247	H	0.586494	-0.002267	-0.034245
H248	H	1.086494	0.497733	0.465755
H249	H	0.586484	-0.002291	0.034362
H250	H	1.086484	0.497709	0.534362
H251	H	0.515941	0.052300	-0.034239
H252	H	1.015941	0.552300	0.465761
H253	H	0.515929	0.052289	0.034375
H254	H	1.015929	0.552289	0.534375
H255	H	-0.141947	0.023982	0.000076
H256	H	0.358053	0.523982	0.500076
C257	C	0.176758	0.132632	0.000129
C258	C	0.676758	0.632632	0.500129
C259	C	0.131927	0.087531	0.000115
C260	C	0.631927	0.587531	0.500115
H261	H	0.161413	0.168112	0.000148
H262	H	0.661413	0.668112	0.500148
H263	H	0.199629	0.130201	-0.034176
H264	H	0.699629	0.630201	0.465824
H265	H	0.199632	0.130174	0.034431
H266	H	0.699632	0.630174	0.534431
H267	H	0.109056	0.089986	-0.034190
H268	H	0.609056	0.589986	0.465810
H269	H	0.109047	0.089962	0.034423
H270	H	0.609047	0.589962	0.534423
H271	H	-0.034198	0.022693	0.000084
H272	H	0.465802	0.522693	0.500084
C273	C	0.291194	0.088802	-0.050465
C274	C	0.791194	0.588802	0.449535
C275	C	0.256607	0.086031	0.000104
C276	C	0.756607	0.586031	0.500104
H277	H	0.316150	0.123795	-0.050457
H278	H	0.816150	0.623795	0.449543
H279	H	0.267728	0.086928	-0.084760
H280	H	0.767728	0.586928	0.415240
H281	H	0.313168	0.057564	-0.050466
H282	H	0.813168	0.557564	0.449534
H283	H	0.234630	0.117266	0.000103
H284	H	0.734630	0.617266	0.500103
H285	H	0.280076	0.087910	0.034408
H286	H	0.780076	0.587910	0.534408
C287	C	0.788841	-0.022453	0.315801
C288	C	1.288841	0.477547	0.815801
C289	C	0.754073	0.007574	0.280200
C290	C	1.254073	0.507574	0.780200
H291	H	0.815273	0.003966	0.336800
H292	H	1.315273	0.503966	0.836800
H293	H	0.809183	-0.046057	0.291645
H294	H	1.309183	0.453943	0.791645
H295	H	0.765645	-0.045625	0.343109
H296	H	1.265645	0.454375	0.843109
H297	H	0.777269	0.030743	0.252889
H298	H	1.277269	0.530743	0.752889
H299	H	0.733729	0.031188	0.304358
H300	H	1.233729	0.531188	0.804358
C301	C	0.827804	0.016481	0.600614
C302	C	1.327804	0.516481	1.100614
C303	C	0.793034	0.046512	0.565018
C304	C	1.293034	0.546512	1.065018
H305	H	0.854238	0.042897	0.621614
H306	H	1.354238	0.542897	1.121614
H307	H	0.848143	-0.007122	0.576454
H308	H	1.348143	0.492878	1.076454
H309	H	0.804608	-0.006693	0.627921
H310	H	1.304608	0.493307	1.127921
H311	H	0.816229	0.069682	0.537708
H312	H	1.316229	0.569682	1.037708
H313	H	0.772693	0.070124	0.589180
H314	H	1.272693	0.570124	1.089180
H315	H	0.580748	0.193677	0.000069
H316	H	1.080748	0.693677	0.500069
H317	H	0.781929	0.035414	0.443878
H318	H	1.281929	0.535414	0.943878
C319	C	0.788282	0.041762	0.760132
C320	C	1.288282	0.541762	1.260132
C321	C	0.754099	0.007600	0.719881
C322	C	1.254099	0.507600	1.219881
H323	H	0.814708	0.068182	0.739123
H324	H	1.314708	0.568182	1.239123
H325	H	0.808632	0.018157	0.784276
H326	H	1.308632	0.518157	1.284276
H327	H	0.764688	0.062124	0.784289
H328	H	1.264688	0.562124	1.284289
H329	H	0.777693	-0.012765	0.695726
H330	H	1.277693	0.487235	1.195726
H331	H	0.733748	0.031209	0.695727
H332	H	1.233748	0.531209	1.195727
H333	H	0.404512	0.017441	0.000056
H334	H	0.904512	0.517441	0.500056
H335	H	0.762610	0.765821	0.000047
H336	H	1.262610	1.265821	0.500047
H337	H	0.743008	-0.003492	0.841044
H338	H	1.243008	0.496508	1.341044
H339	H	0.378851	-0.170970	0.000041
H340	H	0.878851	0.329030	0.500041
H341	H	0.770443	0.111587	0.000092
H342	H	1.270443	0.611587	0.500092
C343	C	0.556410	-0.189987	0.809626
C344	C	1.056410	0.310013	1.309626
C345	C	0.590593	-0.155825	0.849877
C346	C	1.090593	0.344175	1.349877
H347	H	0.529976	-0.216398	0.830635
H348	H	1.029976	0.283602	1.330635
H349	H	0.579999	-0.210353	0.785477
H350	H	1.079999	0.289647	1.285477
H351	H	0.536064	-0.166376	0.785474
H352	H	1.036064	0.333624	1.285474
H353	H	0.610942	-0.179435	0.874026
H354	H	1.110942	0.320565	1.374026
H355	H	0.567001	-0.135457	0.874036
H356	H	1.067001	0.364543	1.374036
H357	H	0.769159	0.219337	0.000071
H358	H	1.269159	0.719337	0.500071
C359	C	0.879096	0.430282	0.000070
C360	C	1.379096	0.930282	0.500070
C361	C	0.833993	0.385452	0.000070
C362	C	1.333993	0.885452	0.500070
H363	H	0.914576	0.414935	0.000067
H364	H	1.414576	0.914935	0.500067
H365	H	0.876652	0.453153	0.034371
H366	H	1.376652	0.953153	0.534371
H367	H	0.876653	0.453155	-0.034237
H368	H	1.376653	0.953155	0.465763
H369	H	0.836434	0.362581	0.034378
H370	H	1.336434	0.862581	0.534378
H371	H	0.836439	0.362571	-0.034235
H372	H	1.336439	0.862571	0.465765
H373	H	0.601677	-0.144736	0.728731
H374	H	1.101677	0.355264	1.228731
C375	C	0.517423	-0.228903	0.524789
C376	C	1.017423	0.271097	1.024789
C377	C	0.551607	-0.194747	0.565045
C378	C	1.051607	0.305253	1.065045
H379	H	0.490986	-0.255314	0.545795
H380	H	0.990986	0.244686	1.045795
H381	H	0.541011	-0.249270	0.500640
H382	H	1.041011	0.250730	1.000640
H383	H	0.497081	-0.205288	0.500638
H384	H	0.997081	0.294712	1.000638
H385	H	0.571952	-0.218362	0.589193
H386	H	1.071952	0.281638	1.089193
H387	H	0.528016	-0.174379	0.589205
H388	H	1.028016	0.325621	1.089205
H389	H	0.562700	-0.183658	0.443901
H390	H	1.062700	0.316342	0.943901
C391	C	0.556363	-0.190016	0.239994
C392	C	1.056363	0.309984	0.739994
C393	C	0.590549	-0.155851	0.280241
C394	C	1.090549	0.344149	0.780241
H395	H	0.529925	-0.216420	0.261006
H396	H	1.029925	0.283580	0.761006
H397	H	0.579949	-0.210390	0.215850
H398	H	1.079949	0.289610	0.715850
H399	H	0.536022	-0.166406	0.215836
H400	H	1.036022	0.333594	0.715836
H401	H	0.610893	-0.179461	0.304396
H402	H	1.110893	0.320539	0.804396
H403	H	0.566959	-0.135476	0.304394
H404	H	1.066959	0.364524	0.804394
H405	H	0.601648	-0.144772	0.159075
H406	H	1.101648	0.355228	0.659075
C407	C	0.194078	-0.267065	-0.050533
C408	C	0.694078	0.232935	0.449467
C409	C	0.212729	-0.235808	0.000037
C410	C	0.712729	0.264192	0.500037
H411	H	0.209414	-0.302551	-0.050535
H412	H	0.709414	0.197449	0.449465
H413	H	0.206731	-0.245849	-0.084828
H414	H	0.706731	0.254151	0.415172
H415	H	0.153438	-0.274002	-0.050527
H416	H	0.653438	0.225998	0.449473
H417	H	0.253369	-0.228868	0.000028
H418	H	0.753369	0.271132	0.500028
H419	H	0.200079	-0.257029	0.034340
H420	H	0.700079	0.242971	0.534340
H421	H	0.574207	0.740136	0.000035
H422	H	1.074207	1.240136	0.500035
H423	H	-0.059867	-0.165717	0.000055
H424	H	0.440133	0.334283	0.500055
C425	C	0.053485	-0.237066	-0.050533
C426	C	0.553485	0.262934	0.449467
C427	C	0.088064	-0.234311	0.000038
C428	C	0.588064	0.265689	0.500038
H429	H	0.028535	-0.272063	-0.050541
H430	H	0.528535	0.227937	0.449459
H431	H	0.076957	-0.235174	-0.084827
H432	H	0.576957	0.264826	0.415173
H433	H	0.031504	-0.205834	-0.050520
H434	H	0.531504	0.294166	0.449480
H435	H	0.110047	-0.265541	0.000022
H436	H	0.610047	0.234459	0.500022
H437	H	0.064589	-0.236209	0.034341
H438	H	0.564589	0.263791	0.534341
H439	H	0.525555	0.459814	0.000009
H440	H	1.025555	0.959814	0.500009
H441	H	0.763906	0.658056	0.000054
H442	H	1.263906	1.158056	0.500054
C443	C	0.820850	0.567044	0.000061
C444	C	1.320850	1.067044	0.500061
C445	C	0.832500	0.510125	0.000064
C446	C	1.332500	1.010125	0.500064
H447	H	0.855849	0.591991	0.000063
H448	H	1.355849	1.091991	0.500063
H449	H	0.799400	0.573873	0.034359
H450	H	1.299400	1.073873	0.534359
H451	H	0.799408	0.573871	-0.034248
H452	H	1.299408	1.073871	0.465752
H453	H	0.853938	0.503297	0.034376
H454	H	1.353938	1.003297	0.534376
H455	H	0.853960	0.503294	-0.034237
H456	H	1.353960	1.003294	0.465763
C457	C	0.466125	0.373990	0.000004
C458	C	0.966125	0.873990	0.500004
C459	C	0.512157	0.341584	0.000013
C460	C	1.012157	0.841584	0.500013
H461	H	0.431130	0.349037	0.000003
H462	H	0.931130	0.849037	0.500003
H463	H	0.468016	0.397449	-0.034299
H464	H	0.968016	0.897449	0.465701
H465	H	0.468006	0.397456	0.034308
H466	H	0.968006	0.897456	0.534308
H467	H	0.510278	0.318121	-0.034294
H468	H	1.010278	0.818121	0.465706
H469	H	0.510265	0.318115	0.034319
H470	H	1.010265	0.818115	0.534319
C471	C	0.521306	0.107828	0.000047
C472	C	1.021306	0.607828	0.500047
C473	C	0.567347	0.075433	0.000058
C474	C	1.067347	0.575433	0.500058
H475	H	0.486316	0.082867	0.000041
H476	H	0.986316	0.582867	0.500041
H477	H	0.523195	0.131290	-0.034254
H478	H	1.023195	0.631290	0.465746
H479	H	0.523179	0.131291	0.034353
H480	H	1.023179	0.631291	0.534353
H481	H	0.565476	0.051973	-0.034251
H482	H	1.065476	0.551973	0.465749
H483	H	0.565456	0.051961	0.034362
H484	H	1.065456	0.551961	0.534362
