data_functionalizedCrystal
_audit_creation_method	'MofGen! by Chris Wilmer'
_symmetry_space_group_name_H-M	'P1'
_symmetry_Int_Tables_number	1
_symmetry_cell_setting	triclinic
loop_
_symmetry_equiv_pos_as_xyz
  x,y,z
_cell_length_a	7.076093
_cell_length_b	13.635800
_cell_length_c	7.076090
_cell_angle_alpha	117.701400
_cell_angle_beta	83.947109
_cell_angle_gamma	117.701465
loop_
_atom_site_label
_atom_site_type_symbol
_atom_site_fract_x
_atom_site_fract_y
_atom_site_fract_z
V1	V	0.663510	-1.676719	0.291701
O2	O	0.652431	-1.783335	-0.017518
O3	O	0.657480	-1.552400	0.581760
O4	O	0.953571	-1.552398	0.285678
O5	O	0.354291	-1.783337	0.280614
V6	V	0.626707	-1.944480	0.254896
O7	O	0.744243	-1.750317	0.372435
O8	O	0.545974	-2.095980	0.174162
O9	O	0.632737	-1.957196	-0.035163
O10	O	0.637786	-1.896562	0.564115
O11	O	0.935926	-1.896560	0.265983
O12	O	0.336646	-1.957198	0.260919
V13	V	0.663510	-1.176719	0.291701
O14	O	0.652431	-1.283335	-0.017518
O15	O	0.657480	-1.052400	0.581760
O16	O	0.953571	-1.052398	0.285678
O17	O	0.354291	-1.283337	0.280614
V18	V	0.626707	-1.444480	0.254896
O19	O	0.744243	-1.250317	0.372435
O20	O	0.545974	-1.595980	0.174162
O21	O	0.632737	-1.457196	-0.035163
O22	O	0.637786	-1.396562	0.564115
O23	O	0.935926	-1.396560	0.265983
O24	O	0.336646	-1.457198	0.260919
C25	C	0.646638	-1.453787	0.652521
C26	C	0.643590	-1.390957	0.894096
C27	C	1.024318	-1.453791	0.274825
C28	C	1.265891	-1.390966	0.271761
C29	C	0.643585	-1.887488	-0.105911
C30	C	0.646683	-1.939726	-0.347478
C31	C	0.265887	-1.887480	0.271767
C32	C	0.024313	-1.939732	0.274826
