data_functionalizedCrystal
_audit_creation_method	'MofGen! by Chris Wilmer'
_symmetry_space_group_name_H-M	'P1'
_symmetry_Int_Tables_number	1
_symmetry_cell_setting	triclinic
loop_
_symmetry_equiv_pos_as_xyz
  x,y,z
_cell_length_a	13.032831
_cell_length_b	18.101395
_cell_length_c	13.032268
_cell_angle_alpha	82.853748
_cell_angle_beta	89.113023
_cell_angle_gamma	82.835691
loop_
_atom_site_label
_atom_site_type_symbol
_atom_site_fract_x
_atom_site_fract_y
_atom_site_fract_z
Zn1	Zn	1.498320	-0.500117	0.780796
Zn2	Zn	1.520028	-0.610451	0.608808
Zn3	Zn	1.348189	-0.469181	0.587040
Zn4	Zn	1.326277	-0.606447	0.758934
O5	O	1.423203	-0.546549	0.683894
O6	O	1.645116	-0.529375	0.776242
O7	O	1.515487	-0.580440	0.462005
O8	O	1.368189	-0.369663	0.612782
O9	O	1.661064	-0.610437	0.649882
O10	O	1.478491	-0.392391	0.755134
O11	O	1.389238	-0.476650	0.446012
O12	O	1.201366	-0.472767	0.591582
O13	O	1.330844	-0.603613	0.905750
O14	O	1.185268	-0.573616	0.717872
O15	O	1.457244	-0.525493	0.921812
O16	O	1.494241	-0.713541	0.628683
O17	O	1.351893	-0.710600	0.738979
C18	C	1.156001	-0.519401	0.649993
C19	C	1.041687	-0.507806	0.635514
C20	C	0.982797	-0.552600	0.691451
C21	C	0.864648	-0.540618	0.676488
C22	C	1.423070	-0.738943	0.683847
C23	C	1.423102	-0.821262	0.683873
C24	C	1.423321	-1.120381	0.683957
C25	C	1.333919	-1.087270	0.753573
C26	C	1.333573	-1.001594	0.753276
C27	C	1.423212	-0.971985	0.683916
C28	C	1.407642	-0.991648	0.571811
C29	C	1.407070	-1.077279	0.572223
C30	C	1.528588	-1.101951	0.725513
C31	C	1.527646	-1.016421	0.727809
C32	C	1.423153	-0.888117	0.683886
C33	C	1.423378	-1.204247	0.683979
C34	C	1.691449	-0.573804	0.717929
C35	C	1.805759	-0.585418	0.732432
C36	C	1.389178	-0.567557	0.952140
C37	C	1.374679	-0.576509	1.066450
C38	C	1.423363	-0.353408	0.683968
C39	C	1.423431	-0.271103	0.684000
C40	C	1.457155	-0.525575	0.416700
C41	C	1.471854	-0.516434	0.302416
C42	C	1.430755	-0.541848	1.125361
C43	C	1.415770	-0.551100	1.243507
H44	H	1.341720	-0.988702	0.835969
H45	H	0.827601	-0.493392	0.617521
C46	C	0.855802	-0.649216	0.812102
N47	N	0.893495	-0.697269	0.872107
H48	H	1.256075	-1.099292	0.725253
H49	H	1.489853	-0.505321	1.088329
C50	C	0.991638	-0.444011	0.555851
N51	N	0.953943	-0.395960	0.495845
C52	C	1.305443	-0.949434	0.525995
N53	N	1.228464	-0.917640	0.491491
H54	H	1.341850	-1.115992	0.836504
C55	C	1.618345	-1.131261	0.657246
N56	N	1.685942	-1.153342	0.605825
C57	C	1.032847	-0.616396	0.771113
N58	N	1.070542	-0.664450	0.831114
H59	H	1.545469	-1.132313	0.806592
C60	C	1.227760	-0.960991	0.714693
N61	N	1.148047	-0.930411	0.685655
H62	H	1.356658	-0.587621	1.280533
C63	C	1.543876	-1.000376	0.839340
N64	N	1.556106	-0.988276	0.923339
C65	C	1.551706	-0.467088	1.252400
N66	N	1.611851	-0.429923	1.214728
C67	C	1.303665	-1.090955	0.526836
N68	N	1.225775	-1.101252	0.492654
H69	H	1.470108	-1.098787	0.517844
C70	C	1.493656	-0.965329	0.499008
N71	N	1.558443	-0.945502	0.444173
H72	H	1.596674	-0.997101	0.681897
C73	C	1.294829	-0.625850	1.116472
N74	N	1.234684	-0.663015	1.154147
