data_functionalizedCrystal
_audit_creation_method	'MofGen! by Chris Wilmer'
_symmetry_space_group_name_H-M	'P1'
_symmetry_Int_Tables_number	1
_symmetry_cell_setting	triclinic
loop_
_symmetry_equiv_pos_as_xyz
  x,y,z
_cell_length_a	12.759401
_cell_length_b	16.625546
_cell_length_c	12.759393
_cell_angle_alpha	90.036194
_cell_angle_beta	90.018496
_cell_angle_gamma	90.022629
loop_
_atom_site_label
_atom_site_type_symbol
_atom_site_fract_x
_atom_site_fract_y
_atom_site_fract_z
Zn1	Zn	1.606199	-0.320951	0.593948
Zn2	Zn	1.606069	-0.455807	0.418253
Zn3	Zn	1.430501	-0.320993	0.418287
Zn4	Zn	1.430465	-0.455745	0.593895
O5	O	1.518308	-0.388374	0.506096
O6	O	1.753203	-0.338848	0.570649
O7	O	1.582740	-0.437968	0.271237
O8	O	1.453876	-0.208155	0.441625
O9	O	1.753107	-0.437927	0.441568
O10	O	1.582961	-0.208124	0.570682
O11	O	1.453751	-0.338920	0.271261
O12	O	1.283475	-0.338860	0.441574
O13	O	1.453816	-0.437821	0.740923
O14	O	1.283449	-0.437862	0.570592
O15	O	1.582927	-0.338788	0.740962
O16	O	1.582706	-0.568632	0.441517
O17	O	1.453691	-0.568586	0.570560
C18	C	1.245341	-0.388359	0.506081
C19	C	1.128564	-0.388372	0.506100
C20	C	1.073717	-0.440005	0.573169
C21	C	0.963992	-0.440015	0.573180
C22	C	0.963974	-0.336758	0.439045
C23	C	1.073696	-0.336744	0.439040
C24	C	1.128585	-0.491634	0.640229
C25	C	1.073737	-0.543271	0.707303
C26	C	0.964013	-0.543282	0.707314
C27	C	0.909137	-0.491654	0.640252
C28	C	1.518209	-0.597865	0.506052
C29	C	1.518263	-0.687486	0.506068
C30	C	1.518446	-1.015662	0.506177
C31	C	1.518392	-0.924353	0.506150
C32	C	1.518353	-0.851577	0.506122
C33	C	1.518301	-0.760262	0.506096
C34	C	1.792342	-0.388390	0.506111
C35	C	1.909118	-0.388396	0.506117
C36	C	1.518382	-0.388293	0.780129
C37	C	1.518413	-0.388258	0.896906
C38	C	1.518437	-0.178065	0.506163
C39	C	1.518492	-0.088444	0.506191
C40	C	1.518296	-0.388397	0.233128
C41	C	1.518468	-0.388204	0.116352
C42	C	1.585650	-0.336687	0.951790
C43	C	1.585675	-0.336657	1.061514
C44	C	1.451223	-0.439778	1.061461
C45	C	1.451194	-0.439803	0.951739
C46	C	1.652870	-0.285142	0.896957
C47	C	1.720113	-0.233567	0.951841
C48	C	1.720138	-0.233538	1.061565
C49	C	1.652920	-0.285084	1.116405
H50	H	0.919285	-0.294726	0.384446
H51	H	1.396427	-0.481784	0.907051
O52	O	1.127102	-0.286705	0.373836
C53	C	1.250898	-0.275726	0.231978
C54	C	1.190497	-0.332487	0.305768
H55	H	1.302150	-0.312719	0.176912
H56	H	1.302369	-0.233619	0.280258
H57	H	1.192822	-0.238813	0.184088
H58	H	1.248497	-0.369452	0.353674
H59	H	1.139010	-0.374541	0.257429
O60	O	1.126922	-0.593529	0.772395
C61	C	1.160513	-0.730728	0.823028
C62	C	1.100201	-0.673902	0.749259
H63	H	1.138948	-0.795722	0.804334
H64	H	1.138959	-0.716712	0.907796
H65	H	1.248351	-0.721812	0.811519
H66	H	1.012349	-0.682786	0.760674
H67	H	1.121843	-0.687931	0.664518
O68	O	0.910847	-0.593397	0.772614
C69	C	0.877290	-0.632678	0.951238
C70	C	0.937580	-0.575880	0.877406
H71	H	0.898865	-0.618525	1.035978
H72	H	0.898856	-0.697688	0.932714
H73	H	0.789449	-0.623834	0.939674
H74	H	1.025435	-0.584653	0.888928
H75	H	0.915928	-0.510892	0.895948
H76	H	0.819792	-0.491660	0.640276
O77	O	1.785365	-0.183569	0.898412
C78	C	1.844862	-0.137868	0.729404
C79	C	1.770930	-0.194548	0.789777
H80	H	1.833201	-0.146713	0.641562
H81	H	1.929599	-0.152025	0.750899
H82	H	1.826465	-0.072855	0.751066
H83	H	1.789232	-0.259580	0.768147
H84	H	1.686216	-0.180321	0.768277
H85	H	1.652859	-0.285162	0.807614
O86	O	1.785497	-0.183548	1.114999
C87	C	1.927417	-0.172680	1.238853
C88	C	1.853444	-0.229383	1.178424
H89	H	1.982385	-0.209715	1.290130
H90	H	1.879275	-0.130516	1.290303
H91	H	1.975402	-0.135825	1.180795
H92	H	1.805442	-0.266290	1.236407
H93	H	1.901646	-0.271494	1.126959
H94	H	1.396497	-0.481744	1.106120
H95	H	1.217928	-0.491633	0.640226
H96	H	1.652934	-0.285046	1.205750
