data_functionalizedCrystal
_audit_creation_method	'MofGen! by Chris Wilmer'
_symmetry_space_group_name_H-M	'P1'
_symmetry_Int_Tables_number	1
_symmetry_cell_setting	triclinic
loop_
_symmetry_equiv_pos_as_xyz
  x,y,z
_cell_length_a	8.559649
_cell_length_b	9.065218
_cell_length_c	7.540329
_cell_angle_alpha	89.996257
_cell_angle_beta	90.000410
_cell_angle_gamma	102.602725
loop_
_atom_site_label
_atom_site_type_symbol
_atom_site_fract_x
_atom_site_fract_y
_atom_site_fract_z
O1	O	2.119395	0.049963	0.147454
O2	O	1.655292	-0.026103	0.147462
O3	O	1.896937	0.227778	0.147454
O4	O	1.877751	-0.203918	0.147462
O5	O	1.896935	0.227790	-0.147511
O6	O	1.655290	-0.026090	-0.147503
O7	O	2.119393	0.049975	-0.147511
Cu8	Cu	1.887342	0.011943	-0.174440
Cu9	Cu	1.887344	0.011929	0.174391
O10	O	1.877749	-0.203906	-0.147503
C11	C	1.595845	-0.031861	-0.000020
C12	C	1.418713	-0.049020	-0.000017
N13	N	1.887346	0.011930	0.419739
C14	C	1.895092	0.282539	-0.000025
C15	C	1.889578	0.445689	-0.000017
C16	C	2.178841	0.055733	-0.000025
C17	C	2.355972	0.072892	-0.000017
C18	C	1.879594	-0.258667	-0.000020
C19	C	1.885107	-0.421817	-0.000017
N20	N	1.887352	0.011956	-0.419788
H21	H	1.437769	0.190393	-0.000010
O22	O	1.321297	-0.189290	-0.000246
C23	C	1.351428	-0.268329	-0.153033
H24	H	1.477153	-0.217994	-0.203974
H25	H	1.341341	-0.392521	-0.118672
H26	H	1.260158	-0.258389	-0.259999
