data_functionalizedCrystal
_audit_creation_method	'MofGen! by Chris Wilmer'
_symmetry_space_group_name_H-M	'P1'
_symmetry_Int_Tables_number	1
_symmetry_cell_setting	triclinic
loop_
_symmetry_equiv_pos_as_xyz
  x,y,z
_cell_length_a	21.295417
_cell_length_b	10.685912
_cell_length_c	10.685880
_cell_angle_alpha	99.083823
_cell_angle_beta	94.332822
_cell_angle_gamma	85.605280
loop_
_atom_site_label
_atom_site_type_symbol
_atom_site_fract_x
_atom_site_fract_y
_atom_site_fract_z
Zn1	Zn	-0.207451	-1.995643	-0.866709
Zn2	Zn	-0.305248	-1.979177	-0.654422
Zn3	Zn	-0.207480	-1.767081	-0.638170
Zn4	Zn	-0.320174	-1.783279	-0.850311
O5	O	-0.260088	-1.881295	-0.752403
O6	O	-0.214165	-2.171097	-0.852213
O7	O	-0.286044	-1.937372	-0.474642
O8	O	-0.119384	-1.797512	-0.668547
O9	O	-0.286016	-2.159000	-0.696246
O10	O	-0.119363	-1.965436	-0.836454
O11	O	-0.214214	-1.781546	-0.462701
O12	O	-0.228687	-1.591591	-0.652647
O13	O	-0.311455	-1.825120	-1.030111
O14	O	-0.311483	-1.603492	-0.808506
O15	O	-0.228638	-1.981143	-1.042158
O16	O	-0.395319	-1.953079	-0.680346
O17	O	-0.406285	-1.809153	-0.824265
C18	C	-0.271709	-1.551482	-0.727034
C19	C	-0.276696	-1.410389	-0.716212
C20	C	-0.423643	-1.881123	-0.752320
C21	C	-0.493610	-1.881169	-0.752336
C22	C	-0.520746	-1.956190	-0.677486
C23	C	-0.586487	-1.956251	-0.677519
C24	C	-0.625091	-1.881269	-0.752387
C25	C	-0.597947	-1.806244	-0.827252
C26	C	-0.532207	-1.806194	-0.827227
N27	N	-0.732614	-1.770964	-0.753522
N28	N	-0.795064	-1.771014	-0.753539
C29	C	-0.823163	-1.881417	-0.752471
N30	N	-0.786451	-1.991767	-0.751360
N31	N	-0.723995	-1.991715	-0.751336
C32	C	-0.696375	-1.881315	-0.752424
C33	C	-0.921583	-1.956511	-0.677653
C34	C	-0.987326	-1.956575	-0.677695
C35	C	-0.998784	-1.806556	-0.827421
C36	C	-0.933043	-1.806503	-0.827386
C37	C	-0.894446	-1.881478	-0.752495
C38	C	-0.095894	-1.881504	-0.752517
C39	C	-0.025924	-1.881593	-0.752565
C40	C	-0.271708	-1.906775	-1.083478
C41	C	-0.276660	-1.917633	-1.224563
C42	C	-0.248417	-1.212395	-0.777860
C43	C	-0.243431	-1.353488	-0.788679
C44	C	-0.248465	-1.855987	-0.422621
C45	C	-0.243327	-1.845376	-0.281556
H46	H	-0.489322	-2.017242	-0.616509
H47	H	-0.211132	-1.412720	-0.858998
N48	N	-0.200503	-1.752428	-1.203216
H49	H	-0.155629	-1.773957	-1.227769
H50	H	-0.214323	-1.663501	-1.219267
H51	H	-0.308989	-1.987811	-1.283710
H52	H	-0.629382	-1.745195	-0.888213
N53	N	-0.319470	-1.331950	-0.623049
H54	H	-0.317087	-1.238895	-0.628261
H55	H	-0.364325	-1.356527	-0.644383
H56	H	-0.510113	-1.745102	-0.888180
N57	N	-0.615766	-2.037171	-0.596787
H58	H	-0.581340	-2.084660	-0.549343
H59	H	-0.642836	-1.981033	-0.534050
N60	N	-1.040406	-1.725679	-0.908180
H61	H	-1.067893	-1.781769	-0.971022
H62	H	-1.067942	-1.662948	-0.851954
N63	N	-0.879948	-2.037374	-0.596886
H64	H	-0.907117	-2.084918	-0.549480
H65	H	-0.852375	-2.100033	-0.653104
H66	H	-1.009418	-2.017674	-0.616746
H67	H	-0.910947	-1.745408	-0.888330
