data_functionalizedCrystal
_audit_creation_method	'MofGen! by Chris Wilmer'
_symmetry_space_group_name_H-M	'P1'
_symmetry_Int_Tables_number	1
_symmetry_cell_setting	triclinic
loop_
_symmetry_equiv_pos_as_xyz
  x,y,z
_cell_length_a	18.215407
_cell_length_b	13.031981
_cell_length_c	18.215399
_cell_angle_alpha	82.788957
_cell_angle_beta	89.980167
_cell_angle_gamma	97.192004
loop_
_atom_site_label
_atom_site_type_symbol
_atom_site_fract_x
_atom_site_fract_y
_atom_site_fract_z
Zn1	Zn	1.087918	-0.416110	-0.378877
Zn2	Zn	1.072220	-0.590902	-0.240168
Zn3	Zn	0.964848	-0.416144	-0.255822
Zn4	Zn	0.949215	-0.590844	-0.363199
O5	O	1.018550	-0.503500	-0.309516
O6	O	1.188819	-0.439306	-0.360488
O7	O	1.057949	-0.567758	-0.139257
O8	O	0.994285	-0.269876	-0.285258
O9	O	1.177285	-0.567725	-0.258579
O10	O	1.084705	-0.269851	-0.375666
O11	O	0.979063	-0.439364	-0.150757
O12	O	0.859791	-0.439308	-0.270055
O13	O	0.967642	-0.567626	-0.468266
O14	O	0.848305	-0.567659	-0.348944
O15	O	1.069546	-0.439250	-0.479785
O16	O	1.042790	-0.737158	-0.243376
O17	O	0.952419	-0.737115	-0.333766
C18	C	0.827345	-0.503482	-0.309497
C19	C	0.745545	-0.503499	-0.309504
C20	C	0.551380	-0.570437	-0.350513
C21	C	0.474521	-0.570440	-0.350522
C22	C	0.486470	-0.436581	-0.268534
C23	C	0.563328	-0.436574	-0.268530
C24	C	0.595781	-0.503507	-0.309518
C25	C	0.442064	-0.503518	-0.309531
C26	C	0.358730	-0.503521	-0.309540
C27	C	0.679120	-0.503503	-0.309510
C28	C	0.994225	-0.775061	-0.285187
C29	C	0.983886	-0.891236	-0.274803
C30	C	1.023985	-0.942934	-0.314950
C31	C	1.013300	-1.063007	-0.304219
C32	C	1.210501	-0.503518	-0.309536
C33	C	1.292299	-0.503526	-0.309545
C34	C	1.018601	-0.503428	-0.501476
C35	C	1.018623	-0.503397	-0.583278
C36	C	1.042990	-0.230878	-0.333957
C37	C	1.053405	-0.114703	-0.344372
C38	C	1.071707	-0.436489	-0.777476
C39	C	1.071719	-0.436458	-0.854338
C40	C	0.965605	-0.570143	-0.842331
C41	C	0.965591	-0.570168	-0.765472
C42	C	1.018646	-0.503342	-0.733046
C43	C	1.018672	-0.503287	-0.886767
C44	C	1.018684	-0.503255	-0.970104
C45	C	1.018634	-0.503373	-0.649704
C46	C	1.018548	-0.503496	-0.118311
C47	C	1.018695	-0.503232	-0.036536
H48	H	1.066223	-0.898304	-0.357269
O49	O	0.962801	-1.116191	-0.253815
C50	C	0.891790	-1.089644	-0.272174
H51	H	0.890703	-1.059515	-0.333635
H52	H	0.849083	-1.161535	-0.259422
H53	H	0.878164	-1.026420	-0.238309
H54	H	0.599481	-0.382065	-0.235147
O55	O	0.914078	-0.635016	-0.722202
C56	C	0.925454	-0.620722	-0.647410
H57	H	0.956784	-0.540064	-0.644154
H58	H	0.869690	-0.627815	-0.617551
H59	H	0.959084	-0.682726	-0.620045
H60	H	1.114907	-0.382072	-0.751078
H61	H	0.577801	-0.624936	-0.383890
H62	H	1.114926	-0.382018	-0.890510
O63	O	0.431496	-0.635556	-0.390358
C64	C	0.476626	-0.694607	-0.426547
H65	H	0.531080	-0.698167	-0.396074
H66	H	0.447046	-0.776974	-0.426926
H67	H	0.488245	-0.656432	-0.485902
H68	H	1.095646	-1.070076	-0.386694
O69	O	0.933389	-0.944424	-0.224402
C70	C	0.862379	-0.917877	-0.242761
H71	H	0.861291	-0.887748	-0.304222
H72	H	0.819671	-0.989767	-0.230009
H73	H	0.848752	-0.854652	-0.208896
O74	O	0.914146	-0.635026	-0.873948
C75	C	0.925524	-0.620653	-0.951315
H76	H	0.985388	-0.586422	-0.964893
H77	H	0.913521	-0.698935	-0.973503
H78	H	0.886865	-0.564984	-0.978110
H79	H	0.460037	-0.382088	-0.235162
