data_functionalizedCrystal
_audit_creation_method	'MofGen! by Chris Wilmer'
_symmetry_space_group_name_H-M	'P1'
_symmetry_Int_Tables_number	1
_symmetry_cell_setting	triclinic
loop_
_symmetry_equiv_pos_as_xyz
  x,y,z
_cell_length_a	10.654550
_cell_length_b	16.109301
_cell_length_c	9.130313
_cell_angle_alpha	89.997330
_cell_angle_beta	89.996220
_cell_angle_gamma	83.973192
loop_
_atom_site_label
_atom_site_type_symbol
_atom_site_fract_x
_atom_site_fract_y
_atom_site_fract_z
O1	O	1.666250	0.116770	-0.121925
O2	O	1.300621	0.127896	-0.121902
O3	O	1.493479	0.001362	-0.121899
O4	O	1.473391	0.243304	-0.121928
O5	O	1.493477	0.001365	0.121700
O6	O	1.300618	0.127899	0.121697
O7	O	1.666248	0.116774	0.121674
Cu8	Cu	1.483433	0.122337	0.143928
Cu9	Cu	1.483435	0.122333	-0.144156
O10	O	1.473389	0.243308	0.121671
C11	C	1.253832	0.127080	-0.000099
C12	C	1.114422	0.124636	-0.000090
C13	C	1.033926	0.199138	-0.000120
C14	C	0.902936	0.196836	-0.000145
C15	C	0.932952	0.045526	-0.000116
C16	C	1.063939	0.047828	-0.000081
C17	C	1.016595	0.286496	-0.000143
C18	C	0.885606	0.284194	-0.000168
C19	C	1.492665	-0.029616	-0.000099
C20	C	1.490225	-0.121926	-0.000097
C21	C	1.598991	-0.343552	-0.000127
C22	C	1.596689	-0.430286	-0.000139
C23	C	1.367868	-0.411772	-0.000119
C24	C	1.370172	-0.325040	-0.000117
C25	C	1.485737	-0.290932	-0.000114
C26	C	1.481131	-0.464399	-0.000127
C27	C	1.478634	-0.558440	-0.000140
C28	C	1.488234	-0.196885	-0.000104
C29	C	1.713036	0.117589	-0.000132
C30	C	1.852446	0.120033	-0.000151
C31	C	1.474204	0.274286	-0.000132
C32	C	1.476643	0.366595	-0.000144
N33	N	1.483440	0.122339	0.346551
N34	N	1.483438	0.122324	-0.346779
C35	C	1.568859	0.066329	0.423204
C36	C	1.568856	0.066319	0.576541
C37	C	1.398010	0.178336	0.576558
C38	C	1.398008	0.178342	0.423223
C39	C	1.667500	0.001659	0.423195
C40	C	1.667497	0.001649	0.576532
H41	H	1.129476	-0.012838	-0.000035
H42	H	1.693091	-0.315785	-0.000127
C43	C	1.055607	0.332650	0.137575
C44	C	0.954713	0.367529	0.248571
C45	C	0.993725	0.413682	0.386286
C46	C	1.133631	0.424956	0.413005
C47	C	1.234534	0.390076	0.302006
C48	C	1.195522	0.343923	0.164291
H49	H	0.851138	0.359184	0.228795
H50	H	0.919030	0.439502	0.468455
H51	H	1.162511	0.459121	0.514949
H52	H	1.338109	0.398421	0.321781
H53	H	1.270217	0.318103	0.082122
H54	H	1.763815	0.015894	0.618141
C55	C	1.627419	-0.079932	0.640814
C56	C	1.510504	-0.077558	0.740497
C57	C	1.470438	-0.159137	0.804791
C58	C	1.547287	-0.243090	0.769401
C59	C	1.664210	-0.245468	0.669713
C60	C	1.704276	-0.163889	0.605419
H61	H	1.453609	-0.015407	0.766699
H62	H	1.383884	-0.157376	0.878587
H63	H	1.517628	-0.303480	0.816996
H64	H	1.721105	-0.307619	0.643511
H65	H	1.790830	-0.165650	0.531623
H66	H	1.051874	0.314310	-0.105318
C67	C	0.823412	0.319863	0.141895
C68	C	0.722921	0.395803	0.135405
C69	C	0.660727	0.431470	0.277466
C70	C	0.699024	0.391197	0.426017
C71	C	0.799520	0.315253	0.432512
C72	C	0.861714	0.279586	0.290451
H73	H	0.694567	0.425620	0.025434
H74	H	0.586333	0.487689	0.272657
H75	H	0.652985	0.417600	0.531179
H76	H	0.827875	0.285436	0.542483
H77	H	0.936108	0.223367	0.295261
H78	H	0.891833	-0.017009	-0.000131
C79	C	1.790308	0.029015	0.358925
C80	C	1.917878	-0.021020	0.394303
C81	C	2.040684	0.006341	0.330034
C82	C	2.035920	0.083737	0.230388
C83	C	1.908346	0.133776	0.195006
C84	C	1.785540	0.106415	0.259274
H85	H	1.921408	-0.078316	0.468071
H86	H	2.135123	-0.030701	0.356227
H87	H	2.126829	0.103991	0.182813
H88	H	1.904816	0.191072	0.121238
H89	H	1.691101	0.143457	0.233081
C90	C	1.721272	-0.488167	-0.000147
C91	C	1.815971	-0.483885	0.126344
C92	C	1.940560	-0.541766	0.126333
C93	C	1.970450	-0.603929	-0.000171
C94	C	1.875748	-0.608214	-0.126672
C95	C	1.751159	-0.550333	-0.126660
H96	H	1.793847	-0.437866	0.219998
H97	H	2.010664	-0.538593	0.219978
H98	H	2.062678	-0.646776	-0.000179
H99	H	1.897873	-0.654233	-0.220326
H100	H	1.681055	-0.553505	-0.220306
H101	H	1.273779	-0.439553	-0.000118
C102	C	1.245583	-0.267151	-0.000101
C103	C	1.215702	-0.204977	-0.126596
C104	C	1.091120	-0.147089	-0.126587
C105	C	0.996418	-0.151376	-0.000083
C106	C	1.026297	-0.213552	0.126421
C107	C	1.150879	-0.271440	0.126412
H108	H	1.285808	-0.201802	-0.220250
H109	H	1.069002	-0.101062	-0.220234
H110	H	0.904195	-0.108524	-0.000076
H111	H	0.956191	-0.216728	0.220075
H112	H	1.172997	-0.317468	0.220060
C113	C	1.639696	-0.084665	0.366966
C114	C	1.736785	-0.136568	0.269995
C115	C	1.708979	-0.222888	0.213766
C116	C	1.584085	-0.257306	0.254508
C117	C	1.486987	-0.205403	0.351485
C118	C	1.514793	-0.119082	0.407714
H119	H	1.829247	-0.111090	0.239830
H120	H	1.780858	-0.261310	0.141977
H121	H	1.563501	-0.321206	0.212884
H122	H	1.394525	-0.230880	0.381650
H123	H	1.442914	-0.080660	0.479503
H124	H	0.843427	0.317108	-0.102126
H125	H	1.328442	0.223942	0.360814
H126	H	1.328452	0.223932	0.639001
