data_functionalizedCrystal
_audit_creation_method	'MofGen! by Chris Wilmer'
_symmetry_space_group_name_H-M	'P1'
_symmetry_Int_Tables_number	1
_symmetry_cell_setting	triclinic
loop_
_symmetry_equiv_pos_as_xyz
  x,y,z
_cell_length_a	12.759399
_cell_length_b	12.759401
_cell_length_c	12.759393
_cell_angle_alpha	90.020938
_cell_angle_beta	89.969094
_cell_angle_gamma	89.983359
loop_
_atom_site_label
_atom_site_type_symbol
_atom_site_fract_x
_atom_site_fract_y
_atom_site_fract_z
Zn1	Zn	-0.418173	-1.606263	-0.594017
Zn2	Zn	-0.593888	-1.606153	-0.418336
Zn3	Zn	-0.418229	-1.430562	-0.418352
Zn4	Zn	-0.593815	-1.430553	-0.593973
O5	O	-0.506026	-1.518383	-0.506170
O6	O	-0.441489	-1.753270	-0.570724
O7	O	-0.570641	-1.582818	-0.271317
O8	O	-0.271200	-1.453919	-0.441680
O9	O	-0.570587	-1.753189	-0.441652
O10	O	-0.271159	-1.583006	-0.570740
O11	O	-0.441584	-1.453812	-0.271329
O12	O	-0.441513	-1.283540	-0.441637
O13	O	-0.570461	-1.453903	-0.741000
O14	O	-0.570516	-1.283533	-0.570665
O15	O	-0.441418	-1.582997	-0.741032
O16	O	-0.740900	-1.582809	-0.441609
O17	O	-0.740846	-1.453796	-0.570649
C18	C	-0.778994	-1.518318	-0.506146
C19	C	-0.895770	-1.518387	-0.506171
C20	C	-0.506013	-1.245415	-0.506149
C21	C	-0.506033	-1.128639	-0.506165
C22	C	-0.505925	-1.518461	-0.780203
C23	C	-0.505882	-1.518495	-0.896980
C24	C	-0.950625	-1.585641	-0.439056
C25	C	-1.060349	-1.585708	-0.439091
C26	C	-1.060353	-1.451259	-0.573359
C27	C	-0.950631	-1.451198	-0.573328
C28	C	-1.210225	-1.709717	-0.401704
C29	C	-1.265084	-1.776961	-0.334573
C30	C	-1.229543	-1.793124	-0.232062
C31	C	-1.139145	-1.742027	-0.196662
C32	C	-1.084292	-1.674775	-0.263788
C33	C	-1.119831	-1.658632	-0.366313
C34	C	-0.800754	-1.327188	-0.610705
C35	C	-0.745899	-1.259930	-0.677826
C36	C	-0.781437	-1.243756	-0.780338
C37	C	-0.871838	-1.294835	-0.815734
C38	C	-0.926694	-1.362093	-0.748613
C39	C	-0.891147	-1.378268	-0.646102
C40	C	-0.231993	-1.518476	-0.506217
C41	C	-0.115216	-1.518516	-0.506237
C42	C	-0.506040	-1.792416	-0.506191
C43	C	-0.506046	-1.909193	-0.506200
C44	C	-0.573307	-1.073801	-0.573244
C45	C	-0.573311	-0.964077	-0.573265
C46	C	-0.438764	-0.964038	-0.439118
C47	C	-0.438756	-1.073760	-0.439104
C48	C	-0.438679	-1.585719	-0.951860
C49	C	-0.438633	-1.585737	-1.061584
C50	C	-0.573004	-1.451303	-1.061538
C51	C	-0.573044	-1.451281	-0.951816
C52	C	-0.506051	-1.518365	-0.233202
C53	C	-0.505798	-1.518535	-0.116426
H54	H	-0.905960	-1.640352	-0.384374
H55	H	-1.010691	-1.633174	-0.234967
O56	O	-0.373582	-1.651108	-0.898543
C57	C	-0.433415	-1.718918	-0.835052
H58	H	-0.516151	-1.725394	-0.868102
H59	H	-0.437063	-1.686414	-0.751891
C60	C	-0.280468	-1.820196	-0.792799
C61	C	-0.382082	-1.828157	-0.833397
H62	H	-0.248802	-1.887579	-0.791773
H63	H	-0.240155	-1.774509	-0.835570
H64	H	-0.283521	-1.793105	-0.723502
H65	H	-0.379026	-1.855235	-0.902697
H66	H	-0.422393	-1.873851	-0.790637
H67	H	-1.274216	-1.847877	-0.177404
H68	H	-0.383908	-1.640476	-1.106263
H69	H	-0.627768	-1.396532	-0.907131
O70	O	-0.373549	-1.127152	-0.373885
C71	C	-0.433280	-1.190556	-0.305900
H72	H	-0.512944	-1.206990	-0.342813
H73	H	-0.444731	-1.148232	-0.228025
C74	C	-0.277602	-1.274601	-0.241633
C75	C	-0.375444	-1.294793	-0.286975
H76	H	-0.241925	-1.338898	-0.229954
H77	H	-0.237359	-1.231883	-0.287433
H78	H	-0.287158	-1.239329	-0.176742
H79	H	-0.365886	-1.330053	-0.351870
H80	H	-0.415684	-1.337520	-0.241185
H81	H	-0.627687	-1.396583	-1.106199
O82	O	-0.638762	-0.910970	-0.638457
C83	C	-0.698116	-0.982940	-0.697659
H84	H	-0.701695	-1.061129	-0.654605
H85	H	-0.659740	-0.994662	-0.777518
C86	C	-0.805558	-0.844067	-0.765491
C87	C	-0.809962	-0.940098	-0.712607
H88	H	-0.874549	-0.817640	-0.774717
H89	H	-0.765568	-0.795579	-0.725609
H90	H	-0.773574	-0.853849	-0.832035
H91	H	-0.841934	-0.930313	-0.646060
H92	H	-0.849960	-0.988585	-0.752479
H93	H	-1.110222	-1.755184	-0.113184
H94	H	-1.338685	-1.818565	-0.363405
H95	H	-1.239164	-1.696573	-0.485179
H96	H	-0.383991	-0.919343	-0.384518
H97	H	-1.000300	-1.403688	-0.777443
O98	O	-1.113810	-1.386022	-0.638486
C99	C	-1.222417	-1.400511	-0.624139
H100	H	-1.237439	-1.434971	-0.543094
H101	H	-1.253459	-1.456443	-0.686515
C102	C	-1.260379	-1.251909	-0.733227
C103	C	-1.278830	-1.294226	-0.633682
H104	H	-1.295179	-1.186349	-0.739118
H105	H	-1.187209	-1.242149	-0.742896
H106	H	-1.286247	-1.298529	-0.785196
H107	H	-1.252951	-1.247612	-0.581716
H108	H	-1.351998	-1.303976	-0.624004
H109	H	-0.628086	-1.118479	-0.627852
O110	O	-0.906197	-1.279050	-0.915362
C111	C	-0.838410	-1.208717	-0.967006
H112	H	-0.758400	-1.209892	-0.927306
H113	H	-0.872454	-1.126193	-0.962984
C114	C	-0.924725	-1.240333	-1.131244
C115	C	-0.826452	-1.241783	-1.082488
H116	H	-0.917351	-1.260726	-1.202479
H117	H	-0.970397	-1.287715	-1.096449
H118	H	-0.953084	-1.171561	-1.127881
H119	H	-0.798101	-1.310557	-1.085840
H120	H	-0.780775	-1.194414	-1.117286
H121	H	-0.736765	-1.188985	-0.834986
H122	H	-0.672285	-1.218345	-0.649000
H123	H	-0.771804	-1.340359	-0.527233
