data_functionalizedCrystal
_audit_creation_method	'MofGen! by Chris Wilmer'
_symmetry_space_group_name_H-M	'P1'
_symmetry_Int_Tables_number	1
_symmetry_cell_setting	triclinic
loop_
_symmetry_equiv_pos_as_xyz
  x,y,z
_cell_length_a	9.065215
_cell_length_b	10.489716
_cell_length_c	7.540329
_cell_angle_alpha	90.000441
_cell_angle_beta	89.997574
_cell_angle_gamma	84.771917
loop_
_atom_site_label
_atom_site_type_symbol
_atom_site_fract_x
_atom_site_fract_y
_atom_site_fract_z
O1	O	1.959478	0.187027	-0.147444
O2	O	1.530117	0.202373	-0.147450
O3	O	1.754586	0.009136	-0.147453
O4	O	1.735009	0.380265	-0.147441
O5	O	1.754573	0.009133	0.147512
O6	O	1.530104	0.202371	0.147515
O7	O	1.959465	0.187025	0.147521
Cu8	Cu	1.744783	0.194697	0.174451
Cu9	Cu	1.744799	0.194700	-0.174380
O10	O	1.734995	0.380262	0.147524
C11	C	1.475131	0.200898	0.000031
C12	C	1.311310	0.196491	0.000028
C13	C	1.753109	-0.038403	0.000024
C14	C	1.748708	-0.180050	0.000008
C15	C	1.886359	-0.277228	0.000026
C16	C	1.813628	-0.354849	-0.145404
C17	C	1.813583	-0.354816	0.145409
C18	C	1.676034	-0.255806	-0.145542
C19	C	1.676009	-0.255767	0.145401
C20	C	1.603176	-0.333340	-0.000064
C21	C	2.014451	0.188500	0.000036
C22	C	2.178272	0.192907	0.000027
C23	C	1.736473	0.427801	0.000043
C24	C	1.740874	0.569448	0.000048
N25	N	1.744782	0.194695	0.419799
N26	N	1.744811	0.194693	-0.419728
H27	H	1.871742	-0.398134	-0.268355
H28	H	1.617963	-0.212710	-0.268628
O29	O	1.460210	-0.362949	-0.000464
C30	C	1.226165	-0.345612	-0.154102
C31	C	1.388045	-0.312015	-0.153883
H32	H	1.167763	-0.304425	-0.278110
H33	H	1.223714	-0.454078	-0.153032
H34	H	1.167144	-0.303129	-0.031238
H35	H	1.447163	-0.354414	-0.276727
H36	H	1.390389	-0.203540	-0.154861
O37	O	1.606732	-0.203876	0.291944
C38	C	1.532339	-0.011244	0.455295
C39	C	1.610790	-0.069840	0.289221
H40	H	1.535620	0.097129	0.453168
H41	H	1.412227	-0.035338	0.456574
H42	H	1.591188	-0.052169	0.579169
H43	H	1.552063	-0.028948	0.165259
H44	H	1.730905	-0.045755	0.288099
O45	O	2.029101	-0.247016	-0.000039
C46	C	2.193189	-0.078753	0.001258
C47	C	2.031481	-0.112807	0.001373
H48	H	2.195166	0.029754	0.002362
H49	H	2.252466	-0.121106	0.124031
H50	H	2.251656	-0.119712	-0.122845
H51	H	1.972887	-0.071856	0.125393
H52	H	1.972315	-0.070475	-0.121482
O53	O	1.883128	-0.406293	0.292041
C54	C	2.110950	-0.436739	0.457642
C55	C	2.032350	-0.378353	0.291544
H56	H	2.231617	-0.414195	0.457276
H57	H	2.053584	-0.394412	0.581643
H58	H	2.105851	-0.544928	0.456910
H59	H	2.037426	-0.270167	0.292104
H60	H	2.089737	-0.420781	0.167617
