data_functionalizedCrystal
_audit_creation_method	'MofGen! by Chris Wilmer'
_symmetry_space_group_name_H-M	'P1'
_symmetry_Int_Tables_number	1
_symmetry_cell_setting	triclinic
loop_
_symmetry_equiv_pos_as_xyz
  x,y,z
_cell_length_a	14.971486
_cell_length_b	14.519709
_cell_length_c	14.048226
_cell_angle_alpha	89.992623
_cell_angle_beta	89.998499
_cell_angle_gamma	83.647137
loop_
_atom_site_label
_atom_site_type_symbol
_atom_site_fract_x
_atom_site_fract_y
_atom_site_fract_z
O1	O	1.187015	0.120184	-0.079053
O2	O	0.926623	0.134576	-0.079079
O3	O	1.063722	-0.006863	-0.079057
O4	O	1.049915	0.261622	-0.079076
O5	O	1.063706	-0.006871	0.079264
O6	O	0.926606	0.134568	0.079242
O7	O	1.186998	0.120175	0.079268
Zn8	Zn	1.056799	0.127370	0.104392
Zn9	Zn	1.056821	0.127381	-0.104203
O10	O	1.049898	0.261614	0.079246
C11	C	0.893289	0.133928	0.000078
C12	C	0.793991	0.131999	0.000068
C13	C	0.736812	0.215091	0.000064
C14	C	0.643512	0.213273	0.000078
C15	C	0.607392	0.128363	0.000090
C16	C	0.664578	0.045265	0.000097
C17	C	0.757876	0.047084	0.000090
C18	C	0.470113	0.041480	0.000111
C19	C	0.376808	0.039661	0.000116
C20	C	0.355749	0.207669	0.000099
C21	C	0.449047	0.209488	0.000092
C22	C	0.506227	0.126390	0.000097
C23	C	1.063071	-0.041226	0.000104
C24	C	1.061142	-0.143606	0.000104
C25	C	1.054043	-0.518498	0.000079
C26	C	1.056015	-0.414191	0.000086
C27	C	1.057593	-0.331055	0.000092
C28	C	1.059564	-0.226742	0.000098
C29	C	1.220331	0.120823	0.000109
C30	C	1.319630	0.122752	0.000112
C31	C	1.050550	0.295978	0.000083
C32	C	1.052478	0.398358	0.000076
N33	N	1.056791	0.127362	0.246753
N34	N	1.056837	0.127382	-0.246564
C35	C	1.117518	0.064759	0.296581
C36	C	1.117524	0.064758	0.396238
C37	C	1.056807	0.127366	0.446066
C38	C	0.996073	0.189972	0.396231
C39	C	0.996064	0.189968	0.296575
C40	C	0.996099	0.189979	0.603945
C41	C	0.996110	0.189985	0.703608
C42	C	1.117560	0.064770	0.703608
C43	C	1.117550	0.064765	0.603952
C44	C	1.056817	0.127373	0.554124
H45	H	0.309188	0.275331	0.000099
H46	H	0.635162	-0.023871	0.000121
C47	C	0.533009	-0.049926	0.000105
H48	H	0.498136	-0.100757	0.000101
H49	H	0.569851	-0.052720	0.055309
H50	H	0.569833	-0.052697	-0.055119
H51	H	0.804431	-0.020578	0.000093
H52	H	1.166965	0.013780	0.256017
H53	H	0.478453	0.278629	0.000073
C54	C	0.929298	0.258850	0.549136
H55	H	0.893145	0.296145	0.593083
H56	H	0.892010	0.225614	0.510269
H57	H	0.961539	0.297295	0.510253
C58	C	0.929268	0.258835	0.241765
H59	H	0.893113	0.296129	0.285711
H60	H	0.891981	0.225595	0.202900
H61	H	0.961504	0.297282	0.202878
H62	H	0.946632	0.240946	0.436807
C63	C	0.337077	-0.053738	0.000135
H64	H	0.384492	-0.102968	0.000150
H65	H	0.301118	-0.057940	-0.055072
H66	H	0.301120	-0.057933	0.055355
H67	H	0.596960	0.280934	0.000074
H68	H	1.166972	0.013782	0.436808
C69	C	1.184336	-0.004102	0.549143
H70	H	1.220502	-0.041394	0.593090
H71	H	1.221613	0.029135	0.510253
H72	H	1.152090	-0.042550	0.510282
C73	C	1.184366	-0.004099	0.758410
H74	H	1.220533	-0.041377	0.714462
H75	H	1.152143	-0.042548	0.797298
H76	H	1.221652	0.029152	0.797273
C77	C	0.776536	0.308493	0.000050
H78	H	0.729117	0.357718	0.000058
H79	H	0.812492	0.312700	-0.055162
H80	H	0.812495	0.312691	0.055265
C81	C	0.929266	0.258793	0.758418
H82	H	0.893070	0.296054	0.714471
H83	H	0.961446	0.297265	0.797312
H84	H	0.892012	0.225488	0.797274
