data_functionalizedCrystal
_audit_creation_method	'MofGen! by Chris Wilmer'
_symmetry_space_group_name_H-M	'P1'
_symmetry_Int_Tables_number	1
_symmetry_cell_setting	triclinic
loop_
_symmetry_equiv_pos_as_xyz
  x,y,z
_cell_length_a	16.109301
_cell_length_b	10.489716
_cell_length_c	15.186229
_cell_angle_alpha	90.000291
_cell_angle_beta	89.999362
_cell_angle_gamma	83.995308
loop_
_atom_site_label
_atom_site_type_symbol
_atom_site_fract_x
_atom_site_fract_y
_atom_site_fract_z
O1	O	1.104132	0.163949	-0.073165
O2	O	0.862194	0.184352	-0.073178
O3	O	0.988679	-0.011530	-0.073174
O4	O	0.977647	0.359830	-0.073169
O5	O	0.988670	-0.011532	0.073283
O6	O	0.862186	0.184349	0.073279
O7	O	1.104123	0.163946	0.073292
Zn8	Zn	0.983153	0.174147	0.096539
Zn9	Zn	0.983164	0.174151	-0.096425
O10	O	0.977639	0.359827	0.073289
C11	C	0.831210	0.183524	0.000049
C12	C	0.738900	0.181046	0.000044
C13	C	0.517302	0.291517	0.000055
C14	C	0.430567	0.289179	0.000061
C15	C	0.449022	0.056772	0.000054
C16	C	0.535755	0.059112	0.000055
C17	C	0.569893	0.176488	0.000051
C18	C	0.396425	0.171810	0.000056
C19	C	0.302383	0.169274	0.000062
C20	C	0.663940	0.179024	0.000046
C21	C	0.987846	-0.059051	0.000052
C22	C	0.985366	-0.200646	0.000043
C23	C	1.062930	-0.299445	0.000056
C24	C	1.021948	-0.376210	-0.072155
C25	C	1.021921	-0.376176	0.072240
C26	C	0.944416	-0.275546	-0.072227
C27	C	0.944401	-0.275507	0.072233
C28	C	0.903361	-0.352222	0.000004
C29	C	1.135107	0.164774	0.000064
C30	C	1.227418	0.167252	0.000063
C31	C	0.978472	0.407349	0.000061
C32	C	0.980952	0.548944	0.000063
N33	N	0.983152	0.174144	0.228232
N34	N	0.983173	0.174144	-0.228117
C35	C	1.039178	0.087437	0.453956
C36	C	1.039181	0.087434	0.546146
C37	C	0.927140	0.260855	0.546152
C38	C	0.927134	0.260851	0.453964
C39	C	0.983158	0.174143	0.407868
C40	C	0.983166	0.174144	0.592246
C41	C	0.983169	0.174142	0.692202
C42	C	0.983155	0.174144	0.307906
H43	H	0.421217	-0.038792	0.000062
O44	O	0.550563	0.405451	0.000175
C45	C	0.637736	0.542999	0.076080
C46	C	0.600142	0.413910	0.076042
H47	H	0.677815	0.549892	0.137422
H48	H	0.677934	0.549930	0.014829
H49	H	0.585233	0.624790	0.076043
H50	H	0.652591	0.332044	0.076111
H51	H	0.559922	0.407091	0.137288
H52	H	0.578577	-0.034565	0.000053
O53	O	1.093566	0.003035	0.590818
C54	C	1.140943	-0.218732	0.619059
C55	C	1.079316	-0.123286	0.568399
H56	H	1.129432	-0.320883	0.600966
H57	H	1.207645	-0.202184	0.600912
H58	H	1.131337	-0.203778	0.692863
H59	H	1.088846	-0.138183	0.494584
H60	H	1.012637	-0.139857	0.586620
O61	O	0.379446	0.400883	0.000216
C62	C	0.270777	0.533091	0.076063
C63	C	0.328637	0.406547	0.076008
H64	H	0.229671	0.537699	0.137325
H65	H	0.310035	0.617429	0.076117
H66	H	0.229747	0.537787	0.014743
H67	H	0.369678	0.401726	0.137317
H68	H	0.289329	0.322268	0.075908
H69	H	1.130398	-0.275748	-0.000014
O70	O	0.872806	0.345039	0.591067
C71	C	0.823130	0.421860	0.733090
C72	C	0.884719	0.326469	0.682336
H73	H	0.832728	0.406862	0.806890
H74	H	0.834568	0.524054	0.715024
H75	H	0.756450	0.405225	0.714919
H76	H	0.951422	0.342987	0.700480
H77	H	0.873208	0.224308	0.700406
H78	H	1.054694	-0.420179	-0.133202
O79	O	0.905455	-0.223130	-0.145123
C80	C	0.864075	-0.030035	-0.226890
C81	C	0.908228	-0.089231	-0.144307
H82	H	0.866287	0.078233	-0.226249
H83	H	0.896912	-0.072366	-0.288375
H84	H	0.796278	-0.052150	-0.227153
H85	H	0.976026	-0.067137	-0.143960
H86	H	0.875326	-0.046898	-0.082859
H87	H	0.835843	-0.375673	-0.000038
O88	O	0.905489	-0.223098	0.145152
C89	C	0.902371	-0.215207	0.303711
C90	C	0.946520	-0.274640	0.221195
H91	H	0.935516	-0.256875	0.365213
H92	H	0.904161	-0.106857	0.302715
H93	H	0.834705	-0.237956	0.304288
H94	H	1.014202	-0.251989	0.220565
H95	H	0.944663	-0.382975	0.222224
H96	H	0.881511	0.331459	0.416436
H97	H	1.054677	-0.420125	0.133287
H98	H	1.084795	0.016832	0.416428
