data_functionalizedCrystal
_audit_creation_method	'MofGen! by Chris Wilmer'
_symmetry_space_group_name_H-M	'P1'
_symmetry_Int_Tables_number	1
_symmetry_cell_setting	triclinic
loop_
_symmetry_equiv_pos_as_xyz
  x,y,z
_cell_length_a	19.288864
_cell_length_b	14.519709
_cell_length_c	17.766277
_cell_angle_alpha	89.992699
_cell_angle_beta	89.976791
_cell_angle_gamma	83.408195
loop_
_atom_site_label
_atom_site_type_symbol
_atom_site_fract_x
_atom_site_fract_y
_atom_site_fract_z
O1	O	0.921767	0.115045	-0.062837
O2	O	1.421767	0.615045	0.437163
O3	O	0.719562	0.130564	-0.062786
O4	O	1.219562	0.630564	0.437214
O5	O	0.826026	-0.011468	-0.062806
O6	O	1.326026	0.488532	0.437194
O7	O	0.815304	0.257077	-0.062817
O8	O	1.315304	0.757077	0.437183
O9	O	0.826007	-0.011475	0.062382
O10	O	1.326007	0.488525	0.562382
O11	O	0.719544	0.130557	0.062402
O12	O	1.219544	0.630557	0.562402
O13	O	0.921748	0.115038	0.062351
O14	O	1.421748	0.615038	0.562351
Cu15	Cu	0.820644	0.122797	0.073808
Cu16	Cu	1.320644	0.622797	0.573808
Cu17	Cu	0.820666	0.122805	-0.074242
Cu18	Cu	1.320666	0.622805	0.425758
O19	O	0.815285	0.257070	0.062371
O20	O	1.315285	0.757070	0.562371
C21	C	0.693675	0.130061	-0.000185
C22	C	1.193675	0.630061	0.499815
C23	C	0.616566	0.128562	-0.000165
C24	C	1.116566	0.628562	0.499835
C25	C	0.572169	0.211900	-0.000181
C26	C	1.072169	0.711900	0.499819
C27	C	0.499717	0.210492	-0.000189
C28	C	0.999717	0.710492	0.499811
C29	C	0.471665	0.125741	-0.000197
C30	C	0.971665	0.625741	0.499803
C31	C	0.516071	0.042392	-0.000178
C32	C	1.016071	0.542392	0.499822
C33	C	0.588521	0.043803	-0.000162
C34	C	1.088521	0.543803	0.499838
C35	C	0.363169	0.059120	-0.044079
C36	C	0.863169	0.559120	0.455921
C37	C	0.290720	0.057713	-0.044099
C38	C	0.790720	0.557713	0.455901
C39	C	0.248203	0.121387	-0.000242
C40	C	0.748203	0.621387	0.499758
C41	C	0.278144	0.186483	0.043625
C42	C	0.778144	0.686483	0.543625
C43	C	0.350594	0.187894	0.043641
C44	C	0.850594	0.687894	0.543641
C45	C	0.393105	0.124202	-0.000214
C46	C	0.893105	0.624202	0.499786
C47	C	0.125246	0.203203	-0.000265
C48	C	0.625246	0.703203	0.499735
C49	C	0.052792	0.201792	-0.000269
C50	C	0.552792	0.701792	0.499731
C51	C	0.069148	0.033689	-0.000265
C52	C	0.569148	0.533689	0.499735
C53	C	0.141599	0.035103	-0.000254
C54	C	0.641599	0.535103	0.499746
C55	C	0.169644	0.119863	-0.000258
C56	C	0.669644	0.619863	0.499742
C57	C	0.825517	-0.045828	-0.000212
C58	C	1.325517	0.454172	0.499788
C59	C	0.824019	-0.148200	-0.000211
C60	C	1.324019	0.351800	0.499789
C61	C	0.818507	-0.523061	-0.000229
C62	C	1.318507	-0.023061	0.499771
C63	C	0.820037	-0.418762	-0.000224
C64	C	1.320037	0.081238	0.499776
C65	C	0.821263	-0.335633	-0.000219
C66	C	1.321263	0.164367	0.499781
C67	C	0.822794	-0.231329	-0.000215
C68	C	1.322794	0.268671	0.499785
C69	C	0.947636	0.115541	-0.000251
C70	C	1.447636	0.615541	0.499749
C71	C	1.024745	0.117040	-0.000276
C72	C	1.524745	0.617040	0.499724
C73	C	0.815794	0.291430	-0.000225
C74	C	1.315794	0.791430	0.499775
C75	C	0.817291	0.393802	-0.000230
C76	C	1.317291	0.893802	0.499770
N77	N	0.820634	0.122790	0.177938
N78	N	1.320634	0.622790	0.677938
N79	N	0.820682	0.122805	-0.178373
N80	N	1.320682	0.622805	0.321627
C81	C	0.867791	0.059929	0.217316
C82	C	1.367791	0.559929	0.717316
C83	C	0.867795	0.059925	0.296118
C84	C	1.367795	0.559925	0.796118
C85	C	0.820648	0.122798	0.335538
C86	C	1.320648	0.622798	0.835538
C87	C	0.773482	0.185664	0.296151
C88	C	1.273482	0.685664	0.796151
C89	C	0.773475	0.185660	0.217351
C90	C	1.273475	0.685660	0.717351
C91	C	0.811652	0.206826	0.460375
C92	C	1.311652	0.706826	0.960375
C93	C	0.811664	0.206831	0.539173
C94	C	1.311664	0.706831	1.039173
C95	C	0.820667	0.122809	0.578585
C96	C	1.320667	0.622809	1.078585
C97	C	0.829672	0.038778	0.539188
C98	C	1.329672	0.538778	1.039188
C99	C	0.829665	0.038775	0.460387
C100	C	1.329665	0.538775	0.960387
C101	C	0.820651	0.122808	0.420984
C102	C	1.320651	0.622808	0.920984
C103	C	0.867831	0.059938	0.703409
C104	C	1.367831	0.559938	1.203409
C105	C	0.867830	0.059932	0.782212
C106	C	1.367830	0.559932	1.282212
C107	C	0.773521	0.185679	0.782244
C108	C	1.273521	0.685679	1.282244
C109	C	0.773518	0.185676	0.703442
C110	C	1.273518	0.685676	1.203442
C111	C	0.820677	0.122807	0.664029
C112	C	1.320677	0.622807	1.164029
H113	H	0.016645	0.269658	-0.000277
H114	H	0.516645	0.769658	0.499723
C115	C	0.038294	-0.059538	-0.000273
C116	C	0.538294	0.440462	0.499727
N117	N	0.015052	-0.129760	-0.000278
N118	N	0.515052	0.370240	0.499722
H119	H	0.594998	0.280918	-0.000185
H120	H	1.094998	0.780918	0.499815
H121	H	0.374969	0.240895	0.079362
H122	H	0.874969	0.740895	0.579362
C123	C	0.721626	0.254855	0.174034
C124	C	1.221626	0.754855	0.674034
N125	N	0.682584	0.306989	0.141406
N126	N	1.182584	0.806989	0.641406
H127	H	0.624670	-0.024063	-0.000150
H128	H	1.124670	0.475937	0.499850
H129	H	0.177748	-0.032760	-0.000246
H130	H	0.677748	0.467240	0.499754
H131	H	0.463563	0.278358	-0.000199
H132	H	0.963563	0.778358	0.499801
H133	H	0.837003	-0.029641	0.571275
H134	H	1.337003	0.470359	1.071275
C135	C	0.231381	0.256528	0.091874
C136	C	0.731381	0.756528	0.591874
N137	N	0.196156	0.309284	0.128214
N138	N	0.696156	0.809284	0.628214
H139	H	0.906229	0.008743	0.671318
H140	H	1.406229	0.508743	1.171318
H141	H	0.397781	0.007267	-0.079797
H142	H	0.897781	0.507267	0.420203
H143	H	0.266348	0.004711	-0.079822
H144	H	0.766348	0.504711	0.420178
C145	C	0.485212	-0.050834	-0.000187
C146	C	0.985212	0.449166	0.499813
N147	N	0.461969	-0.121055	-0.000193
N148	N	0.961969	0.378945	0.499807
H149	H	0.148080	0.272220	-0.000257
H150	H	0.648080	0.772220	0.499743
C151	C	0.919661	-0.009238	0.173966
C152	C	1.419661	0.490762	0.673966
N153	N	0.958727	-0.061339	0.141314
N154	N	1.458727	0.438661	0.641314
C155	C	0.919698	-0.009239	0.825528
C156	C	1.419698	0.490761	1.325528
N157	N	0.958763	-0.061345	0.858153
N158	N	1.458763	0.438655	1.358153
H159	H	0.906198	0.008734	0.328185
H160	H	1.406198	0.508734	0.828185
C161	C	0.721659	0.254841	0.825602
C162	C	1.221659	0.754841	1.325602
N163	N	0.682595	0.306935	0.858263
N164	N	1.182595	0.806935	1.358263
C165	C	0.839561	-0.053657	0.417054
C166	C	1.339561	0.446343	0.917054
N167	N	0.847011	-0.123278	0.384415
N168	N	1.347011	0.376722	0.884415
C169	C	0.721691	0.254896	0.660125
C170	C	1.221691	0.754896	1.160125
N171	N	0.682668	0.307056	0.627498
N172	N	1.182668	0.807056	1.127498
C173	C	0.801751	0.299265	0.582502
C174	C	1.301751	0.799265	1.082502
N175	N	0.794281	0.368889	0.615136
N176	N	1.294281	0.868889	1.115136
C177	C	0.801748	0.299263	0.417030
C178	C	1.301748	0.799263	0.917030
N179	N	0.794288	0.368884	0.384384
N180	N	1.294288	0.868884	0.884384
H181	H	0.735093	0.236854	0.328251
H182	H	1.235093	0.736854	0.828251
