data_functionalizedCrystal
_audit_creation_method	'MofGen! by Chris Wilmer'
_symmetry_space_group_name_H-M	'P1'
_symmetry_Int_Tables_number	1
_symmetry_cell_setting	triclinic
loop_
_symmetry_equiv_pos_as_xyz
  x,y,z
_cell_length_a	12.759401
_cell_length_b	16.120484
_cell_length_c	12.759393
_cell_angle_alpha	92.862882
_cell_angle_beta	89.981504
_cell_angle_gamma	92.925560
loop_
_atom_site_label
_atom_site_type_symbol
_atom_site_fract_x
_atom_site_fract_y
_atom_site_fract_z
Zn1	Zn	1.584972	-0.331853	-0.615146
Zn2	Zn	1.575923	-0.471291	-0.448359
Zn3	Zn	1.409271	-0.331897	-0.439488
Zn4	Zn	1.400324	-0.471227	-0.623996
O5	O	1.492622	-0.401567	-0.531747
O6	O	1.730792	-0.350358	-0.593030
O7	O	1.553774	-0.452845	-0.300164
O8	O	1.440109	-0.215226	-0.455373
O9	O	1.724144	-0.452803	-0.470492
O10	O	1.569196	-0.215194	-0.584428
O11	O	1.431335	-0.350433	-0.293646
O12	O	1.261064	-0.350370	-0.463955
O13	O	1.424860	-0.452693	-0.769840
O14	O	1.254490	-0.452736	-0.599512
O15	O	1.560520	-0.350296	-0.763338
O16	O	1.545098	-0.587947	-0.479074
O17	O	1.416086	-0.587900	-0.608114
C18	C	1.219656	-0.401551	-0.531732
C19	C	1.102879	-0.401565	-0.531752
C20	C	1.044616	-0.454952	-0.602231
C21	C	0.934891	-0.454962	-0.602243
C22	C	0.941702	-0.348197	-0.461287
C23	C	1.051425	-0.348183	-0.461281
C24	C	1.040682	-0.516595	-0.683607
C25	C	0.930958	-0.516605	-0.683619
C26	C	1.478668	-0.618174	-0.545540
C27	C	1.472794	-0.710839	-0.551475
C28	C	1.462076	-0.880500	-0.562334
C29	C	1.523357	-0.921793	-0.501178
C30	C	1.517393	-1.016198	-0.507219
C31	C	1.468038	-0.786086	-0.556293
C32	C	1.766655	-0.401583	-0.531763
C33	C	1.883431	-0.401590	-0.531770
C34	C	1.492701	-0.401483	-0.805775
C35	C	1.492735	-0.401447	-0.922550
C36	C	1.506660	-0.184114	-0.517924
C37	C	1.512642	-0.091448	-0.512033
C38	C	1.563383	-0.348123	-0.974027
C39	C	1.563410	-0.348093	-1.083750
C40	C	1.422138	-0.454717	-1.090507
C41	C	1.422106	-0.454742	-0.980787
C42	C	1.644948	-0.286568	-0.970127
C43	C	1.644975	-0.286538	-1.079849
C44	C	1.492608	-0.401590	-0.258781
C45	C	1.492793	-0.401391	-0.141992
H46	H	0.897022	-0.581158	-0.665804
C47	C	1.591316	-0.788221	-0.433157
C48	C	1.600218	-0.873810	-0.424358
H49	H	1.638758	-0.758598	-0.385726
H50	H	1.607551	-0.773944	-0.502853
H51	H	1.521603	-0.774075	-0.416842
H52	H	1.669930	-0.887958	-0.440681
H53	H	1.583990	-0.888093	-0.354646
C54	C	1.797380	-0.244711	-1.178357
C55	C	1.753325	-0.309877	-1.121539
H56	H	1.864272	-0.259117	-1.204085
H57	H	1.752819	-0.235090	-1.235641
H58	H	1.804943	-0.195733	-1.133869
H59	H	1.745755	-0.358854	-1.166029
H60	H	1.797897	-0.319509	-1.064247
H61	H	0.898438	-0.493558	-0.759501
H62	H	1.098859	-0.304705	-0.403897
H63	H	1.720736	-0.309714	-0.937567
H64	H	0.899795	-0.304734	-0.403914
H65	H	1.071595	-0.499376	-0.763915
C66	C	1.441324	-0.978472	-0.709778
C67	C	1.385202	-0.928485	-0.639127
H68	H	1.393862	-1.008107	-0.757178
H69	H	1.489166	-0.944443	-0.747879
H70	H	1.478993	-1.016778	-0.672188
H71	H	1.347539	-0.890175	-0.676717
H72	H	1.337342	-0.962518	-0.601022
C73	C	0.996070	-0.653712	-0.626875
C74	C	1.081304	-0.599349	-0.649361
H75	H	1.021151	-0.704801	-0.605737
H76	H	0.955711	-0.629537	-0.571893
H77	H	0.953554	-0.663676	-0.687754
H78	H	1.123816	-0.589379	-0.588479
H79	H	1.121681	-0.623529	-0.704347
H80	H	1.364575	-0.498160	-0.938878
H81	H	1.364632	-0.498106	-1.137937
H82	H	1.627321	-0.222003	-0.936253
H83	H	1.619796	-0.225191	-1.109984
