data_functionalizedCrystal
_audit_creation_method	'MofGen! by Chris Wilmer'
_symmetry_space_group_name_H-M	'P1'
_symmetry_Int_Tables_number	1
_symmetry_cell_setting	triclinic
loop_
_symmetry_equiv_pos_as_xyz
  x,y,z
_cell_length_a	16.959455
_cell_length_b	19.805405
_cell_length_c	19.805399
_cell_angle_alpha	89.970699
_cell_angle_beta	89.982498
_cell_angle_gamma	90.023358
loop_
_atom_site_label
_atom_site_type_symbol
_atom_site_fract_x
_atom_site_fract_y
_atom_site_fract_z
Zn1	Zn	1.208374	-0.269534	-0.382674
Zn2	Zn	1.708374	0.230466	0.117326
Zn3	Zn	1.208274	-0.382722	-0.269482
Zn4	Zn	1.708274	0.117278	0.230518
Zn5	Zn	1.076195	-0.269547	-0.269503
Zn6	Zn	1.576195	0.230453	0.230497
Zn7	Zn	1.076152	-0.382680	-0.382633
Zn8	Zn	1.576152	0.117320	0.117367
O9	O	1.142249	-0.326121	-0.326073
O10	O	1.642249	0.173879	0.173927
O11	O	1.318971	-0.284561	-0.367668
O12	O	1.818971	0.215439	0.132332
O13	O	1.190730	-0.367732	-0.174769
O14	O	1.690730	0.132268	0.325231
O15	O	1.093788	-0.174828	-0.284541
O16	O	1.593788	0.325172	0.215459
O17	O	1.318898	-0.367720	-0.284506
O18	O	1.818898	0.132280	0.215494
O19	O	1.190899	-0.174819	-0.367687
O20	O	1.690899	0.325181	0.132313
O21	O	1.093692	-0.284583	-0.174783
O22	O	1.593692	0.215417	0.325217
O23	O	0.965578	-0.284542	-0.284501
O24	O	1.465578	0.215458	0.215499
O25	O	1.093716	-0.367648	-0.477355
O26	O	1.593716	0.132352	0.022645
O27	O	0.965547	-0.367661	-0.367618
O28	O	1.465547	0.132339	0.132382
O29	O	1.190858	-0.284520	-0.477385
O30	O	1.690858	0.215480	0.022615
O31	O	1.190689	-0.477433	-0.284467
O32	O	1.690689	0.022567	0.215533
O33	O	1.093619	-0.477403	-0.367598
O34	O	1.593619	0.022597	0.132402
C35	C	1.142160	-0.501977	-0.326040
C36	C	1.642160	-0.001977	0.173960
C37	C	1.142194	-0.577209	-0.326049
C38	C	1.642194	-0.077209	0.173951
C39	C	0.936883	-0.326099	-0.326058
C40	C	1.436883	0.173901	0.173942
C41	C	0.849026	-0.326105	-0.326067
C42	C	1.349026	0.173895	0.173933
C43	C	1.192787	-0.612547	-0.282808
C44	C	1.692787	-0.112547	0.217192
C45	C	1.192821	-0.683235	-0.282823
C46	C	1.692821	-0.183235	0.217177
C47	C	1.142257	-0.718584	-0.326076
C48	C	1.642257	-0.218584	0.173924
C49	C	1.091661	-0.683242	-0.369322
C50	C	1.591661	-0.183242	0.130678
C51	C	1.091632	-0.612555	-0.369310
C52	C	1.591632	-0.112555	0.130690
C53	C	1.091778	-0.968315	-0.369372
C54	C	1.591778	-0.468315	0.130628
C55	C	1.091809	-1.039007	-0.369379
C56	C	1.591809	-0.539007	0.130621
C57	C	1.192966	-1.038995	-0.282885
C58	C	1.692966	-0.538995	0.217115
C59	C	1.192937	-0.968308	-0.282873
C60	C	1.692937	-0.468308	0.217127
C61	C	1.142345	-0.932972	-0.326121
C62	C	1.642345	-0.432972	0.173879
C63	C	1.142311	-0.856323	-0.326105
C64	C	1.642311	-0.356323	0.173895
C65	C	1.142287	-0.795232	-0.326089
C66	C	1.642287	-0.295232	0.173911
C67	C	0.477542	-0.282805	-0.282885
C68	C	0.977542	0.217195	0.217115
C69	C	0.477558	-0.369492	-0.369300
C70	C	0.977558	0.130508	0.130700
C71	C	0.560104	-0.369482	-0.369296
C72	C	1.060104	0.130518	0.130704
C73	C	0.601373	-0.326134	-0.326085
C74	C	1.101373	0.173866	0.173915
C75	C	0.560096	-0.282796	-0.282878
C76	C	1.060096	0.217204	0.217122
C77	C	0.601388	-0.412825	-0.412498
C78	C	1.101388	0.087175	0.087502
C79	C	0.683939	-0.412817	-0.412495
C80	C	1.183939	0.087183	0.087505
C81	C	0.725209	-0.369465	-0.369286
C82	C	1.225209	0.130535	0.130714
C83	C	0.683927	-0.326125	-0.326078
C84	C	1.183927	0.173875	0.173922
C85	C	0.725195	-0.282776	-0.282867
C86	C	1.225195	0.217224	0.217133
C87	C	0.683914	-0.239432	-0.239662
C88	C	1.183914	0.260568	0.260338
C89	C	0.601366	-0.239444	-0.239670
C90	C	1.101366	0.260556	0.260330
C91	C	0.807757	-0.369453	-0.369278
C92	C	1.307757	0.130547	0.130722
C93	C	0.807749	-0.282767	-0.282860
C94	C	1.307749	0.217233	0.217140
C95	C	1.348417	-0.326144	-0.326089
C96	C	1.848417	0.173856	0.173911
C97	C	1.436274	-0.326154	-0.326096
C98	C	1.936274	0.173846	0.173904
C99	C	1.142293	-0.326078	-0.502616
C100	C	1.642293	0.173922	-0.002616
C101	C	1.142312	-0.326060	-0.577848
C102	C	1.642312	0.173940	-0.077848
C103	C	1.142360	-0.149578	-0.326121
C104	C	1.642360	0.350422	0.173879
C105	C	1.142407	-0.074346	-0.326141
C106	C	1.642407	0.425654	0.173859
C107	C	1.192895	-0.282773	-0.613209
C108	C	1.692895	0.217227	-0.113209
C109	C	1.192903	-0.282753	-0.683897
C110	C	1.692903	0.217247	-0.183897
C111	C	1.142332	-0.326025	-0.719224
C112	C	1.642332	0.173975	-0.219224
C113	C	1.091743	-0.369314	-0.683858
C114	C	1.591743	0.130686	-0.183858
C115	C	1.091731	-0.369329	-0.613171
C116	C	1.591731	0.130671	-0.113171
C117	C	1.091787	-0.369251	-0.968931
C118	C	1.591787	0.130749	-0.468931
C119	C	1.091805	-0.369233	-1.039623
C120	C	1.591805	0.130767	-0.539623
C121	C	1.192960	-0.282675	-1.039658
C122	C	1.692960	0.217325	-0.539658
C123	C	1.192948	-0.282690	-0.968971
C124	C	1.692948	0.217310	-0.468971
C125	C	1.142357	-0.325976	-0.933611
C126	C	1.642357	0.174024	-0.433611
C127	C	1.142347	-0.325996	-0.856963
C128	C	1.642347	0.174004	-0.356963
C129	C	1.142344	-0.326009	-0.795871
C130	C	1.642344	0.173991	-0.295871
C131	C	1.142250	-0.326114	-0.150217
C132	C	1.642250	0.173886	0.349783
C133	C	1.142384	-0.325942	-0.074986
C134	C	1.642384	0.174058	0.425014
H135	H	1.233959	-0.583770	-0.247583
H136	H	1.733959	-0.083770	0.252417
H137	H	0.717543	-0.448111	-0.447675
H138	H	1.217543	0.051889	0.052325
H139	H	0.841344	-0.247463	-0.247676
H140	H	1.341344	0.252537	0.252324
O141	O	0.561226	-0.197439	-0.197635
O142	O	1.061226	0.302561	0.302365
C143	C	0.467934	-0.188220	-0.106316
C144	C	0.967934	0.311780	0.393684
C145	C	0.513363	-0.235867	-0.153863
C146	C	1.013363	0.264133	0.346137
H147	H	0.429213	-0.219269	-0.070924
H148	H	0.929213	0.280731	0.429076
H149	H	0.511565	-0.157240	-0.075380
H150	H	1.011565	0.342760	0.424620
H151	H	0.429348	-0.152868	-0.137482
H152	H	0.929348	0.347132	0.362518
H153	H	0.551950	-0.271260	-0.122749
H154	H	1.051950	0.228740	0.377251
H155	H	0.469690	-0.266799	-0.184801
H156	H	0.969690	0.233201	0.315199
O157	O	1.241910	-0.240703	-0.578823
O158	O	1.741910	0.259297	-0.078823
C159	C	1.252581	-0.149306	-0.499080
C160	C	1.752581	0.350694	0.000920
C161	C	1.196985	-0.196923	-0.537964
C162	C	1.696985	0.303077	-0.037964
H163	H	1.216280	-0.113888	-0.466048
H164	H	1.716280	0.386112	0.033952
H165	H	1.293877	-0.180351	-0.465936
H166	H	1.793877	0.319649	0.034064
H167	H	1.288749	-0.118395	-0.536513
H168	H	1.788749	0.381605	-0.036513
H169	H	1.160765	-0.227844	-0.500580
H170	H	1.660765	0.272156	-0.000580
H171	H	1.155740	-0.165839	-0.571119
H172	H	1.655740	0.334161	-0.071119
O173	O	0.437325	-0.240766	-0.240939
O174	O	0.937325	0.259234	0.259061
C175	C	0.310152	-0.202320	-0.202682
C176	C	0.810152	0.297680	0.297318
C177	C	0.355599	-0.249976	-0.250208
C178	C	0.855599	0.250024	0.249792
H179	H	0.244068	-0.209741	-0.210170
H180	H	0.744068	0.290259	0.289830
H181	H	0.326292	-0.214133	-0.148066
H182	H	0.826292	0.285867	0.351934
H183	H	0.326459	-0.147766	-0.214661
H184	H	0.826459	0.352234	0.285339
H185	H	0.339316	-0.304547	-0.238290
H186	H	0.839316	0.195453	0.261710
H187	H	0.339455	-0.238106	-0.304810
H188	H	0.839455	0.261894	0.195190
O189	O	1.242072	-0.240796	-0.718326
O190	O	1.742072	0.259204	-0.218326
C191	C	1.348823	-0.231676	-0.798135
C192	C	1.848823	0.268324	-0.298135
C193	C	1.293182	-0.279273	-0.759197
C194	C	1.793182	0.220727	-0.259197
H195	H	1.390171	-0.262766	-0.831178
H196	H	1.890171	0.237234	-0.331178
H197	H	1.312594	-0.196286	-0.831274
H198	H	1.812594	0.303714	-0.331274
H199	H	1.384934	-0.200734	-0.760738
H200	H	1.884934	0.299266	-0.260738
H201	H	1.257060	-0.310259	-0.796546
H202	H	1.757060	0.189741	-0.296546
H203	H	1.329457	-0.314619	-0.726048
H204	H	1.829457	0.185381	-0.226048
H205	H	1.234131	-0.247457	-0.940212
H206	H	1.734131	0.252543	-0.440212
O207	O	0.724128	-0.197347	-0.197750
O208	O	1.224128	0.302653	0.302250
C209	C	0.851302	-0.158958	-0.159415
C210	C	1.351302	0.341042	0.340585
C211	C	0.805855	-0.206639	-0.206923
C212	C	1.305855	0.293361	0.293077
H213	H	0.917386	-0.166465	-0.166805
H214	H	1.417386	0.333535	0.333195
H215	H	0.835163	-0.104381	-0.171403
H216	H	1.335163	0.395619	0.328597
H217	H	0.834994	-0.170764	-0.104824
H218	H	1.334994	0.329236	0.395176
H219	H	0.822138	-0.194895	-0.261530
H220	H	1.322138	0.305105	0.238470
H221	H	0.821998	-0.261202	-0.194877
H222	H	1.321998	0.238798	0.305123
H223	H	1.050494	-0.712029	-0.404543
H224	H	1.550494	-0.212029	0.095457
O225	O	1.242061	-0.240525	-1.073933
O226	O	1.742061	0.259475	-0.573933
C227	C	1.280480	-0.125389	-1.095622
C228	C	1.780480	0.374611	-0.595622
C229	C	1.224836	-0.173043	-1.056755
C230	C	1.724836	0.326957	-0.556755
H231	H	1.266563	-0.070819	-1.081758
H232	H	1.766563	0.429181	-0.581758
H233	H	1.344218	-0.137232	-1.081716
H234	H	1.844218	0.362768	-0.581716
H235	H	1.271816	-0.132840	-1.152209
H236	H	1.771816	0.367160	-0.652209
H237	H	1.233430	-0.165619	-1.000159
H238	H	1.733430	0.334381	-0.500159
H239	H	1.161118	-0.161188	-1.070717
H240	H	1.661118	0.338812	-0.570717
O241	O	0.437556	-0.411559	-0.411370
O242	O	0.937556	0.088441	0.088630
C243	C	0.412291	-0.444518	-0.526452
C244	C	0.912291	0.055482	-0.026452
C245	C	0.457663	-0.396849	-0.478878
C246	C	0.957663	0.103151	0.021122
H247	H	0.428518	-0.432633	-0.581043
H248	H	0.928518	0.067367	-0.081043
H249	H	0.428507	-0.499093	-0.514531
H250	H	0.928507	0.000907	-0.014531
H251	H	0.346206	-0.437087	-0.518996
H252	H	0.846206	0.062913	-0.018996
H253	H	0.523759	-0.404220	-0.486307
H254	H	1.023759	0.095780	0.013693
H255	H	0.441381	-0.342292	-0.490810
H256	H	0.941381	0.157708	0.009190
O257	O	0.561381	-0.454887	-0.454568
O258	O	1.061381	0.045113	0.045432
C259	C	0.536116	-0.487842	-0.569652
C260	C	1.036116	0.012158	-0.069652
C261	C	0.581495	-0.440180	-0.522076
C262	C	1.081495	0.059820	-0.022076
H263	H	0.552348	-0.475959	-0.624242
H264	H	1.052348	0.024041	-0.124242
H265	H	0.552320	-0.542419	-0.557731
H266	H	1.052320	-0.042419	-0.057731
H267	H	0.470031	-0.480401	-0.562199
H268	H	0.970031	0.019599	-0.062199
H269	H	0.647590	-0.447561	-0.529503
H270	H	1.147590	0.052439	-0.029503
H271	H	0.565225	-0.385620	-0.534008
H272	H	1.065225	0.114380	-0.034008
O273	O	0.847735	-0.411574	-0.411306
O274	O	1.347735	0.088426	0.088694
C275	C	0.839035	-0.497591	-0.496987
C276	C	1.339035	0.002409	0.003013
C277	C	0.793664	-0.449912	-0.449432
C278	C	1.293664	0.050088	0.050568
H279	H	0.795338	-0.528610	-0.527813
H280	H	1.295338	-0.028610	-0.027813
H281	H	0.877684	-0.466591	-0.532480
H282	H	1.377684	0.033409	-0.032480
H283	H	0.877681	-0.532905	-0.465832
H284	H	1.377681	-0.032905	0.034168
H285	H	0.754974	-0.414588	-0.480531
H286	H	1.254974	0.085412	0.019469
H287	H	0.755064	-0.480954	-0.413936
H288	H	1.255064	0.019046	0.086064
O289	O	1.042598	-0.411287	-1.073836
O290	O	1.542598	0.088713	-0.573836
C291	C	0.942285	-0.497168	-1.066346
C292	C	1.442285	0.002832	-0.566346
C293	C	0.997953	-0.449568	-1.027517
C294	C	1.497953	0.050432	-0.527517
H295	H	0.906187	-0.528140	-1.028914
H296	H	1.406187	-0.028140	-0.528914
H297	H	0.900933	-0.466109	-1.099427
H298	H	1.400933	0.033891	-0.599427
H299	H	0.978570	-0.532529	-1.099452
H300	H	1.478570	-0.032529	-0.599452
H301	H	0.961731	-0.414197	-0.994374
H302	H	1.461731	0.085803	-0.494374
H303	H	1.039306	-0.480669	-0.994479
H304	H	1.539306	0.019331	-0.494479
H305	H	1.234164	-1.067775	-0.247673
H306	H	1.734164	-0.567775	0.252327
H307	H	1.050604	-0.404507	-0.940150
H308	H	1.550604	0.095493	-0.440150
H309	H	1.050435	-0.583783	-0.404522
H310	H	1.550435	-0.083783	0.095478
H311	H	1.050564	-0.404543	-0.712626
H312	H	1.550564	0.095457	-0.212626
H313	H	1.050533	-0.404571	-0.584381
H314	H	1.550533	0.095429	-0.084381
H315	H	1.050635	-1.067787	-0.404607
H316	H	1.550635	-0.567787	0.095393
H317	H	1.234018	-0.712004	-0.247611
H318	H	1.734018	-0.212004	0.252389
H319	H	1.050583	-0.939550	-0.404585
H320	H	1.550583	-0.439550	0.095415
O321	O	1.242131	-0.934075	-0.240836
O322	O	1.742131	-0.434075	0.259164
C323	C	1.342443	-0.941526	-0.155019
C324	C	1.842443	-0.441526	0.344981
C325	C	1.286782	-0.980377	-0.202600
C326	C	1.786782	-0.480377	0.297400
H327	H	1.378547	-0.978944	-0.124083
H328	H	1.878547	-0.478944	0.375917
H329	H	1.383790	-0.908403	-0.186090
H330	H	1.883790	-0.408403	0.313910
H331	H	1.306153	-0.908460	-0.119623
H332	H	1.806153	-0.408460	0.380377
H333	H	1.323009	-1.013480	-0.238006
H334	H	1.823009	-0.513480	0.261994
H335	H	1.245433	-1.013457	-0.171487
H336	H	1.745433	-0.513457	0.328513
