data_functionalizedCrystal
_audit_creation_method	'MofGen! by Chris Wilmer'
_symmetry_space_group_name_H-M	'P1'
_symmetry_Int_Tables_number	1
_symmetry_cell_setting	triclinic
loop_
_symmetry_equiv_pos_as_xyz
  x,y,z
_cell_length_a	11.169417
_cell_length_b	11.169416
_cell_length_c	11.169409
_cell_angle_alpha	90.030816
_cell_angle_beta	90.022388
_cell_angle_gamma	90.008562
loop_
_atom_site_label
_atom_site_type_symbol
_atom_site_fract_x
_atom_site_fract_y
_atom_site_fract_z
Zn1	Zn	-1.834971	0.477768	-0.678613
Zn2	Zn	-1.334971	0.977768	-0.178613
Zn3	Zn	-1.834858	0.678508	-0.477935
Zn4	Zn	-1.334858	1.178508	0.022065
Zn5	Zn	-1.634254	0.477831	-0.477941
Zn6	Zn	-1.134254	0.977831	0.022059
Zn7	Zn	-1.634264	0.678401	-0.678574
Zn8	Zn	-1.134264	1.178401	-0.178574
O9	O	-1.734587	0.578127	-0.578266
O10	O	-1.234587	1.078127	-0.078266
O11	O	-2.002906	0.504414	-0.652007
O12	O	-1.502906	1.004414	-0.152007
O13	O	-1.808196	0.651959	-0.309986
O14	O	-1.308196	1.151959	0.190014
O15	O	-1.660923	0.309873	-0.504580
O16	O	-1.160923	0.809873	-0.004580
O17	O	-2.002823	0.651897	-0.504570
O18	O	-1.502823	1.151897	-0.004570
O19	O	-1.808389	0.309826	-0.652013
O20	O	-1.308389	0.809826	-0.152013
O21	O	-1.660813	0.504523	-0.309991
O22	O	-1.160813	1.004523	0.190009
O23	O	-1.466306	0.504419	-0.504542
O24	O	-0.966306	1.004419	-0.004542
O25	O	-1.660940	0.651715	-0.846529
O26	O	-1.160940	1.151715	-0.346529
O27	O	-1.466313	0.651777	-0.651945
O28	O	-0.966313	1.151777	-0.151945
O29	O	-1.808399	0.504311	-0.846558
O30	O	-1.308399	1.004311	-0.346558
O31	O	-1.808206	0.846443	-0.504531
O32	O	-1.308206	1.346443	-0.004531
O33	O	-1.660830	0.846365	-0.651940
O34	O	-1.160830	1.346365	-0.151940
C35	C	-1.422762	0.578094	-0.578241
C36	C	-0.922762	1.078094	-0.078241
C37	C	-1.289362	0.578109	-0.578258
C38	C	-0.789362	1.078109	-0.078258
C39	C	-1.734539	0.889952	-0.578257
C40	C	-1.234539	1.389952	-0.078257
C41	C	-1.734629	1.023352	-0.578293
C42	C	-1.234629	1.523352	-0.078293
C43	C	-1.734683	0.577994	-0.891309
C44	C	-1.234683	1.077994	-0.391309
C45	C	-1.734724	0.577937	-1.024709
C46	C	-1.234724	1.077937	-0.524709
C47	C	-1.047629	0.578149	-0.578284
C48	C	-0.547629	1.078149	-0.078284
C49	C	-1.181029	0.578129	-0.578271
C50	C	-0.681029	1.078129	-0.078271
C51	C	-1.734667	0.265085	-0.578301
C52	C	-1.234667	0.765085	-0.078301
C53	C	-1.734702	0.131685	-0.578316
C54	C	-1.234702	0.631685	-0.078316
C55	C	-1.734560	0.578173	-0.266441
C56	C	-1.234560	1.078173	0.233559
C57	C	-1.734752	0.577891	-0.133042
C58	C	-1.234752	1.077891	0.366958
