data_functionalizedCrystal
_audit_creation_method	'MofGen! by Chris Wilmer'
_symmetry_space_group_name_H-M	'P1'
_symmetry_Int_Tables_number	1
_symmetry_cell_setting	triclinic
loop_
_symmetry_equiv_pos_as_xyz
  x,y,z
_cell_length_a	16.956985
_cell_length_b	22.610064
_cell_length_c	16.974813
_cell_angle_alpha	86.349505
_cell_angle_beta	79.731757
_cell_angle_gamma	89.990637
loop_
_atom_site_label
_atom_site_type_symbol
_atom_site_fract_x
_atom_site_fract_y
_atom_site_fract_z
O1	O	-1.058010	0.050772	-0.032749
O2	O	-0.558010	0.550772	0.467251
O3	O	-0.825822	0.052097	-0.060512
O4	O	-0.325822	0.552097	0.439488
O5	O	-0.948388	0.045903	0.068894
O6	O	-0.448388	0.545903	0.568894
O7	O	-0.935443	0.056967	-0.162156
O8	O	-0.435443	0.556967	0.337844
O9	O	-0.948366	-0.052466	0.068875
O10	O	-0.448366	0.447534	0.568875
O11	O	-0.825800	-0.046271	-0.060531
O12	O	-0.325800	0.453729	0.439469
O13	O	-1.057988	-0.047596	-0.032769
O14	O	-0.557988	0.452404	0.467231
Zn15	Zn	-0.941890	-0.062552	-0.046653
Zn16	Zn	-0.441890	0.437448	0.453347
Zn17	Zn	-0.941919	0.067053	-0.046628
Zn18	Zn	-0.441919	0.567053	0.453372
O19	O	-0.935422	-0.041401	-0.162175
O20	O	-0.435422	0.458599	0.337825
C21	C	-0.796101	0.002981	-0.061944
C22	C	-0.296101	0.502981	0.438056
C23	C	-0.707576	0.003182	-0.066170
C24	C	-0.207576	0.503182	0.433830
C25	C	-0.675568	-0.000204	0.004497
C26	C	-0.175568	0.499796	0.504497
C27	C	-0.592389	-0.000011	0.000521
C28	C	-0.092389	0.499989	0.500521
C29	C	-0.541218	0.003564	-0.074124
C30	C	-0.041218	0.503564	0.425876
C31	C	-0.573230	0.006952	-0.144797
C32	C	-0.073230	0.506952	0.355203
C33	C	-0.656409	0.006763	-0.140820
C34	C	-0.156409	0.506763	0.359180
C35	C	-0.291424	0.004507	-0.093809
C36	C	0.208576	0.504507	0.406191
C37	C	-0.208241	0.004694	-0.097780
C38	C	0.291759	0.504694	0.402220
C39	C	-0.227405	-0.002268	0.047538
C40	C	0.272595	0.497732	0.547538
C41	C	-0.310584	-0.002460	0.051508
C42	C	0.189416	0.497540	0.551508
C43	C	-0.342589	0.000931	-0.019165
C44	C	0.157411	0.500931	0.480835
N45	N	-0.456195	0.003760	-0.078190
N46	N	0.043805	0.503760	0.421810
N47	N	-0.427611	0.000739	-0.015098
N48	N	0.072389	0.500739	0.484902
N49	N	-0.941877	-0.151003	-0.046669
N50	N	-0.441877	0.348997	0.453331
C51	C	-0.996194	-0.562389	0.010665
C52	C	-0.496194	-0.062389	0.510665
C53	C	-0.996198	-0.624310	0.010671
C54	C	-0.496198	-0.124310	0.510671
O55	O	-1.042346	-0.658661	0.059405
O56	O	-0.542346	-0.158661	0.559405
N57	N	-0.941918	-0.652543	-0.046612
N58	N	-0.441918	-0.152543	0.453388
C59	C	-0.887626	-0.618853	-0.103899
C60	C	-0.387626	-0.118853	0.396101
O61	O	-0.841457	-0.648554	-0.152622
O62	O	-0.341457	-0.148554	0.347378
C63	C	-0.887619	-0.556935	-0.103901
C64	C	-0.387619	-0.056935	0.396099
C65	C	-0.941907	-0.528704	-0.046619
C66	C	-0.441907	-0.028704	0.453381
C67	C	-1.050477	-0.534159	0.067943
C68	C	-0.550477	-0.034159	0.567943
C69	C	-1.050474	-0.472243	0.067936
C70	C	-0.550474	0.027757	0.567936
C71	C	-0.996187	-0.438557	0.010651
C72	C	-0.496187	0.061443	0.510651
C73	C	-0.941904	-0.466788	-0.046626
C74	C	-0.441904	0.033212	0.453374
C75	C	-0.833323	-0.523246	-0.161184
C76	C	-0.333323	-0.023246	0.338816
C77	C	-0.833320	-0.461323	-0.161181
C78	C	-0.333320	0.038677	0.338819
C79	C	-0.887608	-0.433093	-0.103899
C80	C	-0.387608	0.066907	0.396101
C81	C	-0.887614	-0.371187	-0.103918
C82	C	-0.387614	0.128813	0.396082
N83	N	-0.941893	-0.342953	-0.046635
N84	N	-0.441893	0.157047	0.453365
C85	C	-0.996180	-0.376639	0.010649
C86	C	-0.496180	0.123361	0.510649
C87	C	-0.887644	-0.748888	-0.103890
C88	C	-0.387644	-0.248888	0.396110
C89	C	-0.887655	-0.810805	-0.103893
C90	C	-0.387655	-0.310805	0.396107
C91	C	-0.996226	-0.816257	0.010679
C92	C	-0.496226	-0.316257	0.510679
C93	C	-0.996219	-0.754338	0.010677
C94	C	-0.496219	-0.254338	0.510677
C95	C	-0.941924	-0.720654	-0.046607
C96	C	-0.441924	-0.220654	0.453393
C97	C	-0.996169	-0.246610	0.010630
C98	C	-0.496169	0.253390	0.510630
C99	C	-0.996163	-0.184688	0.010615
C100	C	-0.496163	0.315312	0.510615
C101	C	-0.887590	-0.179242	-0.103953
C102	C	-0.387590	0.320758	0.396047
C103	C	-0.887598	-0.241158	-0.103942
C104	C	-0.387598	0.258842	0.396058
C105	C	-0.941891	-0.274841	-0.046644
C106	C	-0.441891	0.225159	0.453356
O107	O	-0.841487	-0.336797	-0.152625
O108	O	-0.341487	0.163203	0.347375
O109	O	-1.042334	-0.346930	0.059370
O110	O	-0.542334	0.153070	0.559370
C111	C	-0.087708	0.001518	-0.031338
C112	C	0.412292	0.501518	0.468662
C113	C	-0.176233	0.001308	-0.027113
C114	C	0.323767	0.501308	0.472887
C115	C	-0.947884	-0.004689	0.098311
C116	C	-0.447884	0.495311	0.598311
C117	C	-0.946407	-0.008885	0.185990
C118	C	-0.446407	0.491115	0.685990
N119	N	-0.941939	0.155504	-0.046605
N120	N	-0.441939	0.655504	0.453395
C121	C	-0.935925	0.009192	-0.191592
C122	C	-0.435925	0.509192	0.308408
C123	C	-0.937403	0.013391	-0.279271
C124	C	-0.437403	0.513391	0.220729
C125	C	-0.945726	0.042765	0.227188
C126	C	-0.445726	0.542765	0.727188
C127	C	-0.944333	0.038821	0.309571
C128	C	-0.444333	0.538821	0.809571
C129	C	-0.943626	-0.016772	0.350756
C130	C	-0.443626	0.483228	0.850756
C131	C	-0.944304	-0.068425	0.309552
C132	C	-0.444304	0.431575	0.809552
C133	C	-0.945691	-0.064481	0.227169
C134	C	-0.445691	0.435519	0.727169
C135	C	-0.939469	-0.034318	0.597142
C136	C	-0.439469	0.465682	1.097142
C137	C	-0.938083	-0.038258	0.679531
C138	C	-0.438083	0.461742	1.179531
C139	C	-0.938111	0.068989	0.679544
C140	C	-0.438111	0.568989	1.179544
C141	C	-0.939503	0.072928	0.597161
C142	C	-0.439503	0.572928	1.097161
C143	C	-0.940177	0.021275	0.555963
C144	C	-0.440177	0.521275	1.055963
N145	N	-0.942204	-0.020804	0.434965
N146	N	-0.442204	0.479196	0.934965
N147	N	-0.941593	0.025308	0.471754
N148	N	-0.441593	0.525308	0.971754
H149	H	-0.531560	0.009867	-0.205574
H150	H	-0.031560	0.509867	0.294426
Br151	Br	-0.183965	-0.006867	0.143446
Br152	Br	0.316035	0.493133	0.643446
Br153	Br	-0.548954	-0.004585	0.096432
Br154	Br	-0.048954	0.495415	0.596432
H155	H	-0.317472	0.007272	-0.151356
H156	H	0.182528	0.507272	0.348644
Br157	Br	-0.937132	-0.113712	0.735426
Br158	Br	-0.437132	0.386288	1.235426
Br159	Br	-0.745007	-0.005062	0.105806
Br160	Br	-0.245007	0.494938	0.605806
H161	H	-0.352243	-0.005374	0.112292
H162	H	0.147757	0.494626	0.612292
Br163	Br	-1.069898	-0.716032	0.088419
Br164	Br	-0.569898	-0.216032	0.588419
H165	H	-1.040428	-0.843695	0.057324
H166	H	-0.540428	-0.343695	0.557324
Br167	Br	-0.813920	-0.133517	-0.181696
Br168	Br	-0.313920	0.366483	0.318304
H169	H	-0.937561	0.111042	0.713096
H170	H	-0.437561	0.611042	1.213096
Br171	Br	-0.940367	-0.104419	0.541238
Br172	Br	-0.440367	0.395581	1.041238
Br173	Br	-0.813988	-0.849110	-0.181647
Br174	Br	-0.313988	-0.349110	0.318353
H175	H	-0.843433	-0.721464	-0.150544
H176	H	-0.343433	-0.221464	0.349456
H177	H	-0.843399	-0.264144	-0.150593
H178	H	-0.343399	0.235856	0.349407
H179	H	-0.946306	0.088035	0.193662
H180	H	-0.446306	0.588035	0.693662
H181	H	-0.943723	-0.113691	0.343090
H182	H	-0.443723	0.386309	0.843090
Br183	Br	-0.759642	-0.561546	-0.238927
Br184	Br	-0.259642	-0.061546	0.261073
H185	H	-0.166578	0.007602	-0.158568
H186	H	0.333422	0.507602	0.341432
H187	H	-1.094684	-0.561580	0.114594
H188	H	-0.594684	-0.061580	0.614594
Br189	Br	-1.069853	-0.292313	0.088392
Br190	Br	-0.569853	0.207687	0.588392
H191	H	-0.946234	-0.106540	0.193624
H192	H	-0.446234	0.393460	0.693624
Br193	Br	-0.699848	0.011363	-0.236730
Br194	Br	-0.199848	0.511363	0.263270
Br195	Br	-1.069848	-0.146379	0.088356
Br196	Br	-0.569848	0.353621	0.588356
H197	H	-1.094678	-0.449261	0.114581
H198	H	-0.594678	0.050739	0.614581
Br199	Br	-0.759626	-0.415613	-0.238926
Br200	Br	-0.259626	0.084387	0.261074
H201	H	-0.943782	0.080880	0.343112
H202	H	-0.443782	0.580880	0.843112
H203	H	-0.940080	0.118198	0.563634
H204	H	-0.440080	0.618198	1.063634
