data_functionalizedCrystal
_audit_creation_method	'MofGen! by Chris Wilmer'
_symmetry_space_group_name_H-M	'P1'
_symmetry_Int_Tables_number	1
_symmetry_cell_setting	triclinic
loop_
_symmetry_equiv_pos_as_xyz
  x,y,z
_cell_length_a	19.077068
_cell_length_b	19.077220
_cell_length_c	19.076919
_cell_angle_alpha	90.116798
_cell_angle_beta	94.470751
_cell_angle_gamma	85.293229
loop_
_atom_site_label
_atom_site_type_symbol
_atom_site_fract_x
_atom_site_fract_y
_atom_site_fract_z
Zn1	Zn	-0.256354	-1.047582	-0.450469
Zn2	Zn	0.076979	-0.714248	-0.117135
Zn3	Zn	0.410312	-0.380915	0.216198
Zn4	Zn	-0.369511	-1.047495	-0.337310
Zn5	Zn	-0.036178	-0.714161	-0.003977
Zn6	Zn	0.297156	-0.380828	0.329357
Zn7	Zn	-0.255980	-0.934813	-0.328226
Zn8	Zn	0.077354	-0.601480	0.005107
Zn9	Zn	0.410687	-0.268146	0.338441
Zn10	Zn	-0.378926	-0.924921	-0.450401
Zn11	Zn	-0.045593	-0.591587	-0.117067
Zn12	Zn	0.287740	-0.258254	0.216266
O13	O	-0.315193	-0.988702	-0.391601
O14	O	0.018141	-0.655369	-0.058268
O15	O	0.351474	-0.322036	0.275065
O16	O	-0.267581	-1.146062	-0.439288
O17	O	0.065752	-0.812728	-0.105955
O18	O	0.399086	-0.479395	0.227379
O19	O	-0.350354	-1.036651	-0.237617
O20	O	-0.017020	-0.703317	0.095716
O21	O	0.316313	-0.369984	0.429050
O22	O	-0.157219	-0.953948	-0.340669
O23	O	0.176114	-0.620615	-0.007335
O24	O	0.509447	-0.287282	0.325998
O25	O	-0.350717	-1.145998	-0.356151
O26	O	-0.017383	-0.812665	-0.022817
O27	O	0.315950	-0.479331	0.310516
O28	O	-0.157494	-1.036799	-0.430480
O29	O	0.175839	-0.703466	-0.097146
O30	O	0.509172	-0.370132	0.236187
O31	O	-0.266943	-0.953864	-0.230943
O32	O	0.066391	-0.620531	0.102390
O33	O	0.399724	-0.287197	0.435724
O34	O	-0.276072	-0.835009	-0.340603
O35	O	0.057261	-0.501676	-0.007269
O36	O	0.390594	-0.168342	0.326064
O37	O	-0.366764	-0.937088	-0.548898
O38	O	-0.033431	-0.603755	-0.215564
O39	O	0.299903	-0.270422	0.117769
O40	O	-0.366401	-0.827741	-0.430364
O41	O	-0.033067	-0.494408	-0.097031
O42	O	0.300266	-0.161074	0.236303
O43	O	-0.276711	-1.027207	-0.548948
O44	O	0.056623	-0.693874	-0.215614
O45	O	0.389956	-0.360540	0.117719
O46	O	-0.469570	-1.027058	-0.356085
O47	O	-0.136237	-0.693725	-0.022751
O48	O	0.197097	-0.360392	0.310582
O49	O	-0.476487	-0.937004	-0.439172
O50	O	-0.143154	-0.603671	-0.105839
O51	O	0.190179	-0.270337	0.227494
C52	C	-0.322218	-0.805837	-0.384491
C53	C	0.011115	-0.472504	-0.051157
C54	C	0.344448	-0.139171	0.282176
C55	C	-0.325241	-0.727605	-0.381466
C56	C	0.008092	-0.394272	-0.048133
C57	C	0.341425	-0.060939	0.285201
C58	C	-0.346899	-0.287238	-0.359809
C59	C	-0.013566	0.046096	-0.026476
C60	C	0.319768	0.379429	0.306858
C61	C	-0.344054	-0.360745	-0.362645
C62	C	-0.010721	-0.027412	-0.029312
C63	C	0.322612	0.305921	0.304021
C64	C	-0.299424	-0.397528	-0.407425
C65	C	0.033909	-0.064195	-0.074092
C66	C	0.367242	0.269138	0.259242
C67	C	-0.257631	-0.360800	-0.449365
C68	C	0.075702	-0.027467	-0.116032
C69	C	0.409035	0.305866	0.217301
C70	C	-0.260473	-0.287294	-0.446525
C71	C	0.072861	0.046039	-0.113192
C72	C	0.406194	0.379372	0.220142
C73	C	-0.286290	-0.617371	-0.420566
C74	C	0.047044	-0.284038	-0.087233
C75	C	0.380377	0.049295	0.246100
C76	C	-0.283453	-0.690882	-0.423405
C77	C	0.049880	-0.357549	-0.090072
C78	C	0.383214	-0.024216	0.243261
C79	C	-0.369875	-0.690822	-0.336684
C80	C	-0.036542	-0.357489	-0.003350
C81	C	0.296791	-0.024156	0.329983
C82	C	-0.372716	-0.617315	-0.333850
C83	C	-0.039383	-0.283981	-0.000517
C84	C	0.293951	0.049352	0.332816
C85	C	-0.330920	-0.580593	-0.375788
C86	C	0.002413	-0.247260	-0.042455
C87	C	0.335747	0.086073	0.290879
N88	N	-0.296517	-0.472665	-0.410327
N89	N	0.036816	-0.139331	-0.076993
N90	N	0.370149	0.194002	0.256340
N91	N	-0.333824	-0.505458	-0.372882
N92	N	-0.000491	-0.172125	-0.039549
N93	N	0.332843	0.161208	0.293785
C94	C	-0.498649	-0.980967	-0.398623
C95	C	-0.165316	-0.647633	-0.065290
C96	C	0.168018	-0.314300	0.268044
C97	C	-0.577131	-0.977721	-0.401653
C98	C	-0.243797	-0.644387	-0.068320
C99	C	0.089536	-0.311054	0.265014
C100	C	-0.610377	-1.023116	-0.359856
C101	C	-0.277044	-0.689782	-0.026523
C102	C	0.056290	-0.356449	0.306811
C103	C	-0.684119	-1.020067	-0.362710
C104	C	-0.350786	-0.686733	-0.029377
C105	C	-0.017453	-0.353400	0.303957
C106	C	-0.724614	-0.971619	-0.407358
C107	C	-0.391281	-0.638286	-0.074025
C108	C	-0.057947	-0.304952	0.259309
C109	C	-0.691363	-0.926222	-0.449160
C110	C	-0.358029	-0.592889	-0.115826
C111	C	-0.024696	-0.259555	0.217507
C112	C	-0.617622	-0.929275	-0.446309
C113	C	-0.284289	-0.595941	-0.112975
C114	C	0.049045	-0.262608	0.220358
C115	C	-0.945545	-0.957460	-0.420522
C116	C	-0.612211	-0.624127	-0.087189
C117	C	-0.278878	-0.290793	0.246144
C118	C	-1.019291	-0.954409	-0.423368
C119	C	-0.685957	-0.621076	-0.090035
C120	C	-0.352624	-0.287742	0.243298
C121	C	-1.012042	-1.048255	-0.336919
C122	C	-0.678708	-0.714922	-0.003586
C123	C	-0.345375	-0.381589	0.329747
C124	C	-0.938300	-1.051301	-0.334069
C125	C	-0.604966	-0.717968	-0.000736
C126	C	-0.271633	-0.384634	0.332597
C127	C	-0.905055	-1.005907	-0.375874
C128	C	-0.571722	-0.672573	-0.042540
C129	C	-0.238388	-0.339240	0.290793
N130	N	-0.799990	-0.968500	-0.410275
N131	N	-0.466657	-0.635166	-0.076941
N132	N	-0.133324	-0.301833	0.256392
N133	N	-0.829680	-1.009030	-0.372960
N134	N	-0.496347	-0.675696	-0.039627
N135	N	-0.163013	-0.342363	0.293706
C136	C	-0.131020	-0.996487	-0.384568
C137	C	0.202313	-0.663154	-0.051235
C138	C	0.535647	-0.329820	0.282098
C139	C	-0.052537	-0.999804	-0.381571
C140	C	0.280797	-0.666471	-0.048238
C141	C	0.614130	-0.333137	0.285095
C142	C	-0.322829	-0.981054	-0.575173
C143	C	0.010504	-0.647721	-0.241840
C144	C	0.343837	-0.314387	0.091493
C145	C	-0.326084	-0.977794	-0.653401
C146	C	0.007250	-0.644461	-0.320068
C147	C	0.340583	-0.311128	0.013266
C148	C	-0.308134	-0.172282	-0.398731
C149	C	0.025199	0.161051	-0.065398
C150	C	0.358532	0.494384	0.267935
C151	C	-0.305110	-0.250515	-0.401748
C152	C	0.028223	0.082819	-0.068415
C153	C	0.361556	0.416152	0.264919
C154	C	-0.280729	-1.023181	-0.690180
C155	C	0.052605	-0.689847	-0.356846
C156	C	0.385938	-0.356514	-0.023513
C157	C	-0.283784	-1.020110	-0.763682
C158	C	0.049549	-0.686776	-0.430349
C159	C	0.382882	-0.353443	-0.097015
C160	C	-0.332198	-0.971655	-0.800405
C161	C	0.001135	-0.638322	-0.467072
C162	C	0.334468	-0.304989	-0.133739
C163	C	-0.377555	-0.926264	-0.763621
C164	C	-0.044222	-0.592931	-0.430288
C165	C	0.289111	-0.259598	-0.096955
C166	C	-0.374496	-0.929332	-0.690120
C167	C	-0.041163	-0.595999	-0.356786
C168	C	0.292171	-0.262666	-0.023453
C169	C	-0.346372	-0.957445	-1.020228
C170	C	-0.013039	-0.624112	-0.686895
C171	C	0.320294	-0.290778	-0.353562
C172	C	-0.349430	-0.954382	-1.093735
C173	C	-0.016096	-0.621048	-0.760402
C174	C	0.317237	-0.287715	-0.427068
C175	C	-0.255657	-1.048227	-1.093791
C176	C	0.077676	-0.714893	-0.760457
C177	C	0.411009	-0.381560	-0.427124
C178	C	-0.252605	-1.051293	-1.020288
C179	C	0.080728	-0.717960	-0.686955
C180	C	0.414061	-0.384627	-0.353621
C181	C	-0.297960	-1.005900	-0.983510
C182	C	0.035374	-0.672566	-0.650177
C183	C	0.368707	-0.339233	-0.316844
N184	N	-0.335324	-0.968517	-0.875537
N185	N	-0.001991	-0.635183	-0.542203
N186	N	0.331343	-0.301850	-0.208870
N187	N	-0.294830	-1.009036	-0.908380
N188	N	0.038503	-0.675702	-0.575046
N189	N	0.371837	-0.342369	-0.241713
C190	C	-0.307533	-0.996364	-0.208743
C191	C	0.025800	-0.663031	0.124590
C192	C	0.359133	-0.329697	0.457924
C193	C	-0.304075	-0.999768	-0.130514
C194	C	0.029258	-0.666435	0.202820
C195	C	0.362592	-0.333101	0.536153
H196	H	-0.378082	-0.390642	-0.328493
H197	H	-0.044748	-0.057309	0.004840
H198	H	0.288585	0.276025	0.338174
H199	H	-0.213183	-1.090752	-0.990393
H200	H	0.120150	-0.757419	-0.657060
H201	H	0.453484	-0.424085	-0.323726
H202	H	-0.221290	-0.390755	-0.485823
H203	H	0.112044	-0.057422	-0.152490
H204	H	0.445377	0.275912	0.180844
H205	H	-0.226442	-0.257396	-0.480674
H206	H	0.106892	0.075938	-0.147340
H207	H	0.440225	0.409271	0.185993
H208	H	-0.388856	-0.914922	-1.123633
H209	H	-0.055523	-0.581589	-0.790299
H210	H	0.277810	-0.248255	-0.456966
H211	H	-0.383245	-0.257294	-0.323348
H212	H	-0.049912	0.076040	0.009985
H213	H	0.283422	0.409373	0.343319
Cl214	Cl	-0.428803	-0.571080	-0.277533
Cl215	Cl	-0.095470	-0.237747	0.055801
Cl216	Cl	0.237863	0.095587	0.389134
H217	H	-1.039118	-1.085214	-0.302886
H218	H	-0.705784	-0.751881	0.030448
H219	H	-0.372451	-0.418547	0.363781
Cl220	Cl	-0.198642	-1.105286	-1.140029
Cl221	Cl	0.134691	-0.771953	-0.806696
Cl222	Cl	0.468025	-0.438620	-0.473362
H223	H	-0.403903	-0.720729	-0.302540
H224	H	-0.070569	-0.387395	0.030793
H225	H	0.262764	-0.054062	0.364127
H226	H	-0.383313	-0.920492	-0.990293
H227	H	-0.049980	-0.587159	-0.656960
H228	H	0.283354	-0.253826	-0.323627
H229	H	-0.416973	-0.886809	-0.793527
H230	H	-0.083639	-0.553476	-0.460194
H231	H	0.249694	-0.220143	-0.126860
H232	H	-0.411422	-0.892367	-0.660175
H233	H	-0.078089	-0.559034	-0.326842
H234	H	0.255245	-0.225701	0.006492
H235	H	-0.724340	-0.886777	-0.485516
H236	H	-0.391006	-0.553444	-0.152183
H237	H	-0.057673	-0.220111	0.181151
Cl238	Cl	-0.887397	-1.112219	-0.277949
Cl239	Cl	-0.554064	-0.778886	0.055385
Cl240	Cl	-0.220731	-0.445552	0.388718
H241	H	-0.247105	-0.720829	-0.459869
H242	H	0.086228	-0.387496	-0.126536
H243	H	0.419561	-0.054163	0.206798
H244	H	-0.252260	-0.587481	-0.454719
H245	H	0.081073	-0.254148	-0.121385
H246	H	0.414406	0.079185	0.211948
H247	H	-0.577411	-1.062564	-0.323496
H248	H	-0.244077	-0.729231	0.009838
H249	H	0.089256	-0.395898	0.343171
Cl250	Cl	-0.219865	-1.084101	-0.644021
Cl251	Cl	0.113468	-0.750768	-0.310688
Cl252	Cl	0.446801	-0.417435	0.022646
Cl253	Cl	-1.070198	-0.893490	-0.479492
Cl254	Cl	-0.736864	-0.560157	-0.146159
Cl255	Cl	-0.403531	-0.226823	0.187175
Cl256	Cl	-0.725911	-1.077140	-0.310165
Cl257	Cl	-0.392578	-0.743807	0.023169
Cl258	Cl	-0.059245	-0.410473	0.356502
Cl259	Cl	-0.575827	-0.872206	-0.498858
Cl260	Cl	-0.242493	-0.538873	-0.165525
Cl261	Cl	0.090840	-0.205540	0.167808
Cl262	Cl	-0.903761	-0.900391	-0.473076
Cl263	Cl	-0.570428	-0.567058	-0.139742
Cl264	Cl	-0.237094	-0.233724	0.193591
H265	H	-0.246853	-1.057070	-0.793624
H266	H	0.086480	-0.723736	-0.460291
H267	H	0.419814	-0.390403	-0.126957
