data_functionalizedCrystal
_audit_creation_method	'MofGen! by Chris Wilmer'
_symmetry_space_group_name_H-M	'P1'
_symmetry_Int_Tables_number	1
_symmetry_cell_setting	triclinic
loop_
_symmetry_equiv_pos_as_xyz
  x,y,z
_cell_length_a	18.101398
_cell_length_b	18.050590
_cell_length_c	18.101389
_cell_angle_alpha	89.980851
_cell_angle_beta	89.990255
_cell_angle_gamma	90.014109
loop_
_atom_site_label
_atom_site_type_symbol
_atom_site_fract_x
_atom_site_fract_y
_atom_site_fract_z
Zn1	Zn	1.132186	-0.295825	-0.418547
Zn2	Zn	1.132109	-0.420000	-0.294704
Zn3	Zn	1.008344	-0.295818	-0.294740
Zn4	Zn	1.008322	-0.419968	-0.418524
O5	O	1.070240	-0.357903	-0.356628
O6	O	1.235808	-0.312313	-0.402113
O7	O	1.115668	-0.403537	-0.191076
O8	O	1.024814	-0.191895	-0.311187
O9	O	1.235752	-0.403544	-0.311126
O10	O	1.115799	-0.191900	-0.402148
O11	O	1.024739	-0.312301	-0.191102
O12	O	0.904709	-0.312271	-0.311165
O13	O	1.024776	-0.403491	-0.522160
O14	O	0.904692	-0.403484	-0.402109
O15	O	1.115778	-0.312283	-0.522177
O16	O	1.115647	-0.523920	-0.311104
O17	O	1.024701	-0.523897	-0.402074
C18	C	0.877830	-0.357874	-0.356639
C19	C	0.795516	-0.357879	-0.356661
C20	C	0.496425	-0.357923	-0.356630
C21	C	0.527764	-0.415589	-0.413567
C22	C	0.613383	-0.415408	-0.413801
C23	C	0.644807	-0.357902	-0.356645
C24	C	0.613736	-0.279684	-0.377974
C25	C	0.528091	-0.280030	-0.378379
C26	C	0.527976	-0.377785	-0.278227
C27	C	0.613627	-0.379502	-0.278646
C28	C	0.728667	-0.357885	-0.356653
C29	C	0.412565	-0.357934	-0.356624
C30	C	1.070183	-0.550855	-0.356599
C31	C	1.070227	-0.633401	-0.356611
C32	C	1.119786	-0.832837	-0.307211
C33	C	1.137875	-0.882182	-0.374798
C34	C	1.070269	-0.784531	-0.356641
C35	C	1.052255	-0.882268	-0.289084
C36	C	1.070311	-0.930516	-0.356663
C37	C	1.088393	-0.832789	-0.424263
C38	C	1.002741	-0.832871	-0.338504
C39	C	1.020805	-0.882193	-0.406138
C40	C	1.070246	-0.700433	-0.356627
C41	C	1.070333	-1.014613	-0.356685
C42	C	1.263402	-0.357933	-0.356619
C43	C	1.345716	-0.357946	-0.356614
C44	C	1.070283	-0.357884	-0.549790
C45	C	1.070301	-0.357876	-0.632105
C46	C	1.070318	-0.164197	-0.356674
C47	C	1.070350	-0.081652	-0.356694
C48	C	1.070344	-0.357737	-0.931196
C49	C	1.012891	-0.414940	-0.899860
C50	C	1.013047	-0.415205	-0.814242
C51	C	1.070322	-0.357806	-0.782813
C52	C	1.148352	-0.379056	-0.813899
C53	C	1.148032	-0.379431	-0.899544
C54	C	1.050446	-0.279157	-0.899626
C55	C	1.048710	-0.279611	-0.813975
C56	C	1.070315	-0.357844	-0.698954
C57	C	1.070357	-0.357701	-1.015055
C58	C	1.070240	-0.357868	-0.164218
C59	C	1.070365	-0.357667	-0.081904
H60	H	0.635197	-0.262531	-0.434667
H61	H	0.945633	-0.811192	-0.323129
O62	O	0.502169	-0.400221	-0.482519
C63	C	0.530752	-0.452349	-0.532975
H64	H	0.546864	-0.504999	-0.502142
H65	H	0.486975	-0.466001	-0.576148
H66	H	0.581529	-0.428203	-0.561436
O67	O	1.100407	-0.228398	-0.923897
C68	C	1.153129	-0.263678	-0.969156
H69	H	1.128610	-0.316908	-0.992546
H70	H	1.169153	-0.225196	-1.016472
H71	H	1.204256	-0.277458	-0.935051
O72	O	0.980213	-0.260585	-0.789642
C73	C	0.951906	-0.317720	-0.744669
H74	H	0.999532	-0.351831	-0.721426
H75	H	0.918936	-0.292559	-0.697244
H76	H	0.914360	-0.354969	-0.778970
H77	H	1.037001	-0.904001	-0.231943
O78	O	1.106552	-0.807013	-0.492499
C79	C	1.054637	-0.832764	-0.544569
H80	H	1.000724	-0.846964	-0.515238
H81	H	1.044044	-0.787798	-0.587516
H82	H	1.077161	-0.884350	-0.573059
H83	H	0.634390	-0.473412	-0.400433
H84	H	0.978948	-0.903728	-0.447997
H85	H	1.192310	-0.338701	-0.793542
H86	H	0.955185	-0.401907	-0.793224
H87	H	0.507162	-0.473782	-0.400348
H88	H	0.994534	-0.259798	-0.921226
H89	H	0.508126	-0.263181	-0.435695
O90	O	0.637873	-0.399870	-0.483123
C91	C	0.681108	-0.459319	-0.509228
H92	H	0.665538	-0.512044	-0.478228
H93	H	0.670682	-0.467400	-0.570809
H94	H	0.742065	-0.446584	-0.499758
H95	H	0.634090	-0.235554	-0.337798
H96	H	0.954855	-0.401778	-0.920461
O97	O	0.639055	-0.332922	-0.225370
C98	C	0.616948	-0.259850	-0.241758
H99	H	0.566294	-0.261198	-0.279147
H100	H	0.602793	-0.229616	-0.188317
H101	H	0.663880	-0.229648	-0.271062
H102	H	0.506375	-0.433846	-0.258844
H103	H	0.507359	-0.235526	-0.338810
H104	H	1.195000	-0.903844	-0.390152
O105	O	1.168178	-0.447907	-0.923509
C106	C	1.168134	-0.449144	-1.001390
H107	H	1.174906	-0.390329	-1.023336
H108	H	1.215815	-0.484929	-1.021846
H109	H	1.113646	-0.473175	-1.021966
H110	H	1.161674	-0.811165	-0.265452
O111	O	0.637951	-0.448162	-0.259550
C112	C	0.682933	-0.476596	-0.316462
H113	H	0.706186	-0.428864	-0.350549
H114	H	0.730352	-0.509613	-0.291300
H115	H	0.648637	-0.514301	-0.353556
H116	H	0.507709	-0.335782	-0.235804
O117	O	1.028425	-0.483954	-0.925654
C118	C	1.024777	-0.483943	-1.003459
H119	H	1.033520	-0.425200	-1.024894
H120	H	1.069601	-0.521753	-1.026579
H121	H	0.968261	-0.504869	-1.021819
O122	O	1.095076	-0.226160	-0.788420
C123	C	1.148301	-0.258443	-0.741547
H124	H	1.154108	-0.319796	-0.755281
H125	H	1.203724	-0.229613	-0.749868
H126	H	1.130111	-0.252023	-0.681590
H127	H	1.026185	-0.473451	-0.793755
H128	H	1.192291	-0.339576	-0.920273
H129	H	1.165510	-0.435888	-0.792451
