data_functionalizedCrystal
_audit_creation_method	'MofGen! by Chris Wilmer'
_symmetry_space_group_name_H-M	'P1'
_symmetry_Int_Tables_number	1
_symmetry_cell_setting	triclinic
loop_
_symmetry_equiv_pos_as_xyz
  x,y,z
_cell_length_a	16.109301
_cell_length_b	13.101050
_cell_length_c	16.109301
_cell_angle_alpha	86.639520
_cell_angle_beta	96.538519
_cell_angle_gamma	86.645909
loop_
_atom_site_label
_atom_site_type_symbol
_atom_site_fract_x
_atom_site_fract_y
_atom_site_fract_z
O1	O	1.107704	-0.085153	-0.102280
O2	O	1.441037	0.248181	0.231054
O3	O	1.774370	0.581514	0.564387
O4	O	0.865643	-0.085169	-0.115578
O5	O	1.198976	0.248164	0.217755
O6	O	1.532309	0.581497	0.551089
O7	O	0.993322	-0.085150	0.012101
O8	O	1.326656	0.248183	0.345435
O9	O	1.659989	0.581517	0.678768
O10	O	0.980024	-0.085172	-0.229959
O11	O	1.313357	0.248161	0.103374
O12	O	1.646691	0.581495	0.436707
O13	O	0.984161	0.085278	0.002924
O14	O	1.317494	0.418612	0.336257
O15	O	1.650828	0.751945	0.669591
O16	O	0.856481	0.085259	-0.124756
O17	O	1.189815	0.418592	0.208578
O18	O	1.523148	0.751926	0.541911
O19	O	1.098542	0.085276	-0.111457
O20	O	1.431876	0.418609	0.221876
O21	O	1.765209	0.751942	0.555209
Zn22	Zn	0.976057	0.112327	-0.119564
Zn23	Zn	1.309391	0.445660	0.213770
Zn24	Zn	1.642724	0.778993	0.547103
Zn25	Zn	0.988128	-0.112220	-0.107472
Zn26	Zn	1.321461	0.221113	0.225862
Zn27	Zn	1.654794	0.554446	0.559195
O28	O	0.970863	0.085257	-0.239137
O29	O	1.304196	0.418590	0.094197
O30	O	1.637529	0.751923	0.427530
C31	C	0.830087	0.000043	-0.119628
C32	C	1.163421	0.333376	0.213705
C33	C	1.496754	0.666710	0.547039
C34	C	0.737792	0.000037	-0.118013
C35	C	1.071126	0.333370	0.215321
C36	C	1.404459	0.666704	0.548654
C37	C	0.515520	0.000042	-0.190021
C38	C	0.848853	0.333376	0.143313
C39	C	1.182186	0.666709	0.476646
C40	C	0.428799	0.000049	-0.188497
C41	C	0.762132	0.333382	0.144836
C42	C	1.095465	0.666716	0.478170
C43	C	0.448673	0.000058	-0.037009
C44	C	0.782006	0.333392	0.296325
C45	C	1.115339	0.666725	0.629658
C46	C	0.535391	0.000059	-0.038534
C47	C	0.868725	0.333392	0.294800
C48	C	1.202058	0.666726	0.628133
C49	C	0.568812	0.000046	-0.115042
C50	C	0.902146	0.333379	0.218292
C51	C	1.235479	0.666712	0.551625
C52	C	0.395373	0.000052	-0.111993
C53	C	0.728706	0.333385	0.221340
C54	C	1.062040	0.666718	0.554674
C55	C	0.301347	0.000059	-0.110340
C56	C	0.634680	0.333392	0.222993
C57	C	0.968013	0.666726	0.556326
C58	C	0.662845	0.000040	-0.116695
C59	C	0.996178	0.333374	0.216638
C60	C	1.329511	0.666707	0.549972
N61	N	0.967826	0.265574	-0.127815
N62	N	1.301159	0.598907	0.205518
N63	N	1.634492	0.932241	0.538851
C64	C	0.956626	0.474615	-0.139050
C65	C	1.289959	0.807948	0.194284
C66	C	1.623293	1.141282	0.527617
C67	C	1.007560	0.525498	-0.087990
C68	C	1.340893	0.858832	0.245343
C69	C	1.674227	1.192165	0.578676
C70	C	1.001328	0.641816	-0.094241
C71	C	1.334662	0.975149	0.239092
C72	C	1.667995	1.308482	0.572425
C73	C	0.962856	0.358287	-0.132800
C74	C	1.296190	0.691620	0.200533
C75	C	1.629523	1.024953	0.533867
C76	C	1.134098	0.000061	-0.107407
C77	C	1.467431	0.333395	0.225926
C78	C	1.800765	0.666728	0.559260
C79	C	1.226393	0.000061	-0.109022
C80	C	1.559727	0.333394	0.224311
C81	C	1.893060	0.666727	0.557644
C82	C	0.988203	0.000065	0.038488
C83	C	1.321536	0.333398	0.371821
C84	C	1.654870	0.666731	0.705154
C85	C	0.986588	0.000066	0.130783
C86	C	1.319921	0.333399	0.464116
C87	C	1.653254	0.666733	0.797449
N88	N	0.996363	0.734533	-0.099222
N89	N	1.329696	1.067866	0.234111
N90	N	1.663030	1.401199	0.567445
C91	C	0.975982	0.000040	-0.265523
C92	C	1.309316	0.333373	0.067811
C93	C	1.642649	0.666706	0.401144
C94	C	0.977598	0.000032	-0.357818
C95	C	1.310931	0.333365	-0.024484
C96	C	1.644265	0.666698	0.308849
C97	C	1.058596	0.000055	0.353056
C98	C	1.391929	0.333388	0.686389
C99	C	1.725263	0.666721	1.019722
C100	C	1.057072	0.000046	0.439777
C101	C	1.390406	0.333379	0.773110
C102	C	1.723739	0.666713	1.106443
C103	C	0.905584	0.000040	0.419903
C104	C	1.238917	0.333373	0.753236
C105	C	1.572251	0.666706	1.086569
C106	C	0.907109	0.000041	0.333184
C107	C	1.240442	0.333374	0.666517
C108	C	1.573775	0.666708	0.999851
C109	C	0.983617	0.000054	0.299763
C110	C	1.316950	0.333387	0.633096
C111	C	1.650284	0.666720	0.966429
C112	C	0.980569	0.000044	0.473202
C113	C	1.313902	0.333377	0.806536
C114	C	1.647235	0.666711	1.139869
C115	C	0.978916	0.000035	0.567229
C116	C	1.312249	0.333368	0.900562
C117	C	1.645583	0.666701	1.233896
C118	C	0.985270	0.000061	0.205730
C119	C	1.318603	0.333394	0.539064
C120	C	1.651937	0.666728	0.872397
H121	H	0.542727	0.000039	-0.252319
H122	H	0.876061	0.333372	0.081015
H123	H	1.209394	0.666706	0.414348
H124	H	0.843293	0.000031	0.447125
H125	H	1.176627	0.333365	0.780458
H126	H	1.509960	0.666698	1.113792
Br127	Br	0.805345	0.000026	0.260852
Br128	Br	1.138678	0.333359	0.594185
Br129	Br	1.472011	0.666692	0.927518
Br130	Br	1.158835	0.000042	0.512101
Br131	Br	1.492168	0.333375	0.845434
Br132	Br	1.825501	0.666708	1.178768
H133	H	0.421450	0.000075	0.025281
H134	H	0.754783	0.333409	0.358615
H135	H	1.088117	0.666742	0.691948
H136	H	0.908344	0.518405	-0.187455
H137	H	1.241677	0.851738	0.145878
H138	H	1.575010	1.185071	0.479212
H139	H	1.120894	0.000063	0.325848
H140	H	1.454227	0.333396	0.659181
H141	H	1.787561	0.666730	0.992514
H142	H	0.578785	0.000065	0.022527
H143	H	0.912118	0.333398	0.355860
H144	H	1.245452	0.666731	0.689193
Br145	Br	0.356475	0.000049	-0.290259
Br146	Br	0.689808	0.333383	0.043074
Br147	Br	1.023141	0.666716	0.376408
Br148	Br	1.088392	0.452511	-0.007658
Br149	Br	1.421725	0.785844	0.325676
Br150	Br	1.755059	1.119178	0.659009
