data_functionalizedCrystal
_audit_creation_method	'MofGen! by Chris Wilmer'
_symmetry_space_group_name_H-M	'P1'
_symmetry_Int_Tables_number	1
_symmetry_cell_setting	triclinic
loop_
_symmetry_equiv_pos_as_xyz
  x,y,z
_cell_length_a	14.971486
_cell_length_b	14.048226
_cell_length_c	14.971486
_cell_angle_alpha	89.993360
_cell_angle_beta	96.385871
_cell_angle_gamma	90.001501
loop_
_atom_site_label
_atom_site_type_symbol
_atom_site_fract_x
_atom_site_fract_y
_atom_site_fract_z
O1	O	1.186947	0.079052	-0.116565
O2	O	0.926547	0.079078	-0.130523
O3	O	1.063726	0.079057	0.006656
O4	O	1.049768	0.079072	-0.253744
O5	O	1.063710	-0.079264	0.006664
O6	O	0.926530	-0.079244	-0.130515
O7	O	1.186930	-0.079270	-0.116556
Zn8	Zn	1.056728	-0.104394	-0.123535
Zn9	Zn	1.056750	0.104202	-0.123545
O10	O	1.049751	-0.079249	-0.253736
C11	C	0.893214	-0.000080	-0.129895
C12	C	0.793917	-0.000070	-0.128024
N13	N	1.056719	-0.246754	-0.123527
C14	C	0.736692	-0.000067	-0.208614
C15	C	0.643392	-0.000081	-0.206850
C16	C	0.607320	-0.000092	-0.124497
C17	C	0.664552	-0.000098	-0.043902
C18	C	0.757850	-0.000090	-0.045666
C19	C	0.470090	-0.000111	-0.040231
C20	C	0.376786	-0.000117	-0.038466
C21	C	0.355632	-0.000102	-0.201415
C22	C	0.448930	-0.000094	-0.203179
C23	C	0.506156	-0.000099	-0.122584
C24	C	1.117482	-0.296581	-0.062809
C25	C	1.117488	-0.396239	-0.062808
C26	C	1.056735	-0.446068	-0.123531
C27	C	0.995966	-0.396234	-0.184252
C28	C	0.995957	-0.296578	-0.184247
C29	C	0.995992	-0.603948	-0.184258
C30	C	0.996003	-0.703611	-0.184264
C31	C	1.117523	-0.703609	-0.062819
C32	C	1.117514	-0.603953	-0.062815
C33	C	1.056746	-0.554126	-0.123537
C34	C	1.220263	-0.000110	-0.117185
C35	C	1.319561	-0.000114	-0.119056
C36	C	1.063094	-0.000103	0.039985
C37	C	1.061223	-0.000102	0.139282
N38	N	1.056765	0.246562	-0.123546
C39	C	1.050384	-0.000087	-0.287065
C40	C	1.052254	-0.000082	-0.386362
C41	C	1.141812	-0.000111	0.196507
C42	C	1.140049	-0.000101	0.289807
C43	C	1.057696	-0.000089	0.325879
C44	C	0.977101	-0.000078	0.268646
C45	C	0.978865	-0.000081	0.175349
C46	C	0.973430	-0.000074	0.463109
C47	C	0.971665	-0.000073	0.556413
C48	C	1.134614	-0.000094	0.577567
C49	C	1.136378	-0.000097	0.484269
C50	C	1.055782	-0.000088	0.427043
H51	H	0.766054	-0.000057	-0.275675
H52	H	0.946506	-0.563382	-0.233702
H53	H	1.205673	-0.000110	0.336396
H54	H	1.166964	-0.436808	-0.013367
H55	H	1.200238	-0.000099	0.624165
H56	H	0.635175	-0.000120	0.023152
H57	H	0.478296	-0.000077	-0.270239
H58	H	0.596802	-0.000077	-0.272474
H59	H	1.208874	-0.000126	0.167145
H60	H	0.946477	-0.256010	-0.233689
H61	H	0.904606	-0.000079	0.585780
H62	H	0.804443	-0.000093	0.019958
H63	H	0.347419	-0.000127	0.028593
H64	H	0.910047	-0.000062	0.298024
H65	H	0.516682	-0.000116	0.025399
H66	H	1.166957	-0.256017	-0.013365
H67	H	1.166987	-0.563383	-0.013375
H68	H	0.309033	-0.000103	-0.267039
H69	H	0.913240	-0.000074	0.128756
H70	H	1.167002	-0.744184	-0.013377
H71	H	0.946496	-0.436810	-0.233690
H72	H	0.946531	-0.744176	-0.233710
H73	H	1.203437	-0.000114	0.454903
H74	H	0.907800	-0.000064	0.416517
