data_functionalizedCrystal
_audit_creation_method	'MofGen! by Chris Wilmer'
_symmetry_space_group_name_H-M	'P1'
_symmetry_Int_Tables_number	1
_symmetry_cell_setting	triclinic
loop_
_symmetry_equiv_pos_as_xyz
  x,y,z
_cell_length_a	12.645331
_cell_length_b	12.645330
_cell_length_c	12.645323
_cell_angle_alpha	89.975130
_cell_angle_beta	90.022676
_cell_angle_gamma	89.983329
loop_
_atom_site_label
_atom_site_type_symbol
_atom_site_fract_x
_atom_site_fract_y
_atom_site_fract_z
Zn1	Zn	1.620731	0.422060	0.599446
Zn2	Zn	2.120731	0.922060	1.099446
Zn3	Zn	1.620613	0.599348	0.422186
Zn4	Zn	2.120613	1.099348	0.922186
Zn5	Zn	1.443446	0.422096	0.422191
Zn6	Zn	1.943446	0.922096	0.922191
Zn7	Zn	1.443428	0.599279	0.599402
Zn8	Zn	1.943428	1.099279	1.099402
O9	O	1.532054	0.510695	0.510806
O10	O	2.032054	1.010695	1.010806
O11	O	1.769063	0.445591	0.575949
O12	O	2.269063	0.945591	1.075949
O13	O	1.597069	0.575879	0.273840
O14	O	2.097069	1.075879	0.773840
O15	O	1.467020	0.273744	0.445724
O16	O	1.967020	0.773744	0.945724
O17	O	1.768976	0.575844	0.445717
O18	O	2.268976	1.075844	0.945717
O19	O	1.597271	0.273717	0.575953
O20	O	2.097271	0.773717	1.075953
O21	O	1.466906	0.445653	0.273843
O22	O	1.966906	0.945653	0.773843
O23	O	1.295096	0.445585	0.445681
O24	O	1.795096	0.945585	0.945681
O25	O	1.466989	0.575726	0.747755
O26	O	1.966989	1.075726	1.247755
O27	O	1.295083	0.575761	0.575877
O28	O	1.795083	1.075761	1.075877
O29	O	1.597253	0.445524	0.747788
O30	O	2.097253	0.945524	1.247788
O31	O	1.597052	0.747686	0.445674
O32	O	2.097052	1.247686	0.945674
O33	O	1.466874	0.747635	0.575873
O34	O	1.966874	1.247635	1.075873
C35	C	1.256625	0.510670	0.510776
C36	C	1.756625	1.010670	1.010776
C37	C	1.138795	0.510685	0.510788
C38	C	1.638795	1.010685	1.010788
C39	C	1.531977	0.786125	0.510791
C40	C	2.031977	1.286125	1.010791
C41	C	1.532041	0.903955	0.510821
C42	C	2.032041	1.403955	1.010821
C43	C	0.971204	0.428415	0.429333
C44	C	1.471204	0.928415	0.929333
C45	C	1.093763	0.428628	0.428974
C46	C	1.593763	0.928628	0.928974
C47	C	1.094274	0.622359	0.480273
C48	C	1.594274	1.122359	0.980273
C49	C	0.971676	0.621910	0.479717
C50	C	1.471676	1.121910	0.979717
C51	C	0.971645	0.482344	0.623072
C52	C	1.471645	0.982344	1.123072
C53	C	1.094251	0.479849	0.622448
C54	C	1.594251	0.979849	1.122448
C55	C	1.532132	0.510614	0.787312
C56	C	2.032132	1.010614	1.287312
C57	C	1.532166	0.510579	0.905142
C58	C	2.032166	1.010579	1.405142
C59	C	1.808560	0.510722	0.510838
C60	C	2.308560	1.010722	1.010838
C61	C	1.926390	0.510733	0.510851
C62	C	2.426390	1.010733	1.010851
C63	C	1.532161	0.234190	0.510844
C64	C	2.032161	0.734190	1.010844
C65	C	1.532206	0.116360	0.510861
C66	C	2.032206	0.616360	1.010861
C67	C	1.450484	1.071531	0.592982
C68	C	1.950484	1.571531	1.092982
C69	C	1.450067	0.948972	0.592717
C70	C	1.950067	1.448972	1.092717
C71	C	1.501796	0.948549	0.399099
C72	C	2.001796	1.448549	0.899099
C73	C	1.501298	1.071147	0.399597
C74	C	2.001298	1.571147	0.899597
C75	C	1.644342	1.071047	0.539475
C76	C	2.144342	1.571047	1.039475
C77	C	1.643654	0.948440	0.541918
C78	C	2.143654	1.448440	1.041918
C79	C	1.532038	0.510701	0.235377
C80	C	2.032038	1.010701	0.735377
C81	C	1.532210	0.510437	0.117547
C82	C	2.032210	1.010437	0.617547
C83	C	1.449964	0.592103	1.072685
C84	C	1.949964	1.092103	1.572685
C85	C	1.450179	0.592506	0.950125
C86	C	1.950179	1.092506	1.450125
C87	C	1.643865	0.540899	0.949662
C88	C	2.143865	1.040899	1.449662
C89	C	1.643414	0.541410	1.072260
C90	C	2.143414	1.041410	1.572260
C91	C	1.503724	0.398278	1.072340
C92	C	2.003724	0.898278	1.572340
C93	C	1.501232	0.398951	0.949733
C94	C	2.001232	0.898951	1.449733
H95	H	1.123864	0.345817	0.448100
H96	H	1.623864	0.845817	0.948100
F97	F	1.726113	0.465613	0.911583
F98	F	2.226113	0.965613	1.411583
H99	H	1.367350	0.573532	0.920023
H100	H	1.867350	1.073532	1.420023
H101	H	1.668424	0.622030	0.918973
H102	H	2.168424	1.122030	1.418973
H103	H	1.419326	1.099837	0.375357
H104	H	1.919326	1.599837	0.875357
F105	F	1.573819	0.315216	0.909722
F106	F	2.073819	0.815216	1.409722
H107	H	1.671932	1.101891	0.619558
H108	H	2.171932	1.601891	1.119558
H109	H	1.123355	0.397670	0.645458
H110	H	1.623355	0.897670	1.145458
H111	H	1.563628	0.337434	1.101353
H112	H	2.063628	0.837434	1.601353
H113	H	1.707747	0.917790	0.486462
H114	H	2.207747	1.417790	0.986462
H115	H	1.706772	0.484511	1.101938
H116	H	2.206772	0.984511	1.601938
F117	F	1.575713	1.109916	0.316889
F118	F	2.075713	1.609916	0.816889
F119	F	1.674972	0.648577	1.109660
F120	F	2.174972	1.148577	1.609660
H121	H	1.420678	0.917936	0.374420
H122	H	1.920678	1.417936	0.874420
H123	H	1.559431	0.919391	0.336240
H124	H	2.059431	1.419391	0.836240
F125	F	1.393784	0.369066	0.911710
F126	F	1.893784	0.869066	1.411710
F127	F	0.932693	0.319846	0.454061
F128	F	1.432693	0.819846	0.954061
F129	F	0.930866	0.452650	0.321278
F130	F	1.430866	0.952650	0.821278
F131	F	1.134317	0.552503	0.706084
F132	F	1.634317	1.052503	1.206084
F133	F	0.934231	0.653374	0.372486
F134	F	1.434231	1.153374	0.872486
H135	H	1.367871	1.102431	0.574266
H136	H	1.867871	1.602431	1.074266
F137	F	0.933768	0.560710	0.702462
F138	F	1.433768	1.060710	1.202462
F139	F	1.673470	0.910340	0.649388
F140	F	2.173470	1.410340	1.149388
F141	F	1.474986	1.109977	0.701619
F142	F	1.974986	1.609977	1.201619
F143	F	1.132037	0.453148	0.320277
F144	F	1.632037	0.953148	0.820277
F145	F	1.723928	1.108954	0.461310
F146	F	2.223928	1.608954	0.961310
F147	F	1.341406	0.910753	0.567943
F148	F	1.841406	1.410753	1.067943
F149	F	1.341374	0.567537	1.111199
F150	F	1.841374	1.067537	1.611199
F151	F	1.399114	0.362154	1.112730
F152	F	1.899114	0.862154	1.612730
F153	F	1.474253	0.700093	1.113029
F154	F	1.974253	1.200093	1.613029
H155	H	0.942031	0.685319	0.536502
H156	H	1.442031	1.185319	1.036502
H157	H	1.123444	0.685331	0.537783
H158	H	1.623444	1.185331	1.037783
F159	F	1.134339	0.654369	0.374192
F160	F	1.634339	1.154369	0.874192
H161	H	0.940749	0.402333	0.650823
H162	H	1.440749	0.902333	1.150823
F163	F	1.474798	0.909556	0.700997
F164	F	1.974798	1.409556	1.200997
H165	H	1.468983	0.675654	0.920811
H166	H	1.968983	1.175654	1.420811
