data_functionalizedCrystal
_audit_creation_method	'MofGen! by Chris Wilmer'
_symmetry_space_group_name_H-M	'P1'
_symmetry_Int_Tables_number	1
_symmetry_cell_setting	triclinic
loop_
_symmetry_equiv_pos_as_xyz
  x,y,z
_cell_length_a	17.077404
_cell_length_b	18.101395
_cell_length_c	17.077396
_cell_angle_alpha	89.972533
_cell_angle_beta	89.980499
_cell_angle_gamma	90.031329
loop_
_atom_site_label
_atom_site_type_symbol
_atom_site_fract_x
_atom_site_fract_y
_atom_site_fract_z
Zn1	Zn	1.200010	-0.294825	-0.443848
Zn2	Zn	1.199898	-0.418674	-0.312585
Zn3	Zn	1.068742	-0.294851	-0.312596
Zn4	Zn	1.068691	-0.418630	-0.443808
O5	O	1.134335	-0.356745	-0.378209
O6	O	1.309842	-0.311261	-0.426448
O7	O	1.182474	-0.402278	-0.202739
O8	O	1.086223	-0.191215	-0.330029
O9	O	1.309760	-0.402253	-0.330009
O10	O	1.182665	-0.191196	-0.426459
O11	O	1.086114	-0.311306	-0.202748
O12	O	0.958888	-0.311263	-0.329990
O13	O	1.086136	-0.402178	-0.553660
O14	O	0.958851	-0.402203	-0.426391
O15	O	1.182616	-0.311219	-0.553690
O16	O	1.182425	-0.522301	-0.329970
O17	O	1.086028	-0.522269	-0.426379
C18	C	0.930387	-0.356732	-0.378188
C19	C	0.843137	-0.356744	-0.378197
C20	C	0.802148	-0.404167	-0.428312
C21	C	0.720168	-0.404169	-0.428325
C22	C	0.679178	-0.356750	-0.378218
C23	C	0.720173	-0.309321	-0.328100
C24	C	0.802152	-0.309316	-0.328092
C25	C	0.549303	-0.309336	-0.328119
C26	C	0.467318	-0.309341	-0.328126
C27	C	0.467319	-0.404188	-0.428352
C28	C	0.549298	-0.404184	-0.428344
C29	C	0.590287	-0.356755	-0.378225
C30	C	1.134230	-0.549156	-0.378186
C31	C	1.134257	-0.631470	-0.378203
C32	C	1.134429	-0.930561	-0.378245
C33	C	1.073919	-0.899246	-0.439054
C34	C	1.073632	-0.813628	-0.438863
C35	C	1.134344	-0.782178	-0.378225
C36	C	1.111947	-0.813330	-0.295495
C37	C	1.111557	-0.898975	-0.295859
C38	C	1.217469	-0.898904	-0.399437
C39	C	1.216980	-0.813253	-0.401252
C40	C	1.134297	-0.698319	-0.378208
C41	C	1.134474	-1.014420	-0.378256
C42	C	1.339079	-0.356759	-0.378231
C43	C	1.426329	-0.356765	-0.378241
C44	C	1.134383	-0.356690	-0.582954
C45	C	1.134403	-0.356667	-0.670203
C46	C	1.134462	-0.163583	-0.378250
C47	C	1.134516	-0.081269	-0.378267
C48	C	1.184642	-0.309301	-0.711210
C49	C	1.184651	-0.309276	-0.793191
C50	C	1.134425	-0.356622	-0.834163
C51	C	1.084181	-0.403990	-0.793150
C52	C	1.084168	-0.404011	-0.711171
C53	C	1.084212	-0.403946	-0.964021
C54	C	1.084226	-0.403927	-1.046005
C55	C	1.184695	-0.309211	-1.046040
C56	C	1.184683	-0.309232	-0.964061
C57	C	1.134439	-0.356601	-0.923054
C58	C	1.134333	-0.356746	-0.174261
C59	C	1.134465	-0.356561	-0.087012
H60	H	0.835524	-0.270695	-0.287287
H61	H	0.433942	-0.442804	-0.469163
H62	H	0.686798	-0.442787	-0.469133
H63	H	1.043283	-0.442538	-0.826517
C64	C	1.168822	-0.786309	-0.233328
C65	C	1.147126	-0.815155	-0.160389
C66	C	1.199519	-0.790302	-0.103109
H67	H	1.167655	-0.733883	-0.231252
H68	H	1.220252	-0.802323	-0.246023
H69	H	1.095709	-0.799137	-0.147697
H70	H	1.148297	-0.867579	-0.162439
H71	H	1.250948	-0.806315	-0.115803
H72	H	1.198348	-0.737876	-0.101040
H73	H	1.184809	-0.809875	-0.053615
H74	H	1.225562	-0.270708	-0.826575
C75	C	0.846607	-0.455560	-0.482848
C76	C	0.826722	-0.439513	-0.560546
C77	C	0.867667	-0.486833	-0.610810
H78	H	0.833175	-0.505332	-0.471376
H79	H	0.901309	-0.448761	-0.475720
H80	H	0.772032	-0.446318	-0.567671
H81	H	0.840156	-0.389749	-0.572044
H82	H	0.922369	-0.480034	-0.603682
H83	H	0.854232	-0.536602	-0.599330
H84	H	0.854186	-0.475947	-0.663534
C85	C	0.422954	-0.257773	-0.273699
C86	C	0.476395	-0.216217	-0.229825
C87	C	0.435556	-0.168698	-0.179687
H88	H	0.390942	-0.285978	-0.239376
H89	H	0.391020	-0.225509	-0.303778
H90	H	0.508316	-0.248477	-0.199747
H91	H	0.508408	-0.187997	-0.264128
H92	H	0.403621	-0.136434	-0.209766
H93	H	0.403545	-0.196909	-0.145368
H94	H	0.471808	-0.140492	-0.149917
H95	H	0.582674	-0.270708	-0.287314
C96	C	0.992354	-0.928124	-0.420707
C97	C	0.964135	-0.968258	-0.484842
C98	C	0.889006	-0.994882	-0.467962
H99	H	0.958348	-0.887762	-0.410441
H100	H	0.994543	-0.959337	-0.376020
H101	H	0.961941	-0.937047	-0.529515
H102	H	0.998118	-1.008630	-0.495118
H103	H	0.891195	-1.026095	-0.423276
H104	H	0.855008	-0.954516	-0.457696
H105	H	0.869853	-1.022122	-0.511472
C106	C	0.675814	-0.257756	-0.273666
C107	C	0.729260	-0.216209	-0.229790
C108	C	0.688427	-0.168693	-0.179642
H109	H	0.643803	-0.285964	-0.239344
H110	H	0.643879	-0.225487	-0.303739
H111	H	0.761181	-0.248474	-0.199720
H112	H	0.761273	-0.187986	-0.264091
H113	H	0.656492	-0.136424	-0.209715
H114	H	0.656418	-0.196907	-0.145326
H115	H	0.724684	-0.140493	-0.149871
H116	H	1.087644	-0.792564	-0.500206
C117	C	1.092511	-0.926757	-0.521051
C118	C	1.158671	-0.972338	-0.518441
C119	C	1.175814	-0.997710	-0.593962
H120	H	1.102562	-0.885817	-0.554396
H121	H	1.049208	-0.954001	-0.540701
H122	H	1.201965	-0.945094	-0.498802
H123	H	1.148638	-1.013289	-0.485112
H124	H	1.132511	-1.024954	-0.613611
H125	H	1.185862	-0.956766	-0.627300
H126	H	1.220701	-1.028645	-0.592200
C127	C	1.029604	-0.455530	-0.666788
C128	C	0.985640	-0.497008	-0.720214
C129	C	0.935376	-0.544485	-0.679358
H130	H	0.995343	-0.427297	-0.634801
H131	H	1.059597	-0.487844	-0.634828
H132	H	0.955649	-0.464698	-0.752161
H133	H	1.019881	-0.525256	-0.752203
H134	H	0.965369	-0.576799	-0.647398
H135	H	0.901120	-0.516246	-0.647372
H136	H	0.905546	-0.572638	-0.715601
H137	H	0.582670	-0.442800	-0.469141
H138	H	1.012081	-0.793205	-0.424826
C139	C	1.030558	-0.925560	-0.271950
C140	C	0.982433	-0.864509	-0.257308
C141	C	0.907807	-0.888967	-0.235293
H142	H	1.034469	-0.954794	-0.225912
H143	H	1.008662	-0.954323	-0.312999
H144	H	1.004323	-0.835759	-0.216262
H145	H	0.978498	-0.835269	-0.303336
H146	H	0.885911	-0.917729	-0.276342
H147	H	0.911726	-0.918201	-0.189256
H148	H	0.875143	-0.847548	-0.225362
H149	H	1.153718	-0.919692	-0.249007
C150	C	1.239077	-0.257770	-0.919484
C151	C	1.194640	-0.210328	-0.872418
C152	C	1.244716	-0.162909	-0.831340
H153	H	1.269010	-0.229484	-0.955563
H154	H	1.273250	-0.286075	-0.887451
H155	H	1.160481	-0.182025	-0.904448
H156	H	1.164709	-0.238593	-0.836325
H157	H	1.278889	-0.191214	-0.799307
H158	H	1.274647	-0.134628	-0.867425
H159	H	1.214574	-0.130719	-0.799396
C160	C	1.239446	-0.786259	-0.482509
C161	C	1.250635	-0.847035	-0.531938
C162	C	1.271302	-0.822201	-0.606808
H163	H	1.286537	-0.758454	-0.479516
H164	H	1.198771	-0.756000	-0.502768
H165	H	1.291307	-0.877283	-0.511684
H166	H	1.203554	-0.874848	-0.534955
H167	H	1.230627	-0.791942	-0.627067
H168	H	1.318392	-0.794395	-0.603806
H169	H	1.278890	-0.863433	-0.640357
H170	H	1.051888	-0.791945	-0.277221
C171	C	1.277692	-0.925942	-0.340517
C172	C	1.335648	-0.966438	-0.379475
C173	C	1.391138	-0.991353	-0.325223
H174	H	1.252789	-0.956545	-0.302778
H175	H	1.300935	-0.884764	-0.315035
H176	H	1.312408	-1.007611	-0.404943
H177	H	1.360572	-0.935851	-0.417209
H178	H	1.414380	-0.950175	-0.299742
H179	H	1.366227	-1.021953	-0.287488
H180	H	1.430471	-1.018826	-0.351649
H181	H	1.237888	-0.920452	-0.458736
H182	H	1.264448	-0.791840	-0.360190
C183	C	1.239371	-0.257869	-1.090521
C184	C	1.317026	-0.274020	-1.070614
C185	C	1.367413	-0.226750	-1.111587
H186	H	1.228020	-0.208087	-1.077128
H187	H	1.232233	-0.264643	-1.145219
H188	H	1.324160	-0.267240	-1.015928
H189	H	1.328401	-0.323794	-1.084009
H190	H	1.360275	-0.233524	-1.166286
H191	H	1.356055	-0.176970	-1.098191
H192	H	1.420108	-0.237706	-1.098091
H193	H	1.225544	-0.270749	-0.677857
H194	H	1.043326	-0.442478	-1.079363
H195	H	1.043287	-0.442508	-0.930635
