data_functionalizedCrystal
_audit_creation_method	'MofGen! by Chris Wilmer'
_symmetry_space_group_name_H-M	'P1'
_symmetry_Int_Tables_number	1
_symmetry_cell_setting	triclinic
loop_
_symmetry_equiv_pos_as_xyz
  x,y,z
_cell_length_a	12.759400
_cell_length_b	12.759401
_cell_length_c	18.215399
_cell_angle_alpha	89.985910
_cell_angle_beta	89.973045
_cell_angle_gamma	90.014668
loop_
_atom_site_label
_atom_site_type_symbol
_atom_site_fract_x
_atom_site_fract_y
_atom_site_fract_z
Zn1	Zn	-0.418253	1.606204	-0.416080
Zn2	Zn	-0.593957	1.606113	-0.293021
Zn3	Zn	-0.418293	1.430521	-0.293033
Zn4	Zn	-0.593890	1.430494	-0.416051
O5	O	-0.506098	1.518333	-0.354546
O6	O	-0.441571	1.753213	-0.399762
O7	O	-0.570700	1.582794	-0.190038
O8	O	-0.271267	1.453875	-0.309372
O9	O	-0.570661	1.753146	-0.309351
O10	O	-0.271237	1.582948	-0.399774
O11	O	-0.441640	1.453787	-0.190047
O12	O	-0.441575	1.283496	-0.309345
O13	O	-0.570546	1.453829	-0.519039
O14	O	-0.570585	1.283477	-0.399726
O15	O	-0.441506	1.582922	-0.519060
O16	O	-0.740969	1.582768	-0.309324
O17	O	-0.740920	1.453742	-0.399714
C18	C	-0.506078	1.245366	-0.354534
C19	C	-0.506095	1.128589	-0.354546
C20	C	-0.439013	0.964032	-0.401702
C21	C	-0.438998	1.073756	-0.401696
C22	C	-0.573218	1.073692	-0.307406
C23	C	-0.573237	0.963970	-0.307417
C24	C	-0.371904	0.909204	-0.448850
C25	C	-0.304782	0.964093	-0.495991
C26	C	-0.304768	1.073817	-0.495985
C27	C	-0.371875	1.128652	-0.448836
C28	C	-0.779066	1.518271	-0.354531
C29	C	-0.895842	1.518340	-0.354549
C30	C	-0.950695	1.585599	-0.307535
C31	C	-1.060419	1.585663	-0.307557
C32	C	-1.060428	1.451201	-0.401610
C33	C	-0.950706	1.451143	-0.401591
C34	C	-0.895832	1.652796	-0.260493
C35	C	-0.950685	1.720059	-0.213474
C36	C	-1.060409	1.720124	-0.213497
C37	C	-1.115280	1.652925	-0.260538
C38	C	-0.232065	1.518424	-0.354578
C39	C	-0.115288	1.518463	-0.354591
C40	C	-0.506119	1.792366	-0.354559
C41	C	-0.506128	1.909143	-0.354564
C42	C	-0.506014	1.518383	-0.546499
C43	C	-0.505979	1.518404	-0.628298
C44	C	-0.438732	1.451287	-0.816498
C45	C	-0.438711	1.451305	-0.893356
C46	C	-0.573100	1.585647	-0.893336
C47	C	-0.573126	1.585622	-0.816479
C48	C	-0.505936	1.518444	-0.778062
C49	C	-0.505889	1.518486	-0.931778
C50	C	-0.505866	1.518507	-1.015111
C51	C	-0.505959	1.518422	-0.694723
C52	C	-0.506106	1.518344	-0.163340
C53	C	-0.505846	1.518526	-0.081541
H54	H	-0.250152	0.919439	-0.534382
C55	C	-0.364802	1.377420	-0.935636
H56	H	-0.374419	1.387040	-0.986913
H57	H	-0.294211	1.392799	-0.923060
H58	H	-0.380200	1.306823	-0.923028
H59	H	-0.371850	1.217997	-0.448830
C60	C	-0.646993	1.659546	-0.935598
H61	H	-0.637346	1.649952	-0.986876
H62	H	-0.717588	1.644151	-0.922992
H63	H	-0.631614	1.730140	-0.923003
H64	H	-0.384021	1.396585	-0.785220
C65	C	-0.647019	1.134008	-0.255542
H66	H	-0.637387	1.207216	-0.262281
H67	H	-0.717633	1.116031	-0.266225
H68	H	-0.631548	1.115999	-0.206113
C69	C	-0.647060	0.903589	-0.255564
H70	H	-0.687014	0.951955	-0.227476
H71	H	-0.692891	0.860797	-0.283667
H72	H	-0.606814	0.860772	-0.223549
C73	C	-0.775140	1.652731	-0.260468
H74	H	-0.750319	1.702388	-0.225723
H75	H	-0.750386	1.584929	-0.247702
H76	H	-0.750255	1.670857	-0.307967
C77	C	-0.647054	1.659495	-0.774193
H78	H	-0.637453	1.649848	-0.722918
H79	H	-0.631683	1.730096	-0.786789
H80	H	-0.717643	1.644091	-0.786777
C81	C	-0.230940	1.134193	-0.547838
H82	H	-0.190974	1.085821	-0.575913
H83	H	-0.271174	1.177009	-0.579854
H84	H	-0.185105	1.176983	-0.519731
C85	C	-0.371921	0.788512	-0.448862
H86	H	-0.322349	0.763718	-0.483695
H87	H	-0.353681	0.763667	-0.401394
H88	H	-0.439749	0.763693	-0.461518
C89	C	-0.890332	1.793968	-0.161731
H90	H	-0.817129	1.784290	-0.168444
H91	H	-0.908239	1.864562	-0.172541
H92	H	-0.908384	1.778631	-0.112278
H93	H	-1.105067	1.774900	-0.175217
C94	C	-0.890359	1.377161	-0.453303
H95	H	-0.817155	1.386760	-0.446558
H96	H	-0.908403	1.306588	-0.442497
H97	H	-0.908276	1.392512	-0.502765
C98	C	-1.235974	1.652997	-0.260568
H99	H	-1.260793	1.603347	-0.295318
H100	H	-1.260866	1.634889	-0.213072
H101	H	-1.260721	1.720804	-0.273347
C102	C	-1.120783	1.377282	-0.453345
H103	H	-1.193986	1.386943	-0.446617
H104	H	-1.102742	1.392600	-0.502798
H105	H	-1.102867	1.306688	-0.442522
