data_functionalizedCrystal
_audit_creation_method	'MofGen! by Chris Wilmer'
_symmetry_space_group_name_H-M	'P1'
_symmetry_Int_Tables_number	1
_symmetry_cell_setting	triclinic
loop_
_symmetry_equiv_pos_as_xyz
  x,y,z
_cell_length_a	19.077236
_cell_length_b	19.076808
_cell_length_c	19.076919
_cell_angle_alpha	89.878360
_cell_angle_beta	89.887323
_cell_angle_gamma	94.519737
loop_
_atom_site_label
_atom_site_type_symbol
_atom_site_fract_x
_atom_site_fract_y
_atom_site_fract_z
Zn1	Zn	1.048453	-0.255469	-0.429870
Zn2	Zn	1.048749	-0.368252	-0.307652
Zn3	Zn	0.935682	-0.255100	-0.307665
Zn4	Zn	0.926207	-0.377641	-0.419997
O5	O	0.989773	-0.314115	-0.366296
O6	O	1.146971	-0.266655	-0.417783
O7	O	1.037840	-0.349158	-0.209493
O8	O	0.954483	-0.156664	-0.328013
O9	O	1.147189	-0.349516	-0.327990
O10	O	1.037335	-0.156935	-0.417796
O11	O	0.954771	-0.266026	-0.209503
O12	O	0.835946	-0.275130	-0.318440
O13	O	0.938333	-0.365518	-0.519467
O14	O	0.828985	-0.365160	-0.400970
O15	O	1.028147	-0.275759	-0.526720
O16	O	1.028652	-0.467982	-0.318417
O17	O	0.938621	-0.474880	-0.400957
C18	C	0.806931	-0.321124	-0.358636
C19	C	0.728709	-0.324141	-0.355375
C20	C	0.691842	-0.282491	-0.400659
C21	C	0.618344	-0.285321	-0.397589
C22	C	0.581715	-0.329806	-0.349238
C23	C	0.618588	-0.371457	-0.303949
C24	C	0.692084	-0.368623	-0.307016
C25	C	0.361918	-0.342898	-0.335042
C26	C	0.288416	-0.345731	-0.331979
C27	C	0.288178	-0.259593	-0.425619
C28	C	0.361676	-0.256766	-0.428684
C29	C	0.398542	-0.298415	-0.383393
N30	N	0.506589	-0.332702	-0.346100
N31	N	0.473667	-0.295515	-0.386528
C32	C	0.982659	-0.496966	-0.358631
C33	C	0.979679	-0.575189	-0.355377
C34	C	1.021380	-0.612022	-0.400629
C35	C	1.018577	-0.685521	-0.397574
C36	C	0.974076	-0.722186	-0.349263
C37	C	0.932370	-0.685348	-0.304009
C38	C	0.935170	-0.611851	-0.307068
C39	C	0.961078	-0.941990	-0.335099
C40	C	0.958283	-1.015493	-0.332042
C41	C	1.044489	-1.015661	-0.425608
C42	C	1.047288	-0.942162	-0.428660
C43	C	1.005579	-0.905331	-0.383409
N44	N	0.971212	-0.797313	-0.346137
N45	N	1.008441	-0.830205	-0.386539
C46	C	1.173328	-0.307079	-0.373986
C47	C	1.251549	-0.304081	-0.377263
C48	C	0.982150	-0.321727	-0.549257
C49	C	0.978902	-0.324971	-0.627224
C50	C	0.996933	-0.130550	-0.374007
C51	C	0.999984	-0.052326	-0.377294
C52	C	1.024134	-0.279764	-0.667631
C53	C	1.021074	-0.282809	-0.740889
C54	C	0.972783	-0.331065	-0.773740
C55	C	0.927546	-0.376274	-0.733328
C56	C	0.930604	-0.373225	-0.660071
C57	C	0.958621	-0.345193	-0.992429
C58	C	0.955568	-0.348241	-1.065691
C59	C	1.049095	-0.254774	-1.073247
C60	C	1.052152	-0.251732	-0.999989
C61	C	1.006912	-0.296938	-0.959583
N62	N	0.969655	-0.334181	-0.848621
N63	N	1.010037	-0.293819	-0.884703
C64	C	0.997408	-0.306481	-0.184050
C65	C	1.000801	-0.303034	-0.106097
H66	H	0.722100	-0.402538	-0.270141
C67	C	0.889300	-0.571334	-0.257290
H68	H	0.862399	-0.603695	-0.228076
H69	H	0.858590	-0.544974	-0.284007
H70	H	0.918613	-0.540345	-0.229069
C71	C	1.070323	-0.571698	-0.453780
H72	H	1.094749	-0.604164	-0.480300
H73	H	1.103220	-0.540711	-0.429463
H74	H	1.043184	-0.545351	-0.484385
C75	C	0.248122	-0.394661	-0.278788
H76	H	0.199070	-0.390388	-0.283455
H77	H	0.262520	-0.381861	-0.232612
H78	H	0.257909	-0.441926	-0.287496
C79	C	0.883422	-0.725677	-0.250866
H80	H	0.887732	-0.774724	-0.255518
H81	H	0.836160	-0.715913	-0.259609
H82	H	0.896188	-0.711279	-0.204677
C83	C	0.578301	-0.420391	-0.250763
H84	H	0.610786	-0.444786	-0.224229
H85	H	0.547329	-0.453317	-0.275063
H86	H	0.551942	-0.393255	-0.220175
C87	C	1.105265	-0.198647	-0.963855
H88	H	1.100611	-0.203309	-0.914439
H89	H	1.096309	-0.152256	-0.977416
H90	H	1.151649	-0.207637	-0.977411
C91	C	1.096251	-0.901835	-0.481792
H92	H	1.120686	-0.934299	-0.508305
H93	H	1.129140	-0.870859	-0.457450
H94	H	1.069133	-0.875475	-0.512405
C95	C	0.247627	-0.213780	-0.475433
H96	H	0.279969	-0.186885	-0.504672
H97	H	0.221257	-0.183065	-0.448744
H98	H	0.216647	-0.243130	-0.503630
H99	H	1.085926	-0.217969	-1.106153
H100	H	1.078445	-1.045657	-0.462450
C101	C	0.577793	-0.239507	-0.447403
H102	H	0.610134	-0.212615	-0.476644
H103	H	0.551426	-0.208790	-0.420713
H104	H	0.546810	-0.268856	-0.475596
C105	C	0.902444	-0.401323	-1.101825
H106	H	0.875935	-0.427806	-1.067270
H107	H	0.926976	-0.432146	-1.130242
H108	H	0.871641	-0.376759	-1.130249
H109	H	0.391925	-0.376812	-0.298163
C110	C	1.077251	-0.226678	-0.631502
H111	H	1.103746	-0.200186	-0.666061
H112	H	1.108058	-0.251230	-0.603078
H113	H	1.052712	-0.195855	-0.603086
C114	C	1.070833	-0.233085	-0.785333
H115	H	1.100037	-0.203915	-0.755277
H116	H	1.043920	-0.204638	-0.814070
H117	H	1.099253	-0.260027	-0.814065
H118	H	0.921793	-0.382013	-0.959539
C119	C	0.401963	-0.207826	-0.481864
H120	H	0.369480	-0.183420	-0.508390
H121	H	0.428325	-0.234955	-0.512451
H122	H	0.432933	-0.174899	-0.457556
H123	H	0.893763	-0.410031	-0.627173
H124	H	1.052540	-0.715507	-0.434417
H125	H	0.927118	-0.912008	-0.298252
C126	C	0.732128	-0.233557	-0.453846
H127	H	0.699642	-0.209153	-0.480370
H128	H	0.758487	-0.260687	-0.484432
H129	H	0.763099	-0.200628	-0.429541
H130	H	0.922042	-1.045343	-0.292700
H131	H	0.888224	-0.415563	-0.760080
