data_functionalizedCrystal
_audit_creation_method	'MofGen! by Chris Wilmer'
_symmetry_space_group_name_H-M	'P1'
_symmetry_Int_Tables_number	1
_symmetry_cell_setting	triclinic
loop_
_symmetry_equiv_pos_as_xyz
  x,y,z
_cell_length_a	15.995300
_cell_length_b	15.995350
_cell_length_c	14.048226
_cell_angle_alpha	90.004843
_cell_angle_beta	90.002924
_cell_angle_gamma	83.482091
loop_
_atom_site_label
_atom_site_type_symbol
_atom_site_fract_x
_atom_site_fract_y
_atom_site_fract_z
O1	O	1.111008	0.107729	0.079191
O2	O	1.611008	0.607729	0.579191
O3	O	0.867227	0.121101	0.079184
O4	O	1.367227	0.621101	0.579184
O5	O	0.995781	-0.007474	0.079187
O6	O	1.495781	0.492526	0.579187
O7	O	0.982453	0.236304	0.079188
O8	O	1.482453	0.736304	0.579188
O9	O	0.995778	-0.007484	-0.079134
O10	O	1.495778	0.492516	0.420866
O11	O	0.867224	0.121090	-0.079137
O12	O	1.367224	0.621090	0.420863
O13	O	1.111005	0.107719	-0.079131
O14	O	1.611005	0.607719	0.420869
Zn15	Zn	0.989114	0.114403	-0.104271
Zn16	Zn	1.489114	0.614403	0.395729
Zn17	Zn	0.989118	0.114417	0.104324
Zn18	Zn	1.489118	0.614417	0.604324
O19	O	0.982450	0.236293	-0.079133
O20	O	1.482450	0.736293	0.420867
C21	C	0.836030	0.120550	0.000023
C22	C	1.336030	0.620550	0.500023
C23	C	0.743077	0.118915	0.000021
C24	C	1.243077	0.618915	0.500021
C25	C	0.995229	-0.038674	0.000028
C26	C	1.495229	0.461326	0.500028
C27	C	0.993577	-0.131624	0.000033
C28	C	1.493577	0.368376	0.500033
C29	C	0.572894	0.115896	0.000028
C30	C	1.072894	0.615896	0.500028
C31	C	0.525428	0.207443	0.000026
C32	C	1.025428	0.707443	0.500026
C33	C	0.428740	0.205773	0.000388
C34	C	0.928740	0.705773	0.500388
C35	C	0.405337	0.112924	0.000034
C36	C	0.905337	0.612924	0.500034
C37	C	0.446472	0.067510	0.090265
C38	C	0.946472	0.567510	0.590265
C39	C	0.543105	0.069826	0.090338
C40	C	1.043105	0.569826	0.590338
C41	C	0.543381	0.068459	-0.089709
C42	C	1.043381	0.568459	0.410291
C43	C	0.446437	0.068467	-0.090893
C44	C	0.946437	0.568467	0.409107
C45	C	0.310642	0.111239	0.000041
C46	C	0.810642	0.611239	0.500041
C47	C	0.667590	0.117577	0.000028
C48	C	1.167590	0.617577	0.500028
C49	C	0.987644	-0.469370	0.000030
C50	C	1.487644	0.030630	0.500030
C51	C	0.896090	-0.421920	0.000383
C52	C	1.396090	0.078080	0.500383
C53	C	0.897743	-0.325230	0.000026
C54	C	1.397743	0.174770	0.500026
C55	C	0.990587	-0.301810	0.000032
C56	C	1.490587	0.198190	0.500032
C57	C	1.035743	-0.342902	-0.090374
C58	C	1.535743	0.157098	0.409626
C59	C	1.033443	-0.439537	-0.090450
C60	C	1.533443	0.060463	0.409550
C61	C	1.035338	-0.439884	0.089591
C62	C	1.535338	0.060116	0.589591
C63	C	1.035316	-0.342938	0.090786
C64	C	1.535316	0.157062	0.590786
C65	C	0.992255	-0.207113	0.000030
C66	C	1.492255	0.292887	0.500030
C67	C	0.985979	-0.564068	0.000025
C68	C	1.485979	-0.064068	0.500025
C69	C	1.142202	0.108269	0.000033
C70	C	1.642202	0.608269	0.500033
C71	C	1.235154	0.109904	0.000041
C72	C	1.735154	0.609904	0.500041
C73	C	0.983003	0.267493	0.000028
C74	C	1.483003	0.767493	0.500028
C75	C	0.984655	0.360443	0.000029
C76	C	1.484655	0.860443	0.500029
N77	N	0.989120	0.114420	0.246685
N78	N	1.489120	0.614420	0.746685
N79	N	0.989118	0.114393	-0.246631
N80	N	1.489118	0.614393	0.253369
C81	C	1.046150	0.057599	0.296504
C82	C	1.546150	0.557599	0.796504
C83	C	1.046154	0.057596	0.396162
C84	C	1.546154	0.557596	0.896162
C85	C	0.989123	0.114411	0.445999
C86	C	1.489123	0.614411	0.945999
C87	C	0.932090	0.171238	0.396172
C88	C	1.432090	0.671238	0.896172
C89	C	0.932091	0.171244	0.296517
C90	C	1.432091	0.671244	0.796517
C91	C	0.932090	0.171220	0.603887
C92	C	1.432090	0.671220	1.103887
C93	C	0.932088	0.171214	0.703549
C94	C	1.432088	0.671214	1.203549
C95	C	1.046153	0.057572	0.703532
C96	C	1.546153	0.557572	1.203532
C97	C	1.046154	0.057578	0.603876
C98	C	1.546154	0.557578	1.103876
C99	C	0.989120	0.114405	0.554057
C100	C	1.489120	0.614405	1.054057
H101	H	0.543918	0.244230	-0.064668
H102	H	1.043918	0.744230	0.435332
H103	H	1.092588	0.011330	0.255934
H104	H	1.592588	0.511330	0.755934
N105	N	0.850175	-0.445171	0.081698
N106	N	1.350175	0.054829	0.581698
N107	N	0.783889	-0.478630	0.070888
N108	N	1.283889	0.021370	0.570888
H109	H	0.751460	-0.495059	0.128319
H110	H	1.251460	0.004941	0.628319
H111	H	1.092592	0.011303	0.744101
H112	H	1.592592	0.511303	1.244101
N113	N	1.120246	-0.323663	0.097644
N114	N	1.620246	0.176337	0.597644
N115	N	1.149323	-0.279105	0.035474
N116	N	1.649323	0.220895	0.535474
H117	H	1.209307	-0.265488	0.040314
H118	H	1.709307	0.234512	0.540314
N119	N	0.873823	0.229275	0.447061
N120	N	1.373823	0.729275	0.947061
N121	N	0.822907	0.280004	0.402565
N122	N	1.322907	0.780004	0.902565
H123	H	0.781753	0.320994	0.438502
H124	H	1.281753	0.820994	0.938502
N125	N	0.873819	0.229251	0.552994
N126	N	1.373819	0.729251	1.052994
N127	N	0.821913	0.202553	0.497380
N128	N	1.321913	0.702553	0.997380
H129	H	0.780756	0.243532	0.461435
H130	H	1.280756	0.743532	0.961435
H131	H	0.561425	0.102565	0.158043
H132	H	1.061425	0.602565	0.658043
N133	N	0.583267	-0.016208	-0.090802
N134	N	1.083267	0.483792	0.409198
N135	N	0.661715	-0.030130	-0.093799
N136	N	1.161715	0.469870	0.406201
H137	H	0.689889	-0.089923	-0.094564
H138	H	1.189889	0.410077	0.405436
N139	N	0.853209	-0.289568	0.081326
N140	N	1.353209	0.210432	0.581326
N141	N	0.820687	-0.336083	0.138726
N142	N	1.320687	0.163917	0.638726
H143	H	0.789229	-0.310900	0.196145
H144	H	1.289229	0.189100	0.696145
N145	N	0.427206	-0.016457	-0.098085
N146	N	0.927206	0.483543	0.401915
N147	N	0.454912	-0.061401	-0.166423
N148	N	0.954912	0.438599	0.333577
H149	H	0.441330	-0.121382	-0.171500
H150	H	0.941330	0.378618	0.328500
N151	N	0.583585	-0.014508	0.095155
N152	N	1.083585	0.485492	0.595155
N153	N	0.540440	-0.074886	0.098459
N154	N	1.040440	0.425114	0.598459
H155	H	0.569025	-0.134446	0.101863
H156	H	1.069025	0.365554	0.601863
H157	H	0.432372	-0.000714	0.093366
H158	H	0.932372	0.499286	0.593366
H159	H	0.859658	-0.441512	-0.064090
H160	H	1.359658	0.058488	0.435910
H161	H	0.400276	0.241458	-0.064278
H162	H	0.900276	0.741458	0.435722
H163	H	1.102840	-0.471657	0.090203
H164	H	1.602840	0.028343	0.590203
H165	H	0.885648	0.217479	0.744121
H166	H	1.385648	0.717479	1.244121
N167	N	0.873832	0.229293	0.245639
N168	N	1.373832	0.729293	0.745639
N169	N	0.822914	0.280016	0.290144
N170	N	1.322914	0.780016	0.790144
H171	H	0.781767	0.321016	0.254214
H172	H	1.281767	0.821016	0.754214
N173	N	1.104406	-0.000386	0.447132
N174	N	1.604406	0.499614	0.947132
N175	N	1.156266	0.026385	0.502749
N176	N	1.656266	0.526385	1.002749
H177	H	1.197410	-0.014546	0.538773
H178	H	1.697410	0.485454	1.038773
H179	H	0.862006	-0.297363	-0.064893
H180	H	1.362006	0.202637	0.435107
N181	N	1.104407	-0.000468	0.552982
N182	N	1.604407	0.499532	1.052982
N183	N	1.155324	-0.051201	0.597472
N184	N	1.655324	0.448799	1.097472
H185	H	1.196468	-0.092198	0.561528
H186	H	1.696468	0.407802	1.061528
H187	H	0.545038	0.243690	0.064635
H188	H	1.045038	0.743690	0.564635
N189	N	0.393809	0.250385	0.081988
N190	N	0.893809	0.750385	0.581988
N191	N	0.440849	0.282845	0.138853
N192	N	0.940849	0.782845	0.638853
H193	H	0.416180	0.314361	0.196482
H194	H	0.916180	0.814361	0.696482
H195	H	0.418087	0.098653	0.157668
H196	H	0.918087	0.598653	0.657668
N197	N	0.996410	-0.307310	-0.174792
N198	N	1.496410	0.192690	0.325208
N199	N	1.038093	-0.270188	-0.233289
N200	N	1.538093	0.229812	0.266711
H201	H	1.010311	-0.245052	-0.292908
H202	H	1.510311	0.254948	0.207092
H203	H	0.563880	0.098594	-0.158121
H204	H	1.063880	0.598594	0.341879
H205	H	0.419096	0.101631	-0.157647
H206	H	0.919096	0.601631	0.342353
H207	H	1.000513	-0.457837	-0.158035
H208	H	1.500513	0.042163	0.341965
N209	N	0.993977	-0.308640	0.174685
N210	N	1.493977	0.191360	0.674685
N211	N	1.033829	-0.270958	0.234483
N212	N	1.533829	0.229042	0.734483
H213	H	1.004635	-0.246719	0.293734
H214	H	1.504635	0.253281	0.793734
H215	H	1.103954	-0.328789	-0.093732
H216	H	1.603954	0.171211	0.406268
N217	N	1.117768	-0.480001	-0.095603
N218	N	1.617768	0.019999	0.404397
N219	N	1.178127	-0.436844	-0.099139
N220	N	1.678127	0.063156	0.400861
H221	H	1.237680	-0.465417	-0.102785
H222	H	1.737680	0.034583	0.397215
H223	H	1.005405	-0.460413	0.158114
H224	H	1.505405	0.039587	0.658114
