data_functionalizedCrystal
_audit_creation_method	'MofGen! by Chris Wilmer'
_symmetry_space_group_name_H-M	'P1'
_symmetry_Int_Tables_number	1
_symmetry_cell_setting	triclinic
loop_
_symmetry_equiv_pos_as_xyz
  x,y,z
_cell_length_a	18.050591
_cell_length_b	14.908520
_cell_length_c	18.050583
_cell_angle_alpha	86.735202
_cell_angle_beta	89.975765
_cell_angle_gamma	86.682923
loop_
_atom_site_label
_atom_site_type_symbol
_atom_site_fract_x
_atom_site_fract_y
_atom_site_fract_z
Zn1	Zn	1.118282	0.359222	-0.437089
Zn2	Zn	1.618282	0.859222	0.062911
Zn3	Zn	1.111031	0.510102	-0.320063
Zn4	Zn	1.611031	1.010102	0.179937
Zn5	Zn	0.994093	0.359252	-0.312901
Zn6	Zn	1.494093	0.859252	0.187099
Zn7	Zn	0.986898	0.510028	-0.444195
Zn8	Zn	1.486898	1.010028	0.055805
O9	O	1.052576	0.434651	-0.378562
O10	O	1.552576	0.934651	0.121438
O11	O	1.221244	0.379255	-0.421588
O12	O	1.721244	0.879255	0.078412
O13	O	1.095495	0.490134	-0.215190
O14	O	1.595495	0.990134	0.284810
O15	O	1.016612	0.233004	-0.323404
O16	O	1.516612	0.733004	0.176596
O17	O	1.215916	0.490105	-0.335610
O18	O	1.715916	0.990105	0.164390
O19	O	1.107854	0.232982	-0.414644
O20	O	1.607854	0.732982	0.085356
O21	O	1.009581	0.379305	-0.209928
O22	O	1.509581	0.879305	0.290072
O23	O	0.889215	0.379234	-0.330294
O24	O	1.389215	0.879234	0.169706
O25	O	1.004350	0.489980	-0.547175
O26	O	1.504350	0.989980	-0.047175
O27	O	0.883928	0.490009	-0.426755
O28	O	1.383928	0.990009	0.073245
O29	O	1.100877	0.379183	-0.541954
O30	O	1.600877	0.879183	-0.041954
O31	O	1.088518	0.636336	-0.342500
O32	O	1.588518	1.136336	0.157500
O33	O	0.997318	0.636282	-0.433700
O34	O	1.497318	1.136282	0.066300
C35	C	1.041371	0.669042	-0.389665
C36	C	1.541371	1.169042	0.110335
C37	C	1.036645	0.769316	-0.394439
C38	C	1.536645	1.269316	0.105561
C39	C	0.859625	0.434617	-0.378519
C40	C	1.359625	0.934617	0.121481
C41	C	0.777079	0.434625	-0.378520
C42	C	1.277079	0.934625	0.121480
C43	C	1.052620	0.434570	-0.572264
C44	C	1.552620	0.934570	-0.072264
C45	C	1.052639	0.434536	-0.654808
C46	C	1.552639	0.934536	-0.154808
C47	C	0.580485	0.374315	-0.326175
C48	C	1.080485	0.874315	0.173825
C49	C	0.527162	0.456602	-0.311806
C50	C	1.027162	0.956602	0.188194
C51	C	0.625947	0.434652	-0.378554
C52	C	1.125947	0.934652	0.121446
C53	C	0.532187	0.352393	-0.392923
C54	C	1.032187	0.852393	0.107077
C55	C	0.479961	0.434671	-0.378586
C56	C	0.979961	0.934671	0.121414
C57	C	0.573710	0.516982	-0.364152
C58	C	1.073710	1.016982	0.135848
C59	C	0.578742	0.412718	-0.445298
C60	C	1.078742	0.912718	0.054702
C61	C	0.525439	0.495062	-0.430957
C62	C	1.025439	0.995062	0.069043
C63	C	0.710046	0.434640	-0.378534
C64	C	1.210046	0.934640	0.121466
C65	C	0.395864	0.434693	-0.378607
C66	C	0.895864	0.934693	0.121393
C67	C	1.246280	0.434685	-0.378605
C68	C	1.746280	0.934685	0.121395
C69	C	1.328825	0.434700	-0.378624
C70	C	1.828825	0.934700	0.121376
C71	C	1.063845	0.199344	-0.367432
C72	C	1.563845	0.699344	0.132568
C73	C	1.068647	0.099070	-0.362689
C74	C	1.568647	0.599070	0.137311
C75	C	1.122830	0.957736	-0.308522
C76	C	1.622830	1.457736	0.191478
C77	C	1.118392	1.051952	-0.313006
C78	C	1.618392	1.551952	0.186994
C79	C	1.023337	1.051966	-0.407894
C80	C	1.523337	1.551966	0.092106
C81	C	1.027775	0.957750	-0.403410
C82	C	1.527775	1.457750	0.096590
C83	C	1.077522	0.910638	-0.353722
C84	C	1.577522	1.410638	0.146278
C85	C	1.081955	0.816420	-0.349235
C86	C	1.581955	1.316420	0.150765
C87	C	0.986904	0.816436	-0.444126
C88	C	1.486904	1.316436	0.055874
C89	C	0.982467	0.910652	-0.448610
C90	C	1.482467	1.410652	0.051390
C91	C	1.105180	0.374224	-0.900792
C92	C	1.605180	0.874224	-0.400792
C93	C	1.119398	0.456542	-0.855288
C94	C	1.619398	0.956542	-0.355288
C95	C	1.052689	0.434478	-0.951926
C96	C	1.552689	0.934478	-0.451926
C97	C	1.038481	0.352194	-0.850349
C98	C	1.538481	0.852194	-0.350349
C99	C	1.052666	0.434502	-0.805942
C100	C	1.552666	0.934502	-0.305942
C101	C	1.066941	0.516840	-0.907512
C102	C	1.566941	1.016840	-0.407512
C103	C	0.985995	0.412436	-0.902574
C104	C	1.485995	0.912436	-0.402574
C105	C	1.000185	0.494811	-0.857096
C106	C	1.500185	0.994811	-0.357096
C107	C	1.052704	0.434463	-1.036023
C108	C	1.552704	0.934463	-0.536023
C109	C	1.052651	0.434526	-0.721846
C110	C	1.552651	0.934526	-0.221846
C111	C	1.052578	0.434666	-0.185610
C112	C	1.552578	0.934666	0.314390
C113	C	1.052715	0.434446	-0.103055
C114	C	1.552715	0.934446	0.396945
H115	H	0.604557	0.323346	-0.281837
H116	H	1.104557	0.823346	0.218163
H117	H	1.122460	0.778063	-0.308774
H118	H	1.622460	1.278063	0.191226
H119	H	1.163331	0.919377	-0.268059
H120	H	1.663331	1.419377	0.231941
Br121	Br	1.087065	0.632874	-0.948992
Br122	Br	1.587065	1.132874	-0.448992
H123	H	0.504540	0.475169	-0.255377
H124	H	1.004540	0.975169	0.244623
Br125	Br	1.179888	1.115869	-0.251665
Br126	Br	1.679888	1.615869	0.248335
H127	H	0.955783	0.545835	-0.837956
H128	H	1.455783	1.045835	-0.337956
Br129	Br	1.018466	0.236197	-0.808708
Br130	Br	1.518466	0.736197	-0.308708
Br131	Br	0.501562	0.236438	-0.413154
Br132	Br	1.001562	0.736438	0.086846
Br133	Br	1.213386	0.487648	-0.820613
Br134	Br	1.713386	0.987648	-0.320613
H135	H	0.591987	0.586576	-0.351950
H136	H	1.091987	1.086576	0.148050
Br137	Br	0.485531	0.580212	-0.504816
Br138	Br	0.985531	1.080212	-0.004816
Br139	Br	0.914960	0.974597	-0.516044
Br140	Br	1.414960	1.474597	-0.016044
H141	H	0.929621	0.393751	-0.923395
H142	H	1.429621	0.893751	-0.423395
Br143	Br	0.955841	1.115918	-0.475335
Br144	Br	1.455841	1.615918	0.024665
H145	H	1.149608	0.323322	-0.920073
H146	H	1.649608	0.823322	-0.420073
Br147	Br	0.616476	0.381734	-0.539324
Br148	Br	1.116476	0.881734	-0.039324
H149	H	0.950009	0.778078	-0.480928
H150	H	1.450009	1.278078	0.019072
