data_functionalizedCrystal
_audit_creation_method	'MofGen! by Chris Wilmer'
_symmetry_space_group_name_H-M	'P1'
_symmetry_Int_Tables_number	1
_symmetry_cell_setting	triclinic
loop_
_symmetry_equiv_pos_as_xyz
  x,y,z
_cell_length_a	10.654550
_cell_length_b	10.654550
_cell_length_c	9.730223
_cell_angle_alpha	90.000043
_cell_angle_beta	90.004253
_cell_angle_gamma	84.484931
loop_
_atom_site_label
_atom_site_type_symbol
_atom_site_fract_x
_atom_site_fract_y
_atom_site_fract_z
O1	O	-0.176399	-1.667839	-0.114187
O2	O	0.323601	-1.167839	0.385813
O3	O	-0.193205	-1.302361	-0.114212
O4	O	0.306795	-0.802361	0.385788
O5	O	-0.002062	-1.493503	-0.114190
O6	O	0.497938	-0.993503	0.385810
O7	O	-0.367541	-1.476697	-0.114209
O8	O	0.132459	-0.976697	0.385791
O9	O	-0.002057	-1.493490	0.114390
O10	O	0.497943	-0.993490	0.614390
O11	O	-0.193199	-1.302348	0.114368
O12	O	0.306801	-0.802348	0.614368
O13	O	-0.176393	-1.667827	0.114393
O14	O	0.323607	-1.167827	0.614393
Zn15	Zn	-0.184796	-1.485085	0.150672
Zn16	Zn	0.315204	-0.985085	0.650672
Zn17	Zn	-0.184802	-1.485102	-0.150492
Zn18	Zn	0.315198	-0.985102	0.349508
O19	O	-0.367536	-1.476684	0.114371
O20	O	0.132464	-0.976684	0.614371
C21	C	-0.191968	-1.255556	0.000075
C22	C	0.308032	-0.755556	0.500075
C23	C	-0.188276	-1.116113	0.000065
C24	C	0.311724	-0.616113	0.500065
C25	C	0.044738	-1.492263	0.000099
C26	C	0.544738	-0.992263	0.500099
C27	C	0.184181	-1.488571	0.000096
C28	C	0.684181	-0.988571	0.500096
C29	C	-0.414336	-1.477925	0.000079
C30	C	0.085664	-0.977925	0.500079
C31	C	-0.553779	-1.481617	0.000072
C32	C	-0.053779	-0.981617	0.500072
C33	C	-0.177630	-1.714631	0.000103
C34	C	0.322370	-1.214631	0.500103
C35	C	-0.181322	-1.854074	0.000104
C36	C	0.318678	-1.354074	0.500104
C37	C	0.263667	-1.601112	0.000104
C38	C	0.763667	-1.101112	0.500104
C39	C	0.394688	-1.597636	0.000087
C40	C	0.894688	-1.097636	0.500087
C41	C	0.366725	-1.369066	0.000061
C42	C	0.866725	-0.869066	0.500061
C43	C	0.235706	-1.372544	0.000068
C44	C	0.735706	-0.872544	0.500068
N45	N	-0.184790	-1.485083	0.356209
N46	N	0.315210	-0.985083	0.856209
C47	C	-0.300818	-1.036628	0.000064
C48	C	0.199182	-0.536628	0.500064
C49	C	-0.297341	-0.905607	0.000088
C50	C	0.202659	-0.405607	0.500088
C51	C	-0.068772	-0.933570	0.000109
C52	C	0.431228	-0.433570	0.500109
C53	C	-0.072250	-1.064588	0.000095
C54	C	0.427750	-0.564588	0.500095
N55	N	-0.184798	-1.485114	-0.356028
N56	N	0.315202	-0.985114	0.143972
C57	C	-0.100188	-1.569750	0.428144
C58	C	0.399812	-1.069750	0.928144
C59	C	-0.100189	-1.569763	0.572027
C60	C	0.399811	-1.069763	1.072027
C61	C	-0.269404	-1.400438	0.572026
C62	C	0.230596	-0.900438	1.072026
C63	C	-0.269396	-1.400420	0.428146
C64	C	0.230604	-0.900420	0.928146
H65	H	0.221720	-1.695588	0.000124
H66	H	0.721720	-1.195588	0.500124
H67	H	-0.031295	-1.638687	0.369576
H68	H	0.468705	-1.138687	0.869576
H69	H	-0.338290	-1.331508	0.630612
H70	H	0.161710	-0.831508	1.130612
H71	H	0.408693	-1.274601	0.000041
H72	H	0.908693	-0.774601	0.500041
H73	H	-0.031297	-1.638705	0.630593
H74	H	0.468703	-1.138705	1.130593
F75	F	0.151106	-1.252755	0.000050
F76	F	0.651106	-0.752755	0.500050
F77	F	-0.359440	-1.310297	0.351581
F78	F	0.140560	-0.810297	0.851581
H79	H	-0.395294	-1.078574	0.000049
H80	H	0.104706	-0.578574	0.500049
F81	F	0.479278	-1.717418	0.000092
F82	F	0.979278	-1.217418	0.500092
H83	H	-0.388984	-0.840894	0.000089
H84	H	0.111016	-0.340894	0.500089
F85	F	0.054705	-0.878722	0.000135
F86	F	0.554705	-0.378722	0.500135
F87	F	0.047539	-1.149188	0.000106
F88	F	0.547539	-0.649188	0.500106
