data_functionalizedCrystal
_audit_creation_method	'MofGen! by Chris Wilmer'
_symmetry_space_group_name_H-M	'P1'
_symmetry_Int_Tables_number	1
_symmetry_cell_setting	triclinic
loop_
_symmetry_equiv_pos_as_xyz
  x,y,z
_cell_length_a	11.792241
_cell_length_b	12.811457
_cell_length_c	10.268362
_cell_angle_alpha	95.427370
_cell_angle_beta	89.994572
_cell_angle_gamma	84.118185
loop_
_atom_site_label
_atom_site_type_symbol
_atom_site_fract_x
_atom_site_fract_y
_atom_site_fract_z
O1	O	0.152863	1.393528	0.056286
O2	O	0.652863	1.893528	0.556286
O3	O	0.169489	1.088042	0.020203
O4	O	0.669489	1.588042	0.520203
O5	O	-0.004009	1.248198	0.039129
O6	O	0.495991	1.748198	0.539129
O7	O	0.326361	1.233372	0.037360
O8	O	0.826361	1.733372	0.537360
O9	O	-0.004016	1.248184	0.255728
O10	O	0.495984	1.748184	0.755728
O11	O	0.169482	1.088028	0.236802
O12	O	0.669482	1.588028	0.736802
O13	O	0.152856	1.393514	0.272885
O14	O	0.652856	1.893514	0.772885
Cu15	Cu	0.161168	1.240770	0.274621
Cu16	Cu	0.661168	1.740770	0.774621
Cu17	Cu	0.161177	1.240786	0.018467
Cu18	Cu	0.661177	1.740786	0.518467
O19	O	0.326354	1.233358	0.253959
O20	O	0.826354	1.733358	0.753959
C21	C	0.168554	1.048926	0.123883
C22	C	0.668554	1.548926	0.623883
C23	C	0.165766	0.932394	0.110119
C24	C	0.665766	1.432394	0.610119
C25	C	0.160497	0.713403	0.320417
C26	C	0.660497	1.213403	0.820417
C27	C	0.157877	0.603910	0.307491
C28	C	0.657877	1.103910	0.807491
C29	C	0.157897	0.603915	0.071342
C30	C	0.657897	1.103915	0.571342
C31	C	0.160517	0.713408	0.084268
C32	C	0.660517	1.213408	0.584268
C33	C	0.161819	0.768147	0.208810
C34	C	0.661819	1.268147	0.708810
C35	C	0.164448	0.877641	0.221735
C36	C	0.664448	1.377641	0.721735
C37	C	0.164459	0.877645	-0.014414
C38	C	0.664459	1.377645	0.485586
C39	C	0.161839	0.768153	-0.027340
C40	C	0.661839	1.268153	0.472660
C41	C	-0.046302	1.247260	0.147318
C42	C	0.453698	1.747260	0.647318
C43	C	-0.172310	1.244472	0.146988
C44	C	0.327690	1.744472	0.646988
C45	C	-0.403012	1.239347	0.146360
C46	C	0.096988	1.739347	0.646360
C47	C	-0.274633	1.242195	0.146709
C48	C	0.225367	1.742195	0.646709
C49	C	0.368646	1.234296	0.145767
C50	C	0.868646	1.734296	0.645767
C51	C	0.494655	1.237084	0.146089
C52	C	0.994655	1.737084	0.646089
C53	C	0.153791	1.432630	0.169202
C54	C	0.653791	1.932630	0.669202
C55	C	0.156579	1.549162	0.182958
C56	C	0.656579	2.049162	0.682958
N57	N	0.161161	1.240766	0.454786
N58	N	0.661161	1.740766	0.954786
N59	N	0.161174	1.240799	-0.161697
N60	N	0.661174	1.740799	0.338303
C61	C	0.161174	1.240781	0.720458
C62	C	0.661174	1.740781	1.220458
C63	C	0.161171	1.240769	0.572619
C64	C	0.661171	1.740769	1.072619
H65	H	0.156818	0.559330	-0.030054
H66	H	0.656818	1.059330	0.469946
H67	H	0.160774	0.723569	-0.128738
H68	H	0.660774	1.223569	0.371262
O69	O	0.165910	0.930841	0.342678
O70	O	0.665910	1.430841	0.842678
C71	C	0.265591	0.982870	0.355884
C72	C	0.765591	1.482870	0.855884
H73	H	0.333435	0.941960	0.284056
H74	H	0.833435	1.441960	0.784056
H75	H	0.298560	0.980306	0.460014
H76	H	0.798560	1.480306	0.960014
H77	H	0.245384	1.068415	0.334263
H78	H	0.745384	1.568415	0.834263
O79	O	0.156447	0.550864	0.416006
O80	O	0.656447	1.050864	0.916006
C81	C	0.058885	0.588930	0.492313
C82	C	0.558885	1.088930	0.992313
H83	H	0.028057	0.672205	0.468567
H84	H	0.528057	1.172205	0.968567
H85	H	0.081046	0.590129	0.600470
H86	H	0.581046	1.090129	1.100470
H87	H	-0.011338	0.535237	0.469607
H88	H	0.488662	1.035237	0.969607
H89	H	0.165543	0.922229	-0.105293
H90	H	0.665543	1.422229	0.394707
O91	O	0.161619	0.766716	0.441321
O92	O	0.661619	1.266716	0.941321
C93	C	0.064939	0.841361	0.457218
C94	C	0.564939	1.341361	0.957218
H95	H	0.032599	0.861540	0.357088
H96	H	0.532599	1.361540	0.857088
H97	H	0.088863	0.915809	0.515972
H98	H	0.588863	1.415809	1.015972
H99	H	-0.004821	0.807096	0.511450
H100	H	0.495179	1.307096	1.011450
