data_functionalizedCrystal
_audit_creation_method	'MofGen! by Chris Wilmer'
_symmetry_space_group_name_H-M	'P1'
_symmetry_Int_Tables_number	1
_symmetry_cell_setting	triclinic
loop_
_symmetry_equiv_pos_as_xyz
  x,y,z
_cell_length_a	23.532407
_cell_length_b	7.088929
_cell_length_c	23.532407
_cell_angle_alpha	83.810936
_cell_angle_beta	82.848678
_cell_angle_gamma	96.169690
loop_
_atom_site_label
_atom_site_type_symbol
_atom_site_fract_x
_atom_site_fract_y
_atom_site_fract_z
O1	O	0.749388	-0.158773	0.075014
O2	O	1.082721	0.174561	0.408348
O3	O	1.416055	0.507894	0.741681
O4	O	0.583522	-0.158831	0.085020
O5	O	0.916856	0.174502	0.418353
O6	O	1.250189	0.507835	0.751686
O7	O	0.671458	-0.158765	-0.002916
O8	O	1.004791	0.174568	0.330417
O9	O	1.338125	0.507901	0.663751
O10	O	0.661452	-0.158839	0.162950
O11	O	0.994785	0.174495	0.496283
O12	O	1.328119	0.507828	0.829617
O13	O	0.683210	0.159219	-0.014694
O14	O	1.016543	0.492552	0.318639
O15	O	1.349877	0.825886	0.651973
O16	O	0.595274	0.159153	0.073242
O17	O	0.928608	0.492486	0.406575
O18	O	1.261941	0.825819	0.739908
O19	O	0.761140	0.159211	0.063236
O20	O	1.094473	0.492545	0.396570
O21	O	1.427806	0.825878	0.729903
Cu22	Cu	0.679280	0.188217	0.067164
Cu23	Cu	1.012613	0.521550	0.400497
Cu24	Cu	1.345947	0.854883	0.733830
Cu25	Cu	0.665382	-0.187836	0.081093
Cu26	Cu	0.998715	0.145497	0.414426
Cu27	Cu	1.332049	0.478830	0.747759
O28	O	0.673204	0.159145	0.151172
O29	O	1.006537	0.492479	0.484505
O30	O	1.339871	0.825812	0.817839
C31	C	0.568182	0.000154	0.078876
C32	C	0.901515	0.333487	0.412210
C33	C	1.234849	0.666820	0.745543
C34	C	0.504964	0.000133	0.078111
C35	C	0.838298	0.333466	0.411445
C36	C	1.171631	0.666799	0.744778
N37	N	0.689059	0.452712	0.057366
N38	N	1.022393	0.786045	0.390700
N39	N	1.355726	1.119379	0.724033
N40	N	0.655607	-0.452332	0.090885
N41	N	0.988941	-0.118998	0.424219
N42	N	1.322274	0.214335	0.757552
C43	C	0.105864	0.000198	0.125342
C44	C	0.439197	0.333532	0.458676
C45	C	0.772530	0.666865	0.792009
C46	C	0.046464	0.000210	0.124630
C47	C	0.379797	0.333544	0.457964
C48	C	0.713130	0.666877	0.791297
O49	O	0.009721	0.000260	0.168414
O50	O	0.343054	0.333594	0.501748
O51	O	0.676388	0.666927	0.835081
N52	N	0.023838	0.000230	0.072353
N53	N	0.357172	0.333564	0.405687
N54	N	0.690505	0.666897	0.739020
C55	C	0.060617	0.000258	0.020784
C56	C	0.393950	0.333591	0.354117
C57	C	0.727284	0.666924	0.687451
O58	O	0.035918	0.000278	-0.023747
O59	O	0.369251	0.333611	0.309586
O60	O	0.702585	0.666944	0.642920
C61	C	0.120016	0.000259	0.021496
C62	C	0.453349	0.333593	0.354829
C63	C	0.786683	0.666926	0.688163
C64	C	0.142637	0.000220	0.073777
C65	C	0.475971	0.333553	0.407110
C66	C	0.809304	0.666887	0.740444
C67	C	0.128485	0.000161	0.177619
C68	C	0.461819	0.333494	0.510952
C69	C	0.795152	0.666828	0.844286
C70	C	0.187881	0.000145	0.178331
C71	C	0.521214	0.333479	0.511664
C72	C	0.854548	0.666812	0.844997
C73	C	0.224655	0.000167	0.126766
C74	C	0.557988	0.333500	0.460099
C75	C	0.891321	0.666834	0.793432
C76	C	0.202033	0.000204	0.074489
C77	C	0.535366	0.333538	0.407822
C78	C	0.868699	0.666871	0.741156
C79	C	0.156794	0.000301	-0.030073
C80	C	0.490127	0.333634	0.303260
C81	C	0.823461	0.666967	0.636594
C82	C	0.216197	0.000304	-0.029357
C83	C	0.549530	0.333637	0.303977
C84	C	0.882863	0.666970	0.637310
C85	C	0.238818	0.000264	0.022924
C86	C	0.572151	0.333598	0.356258
C87	C	0.905484	0.666931	0.689591
C88	C	0.298202	0.000211	0.023636
C89	C	0.631535	0.333544	0.356969
C90	C	0.964869	0.666877	0.690302
N91	N	0.320828	0.000191	0.075913
N92	N	0.654161	0.333524	0.409246
N93	N	0.987494	0.666857	0.742579
C94	C	0.284054	0.000169	0.127478
C95	C	0.617387	0.333502	0.460811
C96	C	0.950720	0.666836	0.794144
C97	C	-0.064126	0.000258	0.019293
C98	C	0.269208	0.333591	0.352626
C99	C	0.602541	0.666924	0.685959
C100	C	-0.123524	0.000242	0.018580
C101	C	0.209809	0.333576	0.351914
C102	C	0.543143	0.666909	0.685247
C103	C	-0.137673	0.000198	0.122427
C104	C	0.195660	0.333532	0.455760
C105	C	0.528994	0.666865	0.789094
C106	C	-0.078274	0.000200	0.123139
C107	C	0.255059	0.333533	0.456472
C108	C	0.588393	0.666867	0.789806
C109	C	-0.041500	0.000238	0.071570
C110	C	0.291833	0.333571	0.404903
C111	C	0.625166	0.666904	0.738236
C112	C	0.408789	0.000134	0.128969
C113	C	0.742123	0.333468	0.462302
C114	C	1.075456	0.666801	0.795635
C115	C	0.468190	0.000111	0.129676
C116	C	0.801524	0.333444	0.463010
C117	C	1.134857	0.666778	0.796343
C118	C	0.482335	0.000165	0.025830
C119	C	0.815668	0.333498	0.359163
C120	C	1.149001	0.666832	0.692496
C121	C	0.422938	0.000178	0.025122
C122	C	0.756272	0.333512	0.358456
C123	C	1.089605	0.666845	0.691789
C124	C	0.386167	0.000170	0.076696
C125	C	0.719500	0.333503	0.410030
C126	C	1.052833	0.666836	0.743363
O127	O	0.334980	0.000168	-0.020126
O128	O	0.668313	0.333502	0.313208
O129	O	1.001646	0.666835	0.646541
O130	O	0.308762	0.000174	0.172001
O131	O	0.642095	0.333507	0.505334
O132	O	0.975429	0.666841	0.838667
C133	C	0.776480	0.000222	0.069380
C134	C	1.109813	0.333556	0.402713
C135	C	1.443147	0.666889	0.736047
C136	C	0.839697	0.000231	0.070145
C137	C	1.173031	0.333564	0.403479
C138	C	1.506364	0.666897	0.736812
C139	C	0.677079	0.000232	-0.030021
C140	C	1.010413	0.333565	0.303312
C141	C	1.343746	0.666898	0.636645
C142	C	0.676314	0.000246	-0.093239
C143	C	1.009648	0.333579	0.240095
C144	C	1.342981	0.666913	0.573428
C145	C	0.723544	0.000158	-0.492339
C146	C	1.056878	0.333491	-0.159005
C147	C	1.390211	0.666825	0.174328
C148	C	0.722832	0.000143	-0.551738
C149	C	1.056166	0.333477	-0.218405
C150	C	1.389499	0.666810	0.114928
O151	O	0.766616	0.000088	-0.588481
O152	O	1.099950	0.333422	-0.255148
O153	O	1.433283	0.666755	0.078186
N154	N	0.670555	0.000126	-0.574364
N155	N	1.003889	0.333459	-0.241031
N156	N	1.337222	0.666793	0.092303
C157	C	0.618986	0.000104	-0.537585
C158	C	0.952320	0.333438	-0.204252
C159	C	1.285653	0.666771	0.129081
O160	O	0.574455	0.000086	-0.562284
O161	O	0.907789	0.333420	-0.228951
O162	O	1.241122	0.666753	0.104382
C163	C	0.619698	0.000105	-0.478186
C164	C	0.953032	0.333439	-0.144853
C165	C	1.286365	0.666772	0.188480
C166	C	0.671980	0.000142	-0.455565
C167	C	1.005313	0.333475	-0.122232
C168	C	1.338646	0.666809	0.211102
C169	C	0.775821	0.000192	-0.469717
C170	C	1.109154	0.333526	-0.136383
C171	C	1.442488	0.666859	0.196950
C172	C	0.776533	0.000211	-0.410321
C173	C	1.109866	0.333544	-0.076988
C174	C	1.443200	0.666877	0.256345
C175	C	0.724968	0.000195	-0.373548
C176	C	1.058301	0.333528	-0.040214
C177	C	1.391635	0.666861	0.293119
C178	C	0.672691	0.000160	-0.396170
C179	C	1.006025	0.333494	-0.062836
C180	C	1.339358	0.666827	0.270497
C181	C	0.568130	0.000070	-0.441409
C182	C	0.901463	0.333403	-0.108075
C183	C	1.234796	0.666736	0.225258
C184	C	0.568846	0.000069	-0.382006
C185	C	0.902179	0.333403	-0.048673
C186	C	1.235513	0.666736	0.284661
C187	C	0.621127	0.000106	-0.359385
C188	C	0.954460	0.333439	-0.026052
C189	C	1.287794	0.666773	0.307282
C190	C	0.621838	0.000162	-0.300001
C191	C	0.955172	0.333496	0.033333
C192	C	1.288505	0.666829	0.366666
N193	N	0.674115	0.000180	-0.277375
N194	N	1.007449	0.333513	0.055958
N195	N	1.340782	0.666846	0.389292
C196	C	0.725680	0.000196	-0.314149
C197	C	1.059014	0.333529	0.019185
C198	C	1.392347	0.666862	0.352518
C199	C	0.617495	0.000099	-0.662328
C200	C	0.950828	0.333432	-0.328994
C201	C	1.284161	0.666765	0.004339
C202	C	0.616783	0.000111	-0.721726
C203	C	0.950116	0.333445	-0.388393
C204	C	1.283449	0.666778	-0.055059
C205	C	0.720629	0.000147	-0.735875
C206	C	1.053962	0.333480	-0.402542
C207	C	1.387295	0.666813	-0.069208
C208	C	0.721341	0.000148	-0.676476
C209	C	1.054674	0.333481	-0.343142
C210	C	1.388007	0.666814	-0.009809
C211	C	0.669772	0.000116	-0.639702
C212	C	1.003105	0.333449	-0.306369
C213	C	1.336438	0.666782	0.026964
C214	C	0.727171	0.000236	-0.189413
C215	C	1.060505	0.333569	0.143920
C216	C	1.393838	0.666903	0.477253
C217	C	0.727879	0.000262	-0.130012
C218	C	1.061212	0.333596	0.203321
C219	C	1.394546	0.666929	0.536654
C220	C	0.624033	0.000217	-0.115868
C221	C	0.957366	0.333550	0.217465
C222	C	1.290700	0.666883	0.550798
C223	C	0.623325	0.000200	-0.175265
C224	C	0.956659	0.333534	0.158069
C225	C	1.289992	0.666867	0.491402
C226	C	0.674899	0.000204	-0.212036
C227	C	1.008232	0.333537	0.121297
C228	C	1.341566	0.666870	0.454631
O229	O	0.578077	0.000210	-0.263223
O230	O	0.911411	0.333543	0.070110
O231	O	1.244744	0.666876	0.403443
O232	O	0.770203	0.000188	-0.289440
O233	O	1.103536	0.333522	0.043893
O234	O	1.436870	0.666855	0.377226
C235	C	0.667582	0.000144	0.178277
C236	C	1.000916	0.333478	0.511611
C237	C	1.334249	0.666811	0.844944
C238	C	0.668347	0.000117	0.241495
C239	C	1.001681	0.333451	0.574829
C240	C	1.335014	0.666784	0.908162
H241	H	0.486605	0.000078	0.172252
H242	H	0.819938	0.333411	0.505585
H243	H	1.153272	0.666744	0.838918
H244	H	0.723735	0.534394	0.022632
H245	H	1.057068	0.867727	0.355966
H246	H	1.390401	1.201061	0.689299
H247	H	0.770454	0.000297	-0.111598
H248	H	1.103788	0.333630	0.221735
H249	H	1.437121	0.666964	0.555069
O250	O	0.609682	0.439488	0.136896
O251	O	0.943015	0.772821	0.470230
O252	O	1.276349	1.106154	0.803563
H253	H	0.586422	0.542546	0.160211
H254	H	0.919755	0.875879	0.493544
H255	H	1.253088	1.209212	0.826877
H256	H	0.769167	0.000231	-0.219346
H257	H	1.102501	0.333564	0.113987
H258	H	1.435834	0.666898	0.447321
H259	H	0.819105	0.000233	-0.391909
H260	H	1.152439	0.333566	-0.058575
H261	H	1.485772	0.666899	0.274758
H262	H	-0.141938	0.000244	-0.023991
H263	H	0.191396	0.333578	0.309342
H264	H	0.524729	0.666911	0.642676
O265	O	0.369131	0.000122	0.184592
O266	O	0.702464	0.333455	0.517926
O267	O	1.035798	0.666788	0.851259
H268	H	0.372343	-0.129510	0.214422
H269	H	0.705676	0.203823	0.547755
H270	H	1.039009	0.537157	0.881088
H271	H	-0.059860	0.000179	0.165710
H272	H	0.273473	0.333512	0.499044
H273	H	0.606807	0.666845	0.832377
H274	H	0.817814	0.000199	-0.499652
H275	H	1.151147	0.333532	-0.166319
H276	H	1.484480	0.666865	0.167014
O277	O	0.398535	0.000223	-0.031265
O278	O	0.731868	0.333556	0.302069
O279	O	1.065201	0.666890	0.635402
H280	H	0.408532	-0.129363	-0.051231
H281	H	0.741865	0.203970	0.282103
H282	H	1.075198	0.537303	0.615436
H283	H	0.582050	0.000210	-0.085917
H284	H	0.915384	0.333544	0.247416
H285	H	1.248717	0.666877	0.580749
H286	H	0.763913	0.000176	-0.658062
H287	H	1.097246	0.333509	-0.324729
H288	H	1.430579	0.666843	0.008605
H289	H	0.580756	0.000224	-0.193686
H290	H	0.914089	0.333557	0.139648
H291	H	1.247422	0.666891	0.472981
H292	H	-0.034187	0.000271	-0.022703
H293	H	0.299146	0.333605	0.310630
H294	H	0.632479	0.666938	0.643963
H295	H	0.762615	0.000152	-0.765827
H296	H	1.095949	0.333486	-0.432493
H297	H	1.429282	0.666819	-0.099160
O298	O	0.132405	0.000383	-0.086464
O299	O	0.465738	0.333716	0.246869
O300	O	0.799072	0.667050	0.580203
H301	H	0.167965	0.000434	-0.122196
H302	H	0.501298	0.333767	0.211137
H303	H	0.834632	0.667101	0.544471
O304	O	0.513222	0.000056	-0.342347
O305	O	0.846555	0.333389	-0.009014
O306	O	1.179889	0.666723	0.324320
H307	H	0.506267	-0.129548	-0.310140
H308	H	0.839600	0.203785	0.023193
H309	H	1.172934	0.537118	0.356527
O310	O	0.560395	0.000097	-0.746124
O311	O	0.893729	0.333430	-0.412791
O312	O	1.227062	0.666764	-0.079458
H313	H	0.524662	0.000078	-0.710568
H314	H	0.857995	0.333411	-0.377235
H315	H	1.191328	0.666745	-0.043902
H316	H	0.575499	0.000089	-0.632390
H317	H	0.908832	0.333422	-0.299056
H318	H	1.242166	0.666756	0.034277
O319	O	0.511740	0.000024	-0.465799
O320	O	0.845073	0.333357	-0.132466
O321	O	1.178407	0.666690	0.200868
H322	H	0.476009	-0.000011	-0.430240
H323	H	0.809342	0.333322	-0.096906
H324	H	1.142675	0.666656	0.236427
H325	H	0.206293	0.000113	0.220903
H326	H	0.539626	0.333446	0.554237
H327	H	0.872960	0.666779	0.887570
H328	H	0.098550	0.000150	0.219612
H329	H	0.431883	0.333484	0.552945
H330	H	0.765216	0.666817	0.886278
H331	H	0.512286	0.000175	-0.016153
H332	H	0.845619	0.333509	0.317181
H333	H	1.178953	0.666842	0.650514
O334	O	-0.177340	0.000207	0.178046
O335	O	0.155993	0.333541	0.511379
O336	O	0.489327	0.666874	0.844712
H337	H	-0.222442	0.000240	0.168762
H338	H	0.110891	0.333573	0.502095
H339	H	0.444225	0.666906	0.835428
H340	H	0.246136	0.000336	-0.071352
H341	H	0.579469	0.333669	0.261982
H342	H	0.912802	0.667002	0.595315
