data_functionalizedCrystal
_audit_creation_method	'MofGen! by Chris Wilmer'
_symmetry_space_group_name_H-M	'P1'
_symmetry_Int_Tables_number	1
_symmetry_cell_setting	triclinic
loop_
_symmetry_equiv_pos_as_xyz
  x,y,z
_cell_length_a	14.519709
_cell_length_b	14.519731
_cell_length_c	7.681481
_cell_angle_alpha	84.245782
_cell_angle_beta	95.739713
_cell_angle_gamma	83.684499
loop_
_atom_site_label
_atom_site_type_symbol
_atom_site_fract_x
_atom_site_fract_y
_atom_site_fract_z
O1	O	1.215185	0.129594	-0.146206
O2	O	1.465185	0.379594	0.103794
O3	O	1.715185	0.629594	0.353794
O4	O	1.965185	0.879594	0.603794
O5	O	0.946706	0.143833	-0.146261
O6	O	1.196706	0.393833	0.103739
O7	O	1.446706	0.643833	0.353739
O8	O	1.696706	0.893833	0.603739
O9	O	1.088055	0.002475	-0.146216
O10	O	1.338055	0.252475	0.103784
O11	O	1.588055	0.502475	0.353784
O12	O	1.838055	0.752475	0.603784
O13	O	1.073837	0.270951	-0.146251
O14	O	1.323837	0.520951	0.103749
O15	O	1.573837	0.770951	0.353749
O16	O	1.823837	1.020951	0.603749
O17	O	1.105452	-0.014963	0.146647
O18	O	1.355452	0.235037	0.396647
O19	O	1.605452	0.485037	0.646647
O20	O	1.855452	0.735037	0.896647
O21	O	0.964104	0.126395	0.146603
O22	O	1.214104	0.376395	0.396603
O23	O	1.464104	0.626395	0.646603
O24	O	1.714104	0.876395	0.896603
O25	O	1.232583	0.112155	0.146657
O26	O	1.482583	0.362155	0.396657
O27	O	1.732583	0.612155	0.646657
O28	O	1.982583	0.862155	0.896657
Zn29	Zn	1.101106	0.116506	0.193128
Zn30	Zn	1.351106	0.366506	0.443128
Zn31	Zn	1.601106	0.616506	0.693128
Zn32	Zn	1.851106	0.866506	0.943128
Zn33	Zn	1.078183	0.139482	-0.192732
Zn34	Zn	1.328183	0.389482	0.057268
Zn35	Zn	1.578183	0.639482	0.307268
Zn36	Zn	1.828183	0.889482	0.557268
O37	O	1.091234	0.253513	0.146612
O38	O	1.341234	0.503513	0.396612
O39	O	1.591234	0.753513	0.646612
O40	O	1.841234	1.003513	0.896612
C41	C	0.921045	0.134451	0.000164
C42	C	1.171045	0.384451	0.250164
C43	C	1.421045	0.634451	0.500164
C44	C	1.671045	0.884451	0.750164
C45	C	0.818662	0.132464	0.000144
C46	C	1.068662	0.382464	0.250144
C47	C	1.318662	0.632464	0.500144
C48	C	1.568662	0.882464	0.750144
C49	C	1.096087	-0.040603	0.000216
C50	C	1.346087	0.209397	0.250216
C51	C	1.596087	0.459397	0.500216
C52	C	1.846087	0.709397	0.750216
C53	C	1.094091	-0.142984	0.000217
C54	C	1.344091	0.107016	0.250217
C55	C	1.594091	0.357016	0.500217
C56	C	1.844091	0.607016	0.750217
C57	C	0.443771	0.125140	0.000225
C58	C	0.693771	0.375140	0.250225
C59	C	0.943771	0.625140	0.500225
C60	C	1.193771	0.875140	0.750225
C61	C	0.548077	0.127174	0.000202
C62	C	0.798077	0.377174	0.250202
C63	C	1.048077	0.627174	0.500202
C64	C	1.298077	0.877174	0.750202
C65	C	0.631213	0.128802	0.000183
C66	C	0.881213	0.378802	0.250183
C67	C	1.131213	0.628802	0.500183
C68	C	1.381213	0.878802	0.750183
C69	C	0.735526	0.130836	0.000163
C70	C	0.985526	0.380836	0.250163
C71	C	1.235526	0.630836	0.500163
C72	C	1.485526	0.880836	0.750163
C73	C	1.092469	-0.226128	0.000212
C74	C	1.342469	0.023872	0.250212
C75	C	1.592469	0.273872	0.500212
C76	C	1.842469	0.523872	0.750212
C77	C	1.090442	-0.330435	0.000198
C78	C	1.340442	-0.080435	0.250198
C79	C	1.590442	0.169565	0.500198
C80	C	1.840442	0.419565	0.750198
C81	C	1.088833	-0.413574	0.000187
C82	C	1.338833	-0.163574	0.250187
C83	C	1.588833	0.086426	0.500187
C84	C	1.838833	0.336426	0.750187
C85	C	1.086806	-0.517889	0.000176
C86	C	1.336806	-0.267889	0.250176
C87	C	1.586806	-0.017889	0.500176
C88	C	1.836806	0.232111	0.750176
C89	C	1.258244	0.121538	0.000228
C90	C	1.508244	0.371538	0.250228
C91	C	1.758244	0.621538	0.500228
C92	C	2.008244	0.871538	0.750228
C93	C	1.360626	0.123525	0.000237
C94	C	1.610626	0.373525	0.250237
C95	C	1.860626	0.623525	0.500237
C96	C	2.110626	0.873525	0.750237
C97	C	1.083201	0.296592	0.000177
C98	C	1.333201	0.546592	0.250177
C99	C	1.583201	0.796592	0.500177
C100	C	1.833201	1.046592	0.750177
C101	C	1.085197	0.398973	0.000164
C102	C	1.335197	0.648973	0.250164
C103	C	1.585197	0.898973	0.500164
C104	C	1.835197	1.148973	0.750164
N105	N	1.116756	0.100826	0.456467
N106	N	1.366756	0.350826	0.706467
N107	N	1.616756	0.600826	0.956467
N108	N	1.866756	0.850826	1.206467
N109	N	1.062540	0.155156	-0.456071
N110	N	1.312540	0.405156	-0.206071
N111	N	1.562540	0.655156	0.043929
N112	N	1.812540	0.905156	0.293929
H113	H	1.007197	0.210610	0.468715
H114	H	1.257197	0.460610	0.718715
H115	H	1.507197	0.710610	0.968715
H116	H	1.757197	0.960610	1.218715
H117	H	1.172110	0.045374	0.531691
H118	H	1.422110	0.295374	0.781691
H119	H	1.672110	0.545374	1.031691
H120	H	1.922110	0.795374	1.281691
