data_functionalizedCrystal
_audit_creation_method	'MofGen! by Chris Wilmer'
_symmetry_space_group_name_H-M	'P1'
_symmetry_Int_Tables_number	1
_symmetry_cell_setting	triclinic
loop_
_symmetry_equiv_pos_as_xyz
  x,y,z
_cell_length_a	19.805407
_cell_length_b	29.839131
_cell_length_c	19.805399
_cell_angle_alpha	89.970435
_cell_angle_beta	89.982197
_cell_angle_gamma	90.038737
loop_
_atom_site_label
_atom_site_type_symbol
_atom_site_fract_x
_atom_site_fract_y
_atom_site_fract_z
Zn1	Zn	1.034665	-0.178896	-0.382678
Zn2	Zn	1.034550	-0.254024	-0.269486
Zn3	Zn	0.921480	-0.178905	-0.269506
Zn4	Zn	0.921414	-0.253996	-0.382636
O5	O	0.978027	-0.216455	-0.326077
O6	O	1.129366	-0.188870	-0.367672
O7	O	1.019531	-0.244074	-0.174772
O8	O	0.936570	-0.116036	-0.284545
O9	O	1.129282	-0.244065	-0.284510
O10	O	1.019726	-0.116030	-0.367692
O11	O	0.936458	-0.188885	-0.174787
O12	O	0.826754	-0.188858	-0.284504
O13	O	0.936457	-0.244019	-0.477359
O14	O	0.826706	-0.244027	-0.367620
O15	O	1.019662	-0.188843	-0.477389
O16	O	1.019467	-0.316887	-0.284470
O17	O	0.936346	-0.316867	-0.367601
C18	C	0.802171	-0.216441	-0.326060
C19	C	0.726939	-0.216446	-0.326069
C20	C	0.691640	-0.187756	-0.369438
C21	C	0.620951	-0.187758	-0.369440
C22	C	0.585564	-0.216453	-0.326078
C23	C	0.620868	-0.245144	-0.282705
C24	C	0.691555	-0.245139	-0.282699
C25	C	0.335795	-0.245164	-0.282725
C26	C	0.265103	-0.245168	-0.282736
C27	C	0.265191	-0.187784	-0.369466
C28	C	0.335878	-0.187779	-0.369461
C29	C	0.371176	-0.216468	-0.326086
C30	C	0.447825	-0.216464	-0.326083
C31	C	0.508916	-0.216459	-0.326084
C32	C	0.977905	-0.333178	-0.326043
C33	C	0.977915	-0.383112	-0.326052
C34	C	1.021387	-0.692753	-0.282854
C35	C	1.021470	-0.880426	-0.282880
O36	O	1.058335	-0.904689	-0.246126
N37	N	0.978167	-0.903897	-0.326128
C38	C	0.934844	-0.880447	-0.369375
O39	O	0.898019	-0.904716	-0.406166
C40	C	0.934764	-0.692775	-0.369352
C41	C	0.978065	-0.669306	-0.326096
C42	C	1.064685	-0.669285	-0.239602
C43	C	1.064661	-0.622369	-0.239594
C44	C	1.021339	-0.598922	-0.282836
C45	C	0.978041	-0.622391	-0.326088
C46	C	0.891444	-0.669325	-0.412602
C47	C	0.891429	-0.622404	-0.412594
C48	C	0.934730	-0.598936	-0.369338
C49	C	0.934695	-0.552028	-0.369322
N50	N	0.977998	-0.528558	-0.326074
C51	C	1.021320	-0.552005	-0.282831
C52	C	0.934888	-0.978977	-0.369384
C53	C	0.934906	-1.025895	-0.369389
C54	C	1.021534	-1.025872	-0.282894
C55	C	1.021512	-0.978953	-0.282886
C56	C	0.978191	-0.955507	-0.326136
C57	C	1.021266	-0.453479	-0.282816
C58	C	1.021236	-0.406559	-0.282809
C59	C	0.934611	-0.406587	-0.369306
C60	C	0.934638	-0.453502	-0.369310
C61	C	0.977971	-0.476947	-0.326063
O62	O	0.897855	-0.527736	-0.406062
O63	O	1.058150	-0.527727	-0.246057
C64	C	1.021411	-0.739669	-0.282862
C65	C	0.978113	-0.763137	-0.326114
C66	C	0.934791	-0.739690	-0.369357
C67	C	0.978132	-0.810055	-0.326119
C68	C	1.021454	-0.833502	-0.282876
C69	C	1.064757	-0.810031	-0.239628
C70	C	1.064733	-0.763116	-0.239620
C71	C	0.891488	-0.763161	-0.412604
C72	C	0.891515	-0.810076	-0.412609
C73	C	0.934837	-0.833523	-0.369366
C74	C	1.154570	-0.216470	-0.326094
C75	C	1.229802	-0.216476	-0.326101
C76	C	0.978065	-0.216427	-0.502620
C77	C	0.978081	-0.216415	-0.577852
C78	C	0.978168	-0.099277	-0.326125
C79	C	0.978228	-0.049342	-0.326146
C80	C	1.021407	-0.187683	-0.613213
C81	C	1.021414	-0.187670	-0.683901
C82	C	0.978098	-0.216391	-0.719227
C83	C	0.934767	-0.245124	-0.683861
C84	C	0.934757	-0.245134	-0.613174
C85	C	0.934806	-0.245082	-0.968934
C86	C	0.934820	-0.245070	-1.039627
C87	C	1.021462	-0.187618	-1.039662
C88	C	1.021452	-0.187628	-0.968975
C89	C	0.978119	-0.216359	-0.933615
C90	C	0.978112	-0.216372	-0.856966
C91	C	0.978109	-0.216381	-0.795874
C92	C	0.978028	-0.216451	-0.150221
C93	C	0.978143	-0.216336	-0.074989
H94	H	0.236292	-0.268536	-0.247422
Cl95	Cl	0.880286	-0.281254	-0.568719
Cl96	Cl	0.380161	-0.281221	-0.228182
H97	H	0.899496	-0.268508	-0.712629
Cl98	Cl	0.736120	-0.151683	-0.423957
Cl99	Cl	1.075741	-0.482945	-0.228446
H100	H	0.899544	-0.268459	-1.068387
Cl101	Cl	0.576381	-0.281215	-0.228187
H102	H	0.899337	-0.387489	-0.404511
H103	H	1.099993	-0.744011	-0.204397
Cl104	Cl	0.836966	-0.592932	-0.466970
Cl105	Cl	0.576577	-0.151691	-0.423965
Cl106	Cl	1.075911	-0.151522	-0.924569
Cl107	Cl	0.380361	-0.151706	-0.423979
Cl108	Cl	1.075937	-0.151497	-1.084119
Cl109	Cl	0.880461	-1.055393	-0.423761
Cl110	Cl	0.880188	-0.483006	-0.423675
H111	H	0.856211	-0.744074	-0.447819
Cl112	Cl	0.220811	-0.151715	-0.423994
Cl113	Cl	1.075950	-0.949455	-0.228507
Cl114	Cl	0.735932	-0.281208	-0.228177
H115	H	0.899531	-0.268483	-0.940153
H116	H	1.056497	-0.387453	-0.247583
H117	H	1.099922	-0.603264	-0.204373
Cl118	Cl	1.119155	-0.698753	-0.185233
H119	H	1.056683	-0.164297	-0.584456
Cl120	Cl	1.075995	-1.055356	-0.228531
H121	H	0.899609	-0.959891	-0.404604
Cl122	Cl	1.119217	-0.839517	-0.185265
Cl123	Cl	0.837013	-0.698817	-0.466992
Cl124	Cl	0.837073	-0.839574	-0.466993
H125	H	1.056696	-0.164275	-0.712689
