data_functionalizedCrystal
_audit_creation_method	'MofGen! by Chris Wilmer'
_symmetry_space_group_name_H-M	'P1'
_symmetry_Int_Tables_number	1
_symmetry_cell_setting	triclinic
loop_
_symmetry_equiv_pos_as_xyz
  x,y,z
_cell_length_a	17.038272
_cell_length_b	8.597340
_cell_length_c	7.088929
_cell_angle_alpha	103.954719
_cell_angle_beta	83.325468
_cell_angle_gamma	88.193829
loop_
_atom_site_label
_atom_site_type_symbol
_atom_site_fract_x
_atom_site_fract_y
_atom_site_fract_z
O1	O	0.107367	2.115945	0.189570
O2	O	0.607367	2.615945	0.689570
O3	O	0.120129	1.652995	0.113304
O4	O	0.620129	2.152995	0.613304
O5	O	-0.000066	1.881720	0.150999
O6	O	0.499934	2.381720	0.650999
O7	O	0.227563	1.887220	0.151875
O8	O	0.727563	2.387220	0.651875
O9	O	-0.016165	1.912282	0.474011
O10	O	0.483835	2.412282	0.974011
O11	O	0.104030	1.683557	0.436316
O12	O	0.604030	2.183557	0.936316
O13	O	0.091268	2.146507	0.512582
O14	O	0.591268	2.646507	1.012582
Cu15	Cu	0.096179	1.917823	0.503943
Cu16	Cu	0.596179	2.417823	1.003943
Cu17	Cu	0.115218	1.881680	0.121944
Cu18	Cu	0.615218	2.381680	0.621944
O19	O	0.211464	1.917782	0.474887
O20	O	0.711464	2.417782	0.974887
C21	C	0.111606	1.608749	0.265004
C22	C	0.611606	2.108749	0.765004
C23	C	0.110185	1.431374	0.235784
C24	C	0.610185	1.931374	0.735784
C25	C	-0.037241	1.891996	0.311681
C26	C	0.462759	2.391996	0.811681
C27	C	-0.124026	1.877064	0.309220
C28	C	0.375974	2.377064	0.809220
C29	C	-0.174217	2.014161	0.331807
C30	C	0.325783	2.514161	0.831807
C31	C	-0.255758	2.000119	0.329476
C32	C	0.244242	2.500119	0.829476
C33	C	-0.287109	1.848980	0.304571
C34	C	0.212891	2.348980	0.804571
C35	C	-0.236911	1.711872	0.281976
C36	C	0.263089	2.211872	0.781976
C37	C	-0.155370	1.725914	0.284294
C38	C	0.344630	2.225914	0.784294
C39	C	-0.532838	1.799371	0.296372
C40	C	-0.032838	2.299371	0.796372
C41	C	-0.614385	1.785340	0.294062
C42	C	-0.114385	2.285340	0.794062
C43	C	-0.633226	2.073588	0.341558
C44	C	-0.133226	2.573588	0.841558
C45	C	-0.551684	2.087618	0.343886
C46	C	-0.051684	2.587618	0.843886
C47	C	-0.501493	1.950509	0.321281
C48	C	-0.001493	2.450509	0.821281
C49	C	-0.370458	1.834624	0.302193
C50	C	0.129542	2.334624	0.802193
C51	C	-0.418145	1.964865	0.323644
C52	C	0.081855	2.464865	0.823644
C53	C	0.248639	1.907506	0.314201
C54	C	0.748639	2.407506	0.814201
C55	C	0.335424	1.922437	0.316649
C56	C	0.835424	2.422437	0.816649
C57	C	0.099792	2.190753	0.360878
C58	C	0.599792	2.690753	0.860878
C59	C	0.101213	2.368126	0.390086
C60	C	0.601213	2.868126	0.890086
N61	N	0.082787	1.943255	0.772622
N62	N	0.582787	2.443255	1.272622
N63	N	0.128604	1.856259	-0.146734
N64	N	0.628604	2.356259	0.353266
H65	H	0.116780	1.349817	0.081307
H66	H	0.616780	1.849817	0.581307
H67	H	-0.296621	2.111759	0.347873
H68	H	0.203379	2.611759	0.847873
H69	H	-0.262442	1.588810	0.261686
H70	H	0.237558	2.088810	0.761686
H71	H	0.035311	2.033436	0.869140
H72	H	0.535311	2.533436	1.369140
H73	H	0.094613	1.449675	0.544552
H74	H	0.594613	1.949675	1.044552
H75	H	-0.392614	2.087918	0.343879
H76	H	0.107386	2.587918	0.843879
H77	H	-0.114505	1.614274	0.265900
H78	H	0.385495	2.114274	0.765900
H79	H	-0.148699	2.137236	0.352100
H80	H	0.351301	2.637236	0.852100
H81	H	0.176083	1.766097	0.756761
H82	H	0.676083	2.266097	1.256761
H83	H	-0.395992	1.711566	0.281920
H84	H	0.104008	2.211566	0.781920
H85	H	-0.674100	2.185214	0.359958
H86	H	-0.174100	2.685214	0.859958
H87	H	-0.526165	2.210691	0.364166
H88	H	-0.026165	2.710691	0.864166
H89	H	-0.639908	1.662261	0.273812
H90	H	-0.139908	2.162261	0.773812
H91	H	-0.491982	1.687726	0.277966
H92	H	0.008018	2.187726	0.777966
