data_functionalizedCrystal
_audit_creation_method	'MofGen! by Chris Wilmer'
_symmetry_space_group_name_H-M	'P1'
_symmetry_Int_Tables_number	1
_symmetry_cell_setting	triclinic
loop_
_symmetry_equiv_pos_as_xyz
  x,y,z
_cell_length_a	17.077404
_cell_length_b	12.759394
_cell_length_c	17.077396
_cell_angle_alpha	89.972850
_cell_angle_beta	89.982756
_cell_angle_gamma	90.015062
loop_
_atom_site_label
_atom_site_type_symbol
_atom_site_fract_x
_atom_site_fract_y
_atom_site_fract_z
Zn1	Zn	1.200081	-0.418252	-0.443855
Zn2	Zn	1.700081	0.081748	0.056145
Zn3	Zn	1.200012	-0.593955	-0.312593
Zn4	Zn	1.700012	-0.093955	0.187407
Zn5	Zn	1.068818	-0.418291	-0.312602
Zn6	Zn	1.568818	0.081709	0.187398
Zn7	Zn	1.068799	-0.593890	-0.443817
Zn8	Zn	1.568799	-0.093890	0.056183
O9	O	1.134428	-0.506097	-0.378217
O10	O	1.634428	-0.006097	0.121783
O11	O	1.309919	-0.441570	-0.426454
O12	O	1.809919	0.058430	0.073546
O13	O	1.182587	-0.570696	-0.202748
O14	O	1.682587	-0.070696	0.297252
O15	O	1.086267	-0.271265	-0.330033
O16	O	1.586267	0.228735	0.169967
O17	O	1.309868	-0.570658	-0.330017
O18	O	1.809868	-0.070658	0.169983
O19	O	1.182706	-0.271236	-0.426463
O20	O	1.682706	0.228764	0.073537
O21	O	1.086200	-0.441637	-0.202754
O22	O	1.586200	0.058363	0.297246
O23	O	0.958969	-0.441574	-0.329996
O24	O	1.458969	0.058426	0.170004
O25	O	1.086235	-0.570547	-0.553669
O26	O	1.586235	-0.070547	-0.053669
O27	O	0.958955	-0.570586	-0.426399
O28	O	1.458955	-0.070586	0.073601
O29	O	1.182687	-0.441507	-0.553697
O30	O	1.682687	0.058493	-0.053697
O31	O	1.182569	-0.740967	-0.329981
O32	O	1.682569	-0.240967	0.170019
O33	O	1.086168	-0.740920	-0.426391
O34	O	1.586168	-0.240920	0.073609
C35	C	0.930480	-0.506078	-0.378195
C36	C	1.430480	-0.006078	0.121805
C37	C	0.843230	-0.506095	-0.378205
C38	C	1.343230	-0.006095	0.121795
C39	C	0.802253	-0.573373	-0.428321
C40	C	1.302253	-0.073373	0.071679
C41	C	0.720273	-0.573375	-0.428334
C42	C	1.220273	-0.073375	0.071666
C43	C	0.679270	-0.506104	-0.378225
C44	C	1.179270	-0.006104	0.121775
C45	C	0.720253	-0.438819	-0.328107
C46	C	1.220253	0.061181	0.171893
C47	C	0.802232	-0.438812	-0.328099
C48	C	1.302232	0.061188	0.171901
C49	C	0.549383	-0.438839	-0.328125
C50	C	1.049383	0.061161	0.171875
C51	C	0.467398	-0.438847	-0.328132
C52	C	0.967398	0.061153	0.171868
C53	C	0.467424	-0.573402	-0.428360
C54	C	0.967424	-0.073402	0.071640
C55	C	0.549403	-0.573396	-0.428352
C56	C	1.049403	-0.073396	0.071648
C57	C	0.590379	-0.506112	-0.378233
C58	C	1.090379	-0.006112	0.121767
C59	C	1.134380	-0.779064	-0.378198
C60	C	1.634380	-0.279064	0.121802
C61	C	1.134432	-0.895841	-0.378216
C62	C	1.634432	-0.395841	0.121784
C63	C	1.234890	-0.895837	-0.277900
C64	C	1.734890	-0.395837	0.222100
C65	C	1.285139	-0.950696	-0.227751
C66	C	1.785139	-0.450696	0.272249
C67	C	1.285185	-1.060418	-0.227773
C68	C	1.785185	-0.560418	0.272227
C69	C	1.234978	-1.115283	-0.277950
C70	C	1.734978	-0.615283	0.222050
C71	C	1.184729	-1.060424	-0.328099
C72	C	1.684729	-0.560424	0.171901
C73	C	1.184687	-0.950700	-0.328070
C74	C	1.684687	-0.450700	0.171930
C75	C	1.084276	-1.060428	-0.428417
C76	C	1.584276	-0.560428	0.071583
C77	C	1.084225	-0.950706	-0.428393
C78	C	1.584225	-0.450706	0.071607
C79	C	1.034069	-1.115293	-0.478594
C80	C	1.534069	-0.615293	0.021406
C81	C	0.983814	-1.060434	-0.528740
C82	C	1.483814	-0.560434	-0.028740
C83	C	0.983770	-0.950706	-0.528716
C84	C	1.483770	-0.450706	-0.028716
C85	C	1.033975	-0.895847	-0.478542
C86	C	1.533975	-0.395847	0.021458
C87	C	1.339172	-0.506117	-0.378239
C88	C	1.839172	-0.006117	0.121761
C89	C	1.426422	-0.506125	-0.378249
C90	C	1.926422	-0.006125	0.121751
C91	C	1.134467	-0.506015	-0.582961
C92	C	1.634467	-0.006015	-0.082961
C93	C	1.134484	-0.505981	-0.670211
C94	C	1.634484	-0.005981	-0.170211
C95	C	1.134496	-0.232063	-0.378253
C96	C	1.634496	0.267937	0.121747
C97	C	1.134525	-0.115287	-0.378269
C98	C	1.634525	0.384713	0.121731
C99	C	1.084310	-0.438771	-0.711204
C100	C	1.584310	0.061229	-0.211204
C101	C	1.084323	-0.438748	-0.793185
C102	C	1.584323	0.061252	-0.293185
C103	C	1.134514	-0.505928	-0.834171
C104	C	1.634514	-0.005928	-0.334171
C105	C	1.184690	-0.573145	-0.793172
C106	C	1.684690	-0.073145	-0.293172
C107	C	1.184672	-0.573174	-0.711193
C108	C	1.684672	-0.073174	-0.211193
C109	C	1.184724	-0.573079	-0.964042
C110	C	1.684724	-0.073079	-0.464042
C111	C	1.184742	-0.573050	-1.046027
C112	C	1.684742	-0.073050	-0.546027
C113	C	1.084374	-0.438654	-1.046034
C114	C	1.584374	0.061346	-0.546034
C115	C	1.084357	-0.438682	-0.964055
C116	C	1.584357	0.061318	-0.464055
C117	C	1.134534	-0.505897	-0.923062
C118	C	1.634534	-0.005897	-0.423062
C119	C	1.134433	-0.506102	-0.174269
C120	C	1.634433	-0.006102	0.325731
C121	C	1.134569	-0.505841	-0.087020
C122	C	1.634569	-0.005841	0.412980
H123	H	0.835631	-0.628156	-0.469123
H124	H	1.335631	-0.128156	0.030877
Br125	Br	0.664664	-0.664682	-0.496354
Br126	Br	1.164664	-0.164682	0.003646
H127	H	0.434017	-0.384057	-0.287339
H128	H	0.934017	0.115943	0.212661
H129	H	1.225590	-0.627804	-0.930668
H130	H	1.725590	-0.127804	-0.430668
Br131	Br	1.033763	-1.264200	-0.478257
Br132	Br	1.533763	-0.764200	0.021743
H133	H	0.582744	-0.384040	-0.287319
H134	H	1.082744	0.115960	0.212681
Br135	Br	1.252867	-0.664215	-1.101651
Br136	Br	1.752867	-0.164215	-0.601651
H137	H	0.686862	-0.384041	-0.287311
H138	H	1.186862	0.115959	0.212689
Br139	Br	0.915691	-1.134897	-0.596838
Br140	Br	1.415691	-0.634897	-0.096838
H141	H	1.326019	-0.906015	-0.186899
H142	H	1.826019	-0.406015	0.313101
Br143	Br	1.234674	-1.264190	-0.277610
Br144	Br	1.734674	-0.764190	0.222390
Br145	Br	1.353387	-1.134874	-0.159720
Br146	Br	1.853387	-0.634874	0.340280
H147	H	1.225535	-0.627894	-0.677817
H148	H	1.725535	-0.127894	-0.177817
H149	H	0.942854	-0.906045	-0.569557
H150	H	1.442854	-0.406045	-0.069557
H151	H	0.835594	-0.384022	-0.287293
H152	H	1.335594	0.115978	0.212707
H153	H	1.033939	-0.806506	-0.478512
H154	H	1.533939	-0.306506	0.021488
Br155	Br	1.016196	-0.347584	-0.655588
Br156	Br	1.516196	0.152416	-0.155588
Br157	Br	0.605049	-0.664703	-0.496350
Br158	Br	1.105049	-0.164703	0.003650
Br159	Br	0.411814	-0.664703	-0.496391
Br160	Br	0.911814	-0.164703	0.003609
H161	H	1.234847	-0.806496	-0.277868
H162	H	1.734847	-0.306496	0.222132
Br163	Br	1.016184	-0.347588	-0.848815
Br164	Br	1.516184	0.152412	-0.348815
Br165	Br	1.016247	-0.347497	-0.908431
Br166	Br	1.516247	0.152503	-0.408431
Br167	Br	1.016280	-0.347427	-1.101666
Br168	Br	1.516280	0.152573	-0.601666
H169	H	1.225552	-0.627850	-0.826549
H170	H	1.725552	-0.127850	-0.326549
