data_functionalizedCrystal
_audit_creation_method	'MofGen! by Chris Wilmer'
_symmetry_space_group_name_H-M	'P1'
_symmetry_Int_Tables_number	1
_symmetry_cell_setting	triclinic
loop_
_symmetry_equiv_pos_as_xyz
  x,y,z
_cell_length_a	12.645330
_cell_length_b	21.395362
_cell_length_c	21.395355
_cell_angle_alpha	89.956060
_cell_angle_beta	90.012330
_cell_angle_gamma	89.966428
loop_
_atom_site_label
_atom_site_type_symbol
_atom_site_fract_x
_atom_site_fract_y
_atom_site_fract_z
Zn1	Zn	-0.421713	-0.957916	0.354613
Zn2	Zn	-0.598962	-0.957842	0.249846
Zn3	Zn	-0.421762	-0.853131	0.249814
Zn4	Zn	-0.598984	-0.853124	0.354551
O5	O	-0.510355	-0.905503	0.302206
O6	O	-0.445196	-1.045584	0.340754
O7	O	-0.575468	-0.943924	0.162164
O8	O	-0.273408	-0.867065	0.263728
O9	O	-0.575420	-1.045530	0.263783
O10	O	-0.273372	-0.944050	0.340723
O11	O	-0.445280	-0.866993	0.162140
O12	O	-0.445301	-0.765452	0.263668
O13	O	-0.575457	-0.867053	0.442237
O14	O	-0.575505	-0.765447	0.340618
O15	O	-0.445217	-0.944043	0.442282
O16	O	-0.747312	-0.943918	0.263724
O17	O	-0.747328	-0.866981	0.340650
C18	C	-0.510411	-0.742716	0.302133
C19	C	-0.510461	-0.673074	0.302117
C20	C	-0.785785	-0.905458	0.302197
C21	C	-0.903615	-0.905495	0.302214
C22	C	-0.510334	-0.905555	0.465629
C23	C	-0.510325	-0.905578	0.535271
C24	C	-1.071233	-0.857295	0.350758
C25	C	-0.948674	-0.857048	0.350602
C26	C	-0.948193	-0.887617	0.236177
C27	C	-1.070792	-0.887323	0.236472
C28	C	-1.070679	-0.971870	0.319173
C29	C	-0.948073	-0.971463	0.320616
C30	C	-0.233850	-0.905566	0.302228
C31	C	-0.116020	-0.905593	0.302238
C32	C	-0.510300	-1.068927	0.302279
C33	C	-0.510276	-1.138568	0.302311
C34	C	-0.578348	-0.640375	0.342125
C35	C	-0.578322	-0.574940	0.342153
C36	C	-0.510420	-0.542206	0.302162
C37	C	-0.442520	-0.574913	0.262151
C38	C	-0.442540	-0.640348	0.262129
C39	C	-0.501880	-0.438480	0.245756
C40	C	-0.501867	-0.373047	0.245777
C41	C	-0.510351	-0.340386	0.302231
C42	C	-0.518870	-0.373165	0.358665
C43	C	-0.518890	-0.438599	0.358643
C44	C	-0.510390	-0.471254	0.302182
C45	C	-0.578213	-0.236734	0.342272
C46	C	-0.578180	-0.171297	0.342301
C47	C	-0.442383	-0.171272	0.262294
C48	C	-0.442411	-0.236707	0.262271
C49	C	-0.510332	-0.269434	0.302259
C50	C	-0.510300	-0.905488	0.139418
C51	C	-0.510011	-0.905587	0.069778
C52	C	-0.442506	-0.945665	0.568008
C53	C	-0.442460	-0.945664	0.633444
C54	C	-0.510252	-0.905582	0.666139
C55	C	-0.578076	-0.865488	0.633393
C56	C	-0.578112	-0.865485	0.567959
C57	C	-0.605707	-0.900619	0.769809
C58	C	-0.605673	-0.900626	0.835242
C59	C	-0.510140	-0.905586	0.867960
C60	C	-0.414639	-0.910553	0.835237
C61	C	-0.414676	-0.910550	0.769803
C62	C	-0.510220	-0.905580	0.737091
C63	C	-0.442266	-0.945675	0.971650
C64	C	-0.442219	-0.945669	1.037087
C65	C	-0.577844	-0.865496	1.037035
C66	C	-0.577882	-0.865498	0.971600
C67	C	-0.510095	-0.905591	0.938911
H68	H	-1.100658	-0.868378	0.399884
H69	H	-0.525777	-0.346573	0.404635
C70	C	-0.652654	-0.821402	0.669357
C71	C	-0.773170	-0.826488	0.660369
C72	C	-0.847748	-0.782400	0.696333
C73	C	-0.801810	-0.733225	0.741284
C74	C	-0.681287	-0.728136	0.750274
C75	C	-0.606709	-0.772225	0.714311
H76	H	-0.807181	-0.862892	0.627091
H77	H	-0.936966	-0.786167	0.689677
H78	H	-0.857017	-0.700588	0.767907
H79	H	-0.647276	-0.691732	0.783552
H80	H	-0.517491	-0.768458	0.720966
H81	H	-0.918934	-0.984945	0.369216
C82	C	-0.653009	-0.538960	0.386160
C83	C	-0.727719	-0.574958	0.430143
C84	C	-0.802408	-0.538980	0.474148
C85	C	-0.802387	-0.467005	0.474169
C86	C	-0.727675	-0.431004	0.430184
C87	C	-0.652986	-0.466981	0.386179
H88	H	-0.727736	-0.628241	0.430129
H89	H	-0.857715	-0.565631	0.506709
H90	H	-0.857676	-0.440373	0.506745
H91	H	-0.727657	-0.377720	0.430198
H92	H	-0.597679	-0.440330	0.353618
C93	C	-0.906713	-1.022632	0.276319
C94	C	-0.831504	-1.005335	0.222423
C95	C	-0.790184	-1.056498	0.178103
C96	C	-0.824072	-1.124959	0.187679
C97	C	-0.899285	-1.142259	0.241578
C98	C	-0.940606	-1.091096	0.285898
H99	H	-0.806415	-0.954653	0.215332
H100	H	-0.734506	-1.043691	0.138203
H101	H	-0.793484	-1.162833	0.154870
H102	H	-0.924375	-1.192941	0.248669
H103	H	-0.996284	-1.103903	0.325797
H104	H	-1.099637	-1.007853	0.283834
H105	H	-0.683435	-0.896586	0.861880
H106	H	-1.101533	-0.988178	0.366510
C107	C	-0.492549	-0.474402	0.183650
C108	C	-0.581199	-0.519323	0.163315
C109	C	-0.571867	-0.555243	0.101211
C110	C	-0.473883	-0.546241	0.059442
C111	C	-0.385226	-0.501318	0.079777
C112	C	-0.394558	-0.465399	0.141881
H113	H	-0.653738	-0.525988	0.194235
H114	H	-0.637497	-0.588498	0.086158
H115	H	-0.466975	-0.572831	0.013469
H116	H	-0.312687	-0.494653	0.048857
H117	H	-0.328928	-0.432143	0.156933
C118	C	-0.367926	-0.989759	0.532054
C119	C	-0.284727	-0.962625	0.487048
C120	C	-0.210143	-1.006717	0.451093
C121	C	-0.218758	-1.077942	0.460144
C122	C	-0.301961	-1.105080	0.505151
C123	C	-0.376545	-1.060988	0.541106
H124	H	-0.278347	-0.909896	0.480347
H125	H	-0.148551	-0.986627	0.417776
H126	H	-0.163547	-1.110582	0.433528
H127	H	-0.308341	-1.157809	0.511853
H128	H	-0.438137	-1.081077	0.574424
C129	C	-0.367867	-0.676320	0.218112
C130	C	-0.247363	-0.667388	0.223345
C131	C	-0.172692	-0.703361	0.179326
C132	C	-0.218527	-0.748267	0.130074
C133	C	-0.339037	-0.757201	0.124838
C134	C	-0.413708	-0.721228	0.168857
H135	H	-0.213428	-0.634144	0.259807
H136	H	-0.083482	-0.696747	0.183202
H137	H	-0.163251	-0.774896	0.097488
H138	H	-0.372972	-0.790445	0.088377
H139	H	-0.502918	-0.727842	0.164981
H140	H	-1.102153	-0.808467	0.339680
H141	H	-0.683481	-0.896413	0.743176
H142	H	-0.633653	-0.667017	0.374688
C143	C	-0.528246	-0.474656	0.420716
C144	C	-0.537577	-0.438739	0.482818
C145	C	-0.546927	-0.474797	0.544892
C146	C	-0.546946	-0.546772	0.544865
C147	C	-0.537615	-0.582693	0.482761
C148	C	-0.528265	-0.546635	0.420686
H149	H	-0.537563	-0.385455	0.482840
H150	H	-0.553834	-0.448205	0.590865
H151	H	-0.553868	-0.573464	0.590816
H152	H	-0.537629	-0.635977	0.482738
H153	H	-0.521358	-0.573227	0.374713
H154	H	-0.919458	-0.807914	0.339381
C155	C	-0.652910	-0.272740	0.386264
C156	C	-0.736089	-0.317653	0.359017
C157	C	-0.810784	-0.353658	0.403009
C158	C	-0.802299	-0.344749	0.474248
C159	C	-0.719115	-0.299834	0.501499
C160	C	-0.644421	-0.263829	0.457507
H161	H	-0.742374	-0.324250	0.306278
H162	H	-0.872361	-0.386908	0.382836
H163	H	-0.857592	-0.371402	0.506814
H164	H	-0.712831	-0.293237	0.554238
H165	H	-0.582843	-0.230579	0.477680
H166	H	-0.494937	-0.346364	0.199825
H167	H	-0.386986	-0.978312	1.063741
C168	C	-1.110826	-0.932768	0.185956
C169	C	-1.031239	-0.969209	0.145475
C170	C	-1.071268	-1.014646	0.094954
C171	C	-1.190884	-1.023641	0.084913
C172	C	-1.270480	-0.987199	0.125396
C173	C	-1.230451	-0.941762	0.175917
H174	H	-0.942684	-0.962551	0.152906
H175	H	-1.012345	-1.041622	0.064986
H176	H	-1.220516	-1.057276	0.047514
H177	H	-1.359034	-0.993856	0.117964
H178	H	-1.289373	-0.914785	0.205885
C179	C	-0.367859	-0.989765	0.669465
C180	C	-0.367823	-0.989767	0.741440
C181	C	-0.293224	-1.033868	0.777460
C182	C	-0.218662	-1.077967	0.741504
C183	C	-0.218695	-1.077966	0.669525
C184	C	-0.293294	-1.033865	0.633506
H185	H	-0.423022	-0.957121	0.768061
H186	H	-0.293200	-1.033869	0.830744
H187	H	-0.163439	-1.110613	0.768168
H188	H	-0.163496	-1.110612	0.642905
H189	H	-0.293318	-1.033865	0.580222
H190	H	-0.633460	-0.144674	0.374884
H191	H	-0.387091	-0.144621	0.229735
H192	H	-0.387135	-0.263332	0.229689
H193	H	-0.633337	-0.832838	0.541305
H194	H	-0.387232	-0.548258	0.229591
C195	C	-0.652479	-0.821397	0.935584
C196	C	-0.652509	-0.821385	0.863609
C197	C	-0.727099	-0.777276	0.827593
C198	C	-0.801659	-0.733178	0.863553
C199	C	-0.801631	-0.733189	0.935532
C200	C	-0.727042	-0.777298	0.971547
H201	H	-0.597313	-0.854030	0.836986
H202	H	-0.727119	-0.777268	0.774309
H203	H	-0.856875	-0.700526	0.836892
H204	H	-0.856827	-0.700544	0.962155
H205	H	-0.727022	-0.777306	1.024831
C206	C	-0.908760	-0.933628	0.185999
C207	C	-0.842950	-0.909587	0.130415
C208	C	-0.803515	-0.955599	0.080238
C209	C	-0.829889	-1.025652	0.085645
C210	C	-0.895702	-1.049697	0.141231
C211	C	-0.935138	-1.003685	0.191408
H212	H	-0.823423	-0.857726	0.126411
H213	H	-0.754795	-0.937799	0.039089
H214	H	-0.800696	-1.059713	0.048500
H215	H	-0.915229	-1.101558	0.145235
H216	H	-0.983857	-1.021485	0.232556
C217	C	-0.907946	-0.872154	0.416751
C218	C	-0.788194	-0.874883	0.429566
C219	C	-0.747472	-0.889986	0.495719
C220	C	-0.826502	-0.902359	0.549056
C221	C	-0.946261	-0.899630	0.536242
C222	C	-0.986983	-0.884528	0.470089
H223	H	-0.729685	-0.865723	0.390082
H224	H	-0.658818	-0.892005	0.505205
H225	H	-0.796358	-0.913539	0.598026
H226	H	-1.004771	-0.908790	0.575726
H227	H	-1.075637	-0.882508	0.460603
H228	H	-0.917599	-0.839674	0.221575
C229	C	-0.309633	-0.916011	0.733807
C230	C	-0.204543	-0.921471	0.769785
C231	C	-0.099499	-0.926931	0.733789
C232	C	-0.099544	-0.926931	0.661814
C233	C	-0.204638	-0.921471	0.625831
C234	C	-0.309682	-0.916011	0.661827
H235	H	-0.204506	-0.921471	0.823069
H236	H	-0.021703	-0.930973	0.760427
H237	H	-0.021785	-0.930973	0.635168
H238	H	-0.204674	-0.921471	0.572547
H239	H	-0.387478	-0.911969	0.635190
H240	H	-0.633031	-0.832855	1.063655
H241	H	-0.336848	-0.914593	0.861874
C242	C	-0.367694	-0.989768	0.935686
C243	C	-0.247177	-0.984678	0.944665
C244	C	-0.172604	-1.028771	0.908702
C245	C	-0.218549	-1.077952	0.863760
C246	C	-0.339073	-1.083043	0.854779
C247	C	-0.413645	-1.038951	0.890742
H248	H	-0.213160	-0.948270	0.977936
H249	H	-0.083384	-1.025002	0.915351
H250	H	-0.163346	-1.110591	0.837138
H251	H	-0.373090	-1.119451	0.821508
H252	H	-0.502865	-1.042720	0.884093
H253	H	-1.099500	-0.838874	0.222129
