data_functionalizedCrystal
_audit_creation_method	'MofGen! by Chris Wilmer'
_symmetry_space_group_name_H-M	'P1'
_symmetry_Int_Tables_number	1
_symmetry_cell_setting	triclinic
loop_
_symmetry_equiv_pos_as_xyz
  x,y,z
_cell_length_a	11.792241
_cell_length_b	8.559649
_cell_length_c	7.088929
_cell_angle_alpha	95.324505
_cell_angle_beta	83.733449
_cell_angle_gamma	76.986040
loop_
_atom_site_label
_atom_site_type_symbol
_atom_site_fract_x
_atom_site_fract_y
_atom_site_fract_z
O1	O	-0.025388	2.103506	-0.158979
O2	O	0.033183	1.638809	-0.158985
O3	O	-0.162306	1.882436	-0.158969
O4	O	0.170101	1.859879	-0.158996
O5	O	-0.188484	1.914994	0.159009
O6	O	0.007005	1.671367	0.158992
O7	O	-0.051566	2.136064	0.158998
Cu8	Cu	-0.024671	1.906688	0.188029
Cu9	Cu	0.006288	1.868185	-0.188016
O10	O	0.143924	1.892437	0.158981
C11	C	0.024533	1.595596	0.000003
C12	C	0.037745	1.418331	0.000001
C13	C	-0.217557	1.897298	0.000019
C14	C	-0.343182	1.893057	0.000017
C15	C	-0.573178	1.885257	-0.000015
C16	C	-0.445191	1.889591	0.000003
C17	C	0.199174	1.877575	-0.000011
C18	C	0.324800	1.881814	-0.000021
C19	C	-0.042915	2.179276	0.000006
C20	C	-0.056126	2.356541	-0.000005
N21	N	-0.046447	1.933781	0.452519
N22	N	0.028054	1.841105	-0.452506
H23	H	0.128223	1.335615	-0.000026
H24	H	-0.146609	1.439263	0.000002
C25	C	0.132352	1.711336	0.437198
C26	C	0.150579	1.689311	0.217040
C27	C	0.254879	1.559540	0.106730
C28	C	0.340951	1.451795	0.216579
C29	C	0.322726	1.473817	0.436749
C30	C	0.218426	1.603588	0.547059
H31	H	0.086861	1.769073	0.135713
H32	H	0.268370	1.543238	-0.056255
H33	H	0.418160	1.355730	0.134921
H34	H	0.386444	1.394054	0.518076
H35	H	0.204936	1.619889	0.710044
C36	C	-0.150750	2.063556	0.562823
C37	C	-0.168744	2.085969	0.782982
C38	C	-0.273046	2.215741	0.893285
C39	C	-0.359352	2.323101	0.783430
C40	C	-0.341360	2.300692	0.563258
C41	C	-0.237059	2.170919	0.452955
H42	H	-0.104853	2.006492	0.864314
H43	H	-0.286364	2.232330	1.056271
H44	H	-0.436562	2.419166	0.865083
H45	H	-0.405252	2.380169	0.481926
H46	H	-0.223741	2.154331	0.289969
