data_functionalizedCrystal
_audit_creation_method	'MofGen! by Chris Wilmer'
_symmetry_space_group_name_H-M	'P1'
_symmetry_Int_Tables_number	1
_symmetry_cell_setting	triclinic
loop_
_symmetry_equiv_pos_as_xyz
  x,y,z
_cell_length_a	12.376457
_cell_length_b	14.971486
_cell_length_c	13.339070
_cell_angle_alpha	80.378288
_cell_angle_beta	75.601917
_cell_angle_gamma	78.698007
loop_
_atom_site_label
_atom_site_type_symbol
_atom_site_fract_x
_atom_site_fract_y
_atom_site_fract_z
O1	O	0.093867	-1.231874	0.112524
O2	O	0.593867	-0.731874	0.612524
O3	O	0.093897	-0.975382	0.128310
O4	O	0.593897	-0.475382	0.628310
O5	O	0.093882	-1.074191	-0.026882
O6	O	0.593882	-0.574191	0.473118
O7	O	0.093882	-1.133066	0.267716
O8	O	0.593882	-0.633066	0.767716
O9	O	-0.094127	-1.049488	0.011863
O10	O	0.405873	-0.549488	0.511863
O11	O	-0.094112	-0.950679	0.167055
O12	O	0.405888	-0.450679	0.667055
O13	O	-0.094142	-1.207171	0.151269
O14	O	0.405858	-0.707171	0.651269
Zn15	Zn	-0.123977	-1.075003	0.165314
Zn16	Zn	0.376023	-0.575003	0.665314
Zn17	Zn	0.123732	-1.107550	0.114265
Zn18	Zn	0.623732	-0.607550	0.614265
O19	O	-0.094127	-1.108363	0.306461
O20	O	0.405873	-0.608363	0.806461
C21	C	-0.000104	-0.929532	0.146976
C22	C	0.499896	-0.429532	0.646976
C23	C	-0.000092	-0.829713	0.144857
C24	C	0.499908	-0.329713	0.644857
C25	C	-0.000120	-1.051894	-0.045211
C26	C	0.499880	-0.551894	0.454789
C27	C	-0.000112	-1.022251	-0.157551
C28	C	0.499888	-0.522251	0.342449
N29	N	-0.293032	-1.052797	0.200152
N30	N	0.206968	-0.552797	0.700152
C31	C	-0.648036	-1.181305	-0.001472
C32	C	-0.148036	-0.681305	0.498528
C33	C	-0.529699	-1.196842	-0.025856
C34	C	-0.029699	-0.696842	0.474144
C35	C	-0.470526	-1.160832	0.030644
C36	C	0.029474	-0.660832	0.530644
C37	C	-0.529703	-1.109282	0.111532
C38	C	-0.029703	-0.609282	0.611532
C39	C	-0.648052	-1.093749	0.135923
C40	C	-0.148052	-0.593749	0.635923
C41	C	-0.470542	-1.073276	0.168039
C42	C	0.029458	-0.573276	0.668039
C43	C	-0.529719	-1.021727	0.248928
C44	C	-0.029719	-0.521727	0.748928
C45	C	-0.648056	-1.006196	0.273314
C46	C	-0.148056	-0.506196	0.773314
C47	C	-0.707229	-1.042206	0.216815
C48	C	-0.207229	-0.542206	0.716815
C49	C	-0.352193	-1.088809	0.143648
C50	C	0.147807	-0.588809	0.643648
C51	C	-0.352209	-1.001254	0.281044
C52	C	0.147791	-0.501254	0.781044
C53	C	-0.470546	-0.985716	0.305427
C54	C	0.029454	-0.485716	0.805427
N55	N	0.292787	-1.129762	0.079419
N56	N	0.792787	-0.629762	0.579419
C57	C	-0.000139	-1.253022	0.132603
C58	C	0.499861	-0.753022	0.632603
C59	C	-0.000143	-1.352841	0.134721
C60	C	0.499857	-0.852841	0.634721
C61	C	-0.000094	-0.795028	0.236030
C62	C	0.499906	-0.295028	0.736030
C63	C	-0.000111	-0.701233	0.234039
C64	C	0.499889	-0.201233	0.734039
C65	C	-0.000118	-0.642126	0.140872
C66	C	0.499882	-0.142126	0.640872
C67	C	-0.000119	-0.676816	0.049692
C68	C	0.499881	-0.176816	0.549692
C69	C	-0.000111	-0.770608	0.051686
C70	C	0.499889	-0.270608	0.551686
C71	C	-0.000135	-0.481325	0.045542
C72	C	0.499865	0.018675	0.545542
C73	C	-0.000142	-0.387526	0.043547
C74	C	0.499858	0.112474	0.543547
C75	C	-0.000135	-0.411950	0.227895
C76	C	0.499865	0.088050	0.727895
C77	C	-0.000126	-0.505742	0.229889
C78	C	0.499874	-0.005742	0.729889
C79	C	-0.000126	-0.540426	0.138708
C80	C	0.499874	-0.040426	0.638708
C81	C	-0.000139	-1.252744	-0.522059
C82	C	0.499861	-0.752744	-0.022059
C83	C	-0.000153	-1.280597	-0.416510
C84	C	0.499847	-0.780597	0.083490
C85	C	-0.000142	-1.216013	-0.351765
C86	C	0.499858	-0.716013	0.148235
C87	C	-0.000119	-1.123571	-0.392580
C88	C	0.499881	-0.623571	0.107420
C89	C	-0.000114	-1.095714	-0.498137
C90	C	0.499886	-0.595714	0.001863
C91	C	-0.000117	-1.058983	-0.327843
C92	C	0.499883	-0.558983	0.172157
C93	C	-0.000093	-0.966541	-0.368658
C94	C	0.499907	-0.466541	0.131342
C95	C	-0.000087	-0.938689	-0.474206
C96	C	0.499913	-0.438689	0.025794
C97	C	-0.000098	-1.003273	-0.538950
C98	C	0.499902	-0.503273	-0.038950
C99	C	-0.000122	-1.086840	-0.222286
C100	C	0.499878	-0.586840	0.277714
C101	C	-0.000096	-0.929810	-0.198364
C102	C	0.499904	-0.429810	0.301636
C103	C	-0.000082	-0.901957	-0.303913
C104	C	0.499918	-0.401957	0.196087
C105	C	-0.000123	-1.130659	0.324790
C106	C	0.499877	-0.630659	0.824790
C107	C	-0.000123	-1.160303	0.437128
C108	C	0.499877	-0.660303	0.937128
H109	H	-0.304022	-1.130781	0.077789
H110	H	0.195978	-0.630781	0.577789
Cl111	Cl	-0.856002	-1.022668	0.247466
Cl112	Cl	-0.356002	-0.522668	0.747466
Cl113	Cl	-0.277828	-0.955985	0.352080
Cl114	Cl	0.222172	-0.455985	0.852080
Cl115	Cl	0.000054	-0.968279	-0.671675
Cl116	Cl	0.500054	-0.468279	-0.171675
Cl117	Cl	-0.722425	-1.226579	-0.072484
Cl118	Cl	-0.222425	-0.726579	0.427516
Cl119	Cl	-0.000188	-0.313216	-0.073571
Cl120	Cl	0.499812	0.186784	0.426429
Cl121	Cl	-0.722451	-0.941404	0.375013
Cl122	Cl	-0.222451	-0.441404	0.875013
Cl123	Cl	-0.544951	-0.920914	0.407114
Cl124	Cl	-0.044951	-0.420914	0.907114
Cl125	Cl	-0.000090	-0.848612	-0.116976
Cl126	Cl	0.499910	-0.348612	0.383024
Cl127	Cl	-0.000151	-1.203048	-0.170989
Cl128	Cl	0.499849	-0.703048	0.329011
H129	H	-0.000063	-0.826689	-0.337159
H130	H	0.499937	-0.326689	0.162841
H131	H	-0.000174	-1.355863	-0.383286
H132	H	0.499826	-0.855863	0.116714
H133	H	-0.000087	-0.843148	0.311897
H134	H	0.499913	-0.343148	0.811897
H135	H	-0.000136	-0.509560	-0.028707
H136	H	0.499864	-0.009560	0.471293
H137	H	-0.000154	-1.238697	-0.265823
H138	H	0.499846	-0.738697	0.234177
Cl139	Cl	-0.000073	-0.822474	-0.525509
Cl140	Cl	0.499927	-0.322474	-0.025509
H141	H	-0.481522	-1.238814	-0.091713
H142	H	0.018478	-0.738814	0.408287
Cl143	Cl	-0.321757	-1.180362	-0.000014
Cl144	Cl	0.178243	-0.680362	0.499986
H145	H	-0.000111	-0.672999	0.308281
H146	H	0.499889	-0.172999	0.808281
Cl147	Cl	-0.000174	-1.333921	-0.603450
Cl148	Cl	0.499826	-0.833921	-0.103450
Cl149	Cl	-0.000105	-0.580049	0.347012
Cl150	Cl	0.499895	-0.080049	0.847012
H151	H	-0.000140	-0.383706	0.302138
H152	H	0.499860	0.116294	0.802138
Cl153	Cl	-0.000135	-0.602508	-0.067432
Cl154	Cl	0.499865	-0.102508	0.432568
H155	H	-0.000109	-0.798846	-0.022557
H156	H	0.499891	-0.298846	0.477443
