data_functionalizedCrystal
_audit_creation_method	'MofGen! by Chris Wilmer'
_symmetry_space_group_name_H-M	'P1'
_symmetry_Int_Tables_number	1
_symmetry_cell_setting	triclinic
loop_
_symmetry_equiv_pos_as_xyz
  x,y,z
_cell_length_a	6.817900
_cell_length_b	17.982783
_cell_length_c	17.982968
_cell_angle_alpha	95.926085
_cell_angle_beta	102.451960
_cell_angle_gamma	102.448572
loop_
_atom_site_label
_atom_site_type_symbol
_atom_site_fract_x
_atom_site_fract_y
_atom_site_fract_z
V1	V	-4.009918	-0.106127	-0.237867
V2	V	-3.509918	0.393873	0.262133
O3	O	-4.003034	0.004365	-0.233013
O4	O	-3.503034	0.504365	0.266987
O5	O	-3.956470	-0.209725	-0.236553
O6	O	-3.456470	0.290275	0.263447
O7	O	-3.956489	-0.104816	-0.341466
O8	O	-3.456489	0.395184	0.158534
O9	O	-4.003015	-0.101269	-0.127374
O10	O	-3.503015	0.398731	0.372626
V11	V	-4.494852	-0.092872	-0.224613
V12	V	-3.994852	0.407128	0.275387
O13	O	-4.268082	-0.135201	-0.266940
O14	O	-3.768082	0.364799	0.233060
O15	O	-4.686885	-0.063798	-0.195540
O16	O	-4.186885	0.436202	0.304460
O17	O	-4.325093	0.010726	-0.225927
O18	O	-3.825093	0.510726	0.274073
O19	O	-4.619133	-0.203364	-0.229466
O20	O	-4.119133	0.296636	0.270534
O21	O	-4.619152	-0.097730	-0.335106
O22	O	-4.119152	0.402270	0.164894
O23	O	-4.325074	-0.094183	-0.121014
O24	O	-3.825074	0.405817	0.378986
C25	C	-3.800406	-0.234970	-0.232881
C26	C	-3.300406	0.265030	0.267119
C27	C	-3.837959	-0.319665	-0.232498
C28	C	-3.337959	0.180335	0.267502
C29	C	-3.819323	-0.348365	-0.162514
C30	C	-3.319323	0.151635	0.337486
C31	C	-3.854628	-0.427945	-0.162156
C32	C	-3.354628	0.072055	0.337844
C33	C	-3.908554	-0.478825	-0.231782
C34	C	-3.408554	0.021175	0.268218
C35	C	-3.927196	-0.450120	-0.301772
C36	C	-3.427196	0.049880	0.198228
C37	C	-3.891906	-0.370541	-0.302129
C38	C	-3.391906	0.129459	0.197871
C39	C	-4.069522	-0.771054	-0.300333
C40	C	-3.569522	-0.271054	0.199667
C41	C	-4.104806	-0.850638	-0.299970
C42	C	-3.604806	-0.350638	0.200030
C43	C	-4.032244	-0.828458	-0.160359
C44	C	-3.532244	-0.328458	0.339641
C45	C	-3.996953	-0.748879	-0.160716
C46	C	-3.496953	-0.248879	0.339284
C47	C	-4.015609	-0.720182	-0.230705
C48	C	-3.515609	-0.220182	0.269295
C49	C	-3.977331	-0.633891	-0.231093
C50	C	-3.477331	-0.133891	0.268907
C51	C	-3.946818	-0.565113	-0.231396
C52	C	-3.446818	-0.065113	0.268604
C53	C	-3.800429	-0.101148	-0.366707
C54	C	-3.300429	0.398852	0.133293
C55	C	-3.837995	-0.100762	-0.451402
C56	C	-3.337995	0.399238	0.048598
C57	C	-4.037378	-0.104398	-0.495085
C58	C	-3.537378	0.395602	0.004915
C59	C	-4.072664	-0.104036	-0.574664
C60	C	-3.572664	0.395964	-0.074664
C61	C	-3.908566	-0.100041	-0.610561
C62	C	-3.408566	0.399959	-0.110561
C63	C	-3.709166	-0.096402	-0.566872
C64	C	-3.209166	0.403598	-0.066872
C65	C	-3.673880	-0.096760	-0.487293
C66	C	-3.173880	0.403240	0.012707
C67	C	-3.851463	-0.094959	-0.887805
C68	C	-3.351463	0.405041	-0.387805
C69	C	-3.886766	-0.094604	-0.967390
C70	C	-3.386766	0.405396	-0.467390
C71	C	-4.250247	-0.102235	-0.975176
C72	C	-3.750247	0.397765	-0.475176
C73	C	-4.214961	-0.102593	-0.895597
C74	C	-3.714961	0.397407	-0.395597
C75	C	-4.015563	-0.098949	-0.851915
C76	C	-3.515563	0.401051	-0.351915
C77	C	-3.977304	-0.099342	-0.765625
C78	C	-3.477304	0.400658	-0.265625
C79	C	-3.946825	-0.099655	-0.696849
C80	C	-3.446825	0.400345	-0.196849
C81	C	-4.144500	0.035967	-0.229596
C82	C	-3.644500	0.535967	0.270404
C83	C	-4.086185	0.120661	-0.229985
C84	C	-3.586185	0.620661	0.270015
C85	C	-4.144477	-0.097854	-0.095769
C86	C	-3.644477	0.402146	0.404231
C87	C	-4.086149	-0.098236	-0.011073
C88	C	-3.586149	0.401764	0.488927
H89	H	-4.148719	-0.892063	-0.356672
H90	H	-3.648719	-0.392063	0.143328
C91	C	-4.090001	-0.739497	-0.377322
C92	C	-3.590001	-0.239497	0.122678
N93	N	-4.105411	-0.715725	-0.435314
N94	N	-3.605411	-0.215725	0.064686
H95	H	-4.235015	-0.106992	-0.610227
H96	H	-3.735015	0.393008	-0.110227
C97	C	-3.986497	-0.506090	-0.378362
C98	C	-3.486497	-0.006090	0.121638
N99	N	-4.031146	-0.548246	-0.436051
N100	N	-3.531146	-0.048246	0.063949
C101	C	-3.912401	-0.338973	-0.379117
C102	C	-3.412401	0.161027	0.120883
N103	N	-3.927843	-0.315197	-0.437107
N104	N	-3.427843	0.184803	0.062893
H105	H	-4.171013	-0.107656	-0.465865
H106	H	-3.671013	0.392344	0.034135
C107	C	-4.395482	-0.106983	-0.856115
C108	C	-3.895482	0.393017	-0.356115
N109	N	-4.531453	-0.110285	-0.826378
N110	N	-4.031453	0.389715	-0.326378
C111	C	-4.469588	-0.106233	-1.023232
C112	C	-3.969588	0.393767	-0.523232
N113	N	-4.634792	-0.109244	-1.059427
N114	N	-4.134792	0.390756	-0.559427
C115	C	-3.528615	-0.091927	-0.606348
C116	C	-3.028615	0.408073	-0.106348
N117	N	-3.392607	-0.088531	-0.636076
N118	N	-2.892607	0.411469	-0.136076
H119	H	-3.689120	-0.092020	-0.852252
H120	H	-3.189120	0.407980	-0.352252
C121	C	-3.937629	-0.692915	-0.084122
C122	C	-3.437629	-0.192915	0.415878
N123	N	-3.892953	-0.650764	-0.026429
N124	N	-3.392953	-0.150764	0.473571
H125	H	-3.775397	-0.306943	-0.105815
H126	H	-3.275397	0.193057	0.394185
C127	C	-3.834114	-0.459510	-0.085167
C128	C	-3.334114	0.040490	0.414833
N129	N	-3.818660	-0.483284	-0.027176
N130	N	-3.318660	0.016716	0.472824
C131	C	-3.454547	-0.092762	-0.439243
C132	C	-2.954547	0.407238	0.060757
N133	N	-3.289338	-0.089749	-0.403052
N134	N	-2.789338	0.410251	0.096948
H135	H	-4.017064	-0.851832	-0.103370
H136	H	-3.517064	-0.351832	0.396630
H137	H	-3.753126	-0.091350	-0.996613
H138	H	-3.253126	0.408650	-0.496613
