data_functionalizedCrystal
_audit_creation_method	'MofGen! by Chris Wilmer'
_symmetry_space_group_name_H-M	'P1'
_symmetry_Int_Tables_number	1
_symmetry_cell_setting	triclinic
loop_
_symmetry_equiv_pos_as_xyz
  x,y,z
_cell_length_a	10.685741
_cell_length_b	12.759401
_cell_length_c	12.759393
_cell_angle_alpha	90.020938
_cell_angle_beta	94.345812
_cell_angle_gamma	94.365794
loop_
_atom_site_label
_atom_site_type_symbol
_atom_site_fract_x
_atom_site_fract_y
_atom_site_fract_z
Zn1	Zn	0.502229	1.638415	0.626126
Zn2	Zn	0.713265	1.651814	0.463937
Zn3	Zn	0.502296	1.462718	0.450466
Zn4	Zn	0.713177	1.476208	0.639569
O5	O	0.607742	1.557289	0.545025
O6	O	0.530232	1.787214	0.604624
O7	O	0.685345	1.626692	0.315133
O8	O	0.325714	1.474771	0.462504
O9	O	0.685280	1.797059	0.485464
O10	O	0.325664	1.603854	0.591561
O11	O	0.530347	1.487764	0.305236
O12	O	0.530261	1.317486	0.475539
O13	O	0.685129	1.497763	0.784803
O14	O	0.685194	1.327397	0.614472
O15	O	0.530147	1.616936	0.774927
O16	O	0.889827	1.639774	0.498499
O17	O	0.889762	1.510757	0.627535
C18	C	0.607726	1.284320	0.545003
C19	C	0.607750	1.167545	0.545020
C20	C	0.278625	1.536313	0.524030
C21	C	0.138376	1.527374	0.515083
C22	C	0.688547	1.117880	0.617265
C23	C	0.688551	1.008156	0.617286
C24	C	0.526960	0.997773	0.472809
C25	C	0.526950	1.107494	0.472793
C26	C	0.935578	1.578212	0.565961
C27	C	1.075828	1.587259	0.574952
C28	C	0.607621	1.557360	0.819050
C29	C	0.607569	1.557390	0.935824
C30	C	0.607758	1.831323	0.545047
C31	C	0.607765	1.948100	0.545057
C32	C	0.607771	1.557273	0.272059
C33	C	0.607468	1.557423	0.155264
C34	C	0.526857	1.619447	0.985544
C35	C	0.526802	1.619461	1.095265
C36	C	0.688183	1.495359	1.105536
C37	C	0.688231	1.495340	0.995817
H38	H	0.754337	1.166770	0.676079
H39	H	0.753955	1.444798	0.955334
O40	O	0.767159	0.960081	0.687504
C41	C	0.838443	1.036615	0.751264
H42	H	0.842742	1.115079	0.708485
H43	H	0.937879	1.011265	0.768687
H44	H	0.792354	1.045386	0.828176
O45	O	0.448300	0.939476	0.402745
C46	C	0.322573	0.958293	0.417830
H47	H	0.316320	0.988094	0.501369
H48	H	0.260226	0.882152	0.404890
H49	H	0.289505	1.019847	0.359431
H50	H	0.461174	1.669969	0.936700
O51	O	0.448595	1.155708	0.402467
C52	C	0.475998	1.130579	0.299470
H53	H	0.576795	1.106846	0.300464
H54	H	0.465049	1.202015	0.246875
H55	H	0.408312	1.062558	0.267784
O56	O	0.139995	1.656436	0.644383
C57	C	0.216222	1.601439	0.717019
H58	H	0.176419	1.516188	0.720992
H59	H	0.217818	1.639559	0.797978
H60	H	0.316067	1.604100	0.690825
H61	H	0.084625	1.469265	0.456976
H62	H	0.461076	1.669993	1.135741
O63	O	0.766499	1.435189	1.163975
C64	C	0.749132	1.448492	1.271478
H65	H	0.707809	1.526943	1.283841
H66	H	0.843629	1.447394	1.319203
H67	H	0.681918	1.381899	1.298318
