data_functionalizedCrystal
_audit_creation_method	'MofGen! by Chris Wilmer'
_symmetry_space_group_name_H-M	'P1'
_symmetry_Int_Tables_number	1
_symmetry_cell_setting	triclinic
loop_
_symmetry_equiv_pos_as_xyz
  x,y,z
_cell_length_a	18.101398
_cell_length_b	12.759400
_cell_length_c	12.759393
_cell_angle_alpha	90.031564
_cell_angle_beta	89.972988
_cell_angle_gamma	89.990049
loop_
_atom_site_label
_atom_site_type_symbol
_atom_site_fract_x
_atom_site_fract_y
_atom_site_fract_z
Zn1	Zn	1.132225	0.418337	-0.594220
Zn2	Zn	1.132151	0.594056	-0.418540
Zn3	Zn	1.008378	0.418377	-0.418533
Zn4	Zn	1.008370	0.593960	-0.594155
O5	O	1.070281	0.506182	-0.506362
O6	O	1.235848	0.441670	-0.570946
O7	O	1.115704	0.570808	-0.271518
O8	O	1.024841	0.271351	-0.441863
O9	O	1.235794	0.570770	-0.441874
O10	O	1.115831	0.271321	-0.570939
O11	O	1.024769	0.441738	-0.271513
O12	O	0.904744	0.441645	-0.441800
O13	O	1.024828	0.570606	-0.741185
O14	O	0.904739	0.570645	-0.570829
O15	O	1.115823	0.441577	-0.741233
O16	O	1.115697	0.741064	-0.441812
O17	O	1.024756	0.740994	-0.570836
C18	C	0.877871	0.506140	-0.506307
C19	C	0.795557	0.506147	-0.506309
C20	C	1.070237	0.779150	-0.506340
C21	C	1.070286	0.895926	-0.506366
C22	C	1.070333	0.506076	-0.780396
C23	C	1.070355	0.506031	-0.897172
C24	C	0.496466	0.506212	-0.506397
C25	C	0.527770	0.424643	-0.425612
C26	C	0.613388	0.424862	-0.425267
C27	C	0.644848	0.506179	-0.506353
C28	C	0.613751	0.616855	-0.476108
C29	C	0.528106	0.616402	-0.475546
C30	C	0.528078	0.478067	-0.617619
C31	C	0.613728	0.475603	-0.617011
C32	C	0.728708	0.506167	-0.506330
C33	C	0.412606	0.506232	-0.506418
C34	C	1.263443	0.506226	-0.506418
C35	C	1.345757	0.506245	-0.506442
C36	C	1.070345	0.232149	-0.506407
C37	C	1.070373	0.115372	-0.506426
C38	C	1.117692	0.950790	-0.439258
C39	C	1.117737	1.060514	-0.439290
C40	C	1.022965	1.060501	-0.573542
C41	C	1.022924	0.950779	-0.573514
C42	C	1.165054	0.895938	-0.372109
C43	C	1.212462	0.950802	-0.304995
C44	C	1.212508	1.060526	-0.305027
C45	C	1.165145	1.115386	-0.372174
C46	C	1.117743	0.438839	-0.952061
C47	C	1.117761	0.438801	-1.061785
C48	C	1.023000	0.573156	-1.061723
C49	C	1.022980	0.573188	-0.952001
C50	C	1.165119	0.371682	-0.897233
C51	C	1.212511	0.304485	-0.952121
C52	C	1.212529	0.304447	-1.061846
C53	C	1.165154	0.371606	-1.116681
C54	C	1.070272	0.506212	-0.233395
C55	C	1.070393	0.505961	-0.116619
H56	H	0.507183	0.342322	-0.444361
H57	H	0.506221	0.443040	-0.343677
H58	H	1.165191	1.204730	-0.372203
O59	O	1.258401	0.897353	-0.239808
C60	C	1.300367	0.728327	-0.180303
C61	C	1.248290	0.788722	-0.254163
H62	H	1.292222	0.640489	-0.191899
H63	H	1.287401	0.749908	-0.095552
H64	H	1.360076	0.749884	-0.198832
H65	H	1.188564	0.767198	-0.235729
H66	H	1.261320	0.767136	-0.338892
H67	H	0.984323	0.906108	-0.628161
H68	H	0.634412	0.342791	-0.444225
O69	O	0.504354	0.644841	-0.378478
C70	C	0.538778	0.696790	-0.203596
C71	C	0.565773	0.664576	-0.313475
H72	H	0.588420	0.712776	-0.151017
H73	H	0.504244	0.630814	-0.168550
H74	H	0.503675	0.770707	-0.209902
H75	H	0.600905	0.590684	-0.307260
H76	H	0.600267	0.730614	-0.348480
H77	H	1.165163	0.371558	-1.206026
H78	H	0.633842	0.443469	-0.342853
O79	O	0.503521	0.691433	-0.542688
C80	C	0.536437	0.827599	-0.664873
C81	C	0.564375	0.742684	-0.588852
H82	H	0.585623	0.869044	-0.702235
H83	H	0.501549	0.887029	-0.620066
H84	H	0.501446	0.789530	-0.728659
H85	H	0.599396	0.780661	-0.525050
H86	H	0.599223	0.683264	-0.633733
H87	H	0.984404	1.105177	-0.628209
H88	H	0.634130	0.679259	-0.533107
O89	O	0.504019	0.548870	-0.689561
C90	C	0.505293	0.603145	-0.870411
C91	C	0.532613	0.522901	-0.789053
H92	H	0.528386	0.582165	-0.950872
H93	H	0.524859	0.684869	-0.847292
H94	H	0.442355	0.601766	-0.873305
H95	H	0.595548	0.524186	-0.786117
H96	H	0.512991	0.441214	-0.812203
O97	O	1.258422	0.239194	-0.898745
C98	C	1.268395	0.097343	-0.774955
C99	C	1.216319	0.171241	-0.835314
H100	H	1.234375	0.042370	-0.723673
H101	H	1.307088	0.145544	-0.723517
H102	H	1.302281	0.049358	-0.833058
H103	H	1.182385	0.219242	-0.777286
H104	H	1.177675	0.122980	-0.886768
O105	O	0.977059	0.638364	-1.115149
C106	C	0.935072	0.697822	-1.284157
C107	C	0.987147	0.623933	-1.223785
H108	H	0.943199	0.686164	-1.371999
H109	H	0.948055	0.782570	-1.262642
H110	H	0.875364	0.679379	-1.262513
H111	H	1.046873	0.642281	-1.245396
H112	H	0.974100	0.539207	-1.245305
O113	O	1.258630	0.239140	-1.115003
C114	C	1.352588	0.105841	-1.103479
C115	C	1.300424	0.179763	-1.043151
H116	H	1.386381	0.057800	-1.045412
H117	H	1.391356	0.154021	-1.154821
H118	H	1.318600	0.050922	-1.154877
H119	H	1.334352	0.234697	-0.991695
H120	H	1.261653	0.131518	-0.991875
O121	O	0.976940	0.638579	-0.898837
C122	C	0.882954	0.771840	-0.910345
C123	C	0.935063	0.697847	-0.970683
H124	H	0.849071	0.819761	-0.968405
H125	H	0.916915	0.826858	-0.859014
H126	H	0.844260	0.723615	-0.858934
H127	H	0.973767	0.745987	-1.022150
H128	H	0.901056	0.642826	-1.021948
H129	H	0.635168	0.641136	-0.395678
H130	H	0.506491	0.398766	-0.645119
H131	H	0.634057	0.394157	-0.639818
O132	O	0.639402	0.541299	-0.692597
C133	C	0.746140	0.610427	-0.781814
C134	C	0.717166	0.535992	-0.696172
H135	H	0.809015	0.606145	-0.784747
H136	H	0.728351	0.694109	-0.763198
H137	H	0.722492	0.586076	-0.860958
H138	H	0.740800	0.560247	-0.616994
H139	H	0.734947	0.452327	-0.714879
H140	H	1.165020	0.806595	-0.372073
H141	H	1.165111	0.371708	-0.807890
H142	H	1.251116	1.105193	-0.250387
