data_functionalizedCrystal
_audit_creation_method	'MofGen! by Chris Wilmer'
_symmetry_space_group_name_H-M	'P1'
_symmetry_Int_Tables_number	1
_symmetry_cell_setting	triclinic
loop_
_symmetry_equiv_pos_as_xyz
  x,y,z
_cell_length_a	14.044202
_cell_length_b	7.088929
_cell_length_c	8.559649
_cell_angle_alpha	95.344185
_cell_angle_beta	98.514317
_cell_angle_gamma	96.775746
loop_
_atom_site_label
_atom_site_type_symbol
_atom_site_fract_x
_atom_site_fract_y
_atom_site_fract_z
O1	O	-1.219141	0.158877	0.396207
O2	O	-0.944173	0.158902	0.382436
O3	O	-1.105882	0.158885	0.160173
O4	O	-1.057432	0.158894	0.618470
O5	O	-1.127498	-0.159092	0.130397
O6	O	-0.965789	-0.159075	0.352660
O7	O	-1.240757	-0.159101	0.366431
Cu8	Cu	-1.105247	-0.188122	0.356826
Cu9	Cu	-1.079683	0.187924	0.392040
O10	O	-1.079048	-0.159084	0.588693
C11	C	-0.920105	-0.000083	0.361524
C12	C	-0.816186	-0.000073	0.343555
N13	N	-1.123234	-0.452612	0.332058
C14	C	-0.559016	-0.000089	0.438135
C15	C	-0.625920	-0.000089	0.310727
C16	C	-0.731794	-0.000080	0.328997
C17	C	-0.453132	-0.000098	0.419867
C18	C	-0.264826	-0.000110	0.387340
C19	C	-0.368745	-0.000105	0.405300
C20	C	-1.120362	-0.000100	0.086279
C21	C	-1.131290	-0.000090	-0.089542
N22	N	-1.061705	0.452413	0.416797
C23	C	-1.064568	-0.000094	0.662588
C24	C	-1.053639	-0.000091	0.838410
H25	H	-0.603675	0.000044	0.187942
H26	H	-0.581251	-0.000082	0.560924
C27	C	-0.975552	-0.437277	0.535422
N28	N	-0.910659	-0.354179	0.624770
C29	C	-1.209391	-0.562929	0.213426
N30	N	-1.274282	-0.646022	0.124072
C31	C	-1.232407	-0.000110	-0.187933
N32	N	-1.308567	-0.000123	-0.262042
C33	C	-0.952527	-0.000070	-0.063206
N34	N	-0.876368	-0.000051	0.010908
