data_functionalizedCrystal
_audit_creation_method	'MofGen! by Chris Wilmer'
_symmetry_space_group_name_H-M	'P1'
_symmetry_Int_Tables_number	1
_symmetry_cell_setting	triclinic
loop_
_symmetry_equiv_pos_as_xyz
  x,y,z
_cell_length_a	10.654556
_cell_length_b	15.021413
_cell_length_c	10.654550
_cell_angle_alpha	89.995793
_cell_angle_beta	84.486234
_cell_angle_gamma	90.005735
loop_
_atom_site_label
_atom_site_type_symbol
_atom_site_fract_x
_atom_site_fract_y
_atom_site_fract_z
O1	O	1.667843	0.073998	0.176420
O2	O	1.302366	0.074007	0.193218
O3	O	1.493508	0.073997	0.002080
O4	O	1.476702	0.074009	0.367558
O5	O	1.493477	-0.074067	0.002108
O6	O	1.302335	-0.074057	0.193245
O7	O	1.667813	-0.074066	0.176448
Zn8	Zn	1.485069	-0.097570	0.184851
Zn9	Zn	1.485110	0.097511	0.184815
O10	O	1.476671	-0.074056	0.367586
C11	C	1.255553	-0.000024	0.191997
C12	C	1.116110	-0.000020	0.188302
N13	N	1.485051	-0.230707	0.184875
C14	C	0.919581	0.080682	0.183084
C15	C	1.050604	0.080688	0.186548
C16	C	1.050589	-0.080740	0.186578
C17	C	0.919570	-0.080744	0.183105
C18	C	1.396653	-0.470386	0.273215
C19	C	1.510350	-0.529722	0.298582
C20	C	1.485083	-0.412314	0.184844
C21	C	1.371417	-0.529720	0.159505
C22	C	1.485104	-0.587738	0.184816
C23	C	1.598838	-0.470344	0.210268
C24	C	1.459829	-0.470336	0.071141
C25	C	1.573608	-0.529646	0.096460
C26	C	1.485069	-0.311257	0.184863
C27	C	1.485130	-0.688794	0.184797
C28	C	1.714626	-0.000033	0.177669
C29	C	1.854069	-0.000031	0.181364
C30	C	1.492258	-0.000035	-0.044704
C31	C	1.488567	-0.000033	-0.184147
N32	N	1.485138	0.230649	0.184781
C33	C	1.601108	-0.000036	-0.263630
C34	C	1.597631	-0.000025	-0.394651
C35	C	1.369063	-0.000013	-0.366693
C36	C	1.372540	-0.000017	-0.235675
C37	C	1.477920	-0.000022	0.414370
C38	C	1.481612	-0.000018	0.553813
H39	H	0.866254	0.146405	0.181665
H40	H	1.438416	-0.444231	-0.024973
O41	O	1.114325	0.159070	0.188004
C42	C	1.203407	0.163895	0.081448
H43	H	1.173199	0.118092	0.004517
H44	H	1.299702	0.142216	0.108628
C45	C	1.248546	0.316581	0.126746
C46	C	1.211438	0.260330	0.032254
H47	H	1.253505	0.376066	0.096403
H48	H	1.188533	0.313330	0.198538
H49	H	1.328788	0.298504	0.149388
H50	H	1.131190	0.278400	0.009626
H51	H	1.271438	0.263586	-0.039542
O52	O	1.114378	-0.159083	0.188116
C53	C	1.203424	-0.163926	0.081534
H54	H	1.227484	-0.093849	0.045840
H55	H	1.162227	-0.203763	0.004173
C56	C	1.294289	-0.296132	0.161672
C57	C	1.323848	-0.210062	0.117838
H58	H	1.368571	-0.324594	0.184062
H59	H	1.234295	-0.292872	0.233476
H60	H	1.259957	-0.329318	0.097196
H61	H	1.358165	-0.176874	0.182318
H62	H	1.383851	-0.213317	0.046045
H63	H	0.866229	-0.146475	0.181703
H64	H	1.321948	-0.444366	0.348009
O65	O	1.713780	-0.000199	-0.213516
C66	C	1.722610	-0.076874	-0.138537
H67	H	1.656701	-0.130471	-0.170082
H68	H	1.694550	-0.059539	-0.035486
C69	C	1.940145	-0.045816	-0.114486
C70	C	1.859201	-0.111647	-0.153236
H71	H	2.024401	-0.067264	-0.123547
H72	H	1.934196	0.005844	-0.164996
H73	H	1.916746	-0.031376	-0.028612
H74	H	1.882591	-0.126077	-0.239112
H75	H	1.865158	-0.163310	-0.102740
O76	O	1.707072	-0.000069	-0.471681
C77	C	1.810218	-0.000060	-0.398099
H78	H	1.779183	-0.028096	-0.300607
H79	H	1.845748	0.070970	-0.388463
C80	C	1.954934	-0.023696	-0.582178
C81	C	1.916819	-0.058137	-0.462440
H82	H	2.020694	-0.059517	-0.621868
H83	H	1.885444	-0.023699	-0.631753
H84	H	1.984534	0.035495	-0.574131
H85	H	1.887205	-0.117323	-0.470490
H86	H	1.986307	-0.058146	-0.412868
H87	H	1.531729	-0.555807	0.394726
O88	O	1.713437	-0.439220	0.236083
C89	C	1.712021	-0.345363	0.235852
H90	H	1.610715	-0.320821	0.254624
H91	H	1.754159	-0.319911	0.140135
C92	C	1.914827	-0.340519	0.316484
C93	C	1.790402	-0.310375	0.339551
H94	H	1.963181	-0.318935	0.380446
H95	H	1.915784	-0.403751	0.316635
H96	H	1.949925	-0.319306	0.236717
H97	H	1.755302	-0.331597	0.419309
H98	H	1.789441	-0.247145	0.339415
H99	H	1.280890	-0.000012	-0.170956
O100	O	1.663089	-0.560460	0.007421
C101	C	1.782709	-0.530023	0.034582
H102	H	1.780028	-0.513466	0.139222
H103	H	1.808911	-0.467827	-0.023443
C104	C	1.884897	-0.623492	-0.127235
C105	C	1.881606	-0.603164	0.001287
H106	H	1.945903	-0.668606	-0.147779
H107	H	1.804306	-0.643996	-0.145539
H108	H	1.906727	-0.571656	-0.175575
H109	H	1.859760	-0.654996	0.049623
H110	H	1.962195	-0.582670	0.019598
H111	H	1.275283	-0.555803	0.138086
H112	H	1.274598	-0.000001	-0.408664
