data_functionalizedCrystal
_audit_creation_method	'MofGen! by Chris Wilmer'
_symmetry_space_group_name_H-M	'P1'
_symmetry_Int_Tables_number	1
_symmetry_cell_setting	triclinic
loop_
_symmetry_equiv_pos_as_xyz
  x,y,z
_cell_length_a	15.944493
_cell_length_b	19.188930
_cell_length_c	15.021413
_cell_angle_alpha	89.998889
_cell_angle_beta	89.993251
_cell_angle_gamma	83.309913
loop_
_atom_site_label
_atom_site_type_symbol
_atom_site_fract_x
_atom_site_fract_y
_atom_site_fract_z
O1	O	1.114223	0.089846	-0.074030
O2	O	1.614223	0.589846	0.425970
O3	O	0.869625	0.100990	-0.074036
O4	O	1.369625	0.600990	0.425964
O5	O	0.998983	-0.006221	-0.074016
O6	O	1.498983	0.493779	0.425984
O7	O	0.984865	0.197057	-0.074051
O8	O	1.484865	0.697057	0.425949
O9	O	0.998962	-0.006205	0.074048
O10	O	1.498962	0.493795	0.574048
O11	O	0.869604	0.101005	0.074028
O12	O	1.369604	0.601005	0.574028
O13	O	1.114202	0.089861	0.074034
O14	O	1.614202	0.589861	0.574034
Zn15	Zn	0.991900	0.095436	0.097539
Zn16	Zn	1.491900	0.595436	0.597539
Zn17	Zn	0.991927	0.095416	-0.097542
Zn18	Zn	1.491927	0.595416	0.402458
O19	O	0.984845	0.197072	0.074013
O20	O	1.484845	0.697072	0.574013
C21	C	0.838322	0.100542	-0.000004
C22	C	1.338322	0.600542	0.499996
C23	C	0.745078	0.099177	-0.000006
C24	C	1.245078	0.599177	0.499994
C25	C	0.998515	-0.032225	0.000019
C26	C	1.498515	0.467775	0.500019
C27	C	0.997143	-0.109733	0.000027
C28	C	1.497143	0.390267	0.500027
C29	C	0.509082	0.162283	-0.000017
C30	C	1.009082	0.662283	0.499983
C31	C	0.458641	0.128260	0.072996
C32	C	0.958641	0.628260	0.572996
C33	C	0.574367	0.096646	-0.000004
C34	C	1.074367	0.596646	0.499996
C35	C	0.458666	0.128229	-0.072984
C36	C	0.958666	0.628229	0.427016
C37	C	0.409466	0.094207	-0.000005
C38	C	0.909466	0.594207	0.499995
C39	C	0.525154	0.062641	0.073070
C40	C	1.025154	0.562641	0.573070
C41	C	0.525182	0.062620	-0.072976
C42	C	1.025182	0.562620	0.427024
C43	C	0.474774	0.028548	0.000055
C44	C	0.974774	0.528548	0.500055
C45	C	0.669361	0.098053	-0.000002
C46	C	1.169361	0.598053	0.499998
C47	C	0.314474	0.092795	-0.000001
C48	C	0.814474	0.592795	0.499999
C49	C	1.073046	-0.154474	0.000033
C50	C	1.573046	0.345526	0.500033
C51	C	1.071756	-0.227301	0.000018
C52	C	1.571756	0.272699	0.500018
C53	C	0.994560	-0.255384	0.000016
C54	C	1.494560	0.244616	0.500016
C55	C	0.918647	-0.210633	0.000005
C56	C	1.418647	0.289367	0.500005
C57	C	0.919939	-0.137808	0.000010
C58	C	1.419939	0.362192	0.500010
N59	N	0.935545	-0.363526	0.050404
N60	N	1.435545	0.136474	0.550404
N61	N	0.934324	-0.432707	0.050400
N62	N	1.434324	0.067293	0.550400
C63	C	0.990664	-0.474802	-0.000002
C64	C	1.490664	0.025198	0.499998
N65	N	1.048285	-0.445102	-0.050390
N66	N	1.548285	0.054898	0.449610
N67	N	1.049509	-0.375915	-0.050383
N68	N	1.549509	0.124085	0.449617
C69	C	0.993151	-0.334349	0.000009
C70	C	1.493151	0.165651	0.500009
C71	C	1.065174	-0.598510	-0.000013
C72	C	1.565174	-0.098510	0.499987
C73	C	1.063882	-0.671338	-0.000033
C74	C	1.563882	-0.171338	0.499967
C75	C	0.910770	-0.654669	-0.000037
C76	C	1.410770	-0.154669	0.499963
C77	C	0.912065	-0.581842	-0.000026
C78	C	1.412065	-0.081842	0.499974
C79	C	0.989269	-0.553768	-0.000010
C80	C	1.489269	-0.053768	0.499990
C81	C	1.145506	0.090309	0.000000
C82	C	1.645506	0.590309	0.500000
C83	C	1.238749	0.091675	-0.000004
C84	C	1.738749	0.591675	0.499996
C85	C	0.985312	0.223076	-0.000023
C86	C	1.485312	0.723076	0.499977
C87	C	0.986685	0.300584	-0.000037
C88	C	1.486685	0.800584	0.499963
N89	N	0.991888	0.095449	0.230677
N90	N	1.491888	0.595449	0.730677
N91	N	0.991946	0.095397	-0.230679
N92	N	1.491946	0.595397	0.269321
C93	C	0.932064	0.145000	0.470351
C94	C	1.432064	0.645000	0.970351
C95	C	1.007916	0.158542	0.529684
C96	C	1.507916	0.658542	1.029684
C97	C	0.991909	0.095432	0.412284
C98	C	1.491909	0.595432	0.912284
C99	C	0.916078	0.081906	0.529692
C100	C	1.416078	0.581906	1.029692
C101	C	0.991923	0.095416	0.587708
C102	C	1.491923	0.595416	1.087708
C103	C	1.067799	0.109005	0.470311
C104	C	1.567799	0.609005	0.970311
C105	C	0.975912	0.032341	0.470314
C106	C	1.475912	0.532341	0.970314
C107	C	1.051819	0.045856	0.529620
C108	C	1.551819	0.545856	1.029620
C109	C	0.991900	0.095442	0.311226
C110	C	1.491900	0.595442	0.811226
C111	C	0.991941	0.095405	0.688763
C112	C	1.491941	0.595405	1.188763
H113	H	0.524494	0.218823	0.000041
H114	H	1.024494	0.718823	0.500041
H115	H	1.021459	0.211889	0.555762
H116	H	1.521459	0.711889	1.055762
Br117	Br	1.174722	0.128164	0.427026
Br118	Br	1.674722	0.628164	0.927026
H119	H	1.102489	0.003928	0.555480
H120	H	1.602489	0.503928	1.055480
Br121	Br	0.816919	-0.077083	-0.000000
Br122	Br	1.316919	0.422917	0.500000
H123	H	0.962345	-0.020989	0.444215
H124	H	1.462345	0.479011	0.944215
Br125	Br	0.573354	0.016478	0.176056
Br126	Br	1.073354	0.516478	0.676056
H127	H	0.855793	-0.233502	0.000001
H128	H	1.355793	0.266498	0.500001
H129	H	1.128039	-0.575651	-0.000004
H130	H	1.628039	-0.075651	0.499996
H131	H	0.847916	-0.677533	-0.000044
H132	H	1.347916	-0.177533	0.499956
H133	H	0.851943	0.070472	0.555778
H134	H	1.351943	0.570472	1.055778
Br135	Br	1.174774	-0.288032	0.000023
Br136	Br	1.674774	0.211968	0.500023
H137	H	0.850257	-0.545413	-0.000026
H138	H	1.350257	-0.045413	0.499974
H139	H	1.125694	-0.707766	-0.000033
H140	H	1.625694	-0.207766	0.499967
H141	H	0.429591	0.155986	0.134712
H142	H	0.929591	0.655986	0.634712
H143	H	0.459520	-0.028034	0.000107
H144	H	0.959520	0.471966	0.500107
Br145	Br	0.573630	0.016449	-0.175846
Br146	Br	1.073630	0.516449	0.324154
H147	H	0.429632	0.155956	-0.134702
H148	H	0.929632	0.655956	0.365298
H149	H	0.881505	0.186952	0.444327
H150	H	1.381505	0.686952	0.944327
Br151	Br	1.177822	-0.116376	0.000030
Br152	Br	1.677822	0.383624	0.500030
