data_functionalizedCrystal
_audit_creation_method	'MofGen! by Chris Wilmer'
_symmetry_space_group_name_H-M	'P1'
_symmetry_Int_Tables_number	1
_symmetry_cell_setting	triclinic
loop_
_symmetry_equiv_pos_as_xyz
  x,y,z
_cell_length_a	10.654549
_cell_length_b	14.044220
_cell_length_c	9.130313
_cell_angle_alpha	89.994483
_cell_angle_beta	89.997498
_cell_angle_gamma	88.836827
loop_
_atom_site_label
_atom_site_type_symbol
_atom_site_fract_x
_atom_site_fract_y
_atom_site_fract_z
O1	O	1.681228	0.133230	-0.121770
O2	O	2.181228	0.633230	0.378230
O3	O	1.317025	0.145924	-0.121781
O4	O	1.817025	0.645924	0.378219
O5	O	1.493660	0.001556	-0.121761
O6	O	1.993660	0.501556	0.378239
O7	O	1.504593	0.277597	-0.121790
O8	O	2.004593	0.777597	0.378210
O9	O	1.493646	0.001552	0.121838
O10	O	1.993646	0.501552	0.621838
O11	O	1.317011	0.145920	0.121818
O12	O	1.817011	0.645920	0.621818
O13	O	1.681214	0.133226	0.121829
O14	O	2.181214	0.633226	0.621829
Cu15	Cu	1.499112	0.139572	0.144066
Cu16	Cu	1.999112	0.639572	0.644066
Cu17	Cu	1.499128	0.139577	-0.144018
Cu18	Cu	1.999128	0.639577	0.355982
O19	O	1.504580	0.277593	0.121809
O20	O	2.004580	0.777593	0.621809
C21	C	1.270127	0.144990	0.000018
C22	C	1.770127	0.644990	0.500018
C23	C	1.130403	0.142201	0.000014
C24	C	1.630403	0.642201	0.500014
C25	C	0.928166	0.224576	0.000011
C26	C	1.428166	0.724576	0.500011
C27	C	1.059451	0.227203	0.000002
C28	C	1.559451	0.727203	0.500002
C29	C	1.070064	0.054567	0.000020
C30	C	1.570064	0.554567	0.500020
C31	C	0.938782	0.051941	0.000018
C32	C	1.438782	0.551941	0.500018
C33	C	1.488867	-0.033792	0.000039
C34	C	1.988867	0.466208	0.500039
C35	C	1.474592	-0.139111	0.000040
C36	C	1.974592	0.360889	0.500040
C37	C	1.448493	-0.331944	0.000018
C38	C	1.948493	0.168056	0.500018
C39	C	1.549741	-0.388912	0.000017
C40	C	2.049741	0.111088	0.500017
C41	C	1.535219	-0.496211	0.000005
C42	C	2.035219	0.003789	0.500005
C43	C	1.463013	-0.224635	0.000031
C44	C	1.963013	0.275365	0.500031
C45	C	1.728113	0.134160	0.000027
C46	C	2.228113	0.634160	0.500027
C47	C	1.867836	0.136948	0.000022
C48	C	2.367836	0.636948	0.500022
C49	C	1.509372	0.312941	0.000006
C50	C	2.009372	0.812941	0.500006
C51	C	1.523648	0.418261	-0.000005
C52	C	2.023648	0.918261	0.499995
N53	N	1.499109	0.139568	0.346689
N54	N	1.999109	0.639568	0.846689
N55	N	1.499139	0.139574	-0.346640
N56	N	1.999139	0.639574	0.153360
C57	C	1.577355	0.075669	0.423349
C58	C	2.077355	0.575669	0.923349
C59	C	1.577367	0.075670	0.576686
C60	C	2.077367	0.575670	1.076686
C61	C	1.420885	0.203476	0.576688
C62	C	1.920885	0.703476	1.076688
C63	C	1.420867	0.203470	0.423354
C64	C	1.920867	0.703470	0.923354
H65	H	1.108565	0.298557	-0.000007
H66	H	1.608565	0.798557	0.499993
H67	H	1.641063	0.023635	0.360932
H68	H	2.141063	0.523635	0.860932
H69	H	1.357144	0.255505	0.360933
H70	H	1.857144	0.755505	0.860933
H71	H	1.641080	0.023636	0.639099
H72	H	2.141080	0.523636	1.139099
Br73	Br	1.166355	-0.060794	0.000027
Br74	Br	1.666355	0.439206	0.500027
H75	H	0.889661	-0.019420	0.000022
H76	H	1.389661	0.480580	0.500022
Br77	Br	1.314706	0.290199	0.680739
Br78	Br	1.814706	0.790199	1.180739
Br79	Br	1.285849	-0.384964	0.000001
Br80	Br	1.785849	0.115036	0.500001
Br81	Br	1.712395	-0.335895	0.000034
Br82	Br	2.212395	0.164105	0.500034
Br83	Br	0.831886	0.339941	0.000013
Br84	Br	1.331886	0.839941	0.500013
