data_functionalizedCrystal
_audit_creation_method	'MofGen! by Chris Wilmer'
_symmetry_space_group_name_H-M	'P1'
_symmetry_Int_Tables_number	1
_symmetry_cell_setting	triclinic
loop_
_symmetry_equiv_pos_as_xyz
  x,y,z
_cell_length_a	12.811457
_cell_length_b	10.654559
_cell_length_c	11.892095
_cell_angle_alpha	93.929669
_cell_angle_beta	91.498327
_cell_angle_gamma	84.264889
loop_
_atom_site_label
_atom_site_type_symbol
_atom_site_fract_x
_atom_site_fract_y
_atom_site_fract_z
O1	O	1.390458	0.173270	0.048548
O2	O	1.087212	0.189022	0.017459
O3	O	1.245803	-0.001568	0.033718
O4	O	1.231868	0.363860	0.032289
O5	O	1.232580	0.014298	0.220370
O6	O	1.073989	0.204889	0.204111
O7	O	1.377235	0.189136	0.235200
Zn8	Zn	1.223513	0.199532	0.249290
Zn9	Zn	1.240935	0.178627	0.003369
O10	O	1.218645	0.379727	0.218941
C11	C	1.041771	0.195587	0.106804
C12	C	0.926072	0.191493	0.094942
C13	C	0.694243	0.201075	0.276163
C14	C	0.585533	0.197229	0.265023
C15	C	0.599939	0.179944	0.061524
C16	C	0.708650	0.183790	0.072664
C17	C	0.755797	0.194358	0.179987
C18	C	0.864509	0.198214	0.191125
C19	C	0.878914	0.180920	-0.012373
C20	C	0.770204	0.177073	-0.023513
C21	C	1.238166	-0.040437	0.126936
C22	C	1.235100	-0.179891	0.126615
C23	C	1.138841	-0.231765	0.116743
C24	C	1.135965	-0.362796	0.116457
C25	C	1.325614	-0.390069	0.135910
C26	C	1.328489	-0.259039	0.136204
C27	C	1.045452	-0.152616	0.107154
C28	C	0.949187	-0.204490	0.097281
C29	C	0.946310	-0.335521	0.096994
C30	C	1.039700	-0.414679	0.106582
C31	C	1.422677	0.182572	0.145853
C32	C	1.538377	0.186665	0.157707
C33	C	1.226282	0.418595	0.125720
C34	C	1.229349	0.558048	0.126034
N35	N	1.211630	0.213798	0.417126
N36	N	1.252826	0.164351	-0.164466
C37	C	1.335509	0.065009	0.666474
C38	C	1.327211	0.074990	0.783966
C39	C	1.186732	0.243734	0.769601
C40	C	1.195030	0.233753	0.652110
C41	C	1.269422	0.144389	0.600551
C42	C	1.277724	0.134414	0.483058
C43	C	1.137241	0.303152	0.468696
C44	C	1.128943	0.313133	0.586187
H45	H	0.561535	0.171319	-0.025853
H46	H	1.068371	0.385889	0.628180
H47	H	0.732630	0.209697	0.363549
H48	H	1.338301	0.061653	0.441081
H49	H	1.083431	0.367792	0.415008
H50	H	1.381024	0.010349	0.837637
H51	H	1.126156	0.316484	0.811596
F52	F	1.430936	-0.203826	0.146727
H53	H	0.873152	-0.140031	0.089485
H54	H	0.902894	0.206826	0.278513
F55	F	0.520026	0.204375	0.367387
H56	H	0.731802	0.168463	-0.110892
H57	H	1.401647	-0.454529	0.143713
H58	H	0.929043	0.175458	-0.090687
H59	H	1.047784	-0.045923	0.107384
F60	F	0.843858	-0.390725	0.086498
F61	F	1.036633	-0.554134	0.106290
F62	F	1.414691	-0.030087	0.611602
