data_functionalizedCrystal
_audit_creation_method	'MofGen! by Chris Wilmer'
_symmetry_space_group_name_H-M	'P1'
_symmetry_Int_Tables_number	1
_symmetry_cell_setting	triclinic
loop_
_symmetry_equiv_pos_as_xyz
  x,y,z
_cell_length_a	12.759401
_cell_length_b	25.639233
_cell_length_c	12.759400
_cell_angle_alpha	89.986745
_cell_angle_beta	90.013728
_cell_angle_gamma	89.989721
loop_
_atom_site_label
_atom_site_type_symbol
_atom_site_fract_x
_atom_site_fract_y
_atom_site_fract_z
Zn1	Zn	1.606170	-0.295596	-0.418421
Zn2	Zn	1.606089	-0.208169	-0.594084
Zn3	Zn	1.430497	-0.208179	-0.418416
Zn4	Zn	1.430460	-0.295577	-0.594056
O5	O	1.518304	-0.251880	-0.506244
O6	O	1.753180	-0.284003	-0.441737
O7	O	1.582778	-0.135005	-0.570791
O8	O	1.453849	-0.219787	-0.271396
O9	O	1.753121	-0.219771	-0.570795
O10	O	1.582915	-0.284012	-0.271399
O11	O	1.453771	-0.135012	-0.441729
O12	O	1.283471	-0.219768	-0.441702
O13	O	1.453787	-0.368745	-0.570747
O14	O	1.283444	-0.283980	-0.570743
O15	O	1.582879	-0.368759	-0.441709
O16	O	1.582743	-0.219752	-0.741101
O17	O	1.453709	-0.283970	-0.741080
C18	C	1.245337	-0.251873	-0.506219
C19	C	1.128560	-0.251882	-0.506234
C20	C	1.073722	-0.285380	-0.439160
C21	C	0.963998	-0.285383	-0.439180
C22	C	0.963960	-0.218390	-0.573357
C23	C	1.073682	-0.218384	-0.573331
C24	C	1.073743	-0.324060	-0.361697
C25	C	0.964019	-0.324063	-0.361717
C26	C	1.518338	-0.388253	-0.506226
C27	C	1.518352	-0.446367	-0.506218
C28	C	1.585656	-0.806744	-0.438828
C29	C	1.585669	-0.861348	-0.438799
O30	O	1.642808	-0.889596	-0.381626
N31	N	1.518468	-0.888650	-0.505972
C32	C	1.451242	-0.861345	-0.573170
O33	O	1.394083	-0.889582	-0.630302
C34	C	1.451225	-0.806742	-0.573193
C35	C	1.518438	-0.779442	-0.506024
C36	C	1.652863	-0.779444	-0.371664
C37	C	1.652851	-0.724844	-0.371694
C38	C	1.585632	-0.697543	-0.438890
C39	C	1.518426	-0.724842	-0.506054
C40	C	1.383994	-0.779438	-0.640385
C41	C	1.383982	-0.724831	-0.640402
C42	C	1.451195	-0.697531	-0.573232
C43	C	1.451195	-0.642940	-0.573280
N44	N	1.518396	-0.615638	-0.506108
C45	C	1.585615	-0.642939	-0.438913
C46	C	1.451283	-0.976016	-0.573115
C47	C	1.451305	-1.030618	-0.573098
C48	C	1.585731	-1.030617	-0.438726
C49	C	1.585713	-0.976014	-0.438749
C50	C	1.518484	-0.948714	-0.505943
C51	C	1.585586	-0.528274	-0.438983
C52	C	1.585571	-0.473669	-0.439023
C53	C	1.451142	-0.473674	-0.573391
C54	C	1.451160	-0.528275	-0.573355
C55	C	1.518385	-0.555573	-0.506143
O56	O	1.394082	-0.614658	-0.630421
O57	O	1.642755	-0.614696	-0.381780
C58	C	1.792337	-0.251888	-0.506270
C59	C	1.909114	-0.251891	-0.506281
C60	C	1.518242	-0.251869	-0.779212
C61	C	1.518311	-0.251882	-0.895988
C62	C	1.518331	-0.116038	-0.506187
C63	C	1.518520	-0.057924	-0.505899
C64	C	1.585574	-0.218481	-0.950826
C65	C	1.585638	-0.218497	-1.060550
C66	C	1.451169	-0.285317	-1.060589
C67	C	1.451110	-0.285304	-0.950867
C68	C	1.663205	-0.179901	-0.950805
C69	C	1.663270	-0.179917	-1.060529
C70	C	1.518395	-0.251903	-0.232211
C71	C	1.518434	-0.251912	-0.115434
H72	H	1.640308	-0.451444	-0.384324
C73	C	1.310031	-0.694801	-0.714316
H74	H	1.319638	-0.658371	-0.704713
H75	H	1.325380	-0.703753	-0.784904
H76	H	1.239446	-0.703749	-0.698916
C77	C	1.767689	-0.199552	-1.106414
H78	H	1.764168	-0.198896	-1.180777
H79	H	1.823132	-0.177641	-1.083402
H80	H	1.780172	-0.234239	-1.083382
C81	C	1.113973	-0.309503	-0.251728
H82	H	1.188430	-0.309506	-0.251714
H83	H	1.089145	-0.275779	-0.233451
H84	H	1.089174	-0.334252	-0.202176
C85	C	1.119755	-0.375985	-0.401209
H86	H	1.064319	-0.399113	-0.418818
H87	H	1.161658	-0.369719	-0.461436
H88	H	1.161664	-0.391162	-0.347736
H89	H	1.640461	-1.052856	-0.384009
C90	C	0.903596	-0.181546	-0.647164
H91	H	0.951973	-0.161593	-0.687103
H92	H	0.860800	-0.201507	-0.693010
H93	H	0.860786	-0.158800	-0.606907
C94	C	1.633910	-0.125211	-1.100843
H95	H	1.621782	-0.102703	-1.042964
H96	H	1.689636	-0.111783	-1.142172
H97	H	1.572180	-0.127400	-1.142250
C98	C	1.377135	-0.322050	-0.890543
H99	H	1.386730	-0.317260	-0.817337
H100	H	1.306561	-0.314377	-0.908585
H101	H	1.392493	-0.357188	-0.908482
C102	C	1.377249	-0.322075	-1.120958
H103	H	1.386912	-0.317299	-1.194159
H104	H	1.392565	-0.357209	-1.102927
H105	H	1.306654	-0.314387	-1.103041
C106	C	0.918028	-0.304568	-0.257249
H107	H	0.973474	-0.295886	-0.210709
H108	H	0.876107	-0.274571	-0.269646
H109	H	0.876141	-0.331225	-0.226933
H110	H	0.934262	-0.364540	-0.383639
C111	C	1.623886	-0.127917	-0.904902
H112	H	1.606422	-0.104776	-0.960388
H113	H	1.563600	-0.134097	-0.863036
H114	H	1.677394	-0.112801	-0.862976
C115	C	1.134006	-0.181534	-0.647103
H116	H	1.207212	-0.186324	-0.637473
H117	H	1.116029	-0.189121	-0.717722
H118	H	1.116003	-0.146418	-0.631609
C119	C	1.659540	-0.558295	-0.365059
H120	H	1.699566	-0.534210	-0.325075
H121	H	1.619384	-0.579595	-0.319259
H122	H	1.705315	-0.579595	-0.405250
H123	H	1.707581	-0.702621	-0.316996
H124	H	1.707601	-0.801667	-0.316939
C125	C	1.659635	-0.945989	-0.364852
H126	H	1.699662	-0.970074	-0.324829
H127	H	1.705395	-0.924686	-0.405044
H128	H	1.619445	-0.924693	-0.319073
H129	H	1.396535	-0.953791	-0.627838
C130	C	1.377378	-1.060642	-0.646991
H131	H	1.337342	-1.036557	-0.687006
H132	H	1.417550	-1.081945	-0.692764
H133	H	1.331611	-1.081938	-0.606782
C134	C	1.310049	-0.809455	-0.714263
H135	H	1.270009	-0.785368	-0.754268
H136	H	1.350209	-0.830760	-0.760045
H137	H	1.264286	-0.830751	-0.674047
C138	C	1.377235	-0.558305	-0.647246
H139	H	1.337199	-0.534223	-0.687266
H140	H	1.417408	-0.579612	-0.693013
H141	H	1.331468	-0.579600	-0.607031
H142	H	1.396417	-0.451436	-0.628103
H143	H	1.744546	-0.190775	-0.920955
