data_functionalizedCrystal
_audit_creation_method	'MofGen! by Chris Wilmer'
_symmetry_space_group_name_H-M	'P1'
_symmetry_Int_Tables_number	1
_symmetry_cell_setting	triclinic
loop_
_symmetry_equiv_pos_as_xyz
  x,y,z
_cell_length_a	13.339070
_cell_length_b	16.992695
_cell_length_c	16.053802
_cell_angle_alpha	92.741074
_cell_angle_beta	86.721119
_cell_angle_gamma	103.148759
loop_
_atom_site_label
_atom_site_type_symbol
_atom_site_fract_x
_atom_site_fract_y
_atom_site_fract_z
O1	O	-1.378705	-0.397711	0.069464
O2	O	-0.878705	0.102289	0.569464
O3	O	-1.079932	-0.345192	0.069459
O4	O	-0.579932	0.154808	0.569459
O5	O	-1.228121	-0.257049	0.069455
O6	O	-0.728121	0.242951	0.569455
O7	O	-1.230517	-0.485855	0.069468
O8	O	-0.730517	0.014145	0.569468
O9	O	-1.219962	-0.261873	-0.069404
O10	O	-0.719962	0.238127	0.430596
O11	O	-1.071773	-0.350016	-0.069400
O12	O	-0.571773	0.149984	0.430600
O13	O	-1.370546	-0.402535	-0.069395
O14	O	-0.870546	0.097465	0.430605
Zn15	Zn	-1.219864	-0.377042	-0.091444
Zn16	Zn	-0.719864	0.122958	0.408556
Zn17	Zn	-1.230614	-0.370686	0.091508
Zn18	Zn	-0.730614	0.129314	0.591508
O19	O	-1.222358	-0.490679	-0.069391
O20	O	-0.722358	0.009321	0.430609
C21	C	-1.037446	-0.338733	0.000028
C22	C	-0.537446	0.161267	0.500028
C23	C	-0.923006	-0.312289	0.000026
C24	C	-0.423006	0.187711	0.500026
C25	C	-1.220960	-0.229578	0.000025
C26	C	-0.720960	0.270422	0.500025
C27	C	-1.211765	-0.140533	0.000025
C28	C	-0.711765	0.359467	0.500025
C29	C	-1.413032	-0.408995	0.000037
C30	C	-0.913032	0.091005	0.500037
C31	C	-1.527473	-0.435438	0.000045
C32	C	-1.027473	0.064562	0.500045
C33	C	-0.574838	-0.517902	0.000051
C34	C	-0.074838	-0.017902	0.500051
C35	C	-0.682359	-0.542749	0.000056
C36	C	-0.182359	-0.042749	0.500056
C37	C	-0.742526	-0.485136	0.000048
C38	C	-0.242526	0.014864	0.500048
C39	C	-0.695161	-0.402672	0.000036
C40	C	-0.195161	0.097328	0.500036
C41	C	-0.587629	-0.377821	0.000038
C42	C	-0.087629	0.122179	0.500038
C43	C	-0.755318	-0.345056	0.000035
C44	C	-0.255318	0.154944	0.500035
C45	C	-0.707953	-0.262591	0.000023
C46	C	-0.207953	0.237409	0.500023
C47	C	-0.600431	-0.237745	0.000024
C48	C	-0.100431	0.262255	0.500024
C49	C	-0.540264	-0.295358	0.000032
C50	C	-0.040264	0.204642	0.500032
C51	C	-0.862850	-0.369906	0.000033
C52	C	-0.362850	0.130094	0.500033
C53	C	-0.875641	-0.229826	0.000020
C54	C	-0.375641	0.270174	0.500020
C55	C	-0.768119	-0.204978	0.000015
C56	C	-0.268119	0.295022	0.500015
C57	C	-1.229519	-0.518150	0.000040
C58	C	-0.729519	-0.018150	0.500040
C59	C	-1.238714	-0.607194	0.000046
C60	C	-0.738714	-0.107194	0.500046
N61	N	-1.212535	-0.381380	-0.216304
N62	N	-0.712535	0.118620	0.283696
C63	C	-1.300479	-0.109593	0.000026
C64	C	-0.800479	0.390407	0.500026
C65	C	-1.291834	-0.025925	0.000034
C66	C	-0.791834	0.474075	0.500034
C67	C	-1.194474	0.026800	0.000035
C68	C	-0.694474	0.526800	0.500035
C69	C	-1.105754	-0.004145	0.000037
C70	C	-0.605754	0.495855	0.500037
C71	C	-1.114400	-0.087811	0.000035
C72	C	-0.614400	0.412189	0.500035
C73	C	-1.158640	0.278195	0.000046
C74	C	-0.658640	0.778195	0.500046
C75	C	-1.150000	0.361866	0.000045
C76	C	-0.650000	0.861866	0.500045
C77	C	-1.336081	0.340079	0.000044
C78	C	-0.836081	0.840079	0.500044
C79	C	-1.344718	0.256412	0.000037
C80	C	-0.844718	0.756412	0.500037
C81	C	-1.255998	0.225475	0.000043
C82	C	-0.755998	0.725475	0.500043
N83	N	-1.185635	0.112322	0.000040
N84	N	-0.685635	0.612322	0.500040
N85	N	-1.264838	0.139954	0.000044
N86	N	-0.764838	0.639954	0.500044
C87	C	-1.275616	-0.343899	-0.260000
C88	C	-0.775616	0.156101	0.240000
C89	C	-1.270499	-0.346944	-0.347406
C90	C	-0.770499	0.153056	0.152594
C91	C	-1.202307	-0.387475	-0.391116
C92	C	-0.702307	0.112525	0.108884
C93	C	-1.139220	-0.424957	-0.347414
C94	C	-0.639220	0.075043	0.152586
C95	C	-1.144331	-0.421907	-0.260009
C96	C	-0.644331	0.078093	0.239991
C97	C	-1.179975	-0.400775	-0.652525
C98	C	-0.679975	0.099225	-0.152525
C99	C	-1.174870	-0.403824	-0.739936
C100	C	-0.674870	0.096176	-0.239936
C101	C	-1.306149	-0.325809	-0.739922
C102	C	-0.806149	0.174191	-0.239922
C103	C	-1.311260	-0.322767	-0.652516
C104	C	-0.811260	0.177233	-0.152516
C105	C	-1.248168	-0.360245	-0.608822
C106	C	-0.748168	0.139755	-0.108822
N107	N	-1.197078	-0.390590	-0.480460
N108	N	-0.697078	0.109410	0.019540
N109	N	-1.253393	-0.357125	-0.519480
N110	N	-0.753393	0.142875	-0.019480
N111	N	-1.237951	-0.366343	0.216368
N112	N	-0.737951	0.133657	0.716368
H113	H	-0.901404	-0.437050	0.000040
H114	H	-0.401404	0.062950	0.500040
Br115	Br	-0.993999	-0.129802	0.000041
Br116	Br	-0.493999	0.370198	0.500041
Br117	Br	-1.432615	-0.181143	0.000013
Br118	Br	-0.932615	0.318857	0.500013
Br119	Br	-0.493181	-0.596080	0.000079
Br120	Br	0.006819	-0.096080	0.500079
H121	H	-1.070714	0.404794	0.000032
H122	H	-0.570714	0.904794	0.500032
Br123	Br	-1.412237	0.016062	0.000035
Br124	Br	-0.912237	0.516062	0.500035
Br125	Br	-1.391767	-0.274946	-0.799224
Br126	Br	-0.891767	0.225054	-0.299224
H127	H	-1.423999	0.213488	0.000036
H128	H	-0.923999	0.713488	0.500036
Br129	Br	-1.368176	-0.288897	-0.200689
Br130	Br	-0.868176	0.211103	0.299311
H131	H	-1.119337	-0.436832	-0.775520
H132	H	-0.619337	0.063168	-0.275520
H133	H	-0.452710	-0.275131	0.000028
H134	H	0.047290	0.224869	0.500028
Br135	Br	-0.703826	-0.093064	-0.000002
Br136	Br	-0.203826	0.406936	0.499998
Br137	Br	-1.038233	0.236218	0.000059
Br138	Br	-0.538233	0.736218	0.500059
H139	H	-1.026482	0.038792	0.000043
H140	H	-0.526482	0.538792	0.500043
H141	H	-1.321864	-0.316423	-0.382983
H142	H	-0.821864	0.183577	0.117017
H143	H	-0.561870	-0.170596	0.000024
H144	H	-0.061870	0.329404	0.500024
H145	H	-1.366787	-0.289763	-0.616929
H146	H	-0.866787	0.210237	-0.116929
Br147	Br	-1.094356	-0.451639	-0.593231
Br148	Br	-0.594356	0.048361	-0.093231
Br149	Br	-0.888451	-0.518860	0.000054
Br150	Br	-0.388451	-0.018860	0.500054
H151	H	-1.092963	-0.452427	-0.224433
H152	H	-0.592963	0.047573	0.275567
Br153	Br	-0.746635	-0.654660	0.000079
Br154	Br	-0.246635	-0.154660	0.500079
Br155	Br	-1.046662	-0.479958	-0.406731
Br156	Br	-0.546662	0.020042	0.093269
H157	H	-0.924629	-0.182912	0.000017
H158	H	-0.424629	0.317088	0.500017
H159	H	-1.408311	0.365279	0.000041
H160	H	-0.908311	0.865279	0.500041
