data_functionalizedCrystal
_audit_creation_method	'MofGen! by Chris Wilmer'
_symmetry_space_group_name_H-M	'P1'
_symmetry_Int_Tables_number	1
_symmetry_cell_setting	triclinic
loop_
_symmetry_equiv_pos_as_xyz
  x,y,z
_cell_length_a	18.426585
_cell_length_b	14.560438
_cell_length_c	14.560438
_cell_angle_alpha	90.001148
_cell_angle_beta	60.002944
_cell_angle_gamma	59.998786
loop_
_atom_site_label
_atom_site_type_symbol
_atom_site_fract_x
_atom_site_fract_y
_atom_site_fract_z
Zr1	Zr	0.794337	0.884762	-0.120473
O2	O	0.945736	0.738112	-0.267115
O3	O	0.642937	0.929719	-0.075525
O4	O	0.794334	0.929717	-0.267119
O5	O	0.794341	0.738114	0.075618
O6	O	0.794332	1.080858	-0.267117
O7	O	0.794339	0.738113	-0.075521
O8	O	0.523511	1.080861	0.075610
O9	O	1.065162	0.738111	-0.267109
O10	O	0.705208	1.061686	-0.056347
O11	O	0.705211	0.948892	0.056444
O12	O	0.883462	0.948890	-0.169133
O13	O	0.883465	0.836096	-0.056342
Zr14	Zr	0.794337	1.125815	0.120578
Zr15	Zr	0.794333	1.125814	-0.120470
Zr16	Zr	0.794340	0.884763	0.120575
Zr17	Zr	0.984808	0.884761	-0.120464
Zr18	Zr	0.603865	1.125817	0.120569
O19	O	0.945736	1.080858	0.075630
O20	O	0.945731	1.080857	-0.267110
O21	O	0.945741	0.738113	0.075625
O22	O	0.642937	1.272466	0.267219
O23	O	0.642933	1.272464	-0.075520
O24	O	0.642942	0.929721	0.267214
O25	O	0.794332	1.272463	-0.075513
O26	O	0.794339	1.080860	0.267224
O27	O	0.794341	0.929720	0.267221
O28	O	0.794334	1.272464	0.075625
O29	O	1.065160	0.929715	-0.267106
O30	O	0.523513	1.080862	0.267211
O31	O	0.523511	1.272466	0.267214
O32	O	0.523508	1.272465	0.075613
O33	O	1.065165	0.738112	-0.075508
O34	O	1.065162	0.929716	-0.075505
O35	O	0.705211	1.061687	0.169238
O36	O	0.705208	1.174481	0.056447
O37	O	0.883462	1.061685	-0.056339
O38	O	0.883465	0.948891	0.056452
C39	C	0.556086	1.005290	0.000041
C40	C	0.475226	1.005291	0.000037
C41	C	0.794341	1.005290	0.301567
C42	C	0.794342	1.005291	0.403898
C43	C	0.794333	1.306808	0.000057
C44	C	0.794331	1.409141	0.000058
C45	C	0.179116	1.005284	0.000070
C46	C	0.261503	1.005283	0.000063
C47	C	0.327169	1.005287	0.000053
C48	C	0.409560	1.005287	0.000048
C49	C	1.032587	1.005287	0.000064
C50	C	1.113447	1.005287	0.000067
C51	C	0.794341	0.703769	0.000048
C52	C	0.794342	0.601436	0.000046
C53	C	0.701287	1.516096	0.058932
C54	C	0.701291	1.612245	0.058924
C55	C	0.887394	1.494470	-0.058835
C56	C	0.887388	1.398324	-0.058832
C57	C	0.794333	1.005287	-0.301462
C58	C	0.794331	1.005286	-0.403793
C59	C	0.887387	0.946414	0.393103
C60	C	0.887382	0.946408	0.489258
C61	C	0.701279	1.064165	0.606999
C62	C	0.701285	1.064164	0.510845
C63	C	0.556082	1.306810	0.000046
C64	C	0.475220	1.409143	0.000043
C65	C	0.556090	1.005292	0.301555
C66	C	0.475231	1.005293	0.403883
C67	C	0.556086	1.306811	0.301560
C68	C	0.475226	1.409145	0.403889
C69	C	1.032587	0.703766	-0.301455
C70	C	1.113447	0.601432	-0.403784
C71	C	1.032591	0.703768	0.000059
C72	C	1.113453	0.601434	0.000061
C73	C	1.032583	1.005285	-0.301451
C74	C	1.113442	1.005284	-0.403778
C75	C	0.437247	1.398322	-0.058845
C76	C	0.361279	1.494466	-0.058870
C77	C	0.323282	1.601430	0.000001
C78	C	0.361263	1.612249	0.058892
C79	C	0.437234	1.516106	0.058909
C80	C	0.437259	1.064171	0.510825
C81	C	0.361294	1.064168	0.606981
C82	C	0.323298	1.005292	0.596194
C83	C	0.361277	0.946406	0.489241
C84	C	0.437246	0.946404	0.393087
C85	C	0.437251	1.516090	0.393068
C86	C	0.361285	1.612253	0.489207
C87	C	0.323290	1.601468	0.596167
C88	C	0.361272	1.494513	0.606986
C89	C	0.437241	1.398352	0.510847
C90	C	1.151431	0.494487	-0.392963
C91	C	1.227421	0.398325	-0.489103
C92	C	1.265420	0.409109	-0.596062
C93	C	1.227434	0.516065	-0.606881
C94	C	1.151450	0.612225	-0.510743
C95	C	1.151434	0.612255	0.058940
C96	C	1.227423	0.516111	0.058938
C97	C	1.265423	0.409147	0.000064
C98	C	1.227439	0.398328	-0.058822
C99	C	1.151457	0.494471	-0.058826
C100	C	1.151414	1.064172	-0.392955
C101	C	1.227380	1.064193	-0.489093
C102	C	1.265377	1.005319	-0.596054
C103	C	1.227397	0.946430	-0.606875
C104	C	1.151428	0.946416	-0.510738
H105	H	0.625525	1.699329	0.106865
H106	H	0.625513	1.112108	0.519643
O107	O	1.268365	0.527803	0.122472
H108	H	1.327592	0.442985	0.112583
H109	H	1.327290	0.330799	-0.674336
H110	H	0.468184	1.311235	-0.106799
O111	O	0.987737	0.882901	0.477618
H112	H	1.032351	0.916935	0.430951
H113	H	1.327236	1.005339	-0.674326
O114	O	1.110452	0.482839	-0.277606
H115	H	1.125017	0.523846	-0.230975
H116	H	0.468150	1.311277	0.519674
H117	H	0.625516	1.112100	0.694086
O118	O	1.268428	0.282958	-0.122322
H119	H	1.327636	0.217932	-0.112410
H120	H	0.330365	1.485635	-0.106826
O121	O	0.478233	1.127677	0.522473
H122	H	0.512862	1.093635	0.569146
O123	O	0.987747	0.882915	0.277750
H124	H	1.032363	0.792419	0.267964
O125	O	1.110492	0.727580	-0.522403
H126	H	1.026680	0.774222	-0.481419
H127	H	1.258337	0.311246	-0.480272
H128	H	0.468153	0.898462	0.306013
H129	H	0.261420	1.679706	-0.000021
H130	H	1.258383	0.524832	-0.693979
O131	O	0.320269	1.482901	0.722358
H132	H	0.384028	1.436225	0.732172
O133	O	1.110486	0.882883	-0.522417
H134	H	1.149685	0.841940	-0.612947
O135	O	1.110471	0.727618	0.122426
H136	H	1.149670	0.718972	0.163346
H137	H	1.327292	0.330871	0.000076
O138	O	0.600919	1.527765	0.122438
H139	H	0.616543	1.442942	0.112559
H140	H	1.120534	0.485645	-0.106769
O141	O	1.110429	1.127689	-0.277595
H142	H	1.149594	1.168649	-0.286239
O143	O	1.268385	0.882963	-0.722257
H144	H	1.204613	0.917004	-0.732050
H145	H	0.330314	1.699352	0.106822
O146	O	0.320363	1.727600	0.477516
H147	H	0.261175	1.792664	0.562330
O148	O	1.268339	1.127707	-0.477410
H149	H	1.229162	1.168623	-0.386880
H150	H	0.963157	1.485677	-0.106780
O151	O	0.478174	1.527783	0.122447
H152	H	0.438973	1.618316	0.163389
H153	H	0.963161	1.311230	-0.106780
O154	O	0.241342	1.005320	0.699907
H155	H	0.221315	1.056172	0.776079
O156	O	0.320322	1.127703	0.722330
H157	H	0.359493	1.168661	0.713667
H158	H	0.468176	1.524892	0.305984
O159	O	0.320256	0.882944	0.477631
H160	H	0.334815	0.817880	0.518636
O161	O	0.241339	1.705189	0.699858
H162	H	0.221313	1.781362	0.674352
