data_functionalizedCrystal
_audit_creation_method	'MofGen! by Chris Wilmer'
_symmetry_space_group_name_H-M	'P1'
_symmetry_Int_Tables_number	1
_symmetry_cell_setting	triclinic
loop_
_symmetry_equiv_pos_as_xyz
  x,y,z
_cell_length_a	15.944551
_cell_length_b	12.837942
_cell_length_c	11.892095
_cell_angle_alpha	85.697431
_cell_angle_beta	86.096497
_cell_angle_gamma	90.836161
loop_
_atom_site_label
_atom_site_type_symbol
_atom_site_fract_x
_atom_site_fract_y
_atom_site_fract_z
O1	O	1.130065	-0.127061	-0.094114
O2	O	0.886833	-0.143546	-0.094092
O3	O	1.003055	0.015599	-0.094096
O4	O	1.013843	-0.286206	-0.094111
O5	O	0.993363	0.002350	0.093912
O6	O	0.877141	-0.156795	0.093915
O7	O	1.120373	-0.140310	0.093894
Zn8	Zn	0.997218	-0.150656	0.123755
Zn9	Zn	1.009988	-0.133200	-0.123954
O10	O	1.004151	-0.299455	0.093897
C11	C	0.994565	0.047595	-0.000092
C12	C	0.983697	0.162673	-0.000093
C13	C	0.850638	-0.149486	-0.000086
C14	C	0.757227	-0.147436	-0.000077
C15	C	1.156568	-0.134370	-0.000116
C16	C	1.249979	-0.136420	-0.000131
C17	C	1.473118	-0.239970	-0.000111
C18	C	1.535070	-0.185354	-0.092805
C19	C	1.421001	-0.140132	-0.000115
C20	C	1.525490	-0.198392	0.092556
C21	C	1.586200	-0.143726	-0.000095
C22	C	1.481727	-0.085483	-0.092886
C23	C	1.472137	-0.098541	0.092558
C24	C	1.534067	-0.043850	-0.000159
C25	C	1.325834	-0.138065	-0.000128
C26	C	1.681366	-0.145785	-0.000090
C27	C	1.012641	-0.331451	-0.000109
C28	C	1.023509	-0.446529	-0.000116
N29	N	0.988509	-0.162569	0.292809
C30	C	1.114352	0.403625	-0.000128
C31	C	1.104144	0.511752	-0.000129
C32	C	0.953076	0.487056	-0.000104
C33	C	0.963284	0.378929	-0.000103
C34	C	1.043924	0.337218	-0.000114
C35	C	1.054130	0.229089	-0.000105
C36	C	0.903063	0.204395	-0.000087
C37	C	0.892856	0.312522	-0.000088
N38	N	1.018703	-0.121279	-0.293008
C39	C	1.079298	-0.038327	0.529454
C40	C	1.073218	-0.046662	0.647796
C41	C	0.970263	-0.187566	0.647837
C42	C	0.976344	-0.179232	0.529495
C43	C	1.030864	-0.104611	0.470308
C44	C	1.036949	-0.096282	0.351964
C45	C	0.933990	-0.237181	0.352007
C46	C	0.927910	-0.245515	0.470349
H47	H	1.446446	-0.322834	-0.000207
Br48	Br	1.223786	0.347009	-0.000108
H49	H	1.161494	0.565818	-0.000145
H50	H	1.112656	0.007314	0.695950
Br51	Br	0.843647	0.543686	-0.000131
Br52	Br	1.580947	-0.246522	-0.223436
Br53	Br	0.853917	-0.346777	0.550682
Br54	Br	0.807475	0.114264	-0.000047
Br55	Br	1.449534	-0.005935	-0.223645
Br56	Br	1.153300	0.062927	0.449126
H57	H	0.827201	0.346499	-0.000084
H58	H	1.081344	-0.035525	0.303774
H59	H	1.119791	0.195129	-0.000109
H60	H	0.925868	-0.248313	0.696043
Br61	Br	1.578280	0.094397	-0.000228
H62	H	0.894555	-0.291156	0.303837
H63	H	1.444589	-0.061874	0.170933
H64	H	1.544915	-0.246160	0.170921
