data_functionalizedCrystal
_audit_creation_method	'MofGen! by Chris Wilmer'
_symmetry_space_group_name_H-M	'P1'
_symmetry_Int_Tables_number	1
_symmetry_cell_setting	triclinic
loop_
_symmetry_equiv_pos_as_xyz
  x,y,z
_cell_length_a	18.215407
_cell_length_b	12.827892
_cell_length_c	12.827885
_cell_angle_alpha	90.029786
_cell_angle_beta	90.021400
_cell_angle_gamma	90.015840
loop_
_atom_site_label
_atom_site_type_symbol
_atom_site_fract_x
_atom_site_fract_y
_atom_site_fract_z
Zn1	Zn	1.125132	-0.415970	0.590908
Zn2	Zn	1.458465	-0.082637	0.924241
Zn3	Zn	1.791799	0.250697	1.257575
Zn4	Zn	1.125057	-0.590747	0.416168
Zn5	Zn	1.458391	-0.257414	0.749502
Zn6	Zn	1.791724	0.075919	1.082835
Zn7	Zn	1.002061	-0.416022	0.416175
Zn8	Zn	1.335394	-0.082689	0.749508
Zn9	Zn	1.668728	0.250644	1.082842
Zn10	Zn	1.002051	-0.590671	0.590862
Zn11	Zn	1.335384	-0.257338	0.924195
Zn12	Zn	1.668717	0.075996	1.257528
O13	O	1.063575	-0.503353	0.503528
O14	O	1.396909	-0.170019	0.836862
O15	O	1.730242	0.163314	1.170195
O16	O	1.228106	-0.439165	0.567745
O17	O	1.561440	-0.105831	0.901078
O18	O	1.894773	0.227502	1.234412
O19	O	1.108715	-0.567623	0.269933
O20	O	1.442048	-0.234290	0.603266
O21	O	1.775381	0.099043	0.936600
O22	O	1.018422	-0.269779	0.439376
O23	O	1.351756	0.063554	0.772709
O24	O	1.685089	0.396887	1.106043
O25	O	1.228051	-0.567573	0.439364
O26	O	1.561385	-0.234239	0.772698
O27	O	1.894718	0.099094	1.106031
O28	O	1.108842	-0.269741	0.567752
O29	O	1.442175	0.063593	0.901085
O30	O	1.775509	0.396926	1.234418
O31	O	1.018350	-0.439254	0.269938
O32	O	1.351683	-0.105920	0.603271
O33	O	1.685017	0.227413	0.936605
O34	O	0.899075	-0.439180	0.439331
O35	O	1.232409	-0.105846	0.772665
O36	O	1.565742	0.227487	1.105998
O37	O	1.018405	-0.567443	0.737104
O38	O	1.351738	-0.234109	1.070437
O39	O	1.685071	0.099224	1.403771
O40	O	0.899068	-0.567493	0.567673
O41	O	1.232401	-0.234160	0.901006
O42	O	1.565735	0.099173	1.234339
O43	O	1.108832	-0.439091	0.737138
O44	O	1.442165	-0.105757	1.070471
O45	O	1.775498	0.227576	1.403805
O46	O	1.108705	-0.736973	0.439320
O47	O	1.442038	-0.403640	0.772653
O48	O	1.775371	-0.070307	1.105986
O49	O	1.018332	-0.736917	0.567666
O50	O	1.351666	-0.403584	0.900999
O51	O	1.684999	-0.070250	1.234333
C52	C	0.872369	-0.503335	0.503498
C53	C	1.205702	-0.170001	0.836832
C54	C	1.539036	0.163332	1.170165
C55	C	0.790570	-0.503352	0.503510
C56	C	1.123903	-0.170019	0.836844
C57	C	1.457237	0.163314	1.170177
C58	C	0.602391	-0.570270	0.570254
C59	C	0.935725	-0.236937	0.903587
C60	C	1.269058	0.096396	1.236921
C61	C	0.525533	-0.570274	0.570267
C62	C	0.858866	-0.236940	0.903600
C63	C	1.192199	0.096393	1.236934
C64	C	0.525511	-0.436454	0.436826
C65	C	0.858844	-0.103121	0.770159
C66	C	1.192178	0.230213	1.103492
C67	C	0.602368	-0.436446	0.436819
C68	C	0.935702	-0.103113	0.770152
C69	C	1.269035	0.230221	1.103485
C70	C	0.640807	-0.503360	0.503531
C71	C	0.974140	-0.170027	0.836865
C72	C	1.307473	0.163306	1.170198
C73	C	0.487091	-0.503371	0.503551
C74	C	0.820424	-0.170038	0.836885
C75	C	1.153757	0.163295	1.170218
C76	C	0.403757	-0.503374	0.503565
C77	C	0.737090	-0.170041	0.836898
C78	C	1.070424	0.163292	1.170232
C79	C	0.724146	-0.503356	0.503519
C80	C	1.057479	-0.170023	0.836853
C81	C	1.390812	0.163311	1.170186
C82	C	1.063529	-0.774863	0.503510
C83	C	1.396863	-0.441529	0.836843
C84	C	1.730196	-0.108196	1.170177
C85	C	1.063577	-0.891016	0.503537
C86	C	1.396910	-0.557682	0.836870
C87	C	1.730244	-0.224349	1.170204
C88	C	1.108349	-0.942793	0.440098
C89	C	1.441682	-0.609460	0.773431
C90	C	1.775016	-0.276127	1.106764
C91	C	1.108399	-1.062844	0.440124
C92	C	1.441733	-0.729510	0.773457
C93	C	1.775066	-0.396177	1.106791
C94	C	1.255528	-0.503371	0.503559
C95	C	1.588861	-0.170038	0.836892
C96	C	1.922195	0.163295	1.170226
C97	C	1.337327	-0.503379	0.503572
C98	C	1.670660	-0.170046	0.836905
C99	C	2.003994	0.163287	1.170239
C100	C	1.063625	-0.503252	0.776099
C101	C	1.396959	-0.169919	1.109432
C102	C	1.730292	0.163414	1.442765
C103	C	1.063647	-0.503209	0.892252
C104	C	1.396980	-0.169876	1.225585
C105	C	1.730313	0.163457	1.558919
C106	C	1.063642	-0.230782	0.503570
C107	C	1.396975	0.102551	0.836903
C108	C	1.730308	0.435884	1.170236
C109	C	1.063670	-0.114629	0.503587
C110	C	1.397003	0.218704	0.836921
C111	C	1.730336	0.552037	1.170254
C112	C	1.063568	-0.503377	0.232018
C113	C	1.396901	-0.170044	0.565352
C114	C	1.730234	0.163290	0.898685
C115	C	1.063689	-0.503126	0.115866
C116	C	1.397022	-0.169792	0.449199
C117	C	1.730356	0.163541	0.782532
C118	C	1.018938	-0.566651	1.064064
C119	C	1.352271	-0.233317	1.397398
C120	C	1.685605	0.100016	1.730731
C121	C	1.018915	-0.566696	0.944014
C122	C	1.352248	-0.233363	1.277347
C123	C	1.685581	0.099970	1.610680
H124	H	0.494259	-0.624757	0.624601
H125	H	0.827592	-0.291424	0.957934
H126	H	1.160925	0.041910	1.291267
F127	F	0.484596	-0.365245	0.365828
F128	F	0.817929	-0.031911	0.699161
F129	F	1.151263	0.301422	1.032495
H130	H	0.633647	-0.381953	0.382485
H131	H	0.966980	-0.048620	0.715818
H132	H	1.300314	0.284713	1.049152
H133	H	0.633686	-0.624753	0.624578
H134	H	0.967019	-0.291420	0.957912
H135	H	1.300352	0.041913	1.291245
H136	H	1.025286	-0.935563	0.557873
H137	H	1.358619	-0.602230	0.891207
H138	H	1.691953	-0.268897	1.224540
F139	F	1.013560	-1.056439	0.574578
F140	F	1.346894	-0.723106	0.907912
F141	F	1.680227	-0.389772	1.241245
H142	H	1.146646	-0.898248	0.385768
H143	H	1.479980	-0.564915	0.719101
H144	H	1.813313	-0.231581	1.052435
H145	H	1.146728	-1.107372	0.385808
H146	H	1.480062	-0.774038	0.719142
H147	H	1.813395	-0.440705	1.052475
H148	H	1.101982	-0.448768	1.071338
H149	H	1.435315	-0.115435	1.404672
H150	H	1.768648	0.217898	1.738005
F151	F	0.968877	-0.637692	1.122260
F152	F	1.302211	-0.304358	1.455593
F153	F	1.635544	0.028975	1.788926
F154	F	0.968839	-0.637791	0.885790
F155	F	1.302172	-0.304458	1.219123
F156	F	1.635505	0.028875	1.552457
H157	H	1.101964	-0.448824	0.936793
H158	H	1.435298	-0.115491	1.270127
H159	H	1.768631	0.217843	1.603460
