data_functionalizedCrystal
_audit_creation_method	'MofGen! by Chris Wilmer'
_symmetry_space_group_name_H-M	'P1'
_symmetry_Int_Tables_number	1
_symmetry_cell_setting	triclinic
loop_
_symmetry_equiv_pos_as_xyz
  x,y,z
_cell_length_a	18.050590
_cell_length_b	18.050591
_cell_length_c	18.050582
_cell_angle_alpha	89.979078
_cell_angle_beta	89.976663
_cell_angle_gamma	90.014558
loop_
_atom_site_label
_atom_site_type_symbol
_atom_site_fract_x
_atom_site_fract_y
_atom_site_fract_z
Zn1	Zn	-0.295786	1.135342	-0.420027
Zn2	Zn	-0.045786	1.385342	-0.170027
Zn3	Zn	0.204214	1.635342	0.079973
Zn4	Zn	0.454214	1.885342	0.329973
Zn5	Zn	-0.419969	1.135274	-0.295836
Zn6	Zn	-0.169969	1.385274	-0.045836
Zn7	Zn	0.080031	1.635274	0.204164
Zn8	Zn	0.330031	1.885274	0.454164
Zn9	Zn	-0.295789	1.011162	-0.295839
Zn10	Zn	-0.045789	1.261162	-0.045839
Zn11	Zn	0.204211	1.511162	0.204161
Zn12	Zn	0.454211	1.761162	0.454161
Zn13	Zn	-0.419930	1.011131	-0.419971
Zn14	Zn	-0.169930	1.261131	-0.169971
Zn15	Zn	0.080070	1.511131	0.080029
Zn16	Zn	0.330070	1.761131	0.330029
O17	O	-0.357868	1.073227	-0.357918
O18	O	-0.107868	1.323227	-0.107918
O19	O	0.142132	1.573227	0.142082
O20	O	0.392132	1.823227	0.392082
O21	O	-0.312274	1.239258	-0.403576
O22	O	-0.062274	1.489258	-0.153576
O23	O	0.187726	1.739258	0.096424
O24	O	0.437726	1.989258	0.346424
O25	O	-0.403514	1.118795	-0.191912
O26	O	-0.153514	1.368795	0.058088
O27	O	0.096486	1.618795	0.308088
O28	O	0.346486	1.868795	0.558088
O29	O	-0.191864	1.027676	-0.312337
O30	O	0.058136	1.277676	-0.062337
O31	O	0.308136	1.527676	0.187663
O32	O	0.558136	1.777676	0.437663
O33	O	-0.403511	1.239208	-0.312332
O34	O	-0.153511	1.489208	-0.062332
O35	O	0.096489	1.739208	0.187668
O36	O	0.346489	1.989208	0.437668
O37	O	-0.191862	1.118911	-0.403578
O38	O	0.058138	1.368911	-0.153578
O39	O	0.308138	1.618911	0.096422
O40	O	0.558138	1.868911	0.346422
O41	O	-0.312279	1.027610	-0.191914
O42	O	-0.062279	1.277610	0.058086
O43	O	0.187721	1.527610	0.308086
O44	O	0.437721	1.777610	0.558086
O45	O	-0.312241	0.907233	-0.312283
O46	O	-0.062241	1.157233	-0.062283
O47	O	0.187759	1.407233	0.187717
O48	O	0.437759	1.657233	0.437717
O49	O	-0.403444	1.027623	-0.523903
O50	O	-0.153444	1.277623	-0.273903
O51	O	0.096556	1.527623	-0.023903
O52	O	0.346556	1.777623	0.226097
O53	O	-0.403447	0.907210	-0.403482
O54	O	-0.153447	1.157210	-0.153482
O55	O	0.096553	1.407210	0.096518
O56	O	0.346553	1.657210	0.346518
O57	O	-0.312236	1.118881	-0.523945
O58	O	-0.062236	1.368881	-0.273945
O59	O	0.187764	1.618881	-0.023945
O60	O	0.437764	1.868881	0.226055
O61	O	-0.523888	1.118765	-0.312278
O62	O	-0.273888	1.368765	-0.062278
O63	O	-0.023888	1.618765	0.187722
O64	O	0.226112	1.868765	0.437722
O65	O	-0.523860	1.027557	-0.403480
O66	O	-0.273860	1.277557	-0.153480
O67	O	-0.023860	1.527557	0.096520
O68	O	0.226140	1.777557	0.346520
C69	C	-0.357841	0.880275	-0.357877
C70	C	-0.107841	1.130275	-0.107877
C71	C	0.142159	1.380275	0.142123
C72	C	0.392159	1.630275	0.392123
C73	C	-0.357847	0.797729	-0.357877
C74	C	-0.107847	1.047729	-0.107877
C75	C	0.142153	1.297729	0.142123
C76	C	0.392153	1.547729	0.392123
C77	C	-0.308191	0.598269	-0.308397
C78	C	-0.058191	0.848269	-0.058397
C79	C	0.191809	1.098269	0.191603
C80	C	0.441809	1.348269	0.441603
C81	C	-0.375927	0.548861	-0.290120
C82	C	-0.125927	0.798861	-0.040120
C83	C	0.124073	1.048861	0.209880
C84	C	0.374073	1.298861	0.459880
C85	C	-0.357869	0.646599	-0.357911
C86	C	-0.107869	0.896599	-0.107911
C87	C	0.142131	1.146599	0.142089
C88	C	0.392131	1.396599	0.392089
C89	C	-0.290157	0.548925	-0.376186
C90	C	-0.040157	0.798925	-0.126186
C91	C	0.209843	1.048925	0.123814
C92	C	0.459843	1.298925	0.373814
C93	C	-0.357885	0.500614	-0.357942
C94	C	-0.107885	0.750614	-0.107942
C95	C	0.142115	1.000614	0.142058
C96	C	0.392115	1.250614	0.392058
C97	C	-0.425641	0.598278	-0.339598
C98	C	-0.175641	0.848278	-0.089598
C99	C	0.074359	1.098278	0.160402
C100	C	0.324359	1.348278	0.410402
C101	C	-0.339825	0.598346	-0.425696
C102	C	-0.089825	0.848346	-0.175696
C103	C	0.160175	1.098346	0.074304
C104	C	0.410175	1.348346	0.324304
C105	C	-0.407607	0.548961	-0.407445
C106	C	-0.157607	0.798961	-0.157445
C107	C	0.092393	1.048961	0.092555
C108	C	0.342393	1.298961	0.342555
C109	C	-0.357859	0.730697	-0.357891
C110	C	-0.107859	0.980697	-0.107891
C111	C	0.142141	1.230697	0.142109
C112	C	0.392141	1.480697	0.392109
C113	C	-0.357903	0.416517	-0.357962
C114	C	-0.107903	0.666517	-0.107962
C115	C	0.142097	0.916517	0.142038
C116	C	0.392097	1.166517	0.392038
C117	C	-0.550820	1.073170	-0.357889
C118	C	-0.300820	1.323170	-0.107889
C119	C	-0.050820	1.573170	0.142111
C120	C	0.199180	1.823170	0.392111
C121	C	-0.633366	1.073214	-0.357901
C122	C	-0.383366	1.323214	-0.107901
C123	C	-0.133366	1.573214	0.142099
C124	C	0.116634	1.823214	0.392099
C125	C	-0.832806	1.122916	-0.308375
C126	C	-0.582806	1.372916	-0.058375
C127	C	-0.332806	1.622916	0.191625
C128	C	-0.082806	1.872916	0.441625
C129	C	-0.882145	1.141051	-0.376157
C130	C	-0.632145	1.391051	-0.126157
C131	C	-0.382145	1.641051	0.123843
C132	C	-0.132145	1.891051	0.373843
C133	C	-0.784497	1.073256	-0.357930
C134	C	-0.534497	1.323256	-0.107930
C135	C	-0.284497	1.573256	0.142070
C136	C	-0.034497	1.823256	0.392070
C137	C	-0.882238	1.055196	-0.290179
C138	C	-0.632238	1.305196	-0.040179
C139	C	-0.382238	1.555196	0.209821
C140	C	-0.132238	1.805196	0.459821
C141	C	-0.930482	1.073298	-0.357953
C142	C	-0.680482	1.323298	-0.107953
C143	C	-0.430482	1.573298	0.142047
C144	C	-0.180482	1.823298	0.392047
C145	C	-0.832749	1.091426	-0.425748
C146	C	-0.582749	1.341426	-0.175748
C147	C	-0.332749	1.591426	0.074252
C148	C	-0.082749	1.841426	0.324252
C149	C	-0.832838	1.005539	-0.339725
C150	C	-0.582838	1.255539	-0.089725
C151	C	-0.332838	1.505539	0.160275
C152	C	-0.082838	1.755539	0.410275
C153	C	-0.882155	1.023649	-0.407554
C154	C	-0.632155	1.273649	-0.157554
C155	C	-0.382155	1.523649	0.092446
C156	C	-0.132155	1.773649	0.342446
C157	C	-0.700398	1.073233	-0.357916
C158	C	-0.450398	1.323233	-0.107916
C159	C	-0.200398	1.573233	0.142084
C160	C	0.049602	1.823233	0.392084
C161	C	-1.014578	1.073320	-0.357975
C162	C	-0.764578	1.323320	-0.107975
C163	C	-0.514578	1.573320	0.142025
C164	C	-0.264578	1.823320	0.392025
C165	C	-0.164163	1.073305	-0.357964
C166	C	0.085837	1.323305	-0.107964
C167	C	0.335837	1.573305	0.142036
C168	C	0.585837	1.823305	0.392036
C169	C	-0.081617	1.073338	-0.357984
C170	C	0.168383	1.323338	-0.107984
C171	C	0.418383	1.573338	0.142016
C172	C	0.668383	1.823338	0.392016
C173	C	-0.357835	1.073256	-0.551624
C174	C	-0.107835	1.323256	-0.301624
C175	C	0.142165	1.573256	-0.051624
C176	C	0.392165	1.823256	0.198376
C177	C	-0.357821	1.073269	-0.634170
C178	C	-0.107821	1.323269	-0.384170
C179	C	0.142179	1.573269	-0.134170
C180	C	0.392179	1.823269	0.115830
C181	C	-0.357897	1.266933	-0.357960
C182	C	-0.107897	1.516933	-0.107960
C183	C	0.142103	1.766933	0.142040
C184	C	0.392103	2.016933	0.392040
C185	C	-0.357909	1.349479	-0.357978
C186	C	-0.107909	1.599479	-0.107978
C187	C	0.142091	1.849479	0.142022
C188	C	0.392091	2.099479	0.392022
C189	C	-0.407353	1.023681	-0.833598
C190	C	-0.157353	1.273681	-0.583598
C191	C	0.092647	1.523681	-0.333598
C192	C	0.342647	1.773681	-0.083598
C193	C	-0.425511	1.091439	-0.882996
C194	C	-0.175511	1.341439	-0.632996
C195	C	0.074489	1.591439	-0.382996
C196	C	0.324489	1.841439	-0.132996
C197	C	-0.357765	1.073305	-0.785300
C198	C	-0.107765	1.323305	-0.535300
C199	C	0.142235	1.573305	-0.285300
C200	C	0.392235	1.823305	-0.035300
C201	C	-0.339586	1.005584	-0.882984
C202	C	-0.089586	1.255584	-0.632984
C203	C	0.160414	1.505584	-0.382984
C204	C	0.410414	1.755584	-0.132984
C205	C	-0.357711	1.073335	-0.931285
C206	C	-0.107711	1.323335	-0.681285
C207	C	0.142289	1.573335	-0.431285
C208	C	0.392289	1.823335	-0.181285
C209	C	-0.375958	1.141099	-0.833611
C210	C	-0.125958	1.391099	-0.583611
C211	C	0.124042	1.641099	-0.333611
C212	C	0.374042	1.891099	-0.083611
C213	C	-0.290002	1.055199	-0.833594
C214	C	-0.040002	1.305199	-0.583594
C215	C	0.209998	1.555199	-0.333594
C216	C	0.459998	1.805199	-0.083594
C217	C	-0.308134	1.123004	-0.882970
C218	C	-0.058134	1.373004	-0.632970
C219	C	0.191866	1.623004	-0.382970
C220	C	0.441866	1.873004	-0.132970
C221	C	-0.357797	1.073287	-0.701202
C222	C	-0.107797	1.323287	-0.451202
C223	C	0.142203	1.573287	-0.201202
C224	C	0.392203	1.823287	0.048798
C225	C	-0.357679	1.073360	-1.015382
C226	C	-0.107679	1.323360	-0.765382
C227	C	0.142321	1.573360	-0.515382
C228	C	0.392321	1.823360	-0.265382
C229	C	-0.357848	1.073241	-0.164966
C230	C	-0.107848	1.323241	0.085034
C231	C	0.142152	1.573241	0.335034
C232	C	0.392152	1.823241	0.585034
C233	C	-0.357652	1.073372	-0.082421
C234	C	-0.107652	1.323372	0.167579
C235	C	0.142348	1.573372	0.417579
C236	C	0.392348	1.823372	0.667579
H237	H	-0.449673	0.527446	-0.449330
H238	H	-0.199673	0.777446	-0.199330
H239	H	0.050327	1.027446	0.050670
H240	H	0.300327	1.277446	0.300670
H241	H	-0.482928	0.619866	-0.324091
H242	H	-0.232928	0.869866	-0.074091
H243	H	0.017072	1.119866	0.175909
H244	H	0.267072	1.369866	0.425909
C245	C	-0.911601	1.034533	-0.212761
C246	C	-0.661601	1.284533	0.037239
C247	C	-0.411601	1.534533	0.287239
C248	C	-0.161601	1.784533	0.537239
N249	N	-0.933713	1.018974	-0.154448
N250	N	-0.683713	1.268974	0.095552
N251	N	-0.433713	1.518974	0.345552
N252	N	-0.183713	1.768974	0.595552
C253	C	-0.803544	0.928176	-0.318871
C254	C	-0.553544	1.178176	-0.068871
C255	C	-0.303544	1.428176	0.181129
C256	C	-0.053544	1.678176	0.431129
N257	N	-0.781475	0.869907	-0.303154
N258	N	-0.531475	1.119907	-0.053154
N259	N	-0.281475	1.369907	0.196846
N260	N	-0.031475	1.619907	0.446846
H261	H	-0.482794	1.106771	-0.904696
H262	H	-0.232794	1.356771	-0.654696
H263	H	0.017206	1.606771	-0.404696
H264	H	0.267206	1.856771	-0.154696
H265	H	-0.391377	1.198399	-0.812015
H266	H	-0.141377	1.448399	-0.562015
H267	H	0.108623	1.698399	-0.312015
H268	H	0.358623	1.948399	-0.062015
C269	C	-0.251500	0.627525	-0.251770
C270	C	-0.001500	0.877525	-0.001770
C271	C	0.248500	1.127525	0.248230
C272	C	0.498500	1.377525	0.498230
N273	N	-0.208804	0.649561	-0.209116
N274	N	0.041196	0.899561	0.040884
N275	N	0.291196	1.149561	0.290884
N276	N	0.541196	1.399561	0.540884
H277	H	-0.903806	1.198335	-0.391570
H278	H	-0.653806	1.448335	-0.141570
H279	H	-0.403806	1.698335	0.108430
H280	H	-0.153806	1.948335	0.358430
C281	C	-0.396559	0.519491	-0.212697
C282	C	-0.146559	0.769491	0.037303
C283	C	0.103441	1.019491	0.287303
C284	C	0.353441	1.269491	0.537303
N285	N	-0.412093	0.497371	-0.154381
N286	N	-0.162093	0.747371	0.095619
N287	N	0.087907	0.997371	0.345619
N288	N	0.337907	1.247371	0.595619
H289	H	-0.324530	0.620100	-0.482990
H290	H	-0.074530	0.870100	-0.232990
H291	H	0.175470	1.120100	0.017010
H292	H	0.425470	1.370100	0.267010
C293	C	-0.911244	0.966937	-0.464246
C294	C	-0.661244	1.216937	-0.214246
C295	C	-0.411244	1.466937	0.035754
C296	C	-0.161244	1.716937	0.285754
N297	N	-0.933155	0.924224	-0.506948
N298	N	-0.683155	1.174224	-0.256948
N299	N	-0.433155	1.424224	-0.006948
N300	N	-0.183155	1.674224	0.243052
C301	C	-0.464079	0.967051	-0.804294
C302	C	-0.214079	1.217051	-0.554294
C303	C	0.035921	1.467051	-0.304294
C304	C	0.285921	1.717051	-0.054294
N305	N	-0.506808	0.924404	-0.782217
N306	N	-0.256808	1.174404	-0.532217
N307	N	-0.006808	1.424404	-0.282217
N308	N	0.243192	1.674404	-0.032217
H309	H	-0.232894	0.527208	-0.391604
H310	H	0.017106	0.777208	-0.141604
H311	H	0.267106	1.027208	0.108396
H312	H	0.517106	1.277208	0.358396
C313	C	-0.803521	1.179668	-0.251822
C314	C	-0.553521	1.429668	-0.001822
C315	C	-0.303521	1.679668	0.248178
C316	C	-0.053521	1.929668	0.498178
N317	N	-0.781461	1.222416	-0.209232
N318	N	-0.531461	1.472416	0.040768
N319	N	-0.281461	1.722416	0.290768
N320	N	-0.031461	1.972416	0.540768
H321	H	-0.266177	1.165031	-0.904511
H322	H	-0.016177	1.415031	-0.654511
H323	H	0.233823	1.665031	-0.404511
H324	H	0.483823	1.915031	-0.154511
C325	C	-0.803509	1.112181	-0.503188
C326	C	-0.553509	1.362181	-0.253188
C327	C	-0.303509	1.612181	-0.003188
C328	C	-0.053509	1.862181	0.246812
N329	N	-0.781483	1.127817	-0.561513
N330	N	-0.531483	1.377817	-0.311513
N331	N	-0.281483	1.627817	-0.061513
N332	N	-0.031483	1.877817	0.188487
H333	H	-0.232736	1.039846	-0.811878
H334	H	0.017264	1.289846	-0.561878
H335	H	0.267264	1.539846	-0.311878
H336	H	0.517264	1.789846	-0.061878
H337	H	-0.324232	0.948301	-0.904672
H338	H	-0.074232	1.198301	-0.654672
H339	H	0.175768	1.448301	-0.404672
H340	H	0.425768	1.698301	-0.154672
