data_functionalizedCrystal
_audit_creation_method	'MofGen! by Chris Wilmer'
_symmetry_space_group_name_H-M	'P1'
_symmetry_Int_Tables_number	1
_symmetry_cell_setting	triclinic
loop_
_symmetry_equiv_pos_as_xyz
  x,y,z
_cell_length_a	25.639242
_cell_length_b	29.839131
_cell_length_c	25.639233
_cell_angle_alpha	89.980415
_cell_angle_beta	89.977834
_cell_angle_gamma	90.036947
loop_
_atom_site_label
_atom_site_type_symbol
_atom_site_fract_x
_atom_site_fract_y
_atom_site_fract_z
Zn1	Zn	0.799215	-0.178962	-0.295739
Zn2	Zn	1.132548	0.154372	0.037594
Zn3	Zn	1.465882	0.487705	0.370927
Zn4	Zn	0.799134	-0.254076	-0.208302
Zn5	Zn	1.132468	0.079257	0.125031
Zn6	Zn	1.465801	0.412591	0.458364
Zn7	Zn	0.711791	-0.178955	-0.208303
Zn8	Zn	1.045125	0.154378	0.125030
Zn9	Zn	1.378458	0.487712	0.458363
Zn10	Zn	0.711732	-0.254059	-0.295692
Zn11	Zn	1.045066	0.079274	0.037641
Zn12	Zn	1.378399	0.412607	0.370975
O13	O	0.755468	-0.216513	-0.252009
O14	O	1.088802	0.116820	0.081324
O15	O	1.422135	0.450154	0.414657
O16	O	0.872370	-0.188935	-0.284160
O17	O	1.205703	0.144398	0.049174
O18	O	1.539036	0.477731	0.382507
O19	O	0.787539	-0.244115	-0.135137
O20	O	1.120872	0.089218	0.198196
O21	O	1.454206	0.422551	0.531530
O22	O	0.723447	-0.116089	-0.219922
O23	O	1.056780	0.217245	0.113411
O24	O	1.390114	0.550578	0.446745
O25	O	0.872310	-0.244122	-0.219920
O26	O	1.205644	0.089212	0.113413
O27	O	1.538977	0.422545	0.446746
O28	O	0.787677	-0.116094	-0.284161
O29	O	1.121010	0.217240	0.049173
O30	O	1.454343	0.550573	0.382506
O31	O	0.723369	-0.188924	-0.135138
O32	O	1.056702	0.144409	0.198195
O33	O	1.390035	0.477742	0.531529
O34	O	0.638618	-0.188908	-0.219876
O35	O	0.971952	0.144425	0.113457
O36	O	1.305285	0.477759	0.446790
O37	O	0.723346	-0.244093	-0.368864
O38	O	1.056680	0.089240	-0.035530
O39	O	1.390013	0.422573	0.297803
O40	O	0.638575	-0.244087	-0.284081
O41	O	0.971908	0.089246	0.049253
O42	O	1.305242	0.422580	0.382586
O43	O	0.787619	-0.188919	-0.368898
O44	O	1.120953	0.144414	-0.035565
O45	O	1.454286	0.477747	0.297769
O46	O	0.787482	-0.316941	-0.219875
O47	O	1.120815	0.016392	0.113459
O48	O	1.454149	0.349726	0.446792
O49	O	0.723268	-0.316929	-0.284080
O50	O	1.056601	0.016405	0.049254
O51	O	1.389935	0.349738	0.382587
C52	C	0.619626	-0.216495	-0.251974
C53	C	0.952959	0.116838	0.081360
C54	C	1.286292	0.450171	0.414693
C55	C	0.561512	-0.216499	-0.251971
C56	C	0.894845	0.116835	0.081362
C57	C	1.228178	0.450168	0.414696
C58	C	0.755374	-0.333236	-0.251983
C59	C	1.088707	0.000098	0.081350
C60	C	1.422041	0.333431	0.414683
C61	C	0.755381	-0.383170	-0.251990
C62	C	1.088715	-0.049837	0.081344
C63	C	1.422048	0.283497	0.414677
C64	C	0.201135	-0.245293	-0.285409
C65	C	0.534468	0.088041	0.047925
C66	C	0.867802	0.421374	0.381258
C67	C	0.146531	-0.245295	-0.285417
C68	C	0.479864	0.088038	0.047916
C69	C	0.813197	0.421371	0.381250
O70	O	0.118282	-0.269755	-0.313817
O71	O	0.451616	0.063578	0.019517
O72	O	0.784949	0.396911	0.352850
N73	N	0.119229	-0.216525	-0.252043
N74	N	0.452563	0.116808	0.081290
N75	N	0.785896	0.450141	0.414623
C76	C	0.146535	-0.187748	-0.218663
C77	C	0.479868	0.145586	0.114670
C78	C	0.813202	0.478919	0.448004
O79	O	0.118299	-0.163276	-0.190277
O80	O	0.451632	0.170057	0.143056
O81	O	0.784966	0.503390	0.476389
C82	C	0.201138	-0.187743	-0.218658
C83	C	0.534472	0.145590	0.114676
C84	C	0.867805	0.478924	0.448009
C85	C	0.228437	-0.216518	-0.252030
C86	C	0.561770	0.116815	0.081303
C87	C	0.895104	0.450149	0.414637
C88	C	0.228434	-0.274065	-0.318778
C89	C	0.561767	0.059268	0.014555
C90	C	0.895100	0.392602	0.347888
C91	C	0.283034	-0.274063	-0.318769
C92	C	0.616367	0.059270	0.014564
C93	C	0.949701	0.392604	0.347897
C94	C	0.310336	-0.245288	-0.285390
C95	C	0.643669	0.088045	0.047943
C96	C	0.977003	0.421379	0.381276
C97	C	0.283037	-0.216516	-0.252021
C98	C	0.616371	0.116818	0.081313
C99	C	0.949704	0.450151	0.414646
C100	C	0.228443	-0.158963	-0.185281
C101	C	0.561776	0.174370	0.148053
C102	C	0.895110	0.507704	0.481386
C103	C	0.283050	-0.158961	-0.185279
C104	C	0.616383	0.174373	0.148055
C105	C	0.949717	0.507706	0.481388
C106	C	0.310349	-0.187736	-0.218651
C107	C	0.643682	0.145598	0.114683
C108	C	0.977015	0.478931	0.448016
C109	C	0.364940	-0.187739	-0.218633
C110	C	0.698273	0.145595	0.114700
C111	C	1.031607	0.478928	0.448034
N112	N	0.392241	-0.216509	-0.252006
N113	N	0.725575	0.116825	0.081327
N114	N	1.058908	0.450158	0.414660
C115	C	0.364939	-0.245283	-0.285385
C116	C	0.698273	0.088050	0.047948
C117	C	1.031606	0.421383	0.381281
C118	C	0.031864	-0.187759	-0.218677
C119	C	0.365198	0.145574	0.114656
C120	C	0.698531	0.478908	0.447989
C121	C	-0.022738	-0.187766	-0.218679
C122	C	0.310595	0.145568	0.114654
C123	C	0.643929	0.478901	0.447987
C124	C	-0.022739	-0.245313	-0.285434
C125	C	0.310595	0.088020	0.047899
C126	C	0.643928	0.421354	0.381233
C127	C	0.031865	-0.245308	-0.285429
C128	C	0.365198	0.088025	0.047904
C129	C	0.698531	0.421358	0.381238
C130	C	0.059166	-0.216529	-0.252051
C131	C	0.392499	0.116804	0.081283
C132	C	0.725832	0.450138	0.414616
C133	C	0.479604	-0.245277	-0.285363
C134	C	0.812938	0.088057	0.047970
C135	C	1.146271	0.421390	0.381303
C136	C	0.534210	-0.245273	-0.285350
C137	C	0.867543	0.088060	0.047984
C138	C	1.200876	0.421393	0.381317
C139	C	0.534206	-0.187724	-0.218597
C140	C	0.867539	0.145609	0.114736
C141	C	1.200872	0.478942	0.448069
C142	C	0.479605	-0.187729	-0.218609
C143	C	0.812938	0.145604	0.114725
C144	C	1.146272	0.478937	0.448058
C145	C	0.452306	-0.216507	-0.251996
C146	C	0.785639	0.116826	0.081337
C147	C	1.118972	0.450160	0.414671
O148	O	0.393223	-0.163290	-0.190249
O149	O	0.726556	0.170043	0.143084
O150	O	1.059890	0.503377	0.476418
O151	O	0.393182	-0.269746	-0.313771
O152	O	0.726515	0.063587	0.019562
O153	O	1.059849	0.396920	0.352896
C154	C	0.788965	-0.692807	-0.218627
C155	C	1.122299	-0.359474	0.114707
C156	C	1.455632	-0.026140	0.448040
C157	C	0.789030	-0.880480	-0.218647
C158	C	1.122363	-0.547147	0.114686
C159	C	1.455696	-0.213814	0.448020
O160	O	0.817509	-0.904740	-0.190260
O161	O	1.150843	-0.571406	0.143073
O162	O	1.484176	-0.238073	0.476406
N163	N	0.755577	-0.903955	-0.252049
N164	N	1.088910	-0.570622	0.081285
N165	N	1.422243	-0.237288	0.414618
C166	C	0.722108	-0.880509	-0.285450
C167	C	1.055441	-0.547176	0.047883
C168	C	1.388774	-0.213842	0.381216
O169	O	0.693659	-0.904782	-0.313865
O170	O	1.026992	-0.571449	0.019469
O171	O	1.360326	-0.238115	0.352802
C172	C	0.722046	-0.692837	-0.285432
C173	C	1.055379	-0.359503	0.047901
C174	C	1.388713	-0.026170	0.381235
C175	C	0.755498	-0.669364	-0.252024
C176	C	1.088831	-0.336031	0.081309
C177	C	1.422164	-0.002698	0.414642
C178	C	0.822415	-0.669335	-0.185222
C179	C	1.155748	-0.336001	0.148111
C180	C	1.489081	-0.002668	0.481445
C181	C	0.822396	-0.622419	-0.185215
C182	C	1.155729	-0.289086	0.148118
C183	C	1.489063	0.044247	0.481451
C184	C	0.788928	-0.598976	-0.218613
C185	C	1.122262	-0.265643	0.114720
C186	C	1.455595	0.067690	0.448054
C187	C	0.755479	-0.622449	-0.252018
C188	C	1.088812	-0.289115	0.081316
C189	C	1.422146	0.044218	0.414649
C190	C	0.688580	-0.669391	-0.318836
C191	C	1.021913	-0.336058	0.014497
C192	C	1.355247	-0.002725	0.347831
C193	C	0.688568	-0.622470	-0.318829
C194	C	1.021902	-0.289137	0.014504
C195	C	1.355235	0.044196	0.347837
C196	C	0.722020	-0.598998	-0.285422
C197	C	1.055353	-0.265664	0.047912
C198	C	1.388687	0.067669	0.381245
C199	C	0.721993	-0.552090	-0.285409
C200	C	1.055326	-0.218757	0.047925
C201	C	1.388660	0.114576	0.381258
N202	N	0.755446	-0.528615	-0.252007
N203	N	1.088779	-0.195282	0.081326
N204	N	1.422113	0.138051	0.414660
C205	C	0.788914	-0.552058	-0.218609
C206	C	1.122247	-0.218725	0.114724
C207	C	1.455580	0.114608	0.448058
C208	C	0.722141	-0.979039	-0.285457
C209	C	1.055475	-0.645706	0.047877
C210	C	1.388808	-0.312373	0.381210
C211	C	0.722156	-1.025957	-0.285461
C212	C	1.055489	-0.692624	0.047873
C213	C	1.388823	-0.359291	0.381206
C214	C	0.789079	-1.025925	-0.218658
C215	C	1.122413	-0.692592	0.114676
C216	C	1.455746	-0.359259	0.448009
C217	C	0.789062	-0.979007	-0.218652
C218	C	1.122395	-0.645673	0.114682
C219	C	1.455728	-0.312340	0.448015
C220	C	0.755595	-0.955565	-0.252055
C221	C	1.088928	-0.622231	0.081279
C222	C	1.422261	-0.288898	0.414612
C223	C	0.788872	-0.453533	-0.218597
C224	C	1.122205	-0.120199	0.114736
C225	C	1.455539	0.213134	0.448070
C226	C	0.788849	-0.406613	-0.218592
C227	C	1.122182	-0.073280	0.114742
C228	C	1.455516	0.260054	0.448075
C229	C	0.721928	-0.406649	-0.285396
C230	C	1.055261	-0.073316	0.047937
C231	C	1.388595	0.260018	0.381270
C232	C	0.721949	-0.453564	-0.285400
C233	C	1.055282	-0.120231	0.047933
C234	C	1.388616	0.213102	0.381267
C235	C	0.755425	-0.477005	-0.251999
C236	C	1.088758	-0.143672	0.081335
C237	C	1.422092	0.189662	0.414668
O238	O	0.693533	-0.527802	-0.313784
O239	O	1.026866	-0.194469	0.019549
O240	O	1.360199	0.138865	0.352882
O241	O	0.817366	-0.527777	-0.190207
O242	O	1.150700	-0.194444	0.143126
O243	O	1.484033	0.138889	0.476460
C244	C	0.788984	-0.739723	-0.218633
C245	C	1.122317	-0.406389	0.114700
C246	C	1.455650	-0.073056	0.448033
C247	C	0.755535	-0.763195	-0.252038
C248	C	1.088868	-0.429862	0.081295
C249	C	1.422201	-0.096528	0.414629
C250	C	0.722067	-0.739752	-0.285436
C251	C	1.055400	-0.406419	0.047898
C252	C	1.388733	-0.073085	0.381231
C253	C	0.755549	-0.810113	-0.252042
C254	C	1.088882	-0.476780	0.081291
C255	C	1.422216	-0.143446	0.414625
C256	C	0.789017	-0.833556	-0.218644
C257	C	1.122350	-0.500223	0.114689
C258	C	1.455684	-0.166889	0.448023
C259	C	0.822470	-0.810081	-0.185242
C260	C	1.155803	-0.476748	0.148091
C261	C	1.489137	-0.143414	0.481424
C262	C	0.822451	-0.763166	-0.185235
C263	C	1.155785	-0.429832	0.148098
C264	C	1.489118	-0.096499	0.481431
C265	C	0.688614	-0.763227	-0.318838
C266	C	1.021947	-0.429894	0.014496
C267	C	1.355280	-0.096560	0.347829
C268	C	0.688635	-0.810143	-0.318841
C269	C	1.021968	-0.476809	0.014492
C270	C	1.355301	-0.143476	0.347825
C271	C	0.722102	-0.833585	-0.285443
C272	C	1.055436	-0.500252	0.047890
C273	C	1.388769	-0.166919	0.381223
C274	C	0.891841	-0.216531	-0.252045
C275	C	1.225175	0.116802	0.081288
C276	C	1.558508	0.450136	0.414622
C277	C	0.949955	-0.216539	-0.252060
C278	C	1.283289	0.116794	0.081273
C279	C	1.616622	0.450128	0.414606
C280	C	0.755485	-0.216505	-0.388382
C281	C	1.088819	0.116828	-0.055049
C282	C	1.422152	0.450162	0.278284
C283	C	0.755492	-0.216502	-0.446496
C284	C	1.088826	0.116832	-0.113163
C285	C	1.422159	0.450165	0.220170
C286	C	0.755577	-0.099335	-0.252047
C287	C	1.088911	0.233999	0.081287
C288	C	1.422244	0.567332	0.414620
C289	C	0.755624	-0.049400	-0.252063
C290	C	1.088957	0.283933	0.081271
C291	C	1.422290	0.617266	0.414604
C292	C	0.789002	-0.187687	-0.806883
C293	C	1.122335	0.145646	-0.473550
C294	C	1.455669	0.478979	-0.140217
C295	C	0.789008	-0.187675	-0.861488
C296	C	1.122342	0.145658	-0.528154
C297	C	1.455675	0.478992	-0.194821
O298	O	0.817457	-0.163229	-0.889744
O299	O	1.150790	0.170105	-0.556411
O300	O	1.484124	0.503438	-0.223078
N301	N	0.755550	-0.216396	-0.888779
N302	N	1.088883	0.116937	-0.555446
N303	N	1.422217	0.450270	-0.222112
C304	C	0.722079	-0.245129	-0.861463
C305	C	1.055413	0.088204	-0.528130
C306	C	1.388746	0.421538	-0.194797
O307	O	0.693621	-0.269558	-0.889691
O308	O	1.026954	0.063776	-0.556358
O309	O	1.360287	0.397109	-0.223024
C310	C	0.722071	-0.245139	-0.806860
C311	C	1.055404	0.088194	-0.473527
C312	C	1.388737	0.421528	-0.140193
C313	C	0.755535	-0.216419	-0.779571
C314	C	1.088868	0.116915	-0.446238
C315	C	1.422202	0.450248	-0.112905
C316	C	0.822463	-0.158969	-0.779594
C317	C	1.155796	0.174364	-0.446261
C318	C	1.489130	0.507698	-0.112928
C319	C	0.822457	-0.158982	-0.724994
C320	C	1.155790	0.174351	-0.391661
C321	C	1.489124	0.507685	-0.058327
C322	C	0.788990	-0.187714	-0.697682
C323	C	1.122323	0.145620	-0.364349
C324	C	1.455657	0.478953	-0.031015
C325	C	0.755529	-0.216432	-0.724971
C326	C	1.088862	0.116901	-0.391637
C327	C	1.422196	0.450235	-0.058304
C328	C	0.688598	-0.273869	-0.779545
C329	C	1.021931	0.059464	-0.446212
C330	C	1.355264	0.392798	-0.112879
C331	C	0.688592	-0.273876	-0.724938
C332	C	1.021925	0.059457	-0.391605
C333	C	1.355258	0.392791	-0.058272
C334	C	0.722056	-0.245156	-0.697650
C335	C	1.055389	0.088177	-0.364316
C336	C	1.388722	0.421511	-0.030983
C337	C	0.722056	-0.245176	-0.643058
C338	C	1.055389	0.088157	-0.309725
C339	C	1.388723	0.421490	0.023608
N340	N	0.755514	-0.216455	-0.615767
N341	N	1.088848	0.116879	-0.282434
N342	N	1.422181	0.450212	0.050900
C343	C	0.788981	-0.187723	-0.643079
C344	C	1.122315	0.145610	-0.309745
C345	C	1.455648	0.478943	0.023588
C346	C	0.722100	-0.245106	-0.976134
C347	C	1.055433	0.088228	-0.642801
C348	C	1.388766	0.421561	-0.309467
C349	C	0.722110	-0.245099	-1.030736
C350	C	1.055444	0.088235	-0.697403
C351	C	1.388777	0.421568	-0.364070
C352	C	0.789039	-0.187644	-1.030757
C353	C	1.122372	0.145690	-0.697423
C354	C	1.455706	0.479023	-0.364090
C355	C	0.789030	-0.187653	-0.976153
C356	C	1.122364	0.145680	-0.642820
C357	C	1.455697	0.479013	-0.309487
C358	C	0.755558	-0.216384	-0.948843
C359	C	1.088891	0.116949	-0.615509
C360	C	1.422224	0.450282	-0.282176
C361	C	0.788967	-0.187753	-0.528414
C362	C	1.122300	0.145580	-0.195080
C363	C	1.455633	0.478913	0.138253
C364	C	0.788959	-0.187770	-0.473808
C365	C	1.122293	0.145563	-0.140475
C366	C	1.455626	0.478896	0.192859
C367	C	0.722029	-0.245223	-0.473793
C368	C	1.055363	0.088110	-0.140459
C369	C	1.388696	0.421443	0.192874
C370	C	0.722038	-0.245208	-0.528393
C371	C	1.055372	0.088125	-0.195060
C372	C	1.388705	0.421458	0.138274
C373	C	0.755509	-0.216470	-0.555702
C374	C	1.088842	0.116864	-0.222369
C375	C	1.422175	0.450197	0.110964
O376	O	0.693620	-0.269609	-0.614767
O377	O	1.026954	0.063725	-0.281433
O378	O	1.360287	0.397058	0.051900
O379	O	0.817430	-0.163295	-0.614845
O380	O	1.150764	0.170039	-0.281511
O381	O	1.484097	0.503372	0.051822
C382	C	0.755482	-0.216488	-0.116167
C383	C	1.088815	0.116845	0.217167
C384	C	1.422148	0.450178	0.550500
C385	C	0.755576	-0.216365	-0.058053
C386	C	1.088909	0.116968	0.275280
C387	C	1.422242	0.450301	0.608614
H388	H	0.556434	-0.268707	-0.312526
H389	H	0.889767	0.064626	0.020808
H390	H	1.223101	0.397960	0.354141
H391	H	0.694866	-0.268490	-1.052950
H392	H	1.028200	0.064843	-0.719617
H393	H	1.361533	0.398176	-0.386284
H394	H	0.816220	-0.164350	-0.550642
H395	H	1.149553	0.168983	-0.217309
H396	H	1.482887	0.502317	0.116024
H397	H	0.305276	-0.135522	-0.158101
H398	H	0.638609	0.197812	0.175233
H399	H	0.971942	0.531145	0.508566
N400	N	0.199016	-0.127922	-0.149285
N401	N	0.532349	0.205411	0.184048
N402	N	0.865682	0.538744	0.517381
H403	H	0.208552	-0.095837	-0.157482
H404	H	0.541886	0.237497	0.175852
H405	H	0.875219	0.570830	0.509185
H406	H	0.160288	-0.132320	-0.154361
H407	H	0.493622	0.201013	0.178972
H408	H	0.826955	0.534346	0.512305
H409	H	0.849671	-0.688417	-0.158025
H410	H	1.183004	-0.355084	0.175308
H411	H	1.516337	-0.021750	0.508641
N412	N	0.061309	-0.156716	-0.182675
N413	N	0.394642	0.176617	0.150659
N414	N	0.727975	0.509950	0.483992
H415	H	0.035724	-0.138493	-0.161537
H416	H	0.369057	0.194840	0.171797
H417	H	0.702391	0.528174	0.505130
H418	H	0.083942	-0.174967	-0.158435
H419	H	0.417275	0.158366	0.174899
H420	H	0.750608	0.491700	0.508232
N421	N	0.563662	-0.156689	-0.182601
N422	N	0.896996	0.176644	0.150732
N423	N	1.230329	0.509977	0.484065
H424	H	0.554187	-0.124602	-0.190794
H425	H	0.887520	0.208732	0.142539
H426	H	1.220853	0.542065	0.475872
H427	H	0.554129	-0.163653	-0.145243
H428	H	0.887463	0.169680	0.188091
H429	H	1.220796	0.503014	0.521424
N430	N	0.825056	-0.156792	-0.444378
N431	N	1.158390	0.176541	-0.111045
N432	N	1.491723	0.509874	0.222289
H433	H	0.803828	-0.135975	-0.421717
H434	H	1.137162	0.197358	-0.088383
H435	H	1.470495	0.530692	0.244950
H436	H	0.849260	-0.175091	-0.421761
H437	H	1.182593	0.158242	-0.088427
H438	H	1.515926	0.491575	0.244906
N439	N	-0.052191	-0.276348	-0.321439
N440	N	0.281142	0.056986	0.011894
N441	N	0.614475	0.390319	0.345227
H442	H	-0.042718	-0.308436	-0.313250
H443	H	0.290616	0.024897	0.020083
H444	H	0.623949	0.358230	0.353417
H445	H	-0.090914	-0.271942	-0.316360
H446	H	0.242419	0.061391	0.016974
H447	H	0.575753	0.394724	0.350307
N448	N	0.686067	-1.051268	-0.321487
N449	N	1.019400	-0.717934	0.011846
N450	N	1.352734	-0.384601	0.345180
H451	H	0.694159	-1.043080	-0.358851
H452	H	1.027493	-0.709747	-0.025518
H453	H	1.360826	-0.376414	0.307816
H454	H	0.691165	-1.084540	-0.316382
H455	H	1.024498	-0.751207	0.016951
H456	H	1.357832	-0.417874	0.350285
H457	H	0.661361	-0.744143	-0.346035
H458	H	0.994694	-0.410810	-0.012702
H459	H	1.328028	-0.077477	0.320632
N460	N	0.824933	-0.381295	-0.182562
N461	N	1.158266	-0.047962	0.150772
N462	N	1.491599	0.285372	0.484105
H463	H	0.816844	-0.389483	-0.145197
H464	H	1.150177	-0.056149	0.188137
H465	H	1.483511	0.277184	0.521470
H466	H	0.862271	-0.389437	-0.190771
H467	H	1.195605	-0.056104	0.142562
H468	H	1.528938	0.277229	0.475895
N469	N	0.824974	-0.478806	-0.182564
N470	N	1.158308	-0.145472	0.150769
N471	N	1.491641	0.187861	0.484102
H472	H	0.803749	-0.498297	-0.158314
H473	H	1.137083	-0.164964	0.175020
H474	H	1.470416	0.168370	0.508353
H475	H	0.849196	-0.498219	-0.203869
H476	H	1.182530	-0.164885	0.129465
H477	H	1.515863	0.168448	0.462798
H478	H	0.694842	-0.268504	-0.953901
H479	H	1.028175	0.064829	-0.620568
H480	H	1.361508	0.398162	-0.287234
N481	N	0.858484	-0.597106	-0.149190
N482	N	1.191817	-0.263772	0.184143
N483	N	1.525150	0.069561	0.517476
H484	H	0.879688	-0.619082	-0.128040
H485	H	1.213022	-0.285749	0.205293
H486	H	1.546355	0.047585	0.538627
H487	H	0.882658	-0.577616	-0.170502
H488	H	1.215991	-0.244282	0.162831
H489	H	1.549325	0.089051	0.496164
H490	H	0.816301	-0.959898	-0.191448
H491	H	1.149634	-0.626565	0.141885
H492	H	1.482968	-0.293231	0.475218
H493	H	0.457377	-0.164299	-0.191433
H494	H	0.790711	0.169034	0.141900
H495	H	1.124044	0.502367	0.475233
N496	N	-0.052179	-0.156736	-0.182678
N497	N	0.281155	0.176597	0.150656
N498	N	0.614488	0.509930	0.483989
H499	H	-0.026592	-0.138510	-0.161533
H500	H	0.306741	0.194824	0.171801
H501	H	0.640074	0.528157	0.505134
H502	H	-0.074808	-0.135972	-0.204005
H503	H	0.258525	0.197361	0.129328
H504	H	0.591858	0.530695	0.462662
H505	H	0.816330	-1.045021	-0.191464
H506	H	1.149663	-0.711687	0.141869
H507	H	1.482997	-0.378354	0.475203
N508	N	0.686040	-0.953759	-0.321484
N509	N	1.019373	-0.620425	0.011849
N510	N	1.352707	-0.287092	0.345183
H511	H	0.664851	-0.975753	-0.342640
H512	H	0.998185	-0.642420	-0.009306
H513	H	1.331518	-0.309086	0.324027
H514	H	0.661852	-0.934320	-0.300173
H515	H	0.995185	-0.600987	0.033161
H516	H	1.328518	-0.267653	0.366494
N517	N	0.685934	-0.276208	-0.444325
N518	N	1.019267	0.057125	-0.110992
N519	N	1.352600	0.390459	0.222341
H520	H	0.648585	-0.269221	-0.453817
H521	H	0.981918	0.064112	-0.120484
H522	H	1.315251	0.397445	0.212849
H523	H	0.694065	-0.308296	-0.453833
H524	H	1.027398	0.025038	-0.120500
H525	H	1.360731	0.358371	0.212834
H526	H	0.694712	-0.472677	-0.312605
H527	H	1.028045	-0.139343	0.020729
H528	H	1.361378	0.193990	0.354062
N529	N	0.858549	-0.128004	-0.695565
N530	N	1.191882	0.205330	-0.362232
N531	N	1.525216	0.538663	-0.028898
H532	H	0.879747	-0.109802	-0.721159
H533	H	1.213081	0.223531	-0.387826
H534	H	1.546414	0.556864	-0.054493
H535	H	0.837284	-0.107214	-0.672908
H536	H	1.170617	0.226120	-0.339575
H537	H	1.503950	0.559453	-0.006241
H538	H	0.661347	-0.297256	-0.801754
H539	H	0.994681	0.036077	-0.468421
H540	H	1.328014	0.369411	-0.135088
H541	H	0.661337	-0.688495	-0.346038
H542	H	0.994671	-0.355161	-0.012704
H543	H	1.328004	-0.021828	0.320629
H544	H	0.661316	-0.603386	-0.346032
H545	H	0.994649	-0.270053	-0.012699
H546	H	1.327983	0.063281	0.320635
H547	H	0.816288	-0.164248	-1.053004
H548	H	1.149622	0.169086	-0.719671
H549	H	1.482955	0.502419	-0.386337
N550	N	0.652484	-0.304861	-0.695482
N551	N	0.985817	0.028472	-0.362148
N552	N	1.319150	0.361806	-0.028815
H553	H	0.631287	-0.323050	-0.721058
H554	H	0.964620	0.010283	-0.387725
H555	H	1.297954	0.343616	-0.054391
H556	H	0.673738	-0.325662	-0.672828
H557	H	1.007072	0.007671	-0.339495
H558	H	1.340405	0.341004	-0.006162
H559	H	0.694677	-0.387554	-0.312587
H560	H	1.028011	-0.054221	0.020746
H561	H	1.361344	0.279112	0.354080
H562	H	0.849716	-0.135570	-0.801826
H563	H	1.183049	0.197763	-0.468493
H564	H	1.516383	0.531097	-0.135159
N565	N	0.858535	-0.737852	-0.149206
N566	N	1.191868	-0.404519	0.184127
N567	N	1.525201	-0.071185	0.517461
H568	H	0.879737	-0.759828	-0.128054
H569	H	1.213071	-0.426495	0.205279
H570	H	1.546404	-0.093162	0.538613
H571	H	0.882711	-0.718360	-0.170513
H572	H	1.216044	-0.385027	0.162820
H573	H	1.549377	-0.051693	0.496154
N574	N	0.858563	-0.835370	-0.149215
N575	N	1.191897	-0.502037	0.184118
N576	N	1.525230	-0.168704	0.517452
H577	H	0.853494	-0.868653	-0.154291
H578	H	1.186827	-0.535320	0.179042
H579	H	1.520161	-0.201987	0.512375
H580	H	0.895897	-0.827139	-0.157390
H581	H	1.229231	-0.493806	0.175944
H582	H	1.562564	-0.160472	0.509277
N583	N	0.685953	-0.276190	-0.557830
N584	N	1.019286	0.057144	-0.224497
N585	N	1.352619	0.390477	0.108837
H586	H	0.664753	-0.294394	-0.532240
H587	H	0.998086	0.038939	-0.198907
H588	H	1.331419	0.372272	0.134427
H589	H	0.661774	-0.257894	-0.580478
H590	H	0.995108	0.075439	-0.247144
H591	H	1.328441	0.408773	0.086189
N592	N	0.652547	-0.835453	-0.354875
N593	N	0.985880	-0.502119	-0.021541
N594	N	1.319213	-0.168786	0.311792
H595	H	0.660642	-0.827262	-0.392237
H596	H	0.993975	-0.493929	-0.058904
H597	H	1.327308	-0.160595	0.274430
H598	H	0.657648	-0.868725	-0.349773
H599	H	0.990981	-0.535392	-0.016439
H600	H	1.324314	-0.202059	0.316894
N601	N	0.450165	-0.276316	-0.321372
N602	N	0.783498	0.057018	0.011962
N603	N	1.116832	0.390351	0.345295
H604	H	0.475751	-0.294541	-0.342506
H605	H	0.809084	0.038792	-0.009173
H606	H	1.142417	0.372126	0.324161
H607	H	0.427486	-0.297081	-0.300048
H608	H	0.760819	0.036252	0.033286
H609	H	1.094152	0.369586	0.366619
H610	H	0.206210	-0.297497	-0.345962
H611	H	0.539543	0.035836	-0.012629
H612	H	0.872877	0.369170	0.320704
N613	N	0.312474	-0.305098	-0.354764
N614	N	0.645807	0.028235	-0.021431
N615	N	0.979140	0.361568	0.311902
H616	H	0.286886	-0.323324	-0.375909
H617	H	0.620219	0.010009	-0.042575
H618	H	0.953552	0.343343	0.290758
H619	H	0.335153	-0.286842	-0.378999
H620	H	0.668486	0.046491	-0.045665
H621	H	1.001819	0.379825	0.287668
H622	H	0.054088	-0.268739	-0.312604
H623	H	0.387421	0.064594	0.020729
H624	H	0.720754	0.397928	0.354063
N625	N	0.825123	-0.156677	-0.946723
N626	N	1.158457	0.176656	-0.613389
N627	N	1.491790	0.509989	-0.280056
H628	H	0.846325	-0.138477	-0.972315
H629	H	1.179658	0.194856	-0.638982
H630	H	1.512992	0.528190	-0.305648
H631	H	0.803858	-0.135886	-0.924067
H632	H	1.137192	0.197448	-0.590733
H633	H	1.470525	0.530781	-0.257400
