data_functionalizedCrystal
_audit_creation_method	'MofGen! by Chris Wilmer'
_symmetry_space_group_name_H-M	'P1'
_symmetry_Int_Tables_number	1
_symmetry_cell_setting	triclinic
loop_
_symmetry_equiv_pos_as_xyz
  x,y,z
_cell_length_a	17.038272
_cell_length_b	15.500227
_cell_length_c	15.538191
_cell_angle_alpha	88.298583
_cell_angle_beta	69.191825
_cell_angle_gamma	93.043705
loop_
_atom_site_label
_atom_site_type_symbol
_atom_site_fract_x
_atom_site_fract_y
_atom_site_fract_z
O1	O	0.985412	0.071828	0.196027
O2	O	0.758683	0.071853	0.192849
O3	O	0.916182	0.071840	0.060846
O4	O	0.827913	0.071841	0.328030
O5	O	0.906634	-0.072048	0.068822
O6	O	0.749135	-0.072035	0.200826
O7	O	0.975864	-0.072060	0.204003
Cu8	Cu	0.861628	-0.085185	0.203143
Cu9	Cu	0.872919	0.084979	0.193710
O10	O	0.818365	-0.072046	0.336007
C11	C	0.725600	-0.000087	0.193949
C12	C	0.641252	-0.000077	0.185330
C13	C	0.568701	-0.000078	0.264454
C14	C	0.489447	-0.000090	0.256352
C15	C	0.482747	-0.000095	0.169124
C16	C	0.555306	-0.000098	0.089995
C17	C	0.634557	-0.000092	0.098099
C18	C	0.245106	-0.000118	0.140496
C19	C	0.165847	-0.000122	0.132398
C20	C	0.099993	-0.000115	0.298756
C21	C	0.179249	-0.000104	0.306852
C22	C	0.251801	-0.000111	0.227722
C23	C	0.401738	-0.000105	0.160840
C24	C	0.332808	-0.000108	0.236008
N25	N	0.853692	-0.204870	0.209778
C26	C	0.920441	-0.250152	0.153867
C27	C	0.914443	-0.340724	0.158893
C28	C	0.841699	-0.386013	0.219837
C29	C	0.774944	-0.340724	0.275750
C30	C	0.780939	-0.250153	0.270718
C31	C	0.820104	-0.659478	0.237949
C32	C	0.814115	-0.750055	0.242979
C33	C	0.953614	-0.750049	0.126121
C34	C	0.959605	-0.659477	0.121098
C35	C	0.892849	-0.614196	0.177008
C36	C	0.835568	-0.478592	0.224979
C37	C	0.898978	-0.521618	0.171861
C38	C	1.008947	-0.000118	0.202904
C39	C	1.093296	-0.000122	0.211522
C40	C	0.920644	-0.000102	0.030478
C41	C	0.948153	-0.000097	-0.071891
N42	N	0.880863	0.204663	0.187068
C43	C	0.674859	-0.000085	-0.381584
C44	C	0.700727	-0.000090	-0.477776
C45	C	0.846228	-0.000106	-0.488558
C46	C	0.820373	-0.000096	-0.392365
C47	C	0.734687	-0.000087	-0.338885
C48	C	0.880201	-0.000099	-0.349666
C49	C	0.854347	-0.000094	-0.253481
C50	C	0.768665	-0.000087	-0.199994
C51	C	0.708833	-0.000082	-0.242700
C52	C	0.965886	-0.000114	-0.403147
C53	C	1.025714	-0.000117	-0.360448
C54	C	0.999861	-0.000106	-0.264261
C55	C	0.914179	-0.000099	-0.210775
C56	C	1.059693	-0.000111	-0.221556
C57	C	1.033839	-0.000106	-0.125371
C58	C	0.888325	-0.000095	-0.114590
C59	C	0.813903	-0.000102	0.366374
C60	C	0.786394	-0.000102	0.468743
H61	H	0.574146	-0.000072	0.335484
H62	H	0.979679	-0.213284	0.104244
H63	H	0.726585	-0.213285	0.316246
O64	O	0.704277	-0.384812	0.334826
C65	C	0.587542	-0.487046	0.351667
C66	C	0.667563	-0.437188	0.284661
H67	H	0.557825	-0.529391	0.311133
H68	H	0.604631	-0.529496	0.402691
H69	H	0.540892	-0.439107	0.390784
H70	H	0.714249	-0.485065	0.245480
H71	H	0.650409	-0.394725	0.233696
O72	O	0.805073	0.000038	-0.062734
C73	C	0.677759	0.074636	-0.028170
C74	C	0.772022	0.074583	-0.086974
H75	H	0.651012	0.134909	-0.047733
H76	H	0.642910	0.014467	-0.041092
H77	H	0.669583	0.074597	0.047905
H78	H	0.780276	0.074653	-0.163068
H79	H	0.806825	0.134747	-0.073974
H80	H	0.338266	-0.000108	0.307028
H81	H	1.129458	-0.000127	-0.265113
H82	H	0.304170	-0.000125	0.076063
O83	O	0.743367	-0.794015	0.302072
C84	C	0.593318	-0.821722	0.346842
C85	C	0.673369	-0.771897	0.279853
H86	H	0.536702	-0.803845	0.328915
H87	H	0.600442	-0.894243	0.340825
H88	H	0.583543	-0.803921	0.420431
H89	H	0.683191	-0.789626	0.206236
H90	H	0.666208	-0.699389	0.285951
O91	O	0.625617	0.000085	-0.190709
C92	C	0.516946	0.074620	-0.079938
C93	C	0.611197	0.074549	-0.138786
H94	H	0.505260	0.134808	-0.037929
H95	H	0.478579	0.074681	-0.126933
H96	H	0.497230	0.014377	-0.031337
H97	H	0.630991	0.134781	-0.187394
H98	H	0.649509	0.074442	-0.091737
H99	H	0.160399	-0.000125	0.061364
O100	O	1.030261	-0.615719	0.061593
C101	C	1.122173	-0.588681	-0.096639
C102	C	1.042101	-0.638147	-0.029245
H103	H	1.131781	-0.606809	-0.170094
H104	H	1.115257	-0.516106	-0.090975
H105	H	1.178798	-0.606553	-0.078725
H106	H	0.985437	-0.620347	-0.047114
H107	H	1.049090	-0.710710	-0.034921
H108	H	0.430376	-0.000089	0.320783
O109	O	1.108977	-0.000159	-0.412262
C110	C	1.250583	-0.000102	-0.412806
C111	C	1.156313	-0.000079	-0.354018
H112	H	1.288882	-0.000018	-0.365741
H113	H	1.262383	-0.060334	-0.454744
H114	H	1.270276	0.060099	-0.461469
H115	H	1.136555	-0.060239	-0.305303
H116	H	1.144564	0.060194	-0.312142
H117	H	1.082557	-0.000109	-0.090605
H118	H	0.968795	-0.377593	0.113366
O119	O	0.395193	0.000050	0.076122
C120	C	0.348804	0.074561	-0.033664
C121	C	0.356186	0.074507	0.062290
H122	H	0.317252	0.134744	-0.044871
H123	H	0.414254	0.074623	-0.088877
H124	H	0.309386	0.014313	-0.038257
H125	H	0.395569	0.134745	0.066972
H126	H	0.290709	0.074400	0.117457
O127	O	1.018535	-0.793994	0.071899
C128	C	1.164930	-0.821646	0.030149
C129	C	1.091474	-0.771843	0.091636
H130	H	1.223923	-0.803741	0.046070
H131	H	1.148222	-0.894169	0.044210
H132	H	1.177036	-0.803851	-0.045408
H133	H	1.079330	-0.789566	0.167214
H134	H	1.108218	-0.699332	0.077496
O135	O	0.969547	-0.477551	0.112579
C136	C	1.028259	-0.375392	-0.017658
C137	C	0.948273	-0.425227	0.049447
H138	H	1.011090	-0.333089	-0.068729
H139	H	1.057994	-0.332902	0.022746
H140	H	1.074924	-0.423346	-0.056711
H141	H	0.901548	-0.377335	0.088517
H142	H	0.918606	-0.467729	0.008991
O143	O	0.591607	0.000048	-0.329728
C144	C	0.464292	0.074646	-0.295164
C145	C	0.558556	0.074593	-0.353968
H146	H	0.437546	0.134919	-0.314727
H147	H	0.429444	0.014477	-0.308086
H148	H	0.456117	0.074607	-0.219089
H149	H	0.566810	0.074663	-0.430062
H150	H	0.593359	0.134757	-0.340968
O151	O	0.755297	-0.615543	0.292403
C152	C	0.666857	-0.587882	0.447405
C153	C	0.740278	-0.637677	0.385838
H154	H	0.654679	-0.605772	0.522958
H155	H	0.683601	-0.515357	0.433428
H156	H	0.607892	-0.605697	0.431396
H157	H	0.799272	-0.619934	0.401810
H158	H	0.723463	-0.710190	0.399824
O159	O	0.764907	-0.522685	0.284058
C160	C	0.648179	-0.624929	0.300893
C161	C	0.728194	-0.575058	0.233889
H162	H	0.618464	-0.667270	0.260356
H163	H	0.665277	-0.667383	0.351908
H164	H	0.601525	-0.576998	0.340021
H165	H	0.774884	-0.622926	0.194698
H166	H	0.711032	-0.532591	0.182934
O167	O	0.743640	-0.000198	-0.106561
C168	C	0.741458	-0.074764	0.032658
C169	C	0.769867	-0.074737	-0.073154
H170	H	0.762636	-0.135032	0.059701
H171	H	0.770702	-0.014590	0.053093
H172	H	0.669944	-0.074715	0.063520
H173	H	0.841373	-0.074817	-0.104090
H174	H	0.740561	-0.134906	-0.093524
H175	H	0.652000	-0.000100	-0.512537
O176	O	0.929491	0.000004	-0.540422
C177	C	1.066705	0.074574	-0.583248
C178	C	0.972433	0.074543	-0.524449
H179	H	1.101447	0.134842	-0.570370
H180	H	1.093563	0.014400	-0.563642
H181	H	1.074883	0.074529	-0.659320
H182	H	0.964181	0.074619	-0.448361
H183	H	0.945619	0.134712	-0.544133
H184	H	0.184696	-0.000090	0.377880
H185	H	0.040914	-0.000111	0.363178
H186	H	0.549844	-0.000115	0.018973
H187	H	0.693631	-0.000091	0.033667
H188	H	0.986934	-0.000110	-0.481467
