data_functionalizedCrystal
_audit_creation_method	'MofGen! by Chris Wilmer'
_symmetry_space_group_name_H-M	'P1'
_symmetry_Int_Tables_number	1
_symmetry_cell_setting	triclinic
loop_
_symmetry_equiv_pos_as_xyz
  x,y,z
_cell_length_a	19.805407
_cell_length_b	21.295417
_cell_length_c	19.805399
_cell_angle_alpha	89.967749
_cell_angle_beta	89.983114
_cell_angle_gamma	90.030507
loop_
_atom_site_label
_atom_site_type_symbol
_atom_site_fract_x
_atom_site_fract_y
_atom_site_fract_z
Zn1	Zn	1.034698	-0.250615	-0.382704
Zn2	Zn	1.534698	0.249385	0.117296
Zn3	Zn	1.034611	-0.355886	-0.269510
Zn4	Zn	1.534611	0.144114	0.230490
Zn5	Zn	0.921518	-0.250635	-0.269529
Zn6	Zn	1.421518	0.249365	0.230471
Zn7	Zn	0.921469	-0.355850	-0.382656
Zn8	Zn	1.421469	0.144150	0.117344
O9	O	0.978074	-0.303247	-0.326100
O10	O	1.478074	0.196753	0.173900
O11	O	1.129403	-0.264586	-0.367701
O12	O	1.629403	0.235414	0.132299
O13	O	1.019593	-0.341948	-0.174796
O14	O	1.519593	0.158052	0.325204
O15	O	0.936590	-0.162543	-0.284570
O16	O	1.436590	0.337457	0.215430
O17	O	1.129339	-0.341929	-0.284537
O18	O	1.629339	0.158071	0.215463
O19	O	1.019743	-0.162528	-0.367719
O20	O	1.519743	0.337472	0.132281
O21	O	0.936504	-0.264620	-0.174810
O22	O	1.436504	0.235380	0.325190
O23	O	0.826795	-0.264585	-0.284523
O24	O	1.326795	0.235415	0.215477
O25	O	0.936505	-0.341867	-0.477379
O26	O	1.436505	0.158133	0.022621
O27	O	0.826759	-0.341887	-0.367638
O28	O	1.326759	0.158113	0.132362
O29	O	1.019694	-0.264551	-0.477415
O30	O	1.519694	0.235449	0.022585
O31	O	1.019544	-0.443971	-0.284491
O32	O	1.519544	0.056029	0.215509
O33	O	0.936419	-0.443945	-0.367619
O34	O	1.436419	0.056055	0.132381
C35	C	0.802218	-0.303235	-0.326078
C36	C	1.302218	0.196765	0.173922
C37	C	0.726986	-0.303245	-0.326085
C38	C	1.226986	0.196755	0.173915
C39	C	0.691640	-0.343556	-0.369292
C40	C	1.191640	0.156444	0.130708
C41	C	0.620952	-0.343557	-0.369302
C42	C	1.120952	0.156443	0.130698
C43	C	0.585610	-0.303250	-0.326100
C44	C	1.085610	0.196750	0.173900
C45	C	0.620961	-0.262934	-0.282890
C46	C	1.120961	0.237066	0.217110
C47	C	0.691648	-0.262930	-0.282885
C48	C	1.191648	0.237070	0.217115
C49	C	0.335888	-0.262948	-0.282913
C50	C	0.835888	0.237052	0.217087
C51	C	0.265195	-0.262956	-0.282920
C52	C	0.765195	0.237044	0.217080
C53	C	0.265192	-0.343575	-0.369330
C54	C	0.765192	0.156425	0.130670
C55	C	0.335879	-0.343571	-0.369324
C56	C	0.835879	0.156429	0.130676
C57	C	0.371223	-0.303253	-0.326117
C58	C	0.871223	0.196747	0.173883
C59	C	0.447871	-0.303252	-0.326109
C60	C	0.947871	0.196748	0.173891
C61	C	0.508963	-0.303254	-0.326105
C62	C	1.008963	0.196746	0.173895
C63	C	0.977985	-0.466798	-0.326062
C64	C	1.477985	0.033202	0.173938
C65	C	0.978009	-0.536766	-0.326069
C66	C	1.478009	-0.036766	0.173931
C67	C	1.021331	-0.569626	-0.282828
C68	C	1.521331	-0.069626	0.217172
C69	C	1.021363	-0.635368	-0.282844
C70	C	1.521363	-0.135368	0.217156
C71	C	0.978061	-0.668249	-0.326092
C72	C	1.478061	-0.168249	0.173908
C73	C	0.934736	-0.635381	-0.369341
C74	C	1.434736	-0.135381	0.130659
C75	C	0.934710	-0.569640	-0.369330
C76	C	1.434710	-0.069640	0.130670
N77	N	0.918850	-0.771515	-0.331245
N78	N	1.418850	-0.271515	0.168755
N79	N	0.918876	-0.833966	-0.331252
N80	N	1.418876	-0.333966	0.168748
C81	C	0.978136	-0.866324	-0.326131
C82	C	1.478136	-0.366324	0.173869
N83	N	1.037371	-0.833870	-0.320989
N84	N	1.537371	-0.333870	0.179011
N85	N	1.037343	-0.771413	-0.320979
N86	N	1.537343	-0.271413	0.179021
C87	C	0.978084	-0.739534	-0.326110
C88	C	1.478084	-0.239534	0.173890
C89	C	1.021496	-0.970469	-0.282905
C90	C	1.521496	-0.470469	0.217095
C91	C	1.021529	-1.036212	-0.282925
C92	C	1.521529	-0.536212	0.217075
C93	C	0.934896	-1.036224	-0.369419
C94	C	1.434896	-0.536224	0.130581
C95	C	0.934869	-0.970482	-0.369402
C96	C	1.434869	-0.470482	0.130598
C97	C	0.978168	-0.937608	-0.326142
C98	C	1.478168	-0.437608	0.173858
C99	C	1.154617	-0.303259	-0.326122
C100	C	1.654617	0.196741	0.173878
C101	C	1.229849	-0.303265	-0.326132
C102	C	1.729849	0.196735	0.173868
C103	C	0.978104	-0.303203	-0.502643
C104	C	1.478104	0.196797	-0.002643
C105	C	0.978116	-0.303184	-0.577875
C106	C	1.478116	0.196816	-0.077875
C107	C	0.978181	-0.139056	-0.326152
C108	C	1.478181	0.360944	0.173848
C109	C	0.978227	-0.069088	-0.326175
C110	C	1.478227	0.430912	0.173825
C111	C	0.934865	-0.262916	-0.613226
C112	C	1.434865	0.237084	-0.113226
C113	C	0.934874	-0.262904	-0.683914
C114	C	1.434874	0.237096	-0.183914
C115	C	0.978139	-0.303157	-0.719250
C116	C	1.478139	0.196843	-0.219250
C117	C	1.021393	-0.343430	-0.683894
C118	C	1.521393	0.156570	-0.183894
C119	C	1.021379	-0.343445	-0.613207
C120	C	1.521379	0.156555	-0.113207
C121	C	1.021446	-0.343371	-0.968968
C122	C	1.521446	0.156629	-0.468968
C123	C	1.021458	-0.343352	-1.039660
C124	C	1.521458	0.156648	-0.539660
C125	C	0.934941	-0.262830	-1.039675
C126	C	1.434941	0.237170	-0.539675
C127	C	0.934928	-0.262845	-0.968988
C128	C	1.434928	0.237155	-0.468988
C129	C	0.978178	-0.303120	-0.933638
C130	C	1.478178	0.196880	-0.433638
C131	C	0.978167	-0.303133	-0.856989
C132	C	1.478167	0.196867	-0.356989
C133	C	0.978154	-0.303141	-0.795897
C134	C	1.478154	0.196859	-0.295897
C135	C	0.978083	-0.303245	-0.150244
C136	C	1.478083	0.196755	0.349756
C137	C	0.978202	-0.303086	-0.075012
C138	C	1.478202	0.196914	0.424988
H139	H	0.364650	-0.376396	-0.404501
H140	H	0.864650	0.123604	0.095499
H141	H	1.056643	-0.662128	-0.247632
H142	H	1.556643	-0.162128	0.252368
Br143	Br	0.876136	-0.208286	-0.731888
Br144	Br	1.376136	0.291714	-0.231888
H145	H	0.899480	-0.662157	-0.404556
H146	H	1.399480	-0.162157	0.095444
Br147	Br	1.080255	-0.925850	-0.224193
Br148	Br	1.580255	-0.425850	0.275807
H149	H	1.056811	-1.062965	-0.247714
H150	H	1.556811	-0.562965	0.252286
H151	H	1.056589	-0.542862	-0.247605
H152	H	1.556589	-0.042862	0.252395
H153	H	0.236422	-0.230129	-0.247740
H154	H	0.736422	0.269871	0.252260
Br155	Br	0.876150	-0.208279	-0.565276
Br156	Br	1.376150	0.291721	-0.065276
H157	H	0.899432	-0.542885	-0.404542
H158	H	1.399432	-0.042885	0.095458
Br159	Br	0.876135	-1.080840	-0.428122
Br160	Br	1.376135	-0.580840	0.071878
H161	H	0.899590	-0.943726	-0.404610
H162	H	1.399590	-0.443726	0.095390
Br163	Br	0.572985	-0.398266	-0.427945
Br164	Br	1.072985	0.101734	0.072055
H165	H	0.899699	-0.230064	-0.940220
H166	H	1.399699	0.269936	-0.440220
H167	H	1.056604	-0.376231	-0.584425
H168	H	1.556604	0.123769	-0.084425
Br169	Br	0.876241	-0.208171	-1.087653
Br170	Br	1.376241	0.291829	-0.587653
Br171	Br	1.080104	-0.398066	-0.731850
Br172	Br	1.580104	0.101934	-0.231850
H173	H	1.056691	-0.376133	-1.068429
H174	H	1.556691	0.123867	-0.568429
H175	H	1.056656	-0.376172	-0.940194
H176	H	1.556656	0.123828	-0.440194
H177	H	0.720411	-0.376381	-0.404470
H178	H	1.220411	0.123619	0.095530
Br179	Br	0.217221	-0.398294	-0.427967
Br180	Br	0.717221	0.101706	0.072033
H181	H	0.720425	-0.230101	-0.247704
H182	H	1.220425	0.269899	0.252296
Br183	Br	0.383846	-0.208227	-0.224279
Br184	Br	0.883846	0.291773	0.275721
Br185	Br	0.572998	-0.208224	-0.224265
Br186	Br	1.072998	0.291776	0.275735
