data_functionalizedCrystal
_audit_creation_method	'MofGen! by Chris Wilmer'
_symmetry_space_group_name_H-M	'P1'
_symmetry_Int_Tables_number	1
_symmetry_cell_setting	triclinic
loop_
_symmetry_equiv_pos_as_xyz
  x,y,z
_cell_length_a	15.538191
_cell_length_b	14.421503
_cell_length_c	15.625429
_cell_angle_alpha	108.072852
_cell_angle_beta	66.736792
_cell_angle_gamma	90.006066
loop_
_atom_site_label
_atom_site_type_symbol
_atom_site_fract_x
_atom_site_fract_y
_atom_site_fract_z
O1	O	1.249530	-0.021277	-0.292676
O2	O	0.975409	0.013703	-0.188631
O3	O	1.119790	-0.048718	-0.374279
O4	O	1.105150	0.041144	-0.107029
O5	O	1.119766	-0.202932	-0.374251
O6	O	0.975385	-0.140511	-0.188603
O7	O	1.249506	-0.175491	-0.292648
Cu8	Cu	1.112444	-0.172082	-0.240623
Cu9	Cu	1.112472	0.010294	-0.240656
O10	O	1.105126	-0.113070	-0.107000
C11	C	0.940316	-0.059744	-0.177731
C12	C	0.835785	-0.048843	-0.145306
N13	N	1.112431	-0.300356	-0.240602
C14	C	0.547568	-0.157146	-0.467443
C15	C	0.449343	-0.146893	-0.436952
C16	C	0.427127	-0.089225	-0.265446
C17	C	0.525353	-0.099478	-0.295923
C18	C	0.585566	-0.133438	-0.396923
C19	C	0.563350	-0.075769	-0.225402
C20	C	0.661567	-0.086017	-0.255877
C21	C	0.721787	-0.119972	-0.356872
C22	C	0.683783	-0.143685	-0.427398
C23	C	0.503135	-0.041803	-0.124402
C24	C	0.541133	-0.018094	-0.053882
C25	C	0.639351	-0.028348	-0.084356
C26	C	0.699571	-0.062304	-0.185352
C27	C	0.677355	-0.004635	-0.013831
C28	C	0.775572	-0.014883	-0.044306
C29	C	0.797788	-0.072551	-0.215827
C30	C	1.045657	-0.521154	-0.154783
C31	C	1.130763	-0.586436	-0.165134
C32	C	1.112454	-0.489527	-0.240631
C33	C	1.027370	-0.608335	-0.230266
C34	C	1.112468	-0.672256	-0.240654
C35	C	1.197602	-0.553439	-0.250955
C36	C	1.094153	-0.575338	-0.316105
C37	C	1.179320	-0.640610	-0.326510
C38	C	1.112444	-0.384260	-0.240615
C39	C	1.112487	-0.777522	-0.240675
C40	C	1.284600	-0.102041	-0.303548
C41	C	1.389130	-0.112936	-0.335973
C42	C	1.119114	-0.137043	-0.407633
C43	C	1.117124	-0.170468	-0.507057
N44	N	1.112492	0.138565	-0.240687
C45	C	1.110618	0.139880	-0.834119
C46	C	1.108744	0.108443	-0.927540
C47	C	1.108718	-0.059670	-0.927496
C48	C	1.110597	-0.028248	-0.834074
C49	C	1.111546	0.071528	-0.787392
C50	C	1.111524	-0.096600	-0.787348
C51	C	1.113398	-0.065180	-0.693932
C52	C	1.114344	0.034592	-0.647243
C53	C	1.113419	0.102948	-0.693977
C54	C	1.110569	-0.196375	-0.834028
C55	C	1.111496	-0.264727	-0.787302
C56	C	1.113377	-0.233308	-0.693888
C57	C	1.114323	-0.133536	-0.647199
C58	C	1.114302	-0.301664	-0.647154
C59	C	1.116175	-0.270244	-0.553739
C60	C	1.116196	-0.102116	-0.553783
C61	C	1.105802	-0.024742	-0.073646
C62	C	1.107792	0.008689	0.025778
H63	H	0.801761	-0.128303	-0.381683
O64	O	0.978453	-0.459570	-0.068139
C65	C	0.945352	-0.318664	0.078108
C66	C	1.021545	-0.388323	-0.019998
H67	H	0.980165	-0.261056	0.117068
H68	H	0.891941	-0.280408	0.062344
H69	H	0.907542	-0.363012	0.127578
H70	H	1.059426	-0.344047	-0.069517
H71	H	1.074893	-0.426582	-0.004161
O72	O	1.117203	-0.336572	-0.508309
C73	C	1.200829	-0.411129	-0.439753
C74	C	1.199783	-0.335958	-0.491178
H75	H	1.267599	-0.410673	-0.425906
H76	H	1.135906	-0.390607	-0.366183
H77	H	1.199784	-0.487816	-0.489168
H78	H	1.200861	-0.259246	-0.441842
H79	H	1.264701	-0.356565	-0.564759
O80	O	0.812381	0.008296	0.024284
C81	C	0.823521	0.134353	0.161500
C82	C	0.781753	0.108226	0.083889
H83	H	0.798791	0.215152	0.209697
H84	H	0.798699	0.086114	0.209863
H85	H	0.904061	0.121143	0.122342
H86	H	0.701213	0.121441	0.122965
H87	H	0.806649	0.156461	0.035531
O88	O	1.149113	-0.593361	-0.088967
C89	C	1.093646	-0.635169	0.059944
C90	C	1.072766	-0.627401	-0.026281
H91	H	1.031925	-0.662670	0.110660
H92	H	1.160952	-0.688970	0.029405
H93	H	1.103499	-0.559541	0.103638
H94	H	1.062868	-0.702984	-0.070009
H95	H	1.005481	-0.573551	0.004322
O96	O	0.605934	-0.190108	-0.565596
C97	C	0.617617	-0.246286	-0.732509
C98	C	0.551412	-0.208952	-0.621392
H99	H	0.573562	-0.261552	-0.777653
H100	H	0.664145	-0.187987	-0.751128
H101	H	0.664166	-0.317030	-0.751007
H102	H	0.504803	-0.138225	-0.602816
H103	H	0.504948	-0.267314	-0.602832
H104	H	1.107980	0.164113	-0.965577
H105	H	1.109033	-0.221952	-0.910089
H106	H	1.116977	-0.020870	-0.515776
H107	H	1.107942	-0.140907	-0.965515
H108	H	0.846818	-0.100210	-0.298071
O109	O	1.113503	-0.398626	-0.692461
C110	C	1.194441	-0.564335	-0.757952
C111	C	1.195454	-0.454560	-0.706622
H112	H	1.260701	-0.609586	-0.769435
H113	H	1.129007	-0.589656	-0.709774
H114	H	1.192891	-0.575019	-0.832717
H115	H	1.197039	-0.443793	-0.631860
H116	H	1.260882	-0.429291	-0.754871
H117	H	1.235876	-0.691959	-0.399142
O118	O	0.742148	-0.176647	-0.525550
C119	C	0.753831	-0.232825	-0.692464
C120	C	0.687626	-0.195491	-0.581347
H121	H	0.709777	-0.248091	-0.737607
H122	H	0.800360	-0.174526	-0.711083
H123	H	0.800381	-0.303569	-0.710961
H124	H	0.641018	-0.124764	-0.562770
H125	H	0.641162	-0.253853	-0.562786
H126	H	0.418411	-0.166200	-0.494386
H127	H	1.269578	-0.529308	-0.259651
H128	H	1.078634	-0.569591	-0.379887
H129	H	0.378088	-0.061570	-0.183211
O130	O	0.941446	-0.637073	-0.219676
C131	C	0.773935	-0.607912	-0.117145
C132	C	0.871182	-0.575257	-0.129033
H133	H	0.717103	-0.557963	-0.043855
H134	H	0.757705	-0.602753	-0.180720
H135	H	0.775017	-0.687252	-0.118035
H136	H	0.870172	-0.495911	-0.128119
H137	H	0.887374	-0.580487	-0.065460
O138	O	1.116036	0.065022	-0.556441
C139	C	1.037176	0.076455	-0.385469
C140	C	1.035154	0.041922	-0.488253
H141	H	0.971780	0.057811	-0.330307
H142	H	1.103478	0.037693	-0.389819
H143	H	1.037739	0.159500	-0.360177
H144	H	1.034556	-0.041112	-0.513606
H145	H	0.968859	0.080756	-0.483845
H146	H	1.114200	0.184194	-0.655970
H147	H	1.111399	0.221126	-0.796111
O148	O	1.110620	-0.361616	-0.832812
C149	C	1.107678	-0.484527	-0.976683
C150	C	1.108684	-0.374773	-0.925265
H151	H	1.106093	-0.495197	-1.051431
H152	H	1.173904	-0.529849	-0.988177
H153	H	1.042220	-0.509780	-0.928464
H154	H	1.174099	-0.349430	-0.973436
H155	H	1.042415	-0.329516	-0.913756
H156	H	0.423161	-0.033457	-0.099593
O157	O	0.482735	0.014779	0.044254
C158	C	0.433643	-0.012729	0.200175
C159	C	0.499843	-0.050052	0.089056
H160	H	0.447438	-0.065138	0.236426
H161	H	0.447501	0.063988	0.236524
H162	H	0.356924	-0.009437	0.209822
H163	H	0.576586	-0.053407	0.079320
H164	H	0.485904	-0.126746	0.052761
O165	O	0.618955	0.028245	0.084304
C166	C	0.569851	0.000758	0.240236
C167	C	0.636054	-0.036579	0.129118
H168	H	0.583638	-0.051645	0.276497
H169	H	0.583713	0.077475	0.276578
H170	H	0.493133	0.004053	0.249879
H171	H	0.712796	-0.039937	0.119385
H172	H	0.622110	-0.113273	0.092829
