data_functionalizedCrystal
_audit_creation_method	'MofGen! by Chris Wilmer'
_symmetry_space_group_name_H-M	'P1'
_symmetry_Int_Tables_number	1
_symmetry_cell_setting	triclinic
loop_
_symmetry_equiv_pos_as_xyz
  x,y,z
_cell_length_a	16.992694
_cell_length_b	17.038272
_cell_length_c	16.053802
_cell_angle_alpha	92.751609
_cell_angle_beta	87.249047
_cell_angle_gamma	90.889890
loop_
_atom_site_label
_atom_site_type_symbol
_atom_site_fract_x
_atom_site_fract_y
_atom_site_fract_z
O1	O	1.054593	0.163385	-0.069325
O2	O	1.387926	0.496719	0.264008
O3	O	1.721260	0.830052	0.597342
O4	O	0.826187	0.161558	-0.069350
O5	O	1.159520	0.494891	0.263984
O6	O	1.492854	0.828225	0.597317
O7	O	0.939032	0.048571	-0.069331
O8	O	1.272366	0.381905	0.264003
O9	O	1.605699	0.715238	0.597336
O10	O	0.941748	0.276372	-0.069344
O11	O	1.275081	0.609705	0.263990
O12	O	1.608414	0.943039	0.597323
O13	O	0.932819	0.054763	0.069527
O14	O	1.266152	0.388097	0.402860
O15	O	1.599486	0.721430	0.736194
O16	O	0.819974	0.167750	0.069508
O17	O	1.153307	0.501083	0.402842
O18	O	1.486641	0.834416	0.736175
O19	O	1.048380	0.169577	0.069533
O20	O	1.381713	0.502911	0.402866
O21	O	1.715047	0.836244	0.736200
Zn22	Zn	0.933190	0.169646	0.091567
Zn23	Zn	1.266524	0.502980	0.424901
Zn24	Zn	1.599857	0.836313	0.758234
Zn25	Zn	0.941376	0.161489	-0.091384
Zn26	Zn	1.274710	0.494822	0.241949
Zn27	Zn	1.608043	0.828155	0.575283
O28	O	0.935535	0.282564	0.069514
O29	O	1.268868	0.615897	0.402848
O30	O	1.602201	0.949230	0.736181
C31	C	0.793711	0.162304	0.000076
C32	C	1.127045	0.495637	0.333410
C33	C	1.460378	0.828971	0.666743
C34	C	0.706200	0.155293	0.000067
C35	C	1.039533	0.488627	0.333400
C36	C	1.372867	0.821960	0.666734
C37	C	0.660472	0.222933	0.000064
C38	C	0.993805	0.556267	0.333397
C39	C	1.327138	0.889600	0.666731
C40	C	0.578245	0.216342	0.000076
C41	C	0.911578	0.549676	0.333409
C42	C	1.244911	0.883009	0.666742
C43	C	0.541748	0.142110	0.000085
C44	C	0.875081	0.475444	0.333418
C45	C	1.208415	0.808777	0.666752
C46	C	0.587482	0.074465	0.000091
C47	C	0.920816	0.407799	0.333424
C48	C	1.254149	0.741132	0.666757
C49	C	0.669707	0.081057	0.000085
C50	C	1.003041	0.414391	0.333418
C51	C	1.336374	0.747724	0.666751
C52	C	0.296327	0.114789	0.000109
C53	C	0.629660	0.448122	0.333442
C54	C	0.962993	0.781455	0.666775
C55	C	0.214096	0.108201	0.000112
C56	C	0.547429	0.441535	0.333446
C57	C	0.880762	0.774868	0.666779
C58	C	0.204864	0.250079	0.000099
C59	C	0.538197	0.583413	0.333432
C60	C	0.871530	0.916746	0.666766
C61	C	0.287091	0.256665	0.000088
C62	C	0.620424	0.589998	0.333421
C63	C	0.953758	0.923331	0.666755
C64	C	0.332818	0.189020	0.000098
C65	C	0.666151	0.522353	0.333431
C66	C	0.999484	0.855686	0.666765
N67	N	0.457699	0.135371	0.000094
N68	N	0.791033	0.468705	0.333428
N69	N	1.124366	0.802038	0.666761
N70	N	0.416865	0.195760	0.000095
N71	N	0.750198	0.529093	0.333428
N72	N	1.083531	0.862426	0.666761
C73	C	0.933456	0.022384	0.000098
C74	C	1.266790	0.355717	0.333431
C75	C	1.600123	0.689051	0.666764
C76	C	0.926089	-0.064871	0.000097
C77	C	1.259422	0.268462	0.333430
C78	C	1.592756	0.601796	0.666763
C79	C	0.993729	-0.110741	0.000105
C80	C	1.327062	0.222592	0.333438
C81	C	1.660395	0.555926	0.666772
C82	C	0.986802	-0.192727	0.000096
C83	C	1.320135	0.140607	0.333430
C84	C	1.653469	0.473940	0.666763
C85	C	0.912235	-0.228840	0.000085
C86	C	1.245568	0.104493	0.333419
C87	C	1.578902	0.437826	0.666752
C88	C	0.844590	-0.182964	0.000075
C89	C	1.177924	0.150369	0.333408
C90	C	1.511257	0.483702	0.666741
C91	C	0.851518	-0.100981	0.000077
C92	C	1.184851	0.232353	0.333411
C93	C	1.518185	0.565686	0.666744
C94	C	0.887761	-0.476135	0.000071
C95	C	1.221094	-0.142801	0.333405
C96	C	1.554428	0.190532	0.666738
C97	C	0.880838	-0.558124	0.000071
C98	C	1.214172	-0.224791	0.333404
C99	C	1.547505	0.108542	0.666738
C100	C	1.023051	-0.567881	0.000091
C101	C	1.356384	-0.234547	0.333424
C102	C	1.689718	0.098786	0.666758
C103	C	1.029972	-0.485895	0.000099
C104	C	1.363305	-0.152561	0.333432
C105	C	1.696639	0.180772	0.666765
C106	C	0.962328	-0.440026	0.000084
C107	C	1.295661	-0.106693	0.333417
C108	C	1.628994	0.226640	0.666750
C109	C	0.905153	-0.312643	0.000079
C110	C	1.238486	0.020691	0.333413
C111	C	1.571820	0.354024	0.666746
C112	C	0.969410	-0.356226	0.000084
C113	C	1.302744	-0.022893	0.333417
C114	C	1.636077	0.310441	0.666751
C115	C	1.080856	0.168831	0.000105
C116	C	1.414189	0.502164	0.333439
C117	C	1.747522	0.835498	0.666772
C118	C	1.168367	0.175841	0.000109
C119	C	1.501701	0.509175	0.333442
C120	C	1.835034	0.842508	0.666776
C121	C	0.941111	0.308751	0.000084
C122	C	1.274444	0.642084	0.333417
C123	C	1.607777	0.975418	0.666750
C124	C	0.948478	0.396006	0.000079
C125	C	1.281811	0.729339	0.333413
C126	C	1.615145	1.062673	0.666746
N127	N	0.927609	0.175214	0.216427
N128	N	1.260943	0.508547	0.549760
N129	N	1.594276	0.841881	0.883093
N130	N	0.946963	0.155915	-0.216243
N131	N	1.280297	0.489249	0.117090
N132	N	1.613630	0.822582	0.450423
C133	C	0.975645	0.127157	0.260129
C134	C	1.308978	0.460491	0.593462
C135	C	1.642312	0.793824	0.926795
C136	C	0.971749	0.131060	0.347535
C137	C	1.305082	0.464393	0.680868
C138	C	1.638416	0.797726	1.014201
C139	C	0.919820	0.183023	0.391237
C140	C	1.253154	0.516357	0.724571
C141	C	1.586487	0.849690	1.057904
C142	C	0.871779	0.231082	0.347529
C143	C	1.205113	0.564415	0.680863
C144	C	1.538446	0.897748	1.014196
C145	C	0.875672	0.227175	0.260125
C146	C	1.209005	0.560508	0.593458
C147	C	1.542339	0.893841	0.926791
C148	C	0.902815	0.200067	0.652644
C149	C	1.236148	0.533400	0.985977
C150	C	1.569482	0.866734	1.319311
C151	C	0.898928	0.203972	0.740055
C152	C	1.232261	0.537305	1.073388
C153	C	1.565594	0.870639	1.406721
C154	C	0.998897	0.103948	0.740054
C155	C	1.332230	0.437282	1.073388
C156	C	1.665563	0.770615	1.406721
C157	C	1.002788	0.100050	0.652648
C158	C	1.336121	0.433383	0.985981
C159	C	1.669455	0.766716	1.319315
C160	C	0.954744	0.148105	0.608948
C161	C	1.288077	0.481438	0.942281
C162	C	1.621411	0.814772	1.275614
N163	N	0.915838	0.187015	0.480580
N164	N	1.249172	0.520348	0.813914
N165	N	1.582505	0.853682	1.147247
N166	N	0.958723	0.144109	0.519606
N167	N	1.292056	0.477442	0.852939
N168	N	1.625389	0.810775	1.186273
H169	H	0.541016	0.271422	0.000072
H170	H	0.874349	0.604755	0.333406
H171	H	1.207683	0.938089	0.666739
F172	F	0.175255	0.029191	0.000136
F173	F	0.508588	0.362524	0.333470
F174	F	0.841921	0.695857	0.666803
H175	H	0.706939	0.025977	0.000087
H176	H	1.040272	0.359311	0.333420
H177	H	1.373606	0.692644	0.666753
H178	H	0.557760	0.014024	0.000110
H179	H	0.891093	0.347358	0.333443
H180	H	1.224426	0.680691	0.666777
H181	H	0.316801	0.317112	0.000071
H182	H	0.650134	0.650445	0.333404
H183	H	0.983467	0.983778	0.666738
F184	F	1.058794	-0.241541	0.000106
F185	F	1.392127	0.091792	0.333440
F186	F	1.725461	0.425125	0.666773
F187	F	0.344982	0.042794	0.000119
F188	F	0.678316	0.376127	0.333453
F189	F	1.011649	0.709461	0.666786
F190	F	1.073094	-0.072313	0.000125
F191	F	1.406427	0.261020	0.333458
F192	F	1.739760	0.594353	0.666791
F193	F	1.109337	-0.447467	0.000089
F194	F	1.442671	-0.114134	0.333423
F195	F	1.776004	0.219200	0.666756
H196	H	0.167624	0.305152	0.000092
H197	H	0.500957	0.638485	0.333426
H198	H	0.834291	0.971818	0.666759
F199	F	0.851686	0.251213	0.606142
F200	F	1.185019	0.584546	0.939475
F201	F	1.518352	0.917879	1.272808
H202	H	1.078123	-0.605236	0.000102
H203	H	1.411456	-0.271902	0.333435
H204	H	1.744790	0.061431	0.666768
H205	H	0.690181	0.283381	0.000056
H206	H	1.023514	0.616714	0.333389
H207	H	1.356847	0.950048	0.666723
F208	F	0.801470	-0.596557	0.000064
F209	F	1.134803	-0.263224	0.333397
F210	F	1.468137	0.070110	0.666730
F211	F	0.815767	-0.427328	0.000053
F212	F	1.149100	-0.093995	0.333387
F213	F	1.482434	0.239338	0.666720
F214	F	1.058057	0.044745	0.606138
F215	F	1.391390	0.378079	0.939471
F216	F	1.724723	0.711412	1.272804
F217	F	0.765230	-0.221402	0.000054
F218	F	1.098563	0.111931	0.333387
F219	F	1.431897	0.445265	0.666720
H220	H	0.829494	0.273389	0.383117
H221	H	1.162827	0.606722	0.716450
H222	H	1.496161	0.940055	1.049784
H223	H	0.796438	-0.063634	0.000071
H224	H	1.129772	0.269699	0.333404
H225	H	1.463105	0.603033	0.666737
F226	F	1.030919	0.071854	0.213625
F227	F	1.364253	0.405187	0.546959
F228	F	1.697586	0.738521	0.880292
F229	F	1.048768	-0.317789	0.000091
F230	F	1.382101	0.015544	0.333424
F231	F	1.715435	0.348877	0.666757
F232	F	0.825795	-0.351085	0.000064
F233	F	1.159128	-0.017752	0.333397
F234	F	1.492462	0.315582	0.666731
F235	F	1.022873	0.079912	0.394046
F236	F	1.356206	0.413245	0.727379
F237	F	1.689540	0.746579	1.060712
H238	H	1.038011	0.064823	0.775643
H239	H	1.371344	0.398156	1.108976
H240	H	1.704678	0.731490	1.442310
F241	F	0.843656	0.259283	0.786561
F242	F	1.176989	0.592617	1.119894
F243	F	1.510322	0.925950	1.453228
F244	F	0.824543	0.278321	0.213615
F245	F	1.157876	0.611654	0.546949
F246	F	1.491210	0.944988	0.880282
