data_functionalizedCrystal
_audit_creation_method	'MofGen! by Chris Wilmer'
_symmetry_space_group_name_H-M	'P1'
_symmetry_Int_Tables_number	1
_symmetry_cell_setting	triclinic
loop_
_symmetry_equiv_pos_as_xyz
  x,y,z
_cell_length_a	17.699083
_cell_length_b	15.021413
_cell_length_c	17.699092
_cell_angle_alpha	89.994305
_cell_angle_beta	83.284691
_cell_angle_gamma	90.001270
loop_
_atom_site_label
_atom_site_type_symbol
_atom_site_fract_x
_atom_site_fract_y
_atom_site_fract_z
O1	O	1.004083	0.073904	0.095701
O2	O	1.337416	0.407237	0.429034
O3	O	1.670750	0.740571	0.762367
O4	O	0.783705	0.073933	0.108153
O5	O	1.117038	0.407266	0.441486
O6	O	1.450372	0.740599	0.774820
O7	O	0.900117	0.073915	-0.008262
O8	O	1.233450	0.407249	0.325072
O9	O	1.566784	0.740582	0.658405
O10	O	0.887671	0.073921	0.212116
O11	O	1.221004	0.407254	0.545449
O12	O	1.554338	0.740588	0.878782
O13	O	0.900098	-0.074149	-0.008245
O14	O	1.233432	0.259185	0.325088
O15	O	1.566765	0.592518	0.658421
O16	O	0.783686	-0.074132	0.108170
O17	O	1.117020	0.259202	0.441503
O18	O	1.450353	0.592535	0.774836
O19	O	1.004064	-0.074160	0.095717
O20	O	1.337398	0.259173	0.429051
O21	O	1.670731	0.592506	0.762384
Zn22	Zn	0.893872	-0.097654	0.101946
Zn23	Zn	1.227206	0.235679	0.435280
Zn24	Zn	1.560539	0.569012	0.768613
Zn25	Zn	0.893897	0.097427	0.101924
Zn26	Zn	1.227230	0.430760	0.435258
Zn27	Zn	1.560563	0.764093	0.768591
O28	O	0.887652	-0.074143	0.212132
O29	O	1.220986	0.259190	0.545466
O30	O	1.554319	0.592524	0.878799
C31	C	0.755499	-0.000096	0.107715
C32	C	1.088832	0.333238	0.441049
C33	C	1.422165	0.666571	0.774382
C34	C	0.671480	-0.000085	0.106377
C35	C	1.004814	0.333249	0.439710
C36	C	1.338147	0.666582	0.773043
N37	N	0.893861	-0.230792	0.101961
N38	N	1.227195	0.102541	0.435294
N39	N	1.560528	0.435875	0.768627
C40	C	0.622862	-0.000083	0.174710
C41	C	0.956195	0.333250	0.508043
C42	C	1.289528	0.666583	0.841376
C43	C	0.543918	-0.000095	0.173448
C44	C	0.877251	0.333239	0.506781
C45	C	1.210585	0.666572	0.840114
C46	C	0.513595	-0.000101	0.103851
C47	C	0.846929	0.333232	0.437185
C48	C	1.180262	0.666565	0.770518
C49	C	0.562220	-0.000106	0.035513
C50	C	0.895554	0.333228	0.368846
C51	C	1.228887	0.666561	0.702180
C52	C	0.641162	-0.000100	0.036776
C53	C	0.974496	0.333233	0.370109
C54	C	1.307829	0.666566	0.703443
C55	C	0.243857	-0.000128	0.030418
C56	C	0.577191	0.333206	0.363751
C57	C	0.910524	0.666539	0.697084
C58	C	0.164909	-0.000130	0.029160
C59	C	0.498243	0.333203	0.362493
C60	C	0.831576	0.666536	0.695827
C61	C	0.146613	-0.000122	0.167089
C62	C	0.479946	0.333211	0.500423
C63	C	0.813280	0.666545	0.833756
C64	C	0.225555	-0.000117	0.168352
C65	C	0.558888	0.333216	0.501686
C66	C	0.892222	0.666550	0.835019
C67	C	0.274173	-0.000126	0.100014
C68	C	0.607507	0.333208	0.433348
C69	C	0.940840	0.666541	0.766681
C70	C	0.359772	-0.000115	0.101384
C71	C	0.693106	0.333218	0.434717
C72	C	1.026439	0.666552	0.768051
C73	C	0.427998	-0.000106	0.102481
C74	C	0.761331	0.333227	0.435814
C75	C	1.094664	0.666561	0.769148
C76	C	0.840024	-0.470467	0.155766
C77	C	1.173358	-0.137134	0.489099
C78	C	1.506691	0.196199	0.822432
C79	C	0.908388	-0.529810	0.170330
C80	C	1.241721	-0.196477	0.503663
C81	C	1.575055	0.136856	0.836996
C82	C	0.893881	-0.412399	0.101942
C83	C	1.227214	-0.079065	0.435275
C84	C	1.560547	0.254268	0.768608
C85	C	0.825535	-0.529797	0.087395
C86	C	1.158869	-0.196464	0.420728
C87	C	1.492202	0.136869	0.754061
C88	C	0.893893	-0.587823	0.101925
C89	C	1.227227	-0.254490	0.435259
C90	C	1.560560	0.078844	0.768592
C91	C	0.962279	-0.470435	0.116540
C92	C	1.295612	-0.137102	0.449873
C93	C	1.628946	0.196231	0.783206
C94	C	0.879381	-0.470417	0.033575
C95	C	1.212715	-0.137084	0.366908
C96	C	1.546048	0.196249	0.700242
C97	C	0.947795	-0.529734	0.048110
C98	C	1.281128	-0.196400	0.381443
C99	C	1.614461	0.136933	0.714776
C100	C	0.893872	-0.311341	0.101953
C101	C	1.227206	0.021992	0.435287
C102	C	1.560539	0.355325	0.768620
C103	C	0.893909	-0.688878	0.101913
C104	C	1.227243	-0.355545	0.435246
C105	C	1.560576	-0.022211	0.768580
C106	C	1.032271	-0.000130	0.096155
C107	C	1.365604	0.333203	0.429489
C108	C	1.698937	0.666537	0.762822
C109	C	1.116289	-0.000135	0.097494
C110	C	1.449622	0.333198	0.430827
C111	C	1.782955	0.666532	0.764161
C112	C	0.899661	-0.000115	-0.036450
C113	C	1.232994	0.333218	0.296883
C114	C	1.566327	0.666551	0.630216
C115	C	0.898319	-0.000111	-0.120468
C116	C	1.231653	0.333222	0.212865
C117	C	1.564986	0.666556	0.546199
N118	N	0.893914	0.230564	0.101904
N119	N	1.227247	0.563898	0.435237
N120	N	1.560581	0.897231	0.768570
C121	C	0.897701	0.080600	-0.159945
C122	C	1.231035	0.413933	0.173389
C123	C	1.564368	0.747267	0.506722
C124	C	0.896436	0.080601	-0.238888
C125	C	1.229770	0.413935	0.094446
C126	C	1.563103	0.747268	0.427779
C127	C	0.895795	-0.000109	-0.278353
C128	C	1.229128	0.333224	0.054980
C129	C	1.562462	0.666557	0.388313
C130	C	0.896411	-0.080827	-0.238871
C131	C	1.229744	0.252507	0.094462
C132	C	1.563078	0.585840	0.427796
C133	C	0.897671	-0.080827	-0.159929
C134	C	1.231004	0.252506	0.173405
C135	C	1.564337	0.585840	0.506738
C136	C	0.891331	-0.080827	-0.557236
C137	C	1.224664	0.252506	-0.223903
C138	C	1.557997	0.585839	0.109431
C139	C	0.890073	-0.080821	-0.636184
C140	C	1.223407	0.252513	-0.302851
C141	C	1.556740	0.585846	0.030483
C142	C	0.890096	0.080601	-0.636195
C143	C	1.223430	0.413934	-0.302862
C144	C	1.556763	0.747267	0.030472
C145	C	0.891356	0.080601	-0.557253
C146	C	1.224689	0.413934	-0.223919
C147	C	1.558023	0.747267	0.109414
C148	C	0.891968	-0.000116	-0.517777
C149	C	1.225301	0.333217	-0.184443
C150	C	1.558634	0.666551	0.148890
C151	C	0.893338	-0.000116	-0.432178
C152	C	1.226671	0.333217	-0.098844
C153	C	1.560005	0.666550	0.234489
C154	C	0.894430	-0.000110	-0.363952
C155	C	1.227764	0.333223	-0.030618
C156	C	1.561097	0.666557	0.302715
C157	C	0.888109	-0.000110	0.240321
C158	C	1.221442	0.333223	0.573654
C159	C	1.554775	0.666556	0.906988
C160	C	0.889450	-0.000109	0.324339
C161	C	1.222783	0.333224	0.657672
C162	C	1.556116	0.666558	0.991005
H163	H	0.647544	-0.000077	0.231383
H164	H	0.980877	0.333256	0.564716
H165	H	1.314210	0.666590	0.898050
F166	F	0.895720	-0.166725	-0.280874
F167	F	1.229053	0.166608	0.052459
F168	F	1.562387	0.499941	0.385792
H169	H	0.895936	0.146324	-0.271026
H170	H	1.229269	0.479657	0.062307
H171	H	1.562603	0.812991	0.395640
H172	H	1.020095	-0.444470	0.128906
H173	H	1.353429	-0.111136	0.462239
H174	H	1.686762	0.222197	0.795573
F175	F	0.492177	-0.000089	0.246177
F176	F	0.825510	0.333244	0.579511
F177	F	1.158844	0.666577	0.912844
H178	H	0.250239	-0.000107	0.225025
H179	H	0.583572	0.333226	0.558358
H180	H	0.916906	0.666559	0.891691
H181	H	0.889549	-0.146549	-0.668315
H182	H	1.222883	0.186784	-0.334981
H183	H	1.556216	0.520118	-0.001648
F184	F	0.295591	-0.000137	-0.042314
F185	F	0.628924	0.333196	0.291019
F186	F	0.962257	0.666530	0.624353
F187	F	1.007395	-0.563539	-0.011397
F188	F	1.340728	-0.230205	0.321937
F189	F	1.674061	0.103128	0.655270
F190	F	0.529947	-0.000118	-0.038557
F191	F	0.863280	0.333215	0.294776
F192	F	1.196613	0.666548	0.628110
F193	F	0.780555	-0.436450	0.215306
F194	F	1.113888	-0.103116	0.548639
F195	F	1.447221	0.230217	0.881972
F196	F	0.692906	-0.000105	-0.035953
F197	F	1.026240	0.333228	0.297380
F198	F	1.359573	0.666562	0.630713
F199	F	0.749983	-0.563882	0.071320
F200	F	1.083316	-0.230549	0.404653
F201	F	1.416649	0.102785	0.737987
F202	F	0.891972	-0.166733	-0.515232
F203	F	1.225306	0.166600	-0.181898
F204	F	1.558639	0.499934	0.151435
F205	F	0.898328	-0.166730	-0.117915
F206	F	1.231661	0.166603	0.215418
F207	F	1.564994	0.499936	0.548751
F208	F	0.863309	-0.436289	-0.041962
F209	F	1.196643	-0.102956	0.291371
F210	F	1.529976	0.230377	0.624705
F211	F	0.924434	-0.563910	0.245889
F212	F	1.257767	-0.230577	0.579223
F213	F	1.591100	0.102757	0.912556
H214	H	0.898228	0.146324	-0.127818
H215	H	1.231561	0.479657	0.205515
H216	H	1.564894	0.812991	0.538849
H217	H	0.889594	0.146324	-0.668345
H218	H	1.222928	0.479658	-0.335012
H219	H	1.556261	0.812991	-0.001679
F220	F	0.094864	-0.000116	0.239821
F221	F	0.428197	0.333217	0.573155
F222	F	0.761530	0.666550	0.906488
F223	F	0.132640	-0.000138	-0.044918
F224	F	0.465973	0.333196	0.288416
F225	F	0.799307	0.666529	0.621749
H226	H	0.891882	0.146323	-0.525124
H227	H	1.225215	0.479657	-0.191791
H228	H	1.558548	0.812990	0.141543
