data_functionalizedCrystal
_audit_creation_method	'MofGen! by Chris Wilmer'
_symmetry_space_group_name_H-M	'P1'
_symmetry_Int_Tables_number	1
_symmetry_cell_setting	triclinic
loop_
_symmetry_equiv_pos_as_xyz
  x,y,z
_cell_length_a	19.121102
_cell_length_b	19.121063
_cell_length_c	19.120904
_cell_angle_alpha	94.741613
_cell_angle_beta	89.911827
_cell_angle_gamma	89.873098
loop_
_atom_site_label
_atom_site_type_symbol
_atom_site_fract_x
_atom_site_fract_y
_atom_site_fract_z
Zn1	Zn	1.039579	0.343506	0.456040
Zn2	Zn	1.372913	0.676839	0.789373
Zn3	Zn	1.706246	1.010172	1.122706
Zn4	Zn	1.039493	0.456149	0.343386
Zn5	Zn	1.372826	0.789482	0.676720
Zn6	Zn	1.706159	1.122815	1.010053
Zn7	Zn	0.927792	0.333518	0.333417
Zn8	Zn	1.261125	0.666851	0.666750
Zn9	Zn	1.594459	1.000184	1.000084
Zn10	Zn	0.917325	0.455677	0.455570
Zn11	Zn	1.250658	0.789010	0.788903
Zn12	Zn	1.583992	1.122343	1.122236
O13	O	0.981047	0.397212	0.397103
O14	O	1.314381	0.730546	0.730436
O15	O	1.647714	1.063879	1.063770
O16	O	1.137479	0.362826	0.445465
O17	O	1.470812	0.696159	0.778798
O18	O	1.804145	1.029492	1.112131
O19	O	1.029020	0.435899	0.243797
O20	O	1.362353	0.769232	0.577130
O21	O	1.695686	1.102566	0.910464
O22	O	0.947038	0.236577	0.345708
O23	O	1.280371	0.569910	0.679041
O24	O	1.613704	0.903244	1.012374
O25	O	1.137415	0.445584	0.362699
O26	O	1.470748	0.778917	0.696032
O27	O	1.804082	1.112251	1.029366
O28	O	1.029167	0.243915	0.435798
O29	O	1.362501	0.577248	0.769131
O30	O	1.695834	0.910582	1.102465
O31	O	0.946954	0.345802	0.236473
O32	O	1.280287	0.679136	0.569806
O33	O	1.613620	1.012469	0.903139
O34	O	0.828493	0.345345	0.345252
O35	O	1.161826	0.678678	0.678585
O36	O	1.495159	1.012011	1.011919
O37	O	0.929198	0.444780	0.553899
O38	O	1.262532	0.778113	0.887232
O39	O	1.595865	1.111446	1.220566
O40	O	0.820803	0.435094	0.434997
O41	O	1.154136	0.768428	0.768330
O42	O	1.487469	1.101761	1.101663
O43	O	1.019018	0.362368	0.554244
O44	O	1.352351	0.695701	0.887577
O45	O	1.685684	1.029035	1.220911
O46	O	1.018870	0.554352	0.362243
O47	O	1.352204	0.887685	0.695577
O48	O	1.685537	1.221018	1.028910
O49	O	0.929114	0.554005	0.444664
O50	O	1.262448	0.887338	0.777997
O51	O	1.595781	1.220672	1.111330
C52	C	0.799261	0.389085	0.388992
C53	C	1.132594	0.722418	0.722325
C54	C	1.465927	1.055752	1.055659
C55	C	0.721490	0.385626	0.385539
C56	C	1.054823	0.718959	0.718873
C57	C	1.388157	1.052292	1.052206
C58	C	0.972865	0.579659	0.404501
C59	C	1.306199	0.912992	0.737834
C60	C	1.639532	1.246326	1.071167
C61	C	0.969428	0.657714	0.407691
C62	C	1.302761	0.991048	0.741025
C63	C	1.636095	1.324381	1.074358
C64	C	0.680968	0.430793	0.430575
C65	C	1.014301	0.764127	0.763908
C66	C	1.347634	1.097460	1.097242
C67	C	0.607894	0.427534	0.427334
C68	C	0.941228	0.760867	0.760667
C69	C	1.274561	1.094201	1.094000
C70	C	0.575344	0.379110	0.379053
C71	C	0.908677	0.712443	0.712386
C72	C	1.242011	1.045776	1.045720
C73	C	0.615872	0.333937	0.334016
C74	C	0.949205	0.667271	0.667349
C75	C	1.282538	1.000604	1.000682
C76	C	0.688944	0.337194	0.337261
C77	C	1.022277	0.670527	0.670594
C78	C	1.355611	1.003860	1.003927
C79	C	0.354913	0.366933	0.366924
C80	C	0.688246	0.700266	0.700257
C81	C	1.021579	1.033599	1.033591
C82	C	0.281835	0.363681	0.363681
C83	C	0.615169	0.697014	0.697014
C84	C	0.948502	1.030348	1.030348
C85	C	0.273863	0.457277	0.457000
C86	C	0.607196	0.790611	0.790334
C87	C	0.940529	1.123944	1.123667
C88	C	0.346937	0.460532	0.460238
C89	C	0.680270	0.793866	0.793572
C90	C	1.013603	1.127199	1.126905
C91	C	0.387458	0.415357	0.415203
C92	C	0.720791	0.748691	0.748537
C93	C	1.054124	1.082024	1.081870
C94	C	0.500651	0.375778	0.375738
C95	C	0.833985	0.709112	0.709071
C96	C	1.167318	1.042445	1.042404
C97	C	0.462149	0.418686	0.418523
C98	C	0.795483	0.752019	0.751856
C99	C	1.128816	1.085353	1.085190
C100	C	0.972950	0.404635	0.580263
C101	C	1.306283	0.737969	0.913597
C102	C	1.639617	1.071302	1.246930
C103	C	0.969500	0.407799	0.658315
C104	C	1.302833	0.741132	0.991649
C105	C	1.636166	1.074465	1.324982
C106	C	1.163544	0.405372	0.405246
C107	C	1.496877	0.738705	0.738580
C108	C	1.830211	1.072038	1.071913
C109	C	1.241313	0.408849	0.408717
C110	C	1.574646	0.742182	0.742050
C111	C	1.907980	1.075515	1.075383
C112	C	0.989280	0.214054	0.389693
C113	C	1.322613	0.547388	0.723026
C114	C	1.655946	0.880721	1.056360
C115	C	0.992788	0.136003	0.386535
C116	C	1.326121	0.469337	0.719869
C117	C	1.659454	0.802670	1.053202
C118	C	1.014577	0.694545	0.366317
C119	C	1.347911	1.027879	0.699651
C120	C	1.681244	1.361212	1.032984
C121	C	1.011348	0.767887	0.369323
C122	C	1.344682	1.101220	0.702656
C123	C	1.678015	1.434554	1.035990
C124	C	0.962966	0.804396	0.413699
C125	C	1.296300	1.137729	0.747032
C126	C	1.629633	1.471063	1.080366
C127	C	0.917815	0.767560	0.455078
C128	C	1.251148	1.100893	0.788411
C129	C	1.584482	1.434227	1.121744
C130	C	0.921048	0.694220	0.452076
C131	C	1.254381	1.027553	0.785409
C132	C	1.587714	1.360887	1.118742
C133	C	0.950869	1.025828	0.424912
C134	C	1.284202	1.359161	0.758245
C135	C	1.617536	1.692494	1.091579
C136	C	0.947638	1.099173	0.427909
C137	C	1.280972	1.432506	0.761243
C138	C	1.614305	1.765839	1.094576
C139	C	1.041173	1.099494	0.342155
C140	C	1.374507	1.432828	0.675488
C141	C	1.707840	1.766161	1.008822
C142	C	1.044399	1.026153	0.339154
C143	C	1.377732	1.359486	0.672487
C144	C	1.711065	1.692819	1.005820
C145	C	0.999250	0.989323	0.380535
C146	C	1.332583	1.322657	0.713869
C147	C	1.665917	1.655990	1.047202
C148	C	0.959663	0.879363	0.416770
C149	C	1.292997	1.212696	0.750104
C150	C	1.626330	1.546029	1.083437
C151	C	1.002557	0.914358	0.377467
C152	C	1.335890	1.247692	0.710800
C153	C	1.669224	1.581025	1.044134
C154	C	0.989156	0.389769	0.214655
C155	C	1.322489	0.723102	0.547988
C156	C	1.655822	1.056436	0.881322
C157	C	0.992751	0.386414	0.136602
C158	C	1.326084	0.719747	0.469935
C159	C	1.659417	1.053081	0.803268
C160	C	1.014640	0.366379	0.695165
C161	C	1.347974	0.699713	1.028499
C162	C	1.681307	1.033046	1.361832
C163	C	1.011390	0.369348	0.768503
C164	C	1.344723	0.702682	1.101836
C165	C	1.678056	1.036015	1.435170
C166	C	0.963001	0.413741	0.804990
C167	C	1.296335	0.747074	1.138323
C168	C	1.629668	1.080408	1.471656
C169	C	0.917856	0.455162	0.768135
C170	C	1.251189	0.788495	1.101468
C171	C	1.584522	1.121828	1.434801
C172	C	0.921103	0.452188	0.694798
C173	C	1.254437	0.785522	1.028131
C174	C	1.587770	1.118855	1.361465
C175	C	0.950853	0.424862	1.026410
C176	C	1.284186	0.758195	1.359743
C177	C	1.617519	1.091528	1.693076
C178	C	0.947610	0.427833	1.099752
C179	C	1.280943	0.761167	1.433085
C180	C	1.614276	1.094500	1.766418
C181	C	1.041143	0.342019	1.100115
C182	C	1.374477	0.675352	1.433448
C183	C	1.707810	1.008685	1.766782
C184	C	1.044390	0.339052	1.026777
C185	C	1.377723	0.672386	1.360110
C186	C	1.711056	1.005719	1.693444
C187	C	0.999242	0.380470	0.989928
C188	C	1.332575	0.713804	1.323261
C189	C	1.665908	1.047137	1.656595
C190	C	0.959679	0.416779	0.879953
C191	C	1.293012	0.750112	1.213286
C192	C	1.626346	1.083445	1.546619
C193	C	1.002561	0.377429	0.914966
C194	C	1.335894	0.710762	1.248299
C195	C	1.669228	1.044095	1.581633
H196	H	0.707464	0.470228	0.469888
H197	H	1.040798	0.803561	0.803221
H198	H	1.374131	1.136895	1.136555
H199	H	0.878424	0.797292	0.491213
H200	H	1.211757	1.130625	0.824546
H201	H	1.545091	1.463959	1.157880
H202	H	1.083794	0.302905	0.997075
H203	H	1.417128	0.636239	1.330408
H204	H	1.750461	0.969572	1.663741
H205	H	0.914106	0.995847	0.458605
H206	H	1.247439	1.329180	0.791938
H207	H	1.580773	1.662513	1.125272
Br208	Br	1.102411	0.285810	1.150128
Br209	Br	1.435744	0.619144	1.483461
Br210	Br	1.769078	0.952477	1.816794
Br211	Br	0.743940	0.275889	0.276142
Br212	Br	1.077273	0.609222	0.609476
Br213	Br	1.410606	0.942555	0.942809
Br214	Br	0.852180	0.515405	0.817651
Br215	Br	1.185514	0.848739	1.150984
Br216	Br	1.518847	1.182072	1.484318
Br217	Br	0.881933	0.488082	1.149269
Br218	Br	1.215266	0.821415	1.482603
Br219	Br	1.548600	1.154749	1.815936
H220	H	0.908248	1.128897	0.464059
H221	H	1.241581	1.462230	0.797392
H222	H	1.574914	1.795564	1.130725
H223	H	0.884338	0.485909	0.664795
H224	H	1.217671	0.819242	0.998128
H225	H	1.551005	1.152576	1.331462
H226	H	0.574904	0.464315	0.464006
H227	H	0.908237	0.797648	0.797339
H228	H	1.241571	1.130982	1.130672
H229	H	1.054046	0.330232	0.665463
H230	H	1.387379	0.663566	0.998797
H231	H	1.720712	0.996899	1.332130
H232	H	0.884283	0.664233	0.485768
H233	H	1.217617	0.997566	0.819101
H234	H	1.550950	1.330900	1.152434
H235	H	1.077932	1.129489	0.308466
H236	H	1.411265	1.462822	0.641799
H237	H	1.744598	1.796155	0.975133
Br238	Br	0.218867	0.518585	0.518113
Br239	Br	0.552200	0.851919	0.851447
Br240	Br	0.885533	1.185252	1.184780
Br241	Br	1.072630	0.817870	0.313174
Br242	Br	1.405963	1.151203	0.646507
Br243	Br	1.739296	1.484536	0.979841
Br244	Br	0.456470	0.310059	0.310218
Br245	Br	0.789804	0.643393	0.643551
Br246	Br	1.123137	0.976726	0.976884
H247	H	1.053972	0.664824	0.330178
H248	H	1.387306	0.998157	0.663512
H249	H	1.720639	1.331491	0.996845
Br250	Br	1.110071	0.976610	0.278936
Br251	Br	1.443405	1.309944	0.612270
Br252	Br	1.776738	1.643277	0.945603
H253	H	1.048150	0.335622	0.798503
H254	H	1.381483	0.668955	1.131836
H255	H	1.714816	1.002289	1.465170
Br256	Br	0.894005	0.928917	0.476995
Br257	Br	1.227338	1.262250	0.810328
Br258	Br	1.560671	1.595583	1.143662
Br259	Br	0.889579	0.481071	0.976409
Br260	Br	1.222912	0.814404	1.309743
Br261	Br	1.556245	1.147738	1.643076
H262	H	0.387897	0.330153	0.330248
H263	H	0.721230	0.663487	0.663582
H264	H	1.054563	0.996820	0.996915
H265	H	1.041952	0.884631	0.341339
H266	H	1.375286	1.217964	0.674672
H267	H	1.708619	1.551297	1.008005
Br268	Br	0.237660	0.297965	0.298146
Br269	Br	0.570994	0.631299	0.631479
Br270	Br	0.904327	0.964632	0.964812
Br271	Br	1.068220	0.317174	0.865447
Br272	Br	1.401553	0.650507	1.198780
Br273	Br	1.734887	0.983840	1.532113
H274	H	0.373433	0.499966	0.499552
H275	H	0.706767	0.833299	0.832885
H276	H	1.040100	1.166633	1.166219
H277	H	0.920284	0.452927	0.909669
H278	H	1.253617	0.786260	1.243002
H279	H	1.586951	1.119593	1.576335
Br280	Br	0.571698	0.268211	0.268498
Br281	Br	0.905031	0.601545	0.601831
Br282	Br	1.238364	0.934878	0.935164
Br283	Br	0.506325	0.484401	0.484046
Br284	Br	0.839659	0.817734	0.817379
Br285	Br	1.172992	1.151068	1.150713
