data_functionalizedCrystal
_audit_creation_method	'MofGen! by Chris Wilmer'
_symmetry_space_group_name_H-M	'P1'
_symmetry_Int_Tables_number	1
_symmetry_cell_setting	triclinic
loop_
_symmetry_equiv_pos_as_xyz
  x,y,z
_cell_length_a	18.215407
_cell_length_b	16.120444
_cell_length_c	18.215399
_cell_angle_alpha	92.870532
_cell_angle_beta	89.982187
_cell_angle_gamma	92.921021
loop_
_atom_site_label
_atom_site_type_symbol
_atom_site_fract_x
_atom_site_fract_y
_atom_site_fract_z
Zn1	Zn	1.110201	-0.332038	-0.430930
Zn2	Zn	1.103866	-0.471459	-0.314101
Zn3	Zn	0.987133	-0.332051	-0.307883
Zn4	Zn	0.980858	-0.471399	-0.437128
O5	O	1.045515	-0.401737	-0.372510
O6	O	1.212344	-0.350553	-0.415442
O7	O	1.088355	-0.452997	-0.210293
O8	O	1.008736	-0.215383	-0.319009
O9	O	1.207689	-0.452985	-0.329608
O10	O	1.099154	-0.215374	-0.409412
O11	O	1.002593	-0.350575	-0.205725
O12	O	0.883318	-0.350516	-0.325018
O13	O	0.998041	-0.452881	-0.539289
O14	O	0.878707	-0.452894	-0.419974
O15	O	1.093069	-0.350494	-0.534735
O16	O	1.082271	-0.588117	-0.335617
O17	O	0.991898	-0.588073	-0.426004
C18	C	0.854310	-0.401700	-0.372494
C19	C	0.772511	-0.401704	-0.372506
C20	C	0.509865	-0.348503	-0.417284
C21	C	0.586725	-0.348490	-0.417281
C22	C	0.581904	-0.454998	-0.327754
C23	C	0.505046	-0.455015	-0.327762
C24	C	0.469029	-0.401763	-0.372525
C25	C	0.622746	-0.401732	-0.372515
C26	C	0.706081	-0.401718	-0.372511
C27	C	0.385689	-0.401778	-0.372530
C28	C	1.035736	-0.618345	-0.382174
C29	C	1.031620	-0.711011	-0.386333
C30	C	1.067047	-0.921955	-0.351095
C31	C	1.024119	-0.880667	-0.393933
C32	C	1.028294	-0.786262	-0.389703
C33	C	1.062873	-1.016369	-0.355325
C34	C	1.237466	-0.401774	-0.372527
C35	C	1.319264	-0.401790	-0.372534
C36	C	1.045562	-0.401679	-0.564461
C37	C	1.045582	-0.401655	-0.646259
C38	C	1.055352	-0.184283	-0.362825
C39	C	1.059543	-0.091617	-0.358698
C40	C	1.095082	-0.348292	-0.832081
C41	C	1.095092	-0.348267	-0.908939
C42	C	0.996140	-0.454889	-0.913669
C43	C	0.996127	-0.454908	-0.836812
C44	C	1.045603	-0.401611	-0.796020
C45	C	1.045625	-0.401567	-0.949735
C46	C	1.045636	-0.401541	-1.033067
C47	C	1.045591	-0.401636	-0.712682
C48	C	1.045513	-0.401734	-0.181304
C49	C	1.045645	-0.401524	-0.099496
H50	H	0.480543	-0.305142	-0.453733
H51	H	0.955830	-0.498327	-0.807451
O52	O	0.626283	-0.296673	-0.460778
C53	C	0.578008	-0.249695	-0.500300
H54	H	0.523342	-0.246779	-0.470033
H55	H	0.568479	-0.280301	-0.557517
C56	C	0.679135	-0.164553	-0.544244
C57	C	0.611995	-0.160966	-0.507065
H58	H	0.700101	-0.109822	-0.548420
H59	H	0.711660	-0.196205	-0.517619
H60	H	0.671185	-0.190063	-0.591921
H61	H	0.619948	-0.135467	-0.459386
H62	H	0.579473	-0.129308	-0.533682
H63	H	0.984231	-0.916221	-0.433785
H64	H	0.611239	-0.498352	-0.291308
H65	H	0.955861	-0.498284	-0.946891
O66	O	1.114563	-0.879420	-0.303568
C67	C	1.108207	-0.793265	-0.309882
H68	H	1.051909	-0.781519	-0.333425
H69	H	1.152913	-0.768476	-0.348018
C70	C	1.186067	-0.762935	-0.204545
C71	C	1.116919	-0.748508	-0.233455
H72	H	1.191444	-0.735326	-0.157403
H73	H	1.190351	-0.820979	-0.200292
H74	H	1.223314	-0.742277	-0.236332
H75	H	1.079673	-0.769176	-0.201673
H76	H	1.112628	-0.690467	-0.237701
H77	H	0.471795	-0.498390	-0.291314
H78	H	1.135383	-0.304848	-0.938295
H79	H	1.135366	-0.304891	-0.798870
