data_functionalizedCrystal
_audit_creation_method	'MofGen! by Chris Wilmer'
_symmetry_space_group_name_H-M	'P1'
_symmetry_Int_Tables_number	1
_symmetry_cell_setting	triclinic
loop_
_symmetry_equiv_pos_as_xyz
  x,y,z
_cell_length_a	12.759395
_cell_length_b	15.297327
_cell_length_c	12.759387
_cell_angle_alpha	99.641137
_cell_angle_beta	89.981185
_cell_angle_gamma	99.708038
loop_
_atom_site_label
_atom_site_type_symbol
_atom_site_fract_x
_atom_site_fract_y
_atom_site_fract_z
Zn1	Zn	1.533801	-0.359066	-0.666311
Zn2	Zn	1.503252	-0.509955	-0.521016
Zn3	Zn	1.358094	-0.359118	-0.490658
Zn4	Zn	1.327660	-0.509888	-0.696642
O5	O	1.430702	-0.434506	-0.593657
O6	O	1.676769	-0.379088	-0.647049
O7	O	1.483948	-0.489996	-0.369978
O8	O	1.406924	-0.232866	-0.488561
O9	O	1.654324	-0.489945	-0.540301
O10	O	1.536015	-0.232827	-0.617612
O11	O	1.377301	-0.379177	-0.347674
O12	O	1.207037	-0.379111	-0.517971
O13	O	1.355054	-0.489831	-0.839630
O14	O	1.184678	-0.489881	-0.669306
O15	O	1.506505	-0.379022	-0.817346
O16	O	1.454438	-0.636191	-0.569712
O17	O	1.325431	-0.636142	-0.698743
C18	C	1.157737	-0.434495	-0.593637
C19	C	1.040957	-0.434512	-0.593657
C20	C	1.017674	-0.550044	-0.751063
C21	C	0.951171	-0.607816	-0.829770
C22	C	0.841447	-0.607827	-0.829785
C23	C	0.798226	-0.550057	-0.751086
C24	C	0.864729	-0.492285	-0.672379
C25	C	0.974454	-0.492282	-0.672371
C26	C	0.888012	-0.376750	-0.514980
C27	C	0.997735	-0.376743	-0.514958
C28	C	0.844791	-0.318980	-0.436281
C29	C	0.911294	-0.261211	-0.357568
C30	C	1.021023	-0.261203	-0.357555
C31	C	1.064239	-0.318970	-0.436251
C32	C	1.383345	-0.668900	-0.640836
C33	C	1.363182	-0.769175	-0.661055
C34	C	1.575245	-1.051810	-0.449510
C35	C	1.594189	-0.957597	-0.430508
C36	C	1.536439	-0.910487	-0.488143
C37	C	1.459742	-0.957599	-0.564783
C38	C	1.440790	-1.051822	-0.583781
C39	C	1.401984	-0.910498	-0.622414
C40	C	1.325287	-0.957610	-0.699054
C41	C	1.306339	-1.051823	-0.718049
C42	C	1.364089	-1.098934	-0.660414
C43	C	1.420936	-0.816276	-0.603417
C44	C	1.286481	-0.816287	-0.737687
C45	C	1.267537	-0.910500	-0.756689
C46	C	1.704733	-0.434518	-0.593678
C47	C	1.821509	-0.434523	-0.593687
C48	C	1.430792	-0.434413	-0.867672
C49	C	1.430830	-0.434374	-0.984440
C50	C	1.478272	-0.199197	-0.546316
C51	C	1.498544	-0.098922	-0.526143
C52	C	1.319790	-0.318970	-0.961233
C53	C	1.264292	-0.261250	-1.004486
C54	C	1.264330	-0.261217	-1.114201
C55	C	1.319869	-0.318913	-1.180667
C56	C	1.375367	-0.376632	-1.137414
C57	C	1.375325	-0.376657	-1.027695
C58	C	1.486400	-0.492039	-1.160622
C59	C	1.486370	-0.492069	-1.050906
C60	C	1.541939	-0.549735	-1.227088
C61	C	1.597444	-0.607452	-1.183834
C62	C	1.597405	-0.607481	-1.074112
C63	C	1.541867	-0.549789	-1.007653
C64	C	1.430686	-0.434534	-0.320695
C65	C	1.430902	-0.434320	-0.203876
H66	H	0.986374	-0.654850	-0.893846
H67	H	1.551867	-0.833774	-0.472666
O68	O	1.651250	-0.663620	-1.248375
C69	C	1.610118	-0.753538	-1.239620
H70	H	1.525259	-0.758093	-1.210362
H71	H	1.661660	-0.777141	-1.180684
C72	C	1.714417	-0.808129	-1.385127
C73	C	1.610189	-0.813725	-1.349201
H74	H	1.714465	-0.845257	-1.452720
H75	H	1.742133	-0.747550	-1.391023
H76	H	1.757358	-0.827797	-1.336005
H77	H	1.567254	-0.794047	-1.398316
H78	H	1.582466	-0.874303	-1.343316
H79	H	1.483383	-0.777926	-0.541016
H80	H	1.107015	-0.550047	-0.751052
O81	O	0.776720	-0.663990	-0.906105
C82	C	0.701485	-0.722215	-0.857897
H83	H	0.691460	-0.690314	-0.771921
H84	H	0.730263	-0.789056	-0.859673
C85	C	0.606282	-0.777796	-1.024577
C86	C	0.593963	-0.738612	-0.918982
H87	H	0.539959	-0.787915	-1.062259
H88	H	0.656971	-0.738572	-1.057057
H89	H	0.630267	-0.833493	-1.026042
H90	H	0.569992	-0.682912	-0.917518
H91	H	0.543268	-0.777828	-0.886503
H92	H	1.656634	-0.919242	-0.368108
O93	O	1.542012	-0.549738	-0.901060
C94	C	1.647374	-0.526619	-0.859747
H95	H	1.698792	-0.487278	-0.915063
H96	H	1.679957	-0.590503	-0.853122
C97	C	1.585843	-0.516531	-0.680903
C98	C	1.648993	-0.468205	-0.748839
H99	H	1.586842	-0.480502	-0.612488
H100	H	1.514858	-0.532110	-0.708736
H101	H	1.613003	-0.569765	-0.675395
H102	H	1.621825	-0.414979	-0.754357
H103	H	1.719974	-0.452616	-0.721004
O104	O	0.738235	-0.318847	-0.436359
C105	C	0.719041	-0.232412	-0.446095
H106	H	0.789812	-0.195159	-0.484473
H107	H	0.707453	-0.193249	-0.363913
C108	C	0.531209	-0.286977	-0.468769
C109	C	0.618127	-0.241225	-0.515914
H110	H	0.468957	-0.292412	-0.511832
H111	H	0.544138	-0.345210	-0.462205
H112	H	0.521565	-0.254335	-0.400285
H113	H	0.627777	-0.273873	-0.584390
H114	H	0.605196	-0.182998	-0.522491
O115	O	1.345787	-1.190455	-0.679043
C116	C	1.366379	-1.221837	-0.786096
H117	H	1.423080	-1.167470	-0.818606
H118	H	1.288607	-1.238588	-0.834923
C119	C	1.347699	-1.373704	-0.753233
C120	C	1.417347	-1.306932	-0.793159
H121	H	1.379133	-1.426197	-0.757592
H122	H	1.333821	-1.352562	-0.681110
H123	H	1.282893	-1.387652	-0.793927
H124	H	1.482145	-1.292977	-0.752457
H125	H	1.431236	-1.328074	-0.865276
O126	O	0.869237	-0.205228	-0.281041
C127	C	0.795350	-0.256523	-0.223437
H128	H	0.814059	-0.327568	-0.231101
H129	H	0.711576	-0.259668	-0.256565
C130	C	0.779557	-0.125075	-0.095999
C131	C	0.802540	-0.212332	-0.105404
H132	H	0.783987	-0.097816	-0.023191
H133	H	0.829332	-0.090516	-0.134809
H134	H	0.709746	-0.127709	-0.123611
H135	H	0.872355	-0.209697	-0.077804
H136	H	0.752776	-0.246890	-0.066586
O137	O	1.085465	-0.205055	-0.280990
C138	C	1.023785	-0.154058	-0.211556
H139	H	0.938105	-0.191011	-0.215297
H140	H	1.025969	-0.085582	-0.236386
C141	C	1.174436	-0.095547	-0.092520
C142	C	1.069203	-0.140937	-0.097108
H143	H	1.202453	-0.087449	-0.021923
H144	H	1.215992	-0.129901	-0.139300
H145	H	1.176242	-0.038489	-0.113217
H146	H	1.067400	-0.197997	-0.076424
H147	H	1.027647	-0.106591	-0.050321
O148	O	1.631482	-1.097487	-0.393562
C149	C	1.740837	-1.074418	-0.411955
H150	H	1.756794	-1.005977	-0.438532
H151	H	1.765530	-1.127387	-0.476684
C152	C	1.785780	-1.154181	-0.276066
C153	C	1.805380	-1.070117	-0.308699
H154	H	1.825594	-1.151532	-0.212375
H155	H	1.712105	-1.169726	-0.263676
H156	H	1.806357	-1.198313	-0.330015
H157	H	1.784790	-1.025990	-0.254756
H158	H	1.879052	-1.054565	-0.321077
H159	H	1.153579	-0.318972	-0.436246
O160	O	1.231714	-1.097632	-0.792350
C161	C	1.152923	-1.152238	-0.743490
H162	H	1.152169	-1.123903	-0.655025
H163	H	1.171056	-1.223621	-0.754287
C164	C	1.044305	-1.188538	-0.903686
C165	C	1.043373	-1.153732	-0.795034
H166	H	0.976729	-1.189464	-0.935483
H167	H	1.097389	-1.151752	-0.936606
H168	H	1.059420	-1.248021	-0.912669
H169	H	1.028270	-1.094248	-0.786052
H170	H	0.990283	-1.190509	-0.762113
H171	H	1.205089	-0.948872	-0.819090
H172	H	1.239454	-0.777931	-0.784617
H173	H	1.642602	-0.654481	-1.038902
H174	H	0.708883	-0.550064	-0.751113
H175	H	1.319763	-0.318983	-0.871894
H176	H	1.219070	-0.214277	-0.950358
H177	H	1.219137	-0.214218	-1.149417
H178	H	1.319884	-0.318889	-1.270004
H179	H	1.541960	-0.549709	-1.316424
