data_functionalizedCrystal
_audit_creation_method	'MofGen! by Chris Wilmer'
_symmetry_space_group_name_H-M	'P1'
_symmetry_Int_Tables_number	1
_symmetry_cell_setting	triclinic
loop_
_symmetry_equiv_pos_as_xyz
  x,y,z
_cell_length_a	19.288864
_cell_length_b	10.489741
_cell_length_c	17.766277
_cell_angle_alpha	89.993969
_cell_angle_beta	89.976791
_cell_angle_gamma	83.837710
loop_
_atom_site_label
_atom_site_type_symbol
_atom_site_fract_x
_atom_site_fract_y
_atom_site_fract_z
O1	O	0.922420	0.159110	-0.062835
O2	O	0.720303	0.180573	-0.062784
O3	O	0.825961	-0.015860	-0.062806
O4	O	0.816763	0.355544	-0.062813
O5	O	0.825942	-0.015870	0.062382
O6	O	0.720285	0.180564	0.062405
O7	O	0.922401	0.159100	0.062353
Cu8	Cu	0.821341	0.169831	0.073810
Cu9	Cu	0.821363	0.169843	-0.074240
O10	O	0.816744	0.355534	0.062375
C11	C	0.694413	0.179878	-0.000183
C12	C	0.617295	0.177805	-0.000163
C13	C	0.825257	-0.063381	-0.000212
C14	C	0.823178	-0.204964	-0.000213
C15	C	0.573372	0.293063	-0.000177
C16	C	0.500912	0.291115	-0.000186
C17	C	0.472378	0.173903	-0.000195
C18	C	0.516311	0.058629	-0.000177
C19	C	0.588770	0.060580	-0.000161
C20	C	0.363505	0.081764	-0.044078
C21	C	0.291047	0.079818	-0.044098
C22	C	0.248892	0.167880	-0.000240
C23	C	0.279202	0.257911	0.043628
C24	C	0.351661	0.259862	0.043644
C25	C	0.393810	0.171774	-0.000212
C26	C	0.126399	0.281035	-0.000262
C27	C	0.053938	0.279082	-0.000266
C28	C	0.069339	0.046593	-0.000265
C29	C	0.141798	0.048549	-0.000254
C30	C	0.170324	0.165773	-0.000256
C31	C	0.755951	-0.271583	-0.000202
C32	C	0.787699	-0.364429	0.061515
C33	C	0.787734	-0.364394	-0.061911
C34	C	0.854954	-0.295944	0.061554
C35	C	0.854979	-0.295900	-0.061927
C36	C	0.886776	-0.388719	-0.000196
C37	C	0.948292	0.159796	-0.000249
C38	C	1.025409	0.161869	-0.000274
C39	C	0.817448	0.403055	-0.000220
C40	C	0.819526	0.544637	-0.000224
N41	N	0.821331	0.169822	0.177940
N42	N	0.821379	0.169842	-0.178371
C43	C	0.868131	0.082883	0.217317
C44	C	0.868135	0.082878	0.296119
C45	C	0.821345	0.169832	0.335540
C46	C	0.774536	0.256777	0.296154
C47	C	0.774528	0.256772	0.217354
C48	C	0.812826	0.286045	0.460378
C49	C	0.812838	0.286051	0.539177
C50	C	0.821364	0.169847	0.578587
C51	C	0.829892	0.053631	0.539188
C52	C	0.829885	0.053626	0.460388
C53	C	0.821348	0.169847	0.420986
C54	C	0.868171	0.082895	0.703410
C55	C	0.868171	0.082888	0.782213
C56	C	0.774575	0.256798	0.782247
C57	C	0.774572	0.256795	0.703445
C58	C	0.821374	0.169845	0.664031
H59	H	0.596592	0.388516	-0.000181
N60	N	0.453529	0.415438	-0.000203
H61	H	0.462800	0.466589	-0.046613
H62	H	0.403318	0.396308	-0.000186
H63	H	0.836827	-0.041001	0.428313
N64	N	0.892576	-0.255950	0.130750
H65	H	0.867361	-0.281451	0.177315
H66	H	0.941843	-0.299694	0.130894
H67	H	0.906279	0.012085	0.814274
H68	H	0.624533	-0.033280	-0.000150
H69	H	0.493075	-0.036806	-0.000195
N70	N	0.006561	0.403406	-0.000287
H71	H	-0.043670	0.384386	-0.000294
H72	H	0.015840	0.454514	0.046120
H73	H	0.805898	0.380681	0.571249
N74	N	0.803631	0.411387	0.417874
H75	H	0.798237	0.485006	0.454788
H76	H	0.845860	0.418628	0.385158
N77	N	0.839093	-0.071716	0.581682
H78	H	0.837800	-0.054084	0.637579
H79	H	0.800215	-0.124654	0.567930
N80	N	0.892633	-0.255603	-0.131061
H81	H	0.934880	-0.213003	-0.115347
H82	H	0.907885	-0.333592	-0.162697
H83	H	0.736438	0.327575	0.328255
H84	H	0.759288	-0.394710	-0.114092
H85	H	0.759246	-0.394801	0.113706
H86	H	0.700678	-0.220682	-0.000125
N87	N	0.157173	0.407461	-0.000261
H88	H	0.118349	0.480184	-0.000265
H89	H	0.186878	0.413329	0.046152
N90	N	0.960051	-0.455869	-0.000174
H91	H	0.985661	-0.429848	-0.046350
H92	H	0.985281	-0.430985	0.046493
H93	H	0.906239	0.012081	0.185228
N94	N	0.918645	-0.010883	0.660892
H95	H	0.948291	-0.065969	0.697798
H96	H	0.891774	-0.067145	0.628214
N97	N	0.918614	-0.010888	0.338608
H98	H	0.910171	-0.101382	0.324911
H99	H	0.967957	0.003691	0.324852
N100	N	0.724104	0.350579	0.824756
H101	H	0.674738	0.336108	0.811068
H102	H	0.731269	0.337337	0.880637
H103	H	0.736465	0.327593	0.671382
N104	N	0.038577	-0.079835	-0.000277
H105	H	0.054529	-0.130315	0.046135
H106	H	-0.013986	-0.063480	-0.000316
N107	N	0.724045	0.350548	0.174884
H108	H	0.732493	0.441037	0.188586
H109	H	0.731165	0.337244	0.118996
N110	N	0.384359	0.356943	0.090960
H111	H	0.365818	0.446350	0.074588
H112	H	0.372499	0.344602	0.145670
N113	N	0.233752	0.352895	0.090947
H114	H	0.240424	0.442977	0.074577
H115	H	0.183270	0.337890	0.084273
N116	N	0.189179	-0.075766	-0.000239
H117	H	0.160110	-0.150318	-0.000245
H118	H	0.219605	-0.080021	-0.046640
H119	H	0.397823	0.010050	-0.079797
N120	N	0.258357	-0.017279	-0.091409
H121	H	0.270213	-0.005070	-0.146135
H122	H	0.276913	-0.106632	-0.074961
