data_functionalizedCrystal
_audit_creation_method	'MofGen! by Chris Wilmer'
_symmetry_space_group_name_H-M	'P1'
_symmetry_Int_Tables_number	1
_symmetry_cell_setting	triclinic
loop_
_symmetry_equiv_pos_as_xyz
  x,y,z
_cell_length_a	11.792241
_cell_length_b	19.288859
_cell_length_c	18.366186
_cell_angle_alpha	89.990083
_cell_angle_beta	90.001225
_cell_angle_gamma	96.336429
loop_
_atom_site_label
_atom_site_type_symbol
_atom_site_fract_x
_atom_site_fract_y
_atom_site_fract_z
O1	O	-0.141549	0.922160	-0.060556
O2	O	0.358451	1.422160	0.439444
O3	O	-0.160655	0.720007	-0.060553
O4	O	0.339345	1.220007	0.439447
O5	O	0.014143	0.825989	-0.060559
O6	O	0.514143	1.325989	0.439441
O7	O	-0.316347	0.816177	-0.060550
O8	O	0.183653	1.316177	0.439450
O9	O	0.014152	0.825971	0.060540
O10	O	0.514152	1.325971	0.560540
O11	O	-0.160647	0.719989	0.060546
O12	O	0.339353	1.219989	0.560546
O13	O	-0.141540	0.922141	0.060543
O14	O	0.358460	1.422141	0.560543
Zn15	Zn	-0.151092	0.821062	0.079772
Zn16	Zn	0.348908	1.321062	0.579772
Zn17	Zn	-0.151103	0.821086	-0.079782
Zn18	Zn	0.348897	1.321086	0.420218
O19	O	-0.316339	0.816159	0.060549
O20	O	0.183661	1.316159	0.560549
C21	C	-0.160037	0.694118	-0.000003
C22	C	0.339963	1.194118	0.499997
C23	C	-0.158195	0.617003	-0.000003
C24	C	0.341805	1.117003	0.499997
C25	C	-0.248298	0.053475	-0.000001
C26	C	0.251702	0.553475	0.499999
C27	C	-0.250039	0.125931	-0.000005
C28	C	0.249961	0.625931	0.499995
C29	C	-0.147475	0.170055	-0.000007
C30	C	0.352525	0.670055	0.499993
C31	C	-0.043163	0.141718	-0.000023
C32	C	0.456837	0.641718	0.499977
C33	C	-0.041426	0.069262	-0.000026
C34	C	0.458574	0.569262	0.499974
C35	C	-0.070981	0.290885	0.042420
C36	C	0.429019	0.790885	0.542420
C37	C	-0.072723	0.363338	0.042428
C38	C	0.427277	0.863338	0.542428
C39	C	-0.152831	0.393531	0.000001
C40	C	0.347169	0.893531	0.500001
C41	C	-0.231216	0.351261	-0.042425
C42	C	0.268784	0.851261	0.457575
C43	C	-0.229478	0.278806	-0.042429
C44	C	0.270522	0.778806	0.457571
C45	C	-0.149348	0.248621	-0.000003
C46	C	0.350652	0.748621	0.499997
C47	C	-0.259024	0.500426	0.000008
C48	C	0.240976	1.000426	0.500008
C49	C	-0.260760	0.572884	-0.000000
C50	C	0.239240	1.072884	0.500000
C51	C	-0.053881	0.588670	-0.000011
C52	C	0.446119	1.088670	0.499989
C53	C	-0.052148	0.516213	-0.000010
C54	C	0.447852	1.016213	0.499990
C55	C	-0.154722	0.472095	0.000003
C56	C	0.345278	0.972095	0.500003
C57	C	-0.358624	0.816785	0.000000
C58	C	0.141376	1.316785	0.500000
C59	C	-0.484610	0.818629	0.000004
C60	C	0.015390	1.318629	0.500004
C61	C	-0.715271	0.822021	-0.000015
C62	C	-0.215271	1.322021	0.499985
C63	C	-0.586914	0.820137	-0.000005
C64	C	-0.086914	1.320137	0.499995
C65	C	0.056429	0.825363	-0.000012
C66	C	0.556429	1.325363	0.499988
C67	C	0.182415	0.823519	-0.000020
C68	C	0.682415	1.323519	0.499980
C69	C	-0.142158	0.948030	-0.000008
C70	C	0.357842	1.448030	0.499992
C71	C	-0.144000	1.025145	-0.000014
C72	C	0.356000	1.525145	0.499986
N73	N	-0.151084	0.821051	0.188663
N74	N	0.348916	1.321051	0.688663
N75	N	-0.151103	0.821103	-0.188673
N76	N	0.348897	1.321103	0.311327
C77	C	-0.073721	0.867995	0.226761
C78	C	0.426279	1.367995	0.726761
C79	C	-0.073716	0.868000	0.302989
C80	C	0.426284	1.368000	0.802989
C81	C	-0.151093	0.821066	0.341116
C82	C	0.348907	1.321066	0.841116
C83	C	-0.228462	0.774113	0.303009
C84	C	0.271538	1.274113	0.803009
C85	C	-0.228457	0.774105	0.226782
C86	C	0.271543	1.274105	0.726782
C87	C	-0.254504	0.812356	0.461879
C88	C	0.245496	1.312356	0.961879
C89	C	-0.254511	0.812368	0.538104
C90	C	0.245489	1.312368	1.038104
C91	C	-0.151107	0.821086	0.576223
C92	C	0.348893	1.321086	1.076223
C93	C	-0.047693	0.829806	0.538108
C94	C	0.452307	1.329806	1.038108
C95	C	-0.047689	0.829799	0.461882
C96	C	0.452311	1.329799	0.961882
C97	C	-0.151106	0.821069	0.423770
C98	C	0.348894	1.321069	0.923770
C99	C	-0.073733	0.868038	0.696976
C100	C	0.426267	1.368038	1.196976
C101	C	-0.073726	0.868037	0.773205
C102	C	0.426274	1.368037	1.273205
C103	C	-0.228482	0.774154	0.773224
C104	C	0.271518	1.274154	1.273224
C105	C	-0.228479	0.774151	0.696996
C106	C	0.271521	1.274151	1.196996
C107	C	-0.151105	0.821097	0.658877
C108	C	0.348895	1.321097	1.158877
H109	H	-0.005742	0.266308	0.076971
H110	H	0.494258	0.766308	0.576971
H111	H	-0.008903	0.397749	0.076978
H112	H	0.491097	0.897749	0.576978
H113	H	-0.010716	0.906220	0.195726
H114	H	0.489284	1.406220	0.695726
H115	H	-0.291462	0.735898	0.334055
H116	H	0.208538	1.235898	0.834055
H117	H	-0.334974	0.149002	0.000012
H118	H	0.165026	0.649002	0.500012
H119	H	-0.331823	0.017558	0.000005
H120	H	0.168177	0.517558	0.500005
H121	H	0.029628	0.624595	-0.000017
H122	H	0.529628	1.124595	0.499983
H123	H	-0.291479	0.735937	0.804266
H124	H	0.208521	1.235937	1.304266
H125	H	0.040345	0.177648	-0.000026
H126	H	0.540345	0.677648	0.499974
H127	H	-0.338713	0.805244	0.430848
H128	H	0.161287	1.305244	0.930848
H129	H	-0.291456	0.735877	0.195762
H130	H	0.208544	1.235877	0.695762
H131	H	0.043509	0.046198	-0.000037
H132	H	0.543509	0.546198	0.499963
H133	H	-0.342546	0.464504	0.000017
H134	H	0.157454	0.964504	0.500017
H135	H	-0.010715	0.906229	0.334014
H136	H	0.489285	1.406229	0.834014
H137	H	-0.345696	0.595948	0.000004
H138	H	0.154304	1.095948	0.500004
H139	H	0.036515	0.836897	0.430852
H140	H	0.536515	1.336897	0.930852
H141	H	-0.291479	0.735927	0.665975
H142	H	0.208521	1.235927	1.165975
H143	H	0.032783	0.493147	-0.000015
H144	H	0.532783	0.993147	0.499985
H145	H	0.036508	0.836905	0.569143
H146	H	0.536508	1.336905	1.069143
H147	H	-0.338716	0.805272	0.569131
H148	H	0.161284	1.305272	1.069131
H149	H	-0.010727	0.906262	0.665938
H150	H	0.489273	1.406262	1.165938
H151	H	-0.293300	0.244392	-0.076975
H152	H	0.206700	0.744392	0.423025
H153	H	-0.296450	0.375842	-0.076972
H154	H	0.203550	0.875842	0.423028
H155	H	-0.010722	0.906263	0.804225
H156	H	0.489278	1.406263	1.304225
