data_functionalizedCrystal
_audit_creation_method	'MofGen! by Chris Wilmer'
_symmetry_space_group_name_H-M	'P1'
_symmetry_Int_Tables_number	1
_symmetry_cell_setting	triclinic
loop_
_symmetry_equiv_pos_as_xyz
  x,y,z
_cell_length_a	12.759401
_cell_length_b	18.050589
_cell_length_c	12.759393
_cell_angle_alpha	89.969379
_cell_angle_beta	89.981504
_cell_angle_gamma	90.028382
loop_
_atom_site_label
_atom_site_type_symbol
_atom_site_fract_x
_atom_site_fract_y
_atom_site_fract_z
Zn1	Zn	1.606157	-0.295612	-0.593988
Zn2	Zn	1.606010	-0.419823	-0.418311
Zn3	Zn	1.430459	-0.295651	-0.418328
Zn4	Zn	1.430406	-0.419766	-0.593953
O5	O	1.518258	-0.357713	-0.506145
O6	O	1.753158	-0.312097	-0.570692
O7	O	1.582683	-0.403391	-0.271292
O8	O	1.453849	-0.191722	-0.441651
O9	O	1.753050	-0.403354	-0.441623
O10	O	1.582934	-0.191693	-0.570708
O11	O	1.453706	-0.312163	-0.271304
O12	O	1.283431	-0.312108	-0.441617
O13	O	1.453759	-0.403256	-0.740979
O14	O	1.283392	-0.403294	-0.570648
O15	O	1.582882	-0.312041	-0.741005
O16	O	1.582632	-0.523740	-0.441589
O17	O	1.453616	-0.523698	-0.570632
C18	C	1.245290	-0.357699	-0.506131
C19	C	1.128514	-0.357711	-0.506149
C20	C	1.518131	-0.550665	-0.506127
C21	C	1.518173	-0.633211	-0.506155
C22	C	1.073659	-0.405268	-0.573225
C23	C	0.963935	-0.405277	-0.573236
C24	C	0.963930	-0.310171	-0.439088
C25	C	1.073652	-0.310159	-0.439083
C26	C	1.128521	-0.452820	-0.640292
C27	C	1.073666	-0.500382	-0.707372
C28	C	0.963942	-0.500391	-0.707383
C29	C	0.909072	-0.452839	-0.640314
C30	C	1.448083	-0.832666	-0.576304
C31	C	1.422469	-0.882114	-0.480436
C32	C	1.518276	-0.784341	-0.506169
C33	C	1.543942	-0.881974	-0.602048
C34	C	1.518374	-0.930326	-0.506191
C35	C	1.492611	-0.832703	-0.410250
C36	C	1.614129	-0.832558	-0.531927
C37	C	1.588551	-0.881985	-0.435992
C38	C	1.518217	-0.700243	-0.506158
C39	C	1.518433	-1.014423	-0.506191
C40	C	1.792291	-0.357727	-0.506160
C41	C	1.909068	-0.357733	-0.506166
C42	C	1.518331	-0.357638	-0.780178
C43	C	1.518363	-0.357606	-0.896955
C44	C	1.518414	-0.164007	-0.506185
C45	C	1.518480	-0.081462	-0.506203
C46	C	1.585606	-0.310106	-0.951832
C47	C	1.585631	-0.310079	-1.061557
C48	C	1.451166	-0.405059	-1.061516
C49	C	1.451136	-0.405081	-0.951794
C50	C	1.652833	-0.262631	-0.896993
C51	C	1.720083	-0.215128	-0.951871
C52	C	1.720108	-0.215101	-1.061595
C53	C	1.652883	-0.262577	-1.116442
C54	C	1.518245	-0.357734	-0.233178
C55	C	1.518417	-0.357557	-0.116401
H56	H	1.118347	-0.539092	-0.761983
H57	H	1.396434	-0.443712	-1.106181
O58	O	0.910817	-0.546656	-0.772577
C59	C	0.922408	-0.640957	-0.905675
C60	C	0.982699	-0.588608	-0.831880
H61	H	0.980499	-0.674878	-0.953656
H62	H	0.871028	-0.679802	-0.857398
H63	H	0.871051	-0.606902	-0.960655
H64	H	1.034114	-0.622603	-0.776885
H65	H	1.034013	-0.549760	-0.880222
H66	H	1.565611	-0.903618	-0.683124
O67	O	0.910471	-0.264061	-0.373965
C68	C	0.741434	-0.221913	-0.314551
C69	C	0.801843	-0.274179	-0.388346
H70	H	0.653597	-0.230064	-0.326168
H71	H	0.762895	-0.234888	-0.229781
H72	H	0.763098	-0.162048	-0.333125
H73	H	0.780211	-0.334061	-0.369867
H74	H	0.780376	-0.261140	-0.473093
H75	H	1.396364	-0.443749	-0.907112
H76	H	1.217863	-0.452820	-0.640288
O77	O	1.126902	-0.264049	-0.373770
C78	C	1.160394	-0.227829	-0.195145
C79	C	1.100040	-0.280106	-0.268990
H80	H	1.138682	-0.240781	-0.110416
H81	H	1.248250	-0.235995	-0.206577
H82	H	1.138878	-0.167965	-0.213788
H83	H	1.121468	-0.339989	-0.250393
H84	H	1.012199	-0.271875	-0.257545
O85	O	1.466615	-0.806872	-0.313574
C86	C	1.437462	-0.699607	-0.205086
C87	C	1.466896	-0.728762	-0.314622
H88	H	1.437701	-0.636453	-0.205891
H89	H	1.356020	-0.720409	-0.182978
H90	H	1.496951	-0.720385	-0.145272
H91	H	1.407477	-0.707996	-0.374509
H92	H	1.548364	-0.707967	-0.336641
O93	O	0.802486	-0.452941	-0.640457
C94	C	0.645032	-0.505054	-0.714197
C95	C	0.765737	-0.505037	-0.714108
H96	H	0.615284	-0.547158	-0.773753
H97	H	0.615098	-0.520434	-0.632846
H98	H	0.615355	-0.447535	-0.736106
H99	H	0.795503	-0.562539	-0.692244
H100	H	0.795600	-0.489616	-0.795468
H101	H	1.647952	-0.903503	-0.376622
O102	O	1.710835	-0.806658	-0.557823
C103	C	1.894528	-0.803397	-0.514265
C104	C	1.785072	-0.832794	-0.484817
H105	H	1.954574	-0.824504	-0.455243
H106	H	1.916340	-0.823624	-0.596037
H107	H	1.893684	-0.740247	-0.513279
H108	H	1.785832	-0.895942	-0.485741
H109	H	1.763303	-0.812510	-0.403062
H110	H	1.388636	-0.811010	-0.635531
O111	O	1.785341	-0.169077	-0.898435
C112	C	1.844844	-0.126984	-0.729421
C113	C	1.770905	-0.179189	-0.789802
H114	H	1.833182	-0.135130	-0.641580
H115	H	1.929579	-0.140023	-0.750918
H116	H	1.826456	-0.067103	-0.751076
H117	H	1.789198	-0.239087	-0.768180
H118	H	1.686192	-0.166086	-0.768300
H119	H	1.341455	-0.903898	-0.458669
O120	O	1.785526	-0.168933	-1.114742
C121	C	1.918853	-0.074700	-1.103195
C122	C	1.844832	-0.126958	-1.042879
H123	H	1.966805	-0.040738	-1.045121
H124	H	1.973841	-0.108754	-1.154530
H125	H	1.870649	-0.035882	-1.154600
H126	H	1.892951	-0.165786	-0.991417
H127	H	1.789841	-0.092858	-0.991611
H128	H	1.652822	-0.262649	-0.807650
H129	H	1.652896	-0.262543	-1.205786
