data_functionalizedCrystal
_audit_creation_method	'MofGen! by Chris Wilmer'
_symmetry_space_group_name_H-M	'P1'
_symmetry_Int_Tables_number	1
_symmetry_cell_setting	triclinic
loop_
_symmetry_equiv_pos_as_xyz
  x,y,z
_cell_length_a	16.109301
_cell_length_b	14.519709
_cell_length_c	15.186229
_cell_angle_alpha	89.995307
_cell_angle_beta	89.999362
_cell_angle_gamma	83.570813
loop_
_atom_site_label
_atom_site_type_symbol
_atom_site_fract_x
_atom_site_fract_y
_atom_site_fract_z
O1	O	1.103336	0.118540	-0.073175
O2	O	0.861299	0.133292	-0.073189
O3	O	0.988735	-0.008336	-0.073174
O4	O	0.975900	0.260168	-0.073190
O5	O	0.988726	-0.008338	0.073284
O6	O	0.861291	0.133290	0.073268
O7	O	1.103327	0.118538	0.073282
Zn8	Zn	0.982308	0.125914	0.096529
Zn9	Zn	0.982319	0.125916	-0.096435
O10	O	0.975892	0.260166	0.073267
C11	C	0.830319	0.132693	0.000038
C12	C	0.738021	0.130902	0.000033
C13	C	0.515887	0.210775	0.000038
C14	C	0.429163	0.209085	0.000044
C15	C	0.448747	0.041048	0.000050
C16	C	0.535468	0.042739	0.000051
C17	C	0.569036	0.127606	0.000040
C18	C	0.395591	0.124224	0.000045
C19	C	0.301562	0.122390	0.000052
C20	C	0.663071	0.129440	0.000036
C21	C	0.988132	-0.042696	0.000055
C22	C	0.986340	-0.145073	0.000056
C23	C	0.979741	-0.519955	0.000032
C24	C	0.981574	-0.415651	0.000039
C25	C	0.983041	-0.332517	0.000045
C26	C	0.984873	-0.228207	0.000050
C27	C	1.134307	0.119136	0.000054
C28	C	1.226606	0.120928	0.000053
C29	C	0.976494	0.294526	0.000036
C30	C	0.978287	0.396903	0.000030
N31	N	0.982306	0.125911	0.228221
N32	N	0.982327	0.125911	-0.228128
C33	C	1.038754	0.063219	0.453951
C34	C	1.038756	0.063217	0.546141
C35	C	0.925873	0.188606	0.546136
C36	C	0.925867	0.188603	0.453948
C37	C	0.982312	0.125911	0.407858
C38	C	0.982321	0.125912	0.592236
C39	C	0.982323	0.125910	0.692192
C40	C	0.982309	0.125911	0.307895
H41	H	1.084714	0.012170	0.416427
H42	H	0.879902	0.239654	0.416417
O43	O	0.587138	-0.038032	0.000206
C44	C	0.696454	-0.133615	0.076058
C45	C	0.637973	-0.042124	0.075998
H46	H	0.737581	-0.136945	0.137320
H47	H	0.657610	-0.194598	0.076114
H48	H	0.737507	-0.137004	0.014738
H49	H	0.596908	-0.038644	0.137307
H50	H	0.676867	0.018816	0.075896
O51	O	0.548357	0.293291	0.000074
C52	C	0.519776	0.459782	0.000022
C53	C	0.482896	0.366396	-0.000002
H54	H	0.466868	0.518912	-0.000059
H55	H	0.559857	0.464834	0.061328
H56	H	0.559915	0.464731	-0.061256
H57	H	0.442719	0.361384	0.061234
H58	H	0.442863	0.361384	-0.061349
O59	O	0.377451	0.289816	-0.000081
C60	C	0.268213	0.385457	-0.075991
C61	C	0.326715	0.293981	-0.075949
H62	H	0.227191	0.388863	-0.137333
H63	H	0.227065	0.388882	-0.014740
H64	H	0.307124	0.446383	-0.075956
H65	H	0.287870	0.233004	-0.076015
H66	H	0.367866	0.290637	-0.137195
O67	O	0.415999	-0.041307	0.000015
C68	C	0.291080	-0.118386	0.000065
C69	C	0.328052	-0.025054	0.000088
H70	H	0.219970	-0.105278	0.000143
H71	H	0.312901	-0.159495	-0.061240
H72	H	0.313007	-0.159487	0.061344
H73	H	0.306142	0.016123	-0.061150
H74	H	0.306235	0.015985	0.061434
H75	H	1.084715	0.012167	0.583667
O76	O	0.871131	0.249473	0.591046
C77	C	0.821082	0.305018	0.733064
C78	C	0.883134	0.236047	0.682317
H79	H	0.830752	0.294173	0.806865
H80	H	0.832024	0.378907	0.714993
H81	H	0.754483	0.292990	0.714895
H82	H	0.949757	0.247990	0.700459
H83	H	0.872119	0.162182	0.700393
