data_functionalizedCrystal
_audit_creation_method	'MofGen! by Chris Wilmer'
_symmetry_space_group_name_H-M	'P1'
_symmetry_Int_Tables_number	1
_symmetry_cell_setting	triclinic
loop_
_symmetry_equiv_pos_as_xyz
  x,y,z
_cell_length_a	29.839131
_cell_length_b	29.839134
_cell_length_c	29.839125
_cell_angle_alpha	89.978020
_cell_angle_beta	90.025363
_cell_angle_gamma	89.969912
loop_
_atom_site_label
_atom_site_type_symbol
_atom_site_fract_x
_atom_site_fract_y
_atom_site_fract_z
Zn1	Zn	-0.178978	-0.686739	0.254101
Zn2	Zn	0.321022	-0.186739	0.754101
Zn3	Zn	-0.254090	-0.686679	0.178961
Zn4	Zn	0.245910	-0.186679	0.678961
Zn5	Zn	-0.178968	-0.611622	0.178971
Zn6	Zn	0.321032	-0.111622	0.678971
Zn7	Zn	-0.254075	-0.611578	0.254049
Zn8	Zn	0.245925	-0.111578	0.754049
O9	O	-0.216528	-0.649154	0.216521
O10	O	0.283472	-0.149154	0.716521
O11	O	-0.188952	-0.749598	0.244151
O12	O	0.311048	-0.249598	0.744151
O13	O	-0.244127	-0.676716	0.116095
O14	O	0.255873	-0.176716	0.616095
O15	O	-0.116102	-0.621630	0.188963
O16	O	0.383898	-0.121630	0.688963
O17	O	-0.244137	-0.749554	0.188946
O18	O	0.255863	-0.249554	0.688946
O19	O	-0.116109	-0.676818	0.244161
O20	O	0.383891	-0.176818	0.744161
O21	O	-0.188935	-0.621572	0.116102
O22	O	0.311065	-0.121572	0.616102
O23	O	-0.188921	-0.548749	0.188912
O24	O	0.311079	-0.048749	0.688912
O25	O	-0.244111	-0.621554	0.316923
O26	O	0.255889	-0.121554	0.816923
O27	O	-0.244101	-0.548716	0.244072
O28	O	0.255899	-0.048716	0.744072
O29	O	-0.188937	-0.676775	0.316961
O30	O	0.311063	-0.176775	0.816961
O31	O	-0.316955	-0.676673	0.188896
O32	O	0.183045	-0.176673	0.688896
O33	O	-0.316944	-0.621497	0.244063
O34	O	0.183056	-0.121497	0.744063
C35	C	-0.333250	-0.649086	0.216483
C36	C	0.166750	-0.149086	0.716483
C37	C	-0.383185	-0.649098	0.216482
C38	C	0.116815	-0.149098	0.716482
C39	C	-0.216509	-0.532432	0.216488
C40	C	0.283491	-0.032432	0.716488
C41	C	-0.216511	-0.482497	0.216485
C42	C	0.283489	0.017503	0.716485
C43	C	-0.216524	-0.649167	0.333699
C44	C	0.283476	-0.149167	0.833699
C45	C	-0.216522	-0.649172	0.383633
C46	C	0.283478	-0.149172	0.883633
C47	C	-0.692797	-0.677885	0.245303
C48	C	-0.192797	-0.177885	0.745303
C49	C	-0.880470	-0.677933	0.245330
C50	C	-0.380470	-0.177933	0.745330
O51	O	-0.904708	-0.702342	0.269807
O52	O	-0.404708	-0.202342	0.769807
N53	N	-0.903970	-0.649231	0.216570
N54	N	-0.403970	-0.149231	0.716570
C55	C	-0.880548	-0.620512	0.187804
C56	C	-0.380548	-0.120512	0.687804
O57	O	-0.904843	-0.596096	0.163346
O58	O	-0.404843	-0.096096	0.663346
C59	C	-0.692876	-0.620461	0.187780
C60	C	-0.192876	-0.120461	0.687780
C61	C	-0.669379	-0.649169	0.216538
C62	C	-0.169379	-0.149169	0.716538
C63	C	-0.669300	-0.706590	0.274059
C64	C	-0.169300	-0.206590	0.774059
C65	C	-0.622384	-0.706579	0.274051
C66	C	-0.122384	-0.206579	0.774051
C67	C	-0.598966	-0.677863	0.245286
C68	C	-0.098966	-0.177863	0.745286
C69	C	-0.622463	-0.649158	0.216529
C70	C	-0.122463	-0.149158	0.716529
C71	C	-0.669456	-0.591740	0.159016
C72	C	-0.169456	-0.091740	0.659016
C73	C	-0.622535	-0.591729	0.159013
C74	C	-0.122535	-0.091729	0.659013
C75	C	-0.599037	-0.620437	0.187771
C76	C	-0.099037	-0.120437	0.687771
C77	C	-0.552130	-0.620431	0.187755
C78	C	-0.052130	-0.120431	0.687755
N79	N	-0.528630	-0.649134	0.216515
N80	N	-0.028630	-0.149134	0.716515
C81	C	-0.552048	-0.677850	0.245280
C82	C	-0.052048	-0.177850	0.745280
C83	C	-0.979079	-0.620541	0.187818
C84	C	-0.479079	-0.120541	0.687818
C85	C	-1.025997	-0.620554	0.187824
C86	C	-0.525997	-0.120554	0.687824
C87	C	-1.025915	-0.677975	0.245351
C88	C	-0.525915	-0.177975	0.745351
C89	C	-0.978996	-0.677964	0.245342
C90	C	-0.478996	-0.177964	0.745342
C91	C	-0.955579	-0.649244	0.216578
C92	C	-0.455579	-0.149244	0.716578
C93	C	-0.453522	-0.677826	0.245259
C94	C	0.046478	-0.177826	0.745259
C95	C	-0.406603	-0.677814	0.245247
C96	C	0.093397	-0.177814	0.745247
C97	C	-0.406688	-0.620391	0.187722
C98	C	0.093312	-0.120391	0.687722
C99	C	-0.453604	-0.620404	0.187732
C100	C	0.046396	-0.120404	0.687732
C101	C	-0.477020	-0.649123	0.216505
C102	C	0.022980	-0.149123	0.716505
O103	O	-0.527863	-0.596032	0.163295
O104	O	-0.027863	-0.096032	0.663295
O105	O	-0.527746	-0.702255	0.269742
O106	O	-0.027746	-0.202255	0.769742
C107	C	-0.739712	-0.677895	0.245312
C108	C	-0.239712	-0.177895	0.745312
C109	C	-0.763210	-0.649190	0.216556
C110	C	-0.263210	-0.149190	0.716556
C111	C	-0.739792	-0.620474	0.187790
C112	C	-0.239792	-0.120474	0.687790
C113	C	-0.810128	-0.649203	0.216561
C114	C	-0.310128	-0.149203	0.716561
C115	C	-0.833546	-0.677919	0.245326
C116	C	-0.333546	-0.177919	0.745326
C117	C	-0.810046	-0.706622	0.274086
C118	C	-0.310046	-0.206622	0.774086
C119	C	-0.763130	-0.706611	0.274077
C120	C	-0.263130	-0.206611	0.774077
C121	C	-0.763291	-0.591772	0.159031
C122	C	-0.263291	-0.091772	0.659031
C123	C	-0.810207	-0.591785	0.159041
C124	C	-0.310207	-0.091785	0.659041
C125	C	-0.833625	-0.620501	0.187807
C126	C	-0.333625	-0.120501	0.687807
C127	C	-0.099349	-0.649235	0.216568
C128	C	0.400651	-0.149235	0.716568
C129	C	-0.049415	-0.649270	0.216589
C130	C	0.450585	-0.149270	0.716589
C131	C	-0.216547	-0.766333	0.216553
C132	C	0.283453	-0.266333	0.716553
C133	C	-0.216555	-0.816267	0.216567
C134	C	0.283445	-0.316267	0.716567
C135	C	-0.245303	-0.172847	0.245207
C136	C	0.254697	0.327153	0.745207
C137	C	-0.245315	0.014827	0.245227
C138	C	0.254685	0.514827	0.745227
O139	O	-0.269774	0.039098	0.269629
O140	O	0.230226	0.539098	0.769629
N141	N	-0.216544	0.038288	0.216554
N142	N	0.283456	0.538288	0.716554
C143	C	-0.187766	0.014828	0.187877
C144	C	0.312234	0.514828	0.687877
O145	O	-0.163291	0.039089	0.163492
O146	O	0.336709	0.539089	0.663492
C147	C	-0.187751	-0.172844	0.187859
C148	C	0.312249	0.327156	0.687859
C149	C	-0.216527	-0.196303	0.216531
C150	C	0.283473	0.303697	0.716531
C151	C	-0.274076	-0.196305	0.273877
C152	C	0.225924	0.303695	0.773877
C153	C	-0.274075	-0.243221	0.273870
C154	C	0.225925	0.256779	0.773870
C155	C	-0.245299	-0.266677	0.245193
C156	C	0.254701	0.233323	0.745193
C157	C	-0.216526	-0.243219	0.216524
C158	C	0.283474	0.256781	0.716524
C159	C	-0.158971	-0.196303	0.159184
C160	C	0.341029	0.303697	0.659184
C161	C	-0.158969	-0.243224	0.159183
C162	C	0.341031	0.256776	0.659183
C163	C	-0.187745	-0.266683	0.187855
C164	C	0.312255	0.233317	0.687855
C165	C	-0.187749	-0.313591	0.187840
C166	C	0.312251	0.186409	0.687840
N167	N	-0.216520	-0.337052	0.216513
N168	N	0.283480	0.162948	0.716513
C169	C	-0.245295	-0.313595	0.245189
C170	C	0.254705	0.186405	0.745189
C171	C	-0.187776	0.113358	0.187887
C172	C	0.312224	0.613358	0.687887
C173	C	-0.187780	0.160276	0.187891
C174	C	0.312220	0.660276	0.687891
C175	C	-0.245329	0.160272	0.245242
C176	C	0.254671	0.660272	0.745242
C177	C	-0.245327	0.113353	0.245236
C178	C	0.254673	0.613353	0.745236
C179	C	-0.216547	0.089897	0.216560
C180	C	0.283453	0.589897	0.716560
C181	C	-0.245290	-0.412121	0.245172
C182	C	0.254710	0.087879	0.745172
C183	C	-0.245287	-0.459041	0.245161
C184	C	0.254713	0.040959	0.745161
C185	C	-0.187736	-0.459032	0.187812
C186	C	0.312264	0.040968	0.687812
C187	C	-0.187740	-0.412117	0.187821
C188	C	0.312260	0.087883	0.687821
C189	C	-0.216519	-0.388662	0.216505
C190	C	0.283481	0.111338	0.716505
O191	O	-0.163299	-0.337891	0.163455
O192	O	0.336701	0.162109	0.663455
O193	O	-0.269759	-0.337865	0.269577
O194	O	0.230241	0.162135	0.769577
C195	C	-0.245304	-0.125931	0.245214
C196	C	0.254696	0.374069	0.745214
C197	C	-0.216531	-0.102472	0.216545
C198	C	0.283469	0.397528	0.716545
C199	C	-0.187755	-0.125929	0.187868
C200	C	0.312245	0.374071	0.687868
C201	C	-0.216535	-0.055554	0.216548
C202	C	0.283465	0.444446	0.716548
C203	C	-0.245310	-0.032098	0.245225
C204	C	0.254690	0.467902	0.745225
C205	C	-0.274082	-0.055559	0.273898
C206	C	0.225918	0.444441	0.773898
C207	C	-0.274080	-0.102474	0.273891
C208	C	0.225920	0.397526	0.773891
C209	C	-0.158984	-0.102468	0.159196
C210	C	0.341016	0.397532	0.659196
C211	C	-0.158989	-0.055552	0.159205
C212	C	0.341011	0.444448	0.659205
C213	C	-0.187764	-0.032096	0.187881
C214	C	0.312236	0.467904	0.687881
C215	C	-0.216499	-0.649168	0.099798
C216	C	0.283501	-0.149168	0.599798
C217	C	-0.216374	-0.649250	0.049864
C218	C	0.283626	-0.149250	0.549864
C219	C	-0.187718	-0.677955	0.693300
C220	C	0.312282	-0.177955	1.193300
C221	C	-0.187680	-0.677978	0.880973
C222	C	0.312320	-0.177978	1.380973
O223	O	-0.163232	-0.702417	0.905257
O224	O	0.336768	-0.202417	1.405257
N225	N	-0.216402	-0.649231	0.904419
N226	N	0.283598	-0.149231	1.404419
C227	C	-0.245133	-0.620475	0.880943
C228	C	0.254867	-0.120475	1.380943
O229	O	-0.269559	-0.596022	0.905192
O230	O	0.230441	-0.096022	1.405192
C231	C	-0.245169	-0.620451	0.693271
C232	C	0.254831	-0.120451	1.193271
C233	C	-0.216448	-0.649202	0.669828
C234	C	0.283552	-0.149202	1.169828
C235	C	-0.158999	-0.706704	0.669856
C236	C	0.341001	-0.206704	1.169856
C237	C	-0.159011	-0.706700	0.622941
C238	C	0.340989	-0.206700	1.122941
C239	C	-0.187741	-0.677947	0.599469
C240	C	0.312259	-0.177947	1.099469
C241	C	-0.216460	-0.649198	0.622912
C242	C	0.283540	-0.149198	1.122912
C243	C	-0.273898	-0.591693	0.669797
C244	C	0.226102	-0.091693	1.169797
C245	C	-0.273903	-0.591689	0.622876
C246	C	0.226097	-0.091689	1.122876
C247	C	-0.245183	-0.620440	0.599432
C248	C	0.254817	-0.120440	1.099432
C249	C	-0.245202	-0.620441	0.552525
C250	C	0.254798	-0.120441	1.052525
N251	N	-0.216480	-0.649188	0.529079
N252	N	0.283520	-0.149188	1.029079
C253	C	-0.187749	-0.677941	0.552551
C254	C	0.312251	-0.177941	1.052551
C255	C	-0.245113	-0.620491	0.979474
C256	C	0.254887	-0.120491	1.479474
C257	C	-0.245105	-0.620497	1.026392
C258	C	0.254895	-0.120497	1.526392
C259	C	-0.187650	-0.677999	1.026418
C260	C	0.312350	-0.177999	1.526418
C261	C	-0.187661	-0.677994	0.979499
C262	C	0.312339	-0.177994	1.479499
C263	C	-0.216391	-0.649237	0.956028
C264	C	0.283609	-0.149237	1.456028
C265	C	-0.187776	-0.677930	0.454025
C266	C	0.312224	-0.177930	0.954025
C267	C	-0.187792	-0.677925	0.407105
C268	C	0.312208	-0.177925	0.907105
C269	C	-0.245244	-0.620421	0.407083
C270	C	0.254756	-0.120421	0.907083
C271	C	-0.245230	-0.620428	0.453999
C272	C	0.254770	-0.120428	0.953999
C273	C	-0.216493	-0.649184	0.477469
C274	C	0.283507	-0.149184	0.977469
O275	O	-0.269633	-0.596011	0.528212
O276	O	0.230367	-0.096011	1.028212
O277	O	-0.163320	-0.702383	0.528294
O278	O	0.336680	-0.202383	1.028294
C279	C	-0.187706	-0.677959	0.740215
C280	C	0.312294	-0.177959	1.240215
C281	C	-0.216425	-0.649211	0.763659
C282	C	0.283575	-0.149211	1.263659
C283	C	-0.245155	-0.620458	0.740187
C284	C	0.254845	-0.120458	1.240187
C285	C	-0.216417	-0.649217	0.810577
C286	C	0.283583	-0.149217	1.310577
C287	C	-0.187686	-0.677970	0.834049
C288	C	0.312314	-0.177970	1.334049
C289	C	-0.158964	-0.706717	0.810603
C290	C	0.341036	-0.206717	1.310603
C291	C	-0.158976	-0.706712	0.763687
C292	C	0.341024	-0.206712	1.263687
C293	C	-0.273877	-0.591711	0.763633
C294	C	0.226123	-0.091711	1.263633
C295	C	-0.273864	-0.591718	0.810548
C296	C	0.226136	-0.091718	1.310548
C297	C	-0.245133	-0.620471	0.834020
C298	C	0.254867	-0.120471	1.334020
H299	H	-0.472582	-0.701208	0.268692
H300	H	0.027418	-0.201208	0.768692
O301	O	-0.692204	-0.563808	0.131067
O302	O	-0.192204	-0.063808	0.631067
C303	C	-0.687313	-0.506864	0.073998
C304	C	-0.187313	-0.006864	0.573998
C305	C	-0.661496	-0.538469	0.105636
C306	C	-0.161496	-0.038469	0.605636
H307	H	-0.662496	-0.486376	0.053422
H308	H	-0.162496	0.013624	0.553422
H309	H	-0.709270	-0.483333	0.094581
H310	H	-0.209270	0.016667	0.594581
H311	H	-0.709289	-0.527512	0.050547
H312	H	-0.209289	-0.027512	0.550547
H313	H	-0.639495	-0.517858	0.129093
H314	H	-0.139495	-0.017858	0.629093
H315	H	-0.639566	-0.562002	0.085026
H316	H	-0.139566	-0.062002	0.585026
O317	O	-0.476483	-0.592501	0.159856
O318	O	0.023517	-0.092501	0.659856
C319	C	-0.529481	-0.531843	0.153758
C320	C	-0.029481	-0.031843	0.653758
C321	C	-0.503611	-0.563425	0.185374
C322	C	-0.003611	-0.063425	0.685374
H323	H	-0.551414	-0.508322	0.174377
H324	H	-0.051414	-0.008322	0.674377
H325	H	-0.551478	-0.552466	0.130302
H326	H	-0.051478	-0.052466	0.630302
H327	H	-0.504675	-0.511339	0.133184
H328	H	-0.004675	-0.011339	0.633184
H329	H	-0.528385	-0.583936	0.205977
H330	H	-0.028385	-0.083936	0.705977
H331	H	-0.481607	-0.542777	0.208800
H332	H	0.018393	-0.042777	0.708800
O333	O	-0.691994	-0.734466	0.302065
O334	O	-0.191994	-0.234466	0.802065
C335	C	-0.706296	-0.756216	0.378510
C336	C	-0.206296	-0.256216	0.878510
C337	C	-0.680564	-0.724620	0.346845
C338	C	-0.180564	-0.224620	0.846845
H339	H	-0.697071	-0.748261	0.414722
H340	H	-0.197071	-0.248261	0.914722
H341	H	-0.697031	-0.792449	0.370692
H342	H	-0.197031	-0.292449	0.870692
H343	H	-0.743865	-0.751310	0.373557
H344	H	-0.243865	-0.251310	0.873557
H345	H	-0.642989	-0.729486	0.351781
H346	H	-0.142989	-0.229486	0.851781
H347	H	-0.689866	-0.688399	0.354672
H348	H	-0.189866	-0.188399	0.854672
O349	O	-0.131020	-0.032713	0.131408
O350	O	0.368980	0.467287	0.631408
C351	C	-0.070347	0.020218	0.125480
C352	C	0.429653	0.520218	0.625480
C353	C	-0.101997	-0.005612	0.157008
C354	C	0.398003	0.494388	0.657008
H355	H	-0.046868	0.042128	0.146165
H356	H	0.453132	0.542128	0.646165
H357	H	-0.090920	0.042234	0.101962
H358	H	0.409080	0.542234	0.601962
H359	H	-0.049802	-0.004614	0.104969
H360	H	0.450198	0.495386	0.604969
H361	H	-0.122549	0.019188	0.177547
H362	H	0.377451	0.519188	0.677547
H363	H	-0.081398	-0.027634	0.180496
H364	H	0.418602	0.472366	0.680496
H365	H	-0.297294	-0.568265	0.603768
H366	H	0.202706	-0.068265	1.103768
O367	O	-0.159761	-0.389281	0.160034
O368	O	0.340239	0.110719	0.660034
C369	C	-0.099062	-0.336376	0.154136
C370	C	0.400938	0.163624	0.654136
C371	C	-0.130737	-0.362194	0.185648
C372	C	0.369263	0.137806	0.685648
H373	H	-0.075583	-0.314477	0.174832
H374	H	0.424417	0.185523	0.674832
H375	H	-0.119615	-0.314351	0.130610
H376	H	0.380385	0.185649	0.630610
H377	H	-0.078519	-0.361216	0.133633
H378	H	0.421481	0.138784	0.633633
H379	H	-0.151288	-0.337386	0.206180
H380	H	0.348712	0.162614	0.706180
H381	H	-0.110159	-0.384226	0.209144
H382	H	0.389841	0.115774	0.709144
O383	O	-0.599767	-0.563782	0.131134
O384	O	-0.099767	-0.063782	0.631134
C385	C	-0.546827	-0.503135	0.125015
C386	C	-0.046827	-0.003135	0.625015
C387	C	-0.572590	-0.534748	0.156639
C388	C	-0.072590	-0.034748	0.656639
H389	H	-0.524841	-0.479660	0.145623
H390	H	-0.024841	0.020340	0.645623
H391	H	-0.571663	-0.482588	0.104472
H392	H	-0.071663	0.017412	0.604472
H393	H	-0.524880	-0.523780	0.101533
H394	H	-0.024880	-0.023780	0.601533
H395	H	-0.594538	-0.514138	0.180149
H396	H	-0.094538	-0.014138	0.680149
H397	H	-0.547730	-0.555297	0.177151
H398	H	-0.047730	-0.055297	0.677151
H399	H	-0.164352	0.179372	0.164539
H400	H	0.335648	0.679372	0.664539
O401	O	-1.048798	-0.592606	0.159932
O402	O	-0.548798	-0.092606	0.659932
C403	C	-1.063195	-0.516205	0.138026
C404	C	-0.563195	-0.016205	0.638026
C405	C	-1.037355	-0.547809	0.169647
C406	C	-0.537355	-0.047809	0.669647
H407	H	-1.053946	-0.479981	0.145863
H408	H	-0.553946	0.020019	0.645863
H409	H	-1.100758	-0.521103	0.142969
H410	H	-0.600758	-0.021103	0.642969
H411	H	-1.053987	-0.524140	0.101812
H412	H	-0.553987	-0.024140	0.601812
H413	H	-1.046526	-0.539893	0.205873
H414	H	-0.546526	-0.039893	0.705873
H415	H	-0.999799	-0.542905	0.164666
H416	H	-0.499799	-0.042905	0.664666
H417	H	-0.387614	-0.597012	0.164300
H418	H	0.112386	-0.097012	0.664300
H419	H	-0.297274	-0.568297	0.744526
H420	H	0.202726	-0.068297	1.244526
O421	O	-0.159847	-0.705869	0.384402
O422	O	0.340153	-0.205869	0.884402
C423	C	-0.102879	-0.762922	0.389389
C424	C	0.397121	-0.262922	0.889389
C425	C	-0.134494	-0.731293	0.415153
C426	C	0.365506	-0.231293	0.915153
H427	H	-0.082379	-0.783492	0.414239
H428	H	0.417621	-0.283492	0.914239
H429	H	-0.079359	-0.742333	0.367434
H430	H	0.420641	-0.242333	0.867434
H431	H	-0.123520	-0.786378	0.367414
H432	H	0.376480	-0.286378	0.867414
H433	H	-0.113890	-0.707830	0.437153
H434	H	0.386110	-0.207830	0.937153
H435	H	-0.158015	-0.751910	0.437079
H436	H	0.341985	-0.251910	0.937079
H437	H	-0.164339	0.094265	0.164534
H438	H	0.335661	0.594265	0.664534
H439	H	-0.268621	-0.597020	0.473087
H440	H	0.231379	-0.097020	0.973087
O441	O	-0.740288	-0.734544	0.301952
O442	O	-0.240288	-0.234544	0.801952
C443	C	-0.687253	-0.795167	0.308066
C444	C	-0.187253	-0.295167	0.808066
C445	C	-0.713097	-0.763569	0.276444
C446	C	-0.213097	-0.263569	0.776444
H447	H	-0.665255	-0.818636	0.287456
H448	H	-0.165255	-0.318636	0.787456
H449	H	-0.712036	-0.815723	0.328616
H450	H	-0.212036	-0.315723	0.828616
H451	H	-0.665310	-0.774511	0.331542
H452	H	-0.165310	-0.274511	0.831542
H453	H	-0.735040	-0.784190	0.252941
H454	H	-0.235040	-0.284190	0.752941
H455	H	-0.688290	-0.743012	0.255925
H456	H	-0.188290	-0.243012	0.755925
O457	O	-0.599514	-0.734400	0.302013
O458	O	-0.099514	-0.234400	0.802013
C459	C	-0.546536	-0.740386	0.362696
C460	C	-0.046536	-0.240386	0.862696
C461	C	-0.572395	-0.708828	0.331045
C462	C	-0.072395	-0.208828	0.831045
H463	H	-0.524611	-0.719723	0.386183
H464	H	-0.024611	-0.219723	0.886183
H465	H	-0.524532	-0.763883	0.342124
H466	H	-0.024532	-0.263883	0.842124
H467	H	-0.571349	-0.760917	0.383233
H468	H	-0.071349	-0.260917	0.883233
H469	H	-0.547614	-0.688268	0.310501
H470	H	-0.047614	-0.188268	0.810501
H471	H	-0.594405	-0.685360	0.351643
H472	H	-0.094405	-0.185360	0.851643
H473	H	-0.297513	-0.036452	0.297246
H474	H	0.202487	0.463548	0.797246
H475	H	-0.829121	-0.730005	0.297506
H476	H	-0.329121	-0.230005	0.797506
O477	O	-0.832960	-0.563854	0.131088
O478	O	-0.332960	-0.063854	0.631088
C479	C	-0.828076	-0.506912	0.074017
C480	C	-0.328076	-0.006912	0.574017
C481	C	-0.802255	-0.538515	0.105653
C482	C	-0.302255	-0.038515	0.605653
H483	H	-0.803262	-0.486424	0.053437
H484	H	-0.303262	0.013576	0.553437
H485	H	-0.850032	-0.483380	0.094601
H486	H	-0.350032	0.016620	0.594601
H487	H	-0.850055	-0.527561	0.050569
H488	H	-0.350055	-0.027561	0.550569
H489	H	-0.780252	-0.517902	0.129107
H490	H	-0.280252	-0.017902	0.629107
H491	H	-0.780327	-0.562048	0.085041
H492	H	-0.280327	-0.062048	0.585041
O493	O	-0.301849	-0.563828	0.692579
O494	O	0.198151	-0.063828	1.192579
C495	C	-0.362488	-0.557738	0.745537
C496	C	0.137512	-0.057738	1.245537
C497	C	-0.330864	-0.589347	0.719759
C498	C	0.169136	-0.089347	1.219759
H499	H	-0.385949	-0.578356	0.767525
H500	H	0.114051	-0.078356	1.267525
H501	H	-0.383051	-0.537199	0.720710
H502	H	0.116949	-0.037199	1.220710
H503	H	-0.341851	-0.534250	0.767482
H504	H	0.158149	-0.034250	1.267482
H505	H	-0.351467	-0.612862	0.697814
H506	H	0.148533	-0.112862	1.197814
H507	H	-0.310300	-0.609854	0.744610
H508	H	0.189700	-0.109854	1.244610
H509	H	-0.164309	-0.478139	0.164463
H510	H	0.335691	0.021861	0.664463
H511	H	-0.744228	-0.568387	0.135607
H512	H	-0.244228	-0.068387	0.635607
H513	H	-0.268637	-0.597013	0.387964
H514	H	0.231363	-0.097013	0.887964
O515	O	-0.273071	-0.592593	1.049111
O516	O	0.226929	-0.092593	1.549111
C517	C	-0.349486	-0.570751	1.063450
C518	C	0.150514	-0.070751	1.563450
C519	C	-0.317866	-0.602376	1.037688
C520	C	0.182134	-0.102376	1.537688
H521	H	-0.385710	-0.578655	1.054231
H522	H	0.114290	-0.078655	1.554231
H523	H	-0.341629	-0.534524	1.054206
H524	H	0.158371	-0.034524	1.554206
H525	H	-0.344528	-0.575682	1.101015
H526	H	0.155472	-0.075682	1.601015
H527	H	-0.322807	-0.597485	1.000118
H528	H	0.177193	-0.097485	1.500118
H529	H	-0.325731	-0.638592	1.046970
H530	H	0.174269	-0.138592	1.546970
O531	O	-0.273255	-0.481759	0.273058
O532	O	0.226745	0.018241	0.773058
C533	C	-0.330354	-0.476803	0.329924
C534	C	0.169646	0.023197	0.829924
C535	C	-0.298699	-0.451022	0.298362
C536	C	0.201301	0.048978	0.798362
H537	H	-0.350941	-0.451963	0.350384
H538	H	0.149059	0.048037	0.850384
H539	H	-0.309786	-0.498778	0.353483
H540	H	0.190214	0.001222	0.853483
H541	H	-0.353795	-0.498758	0.309243
H542	H	0.146205	0.001242	0.809243
H543	H	-0.275251	-0.429042	0.319007
H544	H	0.224749	0.070958	0.819007
H545	H	-0.319295	-0.429074	0.274802
H546	H	0.180705	0.070926	0.774802
H547	H	-0.135601	-0.730118	0.688962
H548	H	0.364399	-0.230118	1.188962
O549	O	-0.956243	-0.705861	0.273324
O550	O	-0.456243	-0.205861	0.773324
C551	C	-0.961126	-0.762834	0.330365
C552	C	-0.461126	-0.262834	0.830365
C553	C	-0.986948	-0.731256	0.298704
C554	C	-0.486948	-0.231256	0.798704
H555	H	-0.985940	-0.783380	0.350886
H556	H	-0.485940	-0.283380	0.850886
H557	H	-0.939179	-0.742206	0.353863
H558	H	-0.439179	-0.242206	0.853863
H559	H	-0.939139	-0.786315	0.309759
H560	H	-0.439139	-0.286315	0.809759
H561	H	-1.008959	-0.707768	0.319273
H562	H	-0.508959	-0.207768	0.819273
H563	H	-1.008867	-0.751911	0.275205
H564	H	-0.508867	-0.251911	0.775205
H565	H	-0.268723	-0.393030	0.268530
H566	H	0.231277	0.106970	0.768530
H567	H	-0.297509	-0.177212	0.297231
H568	H	0.202491	0.322788	0.797231
O569	O	-0.131017	-0.125180	0.131295
O570	O	0.368983	0.374820	0.631295
C571	C	-0.073920	-0.120213	0.074428
C572	C	0.426080	0.379787	0.574428
C573	C	-0.105578	-0.094438	0.106000
C574	C	0.394422	0.405562	0.606000
H575	H	-0.053337	-0.095369	0.053976
H576	H	0.446663	0.404631	0.553976
H577	H	-0.094487	-0.142143	0.050862
H578	H	0.405513	0.357857	0.550862
H579	H	-0.050476	-0.142214	0.095100
H580	H	0.449524	0.357786	0.595100
H581	H	-0.129028	-0.072413	0.085365
H582	H	0.370972	0.427587	0.585365
H583	H	-0.084983	-0.072536	0.129568
H584	H	0.415017	0.427464	0.629568
O585	O	-0.301830	-0.563809	0.833267
O586	O	0.198170	-0.063809	1.333267
C587	C	-0.378242	-0.541959	0.847610
C588	C	0.121758	-0.041959	1.347610
C589	C	-0.346626	-0.573589	0.821848
C590	C	0.153374	-0.073589	1.321848
H591	H	-0.414467	-0.549861	0.838395
H592	H	0.085533	-0.049861	1.338395
H593	H	-0.370382	-0.505733	0.838362
H594	H	0.129618	-0.005733	1.338362
H595	H	-0.373280	-0.546887	0.885174
H596	H	0.126720	-0.046887	1.385174
H597	H	-0.351570	-0.568701	0.784278
H598	H	0.148430	-0.068701	1.284278
H599	H	-0.354494	-0.609803	0.831134
H600	H	0.145506	-0.109803	1.331134
H601	H	-0.135588	-0.730125	0.744604
H602	H	0.364412	-0.230125	1.244604
H603	H	-0.135573	-0.730130	0.829722
H604	H	0.364427	-0.230130	1.329722
O605	O	-0.159814	-0.705800	0.476839
O606	O	0.340186	-0.205800	0.976839
C607	C	-0.099161	-0.711904	0.529837
C608	C	0.400839	-0.211904	1.029837
C609	C	-0.130789	-0.680288	0.504021
C610	C	0.369211	-0.180288	1.004021
H611	H	-0.075692	-0.691291	0.551828
H612	H	0.424308	-0.191291	1.051828
H613	H	-0.078607	-0.732441	0.505036
H614	H	0.421393	-0.232441	1.005036
H615	H	-0.119794	-0.735393	0.551785
H616	H	0.380206	-0.235393	1.051785
H617	H	-0.110191	-0.656772	0.482073
H618	H	0.389809	-0.156772	0.982073
H619	H	-0.151344	-0.659783	0.528847
H620	H	0.348656	-0.159783	1.028847
H621	H	-0.135623	-0.730112	0.603857
H622	H	0.364377	-0.230112	1.103857
H623	H	-0.268759	0.094256	0.268583
H624	H	0.231241	0.594256	0.768583
O625	O	-0.302039	-0.265936	0.301767
O626	O	0.197961	0.234064	0.801767
C627	C	-0.359136	-0.260971	0.358635
C628	C	0.140864	0.239029	0.858635
C629	C	-0.327481	-0.235195	0.327069
C630	C	0.172519	0.264805	0.827069
H631	H	-0.379721	-0.236128	0.379093
H632	H	0.120279	0.263872	0.879093
H633	H	-0.338566	-0.282944	0.382196
H634	H	0.161434	0.217056	0.882196
H635	H	-0.382578	-0.282929	0.337959
H636	H	0.117422	0.217071	0.837959
H637	H	-0.304033	-0.213213	0.347709
H638	H	0.195967	0.286787	0.847709
H639	H	-0.348078	-0.213250	0.303507
H640	H	0.151922	0.286750	0.803507
O641	O	-0.273238	0.183131	0.273087
O642	O	0.226762	0.683131	0.773087
C643	C	-0.298755	0.255415	0.298489
C644	C	0.201245	0.755415	0.798489
C645	C	-0.267124	0.229581	0.266940
C646	C	0.232876	0.729581	0.766940
H647	H	-0.293830	0.292974	0.293524
H648	H	0.206170	0.792974	0.793524
H649	H	-0.290915	0.246205	0.334739
H650	H	0.209085	0.746205	0.834739
H651	H	-0.334965	0.246188	0.290540
H652	H	0.165035	0.746188	0.790540
H653	H	-0.230903	0.238795	0.274848
H654	H	0.269097	0.738795	0.774848
H655	H	-0.275003	0.238793	0.230700
H656	H	0.224997	0.738793	0.730700
H657	H	-0.164274	-0.701406	0.960415
H658	H	0.335726	-0.201406	1.460415
O659	O	-0.130999	-0.265939	0.131281
O660	O	0.369001	0.234061	0.631281
C661	C	-0.073900	-0.260979	0.074417
C662	C	0.426100	0.239021	0.574417
C663	C	-0.105557	-0.235200	0.105986
C664	C	0.394443	0.264800	0.605986
H665	H	-0.053315	-0.236138	0.053964
H666	H	0.446685	0.263862	0.553964
H667	H	-0.094468	-0.282908	0.050851
H668	H	0.405532	0.217092	0.550851
H669	H	-0.050458	-0.282980	0.095090
H670	H	0.449542	0.217020	0.595090
H671	H	-0.129005	-0.213174	0.085349
H672	H	0.370995	0.286826	0.585349
H673	H	-0.084961	-0.213299	0.129553
H674	H	0.415039	0.286701	0.629553
H675	H	-0.135539	-0.177211	0.135836
H676	H	0.364461	0.322789	0.635836
O677	O	-0.302046	-0.125190	0.301787
O678	O	0.197954	0.374810	0.801787
C679	C	-0.359145	-0.120225	0.358653
C680	C	0.140855	0.379775	0.858653
C681	C	-0.327488	-0.094448	0.327088
C682	C	0.172512	0.405552	0.827088
H683	H	-0.379730	-0.095382	0.379110
H684	H	0.120270	0.404618	0.879110
H685	H	-0.338577	-0.142198	0.382214
H686	H	0.161423	0.357802	0.882214
H687	H	-0.382586	-0.142182	0.337975
H688	H	0.117414	0.357818	0.837975
H689	H	-0.304040	-0.072467	0.347730
H690	H	0.195960	0.427533	0.847730
H691	H	-0.348084	-0.072503	0.303525
H692	H	0.151916	0.427497	0.803525
H693	H	-0.268511	-0.597073	0.960368
H694	H	0.231489	-0.097073	1.460368
O695	O	-0.383798	-0.705652	0.273250
O696	O	0.116202	-0.205652	0.773250
C697	C	-0.369404	-0.727419	0.349690
C698	C	0.130596	-0.227419	0.849690
C699	C	-0.395248	-0.695859	0.318029
C700	C	0.104752	-0.195859	0.818029
H701	H	-0.378659	-0.719518	0.385900
H702	H	0.121341	-0.219518	0.885900
H703	H	-0.331842	-0.722479	0.344784
H704	H	0.168158	-0.222479	0.844784
H705	H	-0.378603	-0.763649	0.341819
H706	H	0.121397	-0.263649	0.841819
H707	H	-0.386087	-0.659617	0.325879
H708	H	0.113913	-0.159617	0.825879
H709	H	-0.432804	-0.700837	0.322940
H710	H	0.067196	-0.200837	0.822940
O711	O	-1.048737	-0.705826	0.273281
O712	O	-0.548737	-0.205826	0.773281
C713	C	-1.120987	-0.731301	0.298764
C714	C	-0.620987	-0.231301	0.798764
C715	C	-1.095195	-0.699735	0.267117
C716	C	-0.595195	-0.199735	0.767117
H717	H	-1.158553	-0.726394	0.293785
H718	H	-0.658553	-0.226394	0.793785
H719	H	-1.111784	-0.723378	0.334989
H720	H	-0.611784	-0.223378	0.834989
H721	H	-1.111715	-0.767527	0.290925
H722	H	-0.611715	-0.267527	0.790925
H723	H	-1.104453	-0.663499	0.274916
H724	H	-0.604453	-0.163499	0.774916
H725	H	-1.104401	-0.707696	0.230902
H726	H	-0.604401	-0.207696	0.730902
O727	O	-0.159752	-0.705884	1.049293
O728	O	0.340248	-0.205884	1.549293
C729	C	-0.134291	-0.731379	1.121590
C730	C	0.365709	-0.231379	1.621590
C731	C	-0.165904	-0.699776	1.095739
C732	C	0.334096	-0.199776	1.595739
H733	H	-0.139261	-0.726458	1.159146
H734	H	0.360739	-0.226458	1.659146
H735	H	-0.098058	-0.723505	1.112407
H736	H	0.401942	-0.223505	1.612407
H737	H	-0.142174	-0.767596	1.112351
H738	H	0.357826	-0.267596	1.612351
H739	H	-0.158062	-0.663549	1.104964
H740	H	0.341938	-0.163549	1.604964
H741	H	-0.202128	-0.707688	1.104925
H742	H	0.297872	-0.207688	1.604925
H743	H	-0.960016	-0.597153	0.164394
H744	H	-0.460016	-0.097153	0.664394
