data_functionalizedCrystal
_audit_creation_method	'MofGen! by Chris Wilmer'
_symmetry_space_group_name_H-M	'P1'
_symmetry_Int_Tables_number	1
_symmetry_cell_setting	triclinic
loop_
_symmetry_equiv_pos_as_xyz
  x,y,z
_cell_length_a	17.666332
_cell_length_b	12.837943
_cell_length_c	19.188924
_cell_angle_alpha	91.014548
_cell_angle_beta	90.008552
_cell_angle_gamma	89.991984
loop_
_atom_site_label
_atom_site_type_symbol
_atom_site_fract_x
_atom_site_fract_y
_atom_site_fract_z
O1	O	0.062942	-1.374632	0.181454
O2	O	0.562942	-0.874632	0.681454
O3	O	0.062946	-1.072867	0.172490
O4	O	0.562946	-0.572867	0.672490
O5	O	0.062935	-1.232461	0.075913
O6	O	0.562935	-0.732461	0.575913
O7	O	0.062953	-1.215037	0.278030
O8	O	0.562953	-0.715037	0.778030
O9	O	-0.062962	-1.232433	0.075906
O10	O	0.437038	-0.732433	0.575906
O11	O	-0.062950	-1.072839	0.172483
O12	O	0.437050	-0.572839	0.672483
O13	O	-0.062955	-1.374604	0.181446
O14	O	0.437045	-0.874604	0.681446
Cu15	Cu	-0.074448	-1.223719	0.176964
Cu16	Cu	0.425552	-0.723719	0.676964
Cu17	Cu	0.074440	-1.223752	0.176973
Cu18	Cu	0.574440	-0.723752	0.676973
O19	O	-0.062943	-1.215009	0.278023
O20	O	0.437057	-0.715009	0.778023
C21	C	-0.000002	-1.034246	0.169458
C22	C	0.499998	-0.534246	0.669458
C23	C	-0.000000	-0.919210	0.160428
C24	C	0.500000	-0.419210	0.660428
N25	N	-0.179167	-1.223703	0.176957
N26	N	0.320833	-0.723703	0.676957
C27	C	-0.000014	-1.231884	0.049860
C28	C	0.499986	-0.731884	0.549860
C29	C	-0.000016	-1.230194	-0.027761
C30	C	0.499984	-0.730194	0.472239
C31	C	-0.218782	-1.294394	0.134218
C32	C	0.281218	-0.794394	0.634218
C33	C	-0.298030	-1.294400	0.134215
C34	C	0.201970	-0.794400	0.634215
C35	C	-0.337659	-1.223725	0.176964
C36	C	0.162341	-0.723725	0.676964
C37	C	-0.298035	-1.153021	0.219706
C38	C	0.201965	-0.653021	0.719706
C39	C	-0.218789	-1.153010	0.219703
C40	C	0.281211	-0.653010	0.719703
N41	N	-0.462073	-1.210251	0.237848
N42	N	0.037927	-0.710251	0.737848
N43	N	-0.537353	-1.210268	0.237849
N44	N	-0.037353	-0.710268	0.737849
C45	C	-0.576423	-1.223752	0.176976
C46	C	-0.076423	-0.723752	0.676976
N47	N	-0.537370	-1.237240	0.116100
N48	N	-0.037370	-0.737240	0.616100
N49	N	-0.462082	-1.237228	0.116100
N50	N	0.037918	-0.737228	0.616100
C51	C	-0.423589	-1.223729	0.176972
C52	C	0.076411	-0.723729	0.676972
C53	C	-0.701967	-1.294454	0.134229
C54	C	-0.201967	-0.794454	0.634229
C55	C	-0.781217	-1.294453	0.134225
C56	C	-0.281217	-0.794453	0.634225
C57	C	-0.781221	-1.153078	0.219723
C58	C	-0.281221	-0.653078	0.719723
C59	C	-0.701973	-1.153074	0.219721
C60	C	-0.201973	-0.653074	0.719721
C61	C	-0.662351	-1.223768	0.176975
C62	C	-0.162351	-0.723768	0.676975
N63	N	0.179159	-1.223776	0.176974
N64	N	0.679159	-0.723776	0.676974
C65	C	-0.000005	-1.413224	0.184478
C66	C	0.499995	-0.913224	0.684478
C67	C	-0.000001	-1.528260	0.193509
C68	C	0.499999	-1.028260	0.693509
C69	C	-0.000002	-0.677756	0.268995
C70	C	0.499998	-0.177756	0.768995
C71	C	-0.000001	-0.569669	0.260513
C72	C	0.499999	-0.069669	0.760513
C73	C	-0.000004	-0.594947	0.134982
C74	C	0.499996	-0.094947	0.634982
C75	C	-0.000005	-0.703034	0.143464
C76	C	0.499995	-0.203034	0.643464
C77	C	-0.000002	-0.744434	0.210473
C78	C	0.499998	-0.244434	0.710473
C79	C	0.000003	-0.852523	0.218954
C80	C	0.500003	-0.352523	0.718954
C81	C	-0.000006	-0.877800	0.093424
C82	C	0.499994	-0.377800	0.593424
C83	C	-0.000005	-0.769713	0.084941
C84	C	0.499995	-0.269713	0.584941
C85	C	0.068611	-1.229420	-0.064210
C86	C	0.568611	-0.729420	0.435790
C87	C	0.068616	-1.227817	-0.137142
C88	C	0.568616	-0.727817	0.362858
C89	C	-0.000008	-1.227009	-0.173624
C90	C	0.499992	-0.727009	0.326376
C91	C	-0.068644	-1.227777	-0.137166
C92	C	0.431356	-0.727777	0.362834
C93	C	-0.068648	-1.229370	-0.064234
C94	C	0.431352	-0.729370	0.435766
N95	N	-0.051085	-1.283470	-0.289417
N96	N	0.448915	-0.783470	0.210583
N97	N	-0.051076	-1.281960	-0.358699
N98	N	0.448924	-0.781960	0.141301
C99	C	-0.000001	-1.222209	-0.393362
C100	C	0.499999	-0.722209	0.106638
N101	N	0.051078	-1.164039	-0.356127
N102	N	0.551078	-0.664039	0.143873
N103	N	0.051071	-1.165554	-0.286839
N104	N	0.551071	-0.665554	0.213161
C105	C	-0.000012	-1.225282	-0.252706
C106	C	0.499988	-0.725282	0.247294
C107	C	0.068637	-1.219696	-0.508893
C108	C	0.568637	-0.719696	-0.008893
C109	C	0.068640	-1.218087	-0.581827
C110	C	0.568640	-0.718087	-0.081827
C111	C	-0.068623	-1.218057	-0.581849
C112	C	0.431377	-0.718057	-0.081849
C113	C	-0.068624	-1.219655	-0.508916
C114	C	0.431376	-0.719655	-0.008916
C115	C	0.000008	-1.220480	-0.472443
C116	C	0.500008	-0.720480	0.027557
C117	C	0.000007	-1.215586	0.304076
C118	C	0.500007	-0.715586	0.804076
C119	C	0.000014	-1.217277	0.381697
C120	C	0.500014	-0.717277	0.881697
H121	H	-0.186524	-1.351954	0.099410
H122	H	0.313476	-0.851954	0.599410
H123	H	-0.000016	-0.735989	0.030385
H124	H	0.499984	-0.235989	0.530385
C125	C	-0.677562	-1.091672	0.336484
C126	C	-0.177562	-0.591672	0.836484
C127	C	-0.658424	-1.075379	0.266711
C128	C	-0.158424	-0.575379	0.766711
H129	H	-0.650673	-1.043706	0.365494
H130	H	-0.150673	-0.543706	0.865494
H131	H	-0.730423	-1.081560	0.342597
H132	H	-0.230423	-0.581560	0.842597
H133	H	-0.664556	-1.160798	0.348682
H134	H	-0.164556	-0.660798	0.848682
H135	H	-0.671435	-1.006255	0.254512
H136	H	-0.171435	-0.506255	0.754512
H137	H	-0.605552	-1.085483	0.260595
H138	H	-0.105552	-0.585483	0.760595
C139	C	-0.322413	-1.091600	0.336469
C140	C	0.177587	-0.591600	0.836469
C141	C	-0.341590	-1.075329	0.266697
C142	C	0.158410	-0.575329	0.766697
H143	H	-0.349298	-1.043626	0.365477
H144	H	0.150702	-0.543626	0.865477
H145	H	-0.335391	-1.160715	0.348677
H146	H	0.164609	-0.660715	0.848677
H147	H	-0.269545	-1.081476	0.342573
H148	H	0.230455	-0.581476	0.842573
H149	H	-0.394457	-1.085461	0.260592
H150	H	0.105543	-0.585461	0.760592
H151	H	-0.328618	-1.006198	0.254486
H152	H	0.171382	-0.506198	0.754486
H153	H	0.124526	-1.217451	-0.611502
H154	H	0.624526	-0.717451	-0.111502
C155	C	-0.204297	-1.218182	-0.574541
C156	C	0.295703	-0.718182	-0.074541
C157	C	-0.144058	-1.217163	-0.621940
C158	C	0.355942	-0.717163	-0.121940
H159	H	-0.250868	-1.217621	-0.599295
H160	H	0.249132	-0.717621	-0.099295
H161	H	-0.201446	-1.279220	-0.547404
H162	H	0.298554	-0.779220	-0.047404
H163	H	-0.201435	-1.158384	-0.544785
H164	H	0.298565	-0.658384	-0.044785
H165	H	-0.146917	-1.276966	-0.651693
H166	H	0.353083	-0.776966	-0.151693
H167	H	-0.146910	-1.156119	-0.649089
H168	H	0.353090	-0.656119	-0.149089
C169	C	-0.000004	-0.816676	0.342183
C170	C	0.499996	-0.316676	0.842183
C171	C	0.000001	-0.898034	0.292609
C172	C	0.500001	-0.398034	0.792609
H173	H	-0.000012	-0.844773	0.387655
H174	H	0.499988	-0.344773	0.887655
H175	H	0.043897	-0.775056	0.336272
H176	H	0.543897	-0.275056	0.836272
H177	H	-0.043910	-0.775035	0.336250
H178	H	0.456090	-0.275035	0.836250
H179	H	0.043909	-0.939671	0.298539
H180	H	0.543909	-0.439671	0.798539
H181	H	-0.043905	-0.939672	0.298523
H182	H	0.456095	-0.439672	0.798523
H183	H	-0.124507	-1.220294	-0.479240
H184	H	0.375493	-0.720294	0.020760
H185	H	-0.000069	-0.561220	0.080426
H186	H	0.499931	-0.061220	0.580426
C187	C	-0.290074	-1.434148	0.049708
C188	C	0.209926	-0.934148	0.549708
C189	C	-0.341586	-1.372106	0.087230
C190	C	0.158414	-0.872106	0.587230
H191	H	-0.316964	-1.482121	0.020704
H192	H	0.183036	-0.982121	0.520704
H193	H	-0.259179	-1.391129	0.021713
H194	H	0.240821	-0.891129	0.521713
H195	H	-0.259151	-1.471284	0.081263
H196	H	0.240849	-0.971284	0.581263
H197	H	-0.372505	-1.334964	0.055675
H198	H	0.127495	-0.834964	0.555675
H199	H	-0.372494	-1.415130	0.115227
H200	H	0.127506	-0.915130	0.615227
H201	H	-0.186534	-1.095443	0.254507
H202	H	0.313466	-0.595443	0.754507
C203	C	-0.204318	-1.227900	-0.129864
C204	C	0.295682	-0.727900	0.370136
C205	C	-0.144078	-1.226888	-0.177263
C206	C	0.355922	-0.726888	0.322737
H207	H	-0.250889	-1.227341	-0.154619
H208	H	0.249111	-0.727341	0.345381
H209	H	-0.201468	-1.288935	-0.102724
H210	H	0.298532	-0.788935	0.397276
H211	H	-0.201456	-1.168099	-0.100111
H212	H	0.298544	-0.668099	0.399889
H213	H	-0.146937	-1.286694	-0.207012
H214	H	0.353063	-0.786694	0.292988
H215	H	-0.146930	-1.165846	-0.204414
H216	H	0.353070	-0.665846	0.295586
H217	H	-0.000002	-0.932102	0.045770
H218	H	0.499998	-0.432102	0.545770
C219	C	0.148261	-1.310618	-0.428814
C220	C	0.648261	-0.810618	0.071186
C221	C	0.144081	-1.220619	-0.468806
C222	C	0.644081	-0.720619	0.031194
H223	H	0.194842	-1.311197	-0.404075
H224	H	0.694842	-0.811197	0.095925
H225	H	0.107401	-1.311299	-0.396660
H226	H	0.607401	-0.811299	0.103340
H227	H	0.145389	-1.370395	-0.458588
H228	H	0.645389	-0.870395	0.041412
H229	H	0.146947	-1.160842	-0.439031
H230	H	0.646947	-0.660842	0.060969
H231	H	0.184953	-1.219929	-0.500963
H232	H	0.684953	-0.719929	-0.000963
H233	H	0.124502	-1.227181	-0.166825
H234	H	0.624502	-0.727181	0.333175
C235	C	0.064722	-0.433465	0.323803
C236	C	0.564722	0.066535	0.823803
C237	C	0.000004	-0.496372	0.324842
C238	C	0.500004	0.003628	0.824842
H239	H	0.064721	-0.388211	0.363517
H240	H	0.564721	0.111789	0.863517
H241	H	0.108616	-0.476167	0.324511
H242	H	0.608616	0.023833	0.824511
H243	H	0.064713	-0.393341	0.282680
H244	H	0.564713	0.106659	0.782680
H245	H	0.000016	-0.536501	0.365962
H246	H	0.500016	-0.036501	0.865962
H247	H	-0.043901	-0.453665	0.324140
H248	H	0.456099	0.046335	0.824140
H249	H	-0.124533	-1.229995	-0.034558
H250	H	0.375467	-0.729995	0.465442
H251	H	0.124496	-1.230089	-0.034517
H252	H	0.624496	-0.730089	0.465483
H253	H	-0.813471	-1.352015	0.099418
H254	H	-0.313471	-0.852015	0.599418
C255	C	-0.677507	-1.355898	0.017477
C256	C	-0.177507	-0.855898	0.517477
C257	C	-0.658377	-1.372146	0.087262
C258	C	-0.158377	-0.872146	0.587262
H259	H	-0.650584	-1.403858	-0.011510
H260	H	-0.150584	-0.903858	0.488490
H261	H	-0.730360	-1.366049	0.011340
H262	H	-0.230360	-0.866049	0.511340
H263	H	-0.664537	-1.286769	0.005272
H264	H	-0.164537	-0.786769	0.505272
H265	H	-0.671351	-1.441273	0.099469
H266	H	-0.171351	-0.941273	0.599469
H267	H	-0.605511	-1.362003	0.093403
H268	H	-0.105511	-0.862003	0.593403
C269	C	-0.805639	-0.973502	0.248704
C270	C	-0.305639	-0.473502	0.748704
C271	C	-0.824773	-1.075386	0.266713
C272	C	-0.324773	-0.575386	0.766713
H273	H	-0.832533	-0.925537	0.277711
H274	H	-0.332533	-0.425537	0.777711
H275	H	-0.752779	-0.963388	0.254823
H276	H	-0.252779	-0.463388	0.754823
H277	H	-0.818641	-0.962481	0.201366
H278	H	-0.318641	-0.462481	0.701366
H279	H	-0.811765	-1.086410	0.314050
H280	H	-0.311765	-0.586410	0.814050
H281	H	-0.877644	-1.085504	0.260599
H282	H	-0.377644	-0.585504	0.760599
H283	H	0.000002	-0.711464	0.323557
H284	H	0.500002	-0.211464	0.823557
