data_functionalizedCrystal
_audit_creation_method	'MofGen! by Chris Wilmer'
_symmetry_space_group_name_H-M	'P1'
_symmetry_Int_Tables_number	1
_symmetry_cell_setting	triclinic
loop_
_symmetry_equiv_pos_as_xyz
  x,y,z
_cell_length_a	16.625548
_cell_length_b	12.645330
_cell_length_c	16.625525
_cell_angle_alpha	89.911590
_cell_angle_beta	89.938871
_cell_angle_gamma	90.018760
loop_
_atom_site_label
_atom_site_type_symbol
_atom_site_fract_x
_atom_site_fract_y
_atom_site_fract_z
Zn1	Zn	1.233030	-0.421336	-0.455933
Zn2	Zn	1.566363	-0.088003	-0.122600
Zn3	Zn	1.899697	0.245331	0.210733
Zn4	Zn	1.232849	-0.598820	-0.321110
Zn5	Zn	1.566182	-0.265487	0.012224
Zn6	Zn	1.899516	0.067846	0.345557
Zn7	Zn	1.098096	-0.421575	-0.321113
Zn8	Zn	1.431430	-0.088241	0.012220
Zn9	Zn	1.764763	0.245092	0.345553
Zn10	Zn	1.098174	-0.598561	-0.455900
Zn11	Zn	1.431507	-0.265228	-0.122567
Zn12	Zn	1.764840	0.068106	0.210767
O13	O	1.165537	-0.510073	-0.388514
O14	O	1.498871	-0.176740	-0.055181
O15	O	1.832204	0.156594	0.278153
O16	O	1.345839	-0.444888	-0.438061
O17	O	1.679172	-0.111555	-0.104728
O18	O	2.012505	0.221779	0.228606
O19	O	1.214866	-0.575517	-0.208277
O20	O	1.548199	-0.242184	0.125056
O21	O	1.881533	0.091150	0.458389
O22	O	1.116039	-0.273196	-0.339013
O23	O	1.449373	0.060138	-0.005680
O24	O	1.782706	0.393471	0.327654
O25	O	1.345706	-0.575285	-0.339007
O26	O	1.679039	-0.241952	-0.005673
O27	O	2.012372	0.091381	0.327660
O28	O	1.215174	-0.273020	-0.438065
O29	O	1.548508	0.060313	-0.104731
O30	O	1.881841	0.393646	0.228602
O31	O	1.115864	-0.445295	-0.208280
O32	O	1.449197	-0.111962	0.125053
O33	O	1.782530	0.221371	0.458386
O34	O	0.985274	-0.445044	-0.338981
O35	O	1.318608	-0.111710	-0.005647
O36	O	1.651941	0.221623	0.327686
O37	O	1.116171	-0.574843	-0.568737
O38	O	1.449504	-0.241510	-0.235404
O39	O	1.782837	0.091823	0.097930
O40	O	0.985331	-0.575075	-0.438008
O41	O	1.318664	-0.241742	-0.104674
O42	O	1.651998	0.091592	0.228659
O43	O	1.215249	-0.444637	-0.568762
O44	O	1.548583	-0.111303	-0.235428
O45	O	1.881916	0.222030	0.097905
O46	O	1.214941	-0.747133	-0.338974
O47	O	1.548274	-0.413800	-0.005641
O48	O	1.881607	-0.080467	0.327692
O49	O	1.115995	-0.746943	-0.438004
O50	O	1.449328	-0.413609	-0.104671
O51	O	1.782662	-0.080276	0.228663
C52	C	0.956046	-0.510058	-0.388491
C53	C	1.289380	-0.176725	-0.055158
C54	C	1.622713	0.156609	0.278175
C55	C	0.866425	-0.510077	-0.388501
C56	C	1.199759	-0.176744	-0.055168
C57	C	1.533092	0.156590	0.278166
C58	C	0.538250	-0.510084	-0.388535
C59	C	0.871583	-0.176751	-0.055202
C60	C	1.204916	0.156583	0.278131
C61	C	0.629558	-0.510079	-0.388523
C62	C	0.962892	-0.176746	-0.055190
C63	C	1.296225	0.156588	0.278143
C64	C	0.702335	-0.510081	-0.388518
C65	C	1.035668	-0.176748	-0.055184
C66	C	1.369001	0.156586	0.278149
C67	C	0.793649	-0.510075	-0.388507
C68	C	1.126982	-0.176742	-0.055173
C69	C	1.460316	0.156592	0.278160
C70	C	1.165478	-0.785503	-0.388503
C71	C	1.498812	-0.452169	-0.055169
C72	C	1.832145	-0.118836	0.278164
C73	C	1.165527	-0.903333	-0.388525
C74	C	1.498860	-0.569999	-0.055192
C75	C	1.832194	-0.236666	0.278142
C76	C	1.103537	-1.070821	-0.451017
C77	C	1.436871	-0.737487	-0.117683
C78	C	1.770204	-0.404154	0.215650
C79	C	1.103220	-0.948262	-0.450816
C80	C	1.436553	-0.614928	-0.117482
C81	C	1.769887	-0.281595	0.215851
C82	C	1.142465	-0.948051	-0.303549
C83	C	1.475799	-0.614718	0.029784
C84	C	1.809132	-0.281385	0.363117
C85	C	1.142087	-1.070649	-0.303929
C86	C	1.475420	-0.737316	0.029405
C87	C	1.808753	-0.403983	0.362738
C88	C	1.250958	-1.070388	-0.410319
C89	C	1.584291	-0.737055	-0.076986
C90	C	1.917624	-0.403722	0.256347
C91	C	1.250435	-0.947779	-0.412178
C92	C	1.583769	-0.614445	-0.078844
C93	C	1.917102	-0.281112	0.254489
C94	C	1.375846	-0.510089	-0.388537
C95	C	1.709180	-0.176756	-0.055204
C96	C	2.042513	0.156578	0.278130
C97	C	1.465467	-0.510096	-0.388547
C98	C	1.798801	-0.176762	-0.055214
C99	C	2.132134	0.156571	0.278120
C100	C	1.165739	-0.509684	-0.598824
C101	C	1.499072	-0.176351	-0.265490
C102	C	1.832405	0.156982	0.067843
C103	C	1.165825	-0.509519	-0.688445
C104	C	1.499158	-0.176185	-0.355112
C105	C	1.832491	0.157148	-0.021778
C106	C	1.165618	-0.233568	-0.388543
C107	C	1.498952	0.099766	-0.055210
C108	C	1.832285	0.433099	0.278124
C109	C	1.165653	-0.115738	-0.388555
C110	C	1.498986	0.217596	-0.055222
C111	C	1.832320	0.550929	0.278111
C112	C	1.165383	-0.510384	-0.179023
C113	C	1.498716	-0.177050	0.154311
C114	C	1.832050	0.156283	0.487644
C115	C	1.165454	-0.510251	-0.089402
C116	C	1.498787	-0.176917	0.243932
C117	C	1.832120	0.156416	0.577265
C118	C	1.165524	-0.510126	-0.016620
C119	C	1.498857	-0.176793	0.316714
C120	C	1.832191	0.156540	0.650047
C121	C	1.165610	-0.509960	0.074689
C122	C	1.498944	-0.176627	0.408022
C123	C	1.832277	0.156707	0.741355
C124	C	1.165675	-0.509822	0.147465
C125	C	1.499008	-0.176489	0.480798
C126	C	1.832342	0.156845	0.814132
C127	C	1.165760	-0.509657	0.238779
C128	C	1.499093	-0.176324	0.572112
C129	C	1.832427	0.157010	0.905446
H130	H	1.117656	-0.918015	-0.513824
H131	H	1.450989	-0.584682	-0.180491
H132	H	1.784322	-0.251349	0.152842
H133	H	1.271984	-1.101143	-0.471230
H134	H	1.605317	-0.767809	-0.137897
H135	H	1.938650	-0.434476	0.195436
H136	H	1.080755	-0.917469	-0.284779
H137	H	1.414088	-0.584136	0.048554
H138	H	1.747422	-0.250802	0.381888
H139	H	1.117841	-1.100140	-0.514232
H140	H	1.451174	-0.766807	-0.180899
H141	H	1.784508	-0.433473	0.152435
N142	N	1.273480	-0.909048	-0.495014
N143	N	1.606814	-0.575715	-0.161680
N144	N	1.940147	-0.242381	0.171653
H145	H	1.229112	-0.862901	-0.517133
H146	H	1.562445	-0.529568	-0.183800
H147	H	1.895778	-0.196234	0.149534
H148	H	1.324900	-0.866758	-0.491547
H149	H	1.658233	-0.533425	-0.158214
H150	H	1.991567	-0.200092	0.175119
H151	H	1.040693	-1.101744	-0.436782
H152	H	1.374026	-0.768410	-0.103449
H153	H	1.707360	-0.435077	0.229885
H154	H	1.299156	-0.917189	-0.369997
H155	H	1.632490	-0.583855	-0.036664
H156	H	1.965823	-0.250522	0.296670
N157	N	1.312263	-1.108864	-0.350062
N158	N	1.645596	-0.775531	-0.016729
N159	N	1.978929	-0.442198	0.316604
H160	H	1.284958	-1.155442	-0.308863
H161	H	1.618291	-0.822109	0.024471
H162	H	1.951624	-0.488776	0.357804
H163	H	1.355305	-1.150645	-0.378814
H164	H	1.688638	-0.817312	-0.045481
H165	H	2.021972	-0.483979	0.287853
H166	H	1.185363	-1.100376	-0.255803
H167	H	1.518696	-0.767042	0.077530
H168	H	1.852029	-0.433709	0.410863
H169	H	1.039980	-0.919049	-0.436397
H170	H	1.373314	-0.585716	-0.103063
H171	H	1.706647	-0.252383	0.230270
N172	N	1.059488	-1.108703	-0.279504
N173	N	1.392822	-0.775370	0.053829
N174	N	1.726155	-0.442036	0.387162
H175	H	1.023665	-1.045837	-0.268594
H176	H	1.356999	-0.712504	0.064739
H177	H	1.690332	-0.379171	0.398072
H178	H	1.035704	-1.152479	-0.324333
H179	H	1.369037	-0.819145	0.009001
H180	H	1.702370	-0.485812	0.342334
N181	N	1.200485	-0.909527	-0.240213
N182	N	1.533818	-0.576193	0.093120
N183	N	1.867151	-0.242860	0.426454
H184	H	1.242377	-0.862602	-0.266056
H185	H	1.575710	-0.529268	0.067277
H186	H	1.909043	-0.195935	0.400611
H187	H	1.170142	-0.868100	-0.198085
H188	H	1.503475	-0.534767	0.135248
H189	H	1.836809	-0.201433	0.468582
