data_functionalizedCrystal
_audit_creation_method	'MofGen! by Chris Wilmer'
_symmetry_space_group_name_H-M	'P1'
_symmetry_Int_Tables_number	1
_symmetry_cell_setting	triclinic
loop_
_symmetry_equiv_pos_as_xyz
  x,y,z
_cell_length_a	31.640172
_cell_length_b	31.640171
_cell_length_c	14.560438
_cell_angle_alpha	59.993279
_cell_angle_beta	89.989432
_cell_angle_gamma	59.970930
loop_
_atom_site_label
_atom_site_type_symbol
_atom_site_fract_x
_atom_site_fract_y
_atom_site_fract_z
Zr1	Zr	0.406965	0.462741	-0.120902
O2	O	0.339433	0.550957	-0.267587
O3	O	0.427696	0.374531	-0.075898
O4	O	0.427654	0.462739	-0.267555
O5	O	0.339475	0.462748	0.075211
O6	O	0.497211	0.462730	-0.267572
O7	O	0.339475	0.462749	-0.075930
O8	O	0.497286	0.304942	0.075268
O9	O	0.339401	0.620536	-0.267629
O10	O	0.488412	0.410804	-0.056761
O11	O	0.436502	0.410810	0.056046
O12	O	0.436453	0.514663	-0.169606
O13	O	0.384544	0.514669	-0.056799
Zr14	Zr	0.517901	0.462724	0.120124
Zr15	Zr	0.517901	0.462726	-0.120928
Zr16	Zr	0.406965	0.462739	0.120150
Zr17	Zr	0.406913	0.573711	-0.120968
Zr18	Zr	0.517953	0.351754	0.120190
O19	O	0.497170	0.550934	0.075120
O20	O	0.497170	0.550936	-0.267625
O21	O	0.339434	0.550954	0.075158
O22	O	0.585432	0.374508	0.266809
O23	O	0.585432	0.374510	-0.075936
O24	O	0.427696	0.374529	0.266847
O25	O	0.585391	0.462717	-0.075989
O26	O	0.497212	0.462726	0.266777
O27	O	0.427654	0.462735	0.266794
O28	O	0.585391	0.462716	0.075152
O29	O	0.427580	0.620524	-0.267650
O30	O	0.497286	0.304941	0.266872
O31	O	0.585465	0.304929	0.266851
O32	O	0.585465	0.304931	0.075247
O33	O	0.339401	0.620534	-0.076025
O34	O	0.427580	0.620523	-0.076046
O35	O	0.488412	0.410802	0.168828
O36	O	0.540322	0.410796	0.056021
O37	O	0.488363	0.514655	-0.056824
O38	O	0.436454	0.514661	0.055983
C39	C	0.462498	0.323926	-0.000306
C40	C	0.462521	0.276816	-0.000277
C41	C	0.323669	0.462751	-0.000356
C42	C	0.276574	0.462757	-0.000344
C43	C	0.500775	-0.097756	0.082883
C44	C	0.500821	0.079197	0.082945
O45	O	0.533443	0.069460	0.153751
N46	N	0.462488	0.139678	-0.000328
C47	C	0.424142	0.155921	-0.083627
O48	O	0.391542	0.211424	-0.154461
C49	C	0.424099	-0.021032	-0.083692
C50	C	0.462432	-0.081513	-0.000407
C51	C	0.539105	-0.158234	0.166160
C52	C	0.539092	-0.202469	0.166147
C53	C	0.500748	-0.186226	0.082857
C54	C	0.462418	-0.125748	-0.000420
C55	C	0.385756	-0.004789	-0.166995
C56	C	0.385750	-0.049033	-0.167005
C57	C	0.424082	-0.109514	-0.083720
C58	C	0.424062	-0.153741	-0.083723
N59	N	0.462395	-0.214221	-0.000450
C60	C	0.500738	-0.230464	0.082840
C61	C	0.424167	0.248821	-0.083585
C62	C	0.424177	0.293059	-0.083568
C63	C	0.500857	0.216332	0.083003
C64	C	0.500844	0.172094	0.082989
C65	C	0.462500	0.188340	-0.000312
C66	C	0.500707	-0.323358	0.082807
C67	C	0.500688	-0.367594	0.082790
C68	C	0.424011	-0.290864	-0.083784
C69	C	0.424027	-0.246632	-0.083763
C70	C	0.462380	-0.262884	-0.000463
O71	O	0.391460	-0.144047	-0.154500
O72	O	0.533340	-0.285970	0.153649
C73	C	0.500789	-0.053520	0.082896
C74	C	0.462459	0.006958	-0.000382
C75	C	0.424115	0.023200	-0.083672
C76	C	0.462469	0.051196	-0.000365
C77	C	0.500812	0.034953	0.082926
C78	C	0.539145	-0.025528	0.166199
C79	C	0.539132	-0.069763	0.166186
C80	C	0.385782	0.083681	-0.166945
C81	C	0.385798	0.127913	-0.166925
C82	C	0.424142	0.111671	-0.083634
C83	C	-0.059699	0.462720	0.082896
C84	C	0.117282	0.462737	0.082913
O85	O	0.140175	0.462715	0.153754
N86	N	0.139416	0.462740	-0.000352
C87	C	0.117304	0.462735	-0.083623
O88	O	0.140195	0.462731	-0.154438
C89	C	-0.059674	0.462713	-0.083635
C90	C	-0.081809	0.462716	-0.000371
C91	C	-0.081834	0.462722	0.166153
C92	C	-0.126078	0.462721	0.166145
C93	C	-0.148188	0.462718	0.082878
C94	C	-0.126054	0.462715	-0.000380
C95	C	-0.081783	0.462704	-0.166900
C96	C	-0.126030	0.462697	-0.166894
C97	C	-0.148165	0.462700	-0.083630
C98	C	-0.192408	0.462711	-0.083655
N99	N	-0.214542	0.462708	-0.000390
C100	C	-0.192432	0.462711	0.082877
C101	C	0.210220	0.462747	-0.083612
C102	C	0.254464	0.462754	-0.083611
C103	C	0.254440	0.462755	0.082927
C104	C	0.210193	0.462753	0.082920
C105	C	0.188086	0.462744	-0.000347
C106	C	-0.285349	0.462710	0.082852
C107	C	-0.329598	0.462711	0.082833
C108	C	-0.329568	0.462707	-0.083701
C109	C	-0.285324	0.462709	-0.083686
C110	C	-0.263215	0.462708	-0.000400
O111	O	-0.215324	0.462726	-0.154451
O112	O	-0.215323	0.462701	0.153695
C113	C	-0.015455	0.462721	0.082904
C114	C	0.006680	0.462718	-0.000353
C115	C	-0.015430	0.462715	-0.083620
C116	C	0.050924	0.462725	-0.000352
C117	C	0.073033	0.462728	0.082915
C118	C	0.050899	0.462725	0.166179
C119	C	0.006655	0.462724	0.166171
C120	C	0.006704	0.462718	-0.166885
C121	C	0.050948	0.462720	-0.166870
C122	C	0.073058	0.462723	-0.083604
C123	C	0.601197	0.462714	-0.000422
C124	C	0.648292	0.462708	-0.000434
C125	C	0.462433	0.462735	-0.301909
C126	C	0.462433	0.462736	-0.404241
C127	C	0.462367	0.601539	-0.000472
C128	C	0.462345	0.648649	-0.000501
C129	C	0.435309	0.516948	-0.511221
C130	C	0.435310	0.516945	-0.607370
C131	C	0.489561	0.408513	-0.489545
C132	C	0.489562	0.408516	-0.393399
C133	C	0.408180	0.571168	-0.522064
C134	C	0.381053	0.625385	-0.629049
C135	C	0.381054	0.625382	-0.725198
C136	C	0.408183	0.571162	-0.714362
C137	C	0.462433	0.462730	0.301130
C138	C	0.462433	0.462729	0.403463
C139	C	0.601262	0.323908	-0.000339
C140	C	0.648380	0.276792	-0.000322
C141	C	0.462498	0.323924	0.301214
C142	C	0.462521	0.276813	0.403575
C143	C	0.601262	0.323905	0.301180
C144	C	0.648380	0.276788	0.403530
C145	C	0.323603	0.601560	-0.301959
C146	C	0.276486	0.648676	-0.404308
C147	C	0.323604	0.601557	-0.000439
C148	C	0.276486	0.648673	-0.000456
C149	C	0.462367	0.601541	-0.301992
C150	C	0.462345	0.648652	-0.404353
C151	C	0.643410	0.254670	-0.059195
C152	C	0.687677	0.210405	-0.059202
C153	C	0.736914	0.188261	-0.000328
C154	C	0.741883	0.210387	0.058547
C155	C	0.697616	0.254654	0.058546
C156	C	0.489628	0.254685	0.510526
C157	C	0.489647	0.210426	0.606715
C158	C	0.462561	0.188293	0.595950
C159	C	0.435451	0.210425	0.488987
C160	C	0.435430	0.254686	0.392801
C161	C	0.697608	0.254659	0.392711
C162	C	0.741884	0.210394	0.488870
C163	C	0.736931	0.188256	0.595848
C164	C	0.687698	0.210390	0.606665
C165	C	0.643423	0.254657	0.510507
C166	C	0.227258	0.670811	-0.393489
C167	C	0.182982	0.715090	-0.489648
C168	C	0.187935	0.737230	-0.596626
C169	C	0.237168	0.715093	-0.607444
C170	C	0.281443	0.670818	-0.511285
C171	C	0.281456	0.670800	0.058407
C172	C	0.237188	0.715076	0.058387
C173	C	0.187952	0.737222	-0.000490
C174	C	0.182983	0.715094	-0.059361
C175	C	0.227250	0.670821	-0.059346
C176	C	0.489435	0.670771	-0.393552
C177	C	0.489425	0.715031	-0.489722
C178	C	0.462320	0.737173	-0.596692
C179	C	0.435229	0.715049	-0.607491
C180	C	0.435243	0.670787	-0.511322
H181	H	0.531904	-0.416842	0.150615
C182	C	-0.150345	0.462689	-0.258498
N183	N	-0.168660	0.462685	-0.327497
H184	H	0.683622	0.192395	-0.107145
C185	C	0.382005	0.359586	-0.175181
N186	N	0.350242	0.409695	-0.244192
H187	H	0.151911	0.773272	-0.000492
H188	H	0.068965	0.462722	-0.234683
C189	C	0.128831	0.739431	-0.477724
N190	N	0.088045	0.757764	-0.468739
C191	C	-0.353896	0.462699	-0.175285
N192	N	-0.372218	0.462688	-0.244262
C193	C	0.139226	0.785929	-0.702393
N194	N	0.102536	0.822607	-0.782053
H195	H	0.772986	0.152211	0.674137
C196	C	0.589273	0.278994	0.522428
N197	N	0.548488	0.297323	0.531415
H198	H	0.408174	0.571176	-0.443781
H199	H	-0.063835	0.462723	0.233964
C200	C	0.128818	0.739453	-0.124103
N201	N	0.088019	0.757796	-0.172856
C202	C	0.242608	0.739448	-0.725130
N203	N	0.246703	0.757790	-0.813775
H204	H	0.462313	0.773214	-0.674990
H205	H	-0.063767	0.462701	-0.234700
H206	H	0.272479	0.462760	-0.151422
C207	C	0.221797	0.646470	-0.275822
N208	N	0.217680	0.628141	-0.187197
C209	C	0.519258	0.646420	-0.275893
N210	N	0.541725	0.628079	-0.187275
H211	H	0.321525	0.652796	-0.520108
C212	C	0.785605	0.139562	-0.000330
N213	N	0.822276	0.102880	-0.000331
H214	H	0.781977	0.192351	0.106480
H215	H	0.570331	-0.171470	0.233987
C216	C	0.335612	0.646451	0.123176
N217	N	0.376402	0.628116	0.171956
H218	H	0.701669	0.272660	0.106495
C219	C	0.519477	0.186084	0.724363
N220	N	0.541947	0.167749	0.812972
H221	H	0.511684	0.272702	0.519313
H222	H	0.413180	0.652782	-0.520132
H223	H	0.531937	-0.336600	0.150639
H224	H	0.511485	0.733040	-0.480907
C225	C	0.351218	0.685023	-0.640963
N226	N	0.328747	0.729944	-0.649939
H227	H	0.413399	0.192397	0.480239
H228	H	0.241244	0.733086	0.106331
H229	H	0.462583	0.152252	0.674280
H230	H	0.570307	-0.251713	0.233963
H231	H	0.358971	0.669528	-0.812305
C232	C	0.408185	0.571162	-0.820132
N233	N	0.408185	0.571163	-0.899798
C234	C	0.405437	0.739390	-0.725169
N235	N	0.383004	0.757720	-0.813807
H236	H	0.781967	0.192377	0.480042
C237	C	0.543037	0.198473	0.174618
N238	N	0.574808	0.185025	0.243612
C239	C	0.381976	0.266703	-0.175213
N240	N	0.350194	0.280175	-0.244221
C241	C	0.543017	0.105566	0.174599
N242	N	0.574785	0.055458	0.243600
H243	H	0.701650	0.272677	0.305613
C244	C	0.405614	0.279015	0.275157
N245	N	0.383157	0.297337	0.186548
H246	H	0.354545	0.044452	-0.234822
H247	H	0.223197	0.652807	-0.107277
H248	H	0.354526	-0.035798	-0.234844
H249	H	0.570346	-0.119007	0.234005
H250	H	0.603323	0.272699	-0.107151
C251	C	-0.017685	0.462722	0.257774
N252	N	-0.036014	0.462719	0.326778
C253	C	0.519398	0.348879	-0.275715
N254	N	0.541872	0.303960	-0.187073
C255	C	0.682258	0.186028	0.724352
N256	N	0.678163	0.167673	0.812997
H257	H	0.392801	-0.197384	-0.151553
H258	H	0.392791	-0.277648	-0.151593
C259	C	-0.260978	0.462710	-0.175285
N260	N	-0.242640	0.462706	-0.244273
H261	H	0.570364	-0.038747	0.234020
C262	C	0.343627	0.194444	-0.258552
N263	N	0.311867	0.244552	-0.327572
H264	H	-0.347620	0.462715	0.150637
C265	C	-0.261035	0.462711	0.174468
N266	N	-0.242725	0.462715	0.243470
C267	C	-0.150416	0.462715	0.257753
N268	N	-0.168743	0.462707	0.326761
C269	C	0.343593	0.101560	-0.258562
N270	N	0.311809	0.115031	-0.327567
H271	H	0.192173	0.462755	0.150720
H272	H	0.272448	0.462759	0.150724
H273	H	0.192224	0.462741	-0.151421
C274	C	0.075230	0.462727	0.257775
N275	N	0.093560	0.462724	0.326765
C276	C	-0.017608	0.462707	-0.258483
N277	N	-0.035917	0.462700	-0.327480
H278	H	0.511646	0.364369	-0.480733
