data_functionalizedCrystal
_audit_creation_method	'MofGen! by Chris Wilmer'
_symmetry_space_group_name_H-M	'P1'
_symmetry_Int_Tables_number	1
_symmetry_cell_setting	triclinic
loop_
_symmetry_equiv_pos_as_xyz
  x,y,z
_cell_length_a	17.000371
_cell_length_b	15.500215
_cell_length_c	17.038272
_cell_angle_alpha	87.012587
_cell_angle_beta	96.644598
_cell_angle_gamma	93.371385
loop_
_atom_site_label
_atom_site_type_symbol
_atom_site_fract_x
_atom_site_fract_y
_atom_site_fract_z
O1	O	1.061506	0.071949	-0.031044
O2	O	0.831685	0.071950	-0.059288
O3	O	0.945229	0.071942	0.068556
O4	O	0.947962	0.071956	-0.158888
O5	O	0.938211	-0.071947	0.074561
O6	O	0.824667	-0.071940	-0.053284
O7	O	1.054487	-0.071941	-0.025039
Cu8	Cu	0.938936	-0.085079	-0.038613
Cu9	Cu	0.947236	0.085088	-0.045714
O10	O	0.940943	-0.071934	-0.152883
C11	C	0.798625	0.000005	-0.057803
C12	C	0.710572	0.000005	-0.062314
N13	N	0.933104	-0.204764	-0.033618
C14	C	0.673845	-0.000000	0.007108
C15	C	0.591110	0.000006	0.002864
C16	C	0.545103	0.000012	-0.070802
C17	C	0.581835	0.000021	-0.140230
C18	C	0.664569	0.000020	-0.135985
C19	C	0.295067	0.000019	-0.087196
C20	C	0.212327	0.000017	-0.091435
C21	C	0.221609	0.000004	0.051659
C22	C	0.304344	-0.000001	0.055897
C23	C	0.341069	0.000011	-0.013531
C24	C	0.460534	0.000016	-0.075142
C25	C	0.425637	0.000014	-0.009191
C26	C	0.982144	-0.250035	-0.075655
C27	C	0.977743	-0.340608	-0.071871
C28	C	0.924298	-0.385909	-0.026054
C29	C	0.875256	-0.340633	0.015988
C30	C	0.879662	-0.250061	0.012208
C31	C	0.908438	-0.659378	-0.012440
C32	C	0.904035	-0.749956	-0.008666
C33	C	1.006523	-0.749926	-0.096524
C34	C	1.010920	-0.659352	-0.100304
C35	C	0.961881	-0.614083	-0.058258
C36	C	0.919797	-0.478490	-0.022188
C37	C	0.966387	-0.521504	-0.062121
C38	C	1.087547	0.000006	-0.026524
C39	C	1.175601	0.000011	-0.022013
C40	C	0.939235	-0.000002	0.100517
C41	C	0.931823	-0.000002	0.186802
N42	N	0.953074	0.204773	-0.050703
C43	C	0.946937	0.000013	-0.184844
C44	C	0.954350	0.000018	-0.271129
C45	C	0.999881	-0.000003	0.241577
C46	C	0.992912	0.000005	0.322650
C47	C	0.917883	0.000008	0.348946
C48	C	0.849819	0.000012	0.294164
C49	C	0.856790	0.000010	0.213092
C50	C	0.893257	0.000020	0.593017
C51	C	0.886292	0.000020	0.674095
C52	C	1.029385	0.000014	0.702576
C53	C	1.036349	0.000007	0.621502
C54	C	0.968285	0.000015	0.566727
C55	C	0.910757	0.000014	0.431815
C56	C	0.975412	0.000016	0.483859
H57	H	0.711299	-0.000009	0.067095
Br58	Br	0.366777	-0.000020	0.155876
Br59	Br	0.519397	0.000041	-0.240207
H60	H	0.876282	-0.515384	0.015116
Br61	Br	1.073072	-0.811366	-0.153583
H62	H	1.084798	0.000009	0.747182
Br63	Br	0.149887	0.000013	-0.191417
Br64	Br	0.764421	0.000019	0.138752
H65	H	0.831744	-0.377524	0.053297
Br66	Br	1.054677	-0.188563	-0.137841
H67	H	1.017678	-0.377463	-0.106101
H68	H	0.191698	0.000003	0.108182
Br69	Br	0.344898	0.000038	-0.181420
Br70	Br	0.831496	-0.811437	0.053517
Br71	Br	0.841854	-0.597953	0.044587
Br72	Br	1.083417	-0.597878	-0.162528
Br73	Br	1.077234	0.000019	0.448170
Br74	Br	0.813116	-0.188621	0.069273
Br75	Br	1.038921	-0.460023	-0.124294
H76	H	1.060977	-0.000011	0.220175
H77	H	1.048332	0.000002	0.367246
H78	H	1.097445	0.000004	0.600099
H79	H	0.423065	0.000020	-0.135121
H80	H	0.849668	0.000015	0.453235
Br81	Br	0.784460	0.000015	0.709782
H82	H	0.788729	0.000020	0.315580
Br83	Br	0.800885	0.000037	0.518688
H84	H	0.694470	0.000021	-0.192516
Br85	Br	0.541271	0.000029	0.097083
H86	H	0.463100	0.000014	0.050787
