data_functionalizedCrystal
_audit_creation_method	'MofGen! by Chris Wilmer'
_symmetry_space_group_name_H-M	'P1'
_symmetry_Int_Tables_number	1
_symmetry_cell_setting	triclinic
loop_
_symmetry_equiv_pos_as_xyz
  x,y,z
_cell_length_a	9.065215
_cell_length_b	9.065215
_cell_length_c	13.448316
_cell_angle_alpha	89.994392
_cell_angle_beta	89.993808
_cell_angle_gamma	85.014697
loop_
_atom_site_label
_atom_site_type_symbol
_atom_site_fract_x
_atom_site_fract_y
_atom_site_fract_z
O1	O	1.960406	0.216340	-0.082678
O2	O	1.531121	0.234091	-0.082682
O3	O	1.754639	0.010573	-0.082676
O4	O	1.736888	0.439858	-0.082685
O5	O	1.754610	0.010559	0.082708
O6	O	1.531092	0.234077	0.082701
O7	O	1.960378	0.216326	0.082706
Cu8	Cu	1.745732	0.225200	0.097804
Cu9	Cu	1.745766	0.225217	-0.097781
O10	O	1.736859	0.439844	0.082699
C11	C	1.476120	0.232379	0.000009
C12	C	1.312277	0.227281	0.000007
C13	C	1.752920	-0.044421	0.000015
C14	C	1.747822	-0.208264	0.000012
C15	C	2.015379	0.218038	0.000012
C16	C	2.179222	0.223136	0.000007
C17	C	1.738579	0.494838	0.000006
C18	C	1.743677	0.658681	0.000003
N19	N	1.745719	0.225187	0.235369
N20	N	1.745791	0.225218	-0.235345
C21	C	1.844725	0.126255	0.287412
C22	C	1.844734	0.126254	0.391515
C23	C	1.745744	0.225194	0.443573
C24	C	1.646727	0.324130	0.391523
C25	C	1.646712	0.324123	0.287421
C26	C	1.646768	0.324141	0.608503
C27	C	1.646785	0.324150	0.712611
C28	C	1.844790	0.126272	0.712597
C29	C	1.844775	0.126265	0.608495
C30	C	1.745760	0.225204	0.556452
H31	H	1.925340	0.045694	0.245033
H32	H	1.925350	0.045695	0.433888
H33	H	1.566135	0.404703	0.566133
O34	O	1.940988	0.030017	0.558078
C35	C	2.028408	-0.057284	0.626333
H36	H	1.967910	-0.059797	0.700551
H37	H	2.138655	-0.007843	0.637381
C38	C	2.131000	-0.212955	0.494553
C39	C	2.056690	-0.216052	0.585707
H40	H	2.148453	-0.310889	0.469493
H41	H	2.072108	-0.154136	0.448568
H42	H	2.222865	-0.171747	0.503772
H43	H	1.964820	-0.257242	0.576485
H44	H	2.115567	-0.274882	0.631690
O45	O	1.550503	0.420035	0.442201
C46	C	1.458415	0.339744	0.502423
H47	H	1.515651	0.225099	0.518019
H48	H	1.349224	0.328195	0.462323
C49	C	1.357709	0.563312	0.582149
C50	C	1.428012	0.422508	0.601312
H51	H	1.338948	0.614367	0.643147
H52	H	1.419746	0.617408	0.541574
H53	H	1.266724	0.553668	0.548730
H54	H	1.519002	0.432154	0.634719
H55	H	1.365989	0.368415	0.641895
O56	O	1.550409	0.420088	0.763144
C57	C	1.404032	0.394055	0.737717
H58	H	1.401762	0.275908	0.709099
H59	H	1.361744	0.475241	0.677299
C60	C	1.307118	0.560658	0.865362
C61	C	1.304328	0.415543	0.830221
H62	H	1.245613	0.573919	0.922421
H63	H	1.405734	0.578202	0.882491
H64	H	1.271881	0.628296	0.815006
H65	H	1.339582	0.347908	0.880573
H66	H	1.205715	0.397988	0.813103
H67	H	1.566090	0.404682	0.245049
H68	H	1.925411	0.045712	0.754976
