data_functionalizedCrystal
_audit_creation_method	'MofGen! by Chris Wilmer'
_symmetry_space_group_name_H-M	'P1'
_symmetry_Int_Tables_number	1
_symmetry_cell_setting	triclinic
loop_
_symmetry_equiv_pos_as_xyz
  x,y,z
_cell_length_a	19.077105
_cell_length_b	19.077068
_cell_length_c	19.076919
_cell_angle_alpha	85.529249
_cell_angle_beta	89.923776
_cell_angle_gamma	90.115316
loop_
_atom_site_label
_atom_site_type_symbol
_atom_site_fract_x
_atom_site_fract_y
_atom_site_fract_z
Zn1	Zn	1.044048	-0.340450	0.453500
Zn2	Zn	1.377382	-0.007117	0.786833
Zn3	Zn	1.710715	0.326216	1.120166
Zn4	Zn	1.043962	-0.453600	0.340340
Zn5	Zn	1.377295	-0.120267	0.673674
Zn6	Zn	1.710628	0.213066	1.007007
Zn7	Zn	0.931660	-0.331023	0.330931
Zn8	Zn	1.264993	0.002310	0.664264
Zn9	Zn	1.598327	0.335643	0.997597
Zn10	Zn	0.921801	-0.453176	0.453077
Zn11	Zn	1.255134	-0.119842	0.786410
Zn12	Zn	1.588468	0.213491	1.119743
O13	O	0.985368	-0.394562	0.394462
O14	O	1.318701	-0.061229	0.727795
O15	O	1.652034	0.272104	1.061129
O16	O	1.142196	-0.359583	0.442604
O17	O	1.475530	-0.026250	0.775937
O18	O	1.808863	0.307084	1.109270
O19	O	1.033154	-0.433572	0.240616
O20	O	1.366488	-0.100239	0.573950
O21	O	1.699821	0.233094	0.907283
O22	O	0.950731	-0.233799	0.343429
O23	O	1.284064	0.099534	0.676762
O24	O	1.617398	0.432868	1.010095
O25	O	1.142133	-0.442714	0.359466
O26	O	1.475466	-0.109380	0.692800
O27	O	1.808799	0.223953	1.026133
O28	O	1.033302	-0.240725	0.433479
O29	O	1.366636	0.092608	0.766813
O30	O	1.699969	0.425942	1.100146
O31	O	0.950647	-0.343516	0.233703
O32	O	1.283980	-0.010182	0.567036
O33	O	1.617313	0.323151	0.900370
O34	O	0.832193	-0.343104	0.343019
O35	O	1.165526	-0.009771	0.676352
O36	O	1.498859	0.323563	1.009685
O37	O	0.933928	-0.441990	0.551609
O38	O	1.267261	-0.108657	0.884942
O39	O	1.600594	0.224676	1.218276
O40	O	0.824949	-0.432849	0.432759
O41	O	1.158283	-0.099516	0.766092
O42	O	1.491616	0.233818	1.099426
O43	O	1.023742	-0.359171	0.551919
O44	O	1.357076	-0.025838	0.885253
O45	O	1.690409	0.307495	1.218586
O46	O	1.023594	-0.552019	0.359056
O47	O	1.356928	-0.218685	0.692390
O48	O	1.690261	0.114648	1.025723
O49	O	0.933844	-0.551707	0.441883
O50	O	1.267177	-0.218374	0.775217
O51	O	1.600510	0.114960	1.108550
C52	C	0.803119	-0.386908	0.386822
C53	C	1.136453	-0.053575	0.720156
C54	C	1.469786	0.279759	1.053489
C55	C	0.725151	-0.383651	0.383571
C56	C	1.058485	-0.050318	0.716905
C57	C	1.391818	0.283016	1.050238
C58	C	0.684769	-0.428912	0.428699
C59	C	1.018102	-0.095578	0.762032
C60	C	1.351436	0.237755	1.095365
C61	C	0.611510	-0.425842	0.425647
C62	C	0.944843	-0.092509	0.758981
C63	C	1.278176	0.240825	1.092314
C64	C	0.578634	-0.377515	0.377464
C65	C	0.911968	-0.044182	0.710798
C66	C	1.245301	0.289151	1.044131
C67	C	0.619022	-0.332250	0.332335
C68	C	0.952355	0.001083	0.665668
C69	C	1.285689	0.334417	0.999001
C70	C	0.692280	-0.335317	0.335390
C71	C	1.025613	-0.001983	0.668724
C72	C	1.358946	0.331350	1.002057
C73	C	0.359940	-0.363323	0.363326
C74	C	0.693273	-0.029990	0.696660
C75	C	1.026607	0.303343	1.029993
C76	C	0.286677	-0.360262	0.360273
C77	C	0.620010	-0.026928	0.693606
C78	C	0.953344	0.306405	1.026939
C79	C	0.279170	-0.453853	0.453586
C80	C	0.612503	-0.120520	0.786920
C81	C	0.945836	0.212813	1.120253
C82	C	0.352429	-0.456918	0.456635
C83	C	0.685762	-0.123585	0.789968
C84	C	1.019096	0.209748	1.123301
C85	C	0.392810	-0.411651	0.411508
C86	C	0.726144	-0.078317	0.744841
C87	C	1.059477	0.255016	1.078175
N88	N	0.503752	-0.374378	0.374342
N89	N	0.837085	-0.041045	0.707676
N90	N	1.170419	0.292289	1.041009
N91	N	0.467691	-0.414785	0.414634
N92	N	0.801025	-0.081451	0.747967
N93	N	1.134358	0.251882	1.081300
C94	C	0.977658	-0.577398	0.401461
C95	C	1.310992	-0.244064	0.734794
C96	C	1.644325	0.089269	1.068128
C97	C	0.974423	-0.655619	0.404482
C98	C	1.307756	-0.322285	0.737815
C99	C	1.641090	0.011048	1.071148
C100	C	1.019665	-0.692509	0.362816
C101	C	1.352998	-0.359176	0.696149
C102	C	1.686332	-0.025843	1.029483
C103	C	1.016626	-0.766007	0.365661
C104	C	1.349960	-0.432673	0.698995
C105	C	1.683293	-0.099340	1.032328
C106	C	0.968342	-0.802612	0.410169
C107	C	1.301675	-0.469279	0.743502
C108	C	1.635009	-0.135945	1.076836
C109	C	0.923098	-0.765717	0.451839
C110	C	1.256431	-0.432383	0.785173
C111	C	1.589765	-0.099050	1.118506
C112	C	0.926141	-0.692221	0.448997
C113	C	1.259474	-0.358888	0.782331
C114	C	1.592807	-0.025554	1.115664
C115	C	0.954231	-1.022406	0.423292
C116	C	1.287564	-0.689073	0.756626
C117	C	1.620897	-0.355740	1.089959
C118	C	0.951190	-1.095907	0.426130
C119	C	1.284523	-0.762574	0.759463
C120	C	1.617857	-0.429241	1.092796
C121	C	1.044720	-1.096192	0.339952
C122	C	1.378053	-0.762859	0.673286
C123	C	1.711386	-0.429526	1.006619
C124	C	1.047755	-1.022695	0.337111
C125	C	1.381089	-0.689361	0.670444
C126	C	1.714422	-0.356028	1.003778
C127	C	1.002514	-0.985806	0.378784
C128	C	1.335847	-0.652473	0.712117
C129	C	1.669181	-0.319139	1.045451
N130	N	0.965233	-0.877738	0.413077
N131	N	1.298566	-0.544405	0.746410
N132	N	1.631900	-0.211072	1.079743
N133	N	1.005627	-0.910681	0.375880
N134	N	1.338960	-0.577348	0.709213
N135	N	1.672293	-0.244015	1.042546
C136	C	1.168328	-0.402247	0.402132
C137	C	1.501661	-0.068914	0.735465
C138	C	1.834995	0.264419	1.068798
C139	C	1.246295	-0.405522	0.405400
C140	C	1.579628	-0.072189	0.738734
C141	C	1.912961	0.261145	1.072067
C142	C	0.977745	-0.401585	0.578012
C143	C	1.311078	-0.068252	0.911345
C144	C	1.644412	0.265082	1.244679
C145	C	0.974497	-0.404578	0.656230
C146	C	1.307830	-0.071244	0.989563
C147	C	1.641163	0.262089	1.322897
C148	C	0.993126	-0.211015	0.387451
C149	C	1.326459	0.122319	0.720785
C150	C	1.659793	0.455652	1.054118
C151	C	0.996432	-0.132798	0.384464
C152	C	1.329765	0.200536	0.717797
C153	C	1.663099	0.533869	1.051131
C154	C	0.993003	-0.387518	0.211626
C155	C	1.326337	-0.054185	0.544959
C156	C	1.659670	0.279149	0.878292
C157	C	0.996396	-0.384333	0.133406
C158	C	1.329729	-0.051000	0.466739
C159	C	1.663063	0.282334	0.800073
C160	C	1.019730	-0.362866	0.693140
C161	C	1.353063	-0.029533	1.026473
C162	C	1.686396	0.303800	1.359806
C163	C	1.016669	-0.365675	0.766634
C164	C	1.350002	-0.032342	1.099967
C165	C	1.683336	0.300992	1.433300
C166	C	0.968378	-0.410200	0.803216
C167	C	1.301712	-0.076866	1.136550
C168	C	1.635045	0.256467	1.469883
C169	C	0.923140	-0.451913	0.766301
C170	C	1.256474	-0.118579	1.099635
C171	C	1.589807	0.214754	1.432968
C172	C	0.926198	-0.449100	0.692809
C173	C	1.259531	-0.115766	1.026142
C174	C	1.592865	0.217567	1.359475
C175	C	0.954216	-0.423233	1.022998
C176	C	1.287549	-0.089900	1.356332
C177	C	1.620882	0.243434	1.689665
C178	C	0.951163	-0.426044	1.096496
C179	C	1.284496	-0.092711	1.429830
C180	C	1.617830	0.240622	1.763163
C181	C	1.044691	-0.339805	1.096823
C182	C	1.378025	-0.006472	1.430157
C183	C	1.711358	0.326861	1.763490
C184	C	1.047748	-0.337000	1.023329
C185	C	1.381081	-0.003666	1.356663
C186	C	1.714414	0.329667	1.689996
C187	C	1.002507	-0.378710	0.986421
C188	C	1.335840	-0.045376	1.319754
C189	C	1.669174	0.287957	1.653087
N190	N	0.965250	-0.413073	0.878339
N191	N	1.298583	-0.079740	1.211672
N192	N	1.631917	0.253593	1.545006
N193	N	1.005632	-0.375832	0.911299
N194	N	1.338966	-0.042498	1.244632
N195	N	1.672299	0.290835	1.577966
H196	H	0.379191	-0.496273	0.495869
H197	H	0.712524	-0.162939	0.829202
H198	H	1.045858	0.170394	1.162536
Br199	Br	0.892832	-0.972352	0.479849
Br200	Br	1.226165	-0.639019	0.813183
Br201	Br	1.559498	-0.305685	1.146516
H202	H	0.911879	-1.125710	0.462386
H203	H	1.245212	-0.792377	0.795719
H204	H	1.578546	-0.459044	1.129053
Br205	Br	0.857574	-0.815395	0.512250
Br206	Br	1.190907	-0.482062	0.845583
Br207	Br	1.524240	-0.148729	1.178916
Br208	Br	0.885618	-0.486472	1.146144
Br209	Br	1.218952	-0.153138	1.479478
Br210	Br	1.552285	0.180195	1.812811
Br211	Br	0.556707	-0.487268	0.486896
Br212	Br	0.890041	-0.153935	0.820230
Br213	Br	1.223374	0.179399	1.153563
Br214	Br	0.224363	-0.515287	0.514824
Br215	Br	0.557697	-0.181954	0.848157
Br216	Br	0.891030	0.151380	1.181491
Br217	Br	0.864743	-0.642155	0.505550
Br218	Br	1.198076	-0.308821	0.838884
Br219	Br	1.531409	0.024512	1.172217
Br220	Br	0.857597	-0.512335	0.815948
Br221	Br	1.190931	-0.179002	1.149281
Br222	Br	1.524264	0.154332	1.482615
H223	H	1.059056	-0.326612	0.663360
H224	H	1.392389	0.006721	0.996693
H225	H	1.725722	0.340055	1.330026
H226	H	0.725159	-0.298457	0.298646
H227	H	1.058492	0.034876	0.631979
H228	H	1.391825	0.368210	0.965313
Br229	Br	1.078091	-0.309098	0.816726
Br230	Br	1.411425	0.024235	1.150059
Br231	Br	1.744758	0.357568	1.483392
H232	H	1.058980	-0.662710	0.326570
H233	H	1.392314	-0.329376	0.659903
H234	H	1.725647	0.003957	0.993236
H235	H	0.711530	-0.468267	0.467932
H236	H	1.044864	-0.134933	0.801266
H237	H	1.378197	0.198400	1.134599
H238	H	1.087073	-0.300745	0.993549
H239	H	1.420406	0.032588	1.326882
H240	H	1.753740	0.365922	1.660216
Br241	Br	0.242060	-0.294678	0.294870
Br242	Br	0.575394	0.038655	0.628203
Br243	Br	0.908727	0.371989	0.961536
H244	H	0.889357	-0.483058	0.662757
H245	H	1.222691	-0.149725	0.996090
H246	H	1.556024	0.183609	1.329424
H247	H	0.392810	-0.326468	0.326576
H248	H	0.726143	0.006865	0.659909
H249	H	1.059477	0.340198	0.993242
Br250	Br	0.574406	-0.266656	0.266949
Br251	Br	0.907740	0.066677	0.600282
Br252	Br	1.241073	0.400010	0.933616
H253	H	1.053467	-0.796040	0.331732
H254	H	1.386800	-0.462706	0.665065
H255	H	1.720133	-0.129373	0.998399
Br256	Br	1.113295	-0.973021	0.276715
Br257	Br	1.446629	-0.639688	0.610048
Br258	Br	1.779962	-0.306355	0.943382
Br259	Br	0.892816	-0.479839	0.972917
Br260	Br	1.226150	-0.146505	1.306250
Br261	Br	1.559483	0.186828	1.639583
Br262	Br	1.106119	-1.146259	0.283403
Br263	Br	1.439452	-0.812926	0.616736
Br264	Br	1.772785	-0.479593	0.950069
Br265	Br	1.106084	-0.283201	1.146917
Br266	Br	1.439418	0.050133	1.480251
Br267	Br	1.772751	0.383466	1.813584
