data_functionalizedCrystal
_audit_creation_method	'MofGen! by Chris Wilmer'
_symmetry_space_group_name_H-M	'P1'
_symmetry_Int_Tables_number	1
_symmetry_cell_setting	triclinic
loop_
_symmetry_equiv_pos_as_xyz
  x,y,z
_cell_length_a	16.109302
_cell_length_b	19.188924
_cell_length_c	15.186229
_cell_angle_alpha	89.994194
_cell_angle_beta	89.994701
_cell_angle_gamma	83.301872
loop_
_atom_site_label
_atom_site_type_symbol
_atom_site_fract_x
_atom_site_fract_y
_atom_site_fract_z
O1	O	1.102830	0.089747	-0.073272
O2	O	1.436164	0.423080	0.260061
O3	O	1.769497	0.756413	0.593395
O4	O	0.860731	0.100915	-0.073266
O5	O	1.194064	0.434248	0.260068
O6	O	1.527398	0.767581	0.593401
O7	O	0.988770	-0.006309	-0.073259
O8	O	1.322103	0.327024	0.260075
O9	O	1.655437	0.660358	0.593408
O10	O	0.974791	0.196970	-0.073279
O11	O	1.308124	0.530304	0.260054
O12	O	1.641458	0.863637	0.593388
O13	O	0.988762	-0.006311	0.073199
O14	O	1.322095	0.327023	0.406532
O15	O	1.655428	0.660356	0.739865
O16	O	0.860722	0.100913	0.073192
O17	O	1.194056	0.434246	0.406525
O18	O	1.527389	0.767580	0.739858
O19	O	1.102822	0.089745	0.073185
O20	O	1.436155	0.423078	0.406518
O21	O	1.769488	0.756412	0.739852
Zn22	Zn	0.981771	0.095329	0.096442
Zn23	Zn	1.315104	0.428662	0.429775
Zn24	Zn	1.648437	0.761996	0.763108
Zn25	Zn	0.981782	0.095331	-0.096522
Zn26	Zn	1.315115	0.428664	0.236811
Zn27	Zn	1.648449	0.761998	0.570144
O28	O	0.974783	0.196969	0.073178
O29	O	1.308116	0.530302	0.406511
O30	O	1.641449	0.863635	0.739845
C31	C	0.829753	0.100461	-0.000036
C32	C	1.163087	0.433795	0.333297
C33	C	1.496420	0.767128	0.666630
C34	C	0.737463	0.099105	-0.000033
C35	C	1.070796	0.432438	0.333300
C36	C	1.404129	0.765772	0.666633
C37	C	0.525128	0.095967	0.079792
C38	C	0.858461	0.429301	0.413125
C39	C	1.191794	0.762634	0.746459
C40	C	0.438412	0.094685	0.079789
C41	C	0.771745	0.428019	0.413122
C42	C	1.105078	0.761352	0.746456
C43	C	0.438432	0.094690	-0.079887
C44	C	0.771765	0.428024	0.253447
C45	C	1.105098	0.761357	0.586780
C46	C	0.525147	0.095968	-0.079883
C47	C	0.858480	0.429301	0.253451
C48	C	1.191813	0.762634	0.586784
C49	C	0.568492	0.096609	-0.000041
C50	C	0.901825	0.429943	0.333293
C51	C	1.235158	0.763276	0.666626
C52	C	0.395061	0.094050	-0.000048
C53	C	0.728394	0.427384	0.333286
C54	C	1.061728	0.760717	0.666619
C55	C	0.301040	0.092660	-0.000051
C56	C	0.634373	0.425993	0.333282
C57	C	0.967707	0.759327	0.666615
C58	C	0.662519	0.097998	-0.000037
C59	C	0.995852	0.431332	0.333297
C60	C	1.329186	0.764665	0.666630
C61	C	0.988314	-0.032322	-0.000029
C62	C	1.321647	0.301011	0.333304
C63	C	1.654981	0.634345	0.666637
C64	C	0.986958	-0.109830	-0.000027
C65	C	1.320291	0.223503	0.333306
C66	C	1.653625	0.556837	0.666640
C67	C	0.986330	-0.146229	-0.079861
C68	C	1.319663	0.187104	0.253472
C69	C	1.652996	0.520437	0.586806
C70	C	0.985044	-0.219055	-0.079868
C71	C	1.318377	0.114278	0.253466
C72	C	1.651711	0.447612	0.586799
C73	C	0.984403	-0.255480	-0.000036
C74	C	1.317736	0.077853	0.333298
C75	C	1.651070	0.411186	0.666631
C76	C	0.985027	-0.219071	0.079809
C77	C	1.318360	0.114262	0.413142
C78	C	1.651693	0.447595	0.746476
C79	C	0.986304	-0.146246	0.079813
C80	C	1.319637	0.187087	0.413147
C81	C	1.652971	0.520420	0.746480
N82	N	1.029706	-0.375038	0.059380
N83	N	1.363039	-0.041705	0.392713
N84	N	1.696373	0.291628	0.726047
N85	N	1.028494	-0.444219	0.059371
N86	N	1.361827	-0.110886	0.392704
N87	N	1.695161	0.222447	0.726037
C88	C	0.980552	-0.474898	-0.000044
C89	C	1.313885	-0.141565	0.333289
C90	C	1.647219	0.191768	0.666623
N91	N	0.933878	-0.433784	-0.059462
N92	N	1.267211	-0.100451	0.273871
N93	N	1.600544	0.232882	0.607205
N94	N	0.935093	-0.364597	-0.059455
N95	N	1.268427	-0.031264	0.273878
N96	N	1.601760	0.302070	0.607212
C97	C	0.983017	-0.334447	-0.000032
C98	C	1.316350	-0.001114	0.333302
C99	C	1.649684	0.332220	0.666635
C100	C	0.978528	-0.590264	-0.079891
C101	C	1.311861	-0.256931	0.253442
C102	C	1.645195	0.076403	0.586776
C103	C	0.977237	-0.663090	-0.079894
C104	C	1.310570	-0.329757	0.253439
C105	C	1.643904	0.003576	0.586772
C106	C	0.977228	-0.663106	0.079785
C107	C	1.310561	-0.329773	0.413118
C108	C	1.643895	0.003560	0.746451
C109	C	0.978511	-0.590280	0.079786
C110	C	1.311844	-0.256947	0.413119
C111	C	1.645177	0.076386	0.746452
C112	C	0.979165	-0.553864	-0.000055
C113	C	1.312498	-0.220531	0.333279
C114	C	1.645831	0.112803	0.666612
C115	C	1.133799	0.090198	-0.000046
C116	C	1.467133	0.423532	0.333287
C117	C	1.800466	0.756865	0.666620
C118	C	1.226090	0.091555	-0.000055
C119	C	1.559423	0.424888	0.333278
C120	C	1.892757	0.758222	0.666612
C121	C	0.975239	0.222982	-0.000053
C122	C	1.308572	0.556315	0.333280
C123	C	1.641905	0.889648	0.666613
C124	C	0.976595	0.300490	-0.000061
C125	C	1.309928	0.633823	0.333272
C126	C	1.643261	0.967156	0.666605
N127	N	0.981769	0.095327	0.228134
N128	N	1.315102	0.428660	0.561468
N129	N	1.648436	0.761994	0.894801
N130	N	0.981790	0.095327	-0.228215
N131	N	1.315123	0.428660	0.105118
N132	N	1.648457	0.761994	0.438452
C133	C	1.038484	0.047864	0.453860
C134	C	1.371817	0.381198	0.787194
C135	C	1.705151	0.714531	1.120527
C136	C	1.038487	0.047863	0.546050
C137	C	1.371820	0.381196	0.879383
C138	C	1.705153	0.714529	1.212717
C139	C	0.925069	0.142792	0.546053
C140	C	1.258403	0.476125	0.879386
C141	C	1.591736	0.809459	1.212719
C142	C	0.925063	0.142790	0.453865
C143	C	1.258397	0.476123	0.787198
C144	C	1.591730	0.809456	1.120531
C145	C	0.981775	0.095327	0.407771
C146	C	1.315109	0.428660	0.741104
C147	C	1.648442	0.761993	1.074438
C148	C	0.981784	0.095327	0.592148
C149	C	1.315117	0.428661	0.925482
C150	C	1.648451	0.761994	1.258815
C151	C	0.981786	0.095326	0.692105
C152	C	1.315120	0.428659	1.025438
C153	C	1.648453	0.761993	1.358771
C154	C	0.981772	0.095327	0.307808
C155	C	1.315105	0.428660	0.641142
C156	C	1.648439	0.761994	0.974475
H157	H	0.560455	0.096489	-0.144896
H158	H	0.893788	0.429822	0.188437
H159	H	1.227122	0.763155	0.521770
H160	H	0.986860	-0.116583	-0.144873
H161	H	1.320193	0.216750	0.188460
H162	H	1.653526	0.550083	0.521793
H163	H	0.986812	-0.116610	0.144826
H164	H	1.320146	0.216724	0.478159
H165	H	1.653479	0.550057	0.811492
F166	F	0.984339	-0.257838	0.164772
F167	F	1.317672	0.075495	0.498105
F168	F	1.651006	0.408829	0.831438
F169	F	0.984374	-0.257802	-0.164841
F170	F	1.317708	0.075531	0.168492
F171	F	1.651041	0.408865	0.501825
F172	F	0.864717	0.193305	0.595115
F173	F	1.198050	0.526638	0.928448
F174	F	1.531384	0.859972	1.261782
H175	H	0.403109	0.094162	0.144797
H176	H	0.736442	0.427496	0.478130
H177	H	1.069775	0.760829	0.811464
F178	F	0.979219	-0.551504	-0.164862
F179	F	1.312552	-0.218170	0.168471
F180	F	1.645885	0.115163	0.501804
F181	F	0.392295	0.093993	-0.164855
F182	F	0.725629	0.427327	0.168478
F183	F	1.058962	0.760660	0.501811
F184	F	0.571256	0.096648	0.164767
F185	F	0.904590	0.429981	0.498100
F186	F	1.237923	0.763314	0.831433
H187	H	1.084663	0.009214	0.583573
H188	H	1.417996	0.342547	0.916907
H189	H	1.751330	0.675881	1.250240
F190	F	0.976563	-0.701829	-0.164869
F191	F	1.309896	-0.368495	0.168464
F192	F	1.643229	-0.035162	0.501797
F193	F	0.976542	-0.701867	0.164749
F194	F	1.309875	-0.368534	0.498082
F195	F	1.643208	-0.035201	0.831415
H196	H	0.979029	-0.560644	0.144795
H197	H	1.312363	-0.227311	0.478129
H198	H	1.645696	0.106023	0.811462
F199	F	1.098840	-0.002652	0.404807
F200	F	1.432173	0.330682	0.738141
F201	F	1.765507	0.664015	1.071474
H202	H	0.878880	0.181440	0.416336
H203	H	1.212214	0.514773	0.749670
H204	H	1.545547	0.848106	1.083003
