data_functionalizedCrystal
_audit_creation_method	'MofGen! by Chris Wilmer'
_symmetry_space_group_name_H-M	'P1'
_symmetry_Int_Tables_number	1
_symmetry_cell_setting	triclinic
loop_
_symmetry_equiv_pos_as_xyz
  x,y,z
_cell_length_a	14.519731
_cell_length_b	13.596369
_cell_length_c	14.519731
_cell_angle_alpha	89.988654
_cell_angle_beta	96.311147
_cell_angle_gamma	90.005416
loop_
_atom_site_label
_atom_site_type_symbol
_atom_site_fract_x
_atom_site_fract_y
_atom_site_fract_z
O1	O	1.223866	0.081806	-0.120985
O2	O	1.473866	0.331806	0.129015
O3	O	1.723866	0.581806	0.379015
O4	O	1.973866	0.831806	0.629015
O5	O	0.955392	0.081809	-0.135201
O6	O	1.205392	0.331809	0.114799
O7	O	1.455392	0.581809	0.364799
O8	O	1.705392	0.831809	0.614799
O9	O	1.096737	0.081787	0.006144
O10	O	1.346737	0.331787	0.256144
O11	O	1.596737	0.581787	0.506144
O12	O	1.846737	0.831787	0.756144
O13	O	1.082521	0.081827	-0.262330
O14	O	1.332521	0.331827	-0.012330
O15	O	1.582521	0.581827	0.237670
O16	O	1.832521	0.831827	0.487670
O17	O	1.096723	-0.081796	0.006151
O18	O	1.346723	0.168204	0.256151
O19	O	1.596723	0.418204	0.506151
O20	O	1.846723	0.668204	0.756151
O21	O	0.955378	-0.081774	-0.135194
O22	O	1.205378	0.168226	0.114806
O23	O	1.455378	0.418226	0.364806
O24	O	1.705378	0.668226	0.614806
O25	O	1.223851	-0.081777	-0.120978
O26	O	1.473851	0.168223	0.129022
O27	O	1.723851	0.418223	0.379022
O28	O	1.973851	0.668223	0.629022
Zn29	Zn	1.089613	-0.107748	-0.128084
Zn30	Zn	1.339613	0.142252	0.121916
Zn31	Zn	1.589613	0.392252	0.371916
Zn32	Zn	1.839613	0.642252	0.621916
Zn33	Zn	1.089631	0.107779	-0.128094
Zn34	Zn	1.339631	0.357779	0.121906
Zn35	Zn	1.589631	0.607779	0.371906
Zn36	Zn	1.839631	0.857779	0.621906
O37	O	1.082507	-0.081756	-0.262322
O38	O	1.332507	0.168244	-0.012322
O39	O	1.582507	0.418244	0.237678
O40	O	1.832507	0.668244	0.487678
C41	C	0.921026	0.000017	-0.134531
C42	C	1.171026	0.250017	0.115469
C43	C	1.421026	0.500017	0.365469
C44	C	1.671026	0.750017	0.615469
C45	C	0.818645	0.000017	-0.132535
C46	C	1.068645	0.250017	0.117465
C47	C	1.318645	0.500017	0.367465
C48	C	1.568645	0.750017	0.617465
N49	N	1.089607	-0.254840	-0.128077
N50	N	1.339607	-0.004840	0.121923
N51	N	1.589607	0.245160	0.371923
N52	N	1.839607	0.495160	0.621923
C53	C	1.089630	-0.656131	-0.128095
C54	C	1.339630	-0.406131	0.121905
C55	C	1.589630	-0.156131	0.371905
C56	C	1.839630	0.093869	0.621905
C57	C	1.089621	-0.544480	-0.128093
C58	C	1.339621	-0.294480	0.121907
C59	C	1.589621	-0.044480	0.371907
C60	C	1.839621	0.205520	0.621907
C61	C	1.089619	-0.455489	-0.128087
C62	C	1.339619	-0.205489	0.121913
C63	C	1.589619	0.044511	0.371913
C64	C	1.839619	0.294511	0.621913
C65	C	1.089609	-0.343831	-0.128084
C66	C	1.339609	-0.093831	0.121916
C67	C	1.589609	0.156169	0.371916
C68	C	1.839609	0.406169	0.621916
C69	C	0.735501	0.000021	-0.130913
C70	C	0.985501	0.250021	0.119087
C71	C	1.235501	0.500021	0.369087
C72	C	1.485501	0.750021	0.619087
C73	C	0.631192	0.000021	-0.128887
C74	C	0.881192	0.250021	0.121113
C75	C	1.131192	0.500021	0.371113
C76	C	1.381192	0.750021	0.621113
C77	C	0.548053	0.000021	-0.127278
C78	C	0.798053	0.250021	0.122722
C79	C	1.048053	0.500021	0.372722
C80	C	1.298053	0.750021	0.622722
C81	C	0.443738	0.000023	-0.125252
C82	C	0.693738	0.250023	0.124748
C83	C	0.943738	0.500023	0.374748
C84	C	1.193738	0.750023	0.624748
C85	C	1.258218	0.000016	-0.121648
C86	C	1.508218	0.250016	0.128352
C87	C	1.758218	0.500016	0.378352
C88	C	2.008218	0.750016	0.628352
C89	C	1.360598	0.000022	-0.123644
C90	C	1.610598	0.250022	0.126356
C91	C	1.860598	0.500022	0.376356
C92	C	2.110598	0.750022	0.626356
C93	C	1.096064	-0.000007	0.040507
C94	C	1.346064	0.249993	0.290507
C95	C	1.596064	0.499993	0.540507
C96	C	1.846064	0.749993	0.790507
C97	C	1.094068	-0.000016	0.142887
C98	C	1.344068	0.249984	0.392887
C99	C	1.594068	0.499984	0.642887
C100	C	1.844068	0.749984	0.892887
N101	N	1.089644	0.254871	-0.128094
N102	N	1.339644	0.504871	0.121906
N103	N	1.589644	0.754871	0.371906
N104	N	1.839644	1.004871	0.621906
C105	C	1.092446	-0.000021	0.226031
C106	C	1.342446	0.249979	0.476031
C107	C	1.592446	0.499979	0.726031
C108	C	1.842446	0.749979	0.976031
C109	C	1.090419	-0.000022	0.330340
C110	C	1.340419	0.249978	0.580340
C111	C	1.590419	0.499978	0.830340
C112	C	1.840419	0.749978	1.080340
C113	C	1.088811	-0.000022	0.413479
C114	C	1.338811	0.249978	0.663479
C115	C	1.588811	0.499978	0.913479
C116	C	1.838811	0.749978	1.163479
C117	C	1.086785	-0.000025	0.517795
C118	C	1.336785	0.249975	0.767795
C119	C	1.586785	0.499975	1.017795
C120	C	1.836785	0.749975	1.267795
C121	C	1.083180	0.000020	0.703315
C122	C	1.333180	0.250020	0.953315
C123	C	1.583180	0.500020	1.203315
C124	C	1.833180	0.750020	1.453315
C125	C	1.085176	-0.000025	0.600934
C126	C	1.335176	0.249975	0.850934
C127	C	1.585176	0.499975	1.100934
C128	C	1.835176	0.749975	1.350934
