data_functionalizedCrystal
_audit_creation_method	'MofGen! by Chris Wilmer'
_symmetry_space_group_name_H-M	'P1'
_symmetry_Int_Tables_number	1
_symmetry_cell_setting	triclinic
loop_
_symmetry_equiv_pos_as_xyz
  x,y,z
_cell_length_a	17.917603
_cell_length_b	14.560438
_cell_length_c	14.560438
_cell_angle_alpha	60.006366
_cell_angle_beta	90.000350
_cell_angle_gamma	57.010693
loop_
_atom_site_label
_atom_site_type_symbol
_atom_site_fract_x
_atom_site_fract_y
_atom_site_fract_z
Zr1	Zr	0.754937	0.920643	-0.078109
O2	O	0.629819	1.126242	-0.231734
O3	O	0.793288	0.724762	-0.031034
O4	O	0.793293	0.916349	-0.222609
O5	O	0.629815	0.934654	0.110981
O6	O	0.922250	0.901906	-0.215389
O7	O	0.629814	0.934656	-0.040159
O8	O	0.922241	0.559193	0.127304
O9	O	0.629824	1.277367	-0.231712
O10	O	0.905889	0.790953	-0.005545
O11	O	0.809651	0.801730	0.101861
O12	O	0.809657	1.027298	-0.123694
O13	O	0.713419	1.038075	-0.016288
Zr14	Zr	0.960610	0.897606	0.174458
Zr15	Zr	0.960608	0.897608	-0.066593
Zr16	Zr	0.754939	0.920640	0.162943
Zr17	Zr	0.754945	1.161669	-0.078073
Zr18	Zr	0.960602	0.656579	0.174423
O19	O	0.922259	1.093486	0.127384
O20	O	0.922256	1.093490	-0.215361
O21	O	0.629821	1.126238	0.111010
O22	O	1.085729	0.692006	0.328084
O23	O	1.085726	0.692010	-0.014660
O24	O	0.793291	0.724758	0.311710
O25	O	1.085732	0.883594	-0.014632
O26	O	0.922254	0.901900	0.318959
O27	O	0.793297	0.916342	0.311739
O28	O	1.085734	0.883593	0.136509
O29	O	0.793305	1.259058	-0.222558
O30	O	0.922242	0.559191	0.318908
O31	O	1.085723	0.540882	0.328062
O32	O	1.085722	0.540884	0.136458
O33	O	0.629825	1.277365	-0.040108
O34	O	0.793306	1.259055	-0.030955
O35	O	0.905890	0.790950	0.220044
O36	O	1.002129	0.780173	0.112638
O37	O	0.905896	1.016518	-0.005511
O38	O	0.809658	1.027295	0.101895
C39	C	0.857763	0.607637	0.048130
C40	C	0.857760	0.505314	0.048115
C41	C	0.786722	0.548398	-0.039084
C42	C	0.786737	0.452207	-0.039027
C43	C	0.928833	0.269850	0.135439
C44	C	0.928821	0.366040	0.135376
C45	C	0.715661	0.687673	-0.126345
C46	C	0.644616	0.730764	-0.213551
C47	C	0.644632	0.634573	-0.213493
C48	C	0.715692	0.495291	-0.126231
C49	C	0.600510	0.937937	0.033770
C50	C	0.513198	0.947715	0.028882
C51	C	0.353354	0.965577	0.019954
C52	C	0.362186	0.852677	0.076393
C53	C	0.273244	0.862615	0.071426
C54	C	0.442303	0.955642	0.024920
C55	C	1.115037	0.880312	0.062579
C56	C	1.202350	0.870533	0.067468
C57	C	0.857771	0.909128	-0.253344
C58	C	0.857771	0.909129	-0.355677
C59	C	0.857784	1.210612	0.048220
C60	C	0.857787	1.312934	0.048235
C61	C	0.928822	0.901161	-0.495921
C62	C	0.928817	0.901171	-0.399774
C63	C	0.786718	0.917092	-0.407738
C64	C	0.786720	0.917092	-0.503888
C65	C	0.999878	0.893188	-0.540007
C66	C	1.070930	0.885228	-0.487954
C67	C	1.070925	0.885237	-0.391806
C68	C	0.999869	0.893207	-0.347713
C69	C	0.857776	0.909121	0.349694
C70	C	0.857777	0.909119	0.452026
C71	C	1.115027	0.578824	0.062534
C72	C	1.202336	0.466723	0.067408
C73	C	0.857766	0.607633	0.349649
C74	C	0.857763	0.505310	0.451966
C75	C	1.115029	0.578820	0.364053
C76	C	1.202339	0.466718	0.471259
C77	C	0.600518	1.239428	-0.267703
C78	C	0.513208	1.351530	-0.374910
C79	C	0.600521	1.239424	0.033815
C80	C	0.513211	1.351525	0.028942
C81	C	0.857782	1.210615	-0.253299
C82	C	0.857784	1.312939	-0.355617
C83	C	1.193101	0.419706	0.007996
C84	C	1.275129	0.314390	0.012552
C85	C	1.366392	0.256086	0.076528
C86	C	1.375625	0.303112	0.135941
C87	C	1.293597	0.408433	0.131378
C88	C	1.293585	0.408448	0.465540
C89	C	1.375629	0.303128	0.566263
C90	C	1.366427	0.256075	0.672704
C91	C	1.275171	0.314357	0.678420
C92	C	1.193128	0.419681	0.577699
C93	C	0.421963	1.409812	-0.369191
C94	C	0.339918	1.515161	-0.469913
C95	C	0.349121	1.562220	-0.576354
C96	C	0.440376	1.503932	-0.582071
C97	C	0.522419	1.398591	-0.481349
C98	C	0.522446	1.398552	0.088343
C99	C	0.440418	1.503895	0.083761
C100	C	0.349155	1.562203	0.019782
C101	C	0.339922	1.515172	-0.039627
C102	C	0.421950	1.409837	-0.035050
C103	C	0.907999	0.451606	0.561726
C104	C	0.907989	0.355468	0.657859
C105	C	0.807505	0.366743	0.534461
C106	C	0.807510	0.462886	0.438329
C107	C	0.958252	0.494030	0.575363
C108	C	1.008494	0.440325	0.685127
C109	C	1.008483	0.344187	0.781261
C110	C	0.958232	0.301754	0.767630
H111	H	0.715713	0.416972	-0.126207
H112	H	1.433176	0.170326	0.080235
H113	H	0.447858	1.542261	-0.668747
H114	H	0.596749	1.351085	0.140449
H115	H	0.728868	0.923575	-0.546271
H116	H	0.279000	1.069690	-0.032093
H117	H	0.265622	1.562602	-0.465237
Br118	Br	1.076653	0.271319	0.930223
H119	H	0.958219	0.223483	0.845914
H120	H	0.766593	0.332185	0.523373
Br121	Br	1.499489	0.223966	0.222763
Br122	Br	1.499463	0.224051	0.558478
H123	H	1.049400	0.474888	0.696216
H124	H	1.267593	0.276115	-0.035830
H125	H	0.447954	1.542169	0.132144
H126	H	0.282371	1.647972	0.016065
H127	H	0.265606	1.562662	-0.091717
Br128	Br	0.999893	0.893162	-0.670485
Br129	Br	1.069255	0.498815	-0.078840
Br130	Br	0.237766	1.705185	-0.713039
H131	H	0.766605	0.506610	0.348957
H132	H	0.596713	1.351138	-0.486019
H133	H	1.301130	0.446701	0.179765
Br134	Br	1.167348	0.874435	-0.547803
H135	H	0.414417	1.371552	-0.083419
H136	H	0.715638	0.766006	-0.126399
Br137	Br	0.548192	0.919778	-0.331982
Br138	Br	0.958273	0.624496	0.444900
H139	H	0.586789	0.669664	-0.284506
H140	H	0.436545	0.748555	0.128443
H141	H	0.999866	0.893228	-0.269430
H142	H	1.128772	0.878769	-0.349432
Br143	Br	1.477782	0.113133	0.809389
H144	H	0.986685	0.156444	0.206485
Br145	Br	1.306101	0.472288	0.321098
H146	H	0.986665	0.330954	0.206382
Br147	Br	1.262698	0.250484	0.822886
Br148	Br	1.069298	0.498745	0.585481
Br149	Br	0.690293	0.927905	-0.347896
Br150	Br	0.409446	1.345968	-0.224749
