data_functionalizedCrystal
_audit_creation_method	'MofGen! by Chris Wilmer'
_symmetry_space_group_name_H-M	'P1'
_symmetry_Int_Tables_number	1
_symmetry_cell_setting	triclinic
loop_
_symmetry_equiv_pos_as_xyz
  x,y,z
_cell_length_a	19.288867
_cell_length_b	15.625429
_cell_length_c	18.366186
_cell_angle_alpha	71.916618
_cell_angle_beta	89.992441
_cell_angle_gamma	83.712539
loop_
_atom_site_label
_atom_site_type_symbol
_atom_site_fract_x
_atom_site_fract_y
_atom_site_fract_z
O1	O	0.921733	0.112472	-0.090216
O2	O	1.421733	0.612472	0.409784
O3	O	0.719524	0.127641	-0.094228
O4	O	1.219524	0.627641	0.405772
O5	O	0.826028	-0.011203	-0.057565
O6	O	1.326028	0.488797	0.442435
O7	O	0.815229	0.251317	-0.126878
O8	O	1.315229	0.751317	0.373122
O9	O	0.826010	-0.011210	0.063536
O10	O	1.326010	0.488790	0.563536
O11	O	0.719506	0.127635	0.026874
O12	O	1.219506	0.627635	0.526874
O13	O	0.921715	0.112465	0.030885
O14	O	1.421715	0.612465	0.530885
Zn15	Zn	0.820607	0.120049	0.048107
Zn16	Zn	1.320607	0.620049	0.548107
Zn17	Zn	0.820631	0.120058	-0.111449
Zn18	Zn	1.320631	0.620058	0.388551
O19	O	0.815210	0.251310	-0.005777
O20	O	1.315210	0.751310	0.494223
C21	C	0.693637	0.127150	-0.033549
C22	C	1.193637	0.627150	0.466451
C23	C	0.616528	0.125684	-0.033164
C24	C	1.116528	0.625684	0.466836
C25	C	0.060937	0.115127	-0.096380
C26	C	0.560937	0.615127	0.403620
C27	C	0.133389	0.116499	-0.096745
C28	C	0.633389	0.616499	0.403255
C29	C	0.169610	0.117186	-0.030915
C30	C	0.669610	0.617186	0.469085
C31	C	0.133375	0.116477	0.035291
C32	C	0.633375	0.616477	0.535291
C33	C	0.060925	0.115096	0.035656
C34	C	0.560925	0.615096	0.535656
C35	C	0.279116	0.172173	0.005140
C36	C	0.779116	0.672173	0.505140
C37	C	0.351564	0.173560	0.004770
C38	C	0.851564	0.673560	0.504770
C39	C	0.393070	0.121442	-0.032039
C40	C	0.893070	0.621442	0.467961
C41	C	0.362118	0.067949	-0.068493
C42	C	0.862118	0.567949	0.431507
C43	C	0.289668	0.066567	-0.068127
C44	C	0.789668	0.566567	0.431873
C45	C	0.248170	0.118683	-0.031304
C46	C	0.748170	0.618683	0.468696
C47	C	0.507858	0.123632	-0.098635
C48	C	1.007858	0.623632	0.401365
C49	C	0.580312	0.124999	-0.098995
C50	C	1.080312	0.624999	0.401005
C51	C	0.580296	0.124985	0.033040
C52	C	1.080296	0.624985	0.533040
C53	C	0.507844	0.123610	0.033401
C54	C	1.007844	0.623610	0.533401
C55	C	0.471629	0.122937	-0.032439
C56	C	0.971629	0.622937	0.467561
C57	C	0.825529	-0.044792	0.011851
C58	C	1.325529	0.455208	0.511851
C59	C	0.824061	-0.144867	0.038269
C60	C	1.324061	0.355133	0.538269
C61	C	0.819263	-0.473983	-0.204880
C62	C	1.319263	0.026017	0.295120
C63	C	0.817880	-0.568018	-0.180034
C64	C	1.317880	-0.068018	0.319966
C65	C	0.817861	-0.568011	-0.048018
C66	C	1.317861	-0.068011	0.451982
C67	C	0.819247	-0.473975	-0.072853
C68	C	1.319247	0.026025	0.427147
C69	C	0.819947	-0.426968	-0.151285
C70	C	1.319947	0.073032	0.348715
C71	C	0.819931	-0.426960	-0.019257
C72	C	1.319931	0.073040	0.480743
C73	C	0.821313	-0.332932	-0.044091
C74	C	1.321313	0.167068	0.455909
C75	C	0.822011	-0.285918	-0.122520
C76	C	1.322011	0.214082	0.377480
C77	C	0.821329	-0.332939	-0.176118
C78	C	1.321329	0.167061	0.323882
C79	C	0.819225	-0.473968	0.059174
C80	C	1.319225	0.026032	0.559174
C81	C	0.819909	-0.426954	0.112769
C82	C	1.319909	0.073046	0.612769
C83	C	0.821297	-0.332924	0.087936
C84	C	1.321297	0.167076	0.587936
C85	C	0.821995	-0.285910	0.009508
C86	C	1.321995	0.214090	0.509508
C87	C	0.821979	-0.285903	0.141535
C88	C	1.321979	0.214097	0.641535
C89	C	0.823361	-0.191874	0.116701
C90	C	1.323361	0.308126	0.616701
C91	C	0.823377	-0.191881	-0.015326
C92	C	1.323377	0.308119	0.484674
C93	C	0.947602	0.112957	-0.029795
C94	C	1.447602	0.612957	0.470205
C95	C	1.024710	0.114423	-0.030184
C96	C	1.524710	0.614423	0.469816
C97	C	0.815709	0.284899	-0.075195
C98	C	1.315709	0.784899	0.424805
C99	C	0.817177	0.384974	-0.101618
C100	C	1.317177	0.884974	0.398382
N101	N	0.820596	0.120042	0.157000
N102	N	1.320596	0.620042	0.657000
N103	N	0.820648	0.120057	-0.220340
N104	N	1.320648	0.620057	0.279660
C105	C	0.867772	0.058592	0.211326
C106	C	1.367772	0.558592	0.711326
C107	C	0.867776	0.058588	0.287555
C108	C	1.367776	0.558588	0.787555
C109	C	0.820611	0.120050	0.309451
C110	C	1.320611	0.620050	0.809451
C111	C	0.773427	0.181505	0.255114
C112	C	1.273427	0.681505	0.755114
C113	C	0.773419	0.181501	0.178888
C114	C	1.273419	0.681501	0.678888
C115	C	0.811592	0.202193	0.408522
C116	C	1.311592	0.702193	0.908522
C117	C	0.811604	0.202198	0.484746
C118	C	1.311604	0.702198	0.984746
C119	C	0.820631	0.120061	0.544555
C120	C	1.320631	0.620061	1.044555
C121	C	0.829661	0.037916	0.528132
C122	C	1.329661	0.537916	1.028132
C123	C	0.829653	0.037912	0.451907
C124	C	1.329653	0.537912	0.951907
C125	C	0.820614	0.120060	0.392102
C126	C	1.320614	0.620060	0.892102
C127	C	0.867814	0.058601	0.681539
C128	C	1.367814	0.558601	1.181539
C129	C	0.867814	0.058596	0.757770
C130	C	1.367814	0.558596	1.257770
C131	C	0.773468	0.181520	0.725324
C132	C	1.273468	0.681520	1.225324
C133	C	0.773465	0.181518	0.649097
C134	C	1.273465	0.681518	1.149097
C135	C	0.820642	0.120059	0.627209
C136	C	1.320642	0.620059	1.127209
H137	H	0.395911	0.025512	-0.098469
H138	H	0.895911	0.525512	0.401531
Br139	Br	0.222795	0.242897	0.055112
Br140	Br	0.722795	0.742897	0.555112
Br141	Br	0.629447	0.125898	0.122387
Br142	Br	1.129447	0.625898	0.622387
Br143	Br	0.011757	0.114142	0.125500
Br144	Br	0.511757	0.614142	0.625500
Br145	Br	0.931837	-0.024815	0.831507
Br146	Br	1.431837	0.475185	1.331507
Br147	Br	0.931837	-0.024809	0.651832
Br148	Br	1.431837	0.475191	1.151832
H149	H	0.823953	-0.153607	-0.079193
H150	H	1.323953	0.346393	0.420807
Br151	Br	0.816945	-0.631821	-0.252779
Br152	Br	1.316945	-0.131821	0.247221
H153	H	0.478370	0.123082	-0.152245
H154	H	0.978370	0.623082	0.347755
Br155	Br	0.629480	0.125940	-0.188837
Br156	Br	1.129480	0.625940	0.311163
H157	H	0.837003	-0.028973	0.438539
H158	H	1.337003	0.471027	0.938539
H159	H	0.823129	-0.209352	-0.142738
H160	H	1.323129	0.290648	0.357262
Br161	Br	0.458674	0.122667	0.123240
Br162	Br	0.958674	0.622667	0.623240
H163	H	0.817288	-0.606297	0.015842
H164	H	1.317288	-0.106297	0.515842
H165	H	0.376757	0.217139	0.034432
H166	H	0.876757	0.717139	0.534432
H167	H	0.735063	0.231560	0.743152
H168	H	1.235063	0.731560	1.243152
H169	H	0.818092	-0.550531	0.079391
H170	H	1.318092	-0.050531	0.579391
H171	H	0.821905	-0.294665	-0.239985
H172	H	1.321905	0.205335	0.260015
H173	H	0.162871	0.117034	0.088890
H174	H	0.662871	0.617034	0.588890
Br175	Br	0.818951	-0.490755	0.219209
Br176	Br	1.318951	0.009245	0.719209
Br177	Br	0.931805	-0.024817	0.361296
Br178	Br	1.431805	0.475183	0.861296
Br179	Br	0.931793	-0.024816	0.181620
Br180	Br	1.431793	0.475184	0.681620
H181	H	0.804256	0.269085	0.498111
H182	H	1.304256	0.769085	0.998111
Br183	Br	0.247663	-0.006029	-0.117596
Br184	Br	0.747663	0.493971	0.382404
H185	H	0.735053	0.231560	0.604860
H186	H	1.235053	0.731560	1.104860
Br187	Br	0.821011	-0.349705	0.247973
Br188	Br	1.321011	0.150295	0.747973
H189	H	0.819839	-0.435708	-0.268747
H190	H	1.319839	0.064292	0.231253
Br191	Br	0.824291	-0.128062	0.189438
Br192	Br	1.324291	0.371938	0.689438
H193	H	0.837011	-0.028967	0.576829
H194	H	1.337011	0.471033	1.076829
Br195	Br	0.799409	0.313676	0.327358
Br196	Br	1.299409	0.813676	0.827358
Br197	Br	0.709412	0.264912	0.284827
Br198	Br	1.209412	0.764912	0.784827
H199	H	0.031455	0.114576	-0.149992
H200	H	0.531455	0.614576	0.350008
Br201	Br	0.182565	0.117454	-0.186589
Br202	Br	0.682565	0.617454	0.313411
H203	H	0.735002	0.231542	0.134653
H204	H	1.235002	0.731542	0.634653
