data_functionalizedCrystal
_audit_creation_method	'MofGen! by Chris Wilmer'
_symmetry_space_group_name_H-M	'P1'
_symmetry_Int_Tables_number	1
_symmetry_cell_setting	triclinic
loop_
_symmetry_equiv_pos_as_xyz
  x,y,z
_cell_length_a	29.839131
_cell_length_b	17.077404
_cell_length_c	17.077396
_cell_angle_alpha	90.019501
_cell_angle_beta	89.968087
_cell_angle_gamma	89.958355
loop_
_atom_site_label
_atom_site_type_symbol
_atom_site_fract_x
_atom_site_fract_y
_atom_site_fract_z
Zn1	Zn	-0.178851	-1.199954	-0.443824
Zn2	Zn	-0.253981	-1.199818	-0.312550
Zn3	Zn	-0.178866	-1.068685	-0.312572
Zn4	Zn	-0.253955	-1.068611	-0.443774
O5	O	-0.216413	-1.134267	-0.378180
O6	O	-0.188821	-1.309782	-0.426422
O7	O	-0.244035	-1.182398	-0.202706
O8	O	-0.115997	-1.086186	-0.330013
O9	O	-0.244020	-1.309683	-0.329976
O10	O	-0.115986	-1.182628	-0.426443
O11	O	-0.188848	-1.086055	-0.202722
O12	O	-0.188822	-0.958829	-0.329964
O13	O	-0.243974	-1.086059	-0.553627
O14	O	-0.243989	-0.958774	-0.426358
O15	O	-0.188796	-1.182556	-0.553664
O16	O	-0.316845	-1.182325	-0.329927
O17	O	-0.316825	-1.085928	-0.426336
C18	C	-0.216405	-0.930319	-0.378158
C19	C	-0.216412	-0.843069	-0.378168
C20	C	-0.333136	-1.134125	-0.378141
C21	C	-0.383070	-1.134136	-0.378151
C22	C	-0.216380	-1.134314	-0.582924
C23	C	-0.216366	-1.134335	-0.670174
C24	C	-0.692711	-1.184552	-0.328053
C25	C	-0.880384	-1.184649	-0.328083
O26	O	-0.904647	-1.227402	-0.285459
N27	N	-0.903855	-1.134430	-0.378239
C28	C	-0.880405	-1.084186	-0.428394
O29	O	-0.904675	-1.041479	-0.471061
C30	C	-0.692733	-1.084094	-0.428367
C31	C	-0.669264	-1.134311	-0.378203
C32	C	-0.669242	-1.234766	-0.277893
C33	C	-0.622327	-1.234738	-0.277883
C34	C	-0.598880	-1.184497	-0.328033
C35	C	-0.622349	-1.134283	-0.378193
C36	C	-0.669284	-1.033855	-0.478526
C37	C	-0.622363	-1.033837	-0.478516
C38	C	-0.598894	-1.084055	-0.428352
C39	C	-0.551987	-1.084014	-0.428332
N40	N	-0.528516	-1.134233	-0.378177
C41	C	-0.551962	-1.184475	-0.328027
C42	C	-0.978936	-1.084237	-0.428404
C43	C	-1.025854	-1.084259	-0.428410
C44	C	-1.025829	-1.184723	-0.328100
C45	C	-0.978911	-1.184697	-0.328090
C46	C	-0.955465	-1.134457	-0.378248
C47	C	-0.453437	-1.184412	-0.328009
C48	C	-0.406517	-1.184378	-0.328001
C49	C	-0.406545	-1.083917	-0.428314
C50	C	-0.453461	-1.083948	-0.428319
C51	C	-0.476905	-1.134202	-0.378164
O52	O	-0.527695	-1.041290	-0.470941
O53	O	-0.527685	-1.227188	-0.285378
C54	C	-0.739627	-1.184580	-0.328063
C55	C	-0.763095	-1.134366	-0.378223
C56	C	-0.739649	-1.084125	-0.428373
C57	C	-0.810013	-1.134388	-0.378229
C58	C	-0.833460	-1.184630	-0.328079
C59	C	-0.809989	-1.234849	-0.277923
C60	C	-0.763073	-1.234822	-0.277913
C61	C	-0.763120	-1.033905	-0.478529
C62	C	-0.810035	-1.033937	-0.478534
C63	C	-0.833482	-1.084178	-0.428384
C64	C	-0.099235	-1.134431	-0.378236
C65	C	-0.049300	-1.134500	-0.378260
C66	C	-0.216422	-1.339011	-0.378202
C67	C	-0.216425	-1.426261	-0.378212
C68	C	-0.245181	-0.802071	-0.428279
C69	C	-0.245182	-0.720091	-0.428292
C70	C	-0.216416	-0.679110	-0.378188
C71	C	-0.187644	-0.720114	-0.328074
C72	C	-0.187641	-0.802093	-0.328066
C73	C	-0.187653	-0.549244	-0.328093
C74	C	-0.187657	-0.467259	-0.328100
C75	C	-0.245194	-0.467242	-0.428319
C76	C	-0.245191	-0.549221	-0.428311
C77	C	-0.216420	-0.590219	-0.378196
C78	C	-0.187632	-1.184582	-0.711185
C79	C	-0.187617	-1.184592	-0.793165
C80	C	-0.216339	-1.134357	-0.834134
C81	C	-0.245074	-1.084104	-0.793117
C82	C	-0.245086	-1.084091	-0.711138
C83	C	-0.245047	-1.084135	-0.963987
C84	C	-0.245035	-1.084149	-1.045972
C85	C	-0.187578	-1.184636	-1.046014
C86	C	-0.187590	-1.184624	-0.964035
C87	C	-0.216326	-1.134371	-0.923025
C88	C	-0.216414	-1.134265	-0.174232
C89	C	-0.216301	-1.134397	-0.086983
H90	H	-0.387410	-1.225271	-0.287148
N91	N	-0.274394	-1.032806	-0.922081
N92	N	-0.258593	-0.982803	-0.876332
H93	H	-0.279320	-0.946555	-0.846733
N94	N	-0.274410	-1.032774	-0.834951
N95	N	-0.300058	-0.987905	-0.798321
H96	H	-0.320775	-0.951647	-0.827864
N97	N	-0.274351	-1.032803	-1.087827
N98	N	-0.271344	-0.960376	-1.078662
H99	H	-0.292042	-0.924104	-1.108228
N100	N	-0.158274	-1.235932	-0.835059
N101	N	-0.174079	-1.285934	-0.880805
H102	H	-0.153355	-1.322195	-0.910394
N103	N	-0.274559	-0.843928	-0.479471
N104	N	-0.258787	-0.889711	-0.529539
H105	H	-0.279535	-0.919271	-0.565697
H106	H	-0.603222	-1.275632	-0.237037
N107	N	-0.274569	-0.678225	-0.479489
N108	N	-0.300251	-0.714824	-0.524219
H109	H	-0.321007	-0.685257	-0.560382
H110	H	-0.688384	-0.992958	-0.519372
N111	N	-0.274581	-0.591071	-0.479487
N112	N	-0.300267	-0.554459	-0.524227
H113	H	-0.321024	-0.584015	-0.560373
N114	N	-0.274431	-1.032754	-0.669243
N115	N	-0.271443	-0.960327	-0.678388
H116	H	-0.292167	-0.924065	-0.648800
N117	N	-0.477373	-1.235748	-0.276771
N118	N	-0.456406	-1.280572	-0.231990
H119	H	-0.473310	-1.316825	-0.195799
H120	H	-0.959849	-1.043323	-0.469250
H121	H	-0.603275	-0.992926	-0.519363
H122	H	-0.829139	-0.993037	-0.519383
N123	N	-0.477429	-1.032635	-0.479551
N124	N	-0.456487	-0.987775	-0.524318
H125	H	-0.473411	-0.951537	-0.560505
H126	H	-0.688328	-1.275683	-0.237055
N127	N	-0.382589	-1.032613	-0.479551
N128	N	-0.387794	-1.037791	-0.551990
H129	H	-0.370873	-1.001562	-0.588181
H130	H	-0.268619	-0.433857	-0.469126
H131	H	-0.164227	-0.433895	-0.287311
H132	H	-0.959805	-1.225588	-0.287243
H133	H	-0.164245	-1.225492	-0.677834
N134	N	-0.739102	-1.286124	-0.226681
N135	N	-0.712881	-1.336119	-0.254331
H136	H	-0.695952	-1.372353	-0.218145
H137	H	-0.164179	-1.225552	-1.079409
H138	H	-1.044928	-1.225632	-0.287266
H139	H	-0.164213	-0.835472	-0.287265
H140	H	-1.044958	-1.043360	-0.469252
N141	N	-0.158256	-0.591112	-0.276907
N142	N	-0.132573	-0.554515	-0.232177
H143	H	-0.111811	-0.584083	-0.196026
H144	H	-0.829087	-1.275756	-0.237087
N145	N	-0.739180	-0.982580	-0.529766
N146	N	-0.760147	-0.937750	-0.574542
H147	H	-0.743242	-0.901495	-0.610730
N148	N	-0.158254	-0.678255	-0.276906
N149	N	-0.129648	-0.632556	-0.304623
H150	H	-0.108890	-0.602994	-0.268484
H151	H	-0.164205	-1.225534	-0.930681
