data_functionalizedCrystal
_audit_creation_method	'MofGen! by Chris Wilmer'
_symmetry_space_group_name_H-M	'P1'
_symmetry_Int_Tables_number	1
_symmetry_cell_setting	triclinic
loop_
_symmetry_equiv_pos_as_xyz
  x,y,z
_cell_length_a	13.635800
_cell_length_b	27.923497
_cell_length_c	11.168136
_cell_angle_alpha	84.460907
_cell_angle_beta	108.508683
_cell_angle_gamma	81.035752
loop_
_atom_site_label
_atom_site_type_symbol
_atom_site_fract_x
_atom_site_fract_y
_atom_site_fract_z
V1	V	2.031149	-0.067135	0.394531
O2	O	2.035874	0.003219	0.386165
O3	O	1.995911	-0.133110	0.392656
O4	O	2.019659	-0.066105	0.566224
O5	O	2.011962	-0.064250	0.211395
V6	V	2.272746	-0.058719	0.372526
O7	O	2.162138	-0.085595	0.442800
O8	O	2.366855	-0.040259	0.324258
O9	O	2.196380	0.007256	0.374402
O10	O	2.326719	-0.129073	0.380893
O11	O	2.350631	-0.061604	0.555662
O12	O	2.172632	-0.059749	0.200833
V13	V	2.531149	-0.067135	0.394531
O14	O	2.535874	0.003219	0.386165
O15	O	2.495911	-0.133110	0.392656
O16	O	2.519659	-0.066105	0.566224
O17	O	2.511962	-0.064250	0.211395
V18	V	2.772746	-0.058719	0.372526
O19	O	2.662138	-0.085595	0.442800
O20	O	2.866855	-0.040259	0.324258
O21	O	2.696380	0.007256	0.374402
O22	O	2.826719	-0.129073	0.380893
O23	O	2.850631	-0.061604	0.555662
O24	O	2.672632	-0.059749	0.200833
C25	C	1.915315	-0.149193	0.386644
C26	C	1.927232	-0.203128	0.386256
C27	C	1.973767	-0.530649	0.267989
C28	C	2.018585	-0.733356	0.266459
O29	O	2.001092	-0.753675	0.167851
N30	N	2.051621	-0.765632	0.381990
C31	C	2.073460	-0.747229	0.497912
O32	O	2.102597	-0.779333	0.596144
C33	C	2.028649	-0.544523	0.499441
C34	C	1.995602	-0.512249	0.383901
C35	C	1.940724	-0.498375	0.152459
C36	C	1.929515	-0.447701	0.152842
C37	C	1.951349	-0.429301	0.268755
C38	C	1.984393	-0.461575	0.384284
C39	C	2.050495	-0.526121	0.615362
C40	C	2.039291	-0.475440	0.615734
C41	C	2.006244	-0.443166	0.500194
C42	C	1.995018	-0.392501	0.500580
N43	N	1.961983	-0.360225	0.385049
C44	C	1.940148	-0.378625	0.269137
C45	C	2.096982	-0.853652	0.497101
C46	C	2.108183	-0.904329	0.496719
C47	C	2.053310	-0.890452	0.265266
C48	C	2.042102	-0.839775	0.265649
C49	C	2.063947	-0.821376	0.381570
C50	C	1.916610	-0.272206	0.269950
C51	C	1.905398	-0.221529	0.270343
C52	C	1.960277	-0.235409	0.501796
C53	C	1.971483	-0.286083	0.501403
C54	C	1.949650	-0.304480	0.385470
O55	O	2.012504	-0.372148	0.599138
O56	O	1.911035	-0.346513	0.170921
C57	C	1.984976	-0.581323	0.267605
C58	C	2.018020	-0.613596	0.383135
C59	C	2.039854	-0.595196	0.499048
C60	C	2.029221	-0.664273	0.382753
C61	C	2.007386	-0.682673	0.266840
C62	C	1.974351	-0.650397	0.151310
C63	C	1.963142	-0.599723	0.151693
C64	C	2.072890	-0.627472	0.614579
C65	C	2.084096	-0.678145	0.614186
C66	C	2.062261	-0.696546	0.498273
C67	C	1.945607	-0.063722	0.608046
C68	C	1.976781	-0.063316	0.748412
C69	C	2.108646	0.023336	0.380410
C70	C	2.086349	0.077271	0.380807
C71	C	2.078354	-0.062134	0.159005
C72	C	2.036800	-0.062537	0.018638
C73	C	2.415315	-0.149193	0.386644
C74	C	2.427232	-0.203128	0.386256
C75	C	2.445607	-0.063722	0.608046
C76	C	2.476781	-0.063316	0.748412
C77	C	2.077284	-0.065437	0.817130
C78	C	2.109506	-0.065018	0.962205
C79	C	2.608646	0.023336	0.380410
C80	C	2.586349	0.077271	0.380807
C81	C	2.578354	-0.062134	0.159005
C82	C	2.536800	-0.062537	0.018638
C83	C	2.523951	-0.230931	0.392413
C84	C	2.535167	-0.281611	0.392067
C85	C	2.449661	-0.304486	0.385555
C86	C	2.352936	-0.276680	0.379401
C87	C	2.341723	-0.226002	0.379756
C88	C	2.662124	0.105074	0.374653
C89	C	2.641180	0.155753	0.375005
C90	C	2.544463	0.178628	0.381520
C91	C	2.468681	0.150822	0.387670
C92	C	2.489623	0.100145	0.387309
C93	C	2.577284	-0.065437	0.817130
C94	C	2.609506	-0.065018	0.962205
H95	H	1.878484	-0.195252	0.176253
Cl96	Cl	1.889156	-0.295326	0.124203
Cl97	Cl	2.394350	0.065199	0.395051
Cl98	Cl	2.173308	-0.068721	0.742152
H99	H	2.283322	-0.295313	0.374099
Cl100	Cl	2.242440	-0.067824	1.053403
H101	H	1.936233	-0.573449	0.057609
Cl102	Cl	2.518153	0.242339	0.381974
H103	H	2.702898	0.178385	0.369999
H104	H	2.740882	0.086455	0.369349
H105	H	2.695605	-0.066836	1.021279
H106	H	2.450701	-0.060724	0.959575
Cl107	Cl	2.673308	-0.068721	0.742152
H108	H	2.458806	-0.345752	0.385267
H109	H	2.389933	0.169455	0.392973
H110	H	1.950701	-0.060724	0.959575
H111	H	1.902612	-0.421428	0.058758
Cl112	Cl	1.913270	-0.521497	0.006720
Cl113	Cl	2.380757	-0.060031	0.823389
H114	H	2.262961	-0.203368	0.374736
Cl115	Cl	2.000560	-0.799207	0.120395
H116	H	2.035528	-0.905442	0.170885
Cl117	Cl	2.631464	-0.202185	0.400613
Cl118	Cl	2.149692	-0.944895	0.641973
Cl119	Cl	1.880757	-0.060031	0.823389
H120	H	2.613932	-0.304243	0.397075
H121	H	2.114770	-0.838678	0.591504
H122	H	2.057093	-0.460464	0.710134
Cl123	Cl	2.091977	-0.566680	0.760617
H124	H	1.998376	-0.312362	0.595483
H125	H	1.956568	-0.665387	0.056929
Cl126	Cl	1.987716	-0.212268	0.647506
H127	H	2.110998	-0.704420	0.708279
H128	H	2.090672	-0.612497	0.708971
