data_functionalizedCrystal
_audit_creation_method	'MofGen! by Chris Wilmer'
_symmetry_space_group_name_H-M	'P1'
_symmetry_Int_Tables_number	1
_symmetry_cell_setting	triclinic
loop_
_symmetry_equiv_pos_as_xyz
  x,y,z
_cell_length_a	12.759401
_cell_length_b	19.805405
_cell_length_c	12.759393
_cell_angle_alpha	90.034941
_cell_angle_beta	90.021189
_cell_angle_gamma	90.026673
loop_
_atom_site_label
_atom_site_type_symbol
_atom_site_fract_x
_atom_site_fract_y
_atom_site_fract_z
Zn1	Zn	1.606168	-0.269424	0.594032
Zn2	Zn	1.606025	-0.382629	0.418342
Zn3	Zn	1.430470	-0.269459	0.418363
Zn4	Zn	1.430421	-0.382576	0.593975
O5	O	1.518271	-0.326022	0.506178
O6	O	1.753170	-0.284448	0.570741
O7	O	1.582698	-0.367653	0.271324
O8	O	1.453856	-0.174738	0.441699
O9	O	1.753065	-0.367619	0.441663
O10	O	1.582941	-0.174712	0.570762
O11	O	1.453718	-0.284508	0.271339
O12	O	1.283442	-0.284457	0.441644
O13	O	1.453774	-0.367530	0.741004
O14	O	1.283407	-0.367564	0.570665
O15	O	1.582894	-0.284397	0.741046
O16	O	1.582651	-0.477339	0.441607
O17	O	1.453636	-0.477300	0.570644
C18	C	1.245304	-0.326009	0.506151
C19	C	1.128527	-0.326020	0.506164
C20	C	0.963876	-0.369273	0.438899
C21	C	1.073600	-0.369260	0.438869
C22	C	1.073724	-0.282784	0.573486
C23	C	0.964002	-0.282793	0.573510
C24	C	0.963806	-0.419201	0.361182
C25	C	1.073530	-0.419189	0.361152
C26	C	1.518151	-0.501878	0.506140
C27	C	1.518196	-0.577110	0.506159
C28	C	1.585371	-0.612383	0.573415
C29	C	1.585409	-0.683071	0.573434
C30	C	1.518276	-0.718486	0.506192
C31	C	1.451094	-0.683208	0.438933
C32	C	1.451052	-0.612521	0.438920
C33	C	1.451263	-0.968282	0.438987
C34	C	1.451313	-1.038974	0.439003
C35	C	1.585620	-1.038832	0.573502
C36	C	1.585577	-0.968144	0.573488
C37	C	1.518392	-0.932873	0.506234
C38	C	1.518350	-0.856225	0.506215
C39	C	1.518323	-0.795133	0.506205
C40	C	1.792304	-0.326036	0.506206
C41	C	1.909081	-0.326042	0.506218
C42	C	1.518345	-0.325954	0.780212
C43	C	1.518376	-0.325925	0.896988
C44	C	1.518420	-0.149479	0.506239
C45	C	1.518483	-0.074247	0.506265
C46	C	1.518258	-0.326041	0.233211
C47	C	1.518430	-0.325880	0.116435
C48	C	1.585618	-0.282634	0.951874
C49	C	1.585643	-0.282609	1.061598
C50	C	1.451181	-0.369173	1.061541
C51	C	1.451151	-0.369194	0.951819
C52	C	1.663252	-0.232659	0.951907
C53	C	1.663277	-0.232634	1.061632
H54	H	1.107524	-0.400354	0.283897
H55	H	1.118453	-0.247572	0.628272
H56	H	1.744643	-0.246674	1.091413
H57	H	0.929765	-0.469021	0.390200
Br58	Br	1.676492	-0.564327	0.664669
Br59	Br	1.676560	-0.730939	0.664732
Br60	Br	1.359870	-0.427934	0.877334
Br61	Br	1.359971	-0.731270	0.347688
H62	H	1.641500	-0.180241	0.922155
H63	H	1.396447	-0.404399	1.106198
Br64	Br	1.123152	-0.506581	0.397224
Br65	Br	1.792030	-0.263977	0.895171
Br66	Br	0.889638	-0.224110	0.664859
Br67	Br	1.676800	-1.086703	0.664780
H68	H	0.933990	-0.405105	0.279856
Br69	Br	1.676694	-0.920085	0.664744
Br70	Br	1.614609	-0.149667	1.118397
Br71	Br	1.360070	-0.920422	0.347726
Br72	Br	1.360200	-1.087036	0.347739
H73	H	1.396350	-0.583803	0.384155
