data_functionalizedCrystal
_audit_creation_method	'MofGen! by Chris Wilmer'
_symmetry_space_group_name_H-M	'P1'
_symmetry_Int_Tables_number	1
_symmetry_cell_setting	triclinic
loop_
_symmetry_equiv_pos_as_xyz
  x,y,z
_cell_length_a	19.805407
_cell_length_b	12.759400
_cell_length_c	19.805399
_cell_angle_alpha	90.023237
_cell_angle_beta	90.019573
_cell_angle_gamma	90.014685
loop_
_atom_site_label
_atom_site_type_symbol
_atom_site_fract_x
_atom_site_fract_y
_atom_site_fract_z
Zn1	Zn	1.034791	-0.418291	0.382740
Zn2	Zn	1.034729	-0.593984	0.269560
Zn3	Zn	0.921605	-0.418320	0.269565
Zn4	Zn	0.921592	-0.593928	0.382707
O5	O	0.978179	-0.506131	0.326143
O6	O	1.129499	-0.441608	0.367739
O7	O	1.019702	-0.570717	0.174844
O8	O	0.936651	-0.271295	0.284593
O9	O	1.129454	-0.570689	0.284586
O10	O	1.019808	-0.271273	0.367743
O11	O	0.936591	-0.441657	0.174848
O12	O	0.826887	-0.441603	0.284561
O13	O	0.936629	-0.570594	0.477428
O14	O	0.826877	-0.570622	0.367687
O15	O	1.019795	-0.441554	0.477452
O16	O	1.019689	-0.740998	0.284554
O17	O	0.936568	-0.740957	0.367682
C18	C	0.802323	-0.506110	0.326121
C19	C	0.727091	-0.506127	0.326128
C20	C	0.691760	-0.573408	0.369341
C21	C	0.621071	-0.573410	0.369351
C22	C	0.585716	-0.506135	0.326143
C23	C	0.621052	-0.438847	0.282928
C24	C	0.691739	-0.438840	0.282922
C25	C	0.335979	-0.438870	0.282950
C26	C	0.265287	-0.438884	0.282958
C27	C	0.265311	-0.573440	0.369379
C28	C	0.335998	-0.573433	0.369373
C29	C	0.371328	-0.506141	0.326161
C30	C	0.447977	-0.506139	0.326152
C31	C	0.509069	-0.506142	0.326148
C32	C	0.978139	-0.779098	0.326129
C33	C	0.978184	-0.895875	0.326146
C34	C	1.021513	-0.950723	0.282908
C35	C	1.021555	-1.060447	0.282929
C36	C	0.934932	-1.060464	0.369426
C37	C	0.934894	-0.950742	0.369408
C38	C	1.064802	-0.895855	0.239646
C39	C	1.108135	-0.950704	0.196404
C40	C	1.108176	-1.060428	0.196425
C41	C	1.064886	-1.115303	0.239687
C42	C	1.154722	-0.506152	0.326165
C43	C	1.229954	-0.506160	0.326175
C44	C	0.978217	-0.506064	0.502686
C45	C	0.978233	-0.506036	0.577918
C46	C	0.978238	-0.232097	0.326172
C47	C	0.978263	-0.115321	0.326184
C48	C	0.978180	-0.506121	0.150287
C49	C	0.978295	-0.505853	0.075055
C50	C	1.021539	-0.438842	0.613276
C51	C	1.021546	-0.438811	0.683964
C52	C	0.978250	-0.505981	0.719294
C53	C	0.934940	-0.573179	0.683931
C54	C	0.934930	-0.573203	0.613244
C55	C	0.934978	-0.573081	0.969004
C56	C	0.934992	-0.573054	1.039696
C57	C	1.021594	-0.438689	1.039725
C58	C	1.021584	-0.438713	0.969038
C59	C	0.978272	-0.505906	0.933681
C60	C	0.978264	-0.505937	0.857033
C61	C	0.978261	-0.505957	0.795941
H62	H	0.720541	-0.628195	0.404524
H63	H	1.064772	-0.806512	0.239622
H64	H	0.592260	-0.384066	0.247750
H65	H	0.899733	-0.627754	1.068460
C66	C	0.374834	-0.364870	0.235407
H67	H	0.343651	-0.324819	0.209669
H68	H	0.402429	-0.319136	0.261338
H69	H	0.402387	-0.405012	0.205868
H70	H	1.143384	-0.906019	0.161186
C71	C	1.069207	-0.364827	0.930176
H72	H	1.063002	-0.374471	0.883013
H73	H	1.059318	-0.294232	0.941767
H74	H	1.114686	-0.380209	0.941766
C75	C	0.887313	-1.120820	0.417008
H76	H	0.861505	-1.072438	0.442761
H77	H	0.857852	-1.163686	0.391097
H78	H	0.913208	-1.163559	0.446532
C79	C	0.730604	-0.364829	0.235389
H80	H	0.699425	-0.324769	0.209653
H81	H	0.758194	-0.319105	0.261332
H82	H	0.758163	-0.404958	0.205847
C83	C	0.582206	-0.647420	0.416883
H84	H	0.535044	-0.637782	0.410705
H85	H	0.593776	-0.717989	0.406896
H86	H	0.593815	-0.632132	0.462378
H87	H	0.899685	-0.627866	0.712702
C88	C	0.374886	-0.647432	0.416903
H89	H	0.343719	-0.687496	0.442647
H90	H	0.402446	-0.693154	0.390962
H91	H	0.402476	-0.607288	0.446438
H92	H	1.143464	-1.105083	0.161221
H93	H	1.056859	-0.383973	1.068521
C94	C	0.226446	-0.647450	0.416919
H95	H	0.179283	-0.637814	0.410742
H96	H	0.238016	-0.718019	0.406934
H97	H	0.238055	-0.632160	0.462414
H98	H	1.064928	-1.204648	0.239706
H99	H	0.236502	-0.384094	0.247773
H100	H	0.899720	-0.627809	0.940225
H101	H	0.899613	-0.906084	0.404617
H102	H	1.056798	-0.384147	0.584516
C103	C	1.069186	-0.364902	0.722855
H104	H	1.094976	-0.324912	0.691690
H105	H	1.043312	-0.319108	0.750430
H106	H	1.098673	-0.405096	0.750431
C107	C	0.887310	-0.647143	0.574350
H108	H	0.861535	-0.687158	0.605514
H109	H	0.857819	-0.606981	0.546766
H110	H	0.913206	-0.692929	0.546783
