data_functionalizedCrystal
_audit_creation_method	'MofGen! by Chris Wilmer'
_symmetry_space_group_name_H-M	'P1'
_symmetry_Int_Tables_number	1
_symmetry_cell_setting	triclinic
loop_
_symmetry_equiv_pos_as_xyz
  x,y,z
_cell_length_a	10.908878
_cell_length_b	9.130307
_cell_length_c	11.026607
_cell_angle_alpha	89.996706
_cell_angle_beta	84.335404
_cell_angle_gamma	89.999142
loop_
_atom_site_label
_atom_site_type_symbol
_atom_site_fract_x
_atom_site_fract_y
_atom_site_fract_z
O1	O	1.662452	-0.121775	-0.179074
O2	O	1.309518	-0.121782	-0.088533
O3	O	1.456734	-0.121774	-0.304554
O4	O	1.515236	-0.121783	0.036947
O5	O	1.456730	0.121825	-0.304560
O6	O	1.309513	0.121817	-0.088540
O7	O	1.662448	0.121824	-0.179080
Cu8	Cu	1.485980	0.144063	-0.133810
Cu9	Cu	1.485985	-0.144021	-0.133803
O10	O	1.515232	0.121816	0.036940
C11	C	1.263630	0.000017	-0.080075
C12	C	1.126902	0.000014	-0.054876
C13	C	1.056640	0.000016	-0.146821
C14	C	0.915324	0.000013	-0.120779
N15	N	1.485988	-0.346644	-0.133806
C16	C	1.616742	-0.346627	-0.324867
C17	C	1.682114	-0.423285	-0.420405
C18	C	1.682110	-0.576618	-0.420418
C19	C	1.616731	-0.653297	-0.324881
C20	C	1.551360	-0.576639	-0.229343
C21	C	1.551368	-0.423302	-0.229342
C22	C	1.420614	-0.576656	-0.038280
C23	C	1.420609	-0.423323	-0.038269
C24	C	1.355235	-0.653335	0.057257
C25	C	1.289855	-0.576677	0.152793
C26	C	1.289861	-0.423334	0.152801
C27	C	1.355238	-0.346665	0.057269
C28	C	1.708336	0.000022	-0.187538
C29	C	1.845063	0.000015	-0.212737
C30	C	1.445939	0.000024	-0.347589
C31	C	1.413766	0.000018	-0.475811
N32	N	1.485985	0.346686	-0.133818
C33	C	1.502601	0.000017	-0.567544
C34	C	1.469351	0.000011	-0.700068
C35	C	1.526026	0.000015	0.079976
C36	C	1.558199	0.000011	0.208198
H37	H	0.889522	0.000007	-0.310740
H38	H	1.236635	-0.639118	0.230576
H39	H	1.355241	-0.778187	0.057246
N40	N	1.068020	-0.000004	0.074936
H41	H	0.975415	-0.000007	0.075139
H42	H	1.094686	0.090300	0.118250
H43	H	1.101105	0.000012	-0.244817
H44	H	1.735347	-0.360840	-0.498189
H45	H	0.870864	0.000004	-0.022776
N46	N	1.616729	-0.181247	-0.324850
H47	H	1.580812	-0.144302	-0.400108
H48	H	1.704000	-0.144425	-0.324558
H49	H	1.735346	-0.639034	-0.498209
N50	N	1.691564	0.000013	-0.765909
H51	H	1.708886	-0.090288	-0.717513
H52	H	1.708795	0.090376	-0.717567
H53	H	1.616745	-0.778149	-0.324889
N54	N	1.280412	0.000001	-0.501723
H55	H	1.275562	-0.000004	-0.592721
H56	H	1.238236	0.090306	-0.464837
H57	H	1.236633	-0.360927	0.230603
H58	H	1.603272	0.000028	-0.547968
N59	N	1.355237	-0.181285	0.057274
H60	H	1.406572	-0.144347	-0.017742
H61	H	1.391124	-0.144480	0.132586
N62	N	1.335990	-0.000006	-0.725973
H63	H	1.331140	-0.000011	-0.816971
H64	H	1.293815	0.090300	-0.689088
