data_functionalizedCrystal
_audit_creation_method	'MofGen! by Chris Wilmer'
_symmetry_space_group_name_H-M	'P1'
_symmetry_Int_Tables_number	1
_symmetry_cell_setting	triclinic
loop_
_symmetry_equiv_pos_as_xyz
  x,y,z
_cell_length_a	8.497374
_cell_length_b	10.686203
_cell_length_c	10.686220
_cell_angle_alpha	89.652027
_cell_angle_beta	85.634072
_cell_angle_gamma	85.629853
loop_
_atom_site_label
_atom_site_type_symbol
_atom_site_fract_x
_atom_site_fract_y
_atom_site_fract_z
Zn1	Zn	0.670961	0.352261	1.956002
Zn2	Zn	1.004294	0.685594	2.289335
Zn3	Zn	1.337628	1.018928	2.622668
Zn4	Zn	0.385569	0.561978	1.972052
Zn5	Zn	0.718903	0.895311	2.305386
Zn6	Zn	1.052236	1.228645	2.638719
Zn7	Zn	0.425732	0.368354	1.746285
Zn8	Zn	0.759065	0.701687	2.079619
Zn9	Zn	1.092398	1.035020	2.412952
Zn10	Zn	0.667845	0.578082	1.762317
Zn11	Zn	1.001178	0.911416	2.095650
Zn12	Zn	1.334511	1.244749	2.428983
O13	O	0.537527	0.465169	1.859164
O14	O	0.870860	0.798502	2.192497
O15	O	1.204193	1.131835	2.525831
O16	O	0.617600	0.366606	2.133673
O17	O	0.950933	0.699939	2.467006
O18	O	1.284266	1.033272	2.800339
O19	O	0.170134	0.536288	1.942112
O20	O	0.503468	0.869622	2.275445
O21	O	0.836801	1.202955	2.608779
O22	O	0.476374	0.190679	1.760678
O23	O	0.809707	0.524013	2.094012
O24	O	1.143041	0.857346	2.427345
O25	O	0.407923	0.520684	2.145465
O26	O	0.741257	0.854017	2.478798
O27	O	1.074590	1.187351	2.812132
O28	O	0.656543	0.178856	1.914756
O29	O	0.989876	0.512189	2.248089
O30	O	1.323210	0.845523	2.581423
O31	O	0.199641	0.394033	1.776242
O32	O	0.532975	0.727367	2.109575
O33	O	0.866308	1.060700	2.442909
O34	O	0.473352	0.409649	1.572870
O35	O	0.806685	0.742982	1.906203
O36	O	1.140019	1.076316	2.239537
O37	O	0.889021	0.548132	1.788001
O38	O	1.222354	0.881465	2.121335
O39	O	1.555687	1.214798	2.454668
O40	O	0.651232	0.563736	1.584648
O41	O	0.984565	0.897069	1.917981
O42	O	1.317898	1.230403	2.251315
O43	O	0.891310	0.382222	1.930301
O44	O	1.224644	0.715555	2.263634
O45	O	1.557977	1.048888	2.596967
O46	O	0.404902	0.739654	1.957657
O47	O	0.738235	1.072987	2.290990
O48	O	1.071568	1.406321	2.624323
O49	O	0.612288	0.751486	1.803565
O50	O	0.945621	1.084819	2.136898
O51	O	1.278955	1.418152	2.470232
C52	C	0.566313	0.490187	1.533243
C53	C	0.899646	0.823521	1.866576
C54	C	1.232979	1.156854	2.199910
C55	C	0.578662	0.500921	1.393815
C56	C	0.911995	0.834254	1.727148
C57	C	1.245328	1.167587	2.060482
C58	C	0.503930	0.791083	1.884126
C59	C	0.837263	1.124416	2.217460
C60	C	1.170596	1.457749	2.550793
C61	C	0.489600	0.930501	1.894920
C62	C	0.822933	1.263835	2.228253
C63	C	1.156266	1.597168	2.561587
C64	C	0.949008	0.465171	1.859155
C65	C	1.282341	0.798505	2.192488
C66	C	1.615674	1.131838	2.525822
C67	C	1.127650	0.465184	1.859159
C68	C	1.460983	0.798518	2.192492
C69	C	1.794317	1.131851	2.525825
C70	C	0.508629	0.440053	2.186358
C71	C	0.841962	0.773387	2.519691
C72	C	1.175296	1.106720	2.853024
C73	C	0.496315	0.429351	2.325788
C74	C	0.829648	0.762684	2.659121
C75	C	1.162981	1.096017	2.992455
C76	C	0.571304	1.137981	1.834126
C77	C	0.904637	1.471314	2.167460
C78	C	1.237971	1.804647	2.500793
C79	C	0.585743	0.998555	1.823426
C80	C	0.919076	1.331888	2.156759
C81	C	1.252410	1.665221	2.490092
H82	H	0.416365	0.359867	1.374214
H83	H	0.749698	0.693200	1.707548
H84	H	1.083032	1.026533	2.040881
H85	H	0.658606	0.570417	1.345383
H86	H	0.991939	0.903751	1.678717
H87	H	1.325272	1.237084	2.012050
C88	C	0.711767	0.933183	1.729591
C89	C	1.045100	1.266517	2.062924
C90	C	1.378433	1.599850	2.396257
H91	H	0.705205	0.844911	1.734414
H92	H	1.038538	1.178244	2.067747
H93	H	1.371872	1.511577	2.401081
H94	H	0.693859	0.961141	1.646964
H95	H	1.027192	1.294475	1.980298
H96	H	1.360525	1.627808	2.313631
H97	H	0.813999	0.953148	1.749523
H98	H	1.147332	1.286482	2.082857
H99	H	1.480665	1.619815	2.416190
C100	C	0.363567	0.995878	1.988757
C101	C	0.696900	1.329211	2.322090
C102	C	1.030233	1.662544	2.655424
H103	H	0.370138	1.084150	1.983947
H104	H	0.703471	1.417483	2.317280
H105	H	1.036805	1.750817	2.650613
H106	H	0.261342	0.975907	1.968835
H107	H	0.594675	1.309240	2.302169
H108	H	0.928008	1.642573	2.635502
H109	H	0.381489	0.967922	2.071389
H110	H	0.714823	1.301255	2.404722
H111	H	1.048156	1.634588	2.738055
