data_functionalizedCrystal
_audit_creation_method	'MofGen! by Chris Wilmer'
_symmetry_space_group_name_H-M	'P1'
_symmetry_Int_Tables_number	1
_symmetry_cell_setting	triclinic
loop_
_symmetry_equiv_pos_as_xyz
  x,y,z
_cell_length_a	14.044220
_cell_length_b	17.699077
_cell_length_c	16.776229
_cell_angle_alpha	89.993415
_cell_angle_beta	90.005202
_cell_angle_gamma	91.765273
loop_
_atom_site_label
_atom_site_type_symbol
_atom_site_fract_x
_atom_site_fract_y
_atom_site_fract_z
O1	O	-0.119823	1.012347	-0.066276
O2	O	0.380177	1.512347	0.433724
O3	O	-0.135422	0.793044	-0.066280
O4	O	0.364578	1.293044	0.433720
O5	O	0.010355	0.899404	-0.066274
O6	O	0.510355	1.399404	0.433726
O7	O	-0.265599	0.905987	-0.066281
O8	O	0.234401	1.405987	0.433719
O9	O	0.010364	0.899388	0.066302
O10	O	0.510364	1.399388	0.566302
O11	O	-0.135413	0.793028	0.066297
O12	O	0.364587	1.293028	0.566297
O13	O	-0.119814	1.012331	0.066301
O14	O	0.380186	1.512331	0.566301
Zn15	Zn	-0.127612	0.902677	0.087348
Zn16	Zn	0.372388	1.402677	0.587348
Zn17	Zn	-0.127624	0.902698	-0.087327
Zn18	Zn	0.372376	1.402698	0.412673
O19	O	-0.265590	0.905971	0.066295
O20	O	0.234410	1.405971	0.566295
C21	C	-0.134859	0.764800	0.000008
C22	C	0.365141	1.264800	0.500008
C23	C	-0.133185	0.680667	0.000007
C24	C	0.366815	1.180667	0.500007
C25	C	-0.132392	0.641136	0.072275
C26	C	0.367608	1.141136	0.572275
C27	C	-0.130804	0.562084	0.072276
C28	C	0.369196	1.062084	0.572276
C29	C	-0.130016	0.522564	0.000008
C30	C	0.369984	1.022564	0.500008
C31	C	-0.130807	0.562100	-0.072266
C32	C	0.369193	1.062100	0.427734
C33	C	-0.132388	0.641151	-0.072266
C34	C	0.367612	1.141151	0.427734
C35	C	-0.124429	0.243297	-0.072268
C36	C	0.375571	0.743297	0.427732
C37	C	-0.122851	0.164240	-0.072262
C38	C	0.377149	0.664240	0.427738
C39	C	-0.122845	0.164230	0.072275
C40	C	0.377155	0.664230	0.572275
C41	C	-0.124426	0.243281	0.072275
C42	C	0.375574	0.743281	0.572275
C43	C	-0.125212	0.282810	0.000001
C44	C	0.374788	0.782810	0.500001
C45	C	-0.126932	0.368528	0.000001
C46	C	0.373068	0.868528	0.500001
C47	C	-0.128303	0.436848	0.000007
C48	C	0.371697	0.936848	0.500007
C49	C	-0.300903	0.908861	0.000006
C50	C	0.199097	1.408861	0.500006
C51	C	-0.406108	0.917457	0.000003
C52	C	0.093892	1.417457	0.500003
C53	C	-0.598733	0.933172	0.000007
C54	C	-0.098733	1.433172	0.500007
C55	C	-0.656508	0.872206	0.000007
C56	C	-0.156508	1.372206	0.500007
C57	C	-0.763691	0.880950	0.000009
C58	C	-0.263691	1.380950	0.500009
C59	C	-0.491540	0.924429	0.000005
C60	C	0.008460	1.424429	0.500005
C61	C	0.045667	0.896514	0.000013
C62	C	0.545667	1.396514	0.500013
C63	C	0.150873	0.887918	0.000011
C64	C	0.650873	1.387918	0.500011
C65	C	-0.120376	1.040575	0.000011
C66	C	0.379624	1.540575	0.500011
C67	C	-0.122050	1.124708	0.000007
C68	C	0.377950	1.624708	0.500007
N69	N	-0.127603	0.902668	0.206559
N70	N	0.372397	1.402668	0.706559
N71	N	-0.127625	0.902712	-0.206538
N72	N	0.372375	1.402712	0.293462
C73	C	-0.063080	0.949782	0.248279
C74	C	0.436920	1.449782	0.748279
C75	C	-0.063079	0.949786	0.331731
C76	C	0.436921	1.449786	0.831731
C77	C	-0.127607	0.902680	0.373462
C78	C	0.372393	1.402680	0.873462
C79	C	-0.192133	0.855561	0.331737
C80	C	0.307867	1.355561	0.831737
C81	C	-0.192129	0.855553	0.248286
C82	C	0.307871	1.355553	0.748286
C83	C	-0.192152	0.855589	0.668284
C84	C	0.307848	1.355589	1.168284
C85	C	-0.192153	0.855602	0.751741
C86	C	0.307847	1.355602	1.251741
C87	C	-0.063102	0.949822	0.751729
C88	C	0.436898	1.449822	1.251729
C89	C	-0.063098	0.949814	0.668278
C90	C	0.436902	1.449814	1.168278
C91	C	-0.127620	0.902693	0.626560
C92	C	0.372380	1.402693	1.126560
C93	C	-0.127619	0.902688	0.536072
C94	C	0.372381	1.402688	1.036072
C95	C	-0.127613	0.902688	0.463949
C96	C	0.372387	1.402688	0.963949
H97	H	-0.122209	0.132065	-0.131115
H98	H	0.377791	0.632065	0.368885
Br99	Br	0.024468	1.013773	0.808350
Br100	Br	0.524468	1.513773	1.308350
Br101	Br	-0.604788	0.774265	0.000010
Br102	Br	-0.104788	1.274265	0.500010
Br103	Br	-0.650456	1.031107	0.000011
Br104	Br	-0.150456	1.531107	0.500011
Br105	Br	0.024492	1.013721	0.191652
Br106	Br	0.524492	1.513721	0.691652
Br107	Br	0.024493	1.013724	0.388353
Br108	Br	0.524493	1.513724	0.888353
H109	H	-0.122201	0.132036	0.131123
H110	H	0.377799	0.632036	0.631123
H111	H	-0.010557	0.988175	0.634303
H112	H	0.489443	1.488175	1.134303
H113	H	-0.244702	0.817240	0.785717
H114	H	0.255298	1.317240	1.285717
Br115	Br	-0.279717	0.791643	0.611671
Br116	Br	0.220283	1.291643	1.111671
H117	H	-0.244670	0.817202	0.365719
H118	H	0.255330	1.317202	0.865719
Br119	Br	-0.129742	0.508437	0.170359
Br120	Br	0.370258	1.008437	0.670359
H121	H	-0.125066	0.275472	-0.131117
H122	H	0.374934	0.775472	0.368883
Br123	Br	-0.279694	0.791605	0.191667
Br124	Br	0.220306	1.291605	0.691667
Br125	Br	-0.129696	0.508468	-0.170346
Br126	Br	0.370304	1.008468	0.329654
H127	H	-0.133041	0.673308	0.131124
H128	H	0.366959	1.173308	0.631124
Br129	Br	-0.133457	0.694801	-0.170349
Br130	Br	0.366543	1.194801	0.329651
Br131	Br	-0.125504	0.296911	0.170356
Br132	Br	0.374496	0.796911	0.670356
