data_functionalizedCrystal
_audit_creation_method	'MofGen! by Chris Wilmer'
_symmetry_space_group_name_H-M	'P1'
_symmetry_Int_Tables_number	1
_symmetry_cell_setting	triclinic
loop_
_symmetry_equiv_pos_as_xyz
  x,y,z
_cell_length_a	14.519709
_cell_length_b	10.654550
_cell_length_c	9.130313
_cell_angle_alpha	89.995631
_cell_angle_beta	90.002092
_cell_angle_gamma	84.082538
loop_
_atom_site_label
_atom_site_type_symbol
_atom_site_fract_x
_atom_site_fract_y
_atom_site_fract_z
O1	O	1.224720	0.164623	-0.121608
O2	O	1.724720	0.664623	0.378392
O3	O	0.956343	0.184009	-0.121653
O4	O	1.456343	0.684009	0.378347
O5	O	1.096702	-0.008483	-0.121620
O6	O	1.596702	0.491517	0.378380
O7	O	1.084361	0.357115	-0.121641
O8	O	1.584361	0.857115	0.378359
O9	O	1.096692	-0.008488	0.121979
O10	O	1.596692	0.491512	0.621979
O11	O	0.956334	0.184004	0.121946
O12	O	1.456334	0.684004	0.621946
O13	O	1.224710	0.164617	0.121991
O14	O	1.724710	0.664617	0.621991
Cu15	Cu	1.090521	0.174310	0.144211
Cu16	Cu	1.590521	0.674310	0.644211
Cu17	Cu	1.090532	0.174317	-0.143873
Cu18	Cu	1.590532	0.674317	0.356127
O19	O	1.084351	0.357109	0.121958
O20	O	1.584351	0.857109	0.621958
C21	C	1.095791	-0.055275	0.000178
C22	C	1.595791	0.444725	0.500178
C23	C	1.093080	-0.194692	0.000176
C24	C	1.593080	0.305308	0.500176
C25	C	0.921974	0.183103	0.000141
C26	C	1.421974	0.683103	0.500141
C27	C	0.819579	0.180396	0.000124
C28	C	1.319579	0.680396	0.500124
C29	C	1.175721	-0.274972	0.000189
C30	C	1.675721	0.225028	0.500189
C31	C	1.173168	-0.405968	0.000171
C32	C	1.673168	0.094032	0.500171
C33	C	1.005326	-0.376391	0.000132
C34	C	1.505326	0.123609	0.500132
C35	C	1.007880	-0.245397	0.000140
C36	C	1.507880	0.254603	0.500140
C37	C	0.444631	0.170428	0.000191
C38	C	0.944631	0.670428	0.500191
C39	C	0.548954	0.173196	0.000172
C40	C	1.048954	0.673196	0.500172
C41	C	0.632102	0.175412	0.000156
C42	C	1.132102	0.675412	0.500156
C43	C	0.736431	0.178180	0.000140
C44	C	1.236431	0.678180	0.500140
C45	C	1.259079	0.165524	0.000194
C46	C	1.759079	0.665524	0.500194
C47	C	1.361475	0.168231	0.000201
C48	C	1.861475	0.668231	0.500201
C49	C	1.085262	0.403901	0.000156
C50	C	1.585262	0.903901	0.500156
C51	C	1.087973	0.543318	0.000150
C52	C	1.587973	1.043318	0.500150
N53	N	1.090520	0.174305	0.346834
N54	N	1.590520	0.674305	0.846834
N55	N	1.090541	0.174312	-0.346496
N56	N	1.590541	0.674312	0.153504
C57	C	1.152692	0.089105	0.423500
C58	C	1.652692	0.589105	0.923500
C59	C	1.152701	0.089105	0.576837
C60	C	1.652701	0.589105	1.076837
C61	C	1.028362	0.259516	0.576827
C62	C	1.528362	0.759516	1.076827
C63	C	1.028350	0.259509	0.423493
C64	C	1.528350	0.759509	0.923493
H65	H	1.245096	-0.233692	0.000215
H66	H	1.745096	0.266308	0.500215
H67	H	0.977746	0.328889	0.639259
H68	H	1.477746	0.828889	1.139259
C69	C	0.916973	-0.157078	0.000118
C70	C	1.416973	0.342922	0.500118
H71	H	0.930698	-0.071802	0.000109
H72	H	1.430698	0.428198	0.500109
H73	H	0.882062	-0.172469	0.085053
H74	H	1.382062	0.327531	0.585053
H75	H	0.882084	-0.172464	-0.084854
H76	H	1.382084	0.327536	0.415146
C77	C	1.221073	-0.004612	0.339172
C78	C	1.721073	0.495388	0.839172
H79	H	1.212171	0.007593	0.236870
H80	H	1.712171	0.507593	0.736870
H81	H	1.210535	-0.088461	0.364311
H82	H	1.710535	0.411539	0.864311
H83	H	1.282709	0.009233	0.364297
H84	H	1.782709	0.509233	0.864297
C85	C	1.264071	-0.494277	0.000180
C86	C	1.764071	0.005723	0.500180
H87	H	1.250351	-0.579555	0.000151
H88	H	1.750351	-0.079555	0.500151
H89	H	1.298969	-0.478900	0.085135
H90	H	1.798969	0.021100	0.585135
H91	H	1.298970	-0.478868	-0.084772
H92	H	1.798970	0.021132	0.415228
C93	C	0.911614	-0.432173	0.000113
C94	C	1.411614	0.067827	0.500113
H95	H	0.921927	-0.521686	0.000127
H96	H	1.421927	-0.021686	0.500127
H97	H	0.877552	-0.404623	-0.084838
H98	H	1.377552	0.095377	0.415162
H99	H	0.877552	-0.404634	0.085069
H100	H	1.377552	0.095366	0.585069
C101	C	1.221093	-0.004610	0.661164
C102	C	1.721093	0.495390	1.161164
H103	H	1.258119	-0.055345	0.593542
H104	H	1.758119	0.444655	1.093542
H105	H	1.187597	-0.056992	0.720992
H106	H	1.687597	0.443008	1.220992
H107	H	1.259774	0.040698	0.720965
H108	H	1.759774	0.540698	1.220965
C109	C	0.959960	0.353236	0.339155
C110	C	1.459960	0.853236	0.839155
H111	H	0.922944	0.403993	0.406769
H112	H	1.422944	0.903993	0.906769
H113	H	0.921282	0.307937	0.279351
H114	H	1.421282	0.807937	0.779351
H115	H	0.993468	0.405615	0.279327
H116	H	1.493468	0.905615	0.779327
