data_functionalizedCrystal
_audit_creation_method	'MofGen! by Chris Wilmer'
_symmetry_space_group_name_H-M	'P1'
_symmetry_Int_Tables_number	1
_symmetry_cell_setting	triclinic
loop_
_symmetry_equiv_pos_as_xyz
  x,y,z
_cell_length_a	15.944557
_cell_length_b	14.421503
_cell_length_c	17.699083
_cell_angle_alpha	89.996606
_cell_angle_beta	96.607808
_cell_angle_gamma	89.994217
loop_
_atom_site_label
_atom_site_type_symbol
_atom_site_fract_x
_atom_site_fract_y
_atom_site_fract_z
O1	O	-1.114321	0.077074	0.097627
O2	O	-0.780987	0.410407	0.430960
O3	O	-0.447654	0.743740	0.764294
O4	O	-0.869746	0.077084	0.109657
O5	O	-0.536413	0.410418	0.442990
O6	O	-0.203080	0.743751	0.776323
O7	O	-0.998943	0.077071	-0.006536
O8	O	-0.665610	0.410404	0.326798
O9	O	-0.332277	0.743737	0.660131
O10	O	-0.985124	0.077088	0.213819
O11	O	-0.651790	0.410421	0.547152
O12	O	-0.318457	0.743754	0.880486
O13	O	-0.998922	-0.077153	-0.006518
O14	O	-0.665589	0.256180	0.326815
O15	O	-0.332255	0.589514	0.660148
O16	O	-0.869725	-0.077139	0.109674
O17	O	-0.536392	0.256194	0.443007
O18	O	-0.203058	0.589528	0.776341
O19	O	-1.114299	-0.077150	0.097644
O20	O	-0.780966	0.256184	0.430977
O21	O	-0.447633	0.589517	0.764311
Cu22	Cu	-0.992010	-0.091226	0.103661
Cu23	Cu	-0.658677	0.242107	0.436994
Cu24	Cu	-0.325343	0.575440	0.770327
Cu25	Cu	-0.992035	0.091161	0.103640
Cu26	Cu	-0.658702	0.424494	0.436973
Cu27	Cu	-0.325369	0.757828	0.770307
O28	O	-0.985102	-0.077136	0.213836
O29	O	-0.651769	0.256197	0.547170
O30	O	-0.318436	0.589531	0.880503
C31	C	-0.838443	-0.000026	0.109165
C32	C	-0.505110	0.333307	0.442498
C33	C	-0.171776	0.666641	0.775832
C34	C	-0.745200	-0.000022	0.107665
C35	C	-0.411867	0.333311	0.440998
C36	C	-0.078534	0.666645	0.774332
C37	C	-0.474730	-0.000043	0.031159
C38	C	-0.141397	0.333291	0.364493
C39	C	0.191937	0.666624	0.697826
C40	C	-0.525223	-0.076081	0.068050
C41	C	-0.191890	0.257252	0.401383
C42	C	0.141443	0.590585	0.734716
C43	C	-0.409570	-0.000044	0.102316
C44	C	-0.076236	0.333289	0.435650
C45	C	0.257097	0.666622	0.768983
C46	C	-0.525225	0.075971	0.068052
C47	C	-0.191892	0.409304	0.401385
C48	C	0.141442	0.742637	0.734718
C49	C	-0.574477	-0.000032	0.104941
C50	C	-0.241143	0.333301	0.438274
C51	C	0.092190	0.666635	0.771607
C52	C	-0.458835	-0.076146	0.139188
C53	C	-0.125501	0.257187	0.472521
C54	C	0.207832	0.590521	0.805854
C55	C	-0.458833	0.075975	0.139179
C56	C	-0.125500	0.409308	0.472513
C57	C	0.207834	0.742641	0.805846
C58	C	-0.509293	-0.000083	0.176121
C59	C	-0.175960	0.333251	0.509455
C60	C	0.157373	0.666584	0.842788
C61	C	-0.314571	-0.000052	0.100803
C62	C	0.018762	0.333281	0.434136
C63	C	0.352095	0.666614	0.767469
C64	C	-0.669472	-0.000031	0.106460
C65	C	-0.336139	0.333303	0.439793
C66	C	-0.002806	0.666636	0.773127
N67	N	-0.991998	-0.219507	0.103674
N68	N	-0.658665	0.113826	0.437008
N69	N	-0.325332	0.447159	0.770341
C70	C	-0.932247	-0.469155	0.157378
C71	C	-0.598914	-0.135821	0.490711
C72	C	-0.265581	0.197512	0.824044
C73	C	-1.008116	-0.530959	0.172073
C74	C	-0.674783	-0.197626	0.505406
C75	C	-0.341450	0.135707	0.838740
C76	C	-0.992019	-0.408669	0.103656
C77	C	-0.658686	-0.075336	0.436990
C78	C	-0.325352	0.257998	0.770323
C79	C	-0.916170	-0.530958	0.088979
C80	C	-0.582836	-0.197625	0.422312
C81	C	-0.249503	0.135709	0.755645
C82	C	-0.992032	-0.591390	0.103641
C83	C	-0.658699	-0.258057	0.436974
C84	C	-0.325365	0.075276	0.770307
C85	C	-1.067926	-0.469113	0.118386
C86	C	-0.734593	-0.135779	0.451719
C87	C	-0.401259	0.197554	0.785053
C88	C	-0.975930	-0.469106	0.035262
C89	C	-0.642596	-0.135773	0.368595
C90	C	-0.309263	0.197561	0.701928
C91	C	-1.051853	-0.530883	0.049928
C92	C	-0.718520	-0.197549	0.383262
C93	C	-0.385187	0.135784	0.716595
C94	C	-0.992010	-0.303408	0.103667
C95	C	-0.658677	0.029926	0.437001
C96	C	-0.325344	0.363259	0.770334
C97	C	-0.992049	-0.696649	0.103629
C98	C	-0.658716	-0.363316	0.436962
C99	C	-0.325383	-0.029983	0.770296
C100	C	-0.145604	-0.000042	0.098125
C101	C	0.187729	0.333291	0.431459
C102	C	0.521062	0.666625	0.764792
C103	C	-0.238851	-0.000053	0.099594
C104	C	0.094482	0.333280	0.432928
C105	C	0.427815	0.666613	0.766261
C106	C	-0.998437	-0.000041	-0.034725
C107	C	-0.665104	0.333292	0.298609
C108	C	-0.331771	0.666625	0.631942
C109	C	-0.996952	-0.000042	-0.118745
C110	C	-0.663619	0.333292	0.214588
C111	C	-0.330285	0.666625	0.547921
N112	N	-0.992054	0.219442	0.103620
N113	N	-0.658720	0.552775	0.436954
N114	N	-0.325387	0.886109	0.770287
C115	C	-1.072788	-0.000046	-0.167235
C116	C	-0.739454	0.333287	0.166098
C117	C	-0.406121	0.666620	0.499431
C118	C	-1.071387	-0.000038	-0.246181
C119	C	-0.738054	0.333295	0.087152
C120	C	-0.404720	0.666629	0.420486
C121	C	-0.994149	-0.000032	-0.276635
C122	C	-0.660816	0.333302	0.056698
C123	C	-0.327483	0.666635	0.390031
C124	C	-0.918308	-0.000024	-0.228139
C125	C	-0.584974	0.333309	0.105194
C126	C	-0.251641	0.666642	0.438527
C127	C	-0.919709	-0.000026	-0.149195
C128	C	-0.586376	0.333307	0.184138
C129	C	-0.253043	0.666641	0.517472
C130	C	-0.912653	-0.000016	-0.546512
C131	C	-0.579320	0.333317	-0.213179
C132	C	-0.245986	0.666650	0.120155
C133	C	-0.911257	-0.000018	-0.625462
C134	C	-0.577924	0.333316	-0.292129
C135	C	-0.244590	0.666649	0.041204
C136	C	-1.064330	-0.000029	-0.643498
C137	C	-0.730997	0.333305	-0.310165
C138	C	-0.397664	0.666638	0.023169
C139	C	-1.065732	-0.000030	-0.564554
C140	C	-0.732399	0.333303	-0.231221
C141	C	-0.399066	0.666636	0.102113
C142	C	-0.989891	-0.000018	-0.516065
C143	C	-0.656558	0.333315	-0.182731
C144	C	-0.323224	0.666649	0.150602
C145	C	-0.991411	-0.000025	-0.430463
C146	C	-0.658077	0.333308	-0.097130
C147	C	-0.324744	0.666642	0.236204
C148	C	-0.992628	-0.000031	-0.362236
C149	C	-0.659295	0.333302	-0.028902
C150	C	-0.325962	0.666636	0.304431
C151	C	-0.985608	-0.000022	0.242025
C152	C	-0.652275	0.333311	0.575359
C153	C	-0.318941	0.666645	0.908692
C154	C	-0.987094	-0.000016	0.326046
C155	C	-0.653760	0.333318	0.659379
C156	C	-0.320427	0.666651	0.992713
H157	H	-0.554214	0.140253	0.037981
H158	H	-0.220881	0.473586	0.371314
H159	H	0.112452	0.806920	0.704648
O160	O	-0.827943	-0.000005	-0.658307
O161	O	-0.494610	0.333328	-0.324974
O162	O	-0.161276	0.666662	0.008360
H163	H	-0.823629	-0.062870	-0.693830
H164	H	-0.490296	0.270464	-0.360497
H165	H	-0.156963	0.603797	-0.027164
O166	O	-1.152923	-0.433291	0.134909
O167	O	-0.819590	-0.099957	0.468242
O168	O	-0.486256	0.233376	0.801575
H169	H	-1.166353	-0.458677	0.191487
H170	H	-0.833020	-0.125344	0.524820
H171	H	-0.499687	0.207989	0.858153
O172	O	-1.153180	-0.000058	-0.298484
O173	O	-0.819847	0.333275	0.034850
O174	O	-0.486514	0.666608	0.368183
H175	H	-1.207123	-0.000080	-0.264044
H176	H	-0.873790	0.333253	0.069289
H177	H	-0.540457	0.666587	0.402622
O178	O	-0.420410	0.161139	0.178934
O179	O	-0.087077	0.494472	0.512267
O180	O	0.246257	0.827806	0.845600
H181	H	-0.434974	0.161732	0.238765
H182	H	-0.101640	0.495065	0.572098
H183	H	0.231693	0.828398	0.905431
H184	H	-0.554208	-0.140371	0.038005
H185	H	-0.220875	0.192962	0.371339
H186	H	0.112458	0.526296	0.704672
H187	H	-0.962285	-0.441916	-0.022553
H188	H	-0.628952	-0.108582	0.310781
H189	H	-0.295618	0.224751	0.644114
O190	O	-1.149041	-0.000023	-0.531710
O191	O	-0.815707	0.333310	-0.198377
O192	O	-0.482374	0.666643	0.134956
H193	H	-1.185475	-0.062876	-0.551188
H194	H	-0.852141	0.270457	-0.217855
H195	H	-0.518808	0.603791	0.115479
O196	O	-0.837912	-0.000030	-0.096895
O197	O	-0.504578	0.333303	0.236438
O198	O	-0.171245	0.666637	0.569771
H199	H	-0.834892	0.062832	-0.060504
H200	H	-0.501558	0.396166	0.272829
H201	H	-0.168225	0.729499	0.606162
H202	H	-0.459206	-0.000122	-0.030125
H203	H	-0.125872	0.333212	0.303209
H204	H	0.207461	0.666545	0.636542
O205	O	-0.529660	-0.000134	0.257357
O206	O	-0.196326	0.333199	0.590690
O207	O	0.137007	0.666532	0.924023
H208	H	-0.470078	-0.000767	0.296543
H209	H	-0.136744	0.332566	0.629876
H210	H	0.196589	0.665899	0.963209
H211	H	-0.852020	-0.558126	0.076571
H212	H	-0.518686	-0.224793	0.409905
H213	H	-0.185353	0.108540	0.743238
O214	O	-1.146136	-0.000034	-0.695796
O215	O	-0.812803	0.333299	-0.362463
O216	O	-0.479470	0.666633	-0.029129
H217	H	-1.132191	-0.000022	-0.755808
H218	H	-0.798858	0.333311	-0.422475
H219	H	-0.465524	0.666644	-0.089141
H220	H	-0.850898	-0.000007	-0.507041
H221	H	-0.517565	0.333327	-0.173708
H222	H	-0.184231	0.666660	0.159626
O223	O	-0.420583	-0.161403	0.178958
O224	O	-0.087250	0.171931	0.512292
O225	O	0.246084	0.505264	0.845625
H226	H	-0.374606	-0.140113	0.227756
H227	H	-0.041273	0.193220	0.561090
H228	H	0.292061	0.526554	0.894423
H229	H	-1.021737	-0.558128	0.229906
H230	H	-0.688404	-0.224795	0.563239
H231	H	-0.355070	0.108539	0.896573
H232	H	-0.881752	-0.442051	0.202844
H233	H	-0.548418	-0.108718	0.536178
H234	H	-0.215085	0.224615	0.869511
H235	H	-1.102461	-0.557816	0.004489
H236	H	-0.769128	-0.224483	0.337822
H237	H	-0.435794	0.108851	0.671155
O238	O	-0.834997	-0.000027	-0.260980
O239	O	-0.501664	0.333306	0.072353
O240	O	-0.168331	0.666640	0.405686
H241	H	-0.846761	-0.000040	-0.324022
H242	H	-0.513428	0.333293	0.009312
H243	H	-0.180095	0.666626	0.342645
H244	H	-1.135684	-0.000057	-0.142446
H245	H	-0.802350	0.333276	0.190887
H246	H	-0.469017	0.666610	0.524221
