data_functionalizedCrystal
_audit_creation_method	'MofGen! by Chris Wilmer'
_symmetry_space_group_name_H-M	'P1'
_symmetry_Int_Tables_number	1
_symmetry_cell_setting	triclinic
loop_
_symmetry_equiv_pos_as_xyz
  x,y,z
_cell_length_a	6.817900
_cell_length_b	12.200863
_cell_length_c	12.200737
_cell_angle_alpha	93.008149
_cell_angle_beta	107.141108
_cell_angle_gamma	107.143441
loop_
_atom_site_label
_atom_site_type_symbol
_atom_site_fract_x
_atom_site_fract_y
_atom_site_fract_z
V1	V	-4.086857	-0.158980	-0.357778
V2	V	-3.753523	0.174353	-0.024445
V3	V	-3.420190	0.507686	0.308889
O4	O	-4.054154	0.007364	-0.350847
O5	O	-3.720821	0.340697	-0.017514
O6	O	-3.387488	0.674031	0.315819
O7	O	-4.056305	-0.314966	-0.355447
O8	O	-3.722972	0.018367	-0.022113
O9	O	-3.389638	0.351700	0.311220
O10	O	-4.056297	-0.156656	-0.513765
O11	O	-3.722964	0.176678	-0.180431
O12	O	-3.389630	0.510011	0.152902
O13	O	-4.054162	-0.152042	-0.191433
O14	O	-3.720829	0.181291	0.141900
O15	O	-3.387496	0.514624	0.475233
V16	V	-4.565860	-0.139069	-0.337868
V17	V	-4.232527	0.194264	-0.004535
V18	V	-3.899193	0.527597	0.328799
O19	O	-4.358029	-0.202657	-0.401453
O20	O	-4.024696	0.130677	-0.068119
O21	O	-3.691362	0.464010	0.265214
O22	O	-4.744885	-0.095393	-0.294193
O23	O	-4.411552	0.237940	0.039140
O24	O	-4.078218	0.571274	0.372473
O25	O	-4.373205	0.016917	-0.340199
O26	O	-4.039872	0.350250	-0.006866
O27	O	-3.706539	0.683583	0.326467
O28	O	-4.715959	-0.305414	-0.344798
O29	O	-4.382626	0.027920	-0.011465
O30	O	-4.049292	0.361253	0.321868
O31	O	-4.715951	-0.146007	-0.504213
O32	O	-4.382618	0.187326	-0.170879
O33	O	-4.049285	0.520659	0.162454
O34	O	-4.373213	-0.141394	-0.181881
O35	O	-4.039880	0.191939	0.151452
O36	O	-3.706546	0.525273	0.484786
C37	C	-3.905070	-0.352988	-0.349832
C38	C	-3.571737	-0.019655	-0.016499
C39	C	-3.238404	0.313678	0.316834
C40	C	-3.961497	-0.480510	-0.348966
C41	C	-3.628163	-0.147176	-0.015632
C42	C	-3.294830	0.186157	0.317701
C43	C	-3.905059	-0.151046	-0.551781
C44	C	-3.571726	0.182287	-0.218448
C45	C	-3.238393	0.515620	0.114885
C46	C	-3.961475	-0.150178	-0.679302
C47	C	-3.628142	0.183156	-0.345969
C48	C	-3.294808	0.516489	-0.012635
C49	C	-4.007289	-0.149471	-0.782863
C50	C	-3.673955	0.183862	-0.449530
C51	C	-3.340622	0.517195	-0.116196
C52	C	-4.064778	-0.148580	-0.912784
C53	C	-3.731445	0.184753	-0.579451
C54	C	-3.398112	0.518087	-0.246117
C55	C	-4.064769	-0.713985	-0.347388
C56	C	-3.731435	-0.380652	-0.014055
C57	C	-3.398102	-0.047319	0.319278
C58	C	-4.007293	-0.584063	-0.348266
C59	C	-3.673959	-0.250729	-0.014933
C60	C	-3.340626	0.082604	0.318401
C61	C	-4.187782	0.054933	-0.345811
C62	C	-3.854449	0.388266	-0.012477
C63	C	-3.521115	0.721599	0.320856
C64	C	-4.110595	0.182453	-0.346685
C65	C	-3.777262	0.515786	-0.013351
C66	C	-3.443928	0.849120	0.319982
C67	C	-4.187793	-0.147007	-0.143858
C68	C	-3.854459	0.186326	0.189475
C69	C	-3.521126	0.519660	0.522808
C70	C	-4.110615	-0.147870	-0.016337
C71	C	-3.777281	0.185464	0.316997
C72	C	-3.443948	0.518797	0.650330
