data_functionalizedCrystal
_audit_creation_method	'MofGen! by Chris Wilmer'
_symmetry_space_group_name_H-M	'P1'
_symmetry_Int_Tables_number	1
_symmetry_cell_setting	triclinic
loop_
_symmetry_equiv_pos_as_xyz
  x,y,z
_cell_length_a	17.699083
_cell_length_b	14.519709
_cell_length_c	16.176319
_cell_angle_alpha	89.992256
_cell_angle_beta	89.998611
_cell_angle_gamma	83.481580
loop_
_atom_site_label
_atom_site_type_symbol
_atom_site_fract_x
_atom_site_fract_y
_atom_site_fract_z
O1	O	1.004413	0.116624	-0.068632
O2	O	0.784078	0.131798	-0.068660
O3	O	0.900087	-0.010052	-0.068638
O4	O	0.888403	0.258474	-0.068654
O5	O	0.900071	-0.010061	0.068855
O6	O	0.784062	0.131789	0.068833
O7	O	1.004397	0.116615	0.068861
Cu8	Cu	0.894228	0.124201	0.081401
Cu9	Cu	0.894247	0.124212	-0.081200
O10	O	0.888387	0.258465	0.068839
C11	C	0.755871	0.131249	0.000083
C12	C	0.671848	0.129618	0.000073
C13	C	0.899534	-0.044414	0.000109
C14	C	0.897903	-0.146789	0.000109
C15	C	0.623466	0.212881	0.000068
C16	C	0.544518	0.211343	0.000079
C17	C	0.513954	0.126541	0.000089
C18	C	0.562343	0.043272	0.000096
C19	C	0.641289	0.044811	0.000091
C20	C	0.243962	0.037064	0.000117
C21	C	0.165010	0.035531	0.000119
C22	C	0.147191	0.203596	0.000105
C23	C	0.226137	0.205135	0.000100
C24	C	0.274519	0.121866	0.000112
C25	C	0.360123	0.123535	0.000102
C26	C	0.428352	0.124872	0.000093
C27	C	0.891896	-0.521659	0.000087
C28	C	0.893564	-0.417358	0.000093
C29	C	0.894899	-0.334227	0.000099
C30	C	0.896568	-0.229920	0.000104
C31	C	1.032603	0.117164	0.000116
C32	C	1.116626	0.118795	0.000121
C33	C	0.888940	0.292827	0.000090
C34	C	0.890572	0.395202	0.000085
N35	N	0.894220	0.124193	0.195767
N36	N	0.894260	0.124213	-0.195565
C37	C	0.945604	0.061408	0.239040
C38	C	0.945608	0.061407	0.325588
C39	C	0.894231	0.124196	0.368859
C40	C	0.842841	0.186985	0.325579
C41	C	0.842834	0.186981	0.239034
C42	C	0.842867	0.187002	0.674608
C43	C	0.842879	0.187003	0.761159
C44	C	0.945641	0.061428	0.761161
C45	C	0.945634	0.061424	0.674616
C46	C	0.894242	0.124209	0.631343
C47	C	0.894237	0.124208	0.537499
C48	C	0.894238	0.124202	0.462702
H49	H	0.505128	0.279144	0.000074
H50	H	0.987473	0.010298	0.639387
C51	C	1.002133	-0.007653	0.373193
C52	C	1.058671	-0.076699	0.325604
C53	C	1.115197	-0.145761	0.373211
C54	C	1.115186	-0.145779	0.468407
C55	C	1.058647	-0.076731	0.516002
C56	C	1.002121	-0.007668	0.468395
H57	H	1.058680	-0.076688	0.255129
H58	H	1.157051	-0.196875	0.337977
H59	H	1.157031	-0.196903	0.503649
H60	H	1.058637	-0.076741	0.586477
H61	H	0.960266	0.043446	0.503628
H62	H	0.801038	0.238136	0.796389
H63	H	0.987485	0.010302	0.796403
H64	H	0.801004	0.238106	0.360816
H65	H	0.800990	0.238106	0.203801
C66	C	0.131389	-0.057757	0.000137
C67	C	0.079566	-0.081927	-0.071255
C68	C	0.045943	-0.175209	-0.071238
C69	C	0.064143	-0.244321	0.000171
C70	C	0.115968	-0.220152	0.071569
C71	C	0.149591	-0.126870	0.071552
H72	H	0.066091	-0.030765	-0.124121
H73	H	0.007579	-0.193100	-0.124091
H74	H	0.039254	-0.313374	0.000184
H75	H	0.129443	-0.271314	0.124435
H76	H	0.187955	-0.108980	0.124405
H77	H	0.801023	0.238125	0.639382
H78	H	0.537452	-0.025775	0.000116
H79	H	0.283346	-0.030739	0.000127
H80	H	0.648344	0.281937	0.000060
H81	H	0.987445	0.010281	0.203814
H82	H	0.107789	0.271397	0.000100
C83	C	0.259756	0.298418	0.000091
C84	C	0.206537	0.390008	0.000091
C85	C	0.240154	0.483293	0.000086
C86	C	0.326992	0.484988	0.000080
C87	C	0.380217	0.393394	0.000080
C88	C	0.346599	0.300109	0.000085
H89	H	0.142249	0.388757	0.000095
H90	H	0.200753	0.551097	0.000086
H91	H	0.351878	0.554043	0.000076
H92	H	0.444504	0.394645	0.000076
H93	H	0.386000	0.232305	0.000085
C94	C	0.694514	-0.046779	0.000095
C95	C	0.691013	-0.116321	0.071498
C96	C	0.744237	-0.207914	0.071506
C97	C	0.800963	-0.229964	0.000111
C98	C	0.804467	-0.160421	-0.071297
C99	C	0.751243	-0.068828	-0.071305
H100	H	0.649018	-0.099999	0.124353
H101	H	0.741643	-0.259395	0.124367
H102	H	0.840363	-0.297767	0.000117
H103	H	0.846461	-0.176742	-0.124153
H104	H	0.753837	-0.017347	-0.124167
