data_functionalizedCrystal
_audit_creation_method	'MofGen! by Chris Wilmer'
_symmetry_space_group_name_H-M	'P1'
_symmetry_Int_Tables_number	1
_symmetry_cell_setting	triclinic
loop_
_symmetry_equiv_pos_as_xyz
  x,y,z
_cell_length_a	11.804917
_cell_length_b	10.723024
_cell_length_c	10.723023
_cell_angle_alpha	95.532291
_cell_angle_beta	78.055187
_cell_angle_gamma	78.042869
loop_
_atom_site_label
_atom_site_type_symbol
_atom_site_fract_x
_atom_site_fract_y
_atom_site_fract_z
O1	O	-0.099009	-1.632192	0.199990
O2	O	-0.099013	-1.269038	0.216744
O3	O	-0.099006	-1.458993	0.026789
O4	O	-0.099016	-1.442236	0.389944
O5	O	0.099033	-1.508975	-0.023147
O6	O	0.099027	-1.319020	0.166808
O7	O	0.099030	-1.682173	0.150053
Cu8	Cu	0.117111	-1.505160	0.153871
Cu9	Cu	-0.117094	-1.446051	0.212926
O10	O	0.099024	-1.492218	0.340008
C11	C	0.000006	-1.247529	0.190557
C12	C	0.000005	-1.108975	0.186910
N13	N	0.281838	-1.546744	0.112334
N14	N	-0.281821	-1.404478	0.254454
C15	C	0.344151	-1.646608	0.012527
C16	C	0.468803	-1.678068	-0.018938
C17	C	0.531153	-1.609673	0.049408
C18	C	0.468840	-1.509813	0.149223
C19	C	0.344176	-1.478343	0.180684
C20	C	0.531178	-1.441408	0.217565
C21	C	0.468864	-1.341548	0.317380
C22	C	0.344213	-1.310084	0.348836
C23	C	0.281863	-1.378479	0.280491
C24	C	0.655841	-1.472878	0.186104
C25	C	0.655866	-1.304613	0.354261
C26	C	0.531215	-1.273154	0.385725
C27	C	0.000012	-1.482765	-0.044678
C28	C	0.000009	-1.479116	-0.183231
C29	C	0.000008	-1.703681	0.176241
C30	C	0.000002	-1.842234	0.179891
C31	C	0.000001	-1.033991	0.293198
C32	C	-0.000000	-0.890787	0.289431
C33	C	-0.102584	-1.451598	-0.219128
C34	C	-0.102590	-1.447827	-0.362330
C35	C	0.000002	-1.468446	0.411476
C36	C	-0.000002	-1.472092	0.550032
H37	H	0.706566	-1.554184	0.104834
O38	O	0.283865	-1.213076	0.445861
C39	C	0.297048	-1.049449	0.609276
C40	C	0.365538	-1.159300	0.499448
H41	H	0.363051	-1.005922	0.652615
H42	H	0.238728	-1.089065	0.686917
H43	H	0.238648	-0.971970	0.569537
H44	H	0.424003	-1.236818	0.539068
H45	H	0.423783	-1.119587	0.421826
H46	H	0.293378	-1.702279	-0.043118
H47	H	0.632650	-1.635292	0.023785
H48	H	0.480464	-1.191844	0.466997
H49	H	-0.000002	-0.906658	0.088896
H50	H	0.706631	-1.248918	0.409912
H51	H	-0.000023	-1.067146	0.093131
O52	O	-0.000164	-0.813761	0.397947
C53	C	-0.102809	-0.624653	0.551613
C54	C	-0.102757	-0.711761	0.428688
H55	H	-0.185759	-0.542181	0.576521
H56	H	-0.019989	-0.583824	0.534742
H57	H	-0.102752	-0.683531	0.634638
H58	H	-0.102856	-0.652970	0.345606
H59	H	-0.185570	-0.752596	0.445667
H60	H	0.000005	-1.075814	0.386983
O61	O	-0.207287	-1.426698	-0.129182
C62	C	-0.332443	-1.291067	0.062718
C63	C	-0.213812	-1.319129	-0.039043
H64	H	-0.337769	-1.204081	0.135606
H65	H	-0.337754	-1.378461	0.114423
H66	H	-0.409677	-1.269834	0.013395
H67	H	-0.136511	-1.340332	0.010179
H68	H	-0.208606	-1.231715	-0.090741
O69	O	-0.207452	-1.419516	-0.399094
C70	C	-0.391894	-1.263915	-0.379500
C71	C	-0.273192	-1.295834	-0.337729
H72	H	-0.445068	-1.163908	-0.329927
H73	H	-0.445258	-1.338233	-0.351166
H74	H	-0.373190	-1.265949	-0.488419
H75	H	-0.291788	-1.293784	-0.228816
H76	H	-0.219865	-1.221512	-0.366158
O77	O	0.104760	-1.499978	-0.412949
C78	C	0.229850	-1.427536	-0.284080
C79	C	0.111180	-1.395780	-0.325935
H80	H	0.235069	-1.343323	-0.213702
H81	H	0.307140	-1.445150	-0.372288
H82	H	0.235161	-1.517699	-0.235197
H83	H	0.105753	-1.305603	-0.374793
H84	H	0.033947	-1.378247	-0.237682
O85	O	0.529145	-1.775149	-0.115877
C86	C	0.515958	-1.938690	-0.279375
C87	C	0.447471	-1.828782	-0.169603
H88	H	0.449954	-1.982066	-0.322862
H89	H	0.574290	-2.016289	-0.239698
H90	H	0.574347	-1.899013	-0.356897
H91	H	0.389018	-1.868340	-0.092042
H92	H	0.389214	-1.751202	-0.209377
H93	H	0.087837	-1.499876	-0.258514
O94	O	0.160773	-1.347799	0.311271
C95	C	-0.018102	-1.210300	0.448658
C96	C	0.119031	-1.244919	0.413949
H97	H	-0.051893	-1.127101	0.531658
H98	H	-0.051985	-1.297595	0.478666
H99	H	-0.051953	-1.180520	0.361266
H100	H	0.152983	-1.274672	0.501287
H101	H	0.152833	-1.157596	0.383890
