data_functionalizedCrystal
_audit_creation_method	'MofGen! by Chris Wilmer'
_symmetry_space_group_name_H-M	'P1'
_symmetry_Int_Tables_number	1
_symmetry_cell_setting	triclinic
loop_
_symmetry_equiv_pos_as_xyz
  x,y,z
_cell_length_a	23.532407
_cell_length_b	23.532407
_cell_length_c	15.186229
_cell_angle_alpha	89.991614
_cell_angle_beta	90.001988
_cell_angle_gamma	82.848678
loop_
_atom_site_label
_atom_site_type_symbol
_atom_site_fract_x
_atom_site_fract_y
_atom_site_fract_z
O1	O	0.755259	0.069134	-0.073128
O2	O	1.005259	0.319134	0.176872
O3	O	1.255259	0.569134	0.426872
O4	O	1.505259	0.819134	0.676872
O5	O	0.589395	0.079137	-0.073155
O6	O	0.839395	0.329137	0.176845
O7	O	1.089395	0.579137	0.426845
O8	O	1.339395	0.829137	0.676845
O9	O	0.677329	-0.008796	-0.073124
O10	O	0.927329	0.241204	0.176876
O11	O	1.177329	0.491204	0.426876
O12	O	1.427329	0.741204	0.676876
O13	O	0.667325	0.157067	-0.073158
O14	O	0.917325	0.407067	0.176842
O15	O	1.167325	0.657067	0.426842
O16	O	1.417325	0.907067	0.676842
O17	O	0.677323	-0.008797	0.073333
O18	O	0.927323	0.241203	0.323333
O19	O	1.177323	0.491203	0.573333
O20	O	1.427323	0.741203	0.823333
O21	O	0.589389	0.079136	0.073303
O22	O	0.839389	0.329136	0.323303
O23	O	1.089389	0.579136	0.573303
O24	O	1.339389	0.829136	0.823303
O25	O	0.755253	0.069133	0.073330
O26	O	1.005253	0.319133	0.323330
O27	O	1.255253	0.569133	0.573330
O28	O	1.505253	0.819133	0.823330
Zn29	Zn	0.672320	0.074134	0.096569
Zn30	Zn	0.922320	0.324134	0.346569
Zn31	Zn	1.172320	0.574134	0.596569
Zn32	Zn	1.422320	0.824134	0.846569
Zn33	Zn	0.672328	0.074136	-0.096394
Zn34	Zn	0.922328	0.324136	0.153606
Zn35	Zn	1.172328	0.574136	0.403606
Zn36	Zn	1.422328	0.824136	0.653606
O37	O	0.667320	0.157066	0.073299
O38	O	0.917320	0.407066	0.323299
O39	O	1.167320	0.657066	0.573299
O40	O	1.417320	0.907066	0.823299
C41	C	0.568176	0.078882	0.000071
C42	C	0.818176	0.328882	0.250071
C43	C	1.068176	0.578882	0.500071
C44	C	1.318176	0.828882	0.750071
C45	C	0.504959	0.078116	0.000061
C46	C	0.754959	0.328116	0.250061
C47	C	1.004959	0.578116	0.500061
C48	C	1.254959	0.828116	0.750061
C49	C	0.105856	0.125350	0.000091
C50	C	0.355856	0.375350	0.250091
C51	C	0.605856	0.625350	0.500091
C52	C	0.855856	0.875350	0.750091
C53	C	0.046456	0.124638	0.000097
C54	C	0.296456	0.374638	0.250097
C55	C	0.546456	0.624638	0.500097
C56	C	0.796456	0.874638	0.750097
O57	O	0.009711	0.168424	0.000120
O58	O	0.259711	0.418424	0.250120
O59	O	0.509711	0.668424	0.500120
O60	O	0.759711	0.918424	0.750120
N61	N	0.023830	0.072362	0.000106
N62	N	0.273830	0.322362	0.250106
N63	N	0.523830	0.572362	0.500106
N64	N	0.773830	0.822362	0.750106
C65	C	0.060607	0.020794	0.000119
C66	C	0.310607	0.270794	0.250119
C67	C	0.560607	0.520794	0.500119
C68	C	0.810607	0.770794	0.750119
O69	O	0.035908	-0.023737	0.000128
O70	O	0.285908	0.226263	0.250128
O71	O	0.535908	0.476263	0.500128
O72	O	0.785908	0.726263	0.750128
C73	C	0.120006	0.021506	0.000120
C74	C	0.370006	0.271506	0.250120
C75	C	0.620006	0.521506	0.500120
C76	C	0.870006	0.771506	0.750120
C77	C	0.142629	0.073785	0.000101
C78	C	0.392629	0.323785	0.250101
C79	C	0.642629	0.573785	0.500101
C80	C	0.892629	0.823785	0.750101
C81	C	0.128479	0.177625	0.000074
C82	C	0.378479	0.427625	0.250074
C83	C	0.628479	0.677625	0.500074
C84	C	0.878479	0.927625	0.750074
C85	C	0.187876	0.178336	0.000067
C86	C	0.437876	0.428336	0.250067
C87	C	0.687876	0.678336	0.500067
C88	C	0.937876	0.928336	0.750067
C89	C	0.224649	0.126772	0.000077
C90	C	0.474649	0.376772	0.250077
C91	C	0.724649	0.626772	0.500077
C92	C	0.974649	0.876772	0.750077
C93	C	0.202025	0.074496	0.000094
C94	C	0.452025	0.324496	0.250094
C95	C	0.702025	0.574496	0.500094
C96	C	0.952025	0.824496	0.750094
C97	C	0.156783	-0.030062	0.000138
C98	C	0.406783	0.219938	0.250138
C99	C	0.656783	0.469938	0.500138
C100	C	0.906783	0.719938	0.750138
C101	C	0.216185	-0.029345	0.000140
C102	C	0.466185	0.220655	0.250140
C103	C	0.716185	0.470655	0.500140
C104	C	0.966185	0.720655	0.750140
C105	C	0.238808	0.022934	0.000122
C106	C	0.488808	0.272934	0.250122
C107	C	0.738808	0.522934	0.500122
C108	C	0.988808	0.772934	0.750122
C109	C	0.298194	0.023643	0.000097
C110	C	0.548194	0.273643	0.250097
C111	C	0.798194	0.523643	0.500097
C112	C	1.048194	0.773643	0.750097
N113	N	0.320820	0.075920	0.000088
N114	N	0.570820	0.325920	0.250088
N115	N	0.820820	0.575920	0.500088
N116	N	1.070820	0.825920	0.750088
C117	C	0.284048	0.127484	0.000078
C118	C	0.534048	0.377484	0.250078
C119	C	0.784048	0.627484	0.500078
C120	C	1.034048	0.877484	0.750078
C121	C	-0.064135	0.019302	0.000119
C122	C	0.185865	0.269302	0.250119
C123	C	0.435865	0.519302	0.500119
C124	C	0.685865	0.769302	0.750119
C125	C	-0.123533	0.018589	0.000112
C126	C	0.126467	0.268589	0.250112
C127	C	0.376467	0.518589	0.500112
C128	C	0.626467	0.768589	0.750112
C129	C	-0.137680	0.122434	0.000091
C130	C	0.112320	0.372434	0.250091
C131	C	0.362320	0.622434	0.500091
C132	C	0.612320	0.872434	0.750091
C133	C	-0.078281	0.123146	0.000092
C134	C	0.171719	0.373146	0.250092
C135	C	0.421719	0.623146	0.500092
C136	C	0.671719	0.873146	0.750092
C137	C	-0.041509	0.071578	0.000109
C138	C	0.208491	0.321578	0.250109
C139	C	0.458491	0.571578	0.500109
C140	C	0.708491	0.821578	0.750109
C141	C	0.408784	0.128974	0.000062
C142	C	0.658784	0.378974	0.250062
C143	C	0.908784	0.628974	0.500062
C144	C	1.158784	0.878974	0.750062
C145	C	0.468186	0.129680	0.000051
C146	C	0.718186	0.379680	0.250051
C147	C	0.968186	0.629680	0.500051
C148	C	1.218186	0.879680	0.750051
C149	C	0.482329	0.025836	0.000076
C150	C	0.732329	0.275836	0.250076
C151	C	0.982329	0.525836	0.500076
C152	C	1.232329	0.775836	0.750076
C153	C	0.422932	0.025129	0.000082
C154	C	0.672932	0.275129	0.250082
C155	C	0.922932	0.525129	0.500082
C156	C	1.172932	0.775129	0.750082
C157	C	0.386160	0.076702	0.000078
C158	C	0.636160	0.326702	0.250078
C159	C	0.886160	0.576702	0.500078
C160	C	1.136160	0.826702	0.750078
O161	O	0.334974	-0.020119	0.000078
O162	O	0.584974	0.229881	0.250078
O163	O	0.834974	0.479881	0.500078
O164	O	1.084974	0.729881	0.750078
O165	O	0.308755	0.172007	0.000080
O166	O	0.558755	0.422007	0.250080
O167	O	0.808755	0.672007	0.500080
O168	O	1.058755	0.922007	0.750080
C169	C	0.677071	-0.030013	0.000107
C170	C	0.927071	0.219987	0.250107
C171	C	1.177071	0.469987	0.500107
C172	C	1.427071	0.719987	0.750107
C173	C	0.676305	-0.093230	0.000113
C174	C	0.926305	0.156770	0.250113
C175	C	1.176305	0.406770	0.500113
C176	C	1.426305	0.656770	0.750113
C177	C	0.723539	-0.492333	0.000073
C178	C	0.973539	-0.242333	0.250073
C179	C	1.223539	0.007667	0.500073
C180	C	1.473539	0.257667	0.750073
C181	C	0.722827	-0.551733	0.000066
C182	C	0.972827	-0.301733	0.250066
C183	C	1.222827	-0.051733	0.500066
C184	C	1.472827	0.198267	0.750066
O185	O	0.766613	-0.588478	0.000041
O186	O	1.016613	-0.338478	0.250041
O187	O	1.266613	-0.088478	0.500041
O188	O	1.516613	0.161522	0.750041
N189	N	0.670551	-0.574359	0.000058
N190	N	0.920551	-0.324359	0.250058
N191	N	1.170551	-0.074359	0.500058
N192	N	1.420551	0.175641	0.750058
C193	C	0.618983	-0.537582	0.000048
C194	C	0.868983	-0.287582	0.250048
C195	C	1.118983	-0.037582	0.500048
C196	C	1.368983	0.212418	0.750048
O197	O	0.574452	-0.562281	0.000040
O198	O	0.824452	-0.312281	0.250040
O199	O	1.074452	-0.062281	0.500040
O200	O	1.324452	0.187719	0.750040
C201	C	0.619695	-0.478182	0.000049
C202	C	0.869695	-0.228182	0.250049
C203	C	1.119695	0.021818	0.500049
C204	C	1.369695	0.271818	0.750049
C205	C	0.671974	-0.455560	0.000065
C206	C	0.921974	-0.205560	0.250065
C207	C	1.171974	0.044440	0.500065
C208	C	1.421974	0.294440	0.750065
C209	C	0.775814	-0.469710	0.000089
C210	C	1.025814	-0.219710	0.250089
C211	C	1.275814	0.030290	0.500089
C212	C	1.525814	0.280290	0.750089
C213	C	0.776525	-0.410313	0.000097
C214	C	1.026525	-0.160313	0.250097
C215	C	1.276525	0.089687	0.500097
C216	C	1.526525	0.339687	0.750097
C217	C	0.724961	-0.373540	0.000090
C218	C	0.974961	-0.123540	0.250090
C219	C	1.224961	0.126460	0.500090
C220	C	1.474961	0.376460	0.750090
C221	C	0.672685	-0.396164	0.000074
C222	C	0.922685	-0.146164	0.250074
C223	C	1.172685	0.103836	0.500074
C224	C	1.422685	0.353836	0.750074
C225	C	0.568127	-0.441406	0.000032
C226	C	0.818127	-0.191406	0.250032
C227	C	1.068127	0.058594	0.500032
C228	C	1.318127	0.308594	0.750032
C229	C	0.568844	-0.382004	0.000032
C230	C	0.818844	-0.132004	0.250032
C231	C	1.068844	0.117996	0.500032
C232	C	1.318844	0.367996	0.750032
C233	C	0.621123	-0.359381	0.000049
C234	C	0.871123	-0.109381	0.250049
C235	C	1.121123	0.140619	0.500049
C236	C	1.371123	0.390619	0.750049
C237	C	0.621832	-0.299995	0.000075
C238	C	0.871832	-0.049995	0.250075
C239	C	1.121832	0.200005	0.500075
C240	C	1.371832	0.450005	0.750075
N241	N	0.674109	-0.277368	0.000083
N242	N	0.924109	-0.027368	0.250083
N243	N	1.174109	0.222632	0.500083
N244	N	1.424109	0.472632	0.750083
C245	C	0.725673	-0.314141	0.000090
C246	C	0.975673	-0.064141	0.250090
C247	C	1.225673	0.185859	0.500090
C248	C	1.475673	0.435859	0.750090
C249	C	0.617491	-0.662324	0.000045
C250	C	0.867491	-0.412324	0.250045
C251	C	1.117491	-0.162324	0.500045
C252	C	1.367491	0.087676	0.750045
C253	C	0.616778	-0.721722	0.000051
C254	C	0.866778	-0.471722	0.250051
C255	C	1.116778	-0.221722	0.500051
C256	C	1.366778	0.028278	0.750051
C257	C	0.720623	-0.735869	0.000068
C258	C	0.970623	-0.485869	0.250068
C259	C	1.220623	-0.235869	0.500068
C260	C	1.470623	0.014131	0.750068
C261	C	0.721335	-0.676470	0.000068
C262	C	0.971335	-0.426470	0.250068
C263	C	1.221335	-0.176470	0.500068
C264	C	1.471335	0.073530	0.750068
C265	C	0.669767	-0.639698	0.000053
C266	C	0.919767	-0.389698	0.250053
C267	C	1.169767	-0.139698	0.500053
C268	C	1.419767	0.110302	0.750053
C269	C	0.727163	-0.189405	0.000109
C270	C	0.977163	0.060595	0.250109
C271	C	1.227163	0.310595	0.500109
C272	C	1.477163	0.560595	0.750109
C273	C	0.727869	-0.130003	0.000121
C274	C	0.977869	0.119997	0.250121
C275	C	1.227869	0.369997	0.500121
C276	C	1.477869	0.619997	0.750121
C277	C	0.624025	-0.115860	0.000100
C278	C	0.874025	0.134140	0.250100
C279	C	1.124025	0.384140	0.500100
C280	C	1.374025	0.634140	0.750100
C281	C	0.623318	-0.175257	0.000092
C282	C	0.873318	0.074743	0.250092
C283	C	1.123318	0.324743	0.500092
C284	C	1.373318	0.574743	0.750092
C285	C	0.674891	-0.212029	0.000094
C286	C	0.924891	0.037971	0.250094
C287	C	1.174891	0.287971	0.500094
C288	C	1.424891	0.537971	0.750094
O289	O	0.578070	-0.263215	0.000097
O290	O	0.828070	-0.013215	0.250097
O291	O	1.078070	0.236785	0.500097
O292	O	1.328070	0.486785	0.750097
O293	O	0.770196	-0.289433	0.000087
O294	O	1.020196	-0.039433	0.250087
O295	O	1.270196	0.210567	0.500087
O296	O	1.520196	0.460567	0.750087
C297	C	0.776472	0.069388	0.000102
C298	C	1.026472	0.319388	0.250102
C299	C	1.276472	0.569388	0.500102
C300	C	1.526472	0.819388	0.750102
C301	C	0.839689	0.070154	0.000106
C302	C	1.089689	0.320154	0.250106
C303	C	1.339689	0.570154	0.500106
C304	C	1.589689	0.820154	0.750106
C305	C	0.667577	0.178283	0.000066
C306	C	0.917577	0.428283	0.250066
C307	C	1.167577	0.678283	0.500066
C308	C	1.417577	0.928283	0.750066
C309	C	0.668343	0.241500	0.000054
C310	C	0.918343	0.491500	0.250054
C311	C	1.168343	0.741500	0.500054
C312	C	1.418343	0.991500	0.750054
N313	N	0.672319	0.074133	0.228262
N314	N	0.922319	0.324133	0.478262
N315	N	1.172319	0.574133	0.728262
N316	N	1.422319	0.824133	0.978262
N317	N	0.672334	0.074133	-0.228087
N318	N	0.922334	0.324133	0.021913
N319	N	1.172334	0.574133	0.271913
N320	N	1.422334	0.824133	0.521913
C321	C	0.711269	0.035209	0.453998
C322	C	0.961269	0.285209	0.703998
C323	C	1.211269	0.535209	0.953998
C324	C	1.461269	0.785209	1.203998
C325	C	0.711271	0.035208	0.546188
C326	C	0.961271	0.285208	0.796188
C327	C	1.211271	0.535208	1.046188
C328	C	1.461271	0.785208	1.296188
C329	C	0.633379	0.113059	0.546170
C330	C	0.883379	0.363059	0.796170
C331	C	1.133379	0.613059	1.046170
C332	C	1.383379	0.863059	1.296170
C333	C	0.633375	0.113057	0.453982
C334	C	0.883375	0.363057	0.703982
C335	C	1.133375	0.613057	0.953982
C336	C	1.383375	0.863057	1.203982
C337	C	0.672323	0.074133	0.407899
C338	C	0.922323	0.324133	0.657899
C339	C	1.172323	0.574133	0.907899
C340	C	1.422323	0.824133	1.157899
C341	C	0.672329	0.074133	0.592276
C342	C	0.922329	0.324133	0.842276
C343	C	1.172329	0.574133	1.092276
C344	C	1.422329	0.824133	1.342276
C345	C	0.672331	0.074132	0.692232
C346	C	0.922331	0.324132	0.942232
C347	C	1.172331	0.574132	1.192232
C348	C	1.422331	0.824132	1.442232
C349	C	0.672321	0.074133	0.307936
C350	C	0.922321	0.324133	0.557936
C351	C	1.172321	0.574133	0.807936
C352	C	1.422321	0.824133	1.057936
H353	H	0.206289	0.220908	0.000052
H354	H	0.456289	0.470908	0.250052
H355	H	0.706289	0.720908	0.500052
H356	H	0.956289	0.970908	0.750052
H357	H	0.770443	-0.111587	0.000137
H358	H	1.020443	0.138413	0.250137
H359	H	1.270443	0.388413	0.500137
H360	H	1.520443	0.638413	0.750137
H361	H	0.512280	-0.016146	0.000081
H362	H	0.762280	0.233854	0.250081
H363	H	1.012280	0.483854	0.500081
H364	H	1.262280	0.733854	0.750081
H365	H	0.404512	-0.017441	0.000084
H366	H	0.654512	0.232559	0.250084
H367	H	0.904512	0.482559	0.500084
H368	H	1.154512	0.732559	0.750084
H369	H	0.769159	-0.219337	0.000106
H370	H	1.019159	0.030663	0.250106
H371	H	1.269159	0.280663	0.500106
H372	H	1.519159	0.530663	0.750106
F373	F	0.752721	-0.006221	0.595248
F374	F	1.002721	0.243779	0.845248
F375	F	1.252721	0.493779	1.095248
F376	F	1.502721	0.743779	1.345248
H377	H	-0.167632	0.164421	0.000087
H378	H	0.082368	0.414421	0.250087
H379	H	0.332368	0.664421	0.500087
H380	H	0.582368	0.914421	0.750087
H381	H	0.526850	-0.352066	0.000019
H382	H	0.776850	-0.102066	0.250019
H383	H	1.026850	0.147934	0.500019
H384	H	1.276850	0.397934	0.750019
F385	F	0.832169	-0.386245	0.000096
F386	F	1.082169	-0.136245	0.250096
F387	F	1.332169	0.113755	0.500096
F388	F	1.582169	0.363755	0.750096
H389	H	0.742982	0.003514	0.416479
H390	H	0.992982	0.253514	0.666479
H391	H	1.242982	0.503514	0.916479
H392	H	1.492982	0.753514	1.166479
H393	H	0.601670	0.144751	0.583701
H394	H	0.851670	0.394751	0.833701
H395	H	1.101670	0.644751	1.083701
H396	H	1.351670	0.894751	1.333701
F397	F	0.591920	0.154484	0.404916
F398	F	0.841920	0.404484	0.654916
F399	F	1.091920	0.654484	0.904916
F400	F	1.341920	0.904484	1.154916
H401	H	0.378851	0.170970	0.000061
H402	H	0.628851	0.420970	0.250061
H403	H	0.878851	0.670970	0.500061
H404	H	1.128851	0.920970	0.750061
F405	F	0.492259	0.185326	0.000029
F406	F	0.742259	0.435326	0.250029
F407	F	0.992259	0.685326	0.500029
F408	F	1.242259	0.935326	0.750029
H409	H	0.098544	0.219617	0.000069
H410	H	0.348544	0.469617	0.250069
H411	H	0.598544	0.719617	0.500069
H412	H	0.848544	0.969617	0.750069
F413	F	0.132720	-0.085706	0.000145
F414	F	0.382720	0.164294	0.250145
F415	F	0.632720	0.414294	0.500145
F416	F	0.882720	0.664294	0.750145
H417	H	0.580748	-0.193677	0.000103
H418	H	0.830748	0.056323	0.250103
H419	H	1.080748	0.306323	0.500103
H420	H	1.330748	0.556323	0.750103
H421	H	0.574207	-0.740136	0.000053
H422	H	0.824207	-0.490136	0.250053
H423	H	1.074207	-0.240136	0.500053
H424	H	1.324207	0.009864	0.750053
F425	F	-0.054210	0.178789	0.000075
F426	F	0.195790	0.428789	0.250075
F427	F	0.445790	0.678789	0.500075
F428	F	0.695790	0.928789	0.750075
F429	F	0.830701	-0.508838	0.000096
F430	F	1.080701	-0.258838	0.250096
F431	F	1.330701	-0.008838	0.500096
F432	F	1.580701	0.241162	0.750096
H433	H	0.525555	-0.459814	0.000013
H434	H	0.775555	-0.209814	0.250013
H435	H	1.025555	0.040186	0.500013
H436	H	1.275555	0.290186	0.750013
H437	H	0.763906	-0.658056	0.000081
H438	H	1.013906	-0.408056	0.250081
H439	H	1.263906	-0.158056	0.500081
H440	H	1.513906	0.091944	0.750081
F441	F	0.255318	-0.084233	0.000161
F442	F	0.505318	0.165767	0.250161
F443	F	0.755318	0.415767	0.500161
F444	F	1.005318	0.665767	0.750161
F445	F	-0.025003	-0.035587	0.000129
F446	F	0.224997	0.214413	0.250129
F447	F	0.474997	0.464413	0.500129
F448	F	0.724997	0.714413	0.750129
F449	F	-0.147603	-0.037054	0.000111
F450	F	0.102397	0.212946	0.250111
F451	F	0.352397	0.462946	0.500111
F452	F	0.602397	0.712946	0.750111
F453	F	0.562602	-0.623192	0.000038
F454	F	0.812602	-0.373192	0.250038
F455	F	1.062602	-0.123192	0.500038
F456	F	1.312602	0.126808	0.750038
F457	F	0.775503	-0.775016	0.000071
F458	F	1.025503	-0.525016	0.250071
F459	F	1.275503	-0.275016	0.500071
F460	F	1.525503	-0.025016	0.750071
H461	H	0.582043	-0.085909	0.000097
H462	H	0.832043	0.164091	0.250097
H463	H	1.082043	0.414091	0.500097
H464	H	1.332043	0.664091	0.750097
