data_functionalizedCrystal
_audit_creation_method	'MofGen! by Chris Wilmer'
_symmetry_space_group_name_H-M	'P1'
_symmetry_Int_Tables_number	1
_symmetry_cell_setting	triclinic
loop_
_symmetry_equiv_pos_as_xyz
  x,y,z
_cell_length_a	12.759401
_cell_length_b	12.594516
_cell_length_c	12.759393
_cell_angle_alpha	89.971788
_cell_angle_beta	89.982824
_cell_angle_gamma	90.016214
loop_
_atom_site_label
_atom_site_type_symbol
_atom_site_fract_x
_atom_site_fract_y
_atom_site_fract_z
Zn1	Zn	1.606232	-0.423684	-0.593999
Zn2	Zn	1.606126	-0.601701	-0.418327
Zn3	Zn	1.430538	-0.423737	-0.418339
Zn4	Zn	1.430518	-0.601622	-0.593968
O5	O	1.518354	-0.512686	-0.506158
O6	O	1.753239	-0.447310	-0.570704
O7	O	1.582798	-0.578149	-0.271307
O8	O	1.453896	-0.274784	-0.441658
O9	O	1.753161	-0.578098	-0.441638
O10	O	1.582978	-0.274746	-0.570715
O11	O	1.453794	-0.447400	-0.271316
O12	O	1.283514	-0.447323	-0.441628
O13	O	1.453863	-0.577963	-0.740993
O14	O	1.283500	-0.578014	-0.570663
O15	O	1.582959	-0.447233	-0.741016
O16	O	1.582779	-0.750636	-0.441608
O17	O	1.453761	-0.750578	-0.570651
C18	C	1.245386	-0.512666	-0.506144
C19	C	1.128610	-0.512684	-0.506163
C20	C	1.073768	-0.580843	-0.573240
C21	C	0.964043	-0.580857	-0.573251
C22	C	0.964013	-0.444548	-0.439099
C23	C	1.073735	-0.444530	-0.439094
C24	C	1.128642	-0.648997	-0.640308
C25	C	1.073800	-0.717163	-0.707390
C26	C	0.964076	-0.717177	-0.707402
C27	C	0.909194	-0.649024	-0.640331
C28	C	1.518285	-0.789227	-0.506148
C29	C	1.518351	-0.907532	-0.506179
C30	C	1.448171	-0.976793	-0.576316
C31	C	1.422574	-1.047661	-0.480449
C32	C	1.544044	-1.047463	-0.602062
C33	C	1.492703	-0.976843	-0.410261
C34	C	1.614218	-0.976638	-0.531938
C35	C	1.588657	-1.047475	-0.436006
C36	C	1.792387	-0.512706	-0.506173
C37	C	1.909163	-0.512715	-0.506179
C38	C	1.518421	-0.512583	-0.780192
C39	C	1.518449	-0.512539	-0.896968
C40	C	1.518451	-0.235065	-0.506192
C41	C	1.518493	-0.116760	-0.506206
C42	C	1.451252	-0.580578	-0.951820
C43	C	1.451290	-0.580540	-1.061544
C44	C	1.585727	-0.444414	-1.061555
C45	C	1.585693	-0.444459	-0.951833
C46	C	1.384008	-0.648659	-0.896956
C47	C	1.316804	-0.716702	-0.951808
C48	C	1.316842	-0.716664	-1.061532
C49	C	1.384085	-0.648582	-1.116404
C50	C	1.518347	-0.512712	-0.233191
C51	C	1.518522	-0.512456	-0.116415
H52	H	0.919426	-0.772673	-0.762030
Cl53	Cl	1.670176	-0.358926	-0.882871
H54	H	1.118389	-0.389020	-0.384482
H55	H	1.648067	-1.078315	-0.376636
H56	H	1.388717	-0.945756	-0.635542
H57	H	1.262129	-0.772075	-1.106189
Cl58	Cl	1.739259	-0.928435	-0.565614
H59	H	1.565718	-1.078483	-0.683138
H60	H	1.262063	-0.772138	-0.907124
Cl61	Cl	0.895018	-0.358880	-0.354786
Cl62	Cl	1.383948	-0.648705	-0.759017
Cl63	Cl	0.771253	-0.649035	-0.640357
Cl64	Cl	1.384139	-0.648544	-1.254344
H65	H	1.640472	-0.388983	-1.106241
H66	H	1.217985	-0.648996	-0.640305
H67	H	1.118492	-0.772644	-0.762003
Cl68	Cl	1.297501	-1.095825	-0.446816
H69	H	1.470936	-0.945951	-0.329163
