data_functionalizedCrystal
_audit_creation_method	'MofGen! by Chris Wilmer'
_symmetry_space_group_name_H-M	'P1'
_symmetry_Int_Tables_number	1
_symmetry_cell_setting	triclinic
loop_
_symmetry_equiv_pos_as_xyz
  x,y,z
_cell_length_a	9.065215
_cell_length_b	23.532407
_cell_length_c	22.010155
_cell_angle_alpha	89.994368
_cell_angle_beta	89.998684
_cell_angle_gamma	96.068317
loop_
_atom_site_label
_atom_site_type_symbol
_atom_site_fract_x
_atom_site_fract_y
_atom_site_fract_z
O1	O	1.956288	-0.083477	-0.050527
O2	O	1.526665	-0.090328	-0.050531
O3	O	1.754432	-0.004066	-0.050516
O4	O	1.728521	-0.169739	-0.050543
O5	O	1.754416	-0.004090	0.050534
O6	O	1.526649	-0.090352	0.050519
O7	O	1.956272	-0.083501	0.050523
Cu8	Cu	1.741459	-0.086928	0.059748
Cu9	Cu	1.741478	-0.086900	-0.059756
O10	O	1.728505	-0.169763	0.050508
C11	C	1.471703	-0.089682	-0.000006
C12	C	1.307957	-0.087714	-0.000007
C13	C	1.753764	0.017143	0.000011
C14	C	1.751780	0.080375	0.000018
C15	C	1.874125	0.478580	-0.000005
C16	C	1.872283	0.537994	-0.000008
O17	O	1.985698	0.573906	-0.000029
N18	N	1.736875	0.561614	-0.000008
C19	C	1.603302	0.525816	-0.000011
O20	O	1.487959	0.551362	-0.000012
C21	C	1.605147	0.466404	-0.000012
C22	C	1.740563	0.442787	-0.000006
C23	C	2.009530	0.454963	0.000001
C24	C	2.011373	0.395554	0.000005
C25	C	1.877810	0.359761	0.000004
C26	C	1.742405	0.383378	-0.000002
C27	C	1.471575	0.430607	-0.000020
C28	C	1.473431	0.371191	-0.000021
C29	C	1.608847	0.347575	-0.000015
C30	C	1.610684	0.288175	0.000001
N31	N	1.746091	0.264555	0.000001
C32	C	1.879654	0.300348	0.000003
C33	C	1.599439	0.650587	-0.000010
C34	C	1.597593	0.709999	-0.000004
C35	C	1.866574	0.722172	-0.000002
C36	C	1.868419	0.662760	-0.000003
C37	C	1.734846	0.626967	-0.000010
C38	C	1.883513	0.175583	0.000012
C39	C	1.885343	0.116168	0.000019
C40	C	1.616363	0.103999	0.000014
C41	C	1.614532	0.163410	0.000010
C42	C	1.748119	0.199201	0.000007
O43	O	1.497328	0.252228	0.000019
O44	O	1.994979	0.274794	-0.000005
C45	C	2.011234	-0.084147	-0.000003
C46	C	2.174980	-0.086114	-0.000007
N47	N	1.741457	-0.086948	0.143800
C48	C	1.729173	0.809028	-0.000014
C49	C	1.731157	0.745797	-0.000006
C50	C	1.640569	-0.125103	0.436406
C51	C	1.640565	-0.125107	0.372798
O52	O	1.554742	-0.157567	0.339901
N53	N	1.741447	-0.086929	0.340984
C54	C	1.842329	-0.048739	0.372782
O55	O	1.928135	-0.016266	0.339881
C56	C	1.842325	-0.048733	0.436388
C57	C	1.741447	-0.086918	0.468199
C58	C	1.539698	-0.163284	0.468216
C59	C	1.539705	-0.163280	0.531819
C60	C	1.640582	-0.125095	0.563612
C61	C	1.741453	-0.086914	0.531802
C62	C	1.943198	-0.010541	0.468185
C63	C	1.943185	-0.010537	0.531795
C64	C	1.842307	-0.048722	0.563606
C65	C	1.842337	-0.048725	0.627198
N66	N	1.741455	-0.086903	0.659011
C67	C	1.640578	-0.125088	0.627218
C68	C	1.842328	-0.048756	0.239204
C69	C	1.842340	-0.048765	0.175599
C70	C	1.640574	-0.125132	0.175619
C71	C	1.640570	-0.125125	0.239226
C72	C	1.741446	-0.086934	0.271018
C73	C	1.640600	-0.125078	0.760790
C74	C	1.640619	-0.125072	0.824399
C75	C	1.842379	-0.048703	0.824373
C76	C	1.842365	-0.048711	0.760769
C77	C	1.741463	-0.086900	0.728979
O78	O	1.928112	-0.016279	0.660135
O79	O	1.554773	-0.157551	0.660127
N80	N	1.741496	-0.086887	0.856192
H81	H	1.992292	0.204718	0.000007
O82	O	1.343578	0.336481	-0.000107
C83	C	1.114300	0.307880	-0.052485
C84	C	1.261283	0.347229	-0.052458
H85	H	1.047737	0.316547	-0.094813
H86	H	1.047503	0.316565	-0.010228
H87	H	1.138903	0.261363	-0.052453
H88	H	1.236815	0.393760	-0.052511
H89	H	1.328037	0.338495	-0.094712
O90	O	2.142877	0.372588	0.000110
C91	C	2.301056	0.312552	0.052433
C92	C	2.152084	0.338528	0.052401
H93	H	2.308535	0.284998	0.094700
H94	H	2.396250	0.348323	0.052470
H95	H	2.308627	0.285071	0.010123
H96	H	2.144369	0.366002	0.094705
H97	H	2.056961	0.302729	0.052333
H98	H	1.558426	-0.156218	0.265122
O99	O	1.441906	-0.200408	0.437272
C100	C	1.409362	-0.278061	0.365526
C101	C	1.520270	-0.236033	0.400513
H102	H	1.472676	-0.306882	0.335808
H103	H	1.336036	-0.253123	0.335697
H104	H	1.337253	-0.305318	0.399211
H105	H	1.592476	-0.208765	0.366873
H106	H	1.593493	-0.261005	0.430352
O107	O	1.486667	0.069200	-0.000097
C108	C	1.332738	-0.004972	-0.052440
C109	C	1.479655	0.034416	-0.052391
H110	H	1.327035	-0.033114	-0.094709
H111	H	1.235569	0.022079	-0.052484
H112	H	1.326890	-0.033071	-0.010132
H113	H	1.485649	0.062522	-0.094692
H114	H	1.576755	0.007331	-0.052315
H115	H	1.504265	0.182639	0.000022
H116	H	1.558472	-0.156169	0.850297
O117	O	1.999923	0.639794	0.000105
C118	C	2.158090	0.579756	0.052432
C119	C	2.009118	0.605732	0.052395
H120	H	2.165559	0.552201	0.094698
H121	H	2.253284	0.615527	0.052474
H122	H	2.165670	0.552277	0.010121
H123	H	2.001392	0.633205	0.094699
H124	H	1.913995	0.569933	0.052322
H125	H	1.995620	0.096943	0.000025
H126	H	1.487324	0.729221	0.000001
O127	O	1.542535	-0.162231	0.730009
C128	C	1.342374	-0.237960	0.736760
C129	C	1.453362	-0.195920	0.771693
H130	H	1.270228	-0.265200	0.770446
H131	H	1.405559	-0.266794	0.707003
H132	H	1.269099	-0.212975	0.706960
H133	H	1.526666	-0.220858	0.801526
H134	H	1.390085	-0.167085	0.801411
O135	O	1.441560	-0.200391	0.562621
C136	C	1.241493	-0.276157	0.555904
C137	C	1.352548	-0.234150	0.520952
H138	H	1.169519	-0.303471	0.522230
H139	H	1.168057	-0.251203	0.585660
H140	H	1.304773	-0.304925	0.585706
H141	H	1.289390	-0.205372	0.491117
H142	H	1.425982	-0.259140	0.491234
O143	O	2.041318	0.026585	0.562583
C144	C	2.241351	0.102365	0.555844
C145	C	2.130325	0.060345	0.520903
H146	H	2.313322	0.129679	0.522161
H147	H	2.314795	0.077420	0.585611
H148	H	2.178049	0.131131	0.585633
H149	H	2.193506	0.031569	0.491081
H150	H	2.056883	0.085326	0.491174
H151	H	1.924524	-0.017623	0.734869
H152	H	1.558433	-0.156224	0.149722
H153	H	1.975328	0.751326	-0.000003
O154	O	1.469581	0.615879	-0.000088
C155	C	1.240282	0.587286	-0.052454
C156	C	1.387272	0.626630	-0.052433
H157	H	1.173708	0.595956	-0.094778
H158	H	1.173500	0.595972	-0.010193
H159	H	1.264874	0.540767	-0.052425
H160	H	1.362816	0.673162	-0.052484
H161	H	1.454011	0.617894	-0.094691
O162	O	2.139187	0.489786	0.000084
C163	C	2.293270	0.563889	0.052463
C164	C	2.146354	0.524499	0.052432
H165	H	2.299126	0.591956	0.094789
H166	H	2.299180	0.592055	0.010204
H167	H	2.390326	0.536783	0.052436
H168	H	2.049216	0.551561	0.052481
H169	H	2.140574	0.496331	0.094687
H170	H	1.924500	-0.017677	0.149703
H171	H	1.924485	-0.017658	0.265086
H172	H	2.025341	0.020553	0.442294
O173	O	1.940291	-0.011530	0.855199
C174	C	2.028062	0.087031	0.874684
C175	C	1.917137	0.044990	0.839722
H176	H	2.009361	0.132736	0.862194
H177	H	2.146148	0.079033	0.862178
H178	H	2.010730	0.080442	0.925605
H179	H	1.934334	0.051554	0.788794
H180	H	1.799092	0.052998	0.852279
H181	H	1.361305	0.449825	-0.000028
