data_functionalizedCrystal
_audit_creation_method	'MofGen! by Chris Wilmer'
_symmetry_space_group_name_H-M	'P1'
_symmetry_Int_Tables_number	1
_symmetry_cell_setting	triclinic
loop_
_symmetry_equiv_pos_as_xyz
  x,y,z
_cell_length_a	16.625547
_cell_length_b	12.594516
_cell_length_c	16.625539
_cell_angle_alpha	90.024195
_cell_angle_beta	90.024822
_cell_angle_gamma	90.018110
loop_
_atom_site_label
_atom_site_type_symbol
_atom_site_fract_x
_atom_site_fract_y
_atom_site_fract_z
Zn1	Zn	1.232705	-0.423742	0.456024
Zn2	Zn	1.732705	0.076258	0.956024
Zn3	Zn	1.232618	-0.601743	0.321201
Zn4	Zn	1.732618	-0.101743	0.821201
Zn5	Zn	1.097866	-0.423779	0.321194
Zn6	Zn	1.597866	0.076221	0.821194
Zn7	Zn	1.097847	-0.601679	0.455981
Zn8	Zn	1.597847	-0.101679	0.955981
O9	O	1.165259	-0.512736	0.388600
O10	O	1.665259	-0.012736	0.888600
O11	O	1.345525	-0.447366	0.438160
O12	O	1.845525	0.052634	0.938160
O13	O	1.214715	-0.578178	0.208367
O14	O	1.714715	-0.078178	0.708367
O15	O	1.115797	-0.274828	0.339095
O16	O	1.615797	0.225172	0.839095
O17	O	1.345462	-0.578143	0.339106
O18	O	1.845462	-0.078143	0.839106
O19	O	1.214862	-0.274801	0.438154
O20	O	1.714862	0.225199	0.938154
O21	O	1.115713	-0.447429	0.208363
O22	O	1.615713	0.052571	0.708363
O23	O	0.985031	-0.447366	0.339053
O24	O	1.485031	0.052634	0.839053
O25	O	1.115764	-0.578032	0.568819
O26	O	1.615764	-0.078032	1.068819
O27	O	0.985017	-0.578068	0.438080
O28	O	1.485017	-0.078068	0.938080
O29	O	1.214844	-0.447303	0.568851
O30	O	1.714844	0.052697	1.068851
O31	O	1.214696	-0.750680	0.339064
O32	O	1.714696	-0.250680	0.839064
O33	O	1.115680	-0.750633	0.438086
O34	O	1.615680	-0.250633	0.938086
C35	C	0.955768	-0.512715	0.388562
C36	C	1.455768	-0.012715	0.888562
C37	C	0.866147	-0.512732	0.388565
C38	C	1.366147	-0.012732	0.888565
C39	C	1.165198	-0.789277	0.388589
C40	C	1.665198	-0.289277	0.888589
C41	C	1.165246	-0.907582	0.388611
C42	C	1.665246	-0.407582	0.888611
C43	C	0.793365	-0.512734	0.388575
C44	C	1.293365	-0.012734	0.888575
C45	C	0.702056	-0.512740	0.388595
C46	C	1.202056	-0.012740	0.888595
C47	C	0.629280	-0.512749	0.388615
C48	C	1.129280	-0.012749	0.888615
C49	C	0.537965	-0.512757	0.388635
C50	C	1.037965	-0.012757	0.888635
C51	C	1.111435	-1.047612	0.442442
C52	C	1.611435	-0.547612	0.942442
C53	C	1.184943	-0.976702	0.462230
C54	C	1.684943	-0.476702	0.962230
C55	C	1.091746	-0.976920	0.368859
C56	C	1.591746	-0.476920	0.868859
C57	C	1.238924	-1.047458	0.408467
C58	C	1.738924	-0.547458	0.908467
C59	C	1.145678	-1.047683	0.315062
C60	C	1.645678	-0.547683	0.815062
C61	C	1.219236	-0.976805	0.334822
C62	C	1.719236	-0.476805	0.834822
C63	C	1.375568	-0.512757	0.388639
C64	C	1.875568	-0.012757	0.888639
C65	C	1.465189	-0.512766	0.388655
C66	C	1.965189	-0.012766	0.888655
C67	C	1.165311	-0.512656	0.598909
C68	C	1.665311	-0.012656	1.098909
C69	C	1.165334	-0.512623	0.688530
C70	C	1.665334	-0.012623	1.188530
C71	C	1.165342	-0.235115	0.388629
C72	C	1.665342	0.264885	0.888629
C73	C	1.165377	-0.116809	0.388641
C74	C	1.665377	0.383191	0.888641
C75	C	1.165253	-0.512738	0.179109
C76	C	1.665253	-0.012738	0.679109
C77	C	1.165387	-0.512472	0.089488
C78	C	1.665387	-0.012472	0.589488
C79	C	1.165371	-0.512503	1.016706
C80	C	1.665371	-0.012503	1.516706
C81	C	1.165358	-0.512540	0.925397
C82	C	1.665358	-0.012540	1.425397
C83	C	1.165353	-0.512564	0.852621
C84	C	1.665353	-0.012564	1.352621
C85	C	1.165339	-0.512599	0.761307
C86	C	1.665339	-0.012599	1.261307
H87	H	1.065931	-1.078698	0.487987
H88	H	1.565931	-0.578698	0.987987
C89	C	1.322994	-1.089135	0.431153
C90	C	1.822994	-0.589135	0.931153
H91	H	1.322521	-1.164565	0.431053
H92	H	1.822521	-0.664565	0.931053
H93	H	1.361293	-1.064324	0.393165
H94	H	1.861293	-0.564324	0.893165
H95	H	1.337025	-1.064242	0.483252
H96	H	1.837025	-0.564242	0.983252
H97	H	1.129045	-1.078882	0.252869
H98	H	1.629045	-0.578882	0.752869
C99	C	1.207382	-0.934575	0.546266
C100	C	1.707382	-0.434575	1.046266
H101	H	1.169050	-0.958812	0.584443
H102	H	1.669050	-0.458812	1.084443
H103	H	1.259272	-0.959763	0.560681
H104	H	1.759272	-0.459763	1.060681
H105	H	1.207648	-0.859152	0.545523
H106	H	1.707648	-0.359152	1.045523
C107	C	1.007708	-0.935022	0.346287
C108	C	1.507708	-0.435022	0.846287
H109	H	0.969499	-0.959269	0.384584
H110	H	1.469499	-0.459269	0.884584
H111	H	1.008407	-0.859605	0.345969
H112	H	1.508407	-0.359605	0.845969
H113	H	0.993368	-0.960356	0.294395
H114	H	1.493368	-0.460356	0.794395
C115	C	1.280851	-0.935058	0.273345
C116	C	1.780851	-0.435058	0.773345
H117	H	1.333061	-0.959339	0.287518
H118	H	1.833061	-0.459339	0.787518
H119	H	1.267350	-0.960436	0.221245
H120	H	1.767350	-0.460436	0.721245
H121	H	1.280164	-0.859634	0.273359
H122	H	1.780164	-0.359634	0.773359
