data_functionalizedCrystal
_audit_creation_method	'MofGen! by Chris Wilmer'
_symmetry_space_group_name_H-M	'P1'
_symmetry_Int_Tables_number	1
_symmetry_cell_setting	triclinic
loop_
_symmetry_equiv_pos_as_xyz
  x,y,z
_cell_length_a	19.077105
_cell_length_b	18.050589
_cell_length_c	19.076979
_cell_angle_alpha	87.625059
_cell_angle_beta	90.140888
_cell_angle_gamma	92.268789
loop_
_atom_site_label
_atom_site_type_symbol
_atom_site_fract_x
_atom_site_fract_y
_atom_site_fract_z
Zn1	Zn	1.058463	0.321521	0.440468
Zn2	Zn	1.558463	0.821521	0.940468
Zn3	Zn	1.063015	0.451002	0.322960
Zn4	Zn	1.563015	0.951002	0.822960
Zn5	Zn	0.945612	0.322049	0.318252
Zn6	Zn	1.445612	0.822049	0.818252
Zn7	Zn	0.940902	0.440887	0.435720
Zn8	Zn	1.440902	0.940887	0.935720
O9	O	1.001998	0.383865	0.379350
O10	O	1.501998	0.883865	0.879350
O11	O	1.157400	0.342708	0.428837
O12	O	1.657400	0.842708	0.928837
O13	O	1.051317	0.438350	0.223997
O14	O	1.551317	0.938350	0.723997
O15	O	0.960649	0.218056	0.334481
O16	O	1.460649	0.718056	0.834481
O17	O	1.160744	0.437837	0.342505
O18	O	1.660744	0.937837	0.842505
O19	O	1.043560	0.217668	0.424273
O20	O	1.543560	0.717668	0.924273
O21	O	0.965062	0.343609	0.220539
O22	O	1.465062	0.843609	0.720539
O23	O	0.846654	0.333801	0.329878
O24	O	1.346654	0.833801	0.829878
O25	O	0.952620	0.420599	0.534688
O26	O	1.452620	0.920599	1.034688
O27	O	0.843193	0.421112	0.416181
O28	O	1.343193	0.921112	0.916181
O29	O	1.038992	0.332901	0.538176
O30	O	1.538992	0.832901	1.038176
O31	O	1.046750	0.553582	0.337901
O32	O	1.546750	1.053582	0.837901
O33	O	0.957034	0.546152	0.420745
O34	O	1.457034	1.046152	0.920745
C35	C	0.819427	0.376417	0.372004
C36	C	1.319427	0.876417	0.872004
C37	C	0.741322	0.373248	0.368877
C38	C	1.241322	0.873248	0.868877
C39	C	1.001893	0.576813	0.379335
C40	C	1.501893	1.076813	0.879335
C41	C	1.001911	0.659359	0.379354
C42	C	1.501911	1.159359	0.879354
C43	C	0.702847	0.417291	0.412271
C44	C	1.202847	0.917291	0.912271
C45	C	0.629458	0.414304	0.409337
C46	C	1.129458	0.914304	0.909337
C47	C	0.594546	0.367276	0.363005
C48	C	1.094546	0.867276	0.863005
C49	C	0.633026	0.323227	0.319610
C50	C	1.133026	0.823227	0.819610
C51	C	0.706413	0.326211	0.322548
C52	C	1.206413	0.826211	0.822548
C53	C	0.375254	0.353464	0.349411
C54	C	0.875254	0.853464	0.849411
C55	C	0.301861	0.350485	0.346475
C56	C	0.801861	0.850485	0.846475
C57	C	0.298299	0.441561	0.436204
C58	C	0.798299	0.941561	0.936204
C59	C	0.371687	0.444544	0.439135
C60	C	0.871687	0.944544	0.939135
C61	C	0.410161	0.400493	0.395742
C62	C	0.910161	0.900493	0.895742
N63	N	0.519531	0.364223	0.360004
N64	N	1.019531	0.864223	0.860004
N65	N	0.485174	0.403543	0.398747
N66	N	0.985174	0.903543	0.898747
C67	C	0.953149	0.854797	0.424390
C68	C	1.453149	1.354797	0.924390
C69	C	0.938557	0.906427	0.359579
C70	C	1.438557	1.406427	0.859579
C71	C	1.001964	0.810491	0.379366
C72	C	1.501964	1.310491	0.879366
C73	C	1.016575	0.905943	0.444186
C74	C	1.516575	1.405943	0.944186
C75	C	1.002013	0.956477	0.379383
C76	C	1.502013	1.456477	0.879383
C77	C	0.987339	0.861033	0.314520
C78	C	1.487339	1.361033	0.814520
C79	C	1.065385	0.860545	0.399171
C80	C	1.565385	1.360545	0.899171
C81	C	1.050819	0.912155	0.334316
C82	C	1.550819	1.412155	0.834316
C83	C	1.001934	0.726392	0.379357
C84	C	1.501934	1.226392	0.879357
C85	C	1.002044	1.040575	0.379385
C86	C	1.502044	1.540575	0.879385
C87	C	1.185282	0.391342	0.386726
C88	C	1.685282	0.891342	0.886726
C89	C	1.263387	0.394529	0.389869
C90	C	1.763387	0.894529	0.889869
C91	C	1.002095	1.190162	0.379381
C92	C	1.502095	1.690162	0.879381
C93	C	1.002068	1.107614	0.379394
C94	C	1.502068	1.607614	0.879394
C95	C	1.009235	0.392082	0.196772
C96	C	1.509235	0.892082	0.696772
C97	C	1.012450	0.395416	0.118669
C98	C	1.512450	0.895416	0.618669
C99	C	0.968726	0.347991	0.080196
C100	C	1.468726	0.847991	0.580196
C101	C	0.971753	0.351123	0.006810
C102	C	1.471753	0.851123	0.506810
C103	C	1.018501	0.401685	-0.028101
C104	C	1.518501	0.901685	0.471899
C105	C	1.062229	0.449113	0.010378
C106	C	1.562229	0.949113	0.510378
C107	C	1.059205	0.445976	0.083762
C108	C	1.559205	0.945976	0.583762
C109	C	1.032399	0.416316	-0.247385
C110	C	1.532399	0.916316	0.252615
C111	C	1.035418	0.419451	-0.320775
C112	C	1.535418	0.919451	0.179225
C113	C	0.944943	0.321460	-0.324338
C114	C	1.444943	0.821460	0.175662
C115	C	0.941920	0.318331	-0.250952
C116	C	1.441920	0.818331	0.249048
C117	C	0.985651	0.365756	-0.212479
C118	C	1.485651	0.865756	0.287521
N119	N	1.021595	0.404890	-0.103113
N120	N	1.521595	0.904890	0.396887
N121	N	0.982560	0.362547	-0.137469
N122	N	1.482560	0.862547	0.362531
C123	C	0.994773	0.375563	0.562643
C124	C	1.494773	0.875563	1.062643
C125	C	0.991695	0.372025	0.640752
C126	C	1.491695	0.872025	1.140752
H127	H	0.731267	0.455589	0.449998
H128	H	1.231267	0.955589	0.949998
H129	H	1.028914	0.925742	0.498997
H130	H	1.528914	1.425742	0.998997
N131	N	0.970916	0.834933	0.241891
N132	N	1.470916	1.334933	0.741891
H133	H	0.970978	0.778964	0.242336
H134	H	1.470978	1.278964	0.742336
H135	H	0.923200	0.852074	0.226881
H136	H	1.423200	1.352074	0.726881
N137	N	0.918299	0.293459	0.117844
N138	N	1.418299	0.793459	0.617844
H139	H	0.884674	0.321278	0.146849
H140	H	1.384674	0.821278	0.646849
H141	H	0.891110	0.263908	0.082287
H142	H	1.391110	0.763908	0.582287
H143	H	1.068006	0.454935	-0.216070
H144	H	1.568006	0.954935	0.283930
N145	N	1.112655	0.503644	-0.027271
N146	N	1.612655	1.003644	0.472729
H147	H	1.107874	0.498501	-0.079601
H148	H	1.607874	0.998501	0.420399
H149	H	1.101583	0.555786	-0.014953
H150	H	1.601583	1.055786	0.485047
N151	N	1.105534	0.945167	0.283837
N152	N	1.605534	1.445167	0.783837
H153	H	1.094425	0.928789	0.234920
H154	H	1.594425	1.428789	0.734920
H155	H	1.105510	1.001085	0.284477
H156	H	1.605510	1.501085	0.784477
N157	N	0.595370	0.272518	0.269626
N158	N	1.095370	0.772518	0.769626
H159	H	0.563808	0.235617	0.297011
H160	H	1.063808	0.735617	0.797011
H161	H	0.566234	0.302956	0.235810
H162	H	1.066234	0.802956	0.735810
H163	H	1.094811	0.484594	0.115087
H164	H	1.594811	0.984594	0.615087
N165	N	0.867545	0.933213	0.337398
N166	N	1.367545	1.433213	0.837398
H167	H	0.872688	0.966144	0.293458
H168	H	1.372688	1.466144	0.793458
H169	H	0.835180	0.889148	0.327801
H170	H	1.335180	1.389148	0.827801
N171	N	0.898406	0.821595	0.474741
N172	N	1.398406	1.321595	0.974741
H173	H	0.921827	0.790119	0.512280
H174	H	1.421827	1.290119	1.012280
H175	H	0.873295	0.862724	0.497216
H176	H	1.373295	1.362724	0.997216
H177	H	0.406570	0.317600	0.314072
H178	H	0.906570	0.817600	0.814072
N179	N	0.587960	0.461819	0.456131
N180	N	1.087960	0.961819	0.956131
H181	H	0.621213	0.492071	0.485920
H182	H	1.121213	0.992071	0.985920
H183	H	0.558622	0.496193	0.426238
H184	H	1.058622	0.996193	0.926238
N185	N	1.136381	0.833745	0.421374
N186	N	1.636381	1.333745	0.921374
H187	H	1.147357	0.849983	0.470364
H188	H	1.647357	1.349983	0.970364
H189	H	1.135913	0.777809	0.420710
H190	H	1.635913	1.277809	0.920710
N191	N	0.747914	0.278702	0.275750
N192	N	1.247914	0.778702	0.775750
H193	H	0.714663	0.248457	0.245952
H194	H	1.214663	0.748457	0.745952
H195	H	0.779628	0.311587	0.244397
H196	H	1.279628	0.811587	0.744397
H197	H	0.273438	0.312180	0.308750
H198	H	0.773438	0.812180	0.808750
H199	H	0.936148	0.312505	-0.024512
H200	H	1.436148	0.812505	0.475488
H201	H	0.903850	0.277161	-0.222533
H202	H	1.403850	0.777161	0.277467
H203	H	0.909340	0.282848	-0.355670
H204	H	1.409340	0.782848	0.144330
N205	N	1.085841	0.473992	-0.358427
N206	N	1.585841	0.973992	0.141573
H207	H	1.113083	0.503557	-0.322916
H208	H	1.613083	1.003557	0.177084
H209	H	1.119418	0.446128	-0.387443
H210	H	1.619418	0.946128	0.112557
H211	H	0.400108	0.482841	0.476862
H212	H	0.900108	0.982841	0.976862
N213	N	0.256806	0.489064	0.483012
N214	N	0.756806	0.989064	0.983012
H215	H	0.269982	0.543125	0.472523
H216	H	0.769982	1.043125	0.972523
H217	H	0.205031	0.479979	0.474103
H218	H	0.705031	0.979979	0.974103
