data_functionalizedCrystal
_audit_creation_method	'MofGen! by Chris Wilmer'
_symmetry_space_group_name_H-M	'P1'
_symmetry_Int_Tables_number	1
_symmetry_cell_setting	triclinic
loop_
_symmetry_equiv_pos_as_xyz
  x,y,z
_cell_length_a	29.839131
_cell_length_b	29.839135
_cell_length_c	29.839125
_cell_angle_alpha	89.984512
_cell_angle_beta	89.974637
_cell_angle_gamma	90.037758
loop_
_atom_site_label
_atom_site_type_symbol
_atom_site_fract_x
_atom_site_fract_y
_atom_site_fract_z
Zn1	Zn	-0.178886	0.686739	-0.254023
Zn2	Zn	0.321114	1.186739	0.245977
Zn3	Zn	-0.253998	0.686679	-0.178883
Zn4	Zn	0.246002	1.186679	0.321117
Zn5	Zn	-0.178886	0.611622	-0.178901
Zn6	Zn	0.321114	1.111622	0.321099
Zn7	Zn	-0.253993	0.611578	-0.253980
Zn8	Zn	0.246007	1.111578	0.246020
O9	O	-0.216441	0.649154	-0.216447
O10	O	0.283559	1.149154	0.283553
O11	O	-0.188852	0.749598	-0.244066
O12	O	0.311148	1.249598	0.255934
O13	O	-0.244036	0.676716	-0.116019
O14	O	0.255964	1.176716	0.383981
O15	O	-0.116019	0.621630	-0.188892
O16	O	0.383981	1.121630	0.311108
O17	O	-0.244036	0.749554	-0.188861
O18	O	0.255964	1.249554	0.311139
O19	O	-0.116019	0.676818	-0.244084
O20	O	0.383981	1.176818	0.255916
O21	O	-0.188852	0.621572	-0.116032
O22	O	0.311148	1.121572	0.383968
O23	O	-0.188847	0.548749	-0.188850
O24	O	0.311153	1.048749	0.311150
O25	O	-0.244028	0.621554	-0.316853
O26	O	0.255972	1.121554	0.183147
O27	O	-0.244028	0.548716	-0.244010
O28	O	0.255972	1.048716	0.255990
O29	O	-0.188847	0.676775	-0.316885
O30	O	0.311153	1.176775	0.183115
O31	O	-0.316864	0.676673	-0.188819
O32	O	0.183136	1.176673	0.311181
O33	O	-0.316861	0.621497	-0.243993
O34	O	0.183139	1.121497	0.256007
C35	C	-0.216437	0.532432	-0.216428
C36	C	0.283563	1.032432	0.283572
C37	C	-0.216447	0.482497	-0.216430
C38	C	0.283553	0.982497	0.283570
C39	C	-0.187750	0.172874	-0.245235
C40	C	0.312250	0.672874	0.254765
C41	C	-0.187753	-0.014799	-0.245247
C42	C	0.312247	0.485201	0.254753
O43	O	-0.163344	-0.039047	-0.269717
O44	O	0.336656	0.460953	0.230283
N45	N	-0.216441	-0.038288	-0.216464
N46	N	0.283559	0.461712	0.283536
C47	C	-0.245129	-0.014855	-0.187672
C48	C	0.254871	0.485145	0.312328
O49	O	-0.269527	-0.039140	-0.163187
O50	O	0.230473	0.460860	0.336813
C51	C	-0.245123	0.172817	-0.187658
C52	C	0.254877	0.672817	0.312342
C53	C	-0.216436	0.196303	-0.216447
C54	C	0.283564	0.696303	0.283553
C55	C	-0.159065	0.196360	-0.274021
C56	C	0.340935	0.696360	0.225979
C57	C	-0.159066	0.243275	-0.274019
C58	C	0.340934	0.743275	0.225981
C59	C	-0.187752	0.266705	-0.245231
C60	C	0.312248	0.766705	0.254769
C61	C	-0.216437	0.243219	-0.216445
C62	C	0.283563	0.743219	0.283555
C63	C	-0.273808	0.196249	-0.158864
C64	C	0.226192	0.696249	0.341136
C65	C	-0.273803	0.243170	-0.158862
C66	C	0.226197	0.743170	0.341138
C67	C	-0.245116	0.266656	-0.187651
C68	C	0.254884	0.766656	0.312349
C69	C	-0.245125	0.313563	-0.187655
C70	C	0.254875	0.813563	0.312345
N71	N	-0.216437	0.337052	-0.216439
N72	N	0.283563	0.837052	0.283561
C73	C	-0.187750	0.313623	-0.245227
C74	C	0.312250	0.813623	0.254773
C75	C	-0.245130	-0.113386	-0.187683
C76	C	0.254870	0.386614	0.312317
C77	C	-0.245133	-0.160304	-0.187687
C78	C	0.254867	0.339696	0.312313
C79	C	-0.187756	-0.160244	-0.245262
C80	C	0.312244	0.339756	0.254738
C81	C	-0.187756	-0.113326	-0.245259
C82	C	0.312244	0.386674	0.254741
C83	C	-0.216442	-0.089897	-0.216467
C84	C	0.283558	0.410103	0.283533
C85	C	-0.187755	0.412148	-0.245221
C86	C	0.312245	0.912148	0.254779
C87	C	-0.187760	0.459068	-0.245218
C88	C	0.312240	0.959068	0.254782
C89	C	-0.245135	0.459005	-0.187642
C90	C	0.254865	0.959005	0.312358
C91	C	-0.245132	0.412089	-0.187647
C92	C	0.254868	0.912089	0.312353
C93	C	-0.216438	0.388662	-0.216438
C94	C	0.283562	0.888662	0.283562
O95	O	-0.269518	0.337840	-0.163195
O96	O	0.230482	0.837840	0.336805
O97	O	-0.163349	0.337915	-0.269702
O98	O	0.336651	0.837915	0.230298
C99	C	-0.187749	0.125958	-0.245236
C100	C	0.312251	0.625958	0.254764
C101	C	-0.216434	0.102472	-0.216450
C102	C	0.283566	0.602472	0.283550
C103	C	-0.245120	0.125902	-0.187662
C104	C	0.254880	0.625902	0.312338
C105	C	-0.216436	0.055554	-0.216454
C106	C	0.283564	0.555554	0.283546
C107	C	-0.187749	0.032125	-0.245242
C108	C	0.312251	0.532125	0.254758
C109	C	-0.159061	0.055614	-0.274026
C110	C	0.340939	0.555614	0.225974
C111	C	-0.159062	0.102529	-0.274025
C112	C	0.340938	0.602529	0.225975
C113	C	-0.273808	0.102413	-0.158878
C114	C	0.226192	0.602413	0.341122
C115	C	-0.273805	0.055498	-0.158883
C116	C	0.226195	0.555498	0.341117
C117	C	-0.245119	0.032068	-0.187671
C118	C	0.254881	0.532068	0.312329
C119	C	-0.333163	0.649086	-0.216409
C120	C	0.166837	1.149086	0.283591
C121	C	-0.383098	0.649098	-0.216408
C122	C	0.116902	1.149098	0.283592
C123	C	-0.692706	0.677885	-0.245226
C124	C	-0.192706	1.177885	0.254774
C125	C	-0.880379	0.677933	-0.245253
C126	C	-0.380379	1.177933	0.254747
O127	O	-0.904614	0.702342	-0.269728
O128	O	-0.404614	1.202342	0.230272
N129	N	-0.903883	0.649231	-0.216497
N130	N	-0.403883	1.149231	0.283503
C131	C	-0.880465	0.620512	-0.187734
C132	C	-0.380465	1.120512	0.312266
O133	O	-0.904763	0.596096	-0.163279
O134	O	-0.404763	1.096096	0.336721
C135	C	-0.692793	0.620461	-0.187709
C136	C	-0.192793	1.120461	0.312291
C137	C	-0.669292	0.649169	-0.216464
C138	C	-0.169292	1.149169	0.283536
C139	C	-0.669205	0.706590	-0.273979
C140	C	-0.169205	1.206590	0.226021
C141	C	-0.622290	0.706579	-0.273971
C142	C	-0.122290	1.206579	0.226029
C143	C	-0.598875	0.677863	-0.245209
C144	C	-0.098875	1.177863	0.254791
C145	C	-0.622377	0.649158	-0.216456
C146	C	-0.122377	1.149158	0.283544
C147	C	-0.669376	0.591740	-0.158949
C148	C	-0.169376	1.091740	0.341051
C149	C	-0.622455	0.591729	-0.158946
C150	C	-0.122455	1.091729	0.341054
C151	C	-0.598954	0.620437	-0.187701
C152	C	-0.098954	1.120437	0.312299
C153	C	-0.552047	0.620431	-0.187685
C154	C	-0.052047	1.120431	0.312315
N155	N	-0.528543	0.649134	-0.216441
N156	N	-0.028543	1.149134	0.283559
C157	C	-0.551957	0.677850	-0.245203
C158	C	-0.051957	1.177850	0.254797
C159	C	-0.978996	0.620541	-0.187748
C160	C	-0.478996	1.120541	0.312252
C161	C	-1.025914	0.620554	-0.187753
C162	C	-0.525914	1.120554	0.312247
C163	C	-1.025824	0.677975	-0.245274
C164	C	-0.525824	1.177975	0.254726
C165	C	-0.978906	0.677964	-0.245266
C166	C	-0.478906	1.177964	0.254734
C167	C	-0.955492	0.649244	-0.216504
C168	C	-0.455492	1.149244	0.283496
C169	C	-0.453432	0.677826	-0.245183
C170	C	0.046568	1.177826	0.254817
C171	C	-0.406512	0.677814	-0.245170
C172	C	0.093488	1.177814	0.254830
C173	C	-0.406605	0.620391	-0.187651
C174	C	0.093395	1.120391	0.312349
C175	C	-0.453521	0.620404	-0.187662
C176	C	0.046479	1.120404	0.312338
C177	C	-0.476933	0.649123	-0.216431
C178	C	0.023067	1.149123	0.283569
O179	O	-0.527783	0.596032	-0.163227
O180	O	-0.027783	1.096032	0.336773
O181	O	-0.527652	0.702255	-0.269662
O182	O	-0.027652	1.202255	0.230338
C183	C	-0.739622	0.677895	-0.245235
C184	C	-0.239622	1.177895	0.254765
C185	C	-0.763123	0.649190	-0.216482
C186	C	-0.263123	1.149190	0.283518
C187	C	-0.739709	0.620474	-0.187720
C188	C	-0.239709	1.120474	0.312280
C189	C	-0.810041	0.649203	-0.216487
C190	C	-0.310041	1.149203	0.283513
C191	C	-0.833455	0.677919	-0.245249
C192	C	-0.333455	1.177919	0.254751
C193	C	-0.809951	0.706622	-0.274006
C194	C	-0.309951	1.206622	0.225994
C195	C	-0.763036	0.706611	-0.273997
C196	C	-0.263036	1.206611	0.226003
C197	C	-0.763212	0.591772	-0.158964
C198	C	-0.263212	1.091772	0.341036
C199	C	-0.810128	0.591785	-0.158974
C200	C	-0.310128	1.091785	0.341026
C201	C	-0.833542	0.620501	-0.187736
C202	C	-0.333542	1.120501	0.312264
C203	C	-0.099262	0.649235	-0.216495
C204	C	0.400738	1.149235	0.283505
C205	C	-0.049328	0.649270	-0.216515
C206	C	0.450672	1.149270	0.283485
C207	C	-0.216437	0.649167	-0.333625
C208	C	0.283563	1.149167	0.166375
C209	C	-0.216435	0.649172	-0.383560
C210	C	0.283565	1.149172	0.116440
C211	C	-0.216445	0.766333	-0.216467
C212	C	0.283555	1.266333	0.283533
C213	C	-0.216446	0.816267	-0.216475
C214	C	0.283554	1.316267	0.283525
C215	C	-0.187627	0.677955	-0.693223
C216	C	0.312373	1.177955	-0.193223
C217	C	-0.187589	0.677978	-0.880896
C218	C	0.312411	1.177978	-0.380896
O219	O	-0.163138	0.702417	-0.905177
O220	O	0.336862	1.202417	-0.405177
N221	N	-0.216315	0.649231	-0.904345
N222	N	0.283685	1.149231	-0.404345
C223	C	-0.245050	0.620475	-0.880873
C224	C	0.254950	1.120475	-0.380873
O225	O	-0.269479	0.596022	-0.905124
O226	O	0.230521	1.096022	-0.405124
C227	C	-0.245086	0.620451	-0.693201
C228	C	0.254914	1.120451	-0.193201
C229	C	-0.216361	0.649202	-0.669754
C230	C	0.283639	1.149202	-0.169754
C231	C	-0.158905	0.706704	-0.669776
C232	C	0.341095	1.206704	-0.169776
C233	C	-0.158916	0.706700	-0.622861
C234	C	0.341084	1.206700	-0.122861
C235	C	-0.187650	0.677947	-0.599392
C236	C	0.312350	1.177947	-0.099392
C237	C	-0.216373	0.649198	-0.622839
C238	C	0.283627	1.149198	-0.122839
C239	C	-0.273819	0.591693	-0.669730
C240	C	0.226181	1.091693	-0.169730
C241	C	-0.273824	0.591689	-0.622809
C242	C	0.226176	1.091689	-0.122809
C243	C	-0.245100	0.620440	-0.599362
C244	C	0.254900	1.120440	-0.099362
C245	C	-0.245119	0.620441	-0.552455
C246	C	0.254881	1.120441	-0.052455
N247	N	-0.216393	0.649188	-0.529005
N248	N	0.283607	1.149188	-0.029005
C249	C	-0.187659	0.677941	-0.552474
C250	C	0.312341	1.177941	-0.052474
C251	C	-0.245030	0.620491	-0.979404
C252	C	0.254970	1.120491	-0.479404
C253	C	-0.245022	0.620497	-1.026322
C254	C	0.254978	1.120497	-0.526322
C255	C	-0.187560	0.677999	-1.026341
C256	C	0.312440	1.177999	-0.526341
C257	C	-0.187571	0.677994	-0.979423
C258	C	0.312429	1.177994	-0.479423
C259	C	-0.216304	0.649237	-0.955955
C260	C	0.283696	1.149237	-0.455955
C261	C	-0.187685	0.677930	-0.453948
C262	C	0.312315	1.177930	0.046052
C263	C	-0.187701	0.677925	-0.407029
C264	C	0.312299	1.177925	0.092971
C265	C	-0.245161	0.620421	-0.407013
C266	C	0.254839	1.120421	0.092987
C267	C	-0.245147	0.620428	-0.453929
C268	C	0.254853	1.120428	0.046071
C269	C	-0.216406	0.649184	-0.477395
C270	C	0.283594	1.149184	0.022605
O271	O	-0.269553	0.596011	-0.528144
O272	O	0.230447	1.096011	-0.028144
O273	O	-0.163226	0.702383	-0.528215
O274	O	0.336774	1.202383	-0.028215
C275	C	-0.187616	0.677960	-0.740138
C276	C	0.312384	1.177960	-0.240138
C277	C	-0.216338	0.649211	-0.763585
C278	C	0.283662	1.149211	-0.263585
C279	C	-0.245072	0.620458	-0.740116
C280	C	0.254928	1.120458	-0.240116
C281	C	-0.216330	0.649217	-0.810503
C282	C	0.283670	1.149217	-0.310503
C283	C	-0.187596	0.677970	-0.833972
C284	C	0.312404	1.177970	-0.333972
C285	C	-0.158870	0.706717	-0.810523
C286	C	0.341130	1.206717	-0.310523
C287	C	-0.158881	0.706712	-0.763607
C288	C	0.341119	1.206712	-0.263607
C289	C	-0.273798	0.591711	-0.763566
C290	C	0.226202	1.091711	-0.263566
C291	C	-0.273785	0.591718	-0.810481
C292	C	0.226215	1.091718	-0.310481
C293	C	-0.245050	0.620471	-0.833950
C294	C	0.254950	1.120471	-0.333950
C295	C	-0.216412	0.649168	-0.099725
C296	C	0.283588	1.149168	0.400275
C297	C	-0.216288	0.649250	-0.049790
C298	C	0.283712	1.149250	0.450210
H299	H	-0.268497	-0.179422	-0.164249
H300	H	0.231503	0.320578	0.335751
N301	N	-0.127897	0.737723	-0.738324
N302	N	0.372103	1.237723	-0.238324
H303	H	-0.107080	0.719481	-0.718860
H304	H	0.392920	1.219481	-0.218860
H305	H	-0.146190	0.758524	-0.718884
H306	H	0.353810	1.258524	-0.218884
H307	H	-0.164180	0.701406	-0.960335
H308	H	0.335820	1.201406	-0.460335
N309	N	-0.597204	0.560755	-0.127919
N310	N	-0.097204	1.060755	0.372081
H311	H	-0.563915	0.565102	-0.132274
H312	H	-0.063915	1.065102	0.367726
H313	H	-0.605430	0.528667	-0.134881
H314	H	-0.105430	1.028667	0.365119
H315	H	-0.268417	0.597090	-1.045408
H316	H	0.231583	1.097090	-0.545408
N317	N	-0.128123	0.268604	-0.305069
N318	N	0.371877	0.768604	0.194931
H319	H	-0.109952	0.246636	-0.323303
H320	H	0.390048	0.746636	0.176697
H321	H	-0.107303	0.288076	-0.286822
H322	H	0.392697	0.788076	0.213178
N323	N	-0.953560	0.708926	-0.276280
N324	N	-0.453560	1.208926	0.223720
H325	H	-0.975516	0.727119	-0.294499
H326	H	-0.475516	1.227119	0.205501
H327	H	-0.934100	0.690620	-0.297052
H328	H	-0.434100	1.190620	0.202948
N329	N	-1.051255	0.589593	-0.156734
N330	N	-0.551255	1.089593	0.343266
H331	H	-1.070730	0.568765	-0.174971
H332	H	-0.570730	1.068765	0.325029
H333	H	-1.070689	0.607900	-0.135939
H334	H	-0.570689	1.107900	0.364061
N335	N	-0.127879	0.737731	-0.835840
N336	N	0.372121	1.237731	-0.335840
H337	H	-0.132234	0.733368	-0.869119
H338	H	0.367766	1.233368	-0.369119
H339	H	-0.095795	0.730760	-0.827647
H340	H	0.404205	1.230760	-0.327647
N341	N	-0.276148	0.589407	-0.381694
N342	N	0.223852	1.089407	0.118306
H343	H	-0.294344	0.571193	-0.403664
H344	H	0.205656	1.071193	0.096336
H345	H	-0.296943	0.607677	-0.362224
H346	H	0.203057	1.107677	0.137776
N347	N	-0.156806	-0.185515	-0.276307
N348	N	0.343194	0.314485	0.223693
H349	H	-0.163824	-0.177347	-0.308394
H350	H	0.336176	0.322653	0.191606
H351	H	-0.161173	-0.218793	-0.271901
H352	H	0.338827	0.281207	0.228099
N353	N	-0.156813	0.386882	-0.276276
N354	N	0.343187	0.886882	0.223724
H355	H	-0.135963	0.367424	-0.258065
H356	H	0.364037	0.867424	0.241935
H357	H	-0.138674	0.408912	-0.294506
H358	H	0.361326	0.908912	0.205494
H359	H	-0.297218	0.568265	-0.603704
H360	H	0.202782	1.068265	-0.103704
N361	N	-0.128121	0.171101	-0.305078
N362	N	0.371879	0.671101	0.194922
H363	H	-0.146408	0.151632	-0.325866
H364	H	0.353592	0.651632	0.174134
H365	H	-0.107275	0.151666	-0.286838
H366	H	0.392725	0.651666	0.213162
N367	N	-0.304796	0.560695	-0.738266
N368	N	0.195204	1.060695	-0.238266
H369	H	-0.325625	0.578932	-0.718799
H370	H	0.174375	1.078932	-0.218799
H371	H	-0.286517	0.539887	-0.718826
H372	H	0.213483	1.039887	-0.218826
N373	N	-0.156820	0.484399	-0.276272
N374	N	0.343180	0.984399	0.223728
H375	H	-0.138647	0.462435	-0.294508
H376	H	0.361353	0.962435	0.205492
H377	H	-0.136001	0.503875	-0.258027
H378	H	0.363999	1.003875	0.241973
N379	N	-0.304771	0.560708	-0.835767
N380	N	0.195229	1.060708	-0.335767
H381	H	-0.322973	0.542494	-0.813776
H382	H	0.177027	1.042494	-0.313776
H383	H	-0.286477	0.539932	-0.855232
H384	H	0.213523	1.039932	-0.355232
H385	H	-0.688503	0.568363	-0.135533
H386	H	-0.188503	1.068363	0.364467
H387	H	-0.164396	-0.094206	-0.268701
H388	H	0.335604	0.405794	0.231299
H389	H	-0.164164	0.701411	-1.045458
H390	H	0.335836	1.201411	-0.545458
H391	H	-0.268496	0.392966	-0.164210
H392	H	0.231504	0.892966	0.335790
N393	N	-1.051084	0.708932	-0.276311
N394	N	-0.551084	1.208932	0.223689
H395	H	-1.029080	0.727111	-0.294534
H396	H	-0.529080	1.227111	0.205466
H397	H	-1.070549	0.729745	-0.258059
H398	H	-0.570549	1.229745	0.241941
N399	N	-0.953746	0.589564	-0.156722
N400	N	-0.453746	1.089564	0.343278
H401	H	-0.975759	0.571388	-0.138507
H402	H	-0.475759	1.071388	0.361493
H403	H	-0.934276	0.607862	-0.135947
H404	H	-0.434276	1.107862	0.364053
N405	N	-0.276014	0.589462	-0.954095
N406	N	0.223986	1.089462	-0.454095
H407	H	-0.294205	0.571253	-0.976073
H408	H	0.205795	1.071253	-0.476073
H409	H	-0.296814	0.607721	-0.934620
H410	H	0.203186	1.107721	-0.434620
N411	N	-0.478872	0.589447	-0.156644
N412	N	0.021128	1.089447	0.343356
H413	H	-0.456918	0.571256	-0.138421
H414	H	0.043082	1.071256	0.361579
H415	H	-0.498343	0.568647	-0.174914
H416	H	0.001657	1.068647	0.325086
N417	N	-0.381347	0.589422	-0.156628
N418	N	0.118653	1.089422	0.343372
H419	H	-0.348059	0.593773	-0.160990
H420	H	0.151941	1.093773	0.339010
H421	H	-0.389571	0.557334	-0.163591
H422	H	0.110429	1.057334	0.336409
H423	H	-0.743905	0.729988	-0.297412
H424	H	-0.243905	1.229988	0.202588
H425	H	-0.268491	-0.094314	-0.164235
H426	H	0.231509	0.405686	0.335765
N427	N	-0.304745	0.030167	-0.127827
N428	N	0.195255	0.530167	0.372173
H429	H	-0.325595	0.010691	-0.146039
H430	H	0.174405	0.510691	0.353961
H431	H	-0.322885	0.052161	-0.109596
H432	H	0.177115	0.552161	0.390404
H433	H	-0.268492	0.478089	-0.164205
H434	H	0.231508	0.978089	0.335795
N435	N	-0.304748	0.170925	-0.127811
N436	N	0.195252	0.670925	0.372189
H437	H	-0.322914	0.192893	-0.109574
H438	H	0.177086	0.692893	0.390426
H439	H	-0.286427	0.151466	-0.107058
H440	H	0.213573	0.651466	0.392942
H441	H	-0.829023	0.730005	-0.297423
H442	H	-0.329023	1.230005	0.202577
H443	H	-0.297163	0.262243	-0.135415
H444	H	0.202837	0.762243	0.364585
N445	N	-0.835473	0.560823	-0.127955
N446	N	-0.335473	1.060823	0.372045
H447	H	-0.813516	0.542631	-0.109735
H448	H	-0.313516	1.042631	0.390265
H449	H	-0.854945	0.540023	-0.146225
H450	H	-0.354945	1.040023	0.353775
N451	N	-0.478683	0.708801	-0.276206
N452	N	0.021317	1.208801	0.223794
H453	H	-0.498153	0.690537	-0.297013
H454	H	0.001847	1.190537	0.202987
H455	H	-0.456645	0.726979	-0.294389
H456	H	0.043355	1.226979	0.205611
H457	H	-0.297168	0.121485	-0.135434
H458	H	0.202832	0.621485	0.364566
N459	N	-0.304798	0.560681	-0.695012
N460	N	0.195202	1.060681	-0.195012
H461	H	-0.336899	0.567632	-0.686837
H462	H	0.163101	1.067632	-0.186837
H463	H	-0.297778	0.528601	-0.686829
H464	H	0.202222	1.028601	-0.186829
N465	N	-0.737960	0.560802	-0.127938
N466	N	-0.237960	1.060802	0.372062
H467	H	-0.746151	0.528699	-0.134882
H468	H	-0.246151	1.028699	0.365118
H469	H	-0.746154	0.567847	-0.095862
H470	H	-0.246154	1.067847	0.404138
N471	N	-0.128122	0.030339	-0.305079
N472	N	0.371878	0.530339	0.194921
H473	H	-0.132478	-0.002946	-0.300708
H474	H	0.367522	0.497054	0.199292
H475	H	-0.096026	0.038556	-0.298148
H476	H	0.403974	0.538556	0.201852
H477	H	-0.135702	0.121647	-0.297467
H478	H	0.364298	0.621647	0.202533
N479	N	-0.381164	0.708779	-0.276185
N480	N	0.118836	1.208779	0.223815
H481	H	-0.403120	0.726970	-0.294407
H482	H	0.096880	1.226970	0.205593
H483	H	-0.361701	0.690473	-0.296954
H484	H	0.138299	1.190473	0.203046
H485	H	-0.164310	0.701339	-0.387940
H486	H	0.335690	1.201339	0.112060
H487	H	-0.164280	0.701344	-0.473049
H488	H	0.335720	1.201344	0.026951
N489	N	-0.596944	0.737537	-0.304990
N490	N	-0.096944	1.237537	0.195010
H491	H	-0.605085	0.769643	-0.298048
H492	H	-0.105085	1.269643	0.201952
H493	H	-0.605111	0.730496	-0.337068
H494	H	-0.105111	1.230496	0.162932
N495	N	-0.694454	0.737553	-0.305015
N496	N	-0.194454	1.237553	0.194985
H497	H	-0.672441	0.755729	-0.323230
H498	H	-0.172441	1.255729	0.176770
H499	H	-0.713916	0.758368	-0.286763
H500	H	-0.213916	1.258368	0.213237
N501	N	-0.127933	0.737709	-0.597575
N502	N	0.372067	1.237709	-0.097575
H503	H	-0.109730	0.755921	-0.619568
H504	H	0.390270	1.255921	-0.119568
H505	H	-0.107145	0.719435	-0.578112
H506	H	0.392855	1.219435	-0.078112
H507	H	-0.135503	0.730118	-0.688879
H508	H	0.364497	1.230118	-0.188879
N509	N	-0.276133	0.589424	-0.479221
N510	N	0.223867	1.089424	0.020779
H511	H	-0.294339	0.571211	-0.457232
H512	H	0.205661	1.071211	0.042768
H513	H	-0.257841	0.568647	-0.498685
H514	H	0.242159	1.068647	0.001315
