data_functionalizedCrystal
_audit_creation_method	'MofGen! by Chris Wilmer'
_symmetry_space_group_name_H-M	'P1'
_symmetry_Int_Tables_number	1
_symmetry_cell_setting	triclinic
loop_
_symmetry_equiv_pos_as_xyz
  x,y,z
_cell_length_a	11.792254
_cell_length_b	10.268362
_cell_length_c	19.288857
_cell_angle_alpha	90.003498
_cell_angle_beta	83.665853
_cell_angle_gamma	90.004577
loop_
_atom_site_label
_atom_site_type_symbol
_atom_site_fract_x
_atom_site_fract_y
_atom_site_fract_z
O1	O	1.505452	0.108306	0.095238
O2	O	1.174964	0.108309	0.105041
O3	O	1.349762	0.108292	-0.000937
O4	O	1.330654	0.108323	0.201216
O5	O	1.349745	-0.108309	-0.000933
O6	O	1.174947	-0.108291	0.105044
O7	O	1.505435	-0.108295	0.095242
Cu8	Cu	1.340190	-0.128070	0.100143
Cu9	Cu	1.340209	0.128085	0.100139
O10	O	1.330637	-0.108277	0.201219
C11	C	1.132674	0.000009	0.104425
C12	C	1.006689	0.000010	0.102577
N13	N	1.340184	-0.308236	0.100146
C14	C	0.904376	0.000015	0.101075
C15	C	0.776017	0.000016	0.099197
C16	C	1.340192	-0.426079	0.100146
C17	C	1.340207	-0.573917	0.100140
C18	C	1.547725	0.000008	0.095858
C19	C	1.673710	0.000016	0.097706
C20	C	1.349140	-0.000010	-0.026815
C21	C	1.347299	-0.000013	-0.103929
N22	N	1.340224	0.308251	0.100131
C23	C	1.346449	0.118056	-0.140147
C24	C	1.344703	0.118066	-0.212603
C25	C	1.343829	-0.000001	-0.248840
C26	C	1.344673	-0.118085	-0.212613
C27	C	1.346408	-0.118092	-0.140158
C28	C	1.407550	-0.090447	-0.368706
C29	C	1.405822	-0.090436	-0.441161
C30	C	1.338474	0.000014	-0.472317
C31	C	1.272868	0.090475	-0.431010
C32	C	1.274603	0.090468	-0.358554
C33	C	1.341948	-0.000007	-0.327406
C34	C	1.335728	0.118102	-0.587099
C35	C	1.333975	0.118107	-0.659556
C36	C	1.333957	-0.118048	-0.659566
C37	C	1.335699	-0.118049	-0.587110
C38	C	1.336590	0.000029	-0.550881
C39	C	1.331259	0.000027	0.227098
C40	C	1.333100	0.000039	0.304212
H41	H	1.344003	0.214215	-0.242096
H42	H	1.347096	-0.214241	-0.110670
O43	O	1.336665	0.245454	-0.548018
H44	H	1.414799	0.251113	-0.520912
O45	O	1.343730	-0.245427	-0.251697
H46	H	1.344604	-0.327533	-0.214336
H47	H	1.333277	0.214257	-0.689042
O48	O	1.476575	-0.188000	-0.485712
H49	H	1.523679	-0.250915	-0.451875
O50	O	1.347401	0.245405	-0.101069
H51	H	1.270856	0.251046	-0.062156
H52	H	1.333238	-0.214180	-0.689069
H53	H	1.221182	0.164122	-0.324925
O54	O	1.336628	-0.245396	-0.548041
H55	H	1.414753	-0.251038	-0.520925
H56	H	1.218026	0.164128	-0.456374
O57	O	1.480200	-0.188004	-0.335105
H58	H	1.525542	-0.250887	-0.375999
