data_functionalizedCrystal
_audit_creation_method	'MofGen! by Chris Wilmer'
_symmetry_space_group_name_H-M	'P1'
_symmetry_Int_Tables_number	1
_symmetry_cell_setting	triclinic
loop_
_symmetry_equiv_pos_as_xyz
  x,y,z
_cell_length_a	12.759401
_cell_length_b	18.101398
_cell_length_c	12.759399
_cell_angle_alpha	89.984865
_cell_angle_beta	89.984458
_cell_angle_gamma	90.007225
loop_
_atom_site_label
_atom_site_type_symbol
_atom_site_fract_x
_atom_site_fract_y
_atom_site_fract_z
Zn1	Zn	1.606134	0.418688	0.418367
Zn2	Zn	1.606062	0.294854	0.594034
Zn3	Zn	1.430471	0.294868	0.418371
Zn4	Zn	1.430424	0.418660	0.594006
O5	O	1.518273	0.356767	0.506195
O6	O	1.753146	0.402267	0.441680
O7	O	1.582759	0.191223	0.570746
O8	O	1.453823	0.311311	0.271350
O9	O	1.753093	0.311286	0.570742
O10	O	1.582882	0.402281	0.271347
O11	O	1.453753	0.191233	0.441687
O12	O	1.283444	0.311283	0.441659
O13	O	1.453742	0.522297	0.570693
O14	O	1.283409	0.402233	0.570697
O15	O	1.582836	0.522318	0.441652
O16	O	1.582713	0.311259	0.741052
O17	O	1.453672	0.402219	0.741031
C18	C	1.245305	0.356757	0.506177
C19	C	1.128529	0.356770	0.506194
C20	C	1.073695	0.404217	0.439113
C21	C	0.963971	0.404222	0.439124
C22	C	0.963924	0.309331	0.573306
C23	C	1.073646	0.309323	0.573289
C24	C	1.518292	0.549929	0.506169
C25	C	1.518300	0.632243	0.506158
C26	C	1.518289	0.931334	0.506202
C27	C	1.599786	0.900022	0.425287
C28	C	1.599551	0.814404	0.424956
C29	C	1.518296	0.782952	0.506180
C30	C	1.407600	0.814029	0.476112
C31	C	1.408069	0.899674	0.475537
C32	C	1.546520	0.899750	0.617382
C33	C	1.548969	0.814100	0.616783
C34	C	1.518292	0.699092	0.506170
C35	C	1.518285	1.015194	0.506210
C36	C	1.792306	0.356778	0.506214
C37	C	1.909083	0.356783	0.506222
C38	C	1.518208	0.356751	0.779162
C39	C	1.518277	0.356768	0.895939
C40	C	1.518258	1.164357	0.506236
C41	C	1.518285	1.082043	0.506224
C42	C	1.518366	0.356801	0.232161
C43	C	1.518406	0.356815	0.115385
C44	C	1.585545	0.309459	0.950777
C45	C	1.585613	0.309484	1.060501
C46	C	1.451135	0.404129	1.060539
C47	C	1.451073	0.404107	0.950817
H48	H	1.681633	0.793393	0.443785
H49	H	1.630430	0.793787	0.639458
H50	H	1.118293	0.270682	0.627915
H51	H	1.640391	0.270961	1.105145
H52	H	1.384141	0.919663	0.394264
H53	H	1.487168	0.920004	0.677671
H54	H	1.682127	0.920622	0.443899
H55	H	0.919225	0.270702	0.627933
H56	H	0.919330	0.442857	0.384498
H57	H	1.118377	0.442849	0.384477
H58	H	1.396418	0.442670	1.105234
H59	H	1.581334	0.921558	0.343382
H60	H	1.580871	0.793929	0.342576
H61	H	1.383247	0.792588	0.395727
H62	H	1.345281	0.920386	0.531907
H63	H	1.396295	0.442636	0.906165
H64	H	1.345239	0.793654	0.533216
H65	H	1.625816	0.921392	0.644779
H66	H	1.493938	0.792687	0.680294
H67	H	1.640268	0.270914	0.906097
