data_functionalizedCrystal
_audit_creation_method	'MofGen! by Chris Wilmer'
_symmetry_space_group_name_H-M	'P1'
_symmetry_Int_Tables_number	1
_symmetry_cell_setting	triclinic
loop_
_symmetry_equiv_pos_as_xyz
  x,y,z
_cell_length_a	29.839131
_cell_length_b	29.839135
_cell_length_c	17.639306
_cell_angle_alpha	78.771629
_cell_angle_beta	101.176836
_cell_angle_gamma	90.037758
loop_
_atom_site_label
_atom_site_type_symbol
_atom_site_fract_x
_atom_site_fract_y
_atom_site_fract_z
Zn1	Zn	-0.230173	0.738078	-0.446900
Zn2	Zn	-0.290115	0.722832	-0.314707
Zn3	Zn	-0.215006	0.647779	-0.314739
Zn4	Zn	-0.305272	0.662908	-0.446824
O5	O	-0.260141	0.692899	-0.380793
O6	O	-0.238129	0.798925	-0.429383
O7	O	-0.267461	0.700164	-0.204110
O8	O	-0.154156	0.659806	-0.332316
O9	O	-0.282167	0.787724	-0.332261
O10	O	-0.165299	0.726149	-0.429414
O11	O	-0.212279	0.645022	-0.204133
O12	O	-0.226976	0.586916	-0.332242
O13	O	-0.308000	0.685592	-0.557436
O14	O	-0.293294	0.598032	-0.429284
O15	O	-0.252826	0.740819	-0.557491
O16	O	-0.354987	0.714835	-0.332188
O17	O	-0.366123	0.670809	-0.429253
C18	C	-0.260134	0.576173	-0.380759
C19	C	-0.260144	0.526239	-0.380763
C20	C	-0.376856	0.692823	-0.380726
C21	C	-0.426791	0.692835	-0.380724
C22	C	-0.237263	0.222437	-0.431438
C23	C	-0.237268	0.034767	-0.431461
O24	O	-0.217799	0.015464	-0.474509
N25	N	-0.260145	0.005461	-0.380822
C26	C	-0.283020	0.023074	-0.330169
O27	O	-0.302474	-0.006159	-0.287093
C28	C	-0.283011	0.210744	-0.330144
C29	C	-0.260137	0.240048	-0.380792
C30	C	-0.214390	0.251741	-0.482082
C31	C	-0.214390	0.298656	-0.482079
C32	C	-0.237264	0.316267	-0.431432
C33	C	-0.260138	0.286963	-0.380789
C34	C	-0.305883	0.228356	-0.279488
C35	C	-0.305878	0.275277	-0.279485
C36	C	-0.283003	0.304581	-0.330133
C37	C	-0.283012	0.351489	-0.330139
N38	N	-0.260136	0.380795	-0.380778
C39	C	-0.237262	0.363184	-0.431425
C40	C	-0.283024	-0.075454	-0.330188
C41	C	-0.283027	-0.122371	-0.330195
C42	C	-0.237274	-0.110676	-0.431486
C43	C	-0.237274	-0.063758	-0.431482
C44	C	-0.260147	-0.046148	-0.380827
C45	C	-0.237266	0.461709	-0.431415
C46	C	-0.237270	0.508628	-0.431410
C47	C	-0.283020	0.496928	-0.330117
C48	C	-0.283018	0.450014	-0.330124
C49	C	-0.260137	0.432405	-0.380776
O50	O	-0.302467	0.370823	-0.287107
O51	O	-0.217802	0.392423	-0.474483
C52	C	-0.237262	0.175522	-0.431441
C53	C	-0.260135	0.146218	-0.380798
C54	C	-0.283009	0.163829	-0.330151
C55	C	-0.260138	0.099301	-0.380805
C56	C	-0.237264	0.081690	-0.431452
C57	C	-0.214387	0.110996	-0.482091
C58	C	-0.214388	0.157911	-0.482088
C59	C	-0.305886	0.134523	-0.279512
C60	C	-0.305884	0.087609	-0.279520
C61	C	-0.283010	0.069997	-0.330167
C62	C	-0.742217	0.727446	-0.431424
C63	C	-0.929896	0.727500	-0.431471
O64	O	-0.959072	0.756855	-0.474528
N65	N	-0.947594	0.692986	-0.380880
C66	C	-0.918369	0.658454	-0.330278
O67	O	-0.937729	0.629095	-0.287254
C68	C	-0.730692	0.658398	-0.330235
C69	C	-0.712996	0.692917	-0.380823
C70	C	-0.724522	0.761962	-0.482009
C71	C	-0.677604	0.761950	-0.481993
C72	C	-0.648383	0.727421	-0.431393
C73	C	-0.666079	0.692905	-0.380808
C74	C	-0.701468	0.623864	-0.279637
C75	C	-0.654547	0.623853	-0.279632
C76	C	-0.636851	0.658372	-0.330220
C77	C	-0.589940	0.658363	-0.330192
N78	N	-0.572243	0.692878	-0.380783
C79	C	-0.601464	0.727407	-0.431383
C80	C	-1.016902	0.658486	-0.330303
C81	C	-1.063821	0.658500	-0.330312
C82	C	-1.075345	0.727546	-0.431507
C83	C	-1.028425	0.727534	-0.431493
C84	C	-0.999205	0.693000	-0.380893
C85	C	-0.502934	0.727378	-0.431347
C86	C	-0.456012	0.727364	-0.431324
C87	C	-0.444492	0.658316	-0.330133
C88	C	-0.491410	0.658332	-0.330152
C89	C	-0.520630	0.692865	-0.380765
O90	O	-0.560738	0.629021	-0.287163
O91	O	-0.582097	0.756755	-0.474413
C92	C	-0.789135	0.727459	-0.431439
C93	C	-0.806831	0.692942	-0.380854
C94	C	-0.777609	0.658414	-0.330254
C95	C	-0.853750	0.692957	-0.380864
C96	C	-0.882971	0.727485	-0.431464
C97	C	-0.865273	0.762000	-0.482055
C98	C	-0.818356	0.761987	-0.482040
C99	C	-0.795307	0.623899	-0.279663
C100	C	-0.842225	0.623915	-0.279682
C101	C	-0.871446	0.658443	-0.330282
C102	C	-0.142973	0.692990	-0.380877
C103	C	-0.093042	0.693029	-0.380913
C104	C	-0.283796	0.716594	-0.586943
C105	C	-0.293876	0.726691	-0.674792
C106	C	-0.260149	0.810082	-0.380827
C107	C	-0.260153	0.860018	-0.380842
C108	C	-0.183397	0.616367	-0.963801
C109	C	-0.192878	0.625865	-1.046349
C110	C	-0.250333	0.683278	-1.046304
C111	C	-0.240855	0.673786	-0.963755
C112	C	-0.207387	0.640330	-0.922510
C113	C	-0.264845	0.697750	-0.922464
C114	C	-0.255369	0.688257	-0.839922
C115	C	-0.221904	0.654801	-0.798671
C116	C	-0.197911	0.630837	-0.839968
C117	C	-0.298315	0.731203	-0.963711
C118	C	-0.322305	0.755167	-0.922420
C119	C	-0.312827	0.745676	-0.839876
C120	C	-0.279362	0.712221	-0.798625
C121	C	-0.336820	0.769640	-0.798579
C122	C	-0.327344	0.760147	-0.716037
C123	C	-0.269886	0.702728	-0.716083
C124	C	-0.236547	0.669323	-0.175444
C125	C	-0.226340	0.659313	-0.087596
H126	H	-0.218643	0.532487	-0.472656
H127	H	-0.218647	-0.039901	-0.472722
Br128	Br	-0.206212	0.437819	-0.500156
Br129	Br	-0.314062	-0.051564	-0.261426
H130	H	-0.301659	-0.146226	-0.288961
Br131	Br	-0.152483	0.585438	-0.783985
Br132	Br	-0.314080	0.410245	-0.261414
Br133	Br	-0.359905	0.792665	-0.659994
Br134	Br	-1.115011	0.774407	-0.500178
H135	H	-0.218650	-0.125023	-0.472724
Br136	Br	-0.515425	0.611489	-0.261483
Br137	Br	-0.904940	0.808862	-0.550723
H138	H	-0.242628	0.675489	-0.682499
H139	H	-1.078223	0.630395	-0.289109
H140	H	-0.173338	0.606350	-1.079965
Br141	Br	-0.336918	0.188595	-0.210731
Br142	Br	-0.311175	0.744087	-1.075734
H143	H	-0.993113	0.630364	-0.289097
H144	H	-0.630757	0.595730	-0.238429
Br145	Br	-0.725471	0.577013	-0.210978
H146	H	-0.277584	0.710517	-1.079897
Br147	Br	-0.183344	0.338419	-0.550817
H148	H	-0.324503	0.289611	-0.238233
H149	H	-0.771518	0.595781	-0.238459
Br150	Br	-0.866233	0.577064	-0.211014
H151	H	-0.364072	0.796877	-0.832173
Br152	Br	-0.404826	0.611458	-0.261463
H153	H	-0.803952	0.790096	-0.523234
Br154	Br	-0.209047	0.641912	-0.686648
H155	H	-0.195760	0.237408	-0.523324
H156	H	-0.301645	0.511276	-0.288883
H157	H	-0.195761	0.181767	-0.523330
H158	H	-0.349556	0.782405	-0.956013
Br159	Br	-0.137969	0.570968	-0.907818
H160	H	-1.014021	0.755642	-0.472687
Br161	Br	-0.336930	0.047843	-0.210776
Br162	Br	-0.432000	0.774216	-0.499982
Br163	Br	-0.183347	0.087086	-0.550829
Br164	Br	-0.764172	0.808828	-0.550694
Br165	Br	-0.653597	0.808798	-0.550658
Br166	Br	-0.542583	0.774246	-0.500035
H167	H	-0.324512	0.148856	-0.238268
