data_functionalizedCrystal
_audit_creation_method	'MofGen! by Chris Wilmer'
_symmetry_space_group_name_H-M	'P1'
_symmetry_Int_Tables_number	1
_symmetry_cell_setting	triclinic
loop_
_symmetry_equiv_pos_as_xyz
  x,y,z
_cell_length_a	10.908937
_cell_length_b	11.026607
_cell_length_c	9.482900
_cell_angle_alpha	78.599815
_cell_angle_beta	96.963629
_cell_angle_gamma	84.335986
loop_
_atom_site_label
_atom_site_type_symbol
_atom_site_fract_x
_atom_site_fract_y
_atom_site_fract_z
O1	O	1.677380	-0.201080	0.120940
O2	O	1.324446	-0.110542	0.120933
O3	O	1.471661	-0.326560	0.120931
O4	O	1.530164	0.014939	0.120942
O5	O	1.441792	-0.282536	-0.120862
O6	O	1.294577	-0.066518	-0.120860
O7	O	1.647510	-0.157056	-0.120852
Cu8	Cu	1.468316	-0.107768	-0.142933
Cu9	Cu	1.503640	-0.159830	0.143014
O10	O	1.500295	0.058962	-0.120850
C11	C	1.263626	-0.080069	0.000035
C12	C	1.126899	-0.054871	0.000032
C13	C	0.915324	-0.120786	0.000056
C14	C	1.056636	-0.146827	0.000037
C15	C	1.445935	-0.347581	0.000036
C16	C	1.413762	-0.475804	0.000040
C17	C	1.502597	-0.567537	0.000044
C18	C	1.469348	-0.700062	0.000049
C19	C	1.708331	-0.187530	0.000049
C20	C	1.845059	-0.212729	0.000061
C21	C	1.526022	0.079983	0.000048
C22	C	1.558196	0.208204	0.000053
N23	N	1.443480	-0.071152	-0.344053
C24	C	1.496305	-0.149035	-0.416253
C25	C	1.475652	-0.118563	-0.583670
N26	N	1.528484	-0.196457	0.344134
H27	H	1.603266	-0.547959	0.000038
H28	H	0.889521	-0.310726	0.000060
H29	H	1.368672	-0.719633	0.000056
H30	H	1.415127	-0.029323	-0.645794
H31	H	1.382960	0.018082	-0.406182
C32	C	1.527197	-0.372816	-0.369001
C33	C	1.578009	-0.269487	-0.332354
H34	H	1.577640	-0.447173	-0.317188
H35	H	1.524061	-0.368172	-0.470486
H36	H	1.445433	-0.373188	-0.344156
H37	H	1.659770	-0.269110	-0.357209
H38	H	1.581159	-0.274133	-0.230846
C39	C	1.245011	-0.279319	0.000004
C40	C	1.116637	-0.279129	0.000022
H41	H	1.282050	-0.360994	-0.000015
H42	H	1.280448	-0.253912	0.084317
H43	H	1.259594	-0.223192	-0.084321
H44	H	1.102054	-0.335250	0.084352
H45	H	1.081189	-0.304552	-0.084300
H46	H	1.658887	-0.772249	0.000165
C47	C	1.559130	-0.420176	-0.609101
C48	C	1.610128	-0.317029	-0.572194
H49	H	1.609514	-0.494637	-0.557490
H50	H	1.555906	-0.415339	-0.710630
H51	H	1.477387	-0.420515	-0.584188
H52	H	1.691868	-0.316684	-0.597117
H53	H	1.613366	-0.321867	-0.470643
C54	C	1.271224	-0.628389	0.000041
C55	C	1.277856	-0.502216	0.000038
H56	H	1.187317	-0.644687	0.000031
H57	H	1.321331	-0.678368	0.084357
H58	H	1.300509	-0.647672	-0.084280
H59	H	1.248580	-0.482935	0.084366
H60	H	1.227731	-0.452221	-0.084286
H61	H	1.082446	0.043131	0.000046
C62	C	0.726942	0.011702	0.000077
C63	C	0.855317	0.011511	0.000064
H64	H	0.689900	0.093381	0.000072
H65	H	0.712355	-0.044409	0.084394
H66	H	0.691507	-0.013719	-0.084243
H67	H	0.890753	0.036922	0.084391
H68	H	0.869913	0.067641	-0.084261
