data_functionalizedCrystal
_audit_creation_method	'MofGen! by Chris Wilmer'
_symmetry_space_group_name_H-M	'P1'
_symmetry_Int_Tables_number	1
_symmetry_cell_setting	triclinic
loop_
_symmetry_equiv_pos_as_xyz
  x,y,z
_cell_length_a	31.640172
_cell_length_b	16.704494
_cell_length_c	16.704494
_cell_angle_alpha	60.174809
_cell_angle_beta	89.995619
_cell_angle_gamma	63.420255
loop_
_atom_site_label
_atom_site_type_symbol
_atom_site_fract_x
_atom_site_fract_y
_atom_site_fract_z
Zr1	Zr	0.434455	0.863813	-0.142486
O2	O	0.374652	1.017951	-0.271915
O3	O	0.449503	0.701026	-0.097154
O4	O	0.458092	0.851324	-0.263766
O5	O	0.363024	0.880521	0.019690
O6	O	0.527648	0.851310	-0.263770
O7	O	0.366063	0.867654	-0.105303
O8	O	0.512283	0.582454	0.034268
O9	O	0.378389	1.149376	-0.278347
O10	O	0.511798	0.771175	-0.084656
O11	O	0.457622	0.780788	0.008629
O12	O	0.467735	0.957745	-0.187535
O13	O	0.413558	0.967358	-0.094250
Zr14	Zr	0.540543	0.884313	0.056858
Zr15	Zr	0.545389	0.863790	-0.142493
Zr16	Zr	0.429609	0.884335	0.056865
Zr17	Zr	0.440415	1.073420	-0.152745
Zr18	Zr	0.534583	0.674705	0.067117
O19	O	0.525495	1.047099	0.011526
O20	O	0.532385	1.017920	-0.271925
O21	O	0.367762	1.047131	0.011536
O22	O	0.600346	0.730174	0.186287
O23	O	0.607236	0.700994	-0.097164
O24	O	0.442613	0.730206	0.186296
O25	O	0.611974	0.867604	-0.105319
O26	O	0.516906	0.896802	0.178137
O27	O	0.447350	0.896816	0.178142
O28	O	0.608935	0.880472	0.019675
O29	O	0.466567	1.149359	-0.278353
O30	O	0.508431	0.598767	0.192725
O31	O	0.596609	0.598749	0.192719
O32	O	0.600461	0.582437	0.034262
O33	O	0.374537	1.165689	-0.119890
O34	O	0.462715	1.165671	-0.119896
O35	O	0.507263	0.790381	0.101907
O36	O	0.561440	0.780767	0.008622
O37	O	0.517376	0.967337	-0.094257
O38	O	0.463200	0.976950	-0.000972
C39	C	0.480044	0.611876	-0.029981
C40	C	0.477514	0.522892	-0.025626
C41	C	0.529331	0.345630	-0.114825
C42	C	0.526955	0.262021	-0.110736
C43	C	0.470389	0.272059	-0.013352
C44	C	0.472765	0.355668	-0.017442
C45	C	0.502236	0.392451	-0.068181
C46	C	0.504609	0.476066	-0.072276
C47	C	0.448046	0.486098	0.025113
C48	C	0.445670	0.402489	0.029203
C49	C	0.348738	0.874091	-0.042805
C50	C	0.301644	0.874100	-0.042802
C51	C	0.011311	0.866954	-0.111671
C52	C	-0.165676	0.866939	-0.111677
O53	O	-0.187127	0.860862	-0.170215
N54	N	-0.189481	0.874030	-0.042818
C55	C	-0.169034	0.881118	0.026051
O56	O	-0.193340	0.887138	0.084626
C57	C	0.007954	0.881125	0.026060
C58	C	0.031753	0.874045	-0.042809
C59	C	0.035110	0.859873	-0.180534
C60	C	0.079353	0.859882	-0.180535
C61	C	0.099796	0.866973	-0.111673
C62	C	0.075996	0.874054	-0.042810
C63	C	0.028401	0.888205	0.094933
C64	C	0.072652	0.888204	0.094931
C65	C	0.096451	0.881123	0.026062
C66	C	0.140681	0.881155	0.026051
N67	N	0.164486	0.874064	-0.042808
C68	C	0.144043	0.866973	-0.111670
C69	C	-0.261956	0.881116	0.026040
C70	C	-0.306203	0.881116	0.026037
C71	C	-0.302841	0.866935	-0.111691
C72	C	-0.258595	0.866942	-0.111691
C73	C	-0.238151	0.874025	-0.042819
C74	C	0.236955	0.866995	-0.111667
C75	C	0.281201	0.867009	-0.111665
C76	C	0.277837	0.881185	0.026065
C77	C	0.233594	0.881176	0.026060
C78	C	0.213155	0.874076	-0.042810
O79	O	0.162163	0.887216	0.084565
O80	O	0.168362	0.860930	-0.170223
C81	C	-0.032932	0.866944	-0.111670
C82	C	-0.056732	0.874025	-0.042807
C83	C	-0.036289	0.881116	0.026055
C84	C	-0.100979	0.874025	-0.042810
C85	C	-0.121422	0.866935	-0.111672
C86	C	-0.097617	0.859844	-0.180531
C87	C	-0.053375	0.859853	-0.180532
C88	C	-0.060094	0.888207	0.094914
C89	C	-0.104336	0.888198	0.094909
C90	C	-0.124779	0.881107	0.026047
C91	C	0.626260	0.874035	-0.042823
C92	C	0.673354	0.874025	-0.042826
C93	C	0.493560	0.848393	-0.292171
C94	C	0.495618	0.839681	-0.376800
C95	C	0.494954	1.136250	-0.055647
C96	C	0.497484	1.225234	-0.060002
C97	C	0.453485	1.018105	-0.643245
C98	C	0.455416	1.009925	-0.722765
C99	C	0.501416	0.815139	-0.615361
C100	C	0.499484	0.823320	-0.535842
C101	C	0.475517	0.924806	-0.549788
C102	C	0.473582	0.932986	-0.470267
C103	C	0.519584	0.738202	-0.362866
C104	C	0.521516	0.730021	-0.442385
C105	C	0.481438	0.899733	0.206543
C106	C	0.479380	0.908445	0.291172
C107	C	0.618805	0.611848	-0.029990
C108	C	0.663369	0.522854	-0.025638
C109	C	0.473982	0.637546	0.219375
C110	C	0.469395	0.557274	0.308360
C111	C	0.612744	0.637518	0.219367
C112	C	0.655250	0.557236	0.308348
C113	C	0.362254	1.110608	-0.304995
C114	C	0.319748	1.190889	-0.393977
C115	C	0.356193	1.136278	-0.055638
C116	C	0.311629	1.225271	-0.059990
C117	C	0.501016	1.110580	-0.305003
C118	C	0.505603	1.190852	-0.393988
C119	C	0.658385	0.476054	-0.072292
C120	C	0.700254	0.392445	-0.068222
C121	C	0.747107	0.355632	-0.017491
C122	C	0.752090	0.402441	0.029165
C123	C	0.710222	0.486054	0.025088
C124	C	0.493153	0.524585	0.398847
C125	C	0.488841	0.449174	0.482464
C126	C	0.460773	0.406447	0.475594
C127	C	0.437013	0.439143	0.385097
C128	C	0.441322	0.514558	0.301481
C129	C	0.703496	0.514517	0.301442
C130	C	0.743441	0.439096	0.385041
C131	C	0.735138	0.406388	0.475547
C132	C	0.686887	0.449115	0.482452
C133	C	0.646944	0.524542	0.398853
C134	C	0.271502	1.233618	-0.387070
C135	C	0.231558	1.309066	-0.470671
C136	C	0.239861	1.341778	-0.561177
C137	C	0.288112	1.299045	-0.568081
C138	C	0.328054	1.223604	-0.484482
C139	C	0.316614	1.272079	-0.013344
C140	C	0.274746	1.355709	-0.017438
C141	C	0.227893	1.392524	-0.068172
C142	C	0.222909	1.345712	-0.114823
C143	C	0.264777	1.262089	-0.110735
C144	C	0.533674	1.233555	-0.387086
C145	C	0.537994	1.308969	-0.470689
C146	C	0.514240	1.341683	-0.561192
C147	C	0.486167	1.298971	-0.568092
C148	C	0.481851	1.223553	-0.484490
H149	H	0.425981	0.524233	0.063090
H150	H	-0.325582	0.886898	0.082107
H151	H	0.696186	0.354343	-0.106215
C152	C	0.381122	1.176567	-0.492083
H153	H	0.403726	1.126945	-0.429337
H154	H	0.384856	1.140564	-0.523535
H155	H	0.387526	1.233172	-0.528062
H156	H	0.300577	0.861246	-0.167750
H157	H	0.294487	0.886963	0.082130
C158	C	-0.027198	0.852052	-0.256283
H159	H	-0.045713	0.847819	-0.297283
H160	H	-0.024583	0.914058	-0.293508
H161	H	0.004850	0.789446	-0.224786
C162	C	0.514984	0.413213	0.581998
H163	H	0.532323	0.449450	0.574107
H164	H	0.491188	0.430329	0.614380
H165	H	0.537579	0.337668	0.618905
H166	H	0.446401	0.242084	0.027970
H167	H	0.264732	1.206989	-0.313383
C168	C	0.427124	1.129732	-0.658579
H169	H	0.414281	1.184128	-0.725629
H170	H	0.400900	1.136981	-0.629788
H171	H	0.449935	1.136960	-0.629792
C172	C	0.280236	1.407178	0.033893
H173	H	0.314136	1.373257	0.064706
H174	H	0.267375	1.481789	-0.011988
H175	H	0.262590	1.398217	0.080646
H176	H	0.520934	0.732514	-0.604024
C177	C	0.413252	0.362027	0.085007
H178	H	0.415714	0.305532	0.080757
H179	H	0.424142	0.336006	0.150663
H180	H	0.379893	0.419589	0.058008
C181	C	0.803627	0.361927	0.084984
H182	H	0.800605	0.401770	0.112190
H183	H	0.818641	0.287729	0.134911
H184	H	0.823430	0.371299	0.042283
C185	C	0.368147	1.231598	0.042461
H186	H	0.392373	1.175084	0.038229
H187	H	0.374319	1.289146	0.015471
H188	H	0.369544	1.205576	0.108122
C189	C	0.195920	1.424746	-0.653127
H190	H	0.165999	1.445493	-0.636043
H191	H	0.198638	1.486286	-0.692305
H192	H	0.196010	1.393626	-0.687751
H193	H	0.009030	0.893970	0.151013
H194	H	0.607661	0.559314	0.404490
C195	C	0.214477	0.859195	-0.187428
H196	H	0.234990	0.854990	-0.228441
H197	H	0.212003	0.796597	-0.155948
H198	H	0.182568	0.921211	-0.224652
H199	H	0.192274	1.343846	-0.465031
H200	H	0.294866	1.325689	-0.641781
H201	H	0.782725	0.404314	0.379402
C202	C	0.259290	1.210594	-0.162036
H203	H	0.290933	1.155519	-0.152345
H204	H	0.239388	1.180470	-0.136386
H205	H	0.244168	1.264030	-0.229037
H206	H	0.414160	0.404343	0.379517
C207	C	0.793157	0.263651	-0.013004
H208	H	0.783473	0.241048	-0.048050
H209	H	0.814592	0.288353	-0.040415
H210	H	0.809810	0.204789	0.052228
C211	C	0.537026	0.516530	-0.128084
H212	H	0.534558	0.573037	-0.123848
H213	H	0.570383	0.458975	-0.101098
H214	H	0.526129	0.542558	-0.193745
H215	H	0.454065	1.015622	-0.481626
H216	H	0.767667	0.344971	0.543611
C217	C	0.561743	0.386104	-0.170640
H218	H	0.559274	0.442610	-0.166401
H219	H	0.595101	0.328555	-0.143665
H220	H	0.550842	0.412138	-0.236302
H221	H	0.549019	0.223900	-0.148716
C222	C	0.181843	1.484505	-0.072658
H223	H	0.191526	1.507098	-0.037601
H224	H	0.165185	1.543364	-0.137883
H225	H	0.160411	1.459788	-0.045234
H226	H	0.098729	0.854112	-0.236612
H227	H	0.710266	0.541136	0.227755
H228	H	-0.245313	0.886884	0.082125
C229	C	0.171370	1.386210	-0.170619
H230	H	0.147152	1.442707	-0.166357
H231	H	0.169963	1.412238	-0.236279
H232	H	0.165194	1.328663	-0.143621
H233	H	0.437476	1.085898	-0.798859
C234	C	0.547875	0.618396	-0.427054
H235	H	0.545868	0.626884	-0.487797
H236	H	0.581524	0.579704	-0.391952
H237	H	0.532486	0.579737	-0.391962
C238	C	0.559809	1.197580	-0.287543
H239	H	0.577148	1.233813	-0.295420
H240	H	0.536010	1.214692	-0.255164
H241	H	0.582403	1.122035	-0.250641
C242	C	0.456037	0.323487	0.567573
H243	H	0.435916	0.302722	0.550529
H244	H	0.487832	0.261957	0.606735
H245	H	0.441433	0.354615	0.602197
H246	H	0.714287	0.524149	0.063086
C247	C	0.524021	0.571587	0.406423
H248	H	0.537544	0.541321	0.472295
H249	H	0.549981	0.554899	0.378104
H250	H	0.503574	0.647546	0.373561
H251	H	0.537522	0.662231	-0.286760
C252	C	0.606852	0.516538	-0.128106
H253	H	0.609888	0.476690	-0.155314
H254	H	0.587050	0.507163	-0.085412
H255	H	0.591832	0.590739	-0.178048
C256	C	0.518988	1.424650	-0.653146
H257	H	0.539105	1.445401	-0.636065
H258	H	0.533590	1.393551	-0.687787
H259	H	0.487194	1.486199	-0.692307
C260	C	0.568867	1.355951	-0.463082
H261	H	0.582387	1.325678	-0.397207
H262	H	0.594830	1.339256	-0.491394
H263	H	0.548425	1.431912	-0.495941
H264	H	0.680135	0.422474	0.556153
H265	H	-0.114270	0.854075	-0.236605
C266	C	-0.130511	0.895985	0.170672
H267	H	-0.111993	0.900198	0.211686
H268	H	-0.162560	0.958575	0.139193
H269	H	-0.133116	0.833961	0.207894
C270	C	0.415190	0.550500	0.201952
H271	H	0.397862	0.514240	0.209845
H272	H	0.392595	0.626038	0.165032
H273	H	0.438995	0.533372	0.169582
H274	H	0.466828	1.325618	-0.641792
C275	C	0.450964	1.176600	-0.492095
H276	H	0.437433	1.206899	-0.557972
H277	H	0.471394	1.100643	-0.459243
H278	H	0.425003	1.193315	-0.463780
H279	H	-0.239220	0.861176	-0.167770
C280	C	-0.325328	0.859112	-0.187425
H281	H	-0.355085	0.860114	-0.177550
H282	H	-0.332106	0.918490	-0.250085
H283	H	-0.302666	0.793880	-0.181340
H284	H	0.089296	0.893968	0.151018
C285	C	-0.037615	0.896016	0.170662
H286	H	-0.058134	0.900246	0.211662
H287	H	-0.005706	0.834016	0.207888
H288	H	-0.035148	0.958628	0.139162
H289	H	0.018471	0.854094	-0.236610
C290	C	0.207409	0.888983	0.101803
H291	H	0.225923	0.893207	0.142814
H292	H	0.175360	0.951575	0.070310
H293	H	0.204801	0.826962	0.139031
