data_functionalizedCrystal
_audit_creation_method	'MofGen! by Chris Wilmer'
_symmetry_space_group_name_H-M	'P1'
_symmetry_Int_Tables_number	1
_symmetry_cell_setting	triclinic
loop_
_symmetry_equiv_pos_as_xyz
  x,y,z
_cell_length_a	13.897448
_cell_length_b	13.897449
_cell_length_c	19.076919
_cell_angle_alpha	92.282068
_cell_angle_beta	92.272955
_cell_angle_gamma	90.018972
loop_
_atom_site_label
_atom_site_type_symbol
_atom_site_fract_x
_atom_site_fract_y
_atom_site_fract_z
Zn1	Zn	-0.405914	1.452747	-0.397937
Zn2	Zn	0.094086	1.952747	0.102063
Zn3	Zn	-0.560740	1.459134	-0.280245
Zn4	Zn	-0.060740	1.959134	0.219755
Zn5	Zn	-0.399465	1.297929	-0.280258
Zn6	Zn	0.100535	1.797929	0.219742
Zn7	Zn	-0.567170	1.291420	-0.397903
Zn8	Zn	-0.067170	1.791420	0.102097
O9	O	-0.483322	1.375308	-0.339086
O10	O	0.016678	1.875308	0.160914
O11	O	-0.426460	1.588575	-0.382333
O12	O	0.073540	2.088575	0.117667
O13	O	-0.533957	1.443148	-0.181758
O14	O	-0.033957	1.943148	0.318242
O15	O	-0.265340	1.318517	-0.295887
O16	O	0.234660	1.818517	0.204113
O17	O	-0.540210	1.593268	-0.295866
O18	O	-0.040210	2.093268	0.204134
O19	O	-0.270078	1.432261	-0.382345
O20	O	0.229922	1.932261	0.117655
O21	O	-0.415468	1.324710	-0.181767
O22	O	0.084532	1.824710	0.318233
O23	O	-0.421704	1.162084	-0.295855
O24	O	0.078296	1.662084	0.204145
O25	O	-0.551169	1.307423	-0.496397
O26	O	-0.051169	1.807423	0.003603
O27	O	-0.544916	1.157302	-0.382288
O28	O	-0.044916	1.657302	0.117712
O29	O	-0.432695	1.425949	-0.496421
O30	O	0.067305	1.925949	0.003579
O31	O	-0.696574	1.436836	-0.295834
O32	O	-0.196574	1.936836	0.204166
O33	O	-0.701298	1.313617	-0.382276
O34	O	-0.201298	1.813617	0.117724
C35	C	-0.483309	1.124694	-0.339070
C36	C	0.016691	1.624694	0.160930
C37	C	-0.483327	1.017480	-0.339079
C38	C	0.016673	1.517480	0.160921
C39	C	-0.483331	0.821183	-0.339098
C40	C	0.016669	1.321183	0.160902
C41	C	-0.483326	0.930417	-0.339086
C42	C	0.016674	1.430417	0.160914
C43	C	-0.733936	1.375238	-0.339065
C44	C	-0.233936	1.875238	0.160935
C45	C	-0.841150	1.375296	-0.339080
C46	C	-0.341150	1.875296	0.160920
C47	C	-1.037448	1.375394	-0.339124
C48	C	-0.537448	1.875394	0.160876
C49	C	-0.928214	1.375337	-0.339102
C50	C	-0.428214	1.875337	0.160898
C51	C	-0.231731	1.375403	-0.339121
C52	C	0.268269	1.875403	0.160879
C53	C	-0.124518	1.375443	-0.339137
C54	C	0.375482	1.875443	0.160863
C55	C	-0.493369	1.365248	-0.522660
C56	C	0.006631	1.865248	-0.022660
C57	C	-0.497650	1.360961	-0.600889
C58	C	0.002350	1.860961	-0.100889
C59	C	-0.483337	1.626900	-0.339102
C60	C	0.016663	2.126900	0.160898
C61	C	-0.483343	1.734113	-0.339109
C62	C	0.016657	2.234113	0.160891
C63	C	-0.437981	1.420654	-0.637655
C64	C	0.062019	1.920654	-0.137655
C65	C	-0.442000	1.416614	-0.711159
C66	C	0.058000	1.916614	-0.211159
C67	C	-0.505693	1.352885	-0.747895
C68	C	-0.005693	1.852885	-0.247895
C69	C	-0.565365	1.293185	-0.711124
C70	C	-0.065365	1.793185	-0.211124
C71	C	-0.561341	1.297221	-0.637622
C72	C	-0.061341	1.797221	-0.137622
C73	C	-0.524339	1.334194	-0.967723
C74	C	-0.024339	1.834194	-0.467723
C75	C	-0.528362	1.330165	-1.041231
C76	C	-0.028362	1.830165	-0.541231
C77	C	-0.404994	1.453592	-1.041260
C78	C	0.095006	1.953592	-0.541260
C79	C	-0.400980	1.457626	-0.967756
C80	C	0.099020	1.957626	-0.467756
C81	C	-0.460648	1.397923	-0.930992
C82	C	0.039352	1.897923	-0.430992
N83	N	-0.509805	1.348756	-0.823028
N84	N	-0.009805	1.848756	-0.323028
N85	N	-0.456530	1.402048	-0.855860
N86	N	0.043470	1.902048	-0.355860
C87	C	-0.473245	1.385384	-0.156225
C88	C	0.026755	1.885384	0.343775
C89	C	-0.468692	1.389858	-0.077997
C90	C	0.031308	1.889858	0.422003
H91	H	-0.393413	1.465225	-0.741090
H92	H	0.106587	1.965225	-0.241090
H93	H	-0.356415	1.502198	-1.071202
H94	H	0.143585	2.002198	-0.571202
H95	H	-0.349116	1.509524	-0.937850
H96	H	0.150884	2.009524	-0.437850
C97	C	-0.626296	1.232542	-0.597734
C98	C	-0.126296	1.732542	-0.097734
C99	C	-0.722712	1.252554	-0.615586
C100	C	-0.222712	1.752554	-0.115586
C101	C	-0.782577	1.193001	-0.578847
C102	C	-0.282577	1.693001	-0.078847
H103	H	-0.612970	1.167040	-0.609738
H104	H	-0.112970	1.667040	-0.109738
H105	H	-0.614839	1.244087	-0.548691
H106	H	-0.114839	1.744087	-0.048691
H107	H	-0.734164	1.241002	-0.664618
H108	H	-0.234164	1.741002	-0.164618
H109	H	-0.736068	1.318046	-0.603580
H110	H	-0.236068	1.818046	-0.103580
H111	H	-0.771120	1.204546	-0.529805
H112	H	-0.271120	1.704546	-0.029805
H113	H	-0.769243	1.127502	-0.590855
H114	H	-0.269243	1.627502	-0.090855
H115	H	-0.848002	1.206577	-0.590950
H116	H	-0.348002	1.706577	-0.090950
H117	H	-0.580231	1.278266	-1.071140
H118	H	-0.080231	1.778266	-0.571140
C119	C	-0.589280	1.269479	-0.927859
C120	C	-0.089280	1.769479	-0.427859
C121	C	-0.685701	1.289468	-0.945712
C122	C	-0.185701	1.789468	-0.445712
C123	C	-0.745551	1.229869	-0.908997
C124	C	-0.245551	1.729869	-0.408997
H125	H	-0.575931	1.203987	-0.939883
H126	H	-0.075931	1.703987	-0.439883
H127	H	-0.577833	1.280998	-0.878813
H128	H	-0.077833	1.780998	-0.378813
H129	H	-0.697144	1.277941	-0.994747
H130	H	-0.197144	1.777941	-0.494747
H131	H	-0.699080	1.354948	-0.933686
H132	H	-0.199080	1.854948	-0.433686
H133	H	-0.734103	1.241388	-0.859951
H134	H	-0.234103	1.741388	-0.359951
H135	H	-0.732193	1.164382	-0.921024
H136	H	-0.232193	1.664382	-0.421024
H137	H	-0.810979	1.243430	-0.921100
H138	H	-0.310979	1.743430	-0.421100
C139	C	-0.368727	1.489877	-0.597899
C140	C	0.131273	1.989877	-0.097899
C141	C	-0.317313	1.541268	-0.645834
C142	C	0.182687	2.041268	-0.145834
C143	C	-0.253495	1.605035	-0.609239
C144	C	0.246505	2.105035	-0.109239
H145	H	-0.403948	1.533552	-0.569222
H146	H	0.096052	2.033552	-0.069222
H147	H	-0.325076	1.454588	-0.569243
H148	H	0.174924	1.954588	-0.069243
H149	H	-0.360958	1.576555	-0.674477
H150	H	0.139042	2.076555	-0.174477
H151	H	-0.282073	1.497618	-0.674512
H152	H	0.217927	1.997618	-0.174512
H153	H	-0.209844	1.569746	-0.580583
H154	H	0.290156	2.069746	-0.080583
H155	H	-0.288724	1.648704	-0.580564
H156	H	0.211276	2.148704	-0.080564
H157	H	-0.218597	1.639905	-0.641757
H158	H	0.281403	2.139905	-0.141757
C159	C	-0.634399	1.223833	-0.750970
C160	C	-0.134399	1.723833	-0.250970
C161	C	-0.612394	1.129384	-0.733097
C162	C	-0.112394	1.629384	-0.233097
C163	C	-0.675963	1.065472	-0.769793
C164	C	-0.175963	1.565472	-0.269793
H165	H	-0.698585	1.238457	-0.738943
H166	H	-0.198585	1.738457	-0.238943
H167	H	-0.628247	1.229914	-0.800018
H168	H	-0.128247	1.729914	-0.300018
H169	H	-0.618555	1.123307	-0.684060
H170	H	-0.118555	1.623307	-0.184060
H171	H	-0.548219	1.114730	-0.745125
H172	H	-0.048219	1.614730	-0.245125
H173	H	-0.669811	1.071552	-0.818842
H174	H	-0.169811	1.571552	-0.318842
H175	H	-0.740145	1.080104	-0.757764
H176	H	-0.240145	1.580104	-0.257764
H177	H	-0.661036	1.001380	-0.757677
H178	H	-0.161036	1.501380	-0.257677
