data_functionalizedCrystal
_audit_creation_method	'MofGen! by Chris Wilmer'
_symmetry_space_group_name_H-M	'P1'
_symmetry_Int_Tables_number	1
_symmetry_cell_setting	triclinic
loop_
_symmetry_equiv_pos_as_xyz
  x,y,z
_cell_length_a	15.298068
_cell_length_b	21.295417
_cell_length_c	15.296720
_cell_angle_alpha	99.639335
_cell_angle_beta	88.354818
_cell_angle_gamma	99.688570
loop_
_atom_site_label
_atom_site_type_symbol
_atom_site_fract_x
_atom_site_fract_y
_atom_site_fract_z
Zn1	Zn	1.253349	-0.187264	-0.727337
Zn2	Zn	1.753349	0.312736	-0.227337
Zn3	Zn	1.278597	-0.271807	-0.580856
Zn4	Zn	1.778597	0.228193	-0.080856
Zn5	Zn	1.132230	-0.181147	-0.555505
Zn6	Zn	1.632230	0.318853	-0.055505
Zn7	Zn	1.106821	-0.307097	-0.701874
Zn8	Zn	1.606821	0.192903	-0.201874
O9	O	1.192749	-0.236829	-0.641393
O10	O	1.692749	0.263171	-0.141393
O11	O	1.379276	-0.186270	-0.729172
O12	O	1.879276	0.313730	-0.229172
O13	O	1.280381	-0.242452	-0.454934
O14	O	1.780381	0.257548	0.045066
O15	O	1.148363	-0.093867	-0.578345
O16	O	1.648363	0.406133	-0.078345
O17	O	1.397826	-0.248383	-0.621553
O18	O	1.897826	0.251617	-0.121553
O19	O	1.237349	-0.098361	-0.704590
O20	O	1.737349	0.401639	-0.204590
O21	O	1.172846	-0.175845	-0.436308
O22	O	1.672846	0.324155	0.063692
O23	O	1.006281	-0.210064	-0.553655
O24	O	1.506281	0.289936	-0.053655
O25	O	1.105058	-0.308530	-0.827811
O26	O	1.605058	0.191470	-0.327811
O27	O	0.987614	-0.302599	-0.661192
O28	O	1.487614	0.197401	-0.161192
O29	O	1.212711	-0.220489	-0.846518
O30	O	1.712711	0.279511	-0.346518
O31	O	1.255744	-0.364580	-0.596862
O32	O	1.755744	0.135420	-0.096862
O33	O	1.129540	-0.390508	-0.685774
O34	O	1.629540	0.109492	-0.185774
C35	C	0.965164	-0.259498	-0.601910
C36	C	1.465164	0.240502	-0.101910
C37	C	0.867799	-0.269213	-0.585040
C38	C	1.367799	0.230787	-0.085040
C39	C	0.554651	-0.167547	-0.761968
C40	C	1.054651	0.332453	-0.261968
C41	C	0.646130	-0.158421	-0.777824
C42	C	1.146130	0.341579	-0.277824
C43	C	0.701551	-0.186118	-0.729629
C44	C	1.201551	0.313882	-0.229629
C45	C	0.665486	-0.222943	-0.665576
C46	C	1.165486	0.277057	-0.165576
C47	C	0.573997	-0.232074	-0.649724
C48	C	1.073997	0.267926	-0.149724
C49	C	0.720897	-0.250645	-0.617385
C50	C	1.220897	0.249355	-0.117385
C51	C	0.684832	-0.287470	-0.553332
C52	C	1.184832	0.212530	-0.053332
C53	C	0.593352	-0.296599	-0.537483
C54	C	1.093352	0.203401	-0.037483
C55	C	0.537930	-0.268902	-0.585677
C56	C	1.037930	0.231098	-0.085677
C57	C	0.812386	-0.241514	-0.633237
C58	C	1.312386	0.258486	-0.133237
C59	C	0.831732	-0.306042	-0.520993
C60	C	1.331732	0.193958	-0.020993
C61	C	0.740253	-0.315168	-0.505138
C62	C	1.240253	0.184832	-0.005138
C63	C	1.192645	-0.400385	-0.641329
C64	C	1.692645	0.099615	-0.141329
C65	C	1.192676	-0.470352	-0.641345
C66	C	1.692676	0.029648	-0.141345
C67	C	1.238972	-0.505510	-0.707115
C68	C	1.738972	-0.005510	-0.207115
C69	C	1.238999	-0.571253	-0.707142
C70	C	1.738999	-0.071253	-0.207142
C71	C	1.192742	-0.601831	-0.641385
C72	C	1.692742	-0.101831	-0.141385
C73	C	1.146436	-0.566665	-0.575609
C74	C	1.646436	-0.066665	-0.075609
C75	C	1.146403	-0.500926	-0.575589
C76	C	1.646403	-0.000926	-0.075589
N77	N	1.199402	-0.694899	-0.563593
N78	N	1.699402	-0.194899	-0.063593
N79	N	1.199438	-0.757349	-0.563615
N80	N	1.699438	-0.257349	-0.063615
C81	C	1.192837	-0.799901	-0.641442
C82	C	1.692837	-0.299901	-0.141442
N83	N	1.186216	-0.777643	-0.719251
N84	N	1.686216	-0.277643	-0.219251
N85	N	1.186185	-0.715187	-0.719228
N86	N	1.686185	-0.215187	-0.219228
C87	C	1.192772	-0.673115	-0.641400
C88	C	1.692772	-0.173115	-0.141400
C89	C	1.239165	-0.906345	-0.707247
C90	C	1.739165	-0.406345	-0.207247
C91	C	1.239186	-0.972090	-0.707274
C92	C	1.739186	-0.472090	-0.207274
C93	C	1.146629	-0.967500	-0.575734
C94	C	1.646629	-0.467500	-0.075734
C95	C	1.146602	-0.901758	-0.575714
C96	C	1.646602	-0.401758	-0.075714
C97	C	1.192875	-0.871184	-0.641470
C98	C	1.692875	-0.371184	-0.141470
C99	C	1.421222	-0.214072	-0.681030
C100	C	1.921222	0.285928	-0.181030
C101	C	1.518584	-0.204375	-0.697921
C102	C	2.018584	0.295625	-0.197921
C103	C	1.153234	-0.269128	-0.869831
C104	C	1.653234	0.230872	-0.369831
C105	C	1.136395	-0.282892	-0.967178
C106	C	1.636395	0.217108	-0.467178
C107	C	1.192874	-0.072634	-0.641480
C108	C	1.692874	0.427366	-0.141480
C109	C	1.192927	-0.002664	-0.641517
C110	C	1.692927	0.497336	-0.141517
C111	C	1.313133	-0.138342	-1.280544
C112	C	1.813133	0.361658	-0.780544
C113	C	1.328960	-0.125411	-1.189083
C114	C	1.828960	0.374589	-0.689083
C115	C	1.280820	-0.164780	-1.133602
C116	C	1.780820	0.335220	-0.633602
C117	C	1.216851	-0.217083	-1.169592
C118	C	1.716851	0.282917	-0.669592
C119	C	1.201027	-0.230019	-1.261063
C120	C	1.701027	0.269981	-0.761063
C121	C	1.168714	-0.256456	-1.114121
C122	C	1.668714	0.243544	-0.614121
C123	C	1.104745	-0.308759	-1.150111
C124	C	1.604745	0.191241	-0.650111
C125	C	1.088924	-0.321692	-1.241573
C126	C	1.588924	0.178308	-0.741573
C127	C	1.137064	-0.282323	-1.297053
C128	C	1.637064	0.217677	-0.797053
C129	C	1.184537	-0.243520	-1.022650
C130	C	1.684537	0.256480	-0.522650
C131	C	1.072431	-0.335197	-1.003169
C132	C	1.572431	0.164803	-0.503169
C133	C	1.056605	-0.348128	-1.094630
C134	C	1.556605	0.151872	-0.594630
C135	C	1.232161	-0.204605	-0.413852
C136	C	1.732161	0.295395	0.086148
C137	C	1.249170	-0.190647	-0.316535
C138	C	1.749170	0.309353	0.183465
H139	H	0.509518	-0.145004	-0.801206
H140	H	1.009518	0.354996	-0.301206
H141	H	0.776038	-0.178683	-0.742539
H142	H	1.276038	0.321317	-0.242539
H143	H	0.876856	-0.328599	-0.481753
H144	H	1.376856	0.171401	0.018247
H145	H	1.004520	-0.390714	-1.123946
H146	H	1.504520	0.109286	-0.623946
H147	H	1.236621	-0.200934	-0.993356
H148	H	1.736621	0.299066	-0.493356
C149	C	1.325817	-0.203922	-1.006452
C150	C	1.825817	0.296078	-0.506452
C151	C	1.298252	-0.150567	-1.033073
C152	C	1.798252	0.349433	-0.533073
H153	H	1.336595	-0.195142	-0.944390
H154	H	1.836595	0.304858	-0.444390
H155	H	1.280822	-0.240694	-1.019922
H156	H	1.780822	0.259306	-0.519922
H157	H	1.378736	-0.212105	-1.036983
H158	H	1.878736	0.287895	-0.536983
H159	H	1.245329	-0.142386	-1.002547
H160	H	1.745329	0.357614	-0.502547
H161	H	1.343250	-0.113783	-1.019594
H162	H	1.843250	0.386217	-0.519594
C163	C	1.053359	-0.350763	-1.417471
C164	C	1.553359	0.149237	-0.917471
C165	C	1.119667	-0.296539	-1.397593
C166	C	1.619667	0.203461	-0.897593
H167	H	1.042619	-0.359535	-1.479540
H168	H	1.542619	0.140465	-0.979540
H169	H	1.072060	-0.386946	-1.399390
H170	H	1.572060	0.113054	-0.899390
H171	H	1.000425	-0.342576	-1.386972
H172	H	1.500425	0.157424	-0.886972
H173	H	1.172604	-0.304728	-1.428087
H174	H	1.672604	0.195272	-0.928087
H175	H	1.100970	-0.260348	-1.415683
H176	H	1.600970	0.239652	-0.915683
H177	H	1.276840	-0.881452	-0.760792
H178	H	1.776840	-0.381452	-0.260792
C179	C	1.129554	-0.570242	-0.419894
C180	C	1.629554	-0.070242	0.080106
C181	C	1.095589	-0.600273	-0.503326
C182	C	1.595589	-0.100273	-0.003326
H183	H	1.098154	-0.590988	-0.375271
H184	H	1.598154	-0.090988	0.124729
H185	H	1.190624	-0.573313	-0.417342
H186	H	1.690624	-0.073313	0.082658
H187	H	1.122903	-0.526059	-0.410481
H188	H	1.622903	-0.026059	0.089519
H189	H	1.102245	-0.644456	-0.512741
H190	H	1.602245	-0.144456	-0.012741
H191	H	1.034503	-0.597208	-0.505880
H192	H	1.534503	-0.097208	-0.005880
C193	C	1.280150	-0.674067	-0.765567
C194	C	1.780150	-0.174067	-0.265567
C195	C	1.289894	-0.609909	-0.779438
C196	C	1.789894	-0.109909	-0.279438
H197	H	1.311568	-0.697930	-0.810202
H198	H	1.811568	-0.197930	-0.310202
H199	H	1.303194	-0.675244	-0.708971
H200	H	1.803194	-0.175244	-0.208971
H201	H	1.219079	-0.692541	-0.768135
H202	H	1.719079	-0.192541	-0.268135
H203	H	1.350965	-0.591433	-0.776863
H204	H	1.850965	-0.091433	-0.276863
H205	H	1.266854	-0.608729	-0.836049
H206	H	1.766854	-0.108729	-0.336049
H207	H	0.675487	-0.128440	-0.829978
H208	H	1.175487	0.371560	-0.329978
C209	C	1.005502	-0.489523	-0.507071
C210	C	1.505502	0.010477	-0.007071
C211	C	1.095515	-0.462275	-0.503285
C212	C	1.595515	0.037725	-0.003285
H213	H	0.974089	-0.465663	-0.462428
H214	H	1.474089	0.034337	0.037572
H215	H	0.982461	-0.488334	-0.563664
H216	H	1.482461	0.011666	-0.063664
H217	H	0.998909	-0.533052	-0.497674
H218	H	1.498909	-0.033052	0.002326
H219	H	1.102109	-0.418748	-0.512689
H220	H	1.602109	0.081252	-0.012689
H221	H	1.118563	-0.463458	-0.446679
H222	H	1.618563	0.036542	0.053321
H223	H	1.276647	-0.480619	-0.760659
H224	H	1.776647	0.019381	-0.260659
C225	C	1.030968	-1.051510	-0.543060
C226	C	1.530968	-0.551510	-0.043060
C227	C	1.095774	-1.001104	-0.503455
C228	C	1.595774	-0.501104	-0.003455
H229	H	0.999573	-1.072260	-0.498438
H230	H	1.499573	-0.572260	0.001562
H231	H	0.990832	-1.034603	-0.575360
H232	H	1.490832	-0.534603	-0.075360
H233	H	1.058553	-1.081858	-0.582233
H234	H	1.558553	-0.581858	-0.082233
H235	H	1.068189	-0.970753	-0.464287
H236	H	1.568189	-0.470753	0.035713
H237	H	1.135917	-1.018011	-0.471140
H238	H	1.635917	-0.518011	0.028860
H239	H	1.276884	-1.000715	-0.760836
H240	H	1.776884	-0.500715	-0.260836
H241	H	1.108908	-0.873129	-0.522155
H242	H	1.608908	-0.373129	-0.022155
H243	H	0.463439	-0.276336	-0.572777
H244	H	0.963439	0.223664	-0.072777
C245	C	1.046899	-0.356073	-0.854309
C246	C	1.546899	0.143927	-0.354309
C247	C	1.019507	-0.378474	-0.942192
C248	C	1.519507	0.121526	-0.442192
H249	H	1.014225	-0.382788	-0.816663
H250	H	1.514225	0.117212	-0.316663
H251	H	1.108331	-0.357308	-0.849529
H252	H	1.608331	0.142692	-0.349529
H253	H	1.036703	-0.312933	-0.837131
H254	H	1.536703	0.187067	-0.337131
H255	H	1.029710	-0.421613	-0.959372
H256	H	1.529710	0.078387	-0.459372
H257	H	0.958061	-0.377246	-0.946976
H258	H	1.458061	0.122754	-0.446976
H259	H	0.563989	-0.326591	-0.485334
H260	H	1.063989	0.173409	0.014666
H261	H	0.710875	-0.345152	-0.452986
H262	H	1.210875	0.154848	0.047014
H263	H	0.841742	-0.211530	-0.685388
H264	H	1.341742	0.288470	-0.185388
H265	H	1.381045	-0.082827	-1.159788
H266	H	1.881045	0.417173	-0.659788
C267	C	1.338649	-0.117477	-1.429410
C268	C	1.838649	0.382523	-0.929410
C269	C	1.366046	-0.095075	-1.341529
C270	C	1.866046	0.404925	-0.841529
H271	H	1.371317	-0.090761	-1.467058
H272	H	1.871317	0.409239	-0.967058
H273	H	1.348842	-0.160612	-1.446588
H274	H	1.848842	0.339388	-0.946588
H275	H	1.277208	-0.116240	-1.434186
H276	H	1.777208	0.383760	-0.934186
H277	H	1.427486	-0.096316	-1.336752
H278	H	1.927486	0.403684	-0.836752
H279	H	1.355861	-0.051929	-1.324346
H280	H	1.855861	0.448071	-0.824346
H281	H	1.036843	-0.364285	-1.270873
H282	H	1.536843	0.135715	-0.770873
