data_functionalizedCrystal
_audit_creation_method	'MofGen! by Chris Wilmer'
_symmetry_space_group_name_H-M	'P1'
_symmetry_Int_Tables_number	1
_symmetry_cell_setting	triclinic
loop_
_symmetry_equiv_pos_as_xyz
  x,y,z
_cell_length_a	17.019330
_cell_length_b	14.853569
_cell_length_c	13.330367
_cell_angle_alpha	89.994190
_cell_angle_beta	93.887920
_cell_angle_gamma	96.482661
loop_
_atom_site_label
_atom_site_type_symbol
_atom_site_fract_x
_atom_site_fract_y
_atom_site_fract_z
O1	O	-1.046809	0.114918	-0.173871
O2	O	-0.713476	0.448252	0.159462
O3	O	-0.380142	0.781585	0.492795
O4	O	-0.817160	0.129551	-0.154032
O5	O	-0.483827	0.462884	0.179302
O6	O	-0.150494	0.796217	0.512635
O7	O	-0.938118	-0.009011	-0.164472
O8	O	-0.604785	0.324322	0.168862
O9	O	-0.271452	0.657655	0.502195
O10	O	-0.925851	0.253481	-0.163431
O11	O	-0.592518	0.586814	0.169902
O12	O	-0.259184	0.920147	0.503236
O13	O	-0.938101	-0.009015	0.002377
O14	O	-0.604767	0.324319	0.335710
O15	O	-0.271434	0.657652	0.669044
O16	O	-0.817143	0.129548	0.012817
O17	O	-0.483809	0.462881	0.346150
O18	O	-0.150476	0.796214	0.679484
O19	O	-1.046792	0.114915	-0.007023
O20	O	-0.713458	0.448249	0.326311
O21	O	-0.380125	0.781582	0.659644
Cu22	Cu	-0.931965	0.122231	0.018132
Cu23	Cu	-0.598632	0.455565	0.351465
Cu24	Cu	-0.265299	0.788898	0.684798
Cu25	Cu	-0.931986	0.122235	-0.179186
Cu26	Cu	-0.598653	0.455568	0.154147
Cu27	Cu	-0.265320	0.788901	0.487481
O28	O	-0.925833	0.253477	0.003417
O29	O	-0.592500	0.586811	0.336751
O30	O	-0.259167	0.920144	0.670084
C31	C	-0.787762	0.128992	-0.068068
C32	C	-0.454428	0.462325	0.265265
C33	C	-0.121095	0.795659	0.598598
C34	C	-0.700190	0.127321	-0.060503
C35	C	-0.366856	0.460655	0.272831
C36	C	-0.033523	0.793988	0.606164
C37	C	-0.204896	0.117901	-0.013152
C38	C	0.128438	0.451234	0.320182
C39	C	0.461771	0.784568	0.653515
C40	C	-0.287179	0.119471	-0.020263
C41	C	0.046155	0.452804	0.313071
C42	C	0.379488	0.786138	0.646404
C43	C	-0.328331	0.120251	-0.114769
C44	C	0.005002	0.453584	0.218565
C45	C	0.338336	0.786917	0.551898
C46	C	-0.287194	0.119470	-0.202170
C47	C	0.046139	0.452803	0.131164
C48	C	0.379472	0.786136	0.464497
C49	C	-0.204912	0.117906	-0.195058
C50	C	0.128421	0.451240	0.138275
C51	C	0.461755	0.784573	0.471609
C52	C	-0.576771	0.124977	-0.140792
C53	C	-0.243437	0.458310	0.192542
C54	C	0.089896	0.791644	0.525875
C55	C	-0.659059	0.126538	-0.147897
C56	C	-0.325726	0.459871	0.185436
C57	C	0.007607	0.793204	0.518770
C58	C	-0.659038	0.126540	0.034011
C59	C	-0.325704	0.459874	0.367344
C60	C	0.007629	0.793207	0.700678
C61	C	-0.576754	0.124972	0.041114
C62	C	-0.243421	0.458305	0.374448
C63	C	0.089912	0.791638	0.707781
C64	C	-0.535624	0.124196	-0.046286
C65	C	-0.202291	0.457529	0.287047
C66	C	0.131042	0.790862	0.620380
C67	C	-0.412438	0.121853	-0.122039
C68	C	-0.079105	0.455186	0.211294
C69	C	0.254229	0.788519	0.544627
C70	C	-0.451518	0.122600	-0.039015
C71	C	-0.118185	0.455934	0.294319
C72	C	0.215148	0.789267	0.627652
C73	C	-0.937553	-0.042600	-0.080999
C74	C	-0.604220	0.290733	0.252334
C75	C	-0.270887	0.624066	0.585668
C76	C	-0.935887	-0.142679	-0.080854
C77	C	-0.602554	0.190654	0.252479
C78	C	-0.269220	0.523987	0.585813
C79	C	-0.863254	-0.178863	-0.074578
C80	C	-0.529920	0.154471	0.258756
C81	C	-0.196587	0.487804	0.592089
C82	C	-1.006955	-0.200534	-0.087003
C83	C	-0.673622	0.132799	0.246331
C84	C	-0.340288	0.466132	0.579664
C85	C	-1.005392	-0.294564	-0.086872
C86	C	-0.672059	0.038769	0.246461
C87	C	-0.338725	0.372102	0.579795
C88	C	-0.932759	-0.330748	-0.080595
C89	C	-0.599425	0.002586	0.252738
C90	C	-0.266092	0.335919	0.586071
C91	C	-0.861688	-0.272901	-0.074450
C92	C	-0.528355	0.060432	0.258884
C93	C	-0.195021	0.393766	0.592217
C94	C	-1.076461	-0.352418	-0.093028
C95	C	-0.743128	-0.019085	0.240305
C96	C	-0.409794	0.314249	0.573639
C97	C	-1.074901	-0.446454	-0.092899
C98	C	-0.741567	-0.113121	0.240435
C99	C	-0.408234	0.220212	0.573768
C100	C	-1.002266	-0.482639	-0.086615
C101	C	-0.668933	-0.149306	0.246719
C102	C	-0.335600	0.184028	0.580052
C103	C	-0.931193	-0.424786	-0.080468
C104	C	-0.597860	-0.091453	0.252866
C105	C	-0.264526	0.241880	0.586199
C106	C	-0.858560	-0.460970	-0.074191
C107	C	-0.525226	-0.127636	0.259142
C108	C	-0.191893	0.205697	0.592476
C109	C	-0.787485	-0.403118	-0.068036
C110	C	-0.454152	-0.069785	0.265297
C111	C	-0.120819	0.263549	0.598630
C112	C	-0.789054	-0.309086	-0.068166
C113	C	-0.455720	0.024247	0.265168
C114	C	-0.122387	0.357581	0.598501
C115	C	-1.000698	-0.576671	-0.086486
C116	C	-0.667365	-0.243338	0.246848
C117	C	-0.334031	0.089995	0.580181
C118	C	-0.856994	-0.555008	-0.074063
C119	C	-0.523661	-0.221675	0.259270
C120	C	-0.190327	0.111659	0.592604
C121	C	-0.076191	0.115467	-0.092985
C122	C	0.257143	0.448800	0.240349
C123	C	0.590476	0.782134	0.573682
C124	C	-0.163765	0.117118	-0.100546
C125	C	0.169568	0.450451	0.232787
C126	C	0.502902	0.783784	0.566120
C127	C	-0.926398	0.287066	-0.080057
C128	C	-0.593065	0.620400	0.253276
C129	C	-0.259732	0.953733	0.586609
C130	C	-0.928065	0.387145	-0.080209
C131	C	-0.594731	0.720479	0.253124
C132	C	-0.261398	1.053812	0.586458
N133	N	-0.931957	0.122228	0.156914
N134	N	-0.598623	0.455561	0.490247
N135	N	-0.265290	0.788895	0.823581
N136	N	-0.932001	0.122231	-0.317969
N137	N	-0.598668	0.455564	0.015364
N138	N	-0.265335	0.788897	0.348698
C139	C	-0.878424	0.183566	0.634157
C140	C	-0.545090	0.516899	0.967491
C141	C	-0.211757	0.850233	1.300824
C142	C	-0.985570	0.060896	0.624878
C143	C	-0.652237	0.394230	0.958211
C144	C	-0.318903	0.727563	1.291544
C145	C	-0.985561	0.060894	0.519860
C146	C	-0.652228	0.394227	0.853193
C147	C	-0.318894	0.727560	1.186527
C148	C	-0.931983	0.122229	0.471986
C149	C	-0.598650	0.455562	0.805320
C150	C	-0.265317	0.788896	1.138653
C151	C	-0.878415	0.183567	0.529130
C152	C	-0.545081	0.516900	0.862463
C153	C	-0.211748	0.850234	1.195797
C154	C	-1.039134	-0.000437	0.462708
C155	C	-0.705801	0.332896	0.796041
C156	C	-0.372468	0.666230	1.129374
C157	C	-1.039128	-0.000442	0.357684
C158	C	-0.705795	0.332892	0.691017
C159	C	-0.372461	0.666225	1.024350
C160	C	-0.985546	0.060890	0.309808
C161	C	-0.652213	0.394223	0.643142
C162	C	-0.318879	0.727557	0.976475
C163	C	-0.931974	0.122230	0.366959
C164	C	-0.598641	0.455563	0.700292
C165	C	-0.265308	0.788897	1.033626
C166	C	-0.878397	0.183565	0.319085
C167	C	-0.545063	0.516898	0.652419
C168	C	-0.211730	0.850232	0.985752
C169	C	-0.824821	0.244901	0.376234
C170	C	-0.491488	0.578235	0.709568
C171	C	-0.158154	0.911568	1.042901
C172	C	-0.824833	0.244899	0.481255
C173	C	-0.491499	0.578232	0.814588
C174	C	-0.158166	0.911565	1.147922
C175	C	-0.985534	0.060893	0.204788
C176	C	-0.652201	0.394226	0.538121
C177	C	-0.318868	0.727559	0.871454
C178	C	-0.878388	0.183566	0.214058
C179	C	-0.545055	0.516899	0.547391
C180	C	-0.211721	0.850233	0.880725
H181	H	-0.543293	0.124342	-0.211960
H182	H	-0.209960	0.457675	0.121373
H183	H	0.123374	0.791008	0.454706
H184	H	-1.135595	-0.322950	-0.098076
H185	H	-0.802262	0.010383	0.235257
H186	H	-0.468929	0.343717	0.568590
H187	H	-0.781214	0.294837	0.527792
H188	H	-0.447880	0.628171	0.861125
H189	H	-0.114547	0.961504	1.194459
F190	F	-1.076335	-0.638236	-0.093045
F191	F	-0.743001	-0.304903	0.240289
F192	F	-0.409668	0.028431	0.573622
H193	H	-0.781201	0.294845	0.337243
H194	H	-0.447867	0.628178	0.670577
H195	H	-0.114534	0.961512	1.003910
F196	F	-0.456243	0.122673	-0.222618
F197	F	-0.122910	0.456007	0.110716
F198	F	0.210423	0.789340	0.444049
F199	F	-1.042554	-0.004376	0.143972
F200	F	-0.709221	0.328957	0.477305
F201	F	-0.375888	0.662290	0.810639
H202	H	-1.029195	0.010963	0.663859
H203	H	-0.695862	0.344297	0.997193
H204	H	-0.362529	0.677630	1.330526
F205	F	-1.150543	-0.508015	-0.099444
F206	F	-0.817210	-0.174682	0.233889
F207	F	-0.483876	0.158651	0.567222
F208	F	-0.821358	0.248845	0.163116
F209	F	-0.488025	0.582178	0.496449
F210	F	-0.154691	0.915512	0.829783
F211	F	-0.821404	0.248839	0.694977
F212	F	-0.488071	0.582172	1.028310
F213	F	-0.154737	0.915505	1.361644
H214	H	-1.082760	-0.050370	0.501690
H215	H	-0.749426	0.282963	0.835023
H216	H	-0.416093	0.616296	1.168356
H217	H	-0.692562	0.127180	-0.224859
H218	H	-0.359229	0.460513	0.108474
H219	H	-0.025896	0.793847	0.441807
F220	F	-0.787615	-0.117295	-0.068024
F221	F	-0.454282	0.216039	0.265309
F222	F	-0.120949	0.549372	0.598642
F223	F	-0.779686	-0.593509	-0.067375
F224	F	-0.446353	-0.260175	0.265958
F225	F	-0.113019	0.073158	0.599291
H226	H	-0.320706	0.120110	-0.279119
H227	H	0.012627	0.453444	0.054214
H228	H	0.345960	0.786777	0.387548
H229	H	-1.082751	-0.050385	0.311159
H230	H	-0.749418	0.282948	0.644492
H231	H	-0.416085	0.616281	0.977826
H232	H	-0.728347	-0.432591	-0.062932
H233	H	-0.395014	-0.099258	0.270401
H234	H	-0.061680	0.234076	0.603734
H235	H	-0.731189	-0.261976	-0.063158
H236	H	-0.397856	0.071358	0.270176
H237	H	-0.064523	0.404691	0.603509
F238	F	-0.407719	0.121776	0.061562
F239	F	-0.074386	0.455109	0.394896
F240	F	0.258948	0.788442	0.728229
H241	H	-0.171395	0.117270	0.063806
H242	H	0.161938	0.450603	0.397139
H243	H	0.495272	0.783937	0.730472
H244	H	-1.066090	-0.171068	-0.092093
H245	H	-0.732757	0.162265	0.241240
H246	H	-0.399423	0.495599	0.574574
H247	H	-0.543256	0.124317	0.118071
H248	H	-0.209923	0.457650	0.451405
H249	H	0.123411	0.790984	0.784738
F250	F	-0.330949	0.120309	0.072755
F251	F	0.002385	0.453643	0.406089
F252	F	0.335718	0.786976	0.739422
H253	H	-0.171424	0.117271	-0.266224
H254	H	0.161909	0.450604	0.067109
H255	H	0.495242	0.783938	0.400443
F256	F	-0.702816	0.127371	0.127023
F257	F	-0.369483	0.460705	0.460356
F258	F	-0.036149	0.794038	0.793689
