data_functionalizedCrystal
_audit_creation_method	'MofGen! by Chris Wilmer'
_symmetry_space_group_name_H-M	'P1'
_symmetry_Int_Tables_number	1
_symmetry_cell_setting	triclinic
loop_
_symmetry_equiv_pos_as_xyz
  x,y,z
_cell_length_a	14.908571
_cell_length_b	14.908178
_cell_length_c	12.759393
_cell_angle_alpha	93.332413
_cell_angle_beta	93.314678
_cell_angle_gamma	89.820760
loop_
_atom_site_label
_atom_site_type_symbol
_atom_site_fract_x
_atom_site_fract_y
_atom_site_fract_z
Zn1	Zn	1.354019	-0.437388	0.655463
Zn2	Zn	1.345241	-0.587781	0.469072
Zn3	Zn	1.203647	-0.428744	0.470287
Zn4	Zn	1.194957	-0.579025	0.635212
O5	O	1.274466	-0.508235	0.557508
O6	O	1.478680	-0.464619	0.638704
O7	O	1.326422	-0.566731	0.322207
O8	O	1.230905	-0.304058	0.503834
O9	O	1.472231	-0.575112	0.501764
O10	O	1.341382	-0.310409	0.639882
O11	O	1.222393	-0.449888	0.323099
O12	O	1.076669	-0.441398	0.484198
O13	O	1.216093	-0.560190	0.784925
O14	O	1.070284	-0.551809	0.605368
O15	O	1.332956	-0.456130	0.799803
O16	O	1.317995	-0.712452	0.482128
O17	O	1.207582	-0.706020	0.604190
C18	C	1.040851	-0.494716	0.542718
C19	C	0.940908	-0.488955	0.536413
C20	C	0.746495	-0.593277	0.650548
C21	C	0.652590	-0.587866	0.644628
C22	C	0.659191	-0.472718	0.518660
C23	C	0.753096	-0.478129	0.524580
C24	C	0.796745	-0.538411	0.590525
C25	C	0.890652	-0.543826	0.596439
C26	C	0.897252	-0.428674	0.470477
C27	C	0.803346	-0.423264	0.464557
C28	C	1.260917	-0.741864	0.540854
C29	C	1.255203	-0.841817	0.533769
C30	C	1.359420	-1.036096	0.662262
C31	C	1.354054	-1.130010	0.655609
C32	C	1.239103	-1.123562	0.513817
C33	C	1.244468	-1.029647	0.520469
C34	C	1.304630	-0.985918	0.594693
C35	C	1.309999	-0.892002	0.601341
C36	C	1.195044	-0.885555	0.459554
C37	C	1.189679	-0.979469	0.452901
C38	C	1.508993	-0.521806	0.572357
C39	C	1.608934	-0.527590	0.578685
C40	C	1.274534	-0.508148	0.831552
C41	C	1.274563	-0.508110	0.948333
C42	C	1.288092	-0.273694	0.574253
C43	C	1.293899	-0.173747	0.581388
C44	C	1.274454	-0.508259	0.284539
C45	C	1.274613	-0.508053	0.167787
C46	C	1.335422	-0.453921	1.010945
C47	C	1.335445	-0.453890	1.120673
C48	C	1.213748	-0.562245	1.105167
C49	C	1.213722	-0.562271	0.995441
C50	C	1.405685	-0.391366	1.019898
C51	C	1.405708	-0.391335	1.129626
H52	H	0.611680	-0.632542	0.693507
H53	H	1.164211	-0.606338	1.143536
H54	H	1.391077	-0.320650	0.993921
H55	H	1.470375	-0.420154	0.988269
O56	O	1.180539	-1.166006	0.441833
C57	C	1.025970	-1.186050	0.378917
C58	C	1.092192	-1.137934	0.460514
H59	H	0.954528	-1.163358	0.393978
H60	H	1.031472	-1.261797	0.385780
H61	H	1.042898	-1.168569	0.296528
H62	H	1.075307	-1.155342	0.542939
H63	H	1.086677	-1.062199	0.453558
O64	O	1.380576	-0.310608	1.173827
C65	C	1.333197	-0.158986	1.144472
C66	C	1.361666	-0.250350	1.094278
H67	H	1.317882	-0.110247	1.080179
H68	H	1.389967	-0.130856	1.200442
H69	H	1.270598	-0.168241	1.189962
H70	H	1.424244	-0.241171	1.048734
H71	H	1.304844	-0.278448	1.038366
O72	O	0.616641	-0.414211	0.454665
C73	C	0.474900	-0.354736	0.389869
C74	C	0.522972	-0.421069	0.462344
H75	H	0.399162	-0.360245	0.396069
H76	H	0.492322	-0.371463	0.305119
H77	H	0.497641	-0.283339	0.414820
H78	H	0.500258	-0.492490	0.437487
H79	H	0.505550	-0.404265	0.547077
O80	O	1.141782	-0.836949	0.393800
C81	C	1.027169	-0.840465	0.252493
C82	C	1.087443	-0.895621	0.326880
H83	H	0.983208	-0.887877	0.198385
H84	H	1.070952	-0.798913	0.203255
H85	H	0.982680	-0.793759	0.300830
H86	H	1.131943	-0.942376	0.278625
H87	H	1.043608	-0.937113	0.376122
O88	O	1.154511	-0.614766	0.934571
C89	C	1.032420	-0.619843	0.802088
C90	C	1.099415	-0.560286	0.870982
H91	H	0.987870	-0.575822	0.750642
H92	H	0.988874	-0.658530	0.854551
H93	H	1.070968	-0.669285	0.750012
H94	H	1.060939	-0.510794	0.923067
H95	H	1.142960	-0.521663	0.818457
O96	O	0.788760	-0.651854	0.714688
C97	C	0.772303	-0.765540	0.838950
C98	C	0.724327	-0.699226	0.766372
H99	H	0.720230	-0.803871	0.880739
H100	H	0.818649	-0.726886	0.899741
H101	H	0.813556	-0.815004	0.790033
H102	H	0.683025	-0.649746	0.815202
H103	H	0.678035	-0.737939	0.705577
H104	H	0.767795	-0.374181	0.410870
H105	H	1.474271	-0.414012	1.162482
O106	O	1.407367	-1.178619	0.721296
C107	C	1.521900	-1.175098	0.862690
C108	C	1.461592	-1.119941	0.788341
H109	H	1.565743	-1.127679	0.916930
H110	H	1.566494	-1.221758	0.814431
H111	H	1.478057	-1.216699	0.911802
H112	H	1.505366	-1.078287	0.739213
H113	H	1.416992	-1.073337	0.836661
O114	O	0.946018	-0.375464	0.412007
C115	C	0.977156	-0.333257	0.238305
C116	C	0.921887	-0.393579	0.304395
H117	H	0.957654	-0.347868	0.151289
H118	H	1.051782	-0.347480	0.253766
H119	H	0.962905	-0.259709	0.260948
H120	H	0.936062	-0.467147	0.281792
H121	H	0.847278	-0.379279	0.288927
O122	O	1.368335	-0.849553	0.673583
C123	C	1.413559	-0.823218	0.857146
C124	C	1.347425	-0.871324	0.775439
H125	H	1.396689	-0.840816	0.939513
H126	H	1.407981	-0.747464	0.850387
H127	H	1.485016	-0.845811	0.842011
H128	H	1.275939	-0.848805	0.790521
H129	H	1.353081	-0.947069	0.782217
H130	H	0.926189	-0.592913	0.650133
H131	H	1.408412	-1.000491	0.722691
H132	H	1.140695	-1.015087	0.392472
