data_functionalizedCrystal
_audit_creation_method	'MofGen! by Chris Wilmer'
_symmetry_space_group_name_H-M	'P1'
_symmetry_Int_Tables_number	1
_symmetry_cell_setting	triclinic
loop_
_symmetry_equiv_pos_as_xyz
  x,y,z
_cell_length_a	12.827893
_cell_length_b	14.908520
_cell_length_c	12.827885
_cell_angle_alpha	93.263516
_cell_angle_beta	89.980728
_cell_angle_gamma	93.320765
loop_
_atom_site_label
_atom_site_type_symbol
_atom_site_fract_x
_atom_site_fract_y
_atom_site_fract_z
Zn1	Zn	1.573615	-0.359110	-0.614816
Zn2	Zn	2.073615	0.140890	-0.114816
Zn3	Zn	1.563402	-0.509994	-0.450147
Zn4	Zn	2.063402	-0.009994	0.049853
Zn5	Zn	1.398853	-0.359155	-0.440093
Zn6	Zn	1.898853	0.140845	0.059907
Zn7	Zn	1.388739	-0.509927	-0.624842
Zn8	Zn	1.888739	-0.009927	-0.124842
O9	O	1.481152	-0.434546	-0.532475
O10	O	1.981152	0.065454	-0.032475
O11	O	1.718496	-0.379134	-0.592984
O12	O	2.218496	0.120866	-0.092984
O13	O	1.541533	-0.490031	-0.302580
O14	O	2.041533	0.009969	0.197420
O15	O	1.430543	-0.232904	-0.454867
O16	O	1.930543	0.267096	0.045133
O17	O	1.710992	-0.489988	-0.472002
O18	O	2.210992	0.010012	0.027998
O19	O	1.558939	-0.232872	-0.583235
O20	O	2.058939	0.267128	-0.083235
O21	O	1.420640	-0.379210	-0.295193
O22	O	1.920640	0.120790	0.204807
O23	O	1.251276	-0.379146	-0.464589
O24	O	1.751276	0.120854	0.035411
O25	O	1.413305	-0.489875	-0.769745
O26	O	1.913305	0.010125	-0.269745
O27	O	1.243845	-0.489918	-0.600323
O28	O	1.743845	0.010082	-0.100323
O29	O	1.549132	-0.379070	-0.762379
O30	O	2.049132	0.120930	-0.262379
O31	O	1.531726	-0.636229	-0.481724
O32	O	2.031726	-0.136229	0.018276
O33	O	1.403402	-0.636180	-0.610072
O34	O	1.903402	-0.136180	-0.110072
C35	C	1.209644	-0.434530	-0.532454
C36	C	1.709644	0.065470	-0.032454
C37	C	1.093489	-0.434544	-0.532471
C38	C	1.593489	0.065456	-0.032471
C39	C	1.045411	-0.379788	-0.592442
C40	C	1.545411	0.120212	-0.092442
C41	C	0.925360	-0.379802	-0.592461
C42	C	1.425360	0.120198	-0.092461
C43	C	1.465386	-0.668939	-0.548100
C44	C	1.965386	-0.168939	-0.048100
C45	C	1.458737	-0.769212	-0.554819
C46	C	1.958737	-0.269212	-0.054819
C47	C	1.580004	-0.957628	-0.433905
C48	C	2.080004	-0.457628	0.066095
C49	C	1.573760	-1.051844	-0.440215
C50	C	2.073760	-0.551844	0.059785
C51	C	1.440012	-1.051863	-0.573754
C52	C	1.940012	-0.551863	-0.073754
C53	C	1.446255	-0.957647	-0.567444
C54	C	1.946255	-0.457647	-0.067444
C55	C	1.516253	-0.910532	-0.497516
C56	C	2.016253	-0.410532	0.002484
C57	C	1.522491	-0.816314	-0.491201
C58	C	2.022491	-0.316314	0.008799
C59	C	1.388748	-0.816335	-0.624745
C60	C	1.888748	-0.316335	-0.124745
C61	C	1.382504	-0.910551	-0.631055
C62	C	1.882504	-0.410551	-0.131055
C63	C	1.753721	-0.434564	-0.532496
C64	C	2.253721	0.065436	-0.032496
C65	C	1.869874	-0.434571	-0.532506
C66	C	2.369874	0.065429	-0.032506
C67	C	1.481229	-0.434460	-0.805039
C68	C	1.981229	0.065540	-0.305039
C69	C	1.481262	-0.434423	-0.921190
C70	C	1.981262	0.065577	-0.421190
C71	C	1.497008	-0.199239	-0.516811
C72	C	1.997008	0.300761	-0.016811
C73	C	1.503765	-0.098965	-0.510136
C74	C	2.003765	0.401035	-0.010136
C75	C	1.548481	-0.379582	-0.969329
C76	C	2.048481	0.120418	-0.469329
C77	C	1.548517	-0.379543	-1.089377
C78	C	2.048517	0.120457	-0.589377
C79	C	1.481140	-0.434568	-0.260966
C80	C	1.981140	0.065432	0.239034
C81	C	1.481327	-0.434350	-0.144799
C82	C	1.981327	0.065650	0.355201
H83	H	0.883999	-0.332925	-0.643808
H84	H	1.383999	0.167075	-0.143808
Br85	Br	1.013972	-0.512694	-0.446904
Br86	Br	1.513972	-0.012694	0.053096
Br87	Br	1.124929	-0.301626	-0.677994
Br88	Br	1.624929	0.198374	-0.177994
Br89	Br	1.617479	-0.752374	-0.396294
Br90	Br	2.117479	-0.252374	0.103706
H91	H	0.911227	-0.481458	-0.481165
H92	H	1.411227	0.018542	0.018835
Br93	Br	1.674977	-0.893682	-0.338986
Br94	Br	2.174977	-0.393682	0.161014
Br95	Br	1.385373	-0.512626	-1.000617
Br96	Br	1.885373	-0.012626	-0.500617
Br97	Br	1.644333	-0.301344	-0.889899
Br98	Br	2.144333	0.198656	-0.389899
H99	H	1.625675	-1.090186	-0.388418
H100	H	2.125675	-0.590186	0.111582
Br101	Br	1.345040	-1.115819	-0.668666
Br102	Br	1.845040	-0.615819	-0.168666
Br103	Br	1.644450	-0.301291	-1.158393
Br104	Br	2.144450	0.198709	-0.658393
Br105	Br	1.287518	-0.974500	-0.725959
Br106	Br	1.787518	-0.474500	-0.225959
H107	H	1.336834	-0.777979	-0.676539
H108	H	1.836834	-0.277979	-0.176539
H109	H	1.423779	-0.481307	-1.103394
H110	H	1.923779	0.018693	-0.603394
