data_functionalizedCrystal
_audit_creation_method	'MofGen! by Chris Wilmer'
_symmetry_space_group_name_H-M	'P1'
_symmetry_Int_Tables_number	1
_symmetry_cell_setting	triclinic
loop_
_symmetry_equiv_pos_as_xyz
  x,y,z
_cell_length_a	10.654554
_cell_length_b	11.792254
_cell_length_c	10.868271
_cell_angle_alpha	89.998895
_cell_angle_beta	89.995039
_cell_angle_gamma	84.342720
loop_
_atom_site_label
_atom_site_type_symbol
_atom_site_fract_x
_atom_site_fract_y
_atom_site_fract_z
O1	O	1.667396	0.159438	-0.102328
O2	O	2.167396	0.659438	0.397672
O3	O	1.301876	0.174621	-0.102330
O4	O	1.801876	0.674621	0.397670
O5	O	1.493498	0.001881	-0.102320
O6	O	1.993498	0.501881	0.397680
O7	O	1.475774	0.332178	-0.102338
O8	O	1.975774	0.832178	0.397662
O9	O	1.493479	0.001888	0.102325
O10	O	1.993479	0.501888	0.602325
O11	O	1.301857	0.174628	0.102315
O12	O	1.801857	0.674628	0.602315
O13	O	1.667377	0.159445	0.102316
O14	O	2.167377	0.659445	0.602316
Zn15	Zn	1.484614	0.167038	0.134808
Zn16	Zn	1.984614	0.667038	0.634808
Zn17	Zn	1.484639	0.167028	-0.134821
Zn18	Zn	1.984639	0.667028	0.365179
O19	O	1.475755	0.332186	0.102307
O20	O	1.975755	0.832186	0.602307
C21	C	1.255072	0.173509	-0.000007
C22	C	1.755072	0.673509	0.499993
C23	C	1.115638	0.170170	-0.000008
C24	C	1.615638	0.670170	0.499992
C25	C	0.933376	0.062185	-0.000012
C26	C	1.433376	0.562185	0.499988
C27	C	1.064389	0.065321	-0.000004
C28	C	1.564389	0.565321	0.499996
C29	C	1.035866	0.271889	-0.000008
C30	C	1.535866	0.771889	0.499992
C31	C	0.904856	0.268752	-0.000008
C32	C	1.404856	0.768752	0.499992
C33	C	0.882135	-0.042670	-0.000021
C34	C	1.382135	0.457330	0.499979
C35	C	0.961898	-0.144390	-0.000018
C36	C	1.461898	0.355610	0.499982
C37	C	1.092910	-0.141254	-0.000010
C38	C	1.592910	0.358746	0.499990
C39	C	1.144161	-0.036398	-0.000003
C40	C	1.644161	0.463602	0.499997
C41	C	1.492372	-0.040409	0.000002
C42	C	1.992372	0.459591	0.500002
C43	C	1.489030	-0.166430	0.000001
C44	C	1.989030	0.333570	0.500001
C45	C	1.486315	-0.268773	-0.000004
C46	C	1.986315	0.231227	0.499996
C47	C	1.482920	-0.397167	-0.000015
C48	C	1.982920	0.102833	0.499985
C49	C	1.714181	0.160558	-0.000008
C50	C	2.214181	0.660558	0.499992
C51	C	1.853615	0.163896	-0.000016
C52	C	2.353615	0.663896	0.499984
C53	C	1.476881	0.374475	-0.000018
C54	C	1.976881	0.874475	0.499982
C55	C	1.480223	0.500496	-0.000025
C56	C	1.980223	1.000496	0.499975
N57	N	1.484606	0.167044	0.318822
N58	N	1.984606	0.667044	0.818822
C59	C	1.484615	0.167045	0.430159
C60	C	1.984615	0.667045	0.930159
C61	C	1.484630	0.167036	0.569837
C62	C	1.984630	0.667036	1.069837
N63	N	1.484648	0.167022	0.681165
N64	N	1.984648	0.667022	1.181165
H65	H	0.920161	-0.229760	-0.000034
H66	H	1.420161	0.270240	0.499966
N67	N	1.277985	-0.033172	-0.000004
N68	N	1.777985	0.466828	0.499996
N69	N	1.323723	0.060451	-0.000012
N70	N	1.823723	0.560451	0.499988
H71	H	1.418235	0.062731	-0.000018
H72	H	1.918235	0.562731	0.499982
N73	N	1.088194	0.378999	0.000001
N74	N	1.588194	0.878999	0.500001
N75	N	1.064005	0.447806	0.086261
N76	N	1.564005	0.947806	0.586261
H77	H	1.100958	0.523456	0.086266
H78	H	1.600958	1.023456	0.586266
H79	H	0.839912	0.351574	-0.000006
H80	H	1.339912	0.851574	0.499994
N81	N	1.174369	-0.245161	0.000012
N82	N	1.674369	0.254839	0.500012
N83	N	1.128595	-0.338768	0.000012
N84	N	1.628595	0.161232	0.500012
H85	H	1.186123	-0.412158	0.000025
H86	H	1.686123	0.087842	0.500025
H87	H	0.775459	-0.045236	-0.000031
H88	H	1.275459	0.454764	0.499969
