data_functionalizedCrystal
_audit_creation_method	'MofGen! by Chris Wilmer'
_symmetry_space_group_name_H-M	'P1'
_symmetry_Int_Tables_number	1
_symmetry_cell_setting	triclinic
loop_
_symmetry_equiv_pos_as_xyz
  x,y,z
_cell_length_a	23.096457
_cell_length_b	23.196402
_cell_length_c	23.196401
_cell_angle_alpha	90.011299
_cell_angle_beta	60.007239
_cell_angle_gamma	60.002413
loop_
_atom_site_label
_atom_site_type_symbol
_atom_site_fract_x
_atom_site_fract_y
_atom_site_fract_z
Zr1	Zr	0.633694	0.555418	-0.075644
O2	O	0.754480	0.463356	-0.167689
O3	O	0.512912	0.583632	-0.047430
O4	O	0.633695	0.583615	-0.167696
O5	O	0.633695	0.463396	0.047448
O6	O	0.633693	0.678487	-0.167698
O7	O	0.633696	0.463373	-0.047423
O8	O	0.417633	0.678517	0.047436
O9	O	0.849755	0.463366	-0.167686
O10	O	0.562589	0.666477	-0.035395
O11	O	0.562589	0.595692	0.035408
O12	O	0.704796	0.595672	-0.106190
O13	O	0.704797	0.524887	-0.035387
Zr14	Zr	0.633688	0.706764	0.075662
Zr15	Zr	0.633691	0.706728	-0.075647
Zr16	Zr	0.633692	0.555455	0.075665
Zr17	Zr	0.785647	0.555434	-0.075639
Zr18	Zr	0.481736	0.706749	0.075656
O19	O	0.754471	0.678551	0.047448
O20	O	0.754474	0.678499	-0.167694
O21	O	0.754477	0.463408	0.047452
O22	O	0.512903	0.798826	0.167707
O23	O	0.512906	0.798775	-0.047435
O24	O	0.512908	0.583684	0.167712
O25	O	0.633688	0.798787	-0.047431
O26	O	0.633687	0.678567	0.167714
O27	O	0.633690	0.583696	0.167716
O28	O	0.633686	0.798810	0.047441
O29	O	0.849752	0.583637	-0.167689
O30	O	0.417631	0.678546	0.167706
O31	O	0.417628	0.798817	0.167704
O32	O	0.417630	0.798788	0.047433
O33	O	0.849753	0.463395	-0.047416
O34	O	0.849750	0.583666	-0.047418
O35	O	0.562586	0.666511	0.106208
O36	O	0.562586	0.737295	0.035405
O37	O	0.704793	0.666491	-0.035390
O38	O	0.704794	0.595706	0.035413
C39	C	0.633696	0.441826	0.000013
C40	C	0.633698	0.377591	0.000014
C41	C	0.443622	0.631072	0.000002
C42	C	0.379115	0.631066	-0.000000
C43	C	0.633705	0.347406	-0.052255
C44	C	0.633697	0.287055	-0.052254
C45	C	0.633700	0.256883	0.000009
C46	C	0.633688	0.287077	0.052287
C47	C	0.633687	0.347431	0.052290
C48	C	0.681409	0.137517	0.016297
C49	C	0.681415	0.077161	0.016290
C50	C	0.633699	0.070733	0.000005
C51	C	0.585987	0.124662	-0.016287
C52	C	0.585986	0.185016	-0.016284
C53	C	0.633700	0.191439	0.000013
C54	C	0.633696	-0.024891	-0.052266
C55	C	0.633684	-0.085241	-0.052262
C56	C	0.633683	-0.085222	0.052278
C57	C	0.633687	-0.024869	0.052275
C58	C	0.633698	0.005291	-0.000000
C59	C	0.296327	0.683345	0.052259
C60	C	0.235705	0.683350	0.052266
C61	C	0.257876	0.631081	0.000002
C62	C	0.340678	0.578793	-0.052262
C63	C	0.401297	0.578785	-0.052263
N64	N	0.201768	0.615256	-0.061976
N65	N	0.144178	0.615267	-0.061972
C66	C	0.075237	0.631099	0.000003
N67	N	0.066052	0.646934	0.061979
N68	N	0.123645	0.646926	0.061975
C69	C	0.192151	0.631083	-0.000002
C70	C	-0.073287	0.683387	0.052274
C71	C	-0.133908	0.683387	0.052282
C72	C	-0.028932	0.578833	-0.052252
C73	C	0.031686	0.578830	-0.052254
C74	C	0.009503	0.631110	0.000009
C75	C	0.823760	0.631110	0.000015
C76	C	0.888268	0.631117	0.000018
C77	C	0.633694	0.631046	-0.189256
C78	C	0.633695	0.631031	-0.253490
C79	C	0.633686	0.820357	0.000005
C80	C	0.633685	0.884592	0.000003
C81	C	0.707924	0.594075	-0.320617
C82	C	0.707925	0.594093	-0.380973
C83	C	0.633693	0.631057	-0.374197
C84	C	0.559455	0.668021	-0.307057
C85	C	0.559456	0.668008	-0.246704
C86	C	0.576822	0.625801	-0.441516
C87	C	0.576824	0.625810	-0.501869
C88	C	0.633687	0.631102	-0.560344
C89	C	0.690561	0.636372	-0.558465
C90	C	0.690562	0.636358	-0.498112
C91	C	0.633684	0.631076	-0.439635
C92	C	0.707922	0.594164	-0.692918
C93	C	0.707920	0.594187	-0.753273
C94	C	0.559447	0.668110	-0.679355
C95	C	0.559452	0.668092	-0.619002
C96	C	0.633691	0.631115	-0.625789
C97	C	0.633688	0.631137	0.189273
C98	C	0.633687	0.631152	0.253508
C99	C	0.443617	0.820338	-0.000002
C100	C	0.379108	0.884566	-0.000006
C101	C	0.443619	0.631118	0.189266
C102	C	0.379111	0.631127	0.253499
C103	C	0.443615	0.820383	0.189262
C104	C	0.379104	0.884627	0.253493
C105	C	0.823768	0.441800	-0.189245
C106	C	0.888278	0.377556	-0.253476
C107	C	0.823765	0.441845	0.000020
C108	C	0.888275	0.377617	0.000023
C109	C	0.823763	0.631065	-0.189249
C110	C	0.888272	0.631056	-0.253481
C111	C	0.348815	0.877762	-0.036971
C112	C	0.288210	0.938106	-0.036988
C113	C	0.257895	1.005253	-0.000036
C114	C	0.288194	1.012056	0.036930
C115	C	0.348802	0.951713	0.036943
C116	C	0.348815	0.668097	0.320626
C117	C	0.288211	0.668103	0.380985
C118	C	0.257899	0.631142	0.374215
C119	C	0.288201	0.594166	0.307081
C120	C	0.348808	0.594157	0.246723
C121	C	0.348809	0.951752	0.246698
C122	C	0.288203	1.012121	0.307045
C123	C	0.257889	1.005365	0.374185
C124	C	0.288190	0.938233	0.380978
C125	C	0.348799	0.877865	0.320633
C126	C	0.918581	0.310431	-0.246681
C127	C	0.979206	0.250061	-0.307027
C128	C	1.009523	0.256818	-0.374167
C129	C	0.979218	0.323950	-0.380961
C130	C	0.918598	0.384318	-0.320615
C131	C	0.918574	0.384421	0.036982
C132	C	0.979195	0.324077	0.036983
C133	C	1.009513	0.256930	0.000029
C134	C	0.979211	0.250127	-0.036935
C135	C	0.918595	0.310470	-0.036939
C136	C	0.918565	0.668025	-0.246689
C137	C	0.979169	0.668030	-0.307036
C138	C	1.009484	0.631063	-0.374175
C139	C	0.979186	0.594093	-0.380966
C140	C	0.918578	0.594092	-0.320620
H141	H	0.633710	0.371962	-0.094819
C142	C	0.191219	1.071626	-0.000052
N143	N	0.140995	1.121615	-0.000064
C144	C	0.144626	0.740864	0.109757
N145	N	0.076027	0.784184	0.153058
C146	C	1.012512	0.553460	-0.454827
N147	N	1.037608	0.522863	-0.510460
H148	H	0.263502	1.066735	0.067014
H149	H	0.893900	0.304916	-0.192017
H150	H	0.358726	0.536235	-0.094815
C151	C	0.271921	0.740851	0.109754
N152	N	0.253539	0.784164	0.153061
C153	C	0.533496	0.244339	-0.034196
N154	N	0.493957	0.289023	-0.047684
C155	C	0.633675	-0.118436	-0.109756
N156	N	0.633664	-0.143437	-0.153061
C157	C	0.382155	0.803905	-0.077628
N158	N	0.407267	0.748278	-0.108258
C159	C	0.382151	0.708756	0.328091
N160	N	0.407261	0.739379	0.333719
H161	H	0.263512	0.564073	0.301579
H162	H	0.530518	0.621487	-0.393907
H163	H	-0.091350	0.725953	0.094833
H164	H	1.003910	0.329443	-0.435633
C165	C	0.885225	0.708700	-0.172841
N166	N	0.860113	0.739342	-0.117220
C167	C	1.012558	0.176258	-0.077570
N168	N	1.037670	0.120618	-0.108169
H169	H	0.633688	0.262509	0.094842
H170	H	0.530517	0.621515	-0.503394
C171	C	0.533492	0.117598	-0.034198
N172	N	0.493955	0.112275	-0.047689
H173	H	0.373458	0.823211	0.326175
C174	C	0.382109	0.959210	0.077618
N175	N	0.407192	0.964861	0.108257
H176	H	0.263500	0.932742	0.435652
H177	H	0.893894	0.439090	0.067079
H178	H	0.373482	0.957267	0.192035
C179	C	0.789582	0.553514	-0.827118
N180	N	0.851092	0.522872	-0.882739
H181	H	1.003870	0.195406	-0.301482
H182	H	0.468710	0.536211	-0.094819
H183	H	1.058871	0.207800	0.000038
H184	H	0.099097	0.536262	-0.094813
C185	C	0.254886	0.930607	-0.077648
N186	N	0.229785	0.924956	-0.108271
H187	H	1.058835	0.631069	-0.423308
C188	C	0.254883	0.708789	0.454826
N189	N	0.229780	0.739435	0.510442
C190	C	0.191221	0.631167	0.440617
N191	N	0.140995	0.631191	0.490634
H192	H	0.893921	0.563985	-0.326160
H193	H	0.633682	0.372009	0.094854
H194	H	1.003857	0.329630	0.067085
C195	C	0.633716	0.253840	-0.109762
N196	N	0.633734	0.228821	-0.153079
C197	C	0.885263	0.302973	-0.077590
N198	N	0.860159	0.297321	-0.108209
H199	H	-0.010879	0.536274	-0.094806
H200	H	0.263538	1.066778	0.301501
C201	C	0.789590	0.553408	-0.328087
N202	N	0.851102	0.522780	-0.333712
C203	C	0.633697	0.008292	-0.109764
N204	N	0.633695	0.033285	-0.153071
C205	C	0.633691	-0.118411	0.109766
N206	N	0.633699	-0.143412	0.153067
C207	C	0.789586	0.553437	-0.454824
N208	N	0.851093	0.522814	-0.510447
H209	H	-0.201320	0.725958	0.094842
H210	H	0.208538	1.054526	0.423316
C211	C	0.633669	0.008341	0.109781
N212	N	0.633646	0.033359	0.153102
H213	H	1.058883	0.207657	-0.423299
H214	H	0.499006	0.698208	-0.673837
H215	H	0.373467	0.564053	0.192067
H216	H	0.720268	0.033254	0.029551
C217	C	0.477793	0.708738	-0.545158
N218	N	0.416284	0.739355	-0.489536
H219	H	0.720215	0.142768	0.029616
C220	C	0.753116	0.642165	-0.496043
N221	N	0.800228	0.646543	-0.494484
C222	C	0.753114	0.642196	-0.622785
N223	N	0.800227	0.646583	-0.671232
H224	H	0.893926	0.438973	-0.326156
H225	H	0.768372	0.564055	-0.698444
C226	C	0.477799	0.708679	-0.299604
N227	N	0.416294	0.739305	-0.293990
H228	H	0.499008	0.698102	-0.192044
C229	C	1.012490	0.708698	-0.299550
N230	N	1.037587	0.739327	-0.293909
