data_functionalizedCrystal
_audit_creation_method	'MofGen! by Chris Wilmer'
_symmetry_space_group_name_H-M	'P1'
_symmetry_Int_Tables_number	1
_symmetry_cell_setting	triclinic
loop_
_symmetry_equiv_pos_as_xyz
  x,y,z
_cell_length_a	17.699104
_cell_length_b	14.853567
_cell_length_c	16.776229
_cell_angle_alpha	90.002853
_cell_angle_beta	90.008029
_cell_angle_gamma	83.463224
loop_
_atom_site_label
_atom_site_type_symbol
_atom_site_fract_x
_atom_site_fract_y
_atom_site_fract_z
O1	O	1.004365	0.114098	0.066298
O2	O	0.784027	0.128911	0.066295
O3	O	0.900081	-0.009747	0.066299
O4	O	0.888310	0.252755	0.066294
O5	O	0.900066	-0.009755	-0.066278
O6	O	0.784011	0.128902	-0.066282
O7	O	1.004349	0.114089	-0.066279
Zn8	Zn	0.894178	0.121494	-0.087330
Zn9	Zn	0.894198	0.121505	0.087346
O10	O	0.888295	0.252746	-0.066283
C11	C	0.755821	0.128372	0.000006
C12	C	0.671800	0.126770	0.000006
C13	C	0.147116	0.199125	0.000013
C14	C	0.226064	0.200625	0.000015
C15	C	0.274470	0.119228	0.000016
C16	C	0.243925	0.036325	0.000023
C17	C	0.164979	0.034827	0.000027
C18	C	0.562307	0.042368	0.000011
C19	C	0.641258	0.043873	0.000005
C20	C	0.623392	0.208167	-0.000001
C21	C	0.544446	0.206668	0.000002
C22	C	0.513908	0.123766	0.000013
C23	C	0.428304	0.122141	0.000012
C24	C	0.360073	0.120852	0.000011
C25	C	0.899540	-0.043338	0.000013
C26	C	0.897942	-0.143416	0.000020
C27	C	0.822247	-0.555678	0.000004
C28	C	0.960122	-0.577454	0.000005
C29	C	0.961625	-0.483426	0.000010
C30	C	0.893438	-0.425519	0.000010
C31	C	0.823748	-0.461640	0.000006
C32	C	1.031314	-0.447297	0.000006
C33	C	1.032819	-0.353263	0.000010
C34	C	0.964631	-0.295355	0.000016
C35	C	0.894938	-0.331481	0.000013
C36	C	0.826751	-0.273575	0.000013
C37	C	0.757057	-0.309700	0.000015
C38	C	0.755559	-0.403732	0.000012
C39	C	0.966129	-0.201323	0.000019
C40	C	0.828252	-0.179537	0.000015
C41	C	1.032555	0.114627	0.000011
C42	C	1.116576	0.116229	0.000017
C43	C	0.888836	0.286338	0.000005
C44	C	0.890434	0.386415	0.000003
N45	N	0.894170	0.121486	-0.206541
C46	C	0.945574	0.060114	-0.248256
C47	C	0.945578	0.060113	-0.331708
C48	C	0.894181	0.121490	-0.373444
C49	C	0.842771	0.182865	-0.331723
C50	C	0.842764	0.182861	-0.248272
C51	C	0.842798	0.182883	-0.668270
C52	C	0.842811	0.182884	-0.751726
C53	C	0.945613	0.060135	-0.751706
C54	C	0.945606	0.060131	-0.668256
C55	C	0.894193	0.121502	-0.626542
C56	C	0.894188	0.121501	-0.536053
C57	C	0.894189	0.121496	-0.463931
N58	N	0.894213	0.121506	0.206557
H59	H	0.250925	0.268127	0.000018
H60	H	0.987435	0.010138	-0.365673
H61	H	0.140115	-0.032676	0.000032
O62	O	0.754704	-0.117085	0.000007
H63	H	0.721361	-0.129911	0.054039
O64	O	1.001032	-0.006080	-0.623241
H65	H	1.037856	0.031809	-0.585208
H66	H	0.698818	-0.433154	0.000013
H67	H	0.701540	-0.262540	0.000010
O68	O	0.094913	0.286923	0.000004
H69	H	0.034885	0.271958	-0.000003
H70	H	0.987474	0.010160	-0.785679
O71	O	0.787352	0.249081	-0.623287
H72	H	0.819250	0.292847	-0.585250
H73	H	0.800918	0.232836	-0.365708
O74	O	0.747078	-0.594631	-0.000004
H75	H	0.757485	-0.669746	-0.000011
O76	O	1.033664	-0.639906	-0.000006
H77	H	1.036290	-0.683269	0.054029
H78	H	0.800904	0.232835	-0.214308
H79	H	0.800954	0.232866	-0.785706
O80	O	0.656327	0.297588	-0.000003
H81	H	0.719355	0.284961	0.000004
O82	O	0.693473	-0.043922	0.000011
H83	H	0.658976	-0.101822	0.000028
H84	H	0.987431	0.010138	-0.214281
O85	O	0.529373	-0.047042	0.000003
H86	H	0.576298	-0.103388	-0.000010
O87	O	1.104856	-0.509748	-0.000005
H88	H	1.092102	-0.581203	0.000000
H89	H	0.283344	-0.029950	0.000029
O90	O	1.107984	-0.314300	0.000027
H91	H	1.155145	-0.370365	0.000035
H92	H	0.505036	0.272950	-0.000003
H93	H	1.022873	-0.171914	0.000012
