data_functionalizedCrystal
_audit_creation_method	'MofGen! by Chris Wilmer'
_symmetry_space_group_name_H-M	'P1'
_symmetry_Int_Tables_number	1
_symmetry_cell_setting	triclinic
loop_
_symmetry_equiv_pos_as_xyz
  x,y,z
_cell_length_a	19.077312
_cell_length_b	16.625546
_cell_length_c	19.076919
_cell_angle_alpha	92.269917
_cell_angle_beta	94.668947
_cell_angle_gamma	87.728601
loop_
_atom_site_label
_atom_site_type_symbol
_atom_site_fract_x
_atom_site_fract_y
_atom_site_fract_z
Zn1	Zn	1.061663	-0.386153	-0.355260
Zn2	Zn	1.066322	-0.515779	-0.237376
Zn3	Zn	0.948520	-0.375770	-0.242128
Zn4	Zn	0.943753	-0.515746	-0.359959
O5	O	1.005064	-0.448362	-0.298680
O6	O	1.160927	-0.407707	-0.335667
O7	O	1.054640	-0.492875	-0.139359
O8	O	0.963574	-0.264318	-0.257157
O9	O	1.164350	-0.502943	-0.249058
O10	O	1.046699	-0.271946	-0.340275
O11	O	0.968091	-0.390011	-0.142850
O12	O	0.849242	-0.389979	-0.261713
O13	O	0.955449	-0.502886	-0.457983
O14	O	0.845739	-0.492818	-0.348283
O15	O	1.042077	-0.407675	-0.454531
O16	O	1.050017	-0.628604	-0.253614
O17	O	0.959967	-0.628579	-0.343675
C18	C	0.821913	-0.440269	-0.306024
C19	C	0.743559	-0.436826	-0.309183
C20	C	1.004999	-0.657848	-0.298654
C21	C	1.005034	-0.747472	-0.298663
C22	C	0.302318	-0.412074	-0.331843
C23	C	0.375940	-0.415324	-0.328871
C24	C	0.414527	-0.466444	-0.282220
C25	C	0.379488	-0.514325	-0.238542
C26	C	0.305867	-0.511079	-0.241518
C27	C	0.634899	-0.481462	-0.268481
C28	C	0.708525	-0.484702	-0.265507
C29	C	0.704972	-0.385701	-0.355837
C30	C	0.631350	-0.382457	-0.358806
C31	C	0.596318	-0.430340	-0.315131
N32	N	0.489780	-0.469764	-0.279180
N33	N	0.521065	-0.427024	-0.318175
C34	C	1.005154	-1.075656	-0.298732
C35	C	1.005119	-0.984345	-0.298715
C36	C	1.005094	-0.911567	-0.298697
C37	C	1.005059	-0.820250	-0.298681
C38	C	1.188931	-0.456487	-0.291308
C39	C	1.267284	-0.459950	-0.288167
C40	C	0.997712	-0.456435	-0.482550
C41	C	0.994578	-0.459876	-0.560904
C42	C	1.005149	-0.238059	-0.298722
C43	C	1.005185	-0.148440	-0.298740
C44	C	1.038207	-0.411923	-0.595919
C45	C	1.035254	-0.415152	-0.669542
C46	C	0.988676	-0.466339	-0.708148
C47	C	0.945043	-0.514294	-0.673128
C48	C	0.947993	-0.511060	-0.599507
C49	C	0.975015	-0.481322	-0.928524
C50	C	0.972071	-0.484555	-1.002150
C51	C	1.062281	-0.385412	-0.998559
C52	C	1.065229	-0.382186	-0.924937
C53	C	1.021594	-0.430137	-0.889923
N54	N	0.985659	-0.469643	-0.783402
N55	N	1.024608	-0.426829	-0.814671
C56	C	1.012429	-0.440263	-0.115525
C57	C	1.015699	-0.436602	-0.037165
H58	H	0.270906	-0.370441	-0.369827
H59	H	0.939495	-0.520380	-0.900025
H60	H	0.934139	-0.526239	-1.033582
C61	C	1.116461	-0.325868	-0.882475
N62	N	1.155049	-0.283447	-0.850494
H63	H	0.907116	-0.555968	-0.704567
H64	H	0.912459	-0.550099	-0.570999
H65	H	0.410911	-0.555951	-0.200560
H66	H	0.739941	-0.526333	-0.227516
C67	C	0.414474	-0.362650	-0.376913
N68	N	0.443497	-0.322972	-0.413098
C69	C	0.743514	-0.333037	-0.403880
N70	N	0.772543	-0.293371	-0.440070
C71	C	1.089446	-0.355612	-0.553459
N72	N	1.128038	-0.313194	-0.521480
H73	H	0.606385	-0.520450	-0.232915
H74	H	0.599937	-0.340832	-0.396797
H75	H	0.277344	-0.550066	-0.205953
C76	C	1.083250	-0.362401	-0.708055
N77	N	1.119403	-0.322667	-0.737062
H78	H	1.097805	-0.346371	-1.027075
