data_functionalizedCrystal
_audit_creation_method	'MofGen! by Chris Wilmer'
_symmetry_space_group_name_H-M	'P1'
_symmetry_Int_Tables_number	1
_symmetry_cell_setting	triclinic
loop_
_symmetry_equiv_pos_as_xyz
  x,y,z
_cell_length_a	14.519709
_cell_length_b	8.965430
_cell_length_c	10.489716
_cell_angle_alpha	90.004464
_cell_angle_beta	95.895360
_cell_angle_gamma	89.998201
loop_
_atom_site_label
_atom_site_type_symbol
_atom_site_fract_x
_atom_site_fract_y
_atom_site_fract_z
O1	O	1.224768	0.123831	-0.167194
O2	O	0.956397	0.123875	-0.186884
O3	O	1.096701	0.123858	0.008625
O4	O	1.084464	0.123849	-0.362702
O5	O	1.096689	-0.124221	0.008612
O6	O	0.956385	-0.124204	-0.186897
O7	O	1.224756	-0.124248	-0.167207
Cu8	Cu	1.090569	-0.146877	-0.177053
Cu9	Cu	1.090583	0.146505	-0.177038
O10	O	1.084452	-0.124230	-0.362715
C11	C	0.922026	-0.000158	-0.185973
C12	C	0.819630	-0.000141	-0.183223
N13	N	1.090566	-0.353226	-0.177063
C14	C	0.444680	-0.000209	-0.173100
C15	C	0.549003	-0.000189	-0.175911
C16	C	0.632152	-0.000173	-0.178161
C17	C	0.736481	-0.000157	-0.180973
C18	C	1.025660	-0.450524	-0.267450
C19	C	1.109161	-0.549953	-0.292390
C20	C	1.007101	-0.549925	-0.152133
C21	C	1.174109	-0.450466	-0.202061
C22	C	1.071994	-0.450430	-0.061754
C23	C	1.155555	-0.549814	-0.086646
C24	C	1.259126	-0.000211	-0.168118
C25	C	1.361523	-0.000218	-0.170868
C26	C	1.095775	-0.000177	0.056141
C27	C	1.093025	-0.000163	0.197743
N28	N	1.090594	0.352854	-0.177018
C29	C	1.085377	-0.000192	-0.410232
C30	C	1.088128	-0.000196	-0.551834
C31	C	1.179063	-0.000191	0.296314
C32	C	1.133604	0.122129	0.373207
C33	C	1.133573	-0.122458	0.373158
C34	C	1.047602	0.122257	0.272771
C35	C	1.047583	-0.122439	0.272717
C36	C	1.002060	-0.000090	0.349560
H37	H	0.970822	-0.406928	-0.343957
H38	H	0.936504	-0.593618	-0.131068
H39	H	1.124889	-0.593666	-0.389885
N40	N	1.224507	-0.604150	0.009271
N41	N	1.307778	-0.571954	0.003877
H42	H	1.356479	-0.610330	0.071615
H43	H	1.011289	-0.225845	0.228815
N44	N	1.179160	-0.252178	0.428156
N45	N	1.262827	-0.273949	0.415909
H46	H	1.295030	-0.365557	0.454749
H47	H	1.244723	-0.406961	-0.223244
H48	H	1.253902	-0.000079	0.272417
N49	N	1.052225	-0.395560	0.060515
N50	N	0.977127	-0.427366	0.102458
H51	H	0.963156	-0.388614	0.188812
H52	H	1.169930	0.225531	0.417086
H53	H	1.011306	0.225783	0.229094
H54	H	0.927165	-0.000011	0.373210
