data_functionalizedCrystal
_audit_creation_method	'MofGen! by Chris Wilmer'
_symmetry_space_group_name_H-M	'P1'
_symmetry_Int_Tables_number	1
_symmetry_cell_setting	triclinic
loop_
_symmetry_equiv_pos_as_xyz
  x,y,z
_cell_length_a	16.992694
_cell_length_b	11.026607
_cell_length_c	15.455313
_cell_angle_alpha	93.255562
_cell_angle_beta	87.142206
_cell_angle_gamma	99.627120
loop_
_atom_site_label
_atom_site_type_symbol
_atom_site_fract_x
_atom_site_fract_y
_atom_site_fract_z
O1	O	1.079936	0.255850	-0.072014
O2	O	0.851247	0.252986	-0.072040
O3	O	0.946638	0.075927	-0.072026
O4	O	0.984545	0.432909	-0.072028
O5	O	0.941177	0.086007	0.072235
O6	O	0.845786	0.263067	0.072221
O7	O	1.074474	0.265931	0.072247
Cu8	Cu	0.959632	0.265419	0.085406
Cu9	Cu	0.966090	0.253498	-0.085199
O10	O	0.979084	0.442990	0.072233
C11	C	0.818785	0.254344	0.000087
C12	C	0.730190	0.243358	0.000077
C13	C	0.694911	0.349355	0.000078
C14	C	0.611666	0.339026	0.000090
C15	C	0.563702	0.222699	0.000095
C16	C	0.598986	0.116694	0.000098
C17	C	0.682229	0.127024	0.000092
C18	C	0.314060	0.179884	0.000119
C19	C	0.230811	0.169561	0.000122
C20	C	0.243497	0.391895	0.000115
C21	C	0.326741	0.402215	0.000104
C22	C	0.362018	0.296210	0.000111
N23	N	0.478612	0.212138	0.000105
N24	N	0.447106	0.306772	0.000108
C25	C	0.936914	0.035078	0.000103
C26	C	0.916067	-0.101658	0.000097
C27	C	0.973629	-0.169881	0.000103
C28	C	0.952084	-0.311205	0.000097
C29	C	1.106937	0.264572	0.000118
C30	C	1.195532	0.275558	0.000122
C31	C	0.988808	0.483838	0.000102
C32	C	1.009655	0.620574	0.000102
N33	N	0.955095	0.273804	0.205401
N34	N	0.970632	0.245104	-0.205194
C35	C	0.995642	0.198614	0.250801
C36	C	0.992220	0.204967	0.341609
C37	C	0.948255	0.286517	0.387014
C38	C	0.907702	0.361709	0.341608
C39	C	0.911120	0.355349	0.250802
C40	C	0.933497	0.313936	0.658594
C41	C	0.930084	0.320293	0.749406
C42	C	1.014601	0.163549	0.749400
C43	C	1.018019	0.157201	0.658593
C44	C	0.977463	0.232389	0.613194
N45	N	0.944758	0.293015	0.479834
N46	N	0.980956	0.225883	0.520376
H47	H	0.733959	0.444082	0.000072
N48	N	0.573576	0.453316	0.000103
H49	H	0.537310	0.457677	0.053592
H50	H	0.616611	0.528546	0.000067
H51	H	0.900477	0.375160	0.621637
H52	H	1.038860	-0.123663	0.000115
H53	H	0.850837	-0.147876	0.000084
N54	N	1.058341	0.082456	0.798364
H55	H	1.049506	0.098855	0.862779
H56	H	1.037436	-0.006837	0.782500
N57	N	1.065440	0.069245	0.609621
H58	H	1.090608	0.022574	0.652162
H59	H	1.028745	0.009236	0.571953
N60	N	0.720279	0.012694	0.000097
H61	H	0.705039	-0.041445	-0.053378
H62	H	0.780281	0.036988	0.000129
N63	N	0.882655	0.408255	0.798370
H64	H	0.839404	0.360430	0.836058
H65	H	0.919360	0.468332	0.835982
N66	N	0.865672	-0.372405	0.000079
H67	H	0.862529	-0.464687	0.000075
H68	H	0.836320	-0.342941	0.053556
N69	N	0.860275	0.449659	0.390576
H70	H	0.864263	0.442283	0.454991
H71	H	0.882371	0.536730	0.374694
H72	H	1.074893	-0.333219	0.000044
N73	N	0.205458	0.506233	0.000118
H74	H	0.173218	0.503178	-0.053355
H75	H	0.169230	0.510582	0.053636
H76	H	0.365789	0.496940	0.000090
H77	H	1.031448	0.132213	0.213838
H78	H	0.191760	0.074828	0.000126
H79	H	0.342772	0.093566	0.000125
H80	H	1.025236	0.143741	0.378573
N81	N	0.867382	0.436445	0.201837
H82	H	0.888264	0.525773	0.217628
H83	H	0.876227	0.419937	0.137438
N84	N	0.547257	-0.008776	0.000118
H85	H	0.489169	0.000762	0.000121
H86	H	0.561054	-0.059260	-0.053358
