data_functionalizedCrystal
_audit_creation_method	'MofGen! by Chris Wilmer'
_symmetry_space_group_name_H-M	'P1'
_symmetry_Int_Tables_number	1
_symmetry_cell_setting	triclinic
loop_
_symmetry_equiv_pos_as_xyz
  x,y,z
_cell_length_a	15.944493
_cell_length_b	15.944499
_cell_length_c	10.868271
_cell_angle_alpha	90.006933
_cell_angle_beta	89.995542
_cell_angle_gamma	83.476327
loop_
_atom_site_label
_atom_site_type_symbol
_atom_site_fract_x
_atom_site_fract_y
_atom_site_fract_z
O1	O	0.108124	1.114529	0.102380
O2	O	0.121526	0.869971	0.102364
O3	O	-0.007454	0.998954	0.102383
O4	O	0.237104	0.985546	0.102361
O5	O	-0.007450	0.998942	-0.102262
O6	O	0.121530	0.869959	-0.102281
O7	O	0.108128	1.114517	-0.102265
Zn8	Zn	0.114830	0.992236	-0.134765
Zn9	Zn	0.114824	0.992252	0.134864
O10	O	0.237109	0.985534	-0.102283
C11	C	-0.038747	0.998400	0.000065
C12	C	-0.131995	0.996757	0.000081
C13	C	0.120979	0.838670	0.000040
C14	C	0.119334	0.745422	0.000035
C15	C	-0.367769	1.072679	0.000063
C16	C	-0.418332	1.031743	0.100960
C17	C	-0.302716	0.993713	0.000066
C18	C	-0.418304	1.031713	-0.100804
C19	C	-0.467625	0.990778	0.000046
C20	C	-0.352050	0.952798	0.101046
C21	C	-0.352019	0.952779	-0.100808
C22	C	-0.402548	0.911785	0.000114
C23	C	-0.207716	0.995405	0.000078
C24	C	-0.562622	0.989079	0.000042
C25	C	0.194269	0.453871	0.000047
C26	C	0.155314	0.514914	0.100953
C27	C	0.113358	0.409787	0.000064
C28	C	0.155296	0.514888	-0.100811
C29	C	0.116299	0.574695	0.000047
C30	C	0.074381	0.469602	0.101053
C31	C	0.074375	0.469570	-0.100801
C32	C	0.035361	0.530595	0.000130
C33	C	0.111666	0.314787	0.000074
C34	C	0.117984	0.669694	0.000046
C35	C	0.268401	0.986088	0.000036
C36	C	0.361650	0.987731	0.000029
C37	C	0.108675	1.145818	0.000062
C38	C	0.110320	1.239066	0.000075
N39	N	0.114833	0.992232	-0.318779
C40	C	0.114833	0.992238	-0.430116
C41	C	0.114826	0.992249	-0.569794
N42	N	0.114814	0.992263	0.318878
H43	H	-0.447285	1.065096	0.186266
H44	H	0.261416	0.420527	0.000138
H45	H	-0.323050	0.919455	-0.186118
O46	O	0.200636	0.541538	0.213943
H47	H	0.266579	0.510515	0.213730
H48	H	-0.323226	0.919473	0.186438
O49	O	-0.423003	0.821611	0.000147
H50	H	-0.396210	0.789038	0.083973
O51	O	0.029071	0.442927	-0.213789
H52	H	0.027712	0.373489	-0.212262
H53	H	-0.447239	1.065073	-0.186099
O54	O	0.200646	0.541468	-0.213805
H55	H	0.156885	0.585503	-0.269266
O56	O	0.029091	0.443166	0.214188
H57	H	0.028234	0.373657	0.213332
H58	H	-0.031847	0.563787	0.000189
O59	O	-0.347079	1.162776	0.000200
H60	H	-0.310273	1.174232	-0.083621
