data_functionalizedCrystal
_audit_creation_method	'MofGen! by Chris Wilmer'
_symmetry_space_group_name_H-M	'P1'
_symmetry_Int_Tables_number	1
_symmetry_cell_setting	triclinic
loop_
_symmetry_equiv_pos_as_xyz
  x,y,z
_cell_length_a	14.971491
_cell_length_b	11.792254
_cell_length_c	13.448316
_cell_angle_alpha	90.002852
_cell_angle_beta	90.006764
_cell_angle_gamma	83.907416
loop_
_atom_site_label
_atom_site_type_symbol
_atom_site_fract_x
_atom_site_fract_y
_atom_site_fract_z
O1	O	1.187541	0.147930	0.082735
O2	O	0.927213	0.165636	0.082728
O3	O	1.063688	-0.008427	0.082724
O4	O	1.051065	0.321993	0.082738
O5	O	1.063675	-0.008425	-0.082659
O6	O	0.927199	0.165638	-0.082656
O7	O	1.187527	0.147932	-0.082649
Cu8	Cu	1.057362	0.156785	-0.097753
Cu9	Cu	1.057378	0.156783	0.097832
O10	O	1.051052	0.321995	-0.082646
C11	C	0.893878	0.164844	0.000035
C12	C	0.794572	0.162468	0.000032
C13	C	0.366832	0.152214	0.090205
C14	C	0.460141	0.154443	0.090201
C15	C	0.506784	0.155566	0.000047
C16	C	0.460114	0.154448	-0.090109
C17	C	0.366807	0.152211	-0.090104
C18	C	0.654595	0.159114	-0.090113
C19	C	0.747908	0.161354	-0.090118
C20	C	0.747929	0.161347	0.090193
C21	C	0.654622	0.159109	0.090198
C22	C	0.607958	0.157994	0.000041
C23	C	1.062886	-0.050712	0.000033
C24	C	1.060506	-0.176709	0.000034
C25	C	1.058572	-0.279033	0.000037
C26	C	1.056154	-0.407405	0.000046
C27	C	1.220862	0.148724	0.000046
C28	C	1.320168	0.151100	0.000056
C29	C	1.051854	0.364280	0.000048
C30	C	1.054234	0.490278	0.000054
N31	N	1.057357	0.156786	-0.235318
C32	C	1.002809	0.087820	-0.712570
C33	C	1.002806	0.087816	-0.608467
C34	C	1.057380	0.156773	-0.556399
C35	C	1.111967	0.225730	-0.608440
C36	C	1.111974	0.225726	-0.712541
C37	C	1.111946	0.225734	-0.391460
C38	C	1.111938	0.225739	-0.287351
C39	C	1.002778	0.087824	-0.287385
C40	C	1.002785	0.087821	-0.391487
C41	C	1.057371	0.156779	-0.443520
N42	N	1.057390	0.156774	0.235396
H43	H	0.498099	0.155356	-0.163514
O44	O	0.505407	0.155727	0.177801
C45	C	0.472948	0.253385	0.232662
H46	H	0.440551	0.321426	0.179916
H47	H	0.531075	0.287818	0.273562
H48	H	0.420971	0.229883	0.288871
O49	O	0.949700	0.020808	-0.558076
C50	C	0.901546	-0.040071	-0.626355
H51	H	0.896559	0.006905	-0.700560
H52	H	0.831178	-0.047261	-0.596291
H53	H	0.937961	-0.129083	-0.637425
H54	H	1.156420	0.281875	-0.754906
O55	O	0.321608	0.151184	-0.177765
C56	C	0.382785	0.152627	-0.257339
H57	H	0.445771	0.190129	-0.230912
H58	H	0.350403	0.207040	-0.320388
H59	H	0.401648	0.061882	-0.285064
H60	H	0.785881	0.162274	-0.163529
O61	O	1.164929	0.292877	-0.557973
C62	C	1.140687	0.408029	-0.583397
H63	H	1.106029	0.412821	-0.658990
H64	H	1.203532	0.454651	-0.586942
H65	H	1.092899	0.449730	-0.524819
O66	O	0.949749	0.020735	-0.441916
C67	C	0.901550	-0.040112	-0.373675
H68	H	0.938532	-0.046661	-0.299456
H69	H	0.895578	-0.129373	-0.403766
H70	H	0.831567	0.006492	-0.362622
H71	H	0.328861	0.151308	0.163619
H72	H	0.785927	0.162257	0.163602
O73	O	0.609454	0.157971	0.177861
C74	C	0.670644	0.159461	0.257435
H75	H	0.740683	0.125156	0.231005
H76	H	0.649102	0.103749	0.320481
H77	H	0.671627	0.250681	0.285164
O78	O	0.609397	0.158084	-0.177779
C79	C	0.670574	0.159530	-0.257354
H80	H	0.733562	0.197026	-0.230924
H81	H	0.638193	0.213950	-0.320399
H82	H	0.689434	0.068787	-0.285084
H83	H	0.958364	0.031673	-0.754956
O84	O	0.949689	0.021006	-0.236746
C85	C	0.888976	0.090101	-0.176569
H86	H	0.917233	0.174362	-0.160952
H87	H	0.878763	0.044456	-0.103374
H88	H	0.821840	0.107357	-0.216718
H89	H	1.156374	0.281894	-0.244961
H90	H	1.156398	0.281885	-0.433823
