data_functionalizedCrystal
_audit_creation_method	'MofGen! by Chris Wilmer'
_symmetry_space_group_name_H-M	'P1'
_symmetry_Int_Tables_number	1
_symmetry_cell_setting	triclinic
loop_
_symmetry_equiv_pos_as_xyz
  x,y,z
_cell_length_a	17.699104
_cell_length_b	17.699077
_cell_length_c	16.776229
_cell_angle_alpha	89.993415
_cell_angle_beta	90.011179
_cell_angle_gamma	96.713953
loop_
_atom_site_label
_atom_site_type_symbol
_atom_site_fract_x
_atom_site_fract_y
_atom_site_fract_z
O1	O	-0.095691	1.004089	-0.066286
O2	O	-0.108148	0.783710	-0.066291
O3	O	0.008269	0.900117	-0.066274
O4	O	-0.212107	0.887681	-0.066303
O5	O	0.008276	0.900102	0.066303
O6	O	-0.108140	0.783695	0.066286
O7	O	-0.095683	1.004073	0.066291
Zn8	Zn	-0.101911	0.893882	0.087338
Zn9	Zn	-0.101920	0.893902	-0.087337
O10	O	-0.212100	0.887666	0.066274
C11	C	-0.107698	0.755506	-0.000003
C12	C	-0.106362	0.671487	-0.000004
C13	C	-0.105728	0.632011	0.072264
C14	C	-0.104460	0.553069	0.072265
C15	C	-0.103831	0.513603	-0.000003
C16	C	-0.104462	0.553084	-0.072277
C17	C	-0.105725	0.632026	-0.072277
C18	C	-0.099369	0.234721	-0.072278
C19	C	-0.098109	0.155773	-0.072272
C20	C	-0.098104	0.155763	0.072265
C21	C	-0.099366	0.234705	0.072265
C22	C	-0.099994	0.274180	-0.000009
C23	C	-0.101368	0.359779	-0.000009
C24	C	-0.102463	0.428005	-0.000003
C25	C	0.036469	0.899661	0.000017
C26	C	0.120487	0.898317	0.000023
C27	C	0.645359	0.959061	0.000036
C28	C	0.566415	0.960320	0.000038
C29	C	0.517796	0.891984	0.000035
C30	C	0.548125	0.822385	0.000038
C31	C	0.627067	0.821127	0.000042
C32	C	0.229759	0.827458	0.000024
C33	C	0.150811	0.828722	0.000018
C34	C	0.169107	0.966651	0.000020
C35	C	0.248049	0.965393	0.000023
C36	C	0.278371	0.895794	0.000031
C37	C	0.363971	0.894430	0.000031
C38	C	0.432198	0.893348	0.000030
C39	C	0.759700	0.888122	-0.000001
C40	C	0.675682	0.889467	0.000037
C41	C	-0.096133	1.032278	0.000001
C42	C	-0.097469	1.116296	-0.000003
N43	N	-0.101904	0.893873	0.206549
N44	N	-0.101921	0.893916	-0.206549
C45	C	-0.050376	0.945434	0.248274
C46	C	-0.050375	0.945438	0.331726
C47	C	-0.101907	0.893885	0.373452
C48	C	-0.153438	0.842319	0.331721
C49	C	-0.153434	0.842311	0.248271
C50	C	-0.153452	0.842346	0.668269
C51	C	-0.153454	0.842359	0.751725
C52	C	-0.050393	0.945473	0.751724
C53	C	-0.050390	0.945466	0.668273
C54	C	-0.101918	0.893897	0.626550
C55	C	-0.101917	0.893892	0.536062
C56	C	-0.101912	0.893893	0.463939
H57	H	-0.106243	0.664166	-0.131125
H58	H	-0.195393	0.800324	0.214299
O59	O	-0.100061	0.277265	0.150214
H60	H	-0.048253	0.268959	0.184882
O61	O	0.300485	1.039100	0.000028
H62	H	0.360473	1.026533	0.000024
H63	H	0.508533	0.766746	0.000041
O64	O	-0.103774	0.510518	-0.150223
H65	H	-0.104416	0.551235	-0.200476
H66	H	-0.106246	0.664138	0.131114
H67	H	-0.099878	0.266852	-0.131127
H68	H	0.144410	1.023322	0.000003
O69	O	0.098369	0.755014	0.000020
H70	H	0.061968	0.752295	0.054051
O71	O	0.697795	1.032767	0.000047
H72	H	0.687019	1.066093	-0.053983
O73	O	-0.097775	0.113142	0.150221
H74	H	-0.096913	0.051602	0.138085
O75	O	0.533706	1.035381	0.000019
H76	H	0.580776	1.082687	0.000005
O77	O	-0.097404	0.113204	-0.150221
H78	H	-0.098038	0.153917	-0.200478
O79	O	-0.209021	0.786717	0.376726
H80	H	-0.268008	0.796252	0.360683
O81	O	0.262460	0.752396	0.000030
H82	H	0.215387	0.705092	0.000020
H83	H	0.651754	0.764457	0.000050
O84	O	0.005211	1.001028	0.203264
H85	H	-0.004344	1.060015	0.219261
O86	O	-0.103784	0.510487	0.150211
H87	H	-0.104446	0.551191	0.200463
H88	H	-0.195409	0.800358	0.634304
H89	H	-0.008416	0.987422	0.365698
O90	O	0.005194	1.001065	0.623266
H91	H	0.041032	1.036914	0.666301
H92	H	-0.008434	0.987460	0.785704
H93	H	-0.195418	0.800375	0.785697
