data_functionalizedCrystal
_audit_creation_method	'MofGen! by Chris Wilmer'
_symmetry_space_group_name_H-M	'P1'
_symmetry_Int_Tables_number	1
_symmetry_cell_setting	triclinic
loop_
_symmetry_equiv_pos_as_xyz
  x,y,z
_cell_length_a	12.594517
_cell_length_b	19.121063
_cell_length_c	12.594509
_cell_angle_alpha	92.405810
_cell_angle_beta	89.978673
_cell_angle_gamma	92.468805
loop_
_atom_site_label
_atom_site_type_symbol
_atom_site_fract_x
_atom_site_fract_y
_atom_site_fract_z
Zn1	Zn	1.609106	-0.279596	-0.619881
Zn2	Zn	1.601367	-0.397059	-0.449473
Zn3	Zn	1.431108	-0.279626	-0.441911
Zn4	Zn	1.423466	-0.397010	-0.627400
O5	O	1.516262	-0.338323	-0.534666
O6	O	1.757025	-0.295185	-0.597293
O7	O	1.578742	-0.381514	-0.299526
O8	O	1.461157	-0.181338	-0.459208
O9	O	1.751339	-0.381485	-0.472096
O10	O	1.591931	-0.181315	-0.589961
O11	O	1.453653	-0.295237	-0.293971
O12	O	1.281149	-0.295189	-0.466499
O13	O	1.448132	-0.381402	-0.775346
O14	O	1.275534	-0.381431	-0.602777
O15	O	1.584521	-0.295138	-0.769822
O16	O	1.571331	-0.495337	-0.479386
O17	O	1.440628	-0.495301	-0.610109
C18	C	1.239722	-0.338309	-0.534634
C19	C	1.121416	-0.338319	-0.534646
C20	C	1.504339	-0.520803	-0.546407
C21	C	1.499336	-0.598868	-0.551466
C22	C	1.055190	-0.291349	-0.460657
C23	C	0.980217	-0.355414	-0.438606
C24	C	0.985587	-0.274285	-0.556717
C25	C	1.047999	-0.402419	-0.512547
C26	C	1.053378	-0.321246	-0.630701
C27	C	0.978435	-0.385356	-0.608690
C28	C	1.565089	-0.635539	-0.485838
C29	C	1.560390	-0.708890	-0.490602
C30	C	1.489932	-0.745569	-0.560988
C31	C	1.424176	-0.708893	-0.626623
C32	C	1.428881	-0.635544	-0.621864
C33	C	1.472323	-0.967038	-0.578765
C34	C	1.467620	-1.040393	-0.583517
C35	C	1.603835	-1.040385	-0.447497
C36	C	1.608530	-0.967034	-0.442740
C37	C	1.542779	-0.930365	-0.508378
C38	C	1.485124	-0.820546	-0.565857
C39	C	1.547592	-0.855389	-0.503514
C40	C	1.793882	-0.338337	-0.534699
C41	C	1.912187	-0.338343	-0.534713
C42	C	1.516337	-0.338261	-0.812283
C43	C	1.516369	-0.338235	-0.930587
C44	C	1.528260	-0.155130	-0.522903
C45	C	1.533373	-0.077064	-0.517890
C46	C	1.442211	-0.385127	-1.002843
C47	C	1.538217	-0.402288	-1.074740
C48	C	1.420442	-0.321032	-1.069487
C49	C	1.612424	-0.355429	-1.000927
C50	C	1.494585	-0.274143	-0.995667
C51	C	1.590659	-0.291280	-1.067530
C52	C	1.516251	-0.338333	-0.258126
C53	C	1.516438	-0.338162	-0.139810
H54	H	0.948119	-0.369870	-0.357403
C55	C	1.675514	-0.237674	-1.105788
C56	C	1.745161	-0.194470	-1.024333
C57	C	1.830021	-0.140871	-1.062598
C58	C	1.845236	-0.130477	-1.182318
C59	C	1.775587	-0.173682	-1.263781
C60	C	1.690727	-0.227280	-1.225515
H61	H	1.733900	-0.202163	-0.935702
H62	H	1.881579	-0.108888	-1.002294
H63	H	1.908055	-0.090800	-1.210645
H64	H	1.786848	-0.165988	-1.352411
H65	H	1.639169	-0.259264	-1.285820
C66	C	1.085034	-0.475610	-0.487228
C67	C	1.204564	-0.489114	-0.482467
C68	C	1.241601	-0.562303	-0.457144
C69	C	1.159109	-0.621989	-0.436582
C70	C	1.039572	-0.608487	-0.441343
C71	C	1.002535	-0.535298	-0.466666
H72	H	1.265636	-0.444930	-0.497689
H73	H	1.330090	-0.572298	-0.453620
H74	H	1.186526	-0.676168	-0.417836
H75	H	0.978500	-0.652671	-0.426121
H76	H	0.914045	-0.525303	-0.470190
C77	C	1.346672	-0.749240	-0.704049
C78	C	1.226320	-0.739222	-0.694604
C79	C	1.148811	-0.779568	-0.772029
C80	C	1.191656	-0.829930	-0.858898
C81	C	1.312014	-0.839950	-0.868346
C82	C	1.389522	-0.799604	-0.790922
H83	H	1.194598	-0.701939	-0.630295
H84	H	1.059714	-0.772150	-0.765034
H85	H	1.134279	-0.859796	-0.916213
H86	H	1.343735	-0.877233	-0.932656
H87	H	1.478620	-0.807022	-0.797916
H88	H	1.556680	-0.456457	-1.109336
C89	C	1.632725	-0.749224	-0.418411
C90	C	1.624750	-0.739206	-0.296753
C91	C	1.697095	-0.779538	-0.224562
C92	C	1.777416	-0.829886	-0.274028
C93	C	1.785395	-0.839906	-0.395693
C94	C	1.713050	-0.799575	-0.467884
H95	H	1.565288	-0.701933	-0.260130
H96	H	1.691188	-0.772120	-0.134498
H97	H	1.830970	-0.859742	-0.220588
H98	H	1.844856	-0.877179	-0.432317
H99	H	1.718957	-0.806992	-0.557948
C100	C	1.390113	-1.080742	-0.660949
C101	C	1.317789	-1.040409	-0.733150
C102	C	1.240284	-1.080758	-0.810574
C103	C	1.235104	-1.161440	-0.815797
C104	C	1.307431	-1.201777	-0.743593
C105	C	1.384936	-1.161428	-0.666169
H106	H	1.321621	-0.980680	-0.729285
H107	H	1.186743	-1.050897	-0.864023
H108	H	1.177730	-1.191309	-0.873111
H109	H	1.303599	-1.261507	-0.747458
H110	H	1.438477	-1.191289	-0.612720
H111	H	1.418783	-0.937188	-0.632208
H112	H	1.375340	-0.605687	-0.675306
C113	C	0.933294	-0.439088	-0.693265
C114	C	0.956413	-0.517180	-0.686098
C115	C	0.911272	-0.570914	-0.770669
C116	C	0.843011	-0.546554	-0.862406
C117	C	0.819888	-0.468458	-0.869577
C118	C	0.865029	-0.414725	-0.785006
H119	H	1.006947	-0.535216	-0.618185
H120	H	0.928389	-0.628726	-0.765360
H121	H	0.809595	-0.586331	-0.925011
H122	H	0.769354	-0.450423	-0.937490
H123	H	0.847912	-0.356913	-0.790315
H124	H	1.339288	-0.306512	-1.099641
C125	C	1.096771	-0.301687	-0.740367
C126	C	1.019505	-0.285082	-0.829711
C127	C	1.062893	-0.265510	-0.939378
C128	C	1.183548	-0.262543	-0.959700
C129	C	1.260822	-0.279148	-0.870354
C130	C	1.217433	-0.298721	-0.760687
H131	H	0.930182	-0.287278	-0.814669
H132	H	1.005690	-0.253217	-1.005518
H133	H	1.215667	-0.248054	-1.040882
H134	H	1.350144	-0.276953	-0.885396
H135	H	1.274637	-0.311013	-0.694547
C136	C	0.948363	-0.201117	-0.581909
C137	C	0.980395	-0.137321	-0.508380
C138	C	0.943174	-0.064152	-0.533561
C139	C	0.873923	-0.054778	-0.632271
C140	C	0.841887	-0.118575	-0.705806
C141	C	0.879108	-0.191745	-0.680626
H142	H	1.031662	-0.144259	-0.435303
H143	H	0.966890	-0.016925	-0.479124
H144	H	0.846370	-0.000614	-0.650911
H145	H	0.790620	-0.111638	-0.778883
H146	H	0.855392	-0.238972	-0.735062
H147	H	1.622458	-0.605680	-0.428518
H148	H	1.604963	-0.825523	-0.446209
H149	H	1.088788	-0.251666	-0.398014
H150	H	1.693597	-0.370011	-0.970908
C151	C	1.407616	-0.860898	-0.643273
C152	C	1.287261	-0.850892	-0.633822
C153	C	1.209757	-0.891248	-0.711238
C154	C	1.252607	-0.941609	-0.798106
C155	C	1.372967	-0.951617	-0.807561
C156	C	1.450472	-0.911262	-0.730144
H157	H	1.255536	-0.813610	-0.569514
H158	H	1.120657	-0.883839	-0.704239
H159	H	1.195233	-0.971483	-0.855414
H160	H	1.404693	-0.988900	-0.871869
H161	H	1.539571	-0.918670	-0.737144
C162	C	1.357550	-0.438777	-0.964330
C163	C	1.364480	-0.516908	-0.997340
C164	C	1.279825	-0.570559	-0.958825
C165	C	1.188240	-0.546079	-0.887301
C166	C	1.181306	-0.467944	-0.854288
C167	C	1.265961	-0.414293	-0.892803
H168	H	1.432280	-0.535033	-1.050289
H169	H	1.284959	-0.628399	-0.983264
H170	H	1.125574	-0.585794	-0.858790
H171	H	1.113506	-0.449819	-0.801338
H172	H	1.260827	-0.356453	-0.868364
H173	H	1.665902	-0.937172	-0.385426
H174	H	1.476092	-0.219990	-0.961048
H175	H	1.657368	-1.070249	-0.394060
