data_functionalizedCrystal
_audit_creation_method	'MofGen! by Chris Wilmer'
_symmetry_space_group_name_H-M	'P1'
_symmetry_Int_Tables_number	1
_symmetry_cell_setting	triclinic
loop_
_symmetry_equiv_pos_as_xyz
  x,y,z
_cell_length_a	10.489741
_cell_length_b	9.065218
_cell_length_c	8.140239
_cell_angle_alpha	89.998670
_cell_angle_beta	89.998782
_cell_angle_gamma	95.222470
loop_
_atom_site_label
_atom_site_type_symbol
_atom_site_fract_x
_atom_site_fract_y
_atom_site_fract_z
O1	O	1.694800	-0.208165	0.136505
O2	O	2.194800	0.291835	0.636505
O3	O	1.323675	-0.227704	0.136529
O4	O	1.823675	0.272296	0.636529
O5	O	1.516909	-0.003255	0.136513
O6	O	2.016909	0.496745	0.636513
O7	O	1.501566	-0.432614	0.136521
O8	O	2.001566	0.067386	0.636521
O9	O	1.516902	-0.003253	-0.136714
O10	O	2.016902	0.496747	0.363286
O11	O	1.323669	-0.227703	-0.136698
O12	O	1.823669	0.272297	0.363302
O13	O	1.694794	-0.208163	-0.136723
O14	O	2.194794	0.291837	0.363277
Zn15	Zn	1.509230	-0.217933	-0.180091
Zn16	Zn	2.009230	0.282067	0.319909
Zn17	Zn	1.509239	-0.217935	0.179898
Zn18	Zn	2.009239	0.282065	0.679898
O19	O	1.501560	-0.432612	-0.136706
O20	O	2.001560	0.067388	0.363294
C21	C	1.276135	-0.226228	-0.000081
C22	C	1.776135	0.273772	0.499919
C23	C	1.134489	-0.221813	-0.000071
C24	C	1.634489	0.278187	0.499929
C25	C	1.065834	-0.079002	-0.000089
C26	C	1.565834	0.420998	0.499911
C27	C	0.973954	-0.146465	0.134624
C28	C	1.473954	0.353535	0.634624
C29	C	0.973981	-0.146497	-0.134757
C30	C	1.473981	0.353503	0.365243
C31	C	1.044475	-0.289334	0.134753
C32	C	1.544475	0.210666	0.634753
C33	C	1.044512	-0.289347	-0.134748
C34	C	1.544512	0.210653	0.365252
C35	C	0.952660	-0.356914	-0.000003
C36	C	1.452660	0.143086	0.499997
C37	C	1.515431	0.051725	-0.000098
C38	C	2.015431	0.551725	0.499902
C39	C	1.511022	0.215547	-0.000089
C40	C	2.011022	0.715547	0.499911
C41	C	1.742334	-0.209640	-0.000109
C42	C	2.242334	0.290360	0.499891
C43	C	1.883979	-0.214055	-0.000107
C44	C	2.383979	0.285945	0.499893
C45	C	1.503038	-0.487593	-0.000092
C46	C	2.003038	0.012407	0.499908
C47	C	1.507447	-0.651414	-0.000089
C48	C	2.007447	-0.151414	0.499911
N49	N	1.509234	-0.217930	-0.425773
N50	N	2.009234	0.282070	0.074227
N51	N	1.509245	-0.217925	0.425580
N52	N	2.009245	0.282075	0.925580
H53	H	1.075524	-0.349714	0.248771
H54	H	1.575524	0.150286	0.748771
H55	H	1.115099	0.038397	0.000077
H56	H	1.615099	0.538397	0.500077
H57	H	1.075774	-0.349723	-0.248644
H58	H	1.575774	0.150277	0.251356
H59	H	0.903661	-0.474437	0.000073
H60	H	1.403661	0.025563	0.500073
H61	H	0.942724	-0.086039	0.248514
H62	H	1.442724	0.413961	0.748514
H63	H	0.942783	-0.086045	-0.248646
H64	H	1.442783	0.413955	0.251354
