data_functionalizedCrystal
_audit_creation_method	'MofGen! by Chris Wilmer'
_symmetry_space_group_name_H-M	'P1'
_symmetry_Int_Tables_number	1
_symmetry_cell_setting	triclinic
loop_
_symmetry_equiv_pos_as_xyz
  x,y,z
_cell_length_a	10.723024
_cell_length_b	11.804365
_cell_length_c	10.723023
_cell_angle_alpha	101.946287
_cell_angle_beta	95.532291
_cell_angle_gamma	101.962134
loop_
_atom_site_label
_atom_site_type_symbol
_atom_site_fract_x
_atom_site_fract_y
_atom_site_fract_z
O1	O	1.682181	0.099016	-0.150049
O2	O	1.319029	0.099019	-0.166801
O3	O	1.508981	0.099014	0.023150
O4	O	1.492229	0.099022	-0.340001
O5	O	1.458973	-0.099041	-0.026806
O6	O	1.269022	-0.099035	-0.216758
O7	O	1.632173	-0.099039	-0.200005
Cu8	Cu	1.446031	-0.117121	-0.212943
Cu9	Cu	1.505171	0.117101	-0.153864
O10	O	1.442221	-0.099033	-0.389957
C11	C	1.247526	-0.000007	-0.190560
C12	C	1.108972	-0.000006	-0.186912
N13	N	1.404445	-0.281860	-0.254495
C14	C	1.033990	-0.000003	-0.293199
C15	C	0.890787	-0.000001	-0.289431
C16	C	1.646632	-0.655816	-0.012496
C17	C	1.678090	-0.531156	0.018944
C18	C	1.609681	-0.468826	-0.049413
C19	C	1.509809	-0.531169	-0.149215
C20	C	1.478354	-0.655841	-0.180665
C21	C	1.441403	-0.468851	-0.217582
C22	C	1.341531	-0.531194	-0.317384
C23	C	1.310080	-0.655854	-0.348827
C24	C	1.378489	-0.718184	-0.280471
C25	C	1.472858	-0.344178	-0.186132
C26	C	1.304580	-0.344203	-0.354301
C27	C	1.273122	-0.468864	-0.385741
C28	C	1.703677	-0.000009	-0.176246
C29	C	1.842233	-0.000003	-0.179892
C30	C	1.482759	-0.000012	0.044672
C31	C	1.479112	-0.000008	0.183227
N32	N	1.546767	0.281841	-0.112302
C33	C	1.468444	-0.000005	-0.411478
C34	C	1.472092	-0.000001	-0.550031
C35	C	1.451581	-0.102604	0.219127
C36	C	1.447812	-0.102601	0.362331
H37	H	1.075811	-0.000007	-0.386986
Cl38	Cl	1.803637	-0.452784	0.144401
H39	H	0.826356	0.000006	-0.380420
Cl40	Cl	1.419505	-0.238226	0.102906
H41	H	1.702328	-0.706573	0.043145
Cl42	Cl	1.511207	0.135615	0.299451
H43	H	1.495660	0.087839	0.419004
H44	H	0.906659	0.000002	-0.088895
H45	H	1.424228	-0.190437	0.393302
Cl46	Cl	1.044411	-0.000017	-0.042109
H47	H	1.554175	-0.293429	-0.104874
Cl48	Cl	1.649227	-0.312107	-0.009884
Cl49	Cl	1.338934	-0.874908	-0.319992
Cl50	Cl	1.184541	-0.734230	-0.474306
Cl51	Cl	1.147572	-0.547250	-0.511204
Cl52	Cl	1.218580	-0.265853	-0.440245
