data_functionalizedCrystal
_audit_creation_method	'MofGen! by Chris Wilmer'
_symmetry_space_group_name_H-M	'P1'
_symmetry_Int_Tables_number	1
_symmetry_cell_setting	triclinic
loop_
_symmetry_equiv_pos_as_xyz
  x,y,z
_cell_length_a	11.792241
_cell_length_b	17.019294
_cell_length_c	10.868271
_cell_angle_alpha	93.884533
_cell_angle_beta	89.996464
_cell_angle_gamma	83.793186
loop_
_atom_site_label
_atom_site_type_symbol
_atom_site_fract_x
_atom_site_fract_y
_atom_site_fract_z
O1	O	1.505769	0.108121	0.113657
O2	O	2.005769	0.608121	0.613657
O3	O	1.175311	0.119264	0.114866
O4	O	1.675311	0.619264	0.614866
O5	O	1.349760	-0.001101	0.102092
O6	O	1.849760	0.498899	0.602092
O7	O	1.331321	0.228486	0.126431
O8	O	1.831321	0.728486	0.626431
O9	O	1.349758	-0.001108	-0.102554
O10	O	1.849758	0.498892	0.397446
O11	O	1.175309	0.119257	-0.089780
O12	O	1.675309	0.619257	0.410220
O13	O	1.505767	0.108114	-0.090989
O14	O	2.005767	0.608114	0.409011
Zn15	Zn	1.340538	0.113685	-0.122876
Zn16	Zn	1.840538	0.613685	0.377124
Zn17	Zn	1.340541	0.113694	0.146753
Zn18	Zn	1.840541	0.613694	0.646753
O19	O	1.331319	0.228479	-0.078214
O20	O	1.831319	0.728479	0.421786
C21	C	1.133027	0.118561	0.012473
C22	C	1.633027	0.618561	0.512473
C23	C	1.007035	0.116466	0.012261
C24	C	1.507035	0.616466	0.512261
C25	C	0.776363	0.112613	0.011818
C26	C	1.276363	0.612613	0.511818
C27	C	0.904726	0.114754	0.012064
C28	C	1.404726	0.614754	0.512064
C29	C	1.349060	-0.030497	-0.003344
C30	C	1.849060	0.469503	0.496656
C31	C	1.346963	-0.118076	-0.012620
C32	C	1.846963	0.381924	0.487380
C33	C	1.345982	-0.159213	0.094573
C34	C	1.845982	0.340787	0.594573
C35	C	1.344004	-0.241503	0.085854
C36	C	1.844004	0.258497	0.585854
C37	C	1.343016	-0.282655	-0.030061
C38	C	1.843016	0.217345	0.469939
C39	C	1.343994	-0.241512	-0.137262
C40	C	1.843994	0.258488	0.362738
C41	C	1.345964	-0.159223	-0.128541
C42	C	1.845964	0.340777	0.371459
C43	C	1.337063	-0.531114	-0.061973
C44	C	1.837063	-0.031114	0.438027
C45	C	1.335097	-0.613409	-0.070685
C46	C	1.835097	-0.113409	0.429315
C47	C	1.335105	-0.613394	0.152432
C48	C	1.835105	-0.113394	0.652432
C49	C	1.337081	-0.531104	0.161142
C50	C	1.837081	-0.031104	0.661142
C51	C	1.338053	-0.489968	0.053941
C52	C	1.838053	0.010032	0.553941
C53	C	1.340999	-0.366768	-0.038976
C54	C	1.840999	0.133232	0.461024
C55	C	1.340062	-0.405855	0.062858
C56	C	1.840062	0.094145	0.562858
C57	C	1.548052	0.108818	0.011407
C58	C	2.048052	0.608818	0.511407
C59	C	1.674044	0.110913	0.011627
C60	C	2.174044	0.610913	0.511627
C61	C	1.332019	0.257875	0.027224
C62	C	1.832019	0.757875	0.527224
C63	C	1.334116	0.345455	0.036508
C64	C	1.834116	0.845455	0.536508
N65	N	1.340545	0.113678	-0.306891
N66	N	1.840545	0.613678	0.193109
N67	N	1.340543	0.113694	0.330767
N68	N	1.840543	0.613694	0.830767
C69	C	1.340540	0.113689	0.581773
C70	C	1.840540	0.613689	1.081773
C71	C	1.340538	0.113694	0.442096
C72	C	1.840538	0.613694	0.942096
H73	H	1.346792	-0.125714	0.188963
H74	H	1.846792	0.374286	0.688963
H75	H	1.343210	-0.274993	0.173142
H76	H	1.843210	0.225007	0.673142
H77	H	1.346747	-0.125729	-0.215830
H78	H	1.846747	0.374271	0.284170
C79	C	1.244740	-0.304867	0.202992
C80	C	1.744740	0.195133	0.702992
C81	C	1.341132	-0.360626	0.190273
C82	C	1.841132	0.139374	0.690273
H83	H	1.245404	-0.276940	0.281652
H84	H	1.745404	0.223060	0.781652
H85	H	1.177837	-0.331245	0.195565
H86	H	1.677837	0.168755	0.695565
H87	H	1.245619	-0.268594	0.140392
H88	H	1.745619	0.231406	0.640392
H89	H	1.340248	-0.396904	0.252868
H90	H	1.840248	0.103096	0.752868
H91	H	1.408052	-0.334248	0.197712
H92	H	1.908052	0.165752	0.697712
H93	H	1.334311	-0.646896	0.239709
H94	H	1.834311	-0.146896	0.739709
H95	H	1.334287	-0.646912	-0.165081
H96	H	1.834287	-0.146912	0.334919
C97	C	1.436800	-0.447028	-0.182480
C98	C	1.936800	0.052972	0.317520
C99	C	1.338150	-0.485894	-0.179797
C100	C	1.838150	0.014106	0.320203
H101	H	1.437469	-0.419104	-0.255218
H102	H	1.937469	0.080896	0.244782
H103	H	1.502171	-0.484862	-0.181862
H104	H	2.002171	0.015138	0.318138
H105	H	1.437651	-0.410750	-0.112187
H106	H	1.937651	0.089250	0.387813
H107	H	1.337304	-0.522177	-0.250086
H108	H	1.837304	-0.022177	0.249914
H109	H	1.272762	-0.448056	-0.180426
H110	H	1.772762	0.051944	0.319574
H111	H	1.337887	-0.497604	0.255532
H112	H	1.837887	0.002396	0.755532
H113	H	1.340198	-0.400284	-0.133354
H114	H	1.840198	0.099716	0.366646
C115	C	1.244271	-0.325620	-0.275600
C116	C	1.744271	0.174380	0.224400
C117	C	1.342914	-0.286748	-0.264676
C118	C	1.842914	0.213252	0.235324
H119	H	1.243614	-0.353550	-0.354260
H120	H	1.743614	0.146450	0.145740
H121	H	1.178895	-0.287790	-0.266960
H122	H	1.678895	0.212210	0.233040
H123	H	1.243416	-0.361895	-0.212999
H124	H	1.743416	0.138105	0.287001
H125	H	1.343764	-0.250469	-0.327273
H126	H	1.843764	0.249531	0.172727
H127	H	1.408307	-0.324583	-0.273329
H128	H	1.908307	0.175417	0.226671
