data_functionalizedCrystal
_audit_creation_method	'MofGen! by Chris Wilmer'
_symmetry_space_group_name_H-M	'P1'
_symmetry_Int_Tables_number	1
_symmetry_cell_setting	triclinic
loop_
_symmetry_equiv_pos_as_xyz
  x,y,z
_cell_length_a	11.792254
_cell_length_b	9.065218
_cell_length_c	8.140239
_cell_angle_alpha	90.001686
_cell_angle_beta	89.997542
_cell_angle_gamma	95.392759
loop_
_atom_site_label
_atom_site_type_symbol
_atom_site_fract_x
_atom_site_fract_y
_atom_site_fract_z
O1	O	1.508019	-0.202311	-0.136597
O2	O	2.008019	0.297689	0.363403
O3	O	1.177796	-0.223132	-0.136602
O4	O	1.677796	0.276868	0.363398
O5	O	1.349733	0.001984	-0.136596
O6	O	1.849733	0.501984	0.363404
O7	O	1.336082	-0.427427	-0.136603
O8	O	1.836082	0.072573	0.363397
O9	O	1.349724	0.001987	0.136631
O10	O	1.849724	0.501987	0.636631
O11	O	1.177786	-0.223130	0.136626
O12	O	1.677786	0.276870	0.636626
O13	O	1.508010	-0.202308	0.136630
O14	O	2.008010	0.297692	0.636630
Zn15	Zn	1.342896	-0.212718	0.180009
Zn16	Zn	1.842896	0.287282	0.680009
Zn17	Zn	1.342909	-0.212722	-0.179980
Zn18	Zn	1.842909	0.287278	0.320020
O19	O	1.336072	-0.427425	0.136624
O20	O	1.836072	0.072575	0.636624
C21	C	1.135493	-0.221819	0.000011
C22	C	1.635493	0.278181	0.500011
C23	C	1.009458	-0.217894	0.000009
C24	C	1.509458	0.282106	0.500009
C25	C	1.550313	-0.203621	0.000014
C26	C	2.050313	0.296379	0.500014
C27	C	1.676347	-0.207547	0.000005
C28	C	2.176347	0.292453	0.500005
C29	C	1.348416	0.056960	0.000015
C30	C	1.848416	0.556960	0.500015
C31	C	1.344494	0.220767	0.000007
C32	C	1.844494	0.720767	0.500007
C33	C	1.778702	-0.210737	0.000002
C34	C	2.278702	0.289263	0.500002
C35	C	1.907110	-0.214725	0.000006
C36	C	2.407110	0.285275	0.500006
C37	C	1.337389	-0.482401	0.000010
C38	C	1.837389	0.017599	0.500010
C39	C	1.341312	-0.646207	0.000007
C40	C	1.841312	-0.146207	0.500007
N41	N	1.342896	-0.212715	0.425691
N42	N	1.842896	0.287285	0.925691
N43	N	1.342918	-0.212713	-0.425662
N44	N	1.842918	0.287287	0.074338
