data_functionalizedCrystal
_audit_creation_method	'MofGen! by Chris Wilmer'
_symmetry_space_group_name_H-M	'P1'
_symmetry_Int_Tables_number	1
_symmetry_cell_setting	triclinic
loop_
_symmetry_equiv_pos_as_xyz
  x,y,z
_cell_length_a	17.077404
_cell_length_b	18.101395
_cell_length_c	17.077396
_cell_angle_alpha	90.027467
_cell_angle_beta	90.019501
_cell_angle_gamma	90.031329
loop_
_atom_site_label
_atom_site_type_symbol
_atom_site_fract_x
_atom_site_fract_y
_atom_site_fract_z
Zn1	Zn	1.200010	-0.294825	0.443848
Zn2	Zn	1.700010	0.205175	0.943848
Zn3	Zn	1.199898	-0.418674	0.312585
Zn4	Zn	1.699898	0.081326	0.812585
Zn5	Zn	1.068742	-0.294851	0.312596
Zn6	Zn	1.568742	0.205149	0.812596
Zn7	Zn	1.068691	-0.418630	0.443808
Zn8	Zn	1.568691	0.081370	0.943808
O9	O	1.134335	-0.356745	0.378209
O10	O	1.634335	0.143255	0.878209
O11	O	1.309842	-0.311261	0.426448
O12	O	1.809842	0.188739	0.926448
O13	O	1.182474	-0.402278	0.202739
O14	O	1.682474	0.097722	0.702739
O15	O	1.086223	-0.191215	0.330029
O16	O	1.586223	0.308785	0.830029
O17	O	1.309760	-0.402253	0.330009
O18	O	1.809760	0.097747	0.830009
O19	O	1.182665	-0.191196	0.426459
O20	O	1.682665	0.308804	0.926459
O21	O	1.086114	-0.311306	0.202748
O22	O	1.586114	0.188694	0.702748
O23	O	0.958888	-0.311263	0.329990
O24	O	1.458888	0.188737	0.829990
O25	O	1.086136	-0.402178	0.553660
O26	O	1.586136	0.097822	1.053660
O27	O	0.958851	-0.402203	0.426391
O28	O	1.458851	0.097797	0.926391
O29	O	1.182616	-0.311219	0.553690
O30	O	1.682616	0.188781	1.053690
O31	O	1.182425	-0.522301	0.329970
O32	O	1.682425	-0.022301	0.829970
O33	O	1.086028	-0.522269	0.426379
O34	O	1.586028	-0.022269	0.926379
C35	C	0.930387	-0.356732	0.378188
C36	C	1.430387	0.143268	0.878188
C37	C	0.843137	-0.356744	0.378197
C38	C	1.343137	0.143256	0.878197
C39	C	1.134230	-0.549156	0.378186
C40	C	1.634230	-0.049156	0.878186
C41	C	1.134257	-0.631470	0.378203
C42	C	1.634257	-0.131470	0.878203
C43	C	0.802148	-0.404167	0.428312
C44	C	1.302148	0.095833	0.928312
C45	C	0.720168	-0.404169	0.428325
C46	C	1.220168	0.095831	0.928325
C47	C	0.679178	-0.356750	0.378218
C48	C	1.179178	0.143250	0.878218
C49	C	0.720173	-0.309321	0.328100
C50	C	1.220173	0.190679	0.828100
C51	C	0.802152	-0.309316	0.328092
C52	C	1.302152	0.190684	0.828092
C53	C	0.549303	-0.309336	0.328119
C54	C	1.049303	0.190664	0.828119
C55	C	0.467318	-0.309341	0.328126
C56	C	0.967318	0.190659	0.828126
C57	C	0.467319	-0.404188	0.428352
C58	C	0.967319	0.095812	0.928352
C59	C	0.549298	-0.404184	0.428344
C60	C	1.049298	0.095816	0.928344
C61	C	0.590287	-0.356755	0.378225
C62	C	1.090287	0.143245	0.878225
C63	C	1.134429	-0.930561	0.378245
C64	C	1.634429	-0.430561	0.878245
C65	C	1.073919	-0.899246	0.439054
C66	C	1.573919	-0.399246	0.939054
C67	C	1.073632	-0.813628	0.438863
C68	C	1.573632	-0.313628	0.938863
C69	C	1.134344	-0.782178	0.378225
C70	C	1.634344	-0.282178	0.878225
C71	C	1.111947	-0.813330	0.295495
C72	C	1.611947	-0.313330	0.795495
C73	C	1.111557	-0.898975	0.295859
C74	C	1.611557	-0.398975	0.795859
C75	C	1.217469	-0.898904	0.399437
C76	C	1.717469	-0.398904	0.899437
C77	C	1.216980	-0.813253	0.401252
C78	C	1.716980	-0.313253	0.901252
C79	C	1.134297	-0.698319	0.378208
C80	C	1.634297	-0.198319	0.878208
C81	C	1.134474	-1.014420	0.378256
C82	C	1.634474	-0.514420	0.878256
C83	C	1.339079	-0.356759	0.378231
C84	C	1.839079	0.143241	0.878231
C85	C	1.426329	-0.356765	0.378241
C86	C	1.926329	0.143235	0.878241
C87	C	1.134383	-0.356690	0.582954
C88	C	1.634383	0.143310	1.082954
C89	C	1.134403	-0.356667	0.670203
C90	C	1.634403	0.143333	1.170203
C91	C	1.134462	-0.163583	0.378250
C92	C	1.634462	0.336417	0.878250
C93	C	1.134516	-0.081269	0.378267
C94	C	1.634516	0.418731	0.878267
C95	C	1.134333	-0.356746	0.174261
C96	C	1.634333	0.143254	0.674261
C97	C	1.134465	-0.356561	0.087012
C98	C	1.634465	0.143439	0.587012
C99	C	1.184642	-0.309301	0.711210
C100	C	1.684642	0.190699	1.211210
C101	C	1.184651	-0.309276	0.793191
C102	C	1.684651	0.190724	1.293191
C103	C	1.134425	-0.356622	0.834163
C104	C	1.634425	0.143378	1.334163
C105	C	1.084181	-0.403990	0.793150
C106	C	1.584181	0.096010	1.293150
C107	C	1.084168	-0.404011	0.711171
C108	C	1.584168	0.095989	1.211171
C109	C	1.084212	-0.403946	0.964021
C110	C	1.584212	0.096054	1.464021
C111	C	1.084226	-0.403927	1.046005
C112	C	1.584226	0.096073	1.546005
C113	C	1.184695	-0.309211	1.046040
C114	C	1.684695	0.190789	1.546040
C115	C	1.184683	-0.309232	0.964061
C116	C	1.684683	0.190768	1.464061
C117	C	1.134439	-0.356601	0.923054
C118	C	1.634439	0.143399	1.423054
H119	H	0.835516	-0.442784	0.469113
H120	H	1.335516	0.057216	0.969113
H121	H	1.225562	-0.270708	0.826575
H122	H	1.725562	0.229292	1.326575
F123	F	1.030736	-0.454361	0.920380
F124	F	1.530736	0.045639	1.420380
H125	H	1.225544	-0.270749	0.677857
H126	H	1.725544	0.229251	1.177857
F127	F	1.238143	-0.258846	0.920457
F128	F	1.738143	0.241154	1.420457
F129	F	1.238169	-0.258798	1.089683
F130	F	1.738169	0.241202	1.589683
F131	F	0.423695	-0.258876	0.274793
F132	F	0.923695	0.241124	0.774793
H133	H	1.012081	-0.793205	0.424826
H134	H	1.512081	-0.293205	0.924826
H135	H	0.686792	-0.270709	0.287305
H136	H	1.186792	0.229291	0.787305
F137	F	1.030695	-0.454423	0.667529
F138	F	1.530695	0.045577	1.167529
F139	F	1.239059	-0.786638	0.480832
F140	F	1.739059	-0.286638	0.980832
F141	F	0.676548	-0.454644	0.481665
F142	F	1.176548	0.045356	0.981665
H143	H	1.043326	-0.442478	1.079363
H144	H	1.543326	0.057522	1.579363
H145	H	1.043283	-0.442538	0.826517
H146	H	1.543283	0.057462	1.326517
H147	H	0.433942	-0.442804	0.469163
H148	H	0.933942	0.057196	0.969163
F149	F	0.592925	-0.258856	0.274777
F150	F	1.092925	0.241144	0.774777
F151	F	0.592921	-0.454657	0.481669
F152	F	1.092921	0.045343	0.981669
F153	F	1.276398	-0.925383	0.341558
F154	F	1.776398	-0.425383	0.841558
H155	H	1.087644	-0.792564	0.500206
H156	H	1.587644	-0.292564	1.000206
F157	F	0.845775	-0.258840	0.274754
F158	F	1.345775	0.241160	0.774754
H159	H	1.087793	-0.919793	0.500595
H160	H	1.587793	-0.419793	1.000595
F161	F	1.166657	-0.926056	0.234616
F162	F	1.666657	-0.426056	0.734616
F163	F	0.993959	-0.927474	0.420950
F164	F	1.493959	-0.427474	0.920950
F165	F	1.032216	-0.925175	0.272395
F166	F	1.532216	-0.425175	0.772395
H167	H	1.154633	-0.792959	0.248952
H168	H	1.654633	-0.292959	0.748952
H169	H	1.051888	-0.791945	0.277221
H170	H	1.551888	-0.291945	0.777221
H171	H	1.237888	-0.920452	0.458736
H172	H	1.737888	-0.420452	0.958736
H173	H	1.264448	-0.791840	0.360190
H174	H	1.764448	-0.291840	0.860190
