data_functionalizedCrystal
_audit_creation_method	'MofGen! by Chris Wilmer'
_symmetry_space_group_name_H-M	'P1'
_symmetry_Int_Tables_number	1
_symmetry_cell_setting	triclinic
loop_
_symmetry_equiv_pos_as_xyz
  x,y,z
_cell_length_a	25.639242
_cell_length_b	29.839132
_cell_length_c	25.639233
_cell_angle_alpha	89.978200
_cell_angle_beta	90.022166
_cell_angle_gamma	89.959210
loop_
_atom_site_label
_atom_site_type_symbol
_atom_site_fract_x
_atom_site_fract_y
_atom_site_fract_z
Zn1	Zn	0.799201	0.178962	0.295731
Zn2	Zn	1.299201	0.678962	0.795731
Zn3	Zn	0.799115	0.254076	0.208291
Zn4	Zn	1.299115	0.754076	0.708291
Zn5	Zn	0.711777	0.178955	0.208295
Zn6	Zn	1.211777	0.678955	0.708295
Zn7	Zn	0.711713	0.254059	0.295681
Zn8	Zn	1.211713	0.754059	0.795681
O9	O	0.755451	0.216513	0.251999
O10	O	1.255451	0.716513	0.751999
O11	O	0.872355	0.188935	0.284151
O12	O	1.372355	0.688935	0.784151
O13	O	0.787520	0.244115	0.135126
O14	O	1.287520	0.744115	0.635126
O15	O	0.723438	0.116089	0.219917
O16	O	1.223438	0.616089	0.719917
O17	O	0.872291	0.244122	0.219909
O18	O	1.372291	0.744122	0.719909
O19	O	0.787668	0.116094	0.284156
O20	O	1.287668	0.616094	0.784156
O21	O	0.723354	0.188924	0.135129
O22	O	1.223354	0.688924	0.635129
O23	O	0.638604	0.188908	0.219868
O24	O	1.138604	0.688908	0.719868
O25	O	0.723327	0.244093	0.368853
O26	O	1.223327	0.744093	0.868853
O27	O	0.638556	0.244087	0.284070
O28	O	1.138556	0.744087	0.784070
O29	O	0.787605	0.188919	0.368890
O30	O	1.287605	0.688919	0.868890
O31	O	0.787457	0.316941	0.219860
O32	O	1.287457	0.816941	0.719860
O33	O	0.723243	0.316929	0.284065
O34	O	1.223243	0.816929	0.784065
C35	C	0.619609	0.216495	0.251964
C36	C	1.119609	0.716495	0.751964
C37	C	0.561495	0.216499	0.251961
C38	C	1.061495	0.716499	0.751961
C39	C	0.201116	0.245293	0.285398
C40	C	0.701116	0.745293	0.785398
C41	C	0.146511	0.245295	0.285406
C42	C	0.646511	0.745295	0.785406
O43	O	0.118261	0.269755	0.313805
O44	O	0.618261	0.769755	0.813805
N45	N	0.119212	0.216525	0.252034
N46	N	0.619212	0.716525	0.752034
C47	C	0.146520	0.187748	0.218655
C48	C	0.646520	0.687748	0.718655
O49	O	0.118286	0.163276	0.190270
O50	O	0.618286	0.663276	0.690270
C51	C	0.201124	0.187743	0.218649
C52	C	0.701124	0.687743	0.718649
C53	C	0.228420	0.216518	0.252020
C54	C	0.728420	0.716518	0.752020
C55	C	0.228412	0.274065	0.318766
C56	C	0.728412	0.774065	0.818766
C57	C	0.283013	0.274063	0.318757
C58	C	0.783013	0.774063	0.818757
C59	C	0.310317	0.245288	0.285379
C60	C	0.810317	0.745288	0.785379
C61	C	0.283021	0.216516	0.252011
C62	C	0.783021	0.716516	0.752011
C63	C	0.228431	0.158963	0.185273
C64	C	0.728431	0.658963	0.685273
C65	C	0.283038	0.158961	0.185271
C66	C	0.783038	0.658961	0.685271
C67	C	0.310334	0.187736	0.218642
C68	C	0.810334	0.687736	0.718642
C69	C	0.364925	0.187739	0.218624
C70	C	0.864925	0.687739	0.718624
N71	N	0.392224	0.216509	0.251997
N72	N	0.892224	0.716509	0.751997
C73	C	0.364920	0.245283	0.285374
C74	C	0.864920	0.745283	0.785374
C75	C	0.031850	0.187759	0.218669
C76	C	0.531850	0.687759	0.718669
C77	C	-0.022753	0.187766	0.218671
C78	C	0.477247	0.687766	0.718671
C79	C	-0.022758	0.245313	0.285423
C80	C	0.477242	0.745313	0.785423
C81	C	0.031846	0.245308	0.285418
C82	C	0.531846	0.745308	0.785418
C83	C	0.059149	0.216529	0.252041
C84	C	0.559149	0.716529	0.752041
C85	C	0.479585	0.245277	0.285352
C86	C	0.979585	0.745277	0.785352
C87	C	0.534191	0.245273	0.285339
C88	C	1.034191	0.745273	0.785339
C89	C	0.534191	0.187724	0.218589
C90	C	1.034191	0.687724	0.718589
C91	C	0.479590	0.187729	0.218600
C92	C	0.979590	0.687729	0.718600
C93	C	0.452289	0.216507	0.251986
C94	C	0.952289	0.716507	0.751986
O95	O	0.393210	0.163290	0.190242
O96	O	0.893210	0.663290	0.690242
O97	O	0.393161	0.269746	0.313759
O98	O	0.893161	0.769746	0.813759
C99	C	0.755348	0.333236	0.251968
C100	C	1.255348	0.833236	0.751968
C101	C	0.755351	0.383170	0.251972
C102	C	1.255351	0.883170	0.751972
C103	C	0.788911	0.692807	0.218595
C104	C	1.288911	1.192807	0.718595
C105	C	0.788961	0.880480	0.218607
C106	C	1.288961	1.380480	0.718607
O107	O	0.817439	0.904740	0.190220
O108	O	1.317439	1.404740	0.690220
N109	N	0.755506	0.903955	0.252008
N110	N	1.255506	1.403955	0.752008
C111	C	0.722039	0.880509	0.285411
C112	C	1.222039	1.380509	0.785411
O113	O	0.693588	0.904782	0.313824
O114	O	1.193588	1.404782	0.813824
C115	C	0.721992	0.692837	0.285401
C116	C	1.221992	1.192837	0.785401
C117	C	0.755445	0.669364	0.251994
C118	C	1.255445	1.169364	0.751994
C119	C	0.822362	0.669335	0.185192
C120	C	1.322362	1.169335	0.685192
C121	C	0.822347	0.622419	0.185187
C122	C	1.322347	1.122419	0.685187
C123	C	0.788882	0.598976	0.218586
C124	C	1.288882	1.098976	0.718586
C125	C	0.755430	0.622449	0.251990
C126	C	1.255430	1.122449	0.751990
C127	C	0.688528	0.669391	0.318806
C128	C	1.188528	1.169391	0.818806
C129	C	0.688520	0.622470	0.318801
C130	C	1.188520	1.122470	0.818801
C131	C	0.721973	0.598998	0.285395
C132	C	1.221973	1.098998	0.785395
C133	C	0.721950	0.552090	0.285384
C134	C	1.221950	1.052090	0.785384
N135	N	0.755405	0.528615	0.251983
N136	N	1.255405	1.028615	0.751983
C137	C	0.788871	0.552058	0.218584
C138	C	1.288871	1.052058	0.718584
C139	C	0.722065	0.979039	0.285412
C140	C	1.222065	1.479039	0.785412
C141	C	0.722076	1.025957	0.285414
C142	C	1.222076	1.525957	0.785414
C143	C	0.788999	1.025925	0.218612
C144	C	1.288999	1.525925	0.718612
C145	C	0.788985	0.979007	0.218607
C146	C	1.288985	1.479007	0.718607
C147	C	0.755520	0.955565	0.252012
C148	C	1.255520	1.455565	0.752012
C149	C	0.788837	0.453533	0.218577
C150	C	1.288837	0.953533	0.718577
C151	C	0.788817	0.406613	0.218573
C152	C	1.288817	0.906613	0.718573
C153	C	0.721896	0.406649	0.285378
C154	C	1.221896	0.906649	0.785378
C155	C	0.721914	0.453564	0.285379
C156	C	1.221914	0.953564	0.785379
C157	C	0.755388	0.477005	0.251977
C158	C	1.255388	0.977005	0.751977
O159	O	0.693491	0.527802	0.313761
O160	O	1.193491	1.027802	0.813761
O161	O	0.817325	0.527777	0.190183
O162	O	1.317325	1.027777	0.690183
C163	C	0.788926	0.739723	0.218600
C164	C	1.288926	1.239723	0.718600
C165	C	0.755475	0.763195	0.252004
C166	C	1.255475	1.263195	0.752004
C167	C	0.722009	0.739752	0.285402
C168	C	1.222009	1.239752	0.785402
C169	C	0.755486	0.810113	0.252005
C170	C	1.255486	1.310113	0.752005
C171	C	0.788952	0.833556	0.218606
C172	C	1.288952	1.333556	0.718606
C173	C	0.822407	0.810081	0.185206
C174	C	1.322407	1.310081	0.685206
C175	C	0.822392	0.763166	0.185201
C176	C	1.322392	1.263166	0.685201
C177	C	0.688554	0.763227	0.318803
C178	C	1.188554	1.263227	0.818803
C179	C	0.688571	0.810143	0.318805
C180	C	1.188571	1.310143	0.818805
C181	C	0.722037	0.833586	0.285406
C182	C	1.222037	1.333586	0.785406
C183	C	0.891824	0.216531	0.252035
C184	C	1.391824	0.716531	0.752035
C185	C	0.949938	0.216539	0.252051
C186	C	1.449938	0.716539	0.752051
C187	C	0.755468	0.216505	0.388372
C188	C	1.255468	0.716505	0.888372
C189	C	0.755475	0.216502	0.446487
C190	C	1.255475	0.716502	0.946487
C191	C	0.755550	1.099335	0.252031
C192	C	1.255550	1.599335	0.752031
C193	C	0.755542	1.049400	0.252015
C194	C	1.255542	1.549400	0.752015
C195	C	0.755465	0.216488	0.116157
C196	C	1.255465	0.716488	0.616157
C197	C	0.755559	0.216365	0.058043
C198	C	1.255559	0.716365	0.558043
C199	C	0.788987	0.187687	0.806875
C200	C	1.288987	0.687687	1.306875
C201	C	0.788994	0.187675	0.861479
C202	C	1.288994	0.687675	1.361479
O203	O	0.817444	0.163229	0.889737
O204	O	1.317444	0.663229	1.389737
N205	N	0.755533	0.216396	0.888769
N206	N	1.255533	0.716396	1.388769
C207	C	0.722060	0.245129	0.861452
C208	C	1.222060	0.745129	1.361452
O209	O	0.693600	0.269558	0.889679
O210	O	1.193600	0.769558	1.389679
C211	C	0.722051	0.245139	0.806849
C212	C	1.222051	0.745139	1.306849
C213	C	0.755518	0.216419	0.779562
C214	C	1.255518	0.716419	1.279562
C215	C	0.822451	0.158969	0.779587
C216	C	1.322451	0.658969	1.279587
C217	C	0.822445	0.158982	0.724987
C218	C	1.322445	0.658982	1.224987
C219	C	0.788975	0.187714	0.697674
C220	C	1.288975	0.687714	1.197674
C221	C	0.755512	0.216432	0.724961
C222	C	1.255512	0.716432	1.224961
C223	C	0.688576	0.273869	0.779533
C224	C	1.188576	0.773869	1.279533
C225	C	0.688570	0.273876	0.724926
C226	C	1.188570	0.773876	1.224926
C227	C	0.722037	0.245156	0.697639
C228	C	1.222037	0.745156	1.197639
C229	C	0.722037	0.245176	0.643047
C230	C	1.222037	0.745176	1.143047
N231	N	0.755497	0.216455	0.615757
N232	N	1.255497	0.716455	1.115757
C233	C	0.788967	0.187723	0.643070
C234	C	1.288967	0.687723	1.143070
C235	C	0.722080	0.245106	0.976123
C236	C	1.222080	0.745106	1.476123
C237	C	0.722091	0.245099	1.030725
C238	C	1.222091	0.745099	1.530725
C239	C	0.789024	0.187644	1.030748
C240	C	1.289024	0.687644	1.530748
C241	C	0.789016	0.187653	0.976145
C242	C	1.289016	0.687653	1.476145
C243	C	0.755541	0.216384	0.948833
C244	C	1.255541	0.716384	1.448833
C245	C	0.788952	0.187753	0.528405
C246	C	1.288952	0.687753	1.028405
C247	C	0.788945	0.187770	0.473800
C248	C	1.288945	0.687770	0.973800
C249	C	0.722010	0.245224	0.473781
C250	C	1.222010	0.745224	0.973781
C251	C	0.722019	0.245208	0.528382
C252	C	1.222019	0.745208	1.028382
C253	C	0.755492	0.216470	0.555693
C254	C	1.255492	0.716470	1.055693
O255	O	0.693599	0.269609	0.614755
O256	O	1.193599	0.769609	1.114755
O257	O	0.817418	0.163295	0.614837
O258	O	1.317418	0.663295	1.114837
H259	H	0.305265	0.135522	0.158094
H260	H	0.805265	0.635522	0.658094
H261	H	0.661325	0.829250	0.346008
H262	H	1.161325	1.329250	0.846008
H263	H	0.694821	0.268504	0.953889
H264	H	1.194821	0.768504	1.453889
O265	O	0.821466	0.159687	0.949665
O266	O	1.321466	0.659687	1.449665
C267	C	0.810093	0.114910	0.963031
C268	C	1.310093	0.614910	1.463031
H269	H	0.768328	0.112637	0.978030
H270	H	1.268328	0.612637	1.478030
H271	H	0.814616	0.092717	0.927132
H272	H	1.314616	0.592717	1.427132
H273	H	0.838139	0.103169	0.994739
H274	H	1.338139	0.603169	1.494739
H275	H	-0.044973	0.164338	0.191492
H276	H	0.455027	0.664338	0.691492
H277	H	0.661269	0.603386	0.346005
H278	H	1.161269	1.103386	0.846005
H279	H	0.457363	0.268709	0.312540
H280	H	0.957363	0.768709	0.812540
H281	H	0.661324	0.297256	0.801741
H282	H	1.161324	0.797256	1.301741
O283	O	0.821608	0.159778	1.057264
O284	O	1.321608	0.659778	1.557264
C285	C	0.873709	0.169592	1.043931
C286	C	1.373709	0.669592	1.543931
H287	H	0.876318	0.205484	1.028912
H288	H	1.376318	0.705484	1.528912
H289	H	0.899541	0.165719	1.079852
H290	H	1.399541	0.665719	1.579852
H291	H	0.887398	0.145511	1.012249
H292	H	1.387398	0.645511	1.512249
H293	H	0.849654	0.829176	0.158010
H294	H	1.349654	1.329176	0.658010
H295	H	0.849705	0.135570	0.801820
H296	H	1.349705	0.635570	1.301820
H297	H	0.305233	0.297494	0.345932
H298	H	0.805233	0.797494	0.845932
O299	O	0.689318	0.383894	0.317770
O300	O	1.189318	0.883894	0.817770
C301	C	0.637215	0.395408	0.306308
C302	C	1.137215	0.895408	0.806308
H303	H	0.634596	0.408323	0.264538
H304	H	1.134596	0.908323	0.764538
H305	H	0.611378	0.364570	0.310789
H306	H	1.111378	0.864570	0.810789
H307	H	0.623539	0.422642	0.334330
H308	H	1.123539	0.922642	0.834330
H309	H	0.816226	0.959898	0.191405
H310	H	1.316226	1.459898	0.691405
O311	O	0.655991	0.740528	0.351262
O312	O	1.155991	1.240528	0.851262
C313	C	0.626479	0.771313	0.380749
C314	C	1.126479	1.271313	0.880749
H315	H	0.624703	0.804767	0.359332
H316	H	1.124703	1.304767	0.859332
H317	H	0.585274	0.757796	0.386277
H318	H	1.085274	1.257796	0.886277
H319	H	0.645596	0.776271	0.420481
H320	H	1.145596	1.276271	0.920481
H321	H	0.054077	0.164324	0.191486
H322	H	0.554077	0.664324	0.691486
H323	H	0.816199	0.164383	0.451585
H324	H	1.316199	0.664383	0.951585
H325	H	0.556432	0.164298	0.191412
H326	H	1.056432	0.664298	0.691412
H327	H	0.661305	0.297268	0.702691
H328	H	1.161305	0.797268	1.202691
O329	O	0.854889	0.692033	0.152695
O330	O	1.354889	1.192033	0.652695
C331	C	0.884417	0.661246	0.123226
C332	C	1.384417	1.161246	0.623226
H333	H	0.862990	0.627821	0.121401
H334	H	1.362990	1.127821	0.621401
H335	H	0.890023	0.674804	0.082035
H336	H	1.390023	1.174804	0.582035
H337	H	0.924112	0.656217	0.142413
H338	H	1.424112	1.156217	0.642413
H339	H	0.694773	0.268599	0.550601
H340	H	1.194773	0.768599	1.050601
H341	H	0.556413	0.268707	0.312514
H342	H	1.056413	0.768707	0.812514
O343	O	-0.049229	0.273241	0.317923
O344	O	0.450771	0.773241	0.817923
C345	C	-0.035864	0.263480	0.370053
C346	C	0.464136	0.763480	0.870053
H347	H	0.003797	0.246212	0.371171
H348	H	0.503797	0.746212	0.871171
H349	H	-0.034014	0.295931	0.393430
H350	H	0.465986	0.795931	0.893430
H351	H	-0.066568	0.240403	0.387714
H352	H	0.433432	0.740403	0.887714
H353	H	0.849590	0.603311	0.157986
H354	H	1.349590	1.103311	0.657986
O355	O	0.821523	1.048772	0.186248
O356	O	1.321523	1.548772	0.686248
C357	C	0.814362	1.095215	0.193424
C358	C	1.314362	1.595215	0.693424
H359	H	0.797165	1.101607	0.233739
H360	H	1.297165	1.601607	0.733739
H361	H	0.853544	1.113006	0.189982
H362	H	1.353544	1.613006	0.689982
H363	H	0.786588	1.108586	0.162357
H364	H	1.286588	1.608586	0.662357
H365	H	0.694830	1.045065	0.312613
H366	H	1.194830	1.545065	0.812613
H367	H	0.694845	0.268490	1.052938
H368	H	1.194845	0.768490	1.552938
H369	H	0.816207	0.164350	0.550635
H370	H	1.316207	0.664350	1.050635
H371	H	0.694762	0.268617	0.451533
H372	H	1.194762	0.768617	0.951533
H373	H	0.694675	0.472677	0.312584
H374	H	1.194675	0.972677	0.812584
H375	H	0.816096	0.472612	0.191378
H376	H	1.316096	0.972612	0.691378
H377	H	0.206187	0.297497	0.345949
H378	H	0.706187	0.797497	0.845949
O379	O	0.655980	0.692206	0.351186
O380	O	1.155980	1.192206	0.851186
C381	C	0.622239	0.719396	0.321398
C382	C	1.122239	1.219396	0.821398
H383	H	0.619026	0.705281	0.280213
H384	H	1.119026	1.205281	0.780213
H385	H	0.581993	0.719949	0.340274
H386	H	1.081993	1.219949	0.840274
H387	H	0.638413	0.754942	0.319621
H388	H	1.138413	1.254942	0.819621
H389	H	0.849696	0.135594	0.702774
H390	H	1.349696	0.635594	1.202774
H391	H	0.054067	0.268739	0.312592
H392	H	0.554067	0.768739	0.812592
O393	O	0.201911	0.131081	0.152784
O394	O	0.701911	0.631081	0.652784
C395	C	0.170293	0.156622	0.118965
C396	C	0.670293	0.656622	0.618965
H397	H	0.186713	0.192004	0.115682
H398	H	0.686713	0.692004	0.615682
H399	H	0.169693	0.140335	0.078756
H400	H	0.669693	0.640335	0.578756
H401	H	0.128908	0.158179	0.135108
H402	H	0.628908	0.658179	0.635108
H403	H	0.457365	0.164299	0.191426
H404	H	0.957365	0.664299	0.691426
H405	H	0.816059	0.387503	0.191368
H406	H	1.316059	0.887503	0.691368
H407	H	0.694812	0.959956	0.312615
H408	H	1.194812	1.459956	0.812615
H409	H	0.849633	0.744058	0.157998
H410	H	1.349633	1.244058	0.657998
