data_functionalizedCrystal
_audit_creation_method	'MofGen! by Chris Wilmer'
_symmetry_space_group_name_H-M	'P1'
_symmetry_Int_Tables_number	1
_symmetry_cell_setting	triclinic
loop_
_symmetry_equiv_pos_as_xyz
  x,y,z
_cell_length_a	17.639181
_cell_length_b	17.640280
_cell_length_c	12.759393
_cell_angle_alpha	101.231035
_cell_angle_beta	78.798341
_cell_angle_gamma	70.392638
loop_
_atom_site_label
_atom_site_type_symbol
_atom_site_fract_x
_atom_site_fract_y
_atom_site_fract_z
Zn1	Zn	1.326090	-0.582487	0.080677
Zn2	Zn	1.353869	-0.720293	-0.139476
Zn3	Zn	1.188298	-0.554694	-0.050434
Zn4	Zn	1.216136	-0.692413	0.080722
O5	O	1.271098	-0.637472	-0.007128
O6	O	1.445083	-0.624067	0.014191
O7	O	1.331881	-0.698361	-0.274689
O8	O	1.183301	-0.443072	0.004204
O9	O	1.465492	-0.725312	-0.147555
O10	O	1.284536	-0.463492	0.100531
O11	O	1.210237	-0.576696	-0.209270
O12	O	1.076683	-0.549663	0.004247
O13	O	1.230746	-0.677796	0.227740
O14	O	1.097135	-0.650845	0.100607
O15	O	1.311529	-0.597034	0.227707
O16	O	1.358875	-0.831902	-0.147512
O17	O	1.257683	-0.811420	0.014266
C18	C	1.057011	-0.594213	0.062094
C19	C	0.965428	-0.575727	0.091726
C20	C	0.717300	-0.778093	-0.232285
C21	C	0.631241	-0.760711	-0.204428
C22	C	0.610022	-0.655455	-0.035858
C23	C	0.696080	-0.672826	-0.063703
C24	C	0.749713	-0.734146	-0.161917
C25	C	0.728493	-0.628878	0.006665
C26	C	0.814545	-0.646250	-0.021175
C27	C	0.868183	-0.707570	-0.119383
C28	C	0.835764	-0.751518	-0.189757
C29	C	0.674860	-0.567562	0.104883
C30	C	0.707273	-0.523615	0.175251
C31	C	0.793325	-0.540982	0.147407
C32	C	0.846963	-0.602302	0.049199
C33	C	0.825744	-0.497034	0.217781
C34	C	0.911795	-0.514406	0.189941
C35	C	0.933015	-0.619674	0.021358
C36	C	1.314336	-0.851564	-0.076265
C37	C	1.332909	-0.943168	-0.105831
C38	C	1.130342	-1.191215	0.217757
C39	C	1.147795	-1.277292	0.189941
C40	C	1.253232	-1.298568	0.021596
C41	C	1.235790	-1.212492	0.049401
C42	C	1.174344	-1.158822	0.147482
C43	C	1.279792	-1.180099	-0.020874
C44	C	1.262348	-1.094030	0.006926
C45	C	1.200903	-1.040353	0.105001
C46	C	1.156900	-1.072752	0.175282
C47	C	1.341234	-1.233770	-0.118959
C48	C	1.385236	-1.201377	-0.189234
C49	C	1.367796	-1.115307	-0.161431
C50	C	1.306351	-1.061631	-0.063356
C51	C	1.411799	-1.082908	-0.231712
C52	C	1.394355	-0.996839	-0.203912
C53	C	1.288907	-0.975561	-0.035556
C54	C	1.486022	-0.680900	-0.076620
C55	C	1.577609	-0.699406	-0.106233
C56	C	1.271144	-0.637405	0.266911
C57	C	1.271164	-0.637377	0.383690
C58	C	1.227714	-0.422548	0.062295
C59	C	1.209227	-0.330961	0.091879
C60	C	1.271088	-0.637488	-0.280097
C61	C	1.271182	-0.637317	-0.396852
C62	C	1.313229	-0.595316	0.438539
C63	C	1.313236	-0.595284	0.548270
C64	C	1.229110	-0.679378	0.548293
C65	C	1.229099	-0.679405	0.438567
H66	H	0.938249	-0.721706	-0.142056
Cl67	Cl	1.211666	-0.908085	0.087756
H68	H	0.976685	-0.669602	-0.058622
H69	H	0.663594	-0.473690	0.255219
H70	H	1.347489	-0.561032	0.592923
Cl71	Cl	0.758313	-0.419959	0.341255
H72	H	0.566343	-0.605530	0.044111
Cl73	Cl	1.366106	-0.542476	0.369557
H74	H	0.879434	-0.801447	-0.269738
H75	H	1.194865	-0.713599	0.592986
Cl76	Cl	0.590500	-0.815983	-0.292887
Cl77	Cl	1.489038	-1.150388	-0.355014
Cl78	Cl	1.179161	-0.932189	0.140133
Cl79	Cl	1.330478	-1.366047	-0.101699
H80	H	0.760970	-0.828022	-0.312266
H81	H	1.355437	-1.303853	-0.141588
H82	H	0.604792	-0.553422	0.127550
H83	H	1.430186	-0.970465	-0.261139
H84	H	0.938185	-0.478618	0.247239
Cl85	Cl	1.079659	-1.005276	0.298594
Cl86	Cl	1.176206	-0.732280	0.369613
H87	H	1.080312	-1.147515	0.297631
Cl88	Cl	1.092462	-1.318009	0.278290
H89	H	1.435263	-1.245086	-0.269094
