data_functionalizedCrystal
_audit_creation_method	'MofGen! by Chris Wilmer'
_symmetry_space_group_name_H-M	'P1'
_symmetry_Int_Tables_number	1
_symmetry_cell_setting	triclinic
loop_
_symmetry_equiv_pos_as_xyz
  x,y,z
_cell_length_a	14.044220
_cell_length_b	14.044191
_cell_length_c	11.804917
_cell_angle_alpha	102.941295
_cell_angle_beta	102.929865
_cell_angle_gamma	86.809673
loop_
_atom_site_label
_atom_site_type_symbol
_atom_site_fract_x
_atom_site_fract_y
_atom_site_fract_z
O1	O	0.247824	-1.259520	0.098969
O2	O	0.747824	-0.759520	0.598969
O3	O	0.239514	-0.982845	0.098984
O4	O	0.739514	-0.482845	0.598984
O5	O	0.105331	-1.117032	0.098965
O6	O	0.605331	-0.617032	0.598965
O7	O	0.382007	-1.125333	0.098988
O8	O	0.882007	-0.625333	0.598988
O9	O	0.070059	-1.152342	-0.099078
O10	O	0.570059	-0.652342	0.400922
O11	O	0.204242	-1.018155	-0.099059
O12	O	0.704242	-0.518155	0.400941
O13	O	0.212552	-1.294830	-0.099074
O14	O	0.712552	-0.794830	0.400926
Cu15	Cu	0.205176	-1.159717	-0.117149
Cu16	Cu	0.705176	-0.659717	0.382851
Cu17	Cu	0.246889	-1.117958	0.117059
Cu18	Cu	0.746889	-0.617958	0.617059
O19	O	0.346735	-1.160644	-0.099055
O20	O	0.846735	-0.660644	0.400945
C21	C	0.052073	-1.131051	-0.000057
C22	C	0.552073	-0.631051	0.499943
C23	C	-0.054070	-1.120207	-0.000058
C24	C	0.445930	-0.620207	0.499942
C25	C	0.218241	-0.964878	-0.000036
C26	C	0.718241	-0.464878	0.499964
C27	C	0.207395	-0.858734	-0.000030
C28	C	0.707395	-0.358734	0.499970
C29	C	0.233824	-1.312797	-0.000051
C30	C	0.733824	-0.812797	0.499949
C31	C	0.244672	-1.418940	-0.000049
C32	C	0.744672	-0.918940	0.499951
C33	C	-0.248405	-1.100377	-0.000039
C34	C	0.251595	-0.600377	0.499961
C35	C	-0.299533	-1.177292	-0.000040
C36	C	0.200467	-0.677292	0.499960
C37	C	-0.407668	-1.166259	-0.000030
C38	C	0.092332	-0.666259	0.499970
C39	C	-0.140261	-1.111409	-0.000050
C40	C	0.359739	-0.611409	0.499950
C41	C	0.399993	-1.146624	-0.000030
C42	C	0.899993	-0.646624	0.499970
C43	C	0.506138	-1.157467	-0.000022
C44	C	1.006138	-0.657467	0.499978
C45	C	0.264494	-0.613277	-0.000037
C46	C	0.764494	-0.113277	0.499963
C47	C	0.187577	-0.664403	-0.000042
C48	C	0.687577	-0.164403	0.499958
C49	C	0.198607	-0.772539	-0.000035
C50	C	0.698607	-0.272539	0.499965
C51	C	0.253466	-0.505131	-0.000044
C52	C	0.753466	-0.005131	0.499956
N53	N	0.175837	-1.189095	-0.281879
N54	N	0.675837	-0.689095	0.218121
C55	C	0.105337	-1.259643	-0.344198
C56	C	0.605337	-0.759643	0.155802
C57	C	0.083111	-1.281867	-0.468852
C58	C	0.583111	-0.781867	0.031148
C59	C	0.131387	-1.233549	-0.531198
C60	C	0.631387	-0.733549	-0.031198
C61	C	0.201893	-1.163004	-0.468878
C62	C	0.701893	-0.663004	0.031122
C63	C	0.224116	-1.140773	-0.344212
C64	C	0.724116	-0.640773	0.155788
C65	C	0.250166	-1.114679	-0.531212
C66	C	0.750166	-0.614679	-0.031212
C67	C	0.320672	-1.044133	-0.468892
C68	C	0.820672	-0.544133	0.031108
C69	C	0.342892	-1.021906	-0.344239
C70	C	0.842892	-0.521906	0.155761
C71	C	0.294616	-1.070224	-0.281893
C72	C	0.794616	-0.570224	0.218107
C73	C	0.227942	-1.136910	-0.655877
C74	C	0.727942	-0.636910	-0.155877
C75	C	0.346721	-1.018039	-0.655891
C76	C	0.846721	-0.518039	-0.155891
C77	C	0.368948	-0.995816	-0.531238
C78	C	0.868948	-0.495816	-0.031238
N79	N	0.276221	-1.088588	0.281789
N80	N	0.776221	-0.588588	0.781789
H81	H	-0.262079	-1.251412	0.000036
H82	H	0.237921	-0.751412	0.500036
O83	O	-0.297990	-1.002183	-0.000053
O84	O	0.202010	-0.502183	0.499947
H85	H	-0.376376	-1.008822	-0.000063
H86	H	0.123624	-0.508822	0.499937
H87	H	0.113459	-0.626946	0.000036
H88	H	0.613459	-0.126946	0.500036
O89	O	0.362693	-0.662859	-0.000021
O90	O	0.862693	-0.162859	0.499979
H91	H	0.385751	-0.693707	0.080708
H92	H	0.885751	-0.193707	0.580708
H93	H	0.025705	-1.339303	-0.519588
H94	H	0.525705	-0.839303	-0.019588
H95	H	0.312715	-1.052133	-0.180390
H96	H	0.812715	-0.552133	0.319610
O97	O	0.107431	-1.257525	-0.665646
O98	O	0.607431	-0.757525	-0.165646
H99	H	0.050303	-1.314705	-0.698507
H100	H	0.550303	-0.814705	-0.198507
H101	H	0.400294	-0.964457	-0.293498
H102	H	0.900294	-0.464457	0.206502
H103	H	0.426355	-0.938376	-0.480482
H104	H	0.926355	-0.438376	0.019518
H105	H	0.170536	-1.194347	-0.706607
H106	H	0.670536	-0.694347	-0.206607
H107	H	0.066032	-1.298972	-0.293428
H108	H	0.566032	-0.798972	0.206572
H109	H	0.386030	-0.978692	-0.706652
H110	H	0.886030	-0.478692	-0.206652
