data_functionalizedCrystal
_audit_creation_method	'MofGen! by Chris Wilmer'
_symmetry_space_group_name_H-M	'P1'
_symmetry_Int_Tables_number	1
_symmetry_cell_setting	triclinic
loop_
_symmetry_equiv_pos_as_xyz
  x,y,z
_cell_length_a	14.853569
_cell_length_b	13.930277
_cell_length_c	16.109301
_cell_angle_alpha	90.005979
_cell_angle_beta	96.451349
_cell_angle_gamma	89.995143
loop_
_atom_site_label
_atom_site_type_symbol
_atom_site_fract_x
_atom_site_fract_y
_atom_site_fract_z
O1	O	-1.196188	0.079781	0.108556
O2	O	-0.933707	0.079795	0.121484
O3	O	-1.072158	0.079778	-0.006001
O4	O	-1.057737	0.079799	0.236041
O5	O	-1.072139	-0.079884	-0.006004
O6	O	-0.933688	-0.079867	0.121481
O7	O	-1.196169	-0.079880	0.108553
Zn8	Zn	-1.064925	-0.105223	0.115017
Zn9	Zn	-1.064951	0.105138	0.115020
O10	O	-1.057718	-0.079863	0.236038
C11	C	-0.900110	-0.000034	0.120897
C12	C	-0.800029	-0.000029	0.119140
N13	N	-1.064915	-0.248789	0.115014
C14	C	-0.763779	-0.000032	0.042587
C15	C	-0.742240	-0.000030	0.194043
C16	C	-0.648208	-0.000030	0.192396
C17	C	-0.611958	-0.000033	0.115843
C18	C	-0.669739	-0.000035	0.040937
C19	C	-0.590420	-0.000038	0.267300
C20	C	-0.496382	-0.000040	0.265655
C21	C	-0.460131	-0.000035	0.189101
C22	C	-0.517918	-0.000036	0.114192
C23	C	-0.481668	-0.000039	0.037639
C24	C	-0.539454	-0.000033	-0.037270
C25	C	-0.633488	-0.000031	-0.035617
C26	C	-0.366097	-0.000038	0.187448
C27	C	-0.387628	-0.000043	0.035989
C28	C	-1.003642	-0.701051	0.171449
C29	C	-1.126284	-0.701036	0.058586
C30	C	-1.126273	-0.600540	0.058583
C31	C	-1.064947	-0.550295	0.115015
C32	C	-1.003631	-0.600546	0.171449
C33	C	-1.187594	-0.550281	0.002155
C34	C	-1.187586	-0.449779	0.002151
C35	C	-1.126255	-0.399533	0.058579
C36	C	-1.064936	-0.449790	0.115016
C37	C	-1.003610	-0.399545	0.171447
C38	C	-0.942286	-0.449801	0.227880
C39	C	-0.942300	-0.550299	0.227878
C40	C	-1.126241	-0.299034	0.058582
C41	C	-1.003599	-0.299040	0.171448
C42	C	-0.229766	-0.000047	0.109140
C43	C	-0.329847	-0.000040	0.110895
C44	C	-1.071564	-0.000053	-0.036978
C45	C	-1.069813	-0.000054	-0.129276
N46	N	-1.064968	0.248704	0.115017
C47	C	-1.147895	-0.000043	-0.351438
C48	C	-1.146242	-0.000035	-0.438161
C49	C	-0.981975	-0.000030	-0.418518
C50	C	-0.983628	-0.000032	-0.331797
C51	C	-1.066591	-0.000043	-0.298260
C52	C	-1.063285	-0.000034	-0.471703
C53	C	-1.061492	-0.000025	-0.565732
C54	C	-1.068384	-0.000050	-0.204225
C55	C	-1.058312	-0.000030	0.267015
C56	C	-1.060063	-0.000022	0.359313
H57	H	-0.358121	-0.000040	-0.026350
Cl58	Cl	-1.203382	-0.764198	-0.012349
Cl59	Cl	-0.635996	-0.000030	0.363531
Cl60	Cl	-0.706137	-0.000035	-0.129779
Cl61	Cl	-0.423746	-0.000039	0.359825
Cl62	Cl	-1.264692	-0.613443	-0.068780
Cl63	Cl	-0.836420	-0.000023	-0.051580
H64	H	-0.771760	-0.000034	0.256370
H65	H	-0.319052	-0.000051	0.248438
Cl66	Cl	-1.252190	-0.000055	-0.309279
Cl67	Cl	-1.248458	-0.000034	-0.505010
H68	H	-0.953656	-0.258137	0.217399
Cl69	Cl	-0.865217	-0.613479	0.298819
Cl70	Cl	-0.865199	-0.386625	0.298826
H71	H	-0.914430	-0.000023	-0.445835
H72	H	-0.917417	-0.000028	-0.288497
Cl73	Cl	-0.926550	-0.764224	0.242387
H74	H	-0.509927	-0.000030	-0.099600
H75	H	-1.237518	-0.408868	-0.043800
Cl76	Cl	-1.203333	-0.235863	-0.012352
