data_functionalizedCrystal
_audit_creation_method	'MofGen! by Chris Wilmer'
_symmetry_space_group_name_H-M	'P1'
_symmetry_Int_Tables_number	1
_symmetry_cell_setting	triclinic
loop_
_symmetry_equiv_pos_as_xyz
  x,y,z
_cell_length_a	17.639762
_cell_length_b	17.640280
_cell_length_c	17.640968
_cell_angle_alpha	114.317439
_cell_angle_beta	87.859627
_cell_angle_gamma	92.188400
loop_
_atom_site_label
_atom_site_type_symbol
_atom_site_fract_x
_atom_site_fract_y
_atom_site_fract_z
Zn1	Zn	1.251387	-0.022973	0.189711
Zn2	Zn	1.751387	0.477027	0.689711
Zn3	Zn	1.251326	-0.188652	0.024082
Zn4	Zn	1.751326	0.311348	0.524082
Zn5	Zn	1.106822	-0.075222	0.076170
Zn6	Zn	1.606822	0.424778	0.576170
Zn7	Zn	1.148425	-0.178090	0.179129
Zn8	Zn	1.648425	0.321910	0.679129
O9	O	1.189490	-0.116234	0.117273
O10	O	1.689490	0.383766	0.617273
O11	O	1.354945	-0.027505	0.150369
O12	O	1.854945	0.472495	0.650369
O13	O	1.214721	-0.199892	-0.081413
O14	O	1.714721	0.300108	0.418587
O15	O	1.108613	0.044096	0.117460
O16	O	1.608613	0.544096	0.617460
O17	O	1.354900	-0.149229	0.028683
O18	O	1.854900	0.350771	0.528683
O19	O	1.214824	0.082483	0.200877
O20	O	1.714824	0.582483	0.700877
O21	O	1.108554	-0.116556	-0.043144
O22	O	1.608554	0.383444	0.456856
O23	O	1.008774	-0.106314	0.107199
O24	O	1.508774	0.393686	0.607199
O25	O	1.179519	-0.131227	0.292937
O26	O	1.679519	0.368773	0.792937
O27	O	1.039340	-0.181890	0.182842
O28	O	1.539340	0.318110	0.682842
O29	O	1.255165	-0.017263	0.300711
O30	O	1.755165	0.482737	0.800711
O31	O	1.255062	-0.299639	0.018422
O32	O	1.755062	0.200361	0.518422
O33	O	1.179460	-0.291879	0.132334
O34	O	1.679460	0.208121	0.632334
C35	C	0.997204	-0.148626	0.149524
C36	C	1.497204	0.351374	0.649524
C37	C	0.914949	-0.162498	0.163336
C38	C	1.414949	0.337502	0.663336
C39	C	0.814947	-0.221489	0.222082
C40	C	1.314947	0.278511	0.722082
C41	C	0.892236	-0.208450	0.209099
C42	C	1.392236	0.291550	0.709099
C43	C	0.860376	-0.129563	0.130542
C44	C	1.360376	0.370437	0.630542
C45	C	0.783083	-0.142593	0.143522
C46	C	1.283083	0.357407	0.643522
C47	C	0.760375	-0.188557	0.189292
C48	C	1.260375	0.311443	0.689292
C49	C	0.728511	-0.109660	0.110732
C50	C	1.228511	0.390340	0.610732
C51	C	0.651224	-0.122692	0.123708
C52	C	1.151224	0.377308	0.623708
C53	C	0.628510	-0.168657	0.169473
C54	C	1.128510	0.331343	0.669473
C55	C	0.683088	-0.201589	0.202268
C56	C	1.183088	0.298411	0.702268
C57	C	0.751220	-0.063701	0.064957
C58	C	1.251220	0.436299	0.564957
C59	C	0.696648	-0.030769	0.032167
C60	C	1.196648	0.469231	0.532167
C61	C	0.619360	-0.043796	0.045148
C62	C	1.119360	0.456204	0.545148
C63	C	0.596646	-0.089760	0.090913
C64	C	1.096646	0.410240	0.590913
C65	C	0.564782	-0.010864	0.012353
C66	C	1.064782	0.489136	0.512353
C67	C	0.487495	-0.023896	0.025329
C68	C	0.987495	0.476104	0.525329
C69	C	0.519359	-0.102792	0.103889
C70	C	1.019359	0.397208	0.603889
C71	C	1.221792	-0.324892	0.068591
C72	C	1.721792	0.175108	0.568591
C73	C	1.235683	-0.414139	0.047780
C74	C	1.735683	0.085861	0.547780
C75	C	1.084312	-0.687701	0.275611
C76	C	1.584312	-0.187701	0.775611
C77	C	1.097362	-0.771568	0.256030
C78	C	1.597362	-0.271568	0.756030
C79	C	1.176160	-0.779549	0.137508
C80	C	1.676160	-0.279549	0.637508
C81	C	1.163120	-0.695680	0.157081
C82	C	1.663120	-0.195680	0.657081
C83	C	1.117194	-0.649763	0.226133
C84	C	1.617194	-0.149763	0.726133
C85	C	1.196003	-0.657742	0.107603
C86	C	1.696003	-0.157742	0.607603
C87	C	1.182960	-0.573881	0.127172
C88	C	1.682960	-0.073881	0.627172
C89	C	1.137035	-0.527959	0.196220
C90	C	1.637035	-0.027959	0.696220
C91	C	1.104152	-0.565902	0.245702
C92	C	1.604152	-0.065902	0.745702
C93	C	1.241924	-0.703662	0.038548
C94	C	1.741924	-0.203662	0.538548
C95	C	1.274806	-0.665724	-0.010930
C96	C	1.774806	-0.165724	0.489070
C97	C	1.261768	-0.581860	0.008642
C98	C	1.761768	-0.081860	0.508642
C99	C	1.215843	-0.535938	0.077689
C100	C	1.715843	-0.035938	0.577689
C101	C	1.294651	-0.543917	-0.040841
C102	C	1.794651	-0.043917	0.459159
C103	C	1.281608	-0.460056	-0.021272
C104	C	1.781608	0.039944	0.478728
C105	C	1.202800	-0.452077	0.097259
C106	C	1.702800	0.047923	0.597259
C107	C	1.382527	-0.083717	0.084896
C108	C	1.882527	0.416283	0.584896
C109	C	1.464787	-0.069860	0.071099
C110	C	1.964787	0.430140	0.571099
C111	C	1.221990	-0.067239	0.326784
C112	C	1.721990	0.432761	0.826784
C113	C	1.235839	-0.046359	0.416066
C114	C	1.735839	0.453641	0.916066
C115	C	1.157085	0.093246	0.166159
C116	C	1.657085	0.593246	0.666159
C117	C	1.143275	0.182513	0.186991
C118	C	1.643275	0.682513	0.686991
C119	C	1.157150	-0.164975	-0.091417
C120	C	1.657150	0.335025	0.408583
C121	C	1.143409	-0.185603	-0.180669
C122	C	1.643409	0.314397	0.319331
C123	C	1.084493	-0.274366	0.689455
C124	C	1.584493	0.225634	1.189455
C125	C	1.097521	-0.254734	0.773348
C126	C	1.597521	0.245266	1.273348
C127	C	1.176284	-0.136074	0.781433
C128	C	1.676284	0.363926	1.281433
C129	C	1.163260	-0.155694	0.697540
C130	C	1.663260	0.344306	1.197540
C131	C	1.117365	-0.224841	0.651557
C132	C	1.617365	0.275159	1.151557
C133	C	1.196132	-0.106169	0.659642
C134	C	1.696132	0.393831	1.159642
C135	C	1.183112	-0.125790	0.575755
C136	C	1.683112	0.374210	1.075755
C137	C	1.137220	-0.194936	0.529766
C138	C	1.637220	0.305064	1.029766
C139	C	1.104345	-0.244462	0.567670
C140	C	1.604345	0.255538	1.067670
C141	C	1.242032	-0.037025	0.705624
C142	C	1.742032	0.462975	1.205624
C143	C	1.274903	0.012500	0.667726
C144	C	1.774903	0.512500	1.167726
C145	C	1.261879	-0.007118	0.583839
C146	C	1.761879	0.492882	1.083839
C147	C	1.215987	-0.076263	0.537851
C148	C	1.715987	0.423737	1.037851
C149	C	1.294754	0.042409	0.545935
C150	C	1.794754	0.542409	1.045935
C151	C	1.281734	0.022788	0.462048
C152	C	1.781734	0.522788	0.962048
C153	C	1.202967	-0.095884	0.453964
C154	C	1.702967	0.404116	0.953964
H155	H	0.878876	-0.092142	0.093274
H156	H	1.378876	0.407858	0.593274
C157	C	1.033780	-0.637191	0.351563
C158	C	1.533780	-0.137191	0.851563
N159	N	0.995714	-0.599150	0.408762
N160	N	1.495714	-0.099150	0.908762
C161	C	0.789964	-0.272043	0.272441
C162	C	1.289964	0.227957	0.772441
N163	N	0.771147	-0.310119	0.310369
N164	N	1.271147	0.189881	0.810369
H165	H	1.070592	-0.802450	0.296335
H166	H	1.570592	-0.302450	0.796335
H167	H	1.126410	-0.459677	0.212147
H168	H	1.626410	0.040323	0.712147
H169	H	1.252544	-0.771945	0.022618
H170	H	1.752544	-0.271945	0.522618
C171	C	0.589772	0.039698	-0.037990
C172	C	1.089772	0.539698	0.462010
N173	N	0.608595	0.077784	-0.075905
N174	N	1.108595	0.577784	0.424095
H175	H	1.312196	-0.703122	-0.067155
H176	H	1.812196	-0.203122	0.432845
H177	H	0.715149	0.006652	-0.005101
H178	H	1.215149	0.506652	0.494899
H179	H	0.664599	-0.239008	0.239548
H180	H	1.164599	0.260992	0.739548
H181	H	1.213655	-0.079776	0.818882
H182	H	1.713655	0.420224	1.318882
C183	C	1.345158	-0.594440	-0.116803
C184	C	1.845158	-0.094440	0.383197
N185	N	1.383200	-0.632495	-0.174020
N186	N	1.883200	-0.132495	0.325980
H187	H	0.500870	-0.140211	0.141169
H188	H	1.000870	0.359789	0.641169
H189	H	1.066951	-0.300753	0.530236
H190	H	1.566951	0.199247	1.030236
C191	C	1.053619	-0.515392	0.321654
C192	C	1.553619	-0.015392	0.821654
N193	N	1.015553	-0.477351	0.378854
N194	N	1.515553	0.022649	0.878854
C195	C	1.034005	-0.350431	0.638870
C196	C	1.534005	0.149569	1.138870
N197	N	0.995981	-0.407723	0.600768
N198	N	1.495981	0.092277	1.100768
C199	C	1.226674	-0.830068	0.061550
C200	C	1.726674	-0.330068	0.561550
N201	N	1.264722	-0.868119	0.004338
N202	N	1.764722	-0.368119	0.504338
C203	C	0.427463	0.012333	-0.010740
C204	C	0.927463	0.512333	0.489260
N205	N	0.382246	0.039620	-0.037910
N206	N	0.882246	0.539620	0.462090
H207	H	1.165409	-0.414687	0.153493
H208	H	1.665409	0.085313	0.653493
C209	C	0.543491	-0.182991	0.183748
C210	C	1.043491	0.317009	0.683748
N211	N	0.479456	-0.193786	0.194501
N212	N	0.979456	0.306214	0.694501
C213	C	1.317788	-0.418319	-0.075695
C214	C	1.817788	0.081681	0.424305
N215	N	1.345040	-0.386883	-0.116687
N216	N	1.845040	0.113117	0.383313
C217	C	1.152479	-0.171950	0.403378
C218	C	1.652479	0.328050	0.903378
N219	N	1.114455	-0.229241	0.365276
N220	N	1.614455	0.270759	0.865276
H221	H	1.126624	-0.210912	0.461459
H222	H	1.626624	0.289088	0.961459
C223	C	1.325379	0.088566	0.718319
C224	C	1.825379	0.588566	1.218319
N225	N	1.363394	0.145863	0.756427
N226	N	1.863394	0.645863	1.256427
H227	H	1.070750	-0.295069	0.804201
H228	H	1.570750	0.204931	1.304201
C229	C	1.256351	-0.015443	0.797903
C230	C	1.756351	0.484557	1.297903
N231	N	1.267135	0.000814	0.867409
N232	N	1.767135	0.500814	1.367409
C233	C	1.345237	0.118469	0.596527
C234	C	1.845237	0.618469	1.096527
N235	N	1.383258	0.175761	0.634634
N236	N	1.883258	0.675761	1.134634
H237	H	0.814153	-0.053094	0.054393
H238	H	1.314153	0.446906	0.554393
H239	H	0.936668	-0.235269	0.235806
H240	H	1.436668	0.264731	0.735806
C241	C	1.317893	0.077269	0.420359
C242	C	1.817893	0.577269	0.920359
N243	N	1.345131	0.118305	0.388957
N244	N	1.845131	0.618305	0.888957
