data_functionalizedCrystal
_audit_creation_method	'MofGen! by Chris Wilmer'
_symmetry_space_group_name_H-M	'P1'
_symmetry_Int_Tables_number	1
_symmetry_cell_setting	triclinic
loop_
_symmetry_equiv_pos_as_xyz
  x,y,z
_cell_length_a	19.378817
_cell_length_b	19.377372
_cell_length_c	19.377372
_cell_angle_alpha	93.588494
_cell_angle_beta	135.779554
_cell_angle_gamma	117.567488
loop_
_atom_site_label
_atom_site_type_symbol
_atom_site_fract_x
_atom_site_fract_y
_atom_site_fract_z
Zr1	Zr	-1.435598	0.173290	-0.606378
O2	O	-1.635973	0.007725	-0.771867
O3	O	-1.235224	0.259932	-0.519812
O4	O	-1.508844	0.162087	-0.766261
O5	O	-1.304575	0.141928	-0.371777
O6	O	-1.566621	0.243027	-0.802601
O7	O	-1.362353	0.105570	-0.525418
O8	O	-1.077165	0.418053	-0.361749
O9	O	-1.794031	-0.033098	-0.812630
O10	O	-1.360759	0.313929	-0.553307
O11	O	-1.274521	0.280659	-0.411526
O12	O	-1.596674	0.165459	-0.701688
O13	O	-1.510436	0.132188	-0.559907
Zr14	Zr	-1.435596	0.360367	-0.419296
Zr15	Zr	-1.527745	0.302379	-0.664336
Zr16	Zr	-1.343449	0.231277	-0.361338
Zr17	Zr	-1.687682	0.108181	-0.671389
Zr18	Zr	-1.183511	0.425475	-0.354285
O19	O	-1.635970	0.273724	-0.505862
O20	O	-1.766994	0.191274	-0.854276
O21	O	-1.504948	0.090176	-0.423453
O22	O	-1.235221	0.525931	-0.253806
O23	O	-1.366245	0.443480	-0.602221
O24	O	-1.104200	0.342382	-0.171397
O25	O	-1.566619	0.391728	-0.653896
O26	O	-1.362350	0.371569	-0.259413
O27	O	-1.304573	0.290630	-0.223073
O28	O	-1.508841	0.428086	-0.500255
O29	O	-1.867276	0.069511	-0.858699
O30	O	-1.003918	0.464146	-0.166975
O31	O	-1.077163	0.566754	-0.213044
O32	O	-1.150409	0.520662	-0.407818
O33	O	-1.720785	0.012994	-0.617856
O34	O	-1.794029	0.115603	-0.663925
O35	O	-1.274520	0.368197	-0.323986
O36	O	-1.360757	0.401468	-0.465766
O37	O	-1.596672	0.252997	-0.614148
O38	O	-1.510435	0.219727	-0.472367
C39	C	-1.120278	0.348269	-0.431518
C40	C	-1.013261	0.375910	-0.403919
C41	C	-1.096084	0.031516	-0.748079
C42	C	-0.995409	0.057561	-0.722009
C43	C	-0.821381	0.231747	-0.547887
C44	C	-0.922040	0.205715	-0.573939
C45	C	-1.059388	0.105598	-0.674037
C46	C	-0.885344	0.279798	-0.499897
C47	C	-0.985998	0.253768	-0.525951
C48	C	-1.123347	0.153657	-0.626046
C49	C	-1.160041	0.079569	-0.700091
C50	C	-0.748000	0.379915	-0.399805
C51	C	-0.711304	0.453998	-0.325763
C52	C	-0.811954	0.427968	-0.351811
C53	C	-0.949304	0.327856	-0.451906
C54	C	-0.775260	0.502055	-0.277766
C55	C	-0.875914	0.476026	-0.303820
C56	C	-1.049957	0.301827	-0.477960
C57	C	-1.320335	0.105357	-0.440340
C58	C	-1.281216	0.050555	-0.415735
C59	C	-0.750954	0.185365	-0.594201
C60	C	-0.858084	0.157657	-0.621935
C61	C	-1.768273	-0.517174	-0.722080
C62	C	-1.731482	-0.568648	-0.698938
C63	C	-1.485205	-0.413647	-0.544039
C64	C	-1.521974	-0.362157	-0.567163
C65	C	-1.663511	-0.413929	-0.656186
C66	C	-1.417211	-0.258912	-0.501270
C67	C	-1.453979	-0.207429	-0.524397
C68	C	-1.595510	-0.259191	-0.613418
C69	C	-1.700279	-0.362445	-0.679313
C70	C	-1.275678	-0.207144	-0.412254
C71	C	-1.170915	-0.103899	-0.346360
C72	C	-1.207680	-0.052412	-0.369481
C73	C	-1.349211	-0.104174	-0.458502
C74	C	-1.102911	0.050843	-0.303585
C75	C	-1.139679	0.102326	-0.326713
C76	C	-1.385979	-0.052691	-0.481629
C77	C	-1.550862	0.194295	-0.819344
C78	C	-1.589981	0.169678	-0.923370
C79	C	-1.550859	0.428299	-0.585334
C80	C	-1.589978	0.483101	-0.609938
C81	C	-1.102919	0.476190	-0.878231
C82	C	-1.139708	0.453035	-0.975998
C83	C	-1.385985	0.298044	-1.130888
C84	C	-1.349218	0.321188	-1.033133
C85	C	-1.207682	0.410262	-0.906809
C86	C	-1.453982	0.255260	-1.061711
C87	C	-1.417215	0.278400	-0.963963
C88	C	-1.275685	0.367468	-0.837638
C89	C	-1.170916	0.433402	-0.809061
C90	C	-1.595515	0.166182	-1.188034
C91	C	-1.700278	0.100254	-1.216612
C92	C	-1.663515	0.123397	-1.118865
C93	C	-1.521985	0.212466	-0.992540
C94	C	-1.768284	0.057463	-1.147442
C95	C	-1.731517	0.080603	-1.049694
C96	C	-1.485218	0.235606	-0.894792
C97	C	-1.320332	0.339361	-0.206330
C98	C	-1.281212	0.363979	-0.102304
C99	C	-1.235540	0.509740	-0.504014
C100	C	-1.167642	0.592183	-0.501020
C101	C	-1.005013	0.420803	-0.125010
C102	C	-0.858877	0.473060	0.006614
C103	C	-1.120275	0.582274	-0.197507
C104	C	-1.013258	0.689333	-0.090487
C105	C	-1.750919	-0.048618	-0.828166
C106	C	-1.857936	-0.155677	-0.935186
C107	C	-1.635654	0.023916	-0.521659
C108	C	-1.703552	-0.058526	-0.524654
C109	C	-1.866181	0.112854	-0.900663
C110	C	-2.012317	0.060596	-1.032288
C111	C	-1.135761	0.585202	-0.545319
C112	C	-1.071983	0.662651	-0.542530
C113	C	-1.040078	0.747084	-0.495433
C114	C	-1.071967	0.754061	-0.451134
C115	C	-1.135754	0.676609	-0.453932
C116	C	-0.790245	0.543297	0.114132
C117	C	-0.652944	0.592395	0.237814
C118	C	-0.584272	0.571260	0.253976
C119	C	-0.652915	0.501013	0.146446
C120	C	-0.790218	0.451912	0.022766
C121	C	-1.735447	-0.051551	-0.480367
C122	C	-1.799263	-0.129014	-0.483191
C123	C	-1.831173	-0.213448	-0.530292
C124	C	-1.799277	-0.220423	-0.574586
C125	C	-1.735472	-0.142964	-0.571770
C126	C	-2.080948	0.081755	-1.048408
C127	C	-2.218250	0.032671	-1.172075
C128	C	-2.286923	-0.037577	-1.279622
C129	C	-2.218281	-0.058733	-1.263497
C130	C	-2.080977	-0.009644	-1.139831
C131	C	-0.903572	0.733869	0.049469
C132	C	-0.784295	0.827305	0.095135
C133	C	-0.941746	0.786687	0.054556
C134	C	-0.895326	0.781376	-0.046214
C135	C	-1.052847	0.740732	-0.086806
C136	C	-0.933614	0.834158	-0.041220
H137	H	-0.663427	0.583572	-0.196275
F138	F	-0.965968	0.791010	0.111645
H139	H	-1.045981	0.822816	-0.412789
H140	H	-0.988138	0.810143	-0.493160
H141	H	-1.825268	-0.289180	-0.612935
F142	F	-0.640881	0.407618	-0.372086
F143	F	-1.701502	0.038301	-0.430236
F144	F	-1.169667	0.684056	-0.406770
F145	F	-1.038050	0.655208	-0.589677
F146	F	-1.833192	-0.121569	-0.436040
F147	F	-1.028193	0.523212	-0.945570
F148	F	-1.034483	-0.021294	-0.800828
F149	F	-1.020288	-0.048812	-0.251622
F150	F	-0.634519	0.876533	0.197039
F151	F	-0.863304	0.565810	0.096960
H152	H	-0.597073	0.649591	0.325355
F153	F	-2.007956	-0.032181	-1.122694
F154	F	-1.899079	-0.295879	-0.533279
F155	F	-1.236551	0.392092	-0.733603
H156	H	-2.274121	0.049907	-1.185180
H157	H	-1.501222	0.225518	-1.233750
H158	H	-1.054364	0.186401	-0.273036
F159	F	-1.701523	-0.150399	-0.618900
F160	F	-2.433057	-0.089817	-1.411233
H161	H	-1.161746	0.516454	-0.583688
F162	F	-0.836862	0.554874	-0.225022
F163	F	-2.007885	0.156515	-0.933964
F164	F	-2.291393	-0.133506	-1.377971
F165	F	-0.675203	0.338295	-0.441361
H166	H	-0.876583	0.778199	-0.089720
F167	F	-0.888225	0.677120	0.098224
F168	F	-0.565126	0.560546	-0.219236
F169	F	-0.438139	0.623527	0.385616
H170	H	-1.369967	0.308142	-0.791929
H171	H	-0.596981	0.483813	0.159625
F172	F	-0.949082	0.890730	-0.090238
H173	H	-1.245749	-0.249072	-0.393435
H174	H	-0.987677	0.092981	-0.231113
F175	F	-0.863243	0.377164	-0.091655
F176	F	-1.202635	0.691465	-0.188705
H177	H	-1.161780	0.220295	-0.559441
H178	H	-1.625445	-0.217267	-0.632249
F179	F	-1.230477	0.125956	-0.653782
H180	H	-1.271864	-0.001963	-0.781572
H181	H	-1.207907	-0.050016	-0.829559
F182	F	-1.020289	0.528223	-0.674618
H183	H	-1.815520	-0.404596	-0.751771
F184	F	-1.536615	-0.107786	-0.576365
H185	H	-1.883514	-0.559325	-0.794537
H186	H	-1.816804	-0.652723	-0.752606
H187	H	-1.815515	0.027729	-1.319475
F188	F	-0.952292	0.571011	-0.743788
F189	F	-1.634641	0.141555	-1.292065
F190	F	-1.334578	-0.358560	-0.449301
H191	H	-1.883518	-0.015065	-1.250303
H192	H	-1.816825	0.026916	-1.072967
