data_functionalizedCrystal
_audit_creation_method	'MofGen! by Chris Wilmer'
_symmetry_space_group_name_H-M	'P1'
_symmetry_Int_Tables_number	1
_symmetry_cell_setting	triclinic
loop_
_symmetry_equiv_pos_as_xyz
  x,y,z
_cell_length_a	16.625548
_cell_length_b	16.625539
_cell_length_c	18.215405
_cell_angle_alpha	89.970092
_cell_angle_beta	90.025953
_cell_angle_gamma	89.982945
loop_
_atom_site_label
_atom_site_type_symbol
_atom_site_fract_x
_atom_site_fract_y
_atom_site_fract_z
Zn1	Zn	1.232639	-0.455890	-0.292976
Zn2	Zn	1.732639	0.044110	0.207024
Zn3	Zn	1.232545	-0.321049	-0.416045
Zn4	Zn	1.732545	0.178951	0.083955
Zn5	Zn	1.097809	-0.321070	-0.293000
Zn6	Zn	1.597809	0.178930	0.207000
Zn7	Zn	1.097766	-0.455839	-0.416007
Zn8	Zn	1.597766	0.044161	0.083993
O9	O	1.165190	-0.388462	-0.354507
O10	O	1.665190	0.111538	0.145493
O11	O	1.345459	-0.438015	-0.309307
O12	O	1.845459	0.061985	0.190693
O13	O	1.214651	-0.208219	-0.399749
O14	O	1.714651	0.291781	0.100251
O15	O	1.115752	-0.338985	-0.190012
O16	O	1.615752	0.161015	0.309988
O17	O	1.345390	-0.338948	-0.399726
O18	O	1.845390	0.161052	0.100274
O19	O	1.214811	-0.438036	-0.189994
O20	O	1.714811	0.061964	0.310006
O21	O	1.115661	-0.208235	-0.309348
O22	O	1.615661	0.291765	0.190652
O23	O	0.984971	-0.338935	-0.309311
O24	O	1.484971	0.161065	0.190689
O25	O	1.115678	-0.568678	-0.399661
O26	O	1.615678	-0.068678	0.100339
O27	O	0.984939	-0.437949	-0.399684
O28	O	1.484939	0.062051	0.100316
O29	O	1.214769	-0.568716	-0.309270
O30	O	1.714769	-0.068716	0.190730
O31	O	1.214608	-0.338899	-0.519025
O32	O	1.714608	0.161101	-0.019025
O33	O	1.115587	-0.437928	-0.518997
O34	O	1.615587	0.062072	-0.018997
C35	C	0.955699	-0.388440	-0.354496
C36	C	1.455699	0.111560	0.145504
C37	C	0.866078	-0.388449	-0.354510
C38	C	1.366078	0.111551	0.145490
C39	C	0.537902	-0.388483	-0.354514
C40	C	1.037902	0.111517	0.145486
C41	C	0.629210	-0.388471	-0.354511
C42	C	1.129210	0.111529	0.145489
C43	C	0.701987	-0.388466	-0.354512
C44	C	1.201987	0.111534	0.145488
C45	C	0.793301	-0.388455	-0.354508
C46	C	1.293301	0.111545	0.145492
C47	C	1.165229	-0.598771	-0.354458
C48	C	1.665229	-0.098771	0.145542
C49	C	1.165246	-0.688392	-0.354438
C50	C	1.665246	-0.188392	0.145562
C51	C	1.165259	-0.761175	-0.354421
C52	C	1.665259	-0.261175	0.145579
C53	C	1.165278	-0.852483	-0.354394
C54	C	1.665278	-0.352483	0.145606
C55	C	1.165297	-0.925260	-0.354368
C56	C	1.665297	-0.425260	0.145632
C57	C	1.165317	-1.016574	-0.354341
C58	C	1.665317	-0.516574	0.145659
C59	C	1.375498	-0.388485	-0.354518
C60	C	1.875498	0.111515	0.145482
C61	C	1.465120	-0.388495	-0.354523
C62	C	1.965120	0.111505	0.145477
C63	C	1.165104	-0.388423	-0.545713
C64	C	1.665104	0.111577	-0.045713
C65	C	1.165142	-0.388434	-0.627512
C66	C	1.665142	0.111566	-0.127512
C67	C	1.165197	-0.178971	-0.354502
C68	C	1.665197	0.321029	0.145498
C69	C	1.165336	-0.089351	-0.354316
C70	C	1.665336	0.410649	0.145684
C71	C	1.216823	-0.336964	-0.815696
C72	C	1.716823	0.163036	-0.315696
C73	C	1.216859	-0.336983	-0.892555
C74	C	1.716859	0.163017	-0.392555
C75	C	1.113659	-0.440018	-0.892566
C76	C	1.613659	0.059982	-0.392566
C77	C	1.113627	-0.440002	-0.815708
C78	C	1.613627	0.059998	-0.315708
C79	C	1.165209	-0.388470	-0.777276
C80	C	1.665209	0.111530	-0.277276
C81	C	1.165276	-0.388506	-0.930992
C82	C	1.665276	0.111494	-0.430992
C83	C	1.165315	-0.388528	-1.014325
C84	C	1.665315	0.111472	-0.514325
C85	C	1.165171	-0.388450	-0.693937
C86	C	1.665171	0.111550	-0.193937
C87	C	1.165297	-0.388519	-0.162554
C88	C	1.665297	0.111481	0.337446
C89	C	1.165343	-0.388543	-0.080755
C90	C	1.665343	0.111457	0.419245
H91	H	1.258825	-0.295005	-0.784406
H92	H	1.758825	0.204995	-0.284406
H93	H	1.258891	-0.295043	-0.923834
H94	H	1.758891	0.204957	-0.423834
F95	F	1.058764	-0.494857	-0.933475
F96	F	1.558764	0.005143	-0.433475
H97	H	1.071596	-0.481949	-0.784424
H98	H	1.571596	0.018051	-0.284424
