data_functionalizedCrystal
_audit_creation_method	'MofGen! by Chris Wilmer'
_symmetry_space_group_name_H-M	'P1'
_symmetry_Int_Tables_number	1
_symmetry_cell_setting	triclinic
loop_
_symmetry_equiv_pos_as_xyz
  x,y,z
_cell_length_a	10.723024
_cell_length_b	10.723024
_cell_length_c	9.130313
_cell_angle_alpha	89.999893
_cell_angle_beta	90.000047
_cell_angle_gamma	84.467869
loop_
_atom_site_label
_atom_site_type_symbol
_atom_site_fract_x
_atom_site_fract_y
_atom_site_fract_z
O1	O	1.657181	0.175022	-0.121786
O2	O	1.294029	0.191775	-0.121790
O3	O	1.483982	0.001822	-0.121783
O4	O	1.467229	0.364974	-0.121794
O5	O	1.483980	0.001827	0.121816
O6	O	1.294027	0.191780	0.121808
O7	O	1.657179	0.175027	0.121813
Cu8	Cu	1.475603	0.183404	0.144053
Cu9	Cu	1.475605	0.183398	-0.144031
O10	O	1.467226	0.364980	0.121805
C11	C	1.247528	0.190558	0.000008
C12	C	1.108974	0.186911	0.000007
C13	C	1.033991	0.293198	0.000002
C14	C	0.890788	0.289431	0.000001
C15	C	1.482762	-0.044675	0.000015
C16	C	1.479114	-0.183229	0.000010
C17	C	1.585401	-0.258212	0.000009
C18	C	1.581634	-0.401415	0.000004
C19	C	1.703680	0.176243	0.000011
C20	C	1.842234	0.179891	0.000003
C21	C	1.468447	0.411477	0.000004
C22	C	1.472094	0.550031	-0.000000
N23	N	1.475610	0.183407	0.346676
N24	N	1.475608	0.183384	-0.346653
C25	C	1.559743	0.099325	0.423331
C26	C	1.559739	0.099310	0.576668
C27	C	1.391466	0.267471	0.576681
C28	C	1.391465	0.267479	0.423347
C29	C	1.656898	0.002242	0.423325
C30	C	1.656894	0.002227	0.576662
H31	H	0.906659	0.088896	-0.000003
F32	F	1.088649	0.415788	0.000004
F33	F	1.301906	0.356954	0.341765
H34	H	1.067152	0.093125	-0.000028
H35	H	1.679187	-0.216390	0.000019
H36	H	1.385328	-0.225051	-0.000001
F37	F	0.806574	0.408367	-0.000015
H38	H	1.672624	-0.465848	0.000010
F39	F	1.301917	0.356940	0.658291
H40	H	1.381099	-0.385544	0.000010
F41	F	1.629068	-0.123121	0.368921
H42	H	1.747496	0.032622	0.375767
F43	F	1.617275	-0.116234	0.638820
F44	F	1.782233	0.030146	0.631066
