data_functionalizedCrystal
_audit_creation_method	'MofGen! by Chris Wilmer'
_symmetry_space_group_name_H-M	'P1'
_symmetry_Int_Tables_number	1
_symmetry_cell_setting	triclinic
loop_
_symmetry_equiv_pos_as_xyz
  x,y,z
_cell_length_a	10.489741
_cell_length_b	15.944551
_cell_length_c	9.565339
_cell_angle_alpha	89.999279
_cell_angle_beta	89.999100
_cell_angle_gamma	84.018956
loop_
_atom_site_label
_atom_site_type_symbol
_atom_site_fract_x
_atom_site_fract_y
_atom_site_fract_z
O1	O	1.692410	0.118501	-0.116177
O2	O	1.321060	0.129624	-0.116199
O3	O	1.516876	0.001849	-0.116175
O4	O	1.496594	0.246276	-0.116201
O5	O	1.516860	0.001857	0.116345
O6	O	1.321045	0.129632	0.116321
O7	O	1.692395	0.118509	0.116343
Zn8	Zn	1.506717	0.124072	0.153250
Zn9	Zn	1.506738	0.124061	-0.153106
O10	O	1.496579	0.246284	0.116319
C11	C	1.273532	0.128788	0.000058
C12	C	1.131938	0.126275	0.000050
C13	C	1.064925	0.044975	0.000072
C14	C	0.972273	0.083376	-0.114573
C15	C	0.972292	0.083403	0.114673
C16	C	1.041151	0.164709	-0.114690
C17	C	1.041179	0.164725	0.114659
C18	C	0.948554	0.203186	-0.000014
C19	C	1.516026	-0.029446	0.000085
C20	C	1.513502	-0.122708	0.000086
C21	C	1.386093	-0.338330	0.000059
C22	C	1.445250	-0.398988	0.114709
C23	C	1.508935	-0.293461	0.000075
C24	C	1.445294	-0.398979	-0.114537
C25	C	1.504515	-0.458400	0.000058
C26	C	1.568126	-0.352890	0.114820
C27	C	1.568153	-0.352875	-0.114530
C28	C	1.627399	-0.413515	0.000148
C29	C	1.511478	-0.198443	0.000086
C30	C	1.501982	-0.553417	0.000058
C31	C	1.739922	0.119345	0.000083
C32	C	1.881517	0.121858	0.000082
C33	C	1.497429	0.277579	0.000056
C34	C	1.499953	0.370841	0.000046
N35	N	1.506713	0.124078	0.362329
N36	N	1.506752	0.124048	-0.362185
C37	C	1.416127	0.183150	0.453521
C38	C	1.531388	0.200146	0.546705
C39	C	1.391501	0.107089	0.546701
C40	C	1.622032	0.141112	0.453461
C41	C	1.482069	0.048022	0.453449
C42	C	1.597414	0.064986	0.546591
H43	H	1.071742	0.199100	0.211583
H44	H	1.071509	0.199079	-0.211724
H45	H	1.461162	-0.016264	0.412455
H46	H	0.941784	0.048992	0.211598
C47	C	1.184420	-0.317306	0.120405
C48	C	1.248450	-0.294185	0.000200
H49	H	1.099451	-0.290047	0.120498
H50	H	1.181874	-0.376677	0.121226
H51	H	1.228502	-0.300861	0.201016
H52	H	1.204374	-0.310636	-0.080411
H53	H	1.250989	-0.234802	-0.000634
H54	H	1.719502	0.155546	0.412677
C55	C	1.643230	-0.061361	0.681998
C56	C	1.700953	-0.002476	0.601420
H57	H	1.707154	-0.103008	0.715840
H58	H	1.599620	-0.033557	0.758725
H59	H	1.583782	-0.087461	0.626066
H60	H	1.760395	0.023629	0.657355
H61	H	1.744584	-0.030283	0.524682
H62	H	1.339591	0.233152	0.412657
H63	H	1.294052	0.092733	0.587660
H64	H	1.393286	-0.419405	0.211631
C65	C	1.744591	-0.285044	0.205418
C66	C	1.638195	-0.325484	0.245818
H67	H	1.787838	-0.268119	0.286292
H68	H	1.801205	-0.322742	0.151847
H69	H	1.716882	-0.236834	0.150733
H70	H	1.665906	-0.373697	0.300494
H71	H	1.581572	-0.287783	0.299411
C72	C	1.098704	-0.087627	-0.120283
C73	C	1.133227	-0.045255	-0.000077
H74	H	1.140883	-0.143326	-0.120383
H75	H	1.008575	-0.089853	-0.121096
H76	H	1.123263	-0.058443	-0.200893
H77	H	1.108659	-0.074436	0.080534
H78	H	1.223376	-0.043034	0.000749
H79	H	1.620072	-0.332436	-0.211456
H80	H	0.941742	0.048973	-0.211493
H81	H	1.393327	-0.419372	-0.211472
C82	C	1.829943	-0.433091	-0.118671
C83	C	1.765181	-0.457428	0.000239
H84	H	1.915008	-0.460191	-0.118602
H85	H	1.786533	-0.448886	-0.200153
H86	H	1.832223	-0.373690	-0.117885
H87	H	1.762892	-0.516829	-0.000552
H88	H	1.808602	-0.441639	0.081742
C89	C	0.916901	0.336380	0.118805
C90	C	0.880568	0.293500	-0.000102
H91	H	0.874932	0.392136	0.118739
H92	H	0.893338	0.307640	0.200289
H93	H	1.007075	0.338454	0.118013
H94	H	0.790395	0.291420	0.000695
H95	H	0.904123	0.322247	-0.081607
C96	C	1.464570	0.348737	0.555051
C97	C	1.559564	0.286953	0.602019
H98	H	1.481957	0.402327	0.589204
H99	H	1.463991	0.349527	0.455763
H100	H	1.383340	0.336264	0.588356
H101	H	1.640794	0.299423	0.568705
H102	H	1.560156	0.286165	0.701327
