data_functionalizedCrystal
_audit_creation_method	'MofGen! by Chris Wilmer'
_symmetry_space_group_name_H-M	'P1'
_symmetry_Int_Tables_number	1
_symmetry_cell_setting	triclinic
loop_
_symmetry_equiv_pos_as_xyz
  x,y,z
_cell_length_a	23.532407
_cell_length_b	22.610064
_cell_length_c	15.944493
_cell_angle_alpha	89.992417
_cell_angle_beta	83.161895
_cell_angle_gamma	90.011311
loop_
_atom_site_label
_atom_site_type_symbol
_atom_site_fract_x
_atom_site_fract_y
_atom_site_fract_z
O1	O	0.755649	0.049140	0.101959
O2	O	0.589840	0.049148	0.116712
O3	O	0.677290	0.049149	-0.012981
O4	O	0.668199	0.049139	0.231652
O5	O	0.677265	-0.049220	-0.012966
O6	O	0.589816	-0.049221	0.116727
O7	O	0.755624	-0.049229	0.101973
Zn8	Zn	0.672716	-0.064843	0.109353
Zn9	Zn	0.672748	0.064762	0.109333
O10	O	0.668175	-0.049230	0.231667
C11	C	0.568611	-0.000035	0.116344
C12	C	0.505389	-0.000032	0.115214
C13	C	0.238918	-0.000045	0.033806
C14	C	0.298322	-0.000044	0.034856
O15	O	0.334826	-0.000062	-0.029724
N16	N	0.321236	-0.000043	0.111958
C17	C	0.284742	-0.000048	0.188017
O18	O	0.309687	-0.000048	0.253695
C19	C	0.225339	-0.000053	0.186966
C20	C	0.202429	-0.000048	0.109859
C21	C	0.216007	-0.000040	-0.043295
C22	C	0.156607	-0.000039	-0.044344
C23	C	0.120118	-0.000043	0.031708
C24	C	0.143029	-0.000047	0.108810
C25	C	0.188847	-0.000062	0.263024
C26	C	0.129441	-0.000067	0.261967
C27	C	0.106530	-0.000062	0.184859
C28	C	0.047140	-0.000049	0.183813
N29	N	0.024226	-0.000050	0.106711
C30	C	0.060715	-0.000047	0.030658
C31	C	0.409493	-0.000040	0.190216
C32	C	0.468895	-0.000032	0.191267
C33	C	0.482471	-0.000029	0.038106
C34	C	0.423068	-0.000033	0.037056
C35	C	0.386579	-0.000041	0.113114
C36	C	-0.064030	-0.000044	0.028461
C37	C	-0.123436	-0.000041	0.027419
C38	C	-0.137006	-0.000047	0.180580
C39	C	-0.077606	-0.000047	0.181622
C40	C	-0.041118	-0.000048	0.105556
O41	O	0.010602	-0.000034	0.248359
O42	O	0.035762	-0.000055	-0.035009
N43	N	0.672698	-0.153296	0.109365
C44	C	0.638201	-0.438133	0.058640
C45	C	0.638196	-0.376213	0.058644
O46	O	0.608842	-0.344185	0.015518
N47	N	0.672721	-0.345248	0.109338
C48	C	0.707259	-0.376206	0.160026
O49	O	0.736626	-0.344182	0.203145
C50	C	0.707267	-0.438125	0.160016
C51	C	0.672735	-0.469087	0.109325
C52	C	0.603672	-0.469095	0.007952
C53	C	0.603677	-0.531011	0.007949
C54	C	0.638211	-0.561964	0.058635
C55	C	0.672740	-0.531002	0.109322
C56	C	0.741808	-0.469082	0.210699
C57	C	0.741814	-0.531005	0.210684
C58	C	0.707281	-0.561967	0.159993
C59	C	0.707279	-0.623872	0.160005
N60	N	0.672753	-0.654837	0.109310
C61	C	0.638219	-0.623883	0.058625
C62	C	0.707240	-0.246172	0.160040
C63	C	0.707230	-0.184255	0.160054
C64	C	0.638167	-0.184266	0.058671
C65	C	0.638175	-0.246185	0.058662
C66	C	0.672715	-0.277138	0.109346
C67	C	0.638231	-0.753910	0.058624
C68	C	0.638237	-0.815832	0.058628
C69	C	0.707302	-0.815815	0.160008
C70	C	0.707294	-0.753899	0.160007
C71	C	0.672757	-0.722948	0.109308
O72	O	0.736619	-0.655939	0.203106
O73	O	0.608862	-0.655915	0.015505
C74	C	0.776854	-0.000044	0.102342
C75	C	0.840075	-0.000044	0.103471
C76	C	0.676906	-0.000033	-0.044265
C77	C	0.675792	-0.000026	-0.137504
N78	N	0.672771	0.153215	0.109314
C79	C	0.727266	-0.000039	-0.373698
C80	C	0.699520	0.048463	-0.424040
C81	C	0.673728	-0.000033	-0.308208
C82	C	0.699483	-0.048522	-0.424001
C83	C	0.671738	-0.000042	-0.473101
C84	C	0.645996	0.048509	-0.357321
C85	C	0.645967	-0.048518	-0.357279
C86	C	0.618182	-0.000004	-0.407588
C87	C	0.674876	-0.000027	-0.213218
C88	C	0.670586	-0.000044	-0.568088
C89	C	0.668559	-0.000046	0.262951
C90	C	0.669672	-0.000050	0.356190
H91	H	-0.142086	-0.000035	-0.035374
H92	H	0.245711	-0.000039	-0.105230
H93	H	-0.058951	-0.000051	0.244410
H94	H	0.575550	-0.443899	-0.033326
H95	H	0.572029	0.000025	-0.422665
H96	H	0.735417	-0.841028	0.201276
H97	H	0.610055	-0.271390	0.017385
H98	H	0.512191	-0.000026	-0.023820
H99	H	0.773383	0.000007	-0.358458
H100	H	-0.034329	-0.000045	-0.033479
H101	H	0.769942	-0.556203	0.251957
H102	H	0.099734	-0.000076	0.323904
H103	H	-0.166726	-0.000047	0.242500
H104	H	0.722141	0.089466	-0.453182
H105	H	0.404418	-0.000030	-0.025732
H106	H	0.722094	-0.089524	-0.453116
H107	H	0.735405	-0.728688	0.201296
H108	H	0.610114	-0.841038	0.017350
H109	H	0.623409	0.089558	-0.328317
H110	H	0.610107	-0.728718	0.017341
H111	H	0.575559	-0.556215	-0.033332
H112	H	0.487543	-0.000027	0.254056
H113	H	0.137959	-0.000038	-0.107133
H114	H	0.379787	-0.000043	0.252156
H115	H	0.769929	-0.443883	0.251975
H116	H	0.207490	-0.000063	0.325813
H117	H	0.610047	-0.159053	0.017401
H118	H	0.735343	-0.159051	0.201343
H119	H	0.735365	-0.271370	0.201320
H120	H	0.623366	-0.089523	-0.328122
