data_functionalizedCrystal
_audit_creation_method	'MofGen! by Chris Wilmer'
_symmetry_space_group_name_H-M	'P1'
_symmetry_Int_Tables_number	1
_symmetry_cell_setting	triclinic
loop_
_symmetry_equiv_pos_as_xyz
  x,y,z
_cell_length_a	14.519709
_cell_length_b	10.723024
_cell_length_c	9.198806
_cell_angle_alpha	90.003648
_cell_angle_beta	89.995869
_cell_angle_gamma	95.925993
loop_
_atom_site_label
_atom_site_type_symbol
_atom_site_fract_x
_atom_site_fract_y
_atom_site_fract_z
O1	O	0.129347	-1.655978	-0.120886
O2	O	0.141728	-1.292710	-0.120892
O3	O	0.001349	-1.483976	-0.120876
O4	O	0.269727	-1.464713	-0.120902
O5	O	0.001348	-1.483960	0.120909
O6	O	0.141728	-1.292695	0.120893
O7	O	0.129347	-1.655963	0.120899
Cu8	Cu	0.135538	-1.474328	0.142973
Cu9	Cu	0.135538	-1.474345	-0.142966
O10	O	0.269727	-1.464697	0.120883
C11	C	0.140827	-1.246211	0.000000
C12	C	0.138132	-1.107682	-0.000001
C13	C	-0.033016	-1.483070	0.000017
C14	C	-0.135411	-1.480380	0.000018
C15	C	0.130248	-1.702462	0.000003
C16	C	0.132944	-1.840991	-0.000005
C17	C	-0.510357	-1.470476	-0.000020
C18	C	-0.406035	-1.473227	-0.000009
C19	C	-0.322887	-1.475428	0.000000
C20	C	-0.218559	-1.478179	0.000008
C21	C	0.304091	-1.465603	-0.000013
C22	C	0.406486	-1.468293	-0.000024
N23	N	0.135537	-1.474324	0.344087
C24	C	0.216681	-1.031965	-0.000010
C25	C	0.213896	-0.888788	-0.000012
N26	N	0.135532	-1.474359	-0.344080
C27	C	0.076335	-1.554633	0.416290
C28	C	0.076332	-1.554653	0.583703
H29	H	0.281141	-0.823726	-0.000025
H30	H	0.025651	-1.623414	0.645795
H31	H	0.025649	-1.623371	0.354170
H32	H	0.186222	-1.405604	0.593837
C33	C	0.310316	-1.087575	-0.000021
H34	H	0.299904	-1.176511	-0.000029
H35	H	0.344408	-1.060259	0.084288
H36	H	0.344401	-1.060272	-0.084354
C37	C	0.042093	-0.928861	-0.000002
H38	H	-0.009057	-0.880300	-0.000009
H39	H	0.039636	-0.980245	0.084310
H40	H	0.039643	-0.980243	-0.084332
C41	C	0.203995	-1.381437	0.427990
H42	H	0.241130	-1.331038	0.360981
H43	H	0.242552	-1.426601	0.487368
H44	H	0.170529	-1.329339	0.487366
H45	H	0.068822	-1.066508	-0.000032
