data_functionalizedCrystal
_audit_creation_method	'MofGen! by Chris Wilmer'
_symmetry_space_group_name_H-M	'P1'
_symmetry_Int_Tables_number	1
_symmetry_cell_setting	triclinic
loop_
_symmetry_equiv_pos_as_xyz
  x,y,z
_cell_length_a	27.732048
_cell_length_b	27.732048
_cell_length_c	26.809956
_cell_angle_alpha	90.000636
_cell_angle_beta	90.003258
_cell_angle_gamma	82.642655
loop_
_atom_site_label
_atom_site_type_symbol
_atom_site_fract_x
_atom_site_fract_y
_atom_site_fract_z
O1	O	-0.640931	-0.057510	-0.041421
O2	O	-0.500138	-0.066256	-0.041436
O3	O	-0.574907	0.008514	-0.041419
O4	O	-0.566162	-0.132280	-0.041439
O5	O	-0.574893	0.008502	0.041541
O6	O	-0.500123	-0.066267	0.041523
O7	O	-0.640917	-0.057522	0.041539
Zn8	Zn	-0.570518	-0.061896	0.054702
Zn9	Zn	-0.570536	-0.061881	-0.054600
O10	O	-0.566147	-0.132291	0.041521
C11	C	-0.574716	0.026515	0.000062
C12	C	-0.574164	0.080170	0.000066
C13	C	-0.482124	-0.066078	0.000041
C14	C	-0.428469	-0.065525	0.000036
C15	C	-0.658931	-0.057699	0.000060
C16	C	-0.712586	-0.058252	0.000062
C17	C	-0.089654	-0.106229	0.000051
C18	C	0.112006	-0.104178	0.000056
O19	O	0.143262	-0.141398	0.000073
N20	N	0.131130	-0.059843	0.000062
C21	C	0.099835	-0.016017	0.000069
O22	O	0.120728	0.021740	0.000079
C23	C	-0.101824	-0.018068	0.000068
C24	C	-0.120944	-0.062407	0.000057
C25	C	-0.108775	-0.150563	0.000042
C26	C	-0.159187	-0.151076	0.000038
C27	C	-0.190477	-0.107253	0.000044
C28	C	-0.171356	-0.062919	0.000054
C29	C	-0.133117	0.025757	0.000079
C30	C	-0.183535	0.025240	0.000080
C31	C	-0.202655	-0.019098	0.000069
C32	C	-0.253059	-0.019609	0.000056
N33	N	-0.272183	-0.063944	0.000050
C34	C	-0.240892	-0.107766	0.000044
C35	C	0.205709	-0.014943	0.000069
C36	C	0.256124	-0.014430	0.000068
C37	C	0.268291	-0.102591	0.000056
C38	C	0.217876	-0.103104	0.000053
C39	C	0.186585	-0.059278	0.000063
C40	C	-0.346761	-0.108839	0.000036
C41	C	-0.397178	-0.109347	0.000030
C42	C	-0.409341	-0.021186	0.000044
C43	C	-0.358929	-0.020678	0.000048
C44	C	-0.327639	-0.064508	0.000045
O45	O	-0.284343	0.017592	0.000045
O46	O	-0.261794	-0.145518	0.000045
C47	C	-0.039242	-0.105716	0.000055
C48	C	-0.020120	-0.061382	0.000065
C49	C	-0.051411	-0.017560	0.000071
C50	C	0.030294	-0.060869	0.000065
C51	C	0.061585	-0.104691	0.000059
C52	C	0.042461	-0.149026	0.000053
C53	C	-0.007951	-0.149539	0.000049
C54	C	-0.032287	0.026775	0.000077
C55	C	0.018125	0.027284	0.000080
C56	C	0.049416	-0.016538	0.000074
C57	C	-0.566338	-0.150292	0.000039
C58	C	-0.566891	-0.203947	0.000031
N59	N	-0.570509	-0.061906	0.129298
C60	C	-0.614867	0.418985	0.000045
C61	C	-0.612816	0.620645	0.000038
O62	O	-0.650037	0.651900	0.000021
N63	N	-0.568481	0.639768	0.000034
C64	C	-0.524656	0.608474	0.000028
O65	O	-0.486899	0.629367	0.000019
C66	C	-0.526707	0.406815	0.000031
C67	C	-0.571045	0.387694	0.000041
C68	C	-0.659202	0.399864	0.000054
C69	C	-0.659714	0.349452	0.000059
C70	C	-0.615892	0.318161	0.000054
C71	C	-0.571557	0.337282	0.000045
C72	C	-0.482882	0.375521	0.000022
C73	C	-0.483399	0.325104	0.000021
C74	C	-0.527737	0.305983	0.000031
C75	C	-0.528247	0.255580	0.000045
N76	N	-0.572583	0.236456	0.000050
C77	C	-0.616405	0.267747	0.000054
C78	C	-0.523582	0.714348	0.000027
C79	C	-0.523069	0.764762	0.000027
C80	C	-0.611230	0.776930	0.000036
C81	C	-0.611742	0.726514	0.000040
C82	C	-0.567917	0.695224	0.000031
C83	C	-0.617477	0.161878	0.000064
C84	C	-0.617986	0.111461	0.000071
C85	C	-0.529825	0.099298	0.000059
C86	C	-0.529316	0.149710	0.000055
C87	C	-0.573147	0.180999	0.000056
O88	O	-0.491047	0.224296	0.000057
O89	O	-0.654156	0.246844	0.000053
C90	C	-0.614355	0.469397	0.000041
C91	C	-0.570021	0.488518	0.000032
C92	C	-0.526198	0.457228	0.000027
C93	C	-0.569508	0.538933	0.000032
C94	C	-0.613330	0.570223	0.000036
C95	C	-0.657665	0.551100	0.000041
C96	C	-0.658177	0.500688	0.000045
C97	C	-0.481863	0.476351	0.000023
C98	C	-0.481355	0.526764	0.000019
C99	C	-0.525177	0.558054	0.000023
N100	N	-0.570549	-0.061867	-0.129196
C101	C	-0.603640	-0.028781	0.473932
C102	C	-0.603652	-0.028774	0.682810
O103	O	-0.631801	-0.000613	0.709820
N104	N	-0.570539	-0.061870	0.708925
C105	C	-0.537419	-0.094969	0.682818
O106	O	-0.509252	-0.123116	0.709824
C107	C	-0.537406	-0.094974	0.473941
C108	C	-0.570524	-0.061878	0.447829
C109	C	-0.636755	0.004312	0.447819
C110	C	-0.636754	0.004308	0.395603
C111	C	-0.603637	-0.028789	0.369500
C112	C	-0.570522	-0.061882	0.395612
C113	C	-0.504284	-0.128070	0.447835
C114	C	-0.504283	-0.128067	0.395613
C115	C	-0.537401	-0.094972	0.369500
C116	C	-0.537405	-0.094983	0.317293
N117	N	-0.570517	-0.061887	0.291177
C118	C	-0.603633	-0.028790	0.317281
C119	C	-0.537429	-0.094965	0.792481
C120	C	-0.537433	-0.094964	0.844700
C121	C	-0.603665	-0.028768	0.844689
C122	C	-0.603663	-0.028772	0.792469
C123	C	-0.570542	-0.061868	0.766366
C124	C	-0.603628	-0.028801	0.207623
C125	C	-0.603625	-0.028809	0.155402
C126	C	-0.537392	-0.095003	0.155418
C127	C	-0.537396	-0.094997	0.207635
C128	C	-0.570516	-0.061892	0.233735
O129	O	-0.509266	-0.123126	0.290250
O130	O	-0.631789	-0.000640	0.290266
C131	C	-0.603642	-0.028777	0.526149
C132	C	-0.570527	-0.061870	0.552261
C133	C	-0.537410	-0.094968	0.526158
C134	C	-0.570531	-0.061870	0.604480
C135	C	-0.603647	-0.028773	0.630584
C136	C	-0.636759	0.004324	0.604468
C137	C	-0.636758	0.004320	0.552252
C138	C	-0.504298	-0.128064	0.552273
C139	C	-0.504303	-0.128058	0.604489
C140	C	-0.537419	-0.094961	0.630593
H141	H	-0.412743	-0.145454	0.000021
C142	C	-0.668070	0.225622	-0.042580
C143	C	-0.665656	0.196265	0.000068
H144	H	-0.697814	0.246849	-0.042576
H145	H	-0.641600	0.244229	-0.042583
H146	H	-0.666440	0.205695	-0.071506
H147	H	-0.667282	0.216192	0.028993
H148	H	-0.692133	0.177656	0.000075
H149	H	-0.174750	-0.187180	0.000029
H150	H	-0.630630	-0.001820	0.865951
C151	C	-0.101826	-0.237754	0.000021
C152	C	-0.074385	-0.198739	0.000031
H153	H	-0.080596	-0.267497	0.000008
H154	H	-0.121736	-0.236124	0.028951
H155	H	-0.121749	-0.236105	-0.028909
H156	H	-0.054464	-0.200386	0.028962
H157	H	-0.054466	-0.200370	-0.028902
C158	C	-0.665770	0.088205	0.620547
C159	C	-0.673159	0.040707	0.633168
H160	H	-0.688241	0.110666	0.638265
H161	H	-0.633552	0.093225	0.629105
H162	H	-0.670515	0.092937	0.585710
H163	H	-0.668412	0.035974	0.668004
H164	H	-0.705385	0.035685	0.624613
H165	H	-0.694282	0.485125	0.000053
H166	H	-0.663720	0.031258	0.374345
C167	C	0.141956	0.035638	-0.042572
C168	C	0.171318	0.033234	0.000074
H169	H	0.120725	0.065380	-0.042568
H170	H	0.161875	0.034006	-0.071496
H171	H	0.123349	0.009162	-0.042568
H172	H	0.189928	0.059708	0.000068
H173	H	0.151396	0.034871	0.029005
C174	C	-0.432815	0.261351	0.042660
C175	C	-0.435224	0.290709	0.000013
H176	H	-0.403076	0.240117	0.042653
H177	H	-0.434440	0.281273	0.071583
H178	H	-0.459294	0.242747	0.042661
H179	H	-0.408747	0.309316	0.000014
H180	H	-0.433594	0.270785	-0.028918
C181	C	0.067756	0.079004	0.042739
C182	C	0.039141	0.076024	0.000090
H183	H	0.080731	0.109091	0.042745
H184	H	0.048341	0.076966	0.071661
H185	H	0.093608	0.052978	0.042730
H186	H	0.013287	0.102048	0.000101
H187	H	0.058557	0.078067	-0.028839
C188	C	-0.406062	0.531901	-0.042645
C189	C	-0.432614	0.547778	0.000007
H190	H	-0.375974	0.544876	-0.042656
H191	H	-0.400101	0.497402	-0.042637
H192	H	-0.424103	0.542665	-0.071568
H193	H	-0.414575	0.537010	0.028930
H194	H	-0.438573	0.582284	0.000004
H195	H	-0.477330	-0.155015	0.531024
C196	C	-0.744864	0.558077	0.000052
C197	C	-0.705836	0.585501	0.000045
H198	H	-0.774600	0.579317	0.000056
H199	H	-0.743238	0.538160	-0.028874
H200	H	-0.743227	0.538161	0.028985
H201	H	-0.707471	0.605414	-0.028890
H202	H	-0.707463	0.605426	0.028974
H203	H	-0.057760	0.062462	0.000083
H204	H	-0.209009	0.060929	0.000089
H205	H	0.293777	-0.138273	0.000051
H206	H	-0.695819	0.333889	0.000065
H207	H	0.271687	0.021674	0.000069
C208	C	0.234978	-0.190193	0.000042
C209	C	0.196861	-0.151841	0.000047
H210	H	0.222005	-0.220282	0.000042
H211	H	0.254383	-0.188154	-0.028887
H212	H	0.254392	-0.188157	0.028973
H213	H	0.177449	-0.153875	-0.028885
H214	H	0.177448	-0.153881	0.028979
H215	H	-0.446177	0.450879	0.000018
C216	C	-0.150229	0.112845	0.000110
C217	C	-0.112109	0.074495	0.000098
H218	H	-0.137259	0.142935	0.000126
H219	H	-0.169637	0.110817	-0.028821
H220	H	-0.169639	0.110793	0.029039
H221	H	-0.092701	0.076545	-0.028833
H222	H	-0.092693	0.076524	0.029032
C223	C	-0.705080	0.128560	0.000076
C224	C	-0.666726	0.090444	0.000077
H225	H	-0.735168	0.115585	0.000076
H226	H	-0.703042	0.147970	0.029003
H227	H	-0.703045	0.147969	-0.028857
H228	H	-0.668759	0.071037	0.029012
H229	H	-0.668765	0.071026	-0.028852
H230	H	-0.343360	0.015426	0.000049
H231	H	-0.477317	-0.155019	0.469089
H232	H	-0.647846	0.710950	0.000047
C233	C	-0.454854	0.073396	-0.042602
C234	C	-0.481657	0.064897	0.000050
H235	H	-0.425116	0.052159	-0.042608
H236	H	-0.473059	0.067636	-0.071522
H237	H	-0.448202	0.106157	-0.042598
H238	H	-0.488312	0.032136	0.000044
H239	H	-0.463447	0.070653	0.028977
C240	C	-0.471964	-0.160392	0.839454
C241	C	-0.501031	-0.131346	0.873400
H242	H	-0.449487	-0.182850	0.857172
H243	H	-0.491953	-0.177641	0.819087
H244	H	-0.454732	-0.140382	0.819087
H245	H	-0.518266	-0.151356	0.893764
H246	H	-0.481040	-0.114096	0.893776
C247	C	-0.669092	0.036627	0.160643
C248	C	-0.640028	0.007574	0.126699
H249	H	-0.691562	0.059089	0.142924
H250	H	-0.686327	0.016626	0.181009
H251	H	-0.649096	0.053875	0.181012
H252	H	-0.660024	-0.009676	0.106333
H253	H	-0.622792	0.027578	0.106326
H254	H	-0.630630	-0.001822	0.771211
C255	C	-0.614625	0.037074	0.266333
C256	C	-0.640034	0.007587	0.236309
H257	H	-0.637103	0.059538	0.284040
H258	H	-0.594911	0.017368	0.289361
H259	H	-0.594636	0.054320	0.245958
H260	H	-0.660021	-0.009662	0.256684
H261	H	-0.659757	0.027296	0.213278
H262	H	-0.694889	0.425336	0.000056
C263	C	-0.473108	0.029382	-0.042591
C264	C	-0.443744	0.026980	0.000053
H265	H	-0.494350	0.059117	-0.042580
H266	H	-0.453190	0.027763	-0.071516
H267	H	-0.491704	0.002898	-0.042593
H268	H	-0.425146	0.053463	0.000053
H269	H	-0.463664	0.028604	0.028985
H270	H	-0.663722	0.031266	0.469068
C271	C	-0.526439	-0.160834	0.733767
C272	C	-0.501024	-0.131354	0.763794
H273	H	-0.503964	-0.183298	0.716057
H274	H	-0.546430	-0.178076	0.754137
H275	H	-0.546152	-0.141120	0.710738
H276	H	-0.481313	-0.151067	0.786826
H277	H	-0.481024	-0.114111	0.743422
C278	C	-0.438814	-0.193498	0.400874
C279	C	-0.467877	-0.164452	0.366922
H280	H	-0.416342	-0.215962	0.383161
H281	H	-0.421581	-0.173493	0.421239
H282	H	-0.458810	-0.210744	0.421242
H283	H	-0.447881	-0.147203	0.346556
H284	H	-0.485111	-0.184460	0.346547
H285	H	-0.510430	-0.121952	0.134157
C286	C	-0.471923	-0.160423	0.202398
C287	C	-0.500991	-0.131373	0.236341
H288	H	-0.449443	-0.182875	0.220119
H289	H	-0.491912	-0.177679	0.182037
H290	H	-0.454695	-0.140415	0.182025
H291	H	-0.518222	-0.151381	0.256712
H292	H	-0.481000	-0.114116	0.256711
H293	H	-0.663725	0.031269	0.530995
C294	C	-0.477605	0.199345	-0.042602
C295	C	-0.480582	0.170734	0.000049
H296	H	-0.447519	0.212324	-0.042606
H297	H	-0.479639	0.179925	-0.071522
H298	H	-0.503634	0.225194	-0.042597
H299	H	-0.454555	0.144883	0.000042
H300	H	-0.478543	0.190155	0.028977
H301	H	-0.646911	0.802415	0.000040
H302	H	-0.477335	-0.155012	0.625747
H303	H	-0.321291	-0.144530	0.000035
H304	H	-0.023514	-0.185643	0.000042
H305	H	-0.486964	0.780325	0.000028
H306	H	-0.487892	0.688875	0.000020
C307	C	0.125149	-0.187377	0.000055
C308	C	0.076863	-0.197197	0.000049
H309	H	0.146387	-0.217114	0.000057
H310	H	0.130905	-0.169181	-0.028871
H311	H	0.130902	-0.169182	0.028989
H312	H	0.071108	-0.215389	-0.028887
H313	H	0.071104	-0.215400	0.028977
H314	H	-0.446777	0.391080	0.000011
