data_functionalizedCrystal
_audit_creation_method	'MofGen! by Chris Wilmer'
_symmetry_space_group_name_H-M	'P1'
_symmetry_Int_Tables_number	1
_symmetry_cell_setting	triclinic
loop_
_symmetry_equiv_pos_as_xyz
  x,y,z
_cell_length_a	17.699077
_cell_length_b	15.944493
_cell_length_c	15.021413
_cell_angle_alpha	90.009890
_cell_angle_beta	89.993259
_cell_angle_gamma	83.377810
loop_
_atom_site_label
_atom_site_type_symbol
_atom_site_fract_x
_atom_site_fract_y
_atom_site_fract_z
O1	O	1.004244	0.106188	-0.074009
O2	O	1.337578	0.439521	0.259325
O3	O	1.670911	0.772854	0.592658
O4	O	0.783886	0.120013	-0.074012
O5	O	1.117220	0.453346	0.259322
O6	O	1.450553	0.786680	0.592655
O7	O	0.900106	-0.009191	-0.074017
O8	O	1.233439	0.324143	0.259316
O9	O	1.566772	0.657476	0.592649
O10	O	0.888025	0.235391	-0.074003
O11	O	1.221358	0.568725	0.259331
O12	O	1.554692	0.902058	0.592664
O13	O	0.900087	-0.009172	0.074047
O14	O	1.233421	0.324161	0.407380
O15	O	1.566754	0.657494	0.740713
O16	O	0.783868	0.120031	0.074053
O17	O	1.117201	0.453365	0.407386
O18	O	1.450534	0.786698	0.740719
O19	O	1.004226	0.106206	0.074056
O20	O	1.337559	0.439540	0.407389
O21	O	1.670892	0.772873	0.740722
Zn22	Zn	0.894044	0.113122	0.097562
Zn23	Zn	1.227377	0.446455	0.430896
Zn24	Zn	1.560711	0.779788	0.764229
Zn25	Zn	0.894068	0.113097	-0.097519
Zn26	Zn	1.227402	0.446431	0.235815
Zn27	Zn	1.560735	0.779764	0.569148
O28	O	0.888006	0.235410	0.074061
O29	O	1.221340	0.568743	0.407395
O30	O	1.554673	0.902077	0.740728
C31	C	0.755679	0.119528	0.000020
C32	C	1.089013	0.452861	0.333353
C33	C	1.422346	0.786194	0.666687
C34	C	0.671659	0.118044	0.000018
C35	C	1.004992	0.451377	0.333352
C36	C	1.338325	0.784711	0.666685
C37	C	0.632180	0.117355	0.080729
C38	C	0.965513	0.450688	0.414062
C39	C	1.298847	0.784022	0.747396
C40	C	0.553235	0.115948	0.080730
C41	C	0.886569	0.449281	0.414063
C42	C	1.219902	0.782614	0.747397
C43	C	0.513770	0.115235	0.000019
C44	C	0.847103	0.448569	0.333352
C45	C	1.180437	0.781902	0.666686
C46	C	0.553254	0.115922	-0.080698
C47	C	0.886588	0.449255	0.252635
C48	C	1.219921	0.782589	0.585969
C49	C	0.632198	0.117323	-0.080698
C50	C	0.965532	0.450657	0.252636
C51	C	1.298865	0.783990	0.585969
C52	C	0.234883	0.110269	-0.080700
C53	C	0.568216	0.443602	0.252633
C54	C	0.901549	0.776936	0.585967
C55	C	0.155933	0.108870	-0.080694
C56	C	0.489266	0.442203	0.252640
C57	C	0.822599	0.775537	0.585973
C58	C	0.155920	0.108894	0.080728
C59	C	0.489253	0.442227	0.414061
C60	C	0.822586	0.775560	0.747394
C61	C	0.234864	0.110295	0.080728
C62	C	0.568197	0.443628	0.414061
C63	C	0.901530	0.776962	0.747394
C64	C	0.274342	0.110977	0.000011
C65	C	0.607675	0.444310	0.333345
C66	C	0.941008	0.777644	0.666678
C67	C	0.359943	0.112501	0.000011
C68	C	0.693276	0.445835	0.333345
C69	C	1.026609	0.779168	0.666678
C70	C	0.428170	0.113717	0.000018
C71	C	0.761503	0.447050	0.333351
C72	C	1.094836	0.780383	0.666685
C73	C	0.899603	-0.040475	0.000011
C74	C	1.232936	0.292858	0.333344
C75	C	1.566269	0.626192	0.666678
C76	C	0.898122	-0.133721	-0.000000
C77	C	1.231456	0.199613	0.333333
C78	C	1.564789	0.532946	0.666666
C79	C	0.966532	-0.369626	0.000017
C80	C	1.299865	-0.036293	0.333351
C81	C	1.633198	0.297041	0.666684
C82	C	0.929650	-0.420125	-0.072986
C83	C	1.262984	-0.086791	0.260347
C84	C	1.596317	0.246542	0.593681
C85	C	0.895379	-0.304436	0.000010
C86	C	1.228713	0.028898	0.333344
C87	C	1.562046	0.362231	0.666677
C88	C	0.929615	-0.420083	0.072994
C89	C	1.262949	-0.086749	0.406327
C90	C	1.596282	0.246584	0.739660
C91	C	0.892735	-0.469340	0.000025
C92	C	1.226069	-0.136006	0.333358
C93	C	1.559402	0.197327	0.666691
C94	C	0.858517	-0.353706	-0.073053
C95	C	1.191850	-0.020373	0.260280
C96	C	1.525184	0.312960	0.593613
C97	C	0.858493	-0.353661	0.072992
C98	C	1.191826	-0.020327	0.406325
C99	C	1.525159	0.313006	0.739659
C100	C	0.821559	-0.404126	-0.000029
C101	C	1.154892	-0.070793	0.333304
C102	C	1.488226	0.262540	0.666637
C103	C	0.896905	-0.209439	0.000001
C104	C	1.230238	0.123894	0.333335
C105	C	1.563571	0.457228	0.666668
C106	C	0.891204	-0.564334	0.000027
C107	C	1.224538	-0.231000	0.333361
C108	C	1.557871	0.102333	0.666694
C109	C	1.032433	0.106691	0.000022
C110	C	1.365766	0.440025	0.333355
C111	C	1.699100	0.773358	0.666689
C112	C	1.116453	0.108175	0.000018
C113	C	1.449787	0.441508	0.333351
C114	C	1.783120	0.774842	0.666685
C115	C	0.888509	0.266694	0.000031
C116	C	1.221843	0.600028	0.333364
C117	C	1.555176	0.933361	0.666698
C118	C	0.889990	0.359940	0.000037
C119	C	1.223323	0.693273	0.333370
C120	C	1.556656	1.026606	0.666703
N121	N	0.894033	0.113138	0.230700
N122	N	1.227366	0.446471	0.564033
N123	N	1.560699	0.779804	0.897367
N124	N	0.894085	0.113075	-0.230656
N125	N	1.227419	0.446408	0.102677
N126	N	1.560752	0.779741	0.436011
C127	C	0.840285	0.172854	0.470386
C128	C	1.173618	0.506187	0.803719
C129	C	1.506951	0.839520	1.137053
C130	C	0.908673	0.189016	0.529723
C131	C	1.242006	0.522349	0.863056
C132	C	1.575340	0.855682	1.196389
C133	C	0.894052	0.113117	0.412307
C134	C	1.227386	0.446450	0.745640
C135	C	1.560719	0.779783	1.078974
C136	C	0.825682	0.096973	0.529712
C137	C	1.159016	0.430307	0.863045
C138	C	1.492349	0.763640	1.196379
C139	C	0.894065	0.113098	0.587731
C140	C	1.227398	0.446432	0.921064
C141	C	1.560731	0.779765	1.254398
C142	C	0.962475	0.129316	0.470337
C143	C	1.295808	0.462650	0.803671
C144	C	1.629142	0.795983	1.137004
C145	C	0.879439	0.037242	0.470321
C146	C	1.212773	0.370575	0.803655
C147	C	1.546106	0.703908	1.136988
C148	C	0.947877	0.053371	0.529631
C149	C	1.281210	0.386705	0.862965
C150	C	1.614544	0.720038	1.196298
C151	C	0.894044	0.113130	0.311250
C152	C	1.227377	0.446463	0.644583
C153	C	1.560710	0.779796	0.977916
C154	C	0.894081	0.113085	0.688786
C155	C	1.227414	0.446418	1.022120
C156	C	1.560748	0.779752	1.355453
H157	H	0.123802	0.108289	-0.146422
H158	H	0.457136	0.441623	0.186911
H159	H	0.790469	0.774956	0.520244
H160	H	0.828493	-0.324830	-0.134838
H161	H	1.161827	0.008503	0.198495
H162	H	1.495160	0.341836	0.531829
H163	H	0.828462	-0.324628	0.134713
H164	H	1.161796	0.008705	0.468047
H165	H	1.495129	0.342038	0.801380
H166	H	0.993401	0.002843	0.555481
H167	H	1.326735	0.336176	0.888815
H168	H	1.660068	0.669509	1.222148
H169	H	0.760223	-0.419462	-0.000070
H170	H	1.093556	-0.086129	0.333263
H171	H	1.426889	0.247205	0.666597
C172	C	0.675624	0.118083	-0.169486
C173	C	1.008957	0.451416	0.163847
C174	C	1.342291	0.784750	0.497181
N175	N	0.708332	0.118653	-0.236364
N176	N	1.041665	0.451986	0.096969
N177	N	1.374998	0.785320	0.430303
C178	C	0.862696	-0.049404	0.435039
C179	C	1.196029	0.283929	0.768372
C180	C	1.529362	0.617263	1.101705
N181	N	0.850076	-0.114665	0.408461
N182	N	1.183409	0.218669	0.741794
N183	N	1.516742	0.552002	1.075128
H184	H	0.959671	-0.449070	0.134708
H185	H	1.293005	-0.115737	0.468042
H186	H	1.626338	0.217597	0.801375
H187	H	0.794861	0.223412	0.444373
H188	H	1.128195	0.556745	0.777706
H189	H	1.461528	0.890078	1.111039
C190	C	0.112488	0.108133	0.169518
C191	C	0.445821	0.441467	0.502852
C192	C	0.779155	0.774800	0.836185
N193	N	0.079776	0.107562	0.236394
N194	N	0.413110	0.440895	0.569727
N195	N	0.746443	0.774229	0.903060
C196	C	0.278299	0.111012	-0.169490
C197	C	0.611632	0.444345	0.163843
C198	C	0.944966	0.777679	0.497176
N199	N	0.311003	0.111569	-0.236372
N200	N	0.644336	0.444902	0.096961
N201	N	0.977670	0.778235	0.430295
C202	C	1.049328	-0.348685	-0.000080
C203	C	1.382662	-0.015351	0.333254
C204	C	1.715995	0.317982	0.666587
N205	N	1.111689	-0.332910	-0.000157
N206	N	1.445023	0.000423	0.333176
N207	N	1.778356	0.333756	0.666510
H208	H	0.921044	0.253174	0.555814
H209	H	1.254377	0.586507	0.889147
H210	H	1.587711	0.919840	1.222481
H211	H	1.020312	0.143039	0.444366
H212	H	1.353645	0.476373	0.777699
H213	H	1.686978	0.809706	1.111033
C214	C	0.747564	0.078534	0.564942
C215	C	1.080897	0.411867	0.898276
C216	C	1.414231	0.745200	1.231609
N217	N	0.688723	0.064650	0.591474
N218	N	1.022057	0.397984	0.924807
N219	N	1.355390	0.731317	1.258141
H220	H	0.266992	0.110879	0.146451
H221	H	0.600325	0.444212	0.479784
H222	H	0.933659	0.777546	0.813118
H223	H	0.521097	0.115373	0.146453
H224	H	0.854431	0.448706	0.479786
H225	H	1.187764	0.782039	0.813119
H226	H	0.521116	0.115336	-0.146414
H227	H	0.854449	0.448669	0.186919
H228	H	1.187783	0.782003	0.520253
C229	C	0.675585	0.118138	0.169519
C230	C	1.008918	0.451471	0.502852
C231	C	1.342252	0.784805	0.836185
N232	N	0.708276	0.118724	0.236398
N233	N	1.041609	0.452057	0.569732
N234	N	1.374942	0.785391	0.903065
C235	C	0.970256	-0.459334	-0.156361
C236	C	1.303589	-0.126001	0.176972
C237	C	1.636923	0.207333	0.510306
N238	N	1.000846	-0.488867	-0.219155
N239	N	1.334179	-0.155534	0.114178
N240	N	1.667512	0.177800	0.447512
