data_functionalizedCrystal
_audit_creation_method	'MofGen! by Chris Wilmer'
_symmetry_space_group_name_H-M	'P1'
_symmetry_Int_Tables_number	1
_symmetry_cell_setting	triclinic
loop_
_symmetry_equiv_pos_as_xyz
  x,y,z
_cell_length_a	18.050591
_cell_length_b	18.050588
_cell_length_c	21.295412
_cell_angle_alpha	90.025584
_cell_angle_beta	90.025510
_cell_angle_gamma	90.022644
loop_
_atom_site_label
_atom_site_type_symbol
_atom_site_fract_x
_atom_site_fract_y
_atom_site_fract_z
Zn1	Zn	-1.135297	0.295811	-0.356088
Zn2	Zn	-0.801963	0.629144	-0.022755
Zn3	Zn	-0.468630	0.962478	0.310579
Zn4	Zn	-1.135201	0.420004	-0.250824
Zn5	Zn	-0.801868	0.753337	0.082510
Zn6	Zn	-0.468535	1.086671	0.415843
Zn7	Zn	-1.011113	0.295817	-0.250816
Zn8	Zn	-0.677779	0.629151	0.082517
Zn9	Zn	-0.344446	0.962484	0.415850
Zn10	Zn	-1.011061	0.419949	-0.356039
Zn11	Zn	-0.677728	0.753282	-0.022706
Zn12	Zn	-0.344394	1.086616	0.310628
O13	O	-1.073168	0.357895	-0.303442
O14	O	-0.739835	0.691229	0.029892
O15	O	-0.406501	1.024562	0.363225
O16	O	-1.239209	0.312306	-0.342148
O17	O	-0.905875	0.645639	-0.008815
O18	O	-0.572542	0.978973	0.324518
O19	O	-1.118722	0.403556	-0.162733
O20	O	-0.785389	0.736889	0.170600
O21	O	-0.452056	1.070223	0.503933
O22	O	-1.027648	0.191892	-0.264799
O23	O	-0.694314	0.525225	0.068535
O24	O	-0.360981	0.858559	0.401868
O25	O	-1.239138	0.403550	-0.264811
O26	O	-0.905805	0.736883	0.068522
O27	O	-0.572472	1.070217	0.401856
O28	O	-1.118885	0.191887	-0.342141
O29	O	-0.785552	0.525221	-0.008808
O30	O	-0.452218	0.858554	0.324526
O31	O	-1.027555	0.312317	-0.162728
O32	O	-0.694222	0.645650	0.170605
O33	O	-0.360888	0.978983	0.503939
O34	O	-0.907181	0.312263	-0.264751
O35	O	-0.573848	0.645597	0.068583
O36	O	-0.240515	0.978930	0.401916
O37	O	-1.027560	0.403456	-0.444135
O38	O	-0.694226	0.736789	-0.110801
O39	O	-0.360893	1.070123	0.222532
O40	O	-0.907143	0.403462	-0.342057
O41	O	-0.573810	0.736795	-0.008724
O42	O	-0.240477	1.070129	0.324609
O43	O	-1.118835	0.312253	-0.444171
O44	O	-0.785502	0.645586	-0.110838
O45	O	-0.452168	0.978919	0.222496
O46	O	-1.118672	0.523921	-0.264763
O47	O	-0.785339	0.857255	0.068570
O48	O	-0.452006	1.190588	0.401903
O49	O	-1.027467	0.523881	-0.342064
O50	O	-0.694134	0.857214	-0.008731
O51	O	-0.360800	1.190547	0.324602
C52	C	-0.880216	0.357858	-0.303398
C53	C	-0.546882	0.691191	0.029935
C54	C	-0.213549	1.024525	0.363268
C55	C	-0.797670	0.357860	-0.303395
C56	C	-0.464337	0.691193	0.029939
C57	C	-0.131003	1.024526	0.363272
C58	C	-0.598218	0.308198	-0.261443
C59	C	-0.264885	0.641531	0.071890
C60	C	0.068448	0.974865	0.405224
C61	C	-0.548797	0.375933	-0.245951
C62	C	-0.215463	0.709266	0.087382
C63	C	0.117870	1.042600	0.420716
C64	C	-0.646540	0.357875	-0.303416
C65	C	-0.313206	0.691208	0.029917
C66	C	0.020127	1.024541	0.363251
C67	C	-0.548880	0.290156	-0.318900
C68	C	-0.215546	0.623489	0.014433
C69	C	0.117787	0.956822	0.347767
C70	C	-0.500555	0.357883	-0.303436
C71	C	-0.167221	0.691216	0.029898
C72	C	0.166112	1.024550	0.363231
C73	C	-0.598205	0.425645	-0.287894
C74	C	-0.264872	0.758978	0.045439
C75	C	0.068462	1.092312	0.378773
C76	C	-0.598292	0.339822	-0.360870
C77	C	-0.264959	0.673156	-0.027536
C78	C	0.068374	1.006489	0.305797
C79	C	-0.548893	0.407604	-0.345399
C80	C	-0.215560	0.740937	-0.012066
C81	C	0.117774	1.074270	0.321267
C82	C	-0.730638	0.357869	-0.303403
C83	C	-0.397305	0.691202	0.029930
C84	C	-0.063971	1.024535	0.363263
C85	C	-0.416458	0.357896	-0.303449
C86	C	-0.083125	0.691230	0.029885
C87	C	0.250209	1.024563	0.363218
C88	C	-1.073202	0.357847	-0.467632
C89	C	-0.739869	0.691181	-0.134299
C90	C	-0.406535	1.024514	0.199035
C91	C	-1.073217	0.357827	-0.537600
C92	C	-0.739883	0.691160	-0.204267
C93	C	-0.406550	1.024494	0.129066
C94	C	-1.073074	0.550848	-0.303423
C95	C	-0.739740	0.884181	0.029910
C96	C	-0.406407	1.217514	0.363244
C97	C	-1.073101	0.633393	-0.303436
C98	C	-0.739768	0.966727	0.029897
C99	C	-0.406435	1.300060	0.363231
C100	C	-0.266873	0.357921	-0.303475
C101	C	0.066460	0.691254	0.029859
C102	C	0.399793	1.024587	0.363192
C103	C	-0.349419	0.357899	-0.303459
C104	C	-0.016086	0.691232	0.029874
C105	C	0.317247	1.024565	0.363207
C106	C	-1.073283	0.164190	-0.303475
C107	C	-0.739949	0.497523	0.029859
C108	C	-0.406616	0.830856	0.363192
C109	C	-1.073332	0.081644	-0.303488
C110	C	-0.739998	0.414977	0.029845
C111	C	-0.406665	0.748311	0.363178
C112	C	-1.023582	0.882224	-0.345473
C113	C	-0.690249	1.215557	-0.012139
C114	C	-0.356915	1.548890	0.321194
C115	C	-1.091299	0.832762	-0.360929
C116	C	-0.757966	1.166095	-0.027596
C117	C	-0.424632	1.499429	0.305738
C118	C	-1.073256	0.930514	-0.303471
C119	C	-0.739922	1.263847	0.029862
C120	C	-0.406589	1.597180	0.363196
C121	C	-1.005466	0.832894	-0.288027
C122	C	-0.672133	1.166227	0.045306
C123	C	-0.338800	1.499560	0.378640
C124	C	-1.073176	0.784529	-0.303455
C125	C	-0.739843	1.117862	0.029878
C126	C	-0.406510	1.451195	0.363211
C127	C	-1.141009	0.882139	-0.318957
C128	C	-0.807675	1.215472	0.014376
C129	C	-0.474342	1.548806	0.347709
C130	C	-1.055131	0.882275	-0.246028
C131	C	-0.721797	1.215609	0.087305
C132	C	-0.388464	1.548942	0.420638
C133	C	-1.122894	0.832836	-0.261463
C134	C	-0.789561	1.166169	0.071870
C135	C	-0.456228	1.499502	0.405204
C136	C	-1.073300	1.014612	-0.303482
C137	C	-0.739967	1.347945	0.029852
C138	C	-0.406634	1.681279	0.363185
C139	C	-1.073139	0.700432	-0.303445
C140	C	-0.739806	1.033765	0.029889
C141	C	-0.406473	1.367099	0.363222
C142	C	-1.120814	0.310220	-1.037078
C143	C	-0.787481	0.643553	-0.703745
C144	C	-0.454148	0.976886	-0.370412
C145	C	-1.120809	0.310238	-0.971336
C146	C	-0.787475	0.643571	-0.638002
C147	C	-0.454142	0.976904	-0.304669
C148	C	-1.073281	0.357729	-0.938440
C149	C	-0.739948	0.691062	-0.605107
C150	C	-0.406614	1.024396	-0.271773
C151	C	-1.025769	0.405219	-0.971292
C152	C	-0.692436	0.738552	-0.637959
C153	C	-0.359103	1.071886	-0.304625
C154	C	-1.025782	0.405205	-1.037033
C155	C	-0.692448	0.738538	-0.703700
C156	C	-0.359115	1.071872	-0.370367
N157	N	-1.008251	0.363435	-0.835203
N158	N	-0.674918	0.696769	-0.501870
N159	N	-0.341584	1.030102	-0.168536
N160	N	-1.008241	0.363445	-0.772752
N161	N	-0.674908	0.696778	-0.439418
N162	N	-0.341575	1.030111	-0.106085
C163	C	-1.073242	0.357775	-0.740365
C164	C	-0.739909	0.691109	-0.407032
C165	C	-0.406575	1.024442	-0.073698
N166	N	-1.138254	0.352082	-0.772789
N167	N	-0.804921	0.685416	-0.439456
N168	N	-0.471588	1.018749	-0.106123
N169	N	-1.138263	0.352069	-0.835247
N170	N	-0.804930	0.685403	-0.501913
N171	N	-0.471596	1.018736	-0.168580
C172	C	-1.073263	0.357750	-0.867155
C173	C	-0.739929	0.691083	-0.533821
C174	C	-0.406596	1.024416	-0.200488
C175	C	-1.120748	0.310311	-0.636235
C176	C	-0.787415	0.643645	-0.302902
C177	C	-0.454082	0.976978	0.030431
C178	C	-1.120744	0.310334	-0.570492
C179	C	-0.787410	0.643668	-0.237158
C180	C	-0.454077	0.977001	0.096175
C181	C	-1.025698	0.405312	-0.570449
C182	C	-0.692365	0.738645	-0.237116
C183	C	-0.359031	1.071979	0.096218
C184	C	-1.025709	0.405293	-0.636192
C185	C	-0.692376	0.738626	-0.302858
C186	C	-0.359042	1.071959	0.030475
C187	C	-1.073233	0.357788	-0.669081
C188	C	-0.739900	0.691122	-0.335747
C189	C	-0.406567	1.024455	-0.002414
C190	C	-1.073177	0.357890	-0.139890
C191	C	-0.739843	0.691223	0.193443
C192	C	-0.406510	1.024556	0.526776
C193	C	-1.073306	0.357701	-0.069923
C194	C	-0.739973	0.691034	0.263411
C195	C	-0.406639	1.024367	0.596744
H196	H	-0.527372	0.449665	-0.380903
H197	H	-0.194038	0.782999	-0.047570
H198	H	0.139295	1.116332	0.285764
C199	C	-0.627629	0.319192	-0.426502
C200	C	-0.294296	0.652525	-0.093168
C201	C	0.039037	0.985858	0.240165
H202	H	-0.656558	0.358858	-0.442555
H203	H	-0.323225	0.692192	-0.109222
H204	H	0.010109	1.025525	0.224111
H205	H	-0.657347	0.275884	-0.423611
H206	H	-0.324013	0.609217	-0.090278
H207	H	0.009320	0.942551	0.243056
H208	H	-0.587058	0.310120	-0.453843
H209	H	-0.253725	0.643454	-0.120509
H210	H	0.079608	0.976787	0.212824
H211	H	-1.106600	0.811015	-0.409500
H212	H	-0.773267	1.144348	-0.076167
H213	H	-0.439934	1.477682	0.257166
C214	C	-0.966955	0.911529	-0.393498
C215	C	-0.633622	1.244862	-0.060165
C216	C	-0.300289	1.578195	0.273168
H217	H	-0.979931	0.894574	-0.434288
H218	H	-0.646597	1.227907	-0.100955
H219	H	-0.313264	1.561240	0.232379
H220	H	-0.918948	0.893946	-0.382935
H221	H	-0.585615	1.227279	-0.049602
H222	H	-0.252281	1.560612	0.283732
H223	H	-0.967067	0.964154	-0.392908
H224	H	-0.633734	1.297488	-0.059575
H225	H	-0.300400	1.630821	0.273758
C226	C	-1.173061	0.257998	-0.935199
C227	C	-0.839727	0.591331	-0.601866
C228	C	-0.506394	0.924664	-0.268533
H229	H	-1.201360	0.229700	-0.964203
H230	H	-0.868027	0.563033	-0.630870
H231	H	-0.534694	0.896366	-0.297536
H232	H	-1.205401	0.286407	-0.909550
H233	H	-0.872068	0.619740	-0.576217
H234	H	-0.538734	0.953074	-0.242884
H235	H	-1.144648	0.225644	-0.909559
H236	H	-0.811314	0.558977	-0.576226
H237	H	-0.477981	0.892310	-0.242893
H238	H	-0.987073	0.443888	-0.944504
H239	H	-0.653740	0.777221	-0.611171
H240	H	-0.320407	1.110555	-0.277837
H241	H	-0.527057	0.391210	-0.197372
H242	H	-0.193724	0.724544	0.135961
H243	H	0.139610	1.057877	0.469295
C244	C	-1.173006	0.258103	-0.534363
C245	C	-0.839673	0.591436	-0.201029
C246	C	-0.506339	0.924769	0.132304
H247	H	-1.201304	0.229806	-0.563368
H248	H	-0.867971	0.563140	-0.230035
H249	H	-0.534637	0.896473	0.103298
H250	H	-1.205347	0.286519	-0.508720
H251	H	-0.872014	0.619852	-0.175386
H252	H	-0.538681	0.953185	0.157947
H253	H	-1.144603	0.225747	-0.508717
H254	H	-0.811269	0.559080	-0.175383
H255	H	-0.477936	0.892413	0.157950
H256	H	-0.987019	0.443954	-0.662934
H257	H	-0.653686	0.777287	-0.329600
H258	H	-0.320353	1.110621	0.003733
H259	H	-0.987003	0.443983	-0.543666
H260	H	-0.653670	0.777316	-0.210333
H261	H	-0.320336	1.110650	0.123001
H262	H	-1.159515	0.271541	-1.063853
H263	H	-0.826182	0.604875	-0.730519
H264	H	-0.492849	0.938208	-0.397186
C265	C	-0.627347	0.503036	-0.270134
C266	C	-0.294014	0.836370	0.063199
C267	C	0.039320	1.169703	0.396532
H268	H	-0.679977	0.502554	-0.270214
H269	H	-0.346644	0.835888	0.063119
H270	H	-0.013310	1.169221	0.396452
H271	H	-0.610064	0.538353	-0.299769
H272	H	-0.276730	0.871686	0.033564
H273	H	0.056603	1.205019	0.366897
H274	H	-0.609989	0.515940	-0.229452
H275	H	-0.276656	0.849273	0.103882
H276	H	0.056678	1.182606	0.437215
C277	C	-0.973515	0.457431	-1.073163
C278	C	-0.640182	0.790765	-0.739830
C279	C	-0.306849	1.124098	-0.406497
H280	H	-0.945205	0.485717	-1.044159
H281	H	-0.611872	0.819050	-0.710825
H282	H	-0.278538	1.152383	-0.377492
H283	H	-1.001908	0.489786	-1.098812
H284	H	-0.668575	0.823119	-0.765479
H285	H	-0.335242	1.156453	-0.432146
H286	H	-0.941174	0.429004	-1.098804
H287	H	-0.607840	0.762337	-0.765470
H288	H	-0.274507	1.095671	-0.432137
H289	H	-1.198320	0.903682	-0.332069
H290	H	-0.864987	1.237015	0.001264
H291	H	-0.531654	1.570348	0.334597
C292	C	-0.519612	0.212788	-0.336586
C293	C	-0.186279	0.546121	-0.003253
C294	C	0.147055	0.879455	0.330081
H295	H	-0.536510	0.177553	-0.306715
H296	H	-0.203177	0.510887	0.026618
H297	H	0.130156	0.844220	0.359952
H298	H	-0.466991	0.213453	-0.336844
H299	H	-0.133658	0.546786	-0.003510
H300	H	0.199676	0.880119	0.329823
H301	H	-0.537295	0.199621	-0.377107
H302	H	-0.203962	0.532955	-0.043774
H303	H	0.129372	0.866288	0.289559
C304	C	-1.173023	0.258065	-0.672419
C305	C	-0.839690	0.591398	-0.339086
C306	C	-0.506357	0.924732	-0.005752
H307	H	-1.166219	0.264849	-0.716277
H308	H	-0.832886	0.598182	-0.382943
H309	H	-0.499552	0.931515	-0.049610
H310	H	-1.222915	0.268942	-0.661658
H311	H	-0.889582	0.602275	-0.328325
H312	H	-0.556248	0.935608	0.005008
H313	H	-1.162174	0.208166	-0.661650
H314	H	-0.828841	0.541499	-0.328317
H315	H	-0.495507	0.874833	0.005017
C316	C	-1.179656	0.803709	-0.213475
C317	C	-0.846323	1.137042	0.119858
C318	C	-0.512989	1.470375	0.453191
H319	H	-1.154917	0.774779	-0.182674
H320	H	-0.821583	1.108112	0.150659
H321	H	-0.488250	1.441446	0.483992
H322	H	-1.215438	0.774027	-0.234417
H323	H	-0.882105	1.107361	0.098916
H324	H	-0.548772	1.440694	0.432250
H325	H	-1.203624	0.844353	-0.193723
H326	H	-0.870291	1.177687	0.139610
H327	H	-0.536958	1.511020	0.472944
C328	C	-0.627485	0.251515	-0.213448
C329	C	-0.294152	0.584849	0.119886
C330	C	0.039182	0.918182	0.453219
H331	H	-0.610536	0.264469	-0.172652
H332	H	-0.277202	0.597803	0.160682
H333	H	0.056131	0.931136	0.494015
H334	H	-0.609872	0.203528	-0.224039
H335	H	-0.276538	0.536861	0.109294
H336	H	0.056795	0.870194	0.442627
H337	H	-0.680111	0.251594	-0.214035
H338	H	-0.346777	0.584927	0.119298
H339	H	-0.013444	0.918261	0.452631
C340	C	-1.034433	0.911685	-0.180435
C341	C	-0.701099	1.245019	0.152898
C342	C	-0.367766	1.578352	0.486231
H343	H	-0.986255	0.894857	-0.169529
H344	H	-0.652922	1.228191	0.163804
H345	H	-0.319588	1.561524	0.497138
H346	H	-1.069197	0.894042	-0.150486
H347	H	-0.735864	1.227376	0.182847
H348	H	-0.402531	1.560709	0.516181
H349	H	-1.035056	0.964309	-0.180830
H350	H	-0.701723	1.297643	0.152503
H351	H	-0.368390	1.630976	0.485837
H352	H	-0.948171	0.811258	-0.274971
H353	H	-0.614838	1.144592	0.058362
H354	H	-0.281505	1.477925	0.391695
