data_functionalizedCrystal
_audit_creation_method	'MofGen! by Chris Wilmer'
_symmetry_space_group_name_H-M	'P1'
_symmetry_Int_Tables_number	1
_symmetry_cell_setting	triclinic
loop_
_symmetry_equiv_pos_as_xyz
  x,y,z
_cell_length_a	16.959455
_cell_length_b	29.839131
_cell_length_c	16.959447
_cell_angle_alpha	89.966004
_cell_angle_beta	89.982678
_cell_angle_gamma	90.040848
loop_
_atom_site_label
_atom_site_type_symbol
_atom_site_fract_x
_atom_site_fract_y
_atom_site_fract_z
Zn1	Zn	1.208287	-0.178851	-0.446897
Zn2	Zn	1.208154	-0.253984	-0.314710
Zn3	Zn	1.076109	-0.178868	-0.314734
Zn4	Zn	1.076031	-0.253954	-0.446848
O5	O	1.142145	-0.216414	-0.380797
O6	O	1.318880	-0.188823	-0.429373
O7	O	1.190615	-0.244040	-0.204102
O8	O	1.093731	-0.115999	-0.332296
O9	O	1.318783	-0.244023	-0.332256
O10	O	1.190842	-0.115986	-0.429396
O11	O	1.093603	-0.188853	-0.204119
O12	O	0.965488	-0.188823	-0.332248
O13	O	1.093598	-0.243971	-0.557465
O14	O	0.965430	-0.243988	-0.429312
O15	O	1.190766	-0.188793	-0.557501
O16	O	1.190539	-0.316847	-0.332208
O17	O	1.093469	-0.316825	-0.429289
C18	C	0.936779	-0.216405	-0.380778
C19	C	0.848922	-0.216411	-0.380788
C20	C	0.807596	-0.245111	-0.330152
C21	C	0.807696	-0.187716	-0.431431
C22	C	0.725150	-0.187719	-0.431440
C23	C	0.683823	-0.216418	-0.380804
C24	C	0.725042	-0.245114	-0.330158
C25	C	0.683924	-0.159021	-0.482079
C26	C	0.601373	-0.159023	-0.482090
C27	C	0.560045	-0.187725	-0.431457
C28	C	0.601270	-0.216422	-0.380810
C29	C	0.559943	-0.245121	-0.330174
C30	C	0.601166	-0.273821	-0.279530
C31	C	0.683714	-0.273816	-0.279525
C32	C	0.477497	-0.187730	-0.431462
C33	C	0.477389	-0.245125	-0.330180
C34	C	1.142003	-0.333137	-0.380758
C35	C	1.142014	-0.383071	-0.380768
C36	C	1.192782	-0.692714	-0.330321
C37	C	1.192879	-0.880387	-0.330352
O38	O	1.235931	-0.904651	-0.287430
N39	N	1.142309	-0.903856	-0.380857
C40	C	1.091715	-0.880405	-0.431361
O41	O	1.048710	-0.904674	-0.474326
C42	C	1.091622	-0.692733	-0.431334
C43	C	1.142190	-0.669266	-0.380820
C44	C	1.243346	-0.669247	-0.279811
C45	C	1.243318	-0.622331	-0.279801
C46	C	1.192726	-0.598883	-0.330300
C47	C	1.142162	-0.622350	-0.380810
C48	C	1.041032	-0.669282	-0.481842
C49	C	1.041015	-0.622361	-0.481832
C50	C	1.091582	-0.598894	-0.431318
C51	C	1.091541	-0.551986	-0.431299
N52	N	1.142112	-0.528517	-0.380794
C53	C	1.192704	-0.551965	-0.330294
C54	C	1.091766	-0.978936	-0.431371
C55	C	1.091788	-1.025853	-0.431377
C56	C	1.192954	-1.025832	-0.330368
C57	C	1.192927	-0.978913	-0.330359
C58	C	1.142336	-0.955466	-0.380866
C59	C	1.192641	-0.453439	-0.330276
C60	C	1.192606	-0.406520	-0.330268
C61	C	1.091444	-0.406545	-0.431280
C62	C	1.091475	-0.453461	-0.431285
C63	C	1.142080	-0.476907	-0.380781
O64	O	1.048519	-0.527694	-0.474204
O65	O	1.235715	-0.527688	-0.287349
C66	C	1.192810	-0.739629	-0.330331
C67	C	1.142245	-0.763096	-0.380840
C68	C	1.091653	-0.739648	-0.431340
C69	C	1.142268	-0.810014	-0.380846
C70	C	1.192860	-0.833463	-0.330347
C71	C	1.243430	-0.809993	-0.279842
C72	C	1.243402	-0.763077	-0.279832
C73	C	1.041083	-0.763118	-0.481845
C74	C	1.041115	-0.810033	-0.481850
C75	C	1.091707	-0.833482	-0.431351
C76	C	1.348314	-0.216425	-0.380817
C77	C	1.436170	-0.216429	-0.380826
C78	C	1.142188	-0.216377	-0.586965
C79	C	1.142206	-0.216361	-0.674822
C80	C	1.142310	-0.099236	-0.380854
C81	C	1.142380	-0.049302	-0.380878
C82	C	1.091765	-0.187580	-1.046313
C83	C	1.192785	-0.245047	-1.046283
C84	C	1.192772	-0.245058	-0.963737
C85	C	1.142253	-0.216330	-0.922475
C86	C	1.091748	-0.187591	-0.963760
C87	C	1.243270	-0.273799	-0.922446
C88	C	1.243258	-0.273811	-0.839895
C89	C	1.192743	-0.245080	-0.798632
C90	C	1.142236	-0.216340	-0.839922
C91	C	1.091718	-0.187612	-0.798660
C92	C	1.041215	-0.158869	-0.839948
C93	C	1.041233	-0.158860	-0.922496
C94	C	1.192724	-0.245089	-0.716084
C95	C	1.091701	-0.187622	-0.716106
C96	C	1.142149	-0.216419	-0.175431
C97	C	1.142284	-0.216309	-0.087575
H98	H	0.841349	-0.164348	-0.472653
C99	C	0.810511	-0.133537	-0.527038
C100	C	0.729350	-0.127476	-0.537735
H101	H	0.838556	-0.114063	-0.561403
H102	H	0.824022	-0.126927	-0.473954
H103	H	0.823997	-0.163731	-0.538515
H104	H	0.715863	-0.097282	-0.526252
H105	H	0.715833	-0.134082	-0.590830
H106	H	1.050566	-0.164226	-0.682517
H107	H	1.284390	-0.297193	-0.956047
H108	H	0.567817	-0.135654	-0.523328
C109	C	0.900353	-0.305532	-0.318978
C110	C	0.852906	-0.276655	-0.274486
H111	H	0.928329	-0.325004	-0.284610
H112	H	0.868140	-0.322738	-0.353357
H113	H	0.936776	-0.288435	-0.349131
H114	H	0.816478	-0.293752	-0.244337
H115	H	0.885122	-0.259447	-0.240093
H116	H	0.443937	-0.164359	-0.472690
H117	H	1.284549	-0.688333	-0.238689
C118	C	0.575665	-0.295618	-0.145618
C119	C	0.555733	-0.305366	-0.223870
H120	H	0.547610	-0.315091	-0.111259
H121	H	0.630719	-0.299730	-0.138370
H122	H	0.562169	-0.265424	-0.134154
H123	H	0.569235	-0.335559	-0.235336
H124	H	0.500666	-0.301258	-0.231121
C125	C	1.292612	-0.411218	-0.230426
C126	C	1.248198	-0.380725	-0.274743
H127	H	1.326934	-0.395294	-0.196153
H128	H	1.258202	-0.429549	-0.200166
H129	H	1.322832	-0.429487	-0.264907
H130	H	1.217973	-0.362459	-0.240262
H131	H	1.282612	-0.362387	-0.305006
C132	C	0.776487	-0.334229	-0.268346
C133	C	0.729032	-0.305356	-0.223857
H134	H	0.804470	-0.353697	-0.233977
H135	H	0.744280	-0.351440	-0.302724
H136	H	0.812905	-0.317129	-0.298501
H137	H	0.692609	-0.322456	-0.193706
H138	H	0.761242	-0.288144	-0.189466
H139	H	1.284622	-0.829093	-0.238722
C140	C	1.299034	-0.506124	-0.319401
C141	C	1.248278	-0.479201	-0.274767
H142	H	1.333386	-0.522024	-0.285131
H143	H	1.268929	-0.526822	-0.349465
H144	H	1.329219	-0.487782	-0.353871
H145	H	1.218089	-0.497544	-0.240301
H146	H	1.278387	-0.458501	-0.244690
H147	H	1.000080	-0.135480	-0.806342
H148	H	0.999886	-0.744030	-0.522968
H149	H	1.000116	-0.135460	-0.956120
C150	C	1.343328	-0.627037	-0.179975
C151	C	1.298916	-0.596540	-0.224286
H152	H	1.377659	-0.611116	-0.145706
H153	H	1.308916	-0.645365	-0.149709
H154	H	1.373538	-0.645309	-0.214460
H155	H	1.268702	-0.578270	-0.189801
H156	H	1.333332	-0.578205	-0.254553
C157	C	1.349554	-0.280067	-0.747072
C158	C	1.298772	-0.305401	-0.794512
H159	H	1.383824	-0.299570	-0.719050
H160	H	1.379819	-0.260496	-0.779295
H161	H	1.319457	-0.262961	-0.710688
H162	H	1.328869	-0.322505	-0.830900
H163	H	1.268504	-0.324980	-0.762286
C164	C	1.052874	-0.392063	-0.565088
C165	C	1.035842	-0.380764	-0.486794
H166	H	1.018549	-0.376147	-0.599363
H167	H	1.105970	-0.384342	-0.576684
H168	H	1.045640	-0.423364	-0.572317
H169	H	1.043082	-0.349463	-0.479564
H170	H	0.982734	-0.388482	-0.475194
C171	C	0.451877	-0.321174	-0.291442
C172	C	0.431968	-0.276673	-0.274517
H173	H	0.423839	-0.340650	-0.257075
H174	H	0.438353	-0.327780	-0.344524
H175	H	0.506942	-0.325273	-0.284193
H176	H	0.376904	-0.272573	-0.281772
H177	H	0.445486	-0.270065	-0.221422
C178	C	1.292924	-0.983616	-0.230517
C179	C	1.248517	-0.953121	-0.274837
H180	H	1.327247	-0.967693	-0.196244
H181	H	1.258508	-1.001944	-0.200257
H182	H	1.323141	-1.001887	-0.264996
H183	H	1.218295	-0.934851	-0.240359
H184	H	1.282937	-0.934785	-0.305100
C185	C	1.237987	-1.097748	-0.285624
C186	C	1.248626	-1.051612	-0.274918
H187	H	1.272378	-1.113664	-0.251415
H188	H	1.184915	-1.105484	-0.273947
H189	H	1.249466	-1.105386	-0.338769
H190	H	1.237142	-1.043974	-0.221774
H191	H	1.301710	-1.043873	-0.286589
H192	H	1.233909	-0.268440	-1.079883
C193	C	0.991794	-1.021150	-0.531222
C194	C	1.036198	-1.051645	-0.486899
H195	H	0.957481	-1.037073	-0.565506
H196	H	0.961573	-1.002883	-0.496752
H197	H	1.026218	-1.002818	-0.561479
H198	H	1.001774	-1.069975	-0.456638
H199	H	1.066421	-1.069920	-0.521374
C200	C	1.080673	-0.926148	-0.537697
C201	C	1.036145	-0.953167	-0.486891
H202	H	1.046332	-0.910244	-0.571973
H203	H	1.110775	-0.905453	-0.507624
H204	H	1.115103	-0.944424	-0.567961
H205	H	1.001720	-0.934890	-0.456623
H206	H	1.006030	-0.973865	-0.516967
C207	C	0.941053	-0.664570	-0.581698
C208	C	0.985450	-0.695069	-0.537376
H209	H	0.906742	-0.680491	-0.615988
H210	H	0.910829	-0.646305	-0.547227
H211	H	0.975481	-0.646237	-0.611948
H212	H	0.951023	-0.713400	-0.507121
H213	H	1.015676	-0.713342	-0.571851
C214	C	1.029941	-0.569566	-0.588146
C215	C	0.985402	-0.596588	-0.537353
H216	H	0.995607	-0.553658	-0.622423
H217	H	1.060042	-0.548875	-0.558063
H218	H	1.064372	-0.587842	-0.618409
H219	H	0.950975	-0.578311	-0.507085
H220	H	0.955288	-0.617281	-0.567439
C221	C	0.985167	-0.506283	-0.442188
C222	C	1.035883	-0.479257	-0.486805
H223	H	0.950847	-0.522203	-0.476469
H224	H	1.015302	-0.526964	-0.412127
H225	H	0.954945	-0.488010	-0.407716
H226	H	1.066109	-0.497531	-0.521273
H227	H	1.005744	-0.458574	-0.516879
C228	C	1.203588	-0.305531	-0.623212
C229	C	1.248227	-0.276682	-0.670698
H230	H	1.237857	-0.325037	-0.595197
H231	H	1.173510	-0.288420	-0.586829
H232	H	1.169132	-0.322707	-0.655408
H233	H	1.282680	-0.259503	-0.638501
H234	H	1.278319	-0.293794	-0.707085
H235	H	1.284579	-0.743974	-0.238699
H236	H	1.050649	-0.164177	-1.079933
H237	H	0.999929	-0.829136	-0.522984
