data_functionalizedCrystal
_audit_creation_method	'MofGen! by Chris Wilmer'
_symmetry_space_group_name_H-M	'P1'
_symmetry_Int_Tables_number	1
_symmetry_cell_setting	triclinic
loop_
_symmetry_equiv_pos_as_xyz
  x,y,z
_cell_length_a	19.188930
_cell_length_b	10.489741
_cell_length_c	9.565339
_cell_angle_alpha	89.999100
_cell_angle_beta	89.995116
_cell_angle_gamma	83.841978
loop_
_atom_site_label
_atom_site_type_symbol
_atom_site_fract_x
_atom_site_fract_y
_atom_site_fract_z
O1	O	0.098497	1.691850	-0.116191
O2	O	0.598497	2.191850	0.383809
O3	O	0.107743	1.320448	-0.116215
O4	O	0.607743	1.820448	0.383785
O5	O	0.001537	1.516867	-0.116175
O6	O	0.501537	2.016867	0.383825
O7	O	0.204704	1.495431	-0.116231
O8	O	0.704704	1.995431	0.383769
O9	O	0.001543	1.516852	0.116345
O10	O	0.501543	2.016852	0.616345
O11	O	0.107750	1.320432	0.116305
O12	O	0.607750	1.820432	0.616305
O13	O	0.098504	1.691835	0.116329
O14	O	0.598504	2.191835	0.616329
Zn15	Zn	0.103128	1.506131	0.153235
Zn16	Zn	0.603128	2.006131	0.653235
Zn17	Zn	0.103119	1.506152	-0.153121
Zn18	Zn	0.603119	2.006152	0.346879
O19	O	0.204711	1.495416	0.116289
O20	O	0.704711	1.995416	0.616289
C21	C	0.107048	1.272924	0.000043
C22	C	0.607048	1.772924	0.500043
C23	C	0.104959	1.131341	0.000035
C24	C	0.604959	1.631341	0.500035
C25	C	0.037383	1.064712	0.000067
C26	C	0.537383	1.564712	0.500067
C27	C	0.069302	0.971879	-0.114584
C28	C	0.569302	1.471879	0.385416
C29	C	0.069325	0.971898	0.114663
C30	C	0.569325	1.471898	0.614663
C31	C	0.136906	1.040373	-0.114710
C32	C	0.636906	1.540373	0.385290
C33	C	0.136919	1.040401	0.114640
C34	C	0.636919	1.540401	0.614640
C35	C	0.168887	0.947595	-0.000039
C36	C	0.668887	1.447595	0.499961
C37	C	-0.024476	1.516165	0.000089
C38	C	0.475524	2.016165	0.500089
C39	C	-0.101994	1.514081	0.000101
C40	C	0.398006	2.014081	0.500101
C41	C	-0.146146	1.629334	0.000115
C42	C	0.353854	2.129334	0.500115
C43	C	-0.218983	1.627376	0.000092
C44	C	0.281017	2.127376	0.500092
C45	C	-0.247665	1.510159	0.000084
C46	C	0.252335	2.010159	0.500084
C47	C	-0.203503	1.394892	0.000062
C48	C	0.296497	1.894892	0.500062
C49	C	-0.130668	1.396853	0.000071
C50	C	0.369332	1.896853	0.500071
N51	N	-0.356268	1.420556	0.079209
N52	N	0.143732	1.920556	0.579209
N53	N	-0.425459	1.418701	0.079204
N54	N	0.074541	1.918701	0.579204
C55	C	-0.467113	1.504244	0.000055
C56	C	0.032887	2.004244	0.500055
N57	N	-0.436964	1.591732	-0.079071
N58	N	0.063036	2.091732	0.420929
N59	N	-0.367767	1.593590	-0.079059
N60	N	0.132233	2.093590	0.420941
C61	C	-0.326642	1.508020	0.000074
C62	C	0.173358	2.008020	0.500074
C63	C	-0.590244	1.617382	0.000043
C64	C	-0.090244	2.117382	0.500043
C65	C	-0.663081	1.615419	0.000012
C66	C	-0.163081	2.115419	0.500012
C67	C	-0.647600	1.382932	-0.000004
C68	C	-0.147600	1.882932	0.499996
C69	C	-0.574764	1.384898	0.000013
C70	C	-0.074764	1.884898	0.500013
C71	C	-0.546090	1.502126	0.000043
C72	C	-0.046090	2.002126	0.500043
C73	C	0.230723	1.496118	0.000022
C74	C	0.730723	1.996118	0.500022
C75	C	0.308242	1.498202	0.000001
C76	C	0.808242	1.998202	0.500001
C77	C	0.099199	1.739359	0.000068
C78	C	0.599199	2.239359	0.500068
C79	C	0.101288	1.880941	0.000067
C80	C	0.601288	2.380941	0.500067
N81	N	0.103134	1.506127	0.362314
N82	N	0.603134	2.006127	0.862314
N83	N	0.103108	1.506166	-0.362200
N84	N	0.603108	2.006166	0.137800
C85	C	0.152234	1.415262	0.453499
C86	C	0.652234	1.915262	0.953499
C87	C	0.166361	1.530443	0.546681
C88	C	0.666361	2.030443	1.046681
C89	C	0.089012	1.390995	0.546688
C90	C	0.589012	1.890995	1.046688
C91	C	0.117292	1.621366	0.453444
C92	C	0.617292	2.121366	0.953444
C93	C	0.039916	1.481842	0.453443
C94	C	0.539916	1.981842	0.953443
C95	C	0.054016	1.597107	0.546583
C96	C	0.554016	2.097107	1.046583
H97	H	0.165474	1.070569	-0.211748
H98	H	0.665474	1.570569	0.288252
H99	H	0.040722	0.941553	0.211592
H100	H	0.540722	1.441553	0.711592
N101	N	-0.529670	1.267157	0.000003
N102	N	-0.029670	1.767157	0.500003
N103	N	-0.555284	1.162505	-0.000010
N104	N	-0.055284	1.662505	0.499990
H105	H	-0.523437	1.079344	-0.000020
H106	H	-0.023437	1.579344	0.499980
H107	H	-0.699030	1.709275	0.000015
H108	H	-0.199030	2.209275	0.500015
H109	H	0.165492	1.070802	0.211559
H110	H	0.665492	1.570802	0.711559
H111	H	-0.670952	1.287492	-0.000018
H112	H	-0.170952	1.787492	0.499982
N113	N	-0.027114	1.456015	0.401989
N114	N	0.472886	1.956015	0.901989
N115	N	-0.062305	1.536770	0.327219
N116	N	0.437695	2.036770	0.827219
H117	H	-0.109645	1.518520	0.290874
H118	H	0.390355	2.018520	0.790874
H119	H	-0.122805	1.724790	0.000135
H120	H	0.377195	2.224790	0.500135
N121	N	0.238642	0.883997	-0.000100
N122	N	0.738642	1.383997	0.499900
N123	N	0.279686	0.902828	0.097389
N124	N	0.779686	1.402828	0.597389
H125	H	0.328948	0.857901	0.097344
H126	H	0.828948	1.357901	0.597344
H127	H	0.129289	1.718768	0.412658
H128	H	0.629289	2.218768	0.912658
H129	H	0.193796	1.338490	0.412628
H130	H	0.693796	1.838490	0.912628
N131	N	0.233418	1.556238	0.598044
N132	N	0.733418	2.056238	1.098044
N133	N	0.286887	1.482477	0.568219
N134	N	0.786887	1.982477	1.068219
H135	H	0.334248	1.500687	0.604488
H136	H	0.834248	2.000687	1.104488
H137	H	0.040706	0.941511	-0.211499
H138	H	0.540706	1.441511	0.288501
H139	H	0.077080	1.293614	0.587649
H140	H	0.577080	1.793614	1.087649
H141	H	-0.254938	1.721231	0.000098
H142	H	0.245062	2.221231	0.500098
H143	H	0.012480	1.674049	0.587197
H144	H	0.512480	2.174049	1.087197
H145	H	-0.226861	1.299453	0.000052
H146	H	0.273139	1.799453	0.500052
H147	H	-0.566896	1.712836	0.000061
H148	H	-0.066896	2.212836	0.500061
N149	N	-0.032319	1.128546	-0.000065
N150	N	0.467681	1.628546	0.499935
N151	N	-0.073007	1.111206	-0.098646
N152	N	0.426993	1.611206	0.401354
H153	H	-0.122234	1.156288	-0.098746
H154	H	0.377766	1.656288	0.401254
N155	N	-0.085553	1.279132	0.000051
N156	N	0.414447	1.779132	0.500051
N157	N	-0.043174	1.254306	-0.097955
N158	N	0.456826	1.754306	0.402045
H159	H	-0.011309	1.171165	-0.097968
H160	H	0.488691	1.671165	0.402032
