data_functionalizedCrystal
_audit_creation_method	'MofGen! by Chris Wilmer'
_symmetry_space_group_name_H-M	'P1'
_symmetry_Int_Tables_number	1
_symmetry_cell_setting	triclinic
loop_
_symmetry_equiv_pos_as_xyz
  x,y,z
_cell_length_a	16.992695
_cell_length_b	16.974829
_cell_length_c	16.053934
_cell_angle_alpha	88.912036
_cell_angle_beta	87.249907
_cell_angle_gamma	87.025716
loop_
_atom_site_label
_atom_site_type_symbol
_atom_site_fract_x
_atom_site_fract_y
_atom_site_fract_z
O1	O	0.106635	1.049158	-0.140315
O2	O	0.118621	0.820450	-0.124864
O3	O	-0.001517	0.933887	-0.132521
O4	O	0.226773	0.935720	-0.132658
O5	O	-0.008107	0.940096	0.005916
O6	O	0.112031	0.826659	0.013573
O7	O	0.100045	1.055367	-0.001878
Zn8	Zn	0.104992	0.941999	0.027828
Zn9	Zn	0.113674	0.933818	-0.154569
O10	O	0.220183	0.941929	0.005779
C11	C	0.114747	0.794154	-0.053659
C12	C	0.113011	0.706552	-0.047741
C13	C	0.102879	0.213803	-0.006327
C14	C	0.104510	0.296115	-0.011889
C15	C	0.108912	0.333887	-0.090134
C16	C	0.111691	0.289342	-0.162821
C17	C	0.110066	0.207031	-0.157257
C18	C	0.114164	0.579696	-0.114865
C19	C	0.115787	0.662013	-0.120422
C20	C	0.108608	0.668780	0.030510
C21	C	0.106978	0.586468	0.036066
C22	C	0.109761	0.541930	-0.036621
N23	N	0.110577	0.418023	-0.095822
N24	N	0.108102	0.457795	-0.030932
C25	C	-0.034030	0.934633	-0.063143
C26	C	-0.121089	0.927594	-0.062668
C27	C	-0.171183	0.995504	-0.067255
C28	C	-0.252983	0.988886	-0.066816
C29	C	-0.284689	0.914358	-0.061783
C30	C	-0.234588	0.846443	-0.057199
C31	C	-0.152789	0.853062	-0.057644
C32	C	-0.528345	0.886926	-0.059942
C33	C	-0.610151	0.880312	-0.059494
C34	C	-0.628540	1.022756	-0.069113
C35	C	-0.546739	1.029368	-0.069553
C36	C	-0.496645	0.961453	-0.064972
N37	N	-0.368302	0.907591	-0.061332
N38	N	-0.413034	0.968220	-0.065430
C39	C	0.252696	0.941184	-0.063601
C40	C	0.339755	0.948222	-0.064081
C41	C	0.103919	1.081662	-0.073084
C42	C	0.105656	1.169264	-0.079008
N43	N	0.099066	0.947587	0.152308
N44	N	0.119594	0.928235	-0.279050
C45	C	0.150166	0.899309	0.199281
C46	C	0.146017	0.903241	0.286421
C47	C	0.090764	0.955449	0.326586
C48	C	0.039662	1.003733	0.279606
C49	C	0.043815	0.999804	0.192468
C50	C	0.072645	0.972590	0.586831
C51	C	0.068494	0.976514	0.673976
C52	C	0.174851	0.876022	0.680785
C53	C	0.178996	0.872095	0.593645
C54	C	0.127896	0.920382	0.546673
N55	N	0.086520	0.959468	0.415657
N56	N	0.132144	0.916366	0.457603
H57	H	0.102248	0.332375	0.047296
H58	H	0.195155	0.856792	0.166585
H59	H	0.103376	0.555721	0.099781
C60	C	0.202244	0.850151	0.338087
H61	H	0.235744	0.818495	0.301686
H62	H	0.233343	0.882108	0.370004
H63	H	0.172335	0.817090	0.374437
H64	H	0.223987	0.829583	0.560944
H65	H	0.106344	0.705052	0.089687
H66	H	0.216455	0.836710	0.719037
C67	C	0.120638	0.703560	-0.206495
H68	H	0.122072	0.665246	-0.248989
H69	H	0.075733	0.738658	-0.212013
H70	H	0.167117	0.732399	-0.211586
H71	H	-0.293767	1.044185	-0.070549
C72	C	0.098109	0.172253	0.079742
H73	H	0.097553	0.116851	0.072648
H74	H	0.142615	0.184028	0.109992
H75	H	0.051225	0.190238	0.109680
C76	C	0.007717	1.033946	0.718160
H77	H	0.012558	1.029362	0.776784
H78	H	0.017062	1.086445	0.700281
H79	H	-0.043969	1.021448	0.704684
H80	H	0.116428	0.543443	-0.174051
H81	H	-0.145375	1.056193	-0.071347
H82	H	0.031036	1.011906	0.548593
C83	C	-0.645029	0.798329	-0.053959
H84	H	-0.700921	0.804118	-0.054339
H85	H	-0.625549	0.767984	-0.100333
H86	H	-0.630145	0.772316	-0.003774
H87	H	-0.112003	0.797762	-0.053909
C88	C	0.116537	0.330885	-0.248890
H89	H	0.117965	0.292567	-0.291380
H90	H	0.071632	0.365983	-0.254407
H91	H	0.163015	0.359722	-0.253988
C92	C	-0.683643	1.097454	-0.074163
H93	H	-0.736900	1.082841	-0.073185
H94	H	-0.676319	1.129971	-0.027939
H95	H	-0.671711	1.125631	-0.124497
H96	H	0.112329	0.170768	-0.216443
H97	H	-0.520931	1.090057	-0.073650
H98	H	-0.487568	0.831624	-0.056212
C99	C	-0.269462	0.764464	-0.051661
H100	H	-0.325354	0.770247	-0.052044
H101	H	-0.249978	0.734118	-0.098032
H102	H	-0.254577	0.738454	-0.001475
C103	C	-0.021117	1.061159	0.323786
H104	H	-0.016278	1.056579	0.382411
H105	H	-0.011776	1.113658	0.305903
H106	H	-0.072800	1.048655	0.310307
H107	H	0.002205	1.039119	0.154223
