data_functionalizedCrystal
_audit_creation_method	'MofGen! by Chris Wilmer'
_symmetry_space_group_name_H-M	'P1'
_symmetry_Int_Tables_number	1
_symmetry_cell_setting	triclinic
loop_
_symmetry_equiv_pos_as_xyz
  x,y,z
_cell_length_a	12.759401
_cell_length_b	16.625545
_cell_length_c	12.759393
_cell_angle_alpha	90.032957
_cell_angle_beta	89.980324
_cell_angle_gamma	89.975537
loop_
_atom_site_label
_atom_site_type_symbol
_atom_site_fract_x
_atom_site_fract_y
_atom_site_fract_z
Zn1	Zn	1.606198	0.320953	-0.593967
Zn2	Zn	1.606061	0.455808	-0.418279
Zn3	Zn	1.430497	0.320994	-0.418306
Zn4	Zn	1.430460	0.455749	-0.593920
O5	O	1.518304	0.388376	-0.506118
O6	O	1.753201	0.338850	-0.570670
O7	O	1.582730	0.437966	-0.271262
O8	O	1.453877	0.208156	-0.441638
O9	O	1.753100	0.437927	-0.441593
O10	O	1.582964	0.208126	-0.570695
O11	O	1.453744	0.338919	-0.271281
O12	O	1.283471	0.338862	-0.441593
O13	O	1.453814	0.437826	-0.740948
O14	O	1.283444	0.437865	-0.570616
O15	O	1.582928	0.338793	-0.740982
O16	O	1.582694	0.568632	-0.441548
O17	O	1.453681	0.568589	-0.570591
C18	C	1.245337	0.388362	-0.506103
C19	C	1.128560	0.388376	-0.506122
C20	C	1.073751	0.336879	-0.573436
C21	C	0.964027	0.336888	-0.573443
C22	C	0.963930	0.439895	-0.438819
C23	C	1.073652	0.439882	-0.438807
C24	C	0.814128	0.241848	-0.611216
C25	C	0.759315	0.190359	-0.678547
C26	C	0.794977	0.178070	-0.781086
C27	C	0.885448	0.217281	-0.816316
C28	C	0.940255	0.268776	-0.748991
C29	C	0.904596	0.281050	-0.646437
C30	C	1.223554	0.534923	-0.401044
C31	C	1.278362	0.586423	-0.333724
C32	C	1.242703	0.598720	-0.231183
C33	C	1.152228	0.559523	-0.195957
C34	C	1.097419	0.508023	-0.263278
C35	C	1.133086	0.495724	-0.365817
C36	C	1.518197	0.597867	-0.506084
C37	C	1.518247	0.687488	-0.506105
C38	C	1.518419	1.015663	-0.506231
C39	C	1.518368	0.924355	-0.506199
C40	C	1.518332	0.851579	-0.506167
C41	C	1.518283	0.760264	-0.506136
C42	C	1.792337	0.388390	-0.506134
C43	C	1.909114	0.388397	-0.506140
C44	C	1.518383	0.388299	-0.780152
C45	C	1.518416	0.388266	-0.896928
C46	C	1.518431	1.178067	-0.506187
C47	C	1.518462	1.088446	-0.506248
C48	C	1.585651	0.336691	-0.951810
C49	C	1.585669	0.336656	-1.061534
C50	C	1.451214	0.439778	-1.061485
C51	C	1.451192	0.439808	-0.951763
C52	C	1.623301	0.241525	-1.211516
C53	C	1.690552	0.189957	-1.266401
C54	C	1.793067	0.177594	-1.230809
C55	C	1.828352	0.216811	-1.140332
C56	C	1.761107	0.268385	-1.085453
C57	C	1.658577	0.280733	-1.121044
C58	C	1.413570	0.534940	-0.801779
C59	C	1.346329	0.586519	-0.746897
C60	C	1.243812	0.598889	-0.782488
C61	C	1.208531	0.559687	-0.872968
C62	C	1.275772	0.508108	-0.927849
C63	C	1.378288	0.495736	-0.892251
C64	C	1.518286	0.388395	-0.233151
C65	C	1.518456	0.388201	-0.116375
H66	H	1.123189	0.569539	-0.112462
H67	H	0.914470	0.207278	-0.899818
H68	H	1.497046	0.524866	-0.772786
H69	H	1.125054	0.569762	-0.901950
C70	C	1.134146	0.280214	-0.647474
N71	N	1.179632	0.237529	-0.703239
C72	C	1.659590	0.279985	-0.891495
N73	N	1.715280	0.237270	-0.846069
H74	H	1.013919	0.300698	-0.777672
C75	C	1.302996	0.655377	-0.157134
N76	N	1.348406	0.698048	-0.101359
C77	C	0.734684	0.121424	-0.855144
N78	N	0.689271	0.078754	-0.910918
C79	C	1.169850	0.655632	-0.722115
N80	N	1.114140	0.698368	-0.676644
H81	H	1.375069	0.618447	-0.673231
H82	H	0.785091	0.251840	-0.527717
H83	H	0.919211	0.481831	-0.384015
H84	H	0.685653	0.158432	-0.649853
H85	H	1.352043	0.618329	-0.362409
C86	C	1.651730	0.146813	-1.365916
N87	N	1.622494	0.114316	-1.440870
C88	C	1.867039	0.120863	-1.291182
N89	N	1.922747	0.078128	-1.336656
H90	H	1.789837	0.300318	-1.011792
C91	C	0.997896	0.464901	-0.224523
N92	N	0.922937	0.432421	-0.195333
C93	C	1.510523	0.255111	-1.250669
N94	N	1.425578	0.265344	-1.280165
H95	H	1.252602	0.524908	-0.484539
H96	H	1.396485	0.481744	-1.106146
H97	H	1.911835	0.206747	-1.111365
C98	C	1.236956	0.464980	-1.027377
N99	N	1.207719	0.432495	-1.102339
