data_functionalizedCrystal
_audit_creation_method	'MofGen! by Chris Wilmer'
_symmetry_space_group_name_H-M	'P1'
_symmetry_Int_Tables_number	1
_symmetry_cell_setting	triclinic
loop_
_symmetry_equiv_pos_as_xyz
  x,y,z
_cell_length_a	14.560438
_cell_length_b	14.395555
_cell_length_c	14.560438
_cell_angle_alpha	59.998759
_cell_angle_beta	90.001034
_cell_angle_gamma	60.002332
loop_
_atom_site_label
_atom_site_type_symbol
_atom_site_fract_x
_atom_site_fract_y
_atom_site_fract_z
Zr1	Zr	0.884780	1.016809	-0.120548
O2	O	0.738136	1.210605	-0.267198
O3	O	0.929730	0.823013	-0.075590
O4	O	0.929731	1.016812	-0.267197
O5	O	0.738139	1.016803	0.075550
O6	O	1.080869	1.016815	-0.267198
O7	O	0.738135	1.016806	-0.075591
O8	O	1.080868	0.670144	0.075552
O9	O	0.738140	1.363474	-0.267200
O10	O	1.061699	0.902726	-0.056419
O11	O	0.948909	0.902722	0.056377
O12	O	0.948910	1.130896	-0.169216
O13	O	0.836120	1.130892	-0.056420
Zr14	Zr	1.125834	1.016809	0.120503
Zr15	Zr	1.125828	1.016813	-0.120550
Zr16	Zr	0.884786	1.016805	0.120504
Zr17	Zr	0.884787	1.260618	-0.120551
Zr18	Zr	1.125827	0.773000	0.120506
O19	O	1.080884	1.210605	0.075544
O20	O	1.080875	1.210611	-0.267201
O21	O	0.738144	1.210599	0.075547
O22	O	1.272478	0.823013	0.267153
O23	O	1.272469	0.823019	-0.075592
O24	O	0.929739	0.823007	0.267156
O25	O	1.272475	1.016815	-0.075595
O26	O	1.080883	1.016806	0.267152
O27	O	0.929745	1.016803	0.267153
O28	O	1.272479	1.016812	0.075546
O29	O	0.929741	1.363478	-0.267202
O30	O	1.080873	0.670140	0.267157
O31	O	1.272474	0.670144	0.267155
O32	O	1.272469	0.670147	0.075551
O33	O	0.738145	1.363471	-0.075596
O34	O	0.929746	1.363474	-0.075598
O35	O	1.061704	0.902722	0.169171
O36	O	1.174494	0.902726	0.056375
O37	O	1.061705	1.130896	-0.056422
O38	O	0.948915	1.130892	0.056373
C39	C	0.703793	1.016804	-0.000020
C40	C	0.601461	1.016802	-0.000020
C41	C	1.005298	0.711841	-0.000018
C42	C	1.005295	0.608337	-0.000016
C43	C	0.612258	0.897702	0.058855
C44	C	0.516103	0.897708	0.058856
C45	C	0.398359	1.135925	-0.058902
C46	C	0.494512	1.135918	-0.058896
C47	C	0.943800	0.547743	0.061488
C48	C	0.899227	0.562001	-0.044575
C49	C	1.049841	0.409684	0.106014
C50	C	0.960660	0.624021	-0.106142
C51	C	1.111332	0.471642	0.044524
C52	C	1.066786	0.485946	-0.061603
C53	C	1.306821	1.016814	-0.000025
C54	C	1.409153	1.016816	-0.000026
C55	C	1.005299	1.016814	-0.301542
C56	C	1.005297	1.016816	-0.403875
C57	C	1.005316	1.321777	-0.000027
C58	C	1.005319	1.425281	-0.000029
C59	C	0.946423	1.135916	-0.510830
C60	C	0.946436	1.135910	-0.606979
C61	C	1.064198	0.897693	-0.489204
C62	C	1.064191	0.897701	-0.393057
C63	C	1.005315	1.016804	0.301497
C64	C	1.005317	1.016802	0.403830
C65	C	1.306812	0.711846	-0.000020
C66	C	1.409140	0.608344	-0.000019
C67	C	1.005306	0.711836	0.301501
C68	C	1.005305	0.608331	0.403836
C69	C	1.306820	0.711841	0.301499
C70	C	1.409151	0.608337	0.403833
C71	C	0.703794	1.321777	-0.301544
C72	C	0.601463	1.425281	-0.403878
C73	C	0.703802	1.321772	-0.000025
C74	C	0.601473	1.425274	-0.000026
C75	C	1.005308	1.321782	-0.301547
C76	C	1.005309	1.425287	-0.403881
C77	C	1.398339	0.559716	-0.058894
C78	C	1.494491	0.462474	-0.058897
C79	C	1.612242	0.462491	0.058858
C80	C	1.516091	0.559739	0.058853
C81	C	1.064182	0.559702	0.510790
C82	C	1.064169	0.462457	0.606940
C83	C	0.946400	0.462474	0.489169
C84	C	0.946408	0.559724	0.393021
C85	C	1.516101	0.559711	0.393034
C86	C	1.612248	0.462467	0.489192
C87	C	1.494480	0.462481	0.606943
C88	C	1.398336	0.559730	0.510787
H89	H	0.699336	0.800711	0.106808
H90	H	1.524912	0.599287	0.305951
Cl91	Cl	1.746699	0.401343	0.475609
Cl92	Cl	1.138207	0.747962	-0.258588
Cl93	Cl	0.902348	0.765388	-0.244659
H94	H	0.898468	1.232907	-0.519645
H95	H	0.898450	0.422885	0.480377
Cl96	Cl	1.263873	0.620872	0.524363
H97	H	0.311271	1.232905	-0.106838
H98	H	1.311259	0.599300	-0.106844
H99	H	0.891726	0.574967	0.113423
H100	H	0.524903	0.800725	0.106799
H101	H	0.898497	1.232893	-0.694064
Cl102	Cl	1.480905	0.401348	-0.132916
Cl103	Cl	1.138222	0.747957	-0.475615
H104	H	0.809562	0.599185	-0.082258
Cl105	Cl	1.480895	0.401364	0.741401
H106	H	1.112136	0.599279	0.519603
Cl107	Cl	0.872377	0.620870	0.258553
H108	H	1.118788	0.459005	-0.113693
Cl109	Cl	1.107994	0.268247	0.244463
Cl110	Cl	1.529672	0.620882	0.132867
Cl111	Cl	0.480938	1.285656	-0.132909
Cl112	Cl	1.249740	0.414263	0.102743
H113	H	1.699332	0.422903	0.106791
Cl114	Cl	1.138185	0.401331	0.741397
