data_functionalizedCrystal
_audit_creation_method	'MofGen! by Chris Wilmer'
_symmetry_space_group_name_H-M	'P1'
_symmetry_Int_Tables_number	1
_symmetry_cell_setting	triclinic
loop_
_symmetry_equiv_pos_as_xyz
  x,y,z
_cell_length_a	10.654550
_cell_length_b	9.730223
_cell_length_c	10.654550
_cell_angle_alpha	90.002471
_cell_angle_beta	95.515002
_cell_angle_gamma	89.995798
loop_
_atom_site_label
_atom_site_type_symbol
_atom_site_fract_x
_atom_site_fract_y
_atom_site_fract_z
O1	O	-1.667834	0.114394	0.176400
O2	O	-1.302356	0.114371	0.193206
O3	O	-1.493498	0.114383	0.002064
O4	O	-1.476692	0.114381	0.367543
O5	O	-1.493495	-0.114197	0.002055
O6	O	-1.302353	-0.114209	0.193197
O7	O	-1.667832	-0.114186	0.176391
Zn8	Zn	-1.485092	-0.150490	0.184792
Zn9	Zn	-1.485096	0.150674	0.184805
O10	O	-1.476690	-0.114199	0.367533
C11	C	-1.255557	0.000078	0.191968
C12	C	-1.116113	0.000069	0.188276
N13	N	-1.485098	0.356211	0.184804
C14	C	-1.492263	0.000096	-0.044739
C15	C	-1.488571	0.000105	-0.184182
C16	C	-1.714631	0.000109	0.177630
C17	C	-1.854074	0.000127	0.181321
C18	C	-1.036628	0.000089	0.300817
C19	C	-0.905607	0.000113	0.297341
C20	C	-0.933570	0.000104	0.068771
C21	C	-1.064588	0.000070	0.072249
C22	C	-1.020483	0.000100	0.432780
C23	C	-0.889462	0.000124	0.429304
N24	N	-1.485099	-0.356026	0.184783
C25	C	-1.569895	0.428142	0.100333
C26	C	-1.569899	0.572025	0.100325
C27	C	-1.400298	0.572032	0.269264
C28	C	-1.400302	0.428152	0.269277
C29	C	-1.667809	0.428139	0.002794
C30	C	-1.667813	0.572022	0.002786
C31	C	-1.477925	0.000091	0.414336
C32	C	-1.481617	0.000091	0.553779
C33	C	-1.486837	0.124702	0.750312
C34	C	-1.483356	0.124695	0.619291
C35	C	-1.483347	-0.124515	0.619295
C36	C	-1.486819	-0.124507	0.750314
C37	C	-1.486848	0.268582	0.750308
C38	C	-1.483367	0.268575	0.619288
H39	H	-1.129302	0.000034	-0.019393
H40	H	-1.570157	0.323825	0.572998
H41	H	-0.843789	-0.098561	0.469180
H42	H	-1.049813	-0.095566	0.484387
H43	H	-1.331264	0.369586	0.338071
H44	H	-0.891602	0.000125	-0.025694
H45	H	-1.056139	0.098787	0.474803
H46	H	-1.331260	0.630622	0.338040
H47	H	-1.764267	0.389109	0.024490
H48	H	-1.481919	-0.225970	0.565946
H49	H	-0.847730	0.095791	0.479029
H50	H	-1.637463	0.383494	-0.088486
H51	H	-1.578447	0.313231	0.779875
H52	H	-1.758932	0.616661	0.033534
H53	H	-1.646543	0.611055	-0.093807
H54	H	-1.488223	-0.225965	0.803645
H55	H	-1.400059	0.323824	0.796592
H56	H	-1.391770	0.313225	0.589723
