data_functionalizedCrystal
_audit_creation_method	'MofGen! by Chris Wilmer'
_symmetry_space_group_name_H-M	'P1'
_symmetry_Int_Tables_number	1
_symmetry_cell_setting	triclinic
loop_
_symmetry_equiv_pos_as_xyz
  x,y,z
_cell_length_a	14.853568
_cell_length_b	13.101039
_cell_length_c	14.853567
_cell_angle_alpha	93.365022
_cell_angle_beta	83.635059
_cell_angle_gamma	86.640417
loop_
_atom_site_label
_atom_site_type_symbol
_atom_site_fract_x
_atom_site_fract_y
_atom_site_fract_z
O1	O	-1.201314	0.085152	-0.112741
O2	O	-0.938856	0.085169	-0.126761
O3	O	-1.077095	0.085148	0.011478
O4	O	-1.063075	0.085173	-0.250980
O5	O	-1.067176	-0.085280	0.001543
O6	O	-0.928937	-0.085259	-0.136696
O7	O	-1.191396	-0.085276	-0.122676
Zn8	Zn	-1.058592	-0.112327	-0.131263
Zn9	Zn	-1.071660	0.112220	-0.118173
O10	O	-1.053156	-0.085255	-0.260915
C11	C	-0.900308	-0.000043	-0.131093
C12	C	-0.800225	-0.000037	-0.129188
N13	N	-1.049680	-0.265574	-0.140196
C14	C	-0.387689	-0.000069	-0.039024
C15	C	-0.366409	-0.000053	-0.203255
C16	C	-0.460443	-0.000049	-0.205045
C17	C	-0.518104	-0.000054	-0.123823
C18	C	-0.481732	-0.000063	-0.040811
C19	C	-0.496823	-0.000030	-0.288056
C20	C	-0.590862	-0.000025	-0.289849
C21	C	-0.648525	-0.000037	-0.208626
C22	C	-0.612147	-0.000047	-0.125611
C23	C	-0.669809	-0.000052	-0.044389
C24	C	-0.633433	-0.000069	0.038628
C25	C	-0.539395	-0.000075	0.040412
C26	C	-0.742563	-0.000032	-0.210410
C27	C	-0.763852	-0.000045	-0.046176
C28	C	-1.037554	-0.474615	-0.152358
C29	C	-1.092701	-0.525499	-0.097075
C30	C	-1.085954	-0.641816	-0.103842
C31	C	-1.044300	-0.358287	-0.145592
C32	C	-0.229944	-0.000063	-0.118343
C33	C	-0.330027	-0.000065	-0.120246
C34	C	-1.058751	-0.000038	-0.289536
C35	C	-1.060655	-0.000029	-0.389619
N36	N	-1.080579	0.265467	-0.109233
C37	C	-1.150819	-0.000072	-0.802156
C38	C	-0.986587	-0.000060	-0.823435
C39	C	-0.984797	-0.000050	-0.729401
C40	C	-1.066019	-0.000052	-0.671740
C41	C	-1.149031	-0.000065	-0.708112
C42	C	-0.901786	-0.000048	-0.693022
C43	C	-0.899993	-0.000039	-0.598982
C44	C	-0.981217	-0.000034	-0.541318
C45	C	-1.064232	-0.000046	-0.577696
C46	C	-1.145455	-0.000048	-0.520035
C47	C	-1.228471	-0.000052	-0.556411
C48	C	-1.230255	-0.000060	-0.650449
C49	C	-0.979433	-0.000026	-0.447280
C50	C	-1.143667	-0.000041	-0.425992
C51	C	-1.071500	-0.000067	0.040099
C52	C	-1.069596	-0.000069	0.140183
H53	H	-0.810795	-0.000053	0.019966
N54	N	-0.968307	-0.532613	-0.221779
H55	H	-0.973246	-0.608689	-0.216832
H56	H	-0.979981	-0.513921	-0.284654
H57	H	-0.920459	-0.000064	-0.870389
N58	N	-1.316077	-0.000051	-0.494219
H59	H	-1.348613	-0.063231	-0.509608
H60	H	-1.302272	-0.000012	-0.429152
H61	H	-1.209810	-0.000036	-0.379048
H62	H	-1.297842	-0.000090	-0.680076
H63	H	-1.144981	-0.481704	-0.044664
N64	N	-0.304220	-0.000040	-0.290853
H65	H	-0.341533	-0.000030	-0.343711
H66	H	-0.268419	0.063144	-0.289998
H67	H	-1.218409	-0.000071	-0.831777
H68	H	-0.620471	-0.000011	-0.357446
N69	N	-0.695628	-0.000067	0.126230
H70	H	-0.760719	-0.000055	0.112495
H71	H	-0.680176	-0.063254	0.158718
N72	N	-0.500161	-0.000101	0.129943
H73	H	-0.431840	-0.000102	0.118749
H74	H	-0.524915	0.063073	0.169178
N75	N	-0.348462	-0.000102	0.050511
H76	H	-0.280139	-0.000111	0.039324
H77	H	-0.373213	0.063074	0.089746
N78	N	-0.814189	-0.000037	-0.755212
H79	H	-0.761329	-0.000035	-0.717901
H80	H	-0.807679	-0.063216	-0.798372
H81	H	-0.832396	-0.000033	-0.569373
N82	N	-0.889902	-0.000031	-0.408051
H83	H	-0.857985	0.063144	-0.425397
H84	H	-0.901164	-0.000064	-0.339738
N85	N	-0.434625	-0.000008	-0.375647
H86	H	-0.398808	0.063169	-0.374859
H87	H	-0.391519	-0.063229	-0.382197
H88	H	-0.772176	-0.000020	-0.278001
