data_functionalizedCrystal
_audit_creation_method	'MofGen! by Chris Wilmer'
_symmetry_space_group_name_H-M	'P1'
_symmetry_Int_Tables_number	1
_symmetry_cell_setting	triclinic
loop_
_symmetry_equiv_pos_as_xyz
  x,y,z
_cell_length_a	11.169417
_cell_length_b	10.686285
_cell_length_c	11.169409
_cell_angle_alpha	85.599660
_cell_angle_beta	89.980487
_cell_angle_gamma	85.633103
loop_
_atom_site_label
_atom_site_type_symbol
_atom_site_fract_x
_atom_site_fract_y
_atom_site_fract_z
Zn1	Zn	1.871632	-0.502207	-0.641950
Zn2	Zn	1.886932	-0.713259	-0.425893
Zn3	Zn	1.670924	-0.502285	-0.441279
Zn4	Zn	1.686328	-0.713158	-0.626546
O5	O	1.778954	-0.607727	-0.533917
O6	O	2.041612	-0.530213	-0.613296
O7	O	1.858234	-0.685348	-0.259978
O8	O	1.684698	-0.325698	-0.480785
O9	O	2.052853	-0.685272	-0.454560
O10	O	1.832158	-0.325640	-0.628216
O11	O	1.699534	-0.530347	-0.271283
O12	O	1.505017	-0.530248	-0.465848
O13	O	1.710953	-0.685100	-0.796545
O14	O	1.516334	-0.685176	-0.601963
O15	O	1.847095	-0.530115	-0.807862
O16	O	1.873171	-0.889823	-0.439624
O17	O	1.725789	-0.889748	-0.587043
C18	C	1.467128	-0.607710	-0.533904
C19	C	1.333730	-0.607734	-0.533925
C20	C	1.802844	-0.935570	-0.510018
C21	C	1.813175	-1.075823	-0.499834
C22	C	2.091998	-0.607745	-0.533930
C23	C	2.225398	-0.607753	-0.533936
C24	C	1.779036	-0.607587	-0.846970
C25	C	1.779071	-0.607528	-0.980374
C26	C	1.755003	-0.278605	-0.557935
C27	C	1.744796	-0.138352	-0.568170
C28	C	1.778935	-0.607776	-0.222089
C29	C	1.779106	-0.607480	-0.088711
H30	H	1.678352	-1.084590	-0.634468
O31	O	1.901212	-1.147029	-0.412020
H32	H	1.895797	-1.249710	-0.417539
