data_functionalizedCrystal
_audit_creation_method	'MofGen! by Chris Wilmer'
_symmetry_space_group_name_H-M	'P1'
_symmetry_Int_Tables_number	1
_symmetry_cell_setting	triclinic
loop_
_symmetry_equiv_pos_as_xyz
  x,y,z
_cell_length_a	17.019311
_cell_length_b	15.500227
_cell_length_c	15.995350
_cell_angle_alpha	87.169609
_cell_angle_beta	83.444786
_cell_angle_gamma	96.714751
loop_
_atom_site_label
_atom_site_type_symbol
_atom_site_fract_x
_atom_site_fract_y
_atom_site_fract_z
O1	O	1.054354	0.150489	0.098565
O2	O	1.554354	0.650489	0.598565
O3	O	0.823813	0.133315	0.113090
O4	O	1.323813	0.633315	0.613090
O5	O	0.945385	0.142370	-0.016093
O6	O	1.445385	0.642370	0.483907
O7	O	0.932782	0.141433	0.227748
O8	O	1.432782	0.641433	0.727748
O9	O	0.938008	-0.002068	-0.008284
O10	O	1.438008	0.497932	0.491716
O11	O	0.816436	-0.011124	0.120898
O12	O	1.316436	0.488876	0.620898
O13	O	1.046977	0.006050	0.106374
O14	O	1.546977	0.506050	0.606374
Cu15	Cu	0.931033	-0.015725	0.114349
Cu16	Cu	1.431033	0.484275	0.614349
Cu17	Cu	0.939757	0.155090	0.105115
Cu18	Cu	1.439757	0.655090	0.605115
O19	O	0.925404	-0.003005	0.235557
O20	O	1.425404	0.496995	0.735557
C21	C	0.790623	0.058898	0.116596
C22	C	1.290623	0.558898	0.616596
C23	C	0.702719	0.052350	0.115401
C24	C	1.202719	0.552350	0.615401
N25	N	0.924902	-0.135867	0.120844
N26	N	1.424902	0.364133	0.620844
C27	C	0.205346	0.011366	0.108881
C28	C	0.705346	0.511366	0.608881
C29	C	0.287941	0.017521	0.110004
C30	C	0.787941	0.517521	0.610004
C31	C	0.333261	0.099333	0.106303
C32	C	0.833261	0.599333	0.606303
C33	C	0.295981	0.174995	0.101487
C34	C	0.795981	0.674995	0.601487
C35	C	0.213386	0.168840	0.100370
C36	C	0.713386	0.668840	0.600370
C37	C	0.582844	0.121857	0.109468
C38	C	1.082844	0.621857	0.609468
C39	C	0.665445	0.128006	0.110583
C40	C	1.165445	0.628006	0.610583
C41	C	0.657399	-0.029469	0.119102
C42	C	1.157399	0.470531	0.619102
C43	C	0.574804	-0.035617	0.117979
C44	C	1.074804	0.464383	0.617979
C45	C	0.537530	0.040046	0.113167
C46	C	1.037530	0.540046	0.613167
C47	C	0.417687	0.105626	0.107448
C48	C	0.917687	0.605626	0.607448
C49	C	0.453105	0.033752	0.112028
C50	C	0.953105	0.533752	0.612028
C51	C	0.976434	-0.177305	0.066124
C52	C	1.476434	0.322695	0.566124
C53	C	0.971805	-0.268222	0.071044
C54	C	1.471805	0.231778	0.571044
C55	C	0.915647	-0.317700	0.130687
C56	C	1.415647	0.182300	0.630687
C57	C	0.864109	-0.276256	0.185409
C58	C	1.364109	0.223744	0.685409
C59	C	0.868735	-0.185340	0.180485
C60	C	1.368735	0.314660	0.680485
C61	C	0.898982	-0.592408	0.148411
C62	C	1.398982	-0.092408	0.648411
C63	C	0.894362	-0.683330	0.153333
C64	C	1.394362	-0.183330	0.653333
C65	C	1.002057	-0.675290	0.038966
C66	C	1.502057	-0.175290	0.538966
C67	C	1.006682	-0.584373	0.034051
C68	C	1.506682	-0.084373	0.534051
C69	C	0.955141	-0.542937	0.088770
C70	C	1.455141	-0.042937	0.588770
C71	C	0.910915	-0.410632	0.135719
C72	C	1.410915	0.089368	0.635719
C73	C	0.959869	-0.450006	0.083734
C74	C	1.459869	0.049994	0.583734
C75	C	1.080167	0.080469	0.102867
C76	C	1.580167	0.580469	0.602867
C77	C	1.168071	0.087023	0.104063
C78	C	1.668071	0.587023	0.604063
C79	C	0.941176	0.070114	-0.043380
C80	C	1.441176	0.570114	0.456620
C81	C	0.939614	0.070003	-0.136323
C82	C	1.439614	0.570003	0.363677
N83	N	0.945894	0.275232	0.098614
N84	N	1.445894	0.775232	0.598614
C85	C	0.934004	0.069582	-0.474041
C86	C	1.434004	0.569582	0.025959
C87	C	0.847439	0.063456	-0.426175
C88	C	1.347439	0.563456	0.073825
C89	C	0.848984	0.063247	-0.329476
C90	C	1.348984	0.563247	0.170524
C91	C	0.936787	0.069791	-0.306495
C92	C	1.436787	0.569791	0.193505
C93	C	0.975279	-0.009508	-0.343335
C94	C	1.475279	0.490492	0.156665
C95	C	0.973100	-0.009739	-0.439956
C96	C	1.473100	0.490261	0.060044
C97	C	0.983278	0.154648	-0.449203
C98	C	1.483278	0.654648	0.050797
C99	C	0.983313	0.155736	-0.352317
C100	C	1.483313	0.655736	0.147683
C101	C	0.938364	0.069907	-0.211806
C102	C	1.438364	0.569907	0.288194
C103	C	0.932429	0.069460	-0.568731
C104	C	1.432429	0.569460	-0.068731
C105	C	0.929614	0.069253	0.262844
C106	C	1.429614	0.569253	0.762844
C107	C	0.931176	0.069370	0.355787
C108	C	1.431176	0.569370	0.855787
H109	H	0.168451	-0.055254	0.111899
H110	H	0.668451	0.444746	0.611899
O111	O	0.404347	-0.054564	0.116125
O112	O	0.904347	0.445436	0.616125
H113	H	0.411347	-0.091525	0.175484
H114	H	0.911347	0.408475	0.675484
H115	H	0.183038	0.230447	0.096448
H116	H	0.683038	0.730447	0.596448
H117	H	1.036476	-0.008743	-0.472332
H118	H	1.536476	0.491257	0.027668
O119	O	0.797825	-0.017860	-0.447672
O120	O	1.297825	0.482140	0.052328
H121	H	0.745719	0.000391	-0.477275
H122	H	1.245719	0.500391	0.022725
H123	H	1.047143	0.159960	-0.481326
H124	H	1.547143	0.659960	0.018674
O125	O	1.060516	-0.007213	-0.324849
O126	O	1.560516	0.492787	0.175151
H127	H	1.067042	-0.067237	-0.286805
H128	H	1.567042	0.432763	0.213195
H129	H	0.332886	0.241608	0.098478
H130	H	0.832886	0.741608	0.598478
H131	H	1.022168	-0.137025	0.017560
H132	H	1.522168	0.362975	0.517560
O133	O	0.946142	0.233489	-0.320313
O134	O	1.446142	0.733489	0.179687
H135	H	0.991054	0.276873	-0.291918
H136	H	1.491054	0.776873	0.208082
H137	H	0.958164	0.215054	-0.472976
H138	H	1.458164	0.715054	0.027024
H139	H	1.005591	-0.409719	0.035169
H140	H	1.505591	0.090281	0.535169
O141	O	0.328143	-0.064080	0.115234
O142	O	0.828143	0.435920	0.615234
H143	H	0.282753	-0.122002	0.117622
H144	H	0.782753	0.377998	0.617622
H145	H	0.454596	0.172237	0.104432
H146	H	0.954596	0.672237	0.604432
O147	O	1.027400	-0.312919	0.012041
O148	O	1.527400	0.187081	0.512041
H149	H	1.067239	-0.263239	-0.030247
H150	H	1.567239	0.236761	0.469753
O151	O	1.067245	-0.531007	-0.030285
O152	O	1.567245	-0.031007	0.469715
H153	H	1.102297	-0.575097	-0.067516
H154	H	1.602297	-0.075097	0.432484
H155	H	1.044018	-0.709036	-0.005584
H156	H	1.544018	-0.209036	0.494416
H157	H	1.047597	0.165489	-0.337557
H158	H	1.547597	0.665489	0.162443
O159	O	0.805599	0.138385	-0.454730
O160	O	1.305599	0.638385	0.045270
H161	H	0.789052	0.176653	-0.399986
H162	H	1.289052	0.676653	0.100014
O163	O	0.525957	-0.123858	0.121745
O164	O	1.025957	0.376142	0.621745
H165	H	0.462272	-0.115426	0.120066
H166	H	0.962272	0.384574	0.620066
O167	O	0.697597	-0.111074	0.124305
O168	O	1.197597	0.388926	0.624305
H169	H	0.762643	-0.093054	0.124469
H170	H	1.262643	0.406946	0.624469
H171	H	0.552506	0.183467	0.105547
H172	H	1.052506	0.683467	0.605547
O173	O	0.833779	-0.736702	0.217655
O174	O	1.333779	-0.236702	0.717655
H175	H	0.798709	-0.692616	0.254870
H176	H	1.298709	-0.192616	0.754870
O177	O	0.843398	-0.547725	0.207434
O178	O	1.343398	-0.047725	0.707434
H179	H	0.878835	-0.503802	0.245728
H180	H	1.378835	-0.003802	0.745728
O181	O	0.813146	-0.140635	0.239489
O182	O	1.313146	0.359365	0.739489
H183	H	0.848575	-0.096703	0.277784
H184	H	1.348575	0.403297	0.777784
H185	H	0.702342	0.194631	0.107575
H186	H	1.202342	0.694631	0.607575
H187	H	0.818380	-0.316546	0.233969
H188	H	1.318380	0.183454	0.733969
H189	H	0.812165	0.001504	-0.298234
H190	H	1.312165	0.501504	0.201766
O191	O	0.850355	-0.464000	0.200057
O192	O	1.350355	0.036000	0.700057
H193	H	0.809769	-0.508308	0.167232
H194	H	1.309769	-0.008308	0.667232
H195	H	0.938810	-0.073716	-0.454763
H196	H	1.438810	0.426284	0.045237
O197	O	0.808503	0.138240	-0.295825
O198	O	1.308503	0.638240	0.204175
H199	H	0.840433	0.200429	-0.326237
H200	H	1.340433	0.700429	0.173763
H201	H	0.942483	-0.073098	-0.311482
H202	H	1.442483	0.426902	0.188518
