data_functionalizedCrystal
_audit_creation_method	'MofGen! by Chris Wilmer'
_symmetry_space_group_name_H-M	'P1'
_symmetry_Int_Tables_number	1
_symmetry_cell_setting	triclinic
loop_
_symmetry_equiv_pos_as_xyz
  x,y,z
_cell_length_a	10.489716
_cell_length_b	9.482944
_cell_length_c	11.026607
_cell_angle_alpha	81.848156
_cell_angle_beta	83.442424
_cell_angle_gamma	100.366760
loop_
_atom_site_label
_atom_site_type_symbol
_atom_site_fract_x
_atom_site_fract_y
_atom_site_fract_z
O1	O	1.753486	0.120880	-0.188502
O2	O	1.385836	0.120885	-0.204637
O3	O	1.539190	0.120878	-0.019652
O4	O	1.600132	0.120887	-0.373487
O5	O	1.495748	-0.120915	0.014548
O6	O	1.342394	-0.120908	-0.170436
O7	O	1.710044	-0.120913	-0.154302
Cu8	Cu	1.522252	-0.142988	-0.159246
Cu9	Cu	1.573628	0.142960	-0.199692
O10	O	1.556690	-0.120905	-0.339287
C11	C	1.316316	-0.000011	-0.186324
C12	C	1.173888	-0.000009	-0.182698
N13	N	1.486127	-0.344108	-0.130798
C14	C	1.532925	-0.583721	-0.167629
C15	C	1.562974	-0.416303	-0.191309
C16	C	1.101169	-0.000002	-0.296137
C17	C	0.989216	-0.119227	-0.219330
C18	C	1.032047	0.119162	-0.253022
C19	C	1.063794	-0.119332	-0.105925
C20	C	1.106653	0.119164	-0.139649
C21	C	0.994726	-0.000090	-0.062755
C22	C	1.779564	-0.000014	-0.172615
C23	C	1.921994	-0.000006	-0.176243
C24	C	1.506226	-0.000017	0.042756
C25	C	1.472713	-0.000011	0.177759
N26	N	1.609761	0.344080	-0.228131
C27	C	1.589654	-0.000008	-0.401695
C28	C	1.623169	-0.000004	-0.536700
C29	C	1.565252	-0.000010	0.250764
C30	C	1.530617	-0.000005	0.390297
H31	H	1.444901	-0.645852	-0.098294
H32	H	1.147524	-0.000111	-0.394795
H33	H	1.651011	-0.354177	-0.260640
Cl34	Cl	1.785092	0.000001	0.400329
Cl35	Cl	1.009139	0.274760	-0.348996
H36	H	1.078455	-0.220226	-0.043795
Cl37	Cl	1.185544	0.274786	-0.087797
Cl38	Cl	1.350216	-0.440012	-0.023739
H39	H	0.938159	-0.220018	-0.252961
Cl40	Cl	0.923437	-0.000200	0.089711
H41	H	1.670119	-0.000021	0.209966
Cl42	Cl	1.745680	-0.560006	-0.335167
Cl43	Cl	1.310802	0.000006	0.240736
H44	H	1.425743	0.000006	0.431089
