data_functionalizedCrystal
_audit_creation_method	'MofGen! by Chris Wilmer'
_symmetry_space_group_name_H-M	'P1'
_symmetry_Int_Tables_number	1
_symmetry_cell_setting	triclinic
loop_
_symmetry_equiv_pos_as_xyz
  x,y,z
_cell_length_a	16.625546
_cell_length_b	13.032831
_cell_length_c	13.033109
_cell_angle_alpha	103.334486
_cell_angle_beta	97.150917
_cell_angle_gamma	97.173222
loop_
_atom_site_label
_atom_site_type_symbol
_atom_site_fract_x
_atom_site_fract_y
_atom_site_fract_z
Zn1	Zn	-0.566824	-1.700046	-0.806356
Zn2	Zn	-0.066824	-1.200046	-0.306356
Zn3	Zn	-0.682041	-1.677364	-0.628728
Zn4	Zn	-0.182041	-1.177364	-0.128728
Zn5	Zn	-0.527607	-1.499875	-0.606253
Zn6	Zn	-0.027607	-0.999875	-0.106253
Zn7	Zn	-0.681970	-1.522379	-0.783772
Zn8	Zn	-0.181970	-1.022379	-0.283772
O9	O	-0.614611	-1.599916	-0.706277
O10	O	-0.114611	-1.099916	-0.206277
O11	O	-0.598550	-1.845671	-0.801651
O12	O	-0.098550	-1.345671	-0.301651
O13	O	-0.645173	-1.634909	-0.477117
O14	O	-0.145173	-1.134909	0.022883
O15	O	-0.419988	-1.526502	-0.632842
O16	O	0.080012	-1.026502	-0.132842
O17	O	-0.683200	-1.829007	-0.671148
O18	O	-0.183200	-1.329007	-0.171148
O19	O	-0.448801	-1.673567	-0.779857
O20	O	0.051199	-1.173567	-0.279857
O21	O	-0.531710	-1.504509	-0.460604
O22	O	-0.031710	-1.004509	0.039396
O23	O	-0.531641	-1.354226	-0.610944
O24	O	-0.031641	-0.854226	-0.110944
O25	O	-0.683079	-1.564858	-0.935398
O26	O	-0.183079	-1.064858	-0.435398
O27	O	-0.645052	-1.370760	-0.741366
O28	O	-0.145052	-0.870760	-0.241366
O29	O	-0.598481	-1.695389	-0.951990
O30	O	-0.098481	-1.195389	-0.451990
O31	O	-0.794853	-1.656731	-0.649250
O32	O	-0.294853	-1.156731	-0.149250
O33	O	-0.794801	-1.542864	-0.763160
O34	O	-0.294801	-1.042864	-0.263160
C35	C	-0.824086	-1.599810	-0.706220
C36	C	-0.324086	-1.099810	-0.206220
C37	C	-0.913714	-1.599866	-0.706243
C38	C	-0.413714	-1.099866	-0.206243
C39	C	-0.584084	-1.323954	-0.671266
C40	C	-0.084084	-0.823954	-0.171266
C41	C	-0.571046	-1.205899	-0.656313
C42	C	-0.071046	-0.705899	-0.156313
C43	C	-0.645147	-1.635164	-0.983310
C44	C	-0.145147	-1.135164	-0.483310
C45	C	-0.658159	-1.650184	-1.101365
C46	C	-0.158159	-1.150184	-0.601365
C47	C	-1.241923	-1.600066	-0.706378
C48	C	-0.741923	-1.100066	-0.206378
C49	C	-1.150605	-1.600007	-0.706343
C50	C	-0.650605	-1.100007	-0.206343
C51	C	-1.077821	-1.599965	-0.706310
C52	C	-0.577821	-1.099965	-0.206310
C53	C	-0.986498	-1.599908	-0.706276
C54	C	-0.486498	-1.099908	-0.206276
C55	C	-0.404324	-1.600055	-0.706362
C56	C	0.095676	-1.100055	-0.206362
C57	C	-0.314712	-1.600114	-0.706398
C58	C	0.185288	-1.100114	-0.206398
C59	C	-0.645257	-1.876956	-0.741426
C60	C	-0.145257	-1.376956	-0.241426
C61	C	-0.658317	-1.995014	-0.756404
C62	C	-0.158317	-1.495014	-0.256404
C63	C	-0.621415	-1.161462	-0.714081
C64	C	-0.121415	-0.661462	-0.214081
C65	C	-0.607942	-1.039447	-0.698628
C66	C	-0.107942	-0.539447	-0.198628
C67	C	-0.607822	-1.592361	-1.145827
C68	C	-0.107822	-1.092361	-0.645827
C69	C	-0.621270	-1.607884	-1.267843
C70	C	-0.121270	-1.107884	-0.767843
C71	C	-0.584142	-1.564867	-0.430330
C72	C	-0.084142	-1.064867	0.069670
C73	C	-0.570925	-1.550052	-0.312302
C74	C	-0.070925	-1.050052	0.187698
H75	H	-0.674510	-1.213751	-0.774982
H76	H	-0.174510	-0.713751	-0.274982
Cl77	Cl	-0.489061	-1.125180	-0.562295
Cl78	Cl	0.010939	-0.625180	-0.062295
Cl79	Cl	-0.740292	-1.075730	-0.850450
Cl80	Cl	-0.240292	-0.575730	-0.350450
H81	H	-0.554773	-1.531360	-1.093561
H82	H	-0.054773	-1.031360	-0.593561
H83	H	-0.517871	-1.489049	-1.260041
H84	H	-0.017871	-0.989049	-0.760041
Cl85	Cl	-0.703188	-1.702059	-1.348525
Cl86	Cl	-0.203188	-1.202059	-0.848525
Cl87	Cl	-0.740074	-1.744355	-1.182050
Cl88	Cl	-0.240074	-1.244355	-0.682050
H89	H	-0.554838	-0.987163	-0.637731
H90	H	-0.054838	-0.487163	-0.137731
