data_functionalizedCrystal
_audit_creation_method	'MofGen! by Chris Wilmer'
_symmetry_space_group_name_H-M	'P1'
_symmetry_Int_Tables_number	1
_symmetry_cell_setting	triclinic
loop_
_symmetry_equiv_pos_as_xyz
  x,y,z
_cell_length_a	15.944545
_cell_length_b	15.944551
_cell_length_c	12.376593
_cell_angle_alpha	77.327037
_cell_angle_beta	77.338083
_cell_angle_gamma	83.497455
loop_
_atom_site_label
_atom_site_type_symbol
_atom_site_fract_x
_atom_site_fract_y
_atom_site_fract_z
O1	O	1.128881	0.122671	-0.093934
O2	O	0.884334	0.136035	-0.093953
O3	O	1.013284	0.007076	-0.093933
O4	O	0.999931	0.251630	-0.093954
O5	O	0.984544	-0.021677	0.094077
O6	O	0.855593	0.107282	0.094057
O7	O	1.100141	0.093917	0.094076
Zn8	Zn	0.973304	0.096035	0.123917
Zn9	Zn	1.011171	0.133918	-0.123794
O10	O	0.971191	0.222876	0.094056
C11	C	0.838670	0.121105	0.000050
C12	C	0.745425	0.119446	0.000043
C13	C	0.474789	0.034550	0.000062
C14	C	0.511200	0.061302	0.092760
C15	C	0.409778	0.113522	0.000063
C16	C	0.539517	0.089671	-0.092603
C17	C	0.574693	0.116429	0.000051
C18	C	0.444949	0.140242	0.092837
C19	C	0.473275	0.168613	-0.092609
C20	C	0.509650	0.195419	0.000112
C21	C	0.314774	0.111846	0.000071
C22	C	0.669692	0.118111	0.000052
C23	C	0.998359	-0.038594	0.000072
C24	C	0.996697	-0.131840	0.000073
C25	C	0.912796	-0.346692	0.000051
C26	C	0.937587	-0.421887	0.092754
C27	C	0.993691	-0.302565	0.000064
C28	C	0.965942	-0.393522	-0.092609
C29	C	0.990782	-0.467475	0.000050
C30	C	1.018493	-0.376544	0.092844
C31	C	1.046849	-0.348160	-0.092603
C32	C	1.071696	-0.423341	0.000123
C33	C	0.995364	-0.207564	0.000073
C34	C	0.989114	-0.562476	0.000050
C35	C	1.145805	0.108848	0.000071
C36	C	1.239052	0.110508	0.000070
C37	C	0.986116	0.268547	0.000048
C38	C	0.987779	0.361795	0.000040
N39	N	0.947467	0.070179	0.292973
N40	N	1.037014	0.159767	-0.292850
C41	C	1.096996	0.219798	0.647971
C42	C	1.115072	0.237903	0.529632
C43	C	1.073173	0.195974	0.470462
C44	C	1.013194	0.135936	0.529641
C45	C	0.995111	0.117835	0.647991
C46	C	0.971287	0.094010	0.470482
C47	C	0.911309	0.033972	0.529661
C48	C	0.893230	0.015873	0.648000
C49	C	0.935129	0.057803	0.707170
C50	C	0.989370	0.112112	0.352132
C51	C	0.887485	0.010148	0.352152
C52	C	0.869409	-0.007957	0.470491
H53	H	0.456310	0.213922	-0.170986
H54	H	0.920416	0.043063	0.803531
Cl55	Cl	1.064771	0.187582	0.277750
H56	H	1.087893	0.210719	0.374105
H57	H	1.163907	0.286785	0.481457
Cl58	Cl	0.602659	0.056663	-0.213590
Cl59	Cl	0.450594	-0.070475	0.000207
H60	H	1.040686	-0.368553	0.171303
H61	H	0.404147	0.161571	0.171290
Cl62	Cl	0.537368	-0.008695	0.213766
Cl63	Cl	0.834804	-0.042564	0.277775
H64	H	0.943697	-0.401612	-0.170988
Cl65	Cl	0.866266	-0.471438	0.213749
Cl66	Cl	0.809105	-0.295284	0.000178
H67	H	1.093017	-0.316044	-0.170975
H68	H	0.525134	0.263477	0.000160
Cl69	Cl	1.149651	0.272514	0.722361
Cl70	Cl	1.175444	-0.474555	0.000207
Cl71	Cl	0.817815	-0.059590	0.722394
Cl72	Cl	0.794007	-0.083428	0.544901
