data_functionalizedCrystal
_audit_creation_method	'MofGen! by Chris Wilmer'
_symmetry_space_group_name_H-M	'P1'
_symmetry_Int_Tables_number	1
_symmetry_cell_setting	triclinic
loop_
_symmetry_equiv_pos_as_xyz
  x,y,z
_cell_length_a	23.532407
_cell_length_b	15.944551
_cell_length_c	14.421503
_cell_angle_alpha	89.996660
_cell_angle_beta	89.997762
_cell_angle_gamma	96.826292
loop_
_atom_site_label
_atom_site_type_symbol
_atom_site_fract_x
_atom_site_fract_y
_atom_site_fract_z
O1	O	0.755658	-0.101953	-0.076998
O2	O	1.088991	0.231381	0.256335
O3	O	1.422325	0.564714	0.589669
O4	O	0.589852	-0.116706	-0.077025
O5	O	0.923185	0.216627	0.256308
O6	O	1.256518	0.549960	0.589641
O7	O	0.677283	0.012983	-0.077003
O8	O	1.010616	0.346317	0.256331
O9	O	1.343949	0.679650	0.589664
O10	O	0.668227	-0.231642	-0.077021
O11	O	1.001560	0.101691	0.256313
O12	O	1.334894	0.435024	0.589646
O13	O	0.677268	0.012964	0.077221
O14	O	1.010601	0.346297	0.410554
O15	O	1.343935	0.679631	0.743887
O16	O	0.589837	-0.116726	0.077198
O17	O	0.923171	0.216608	0.410531
O18	O	1.256504	0.549941	0.743865
O19	O	0.755643	-0.101972	0.077225
O20	O	1.088977	0.231361	0.410559
O21	O	1.422310	0.564695	0.743892
Cu22	Cu	0.672739	-0.109351	0.091294
Cu23	Cu	1.006072	0.223983	0.424627
Cu24	Cu	1.339406	0.557316	0.757960
Cu25	Cu	0.672756	-0.109328	-0.091094
Cu26	Cu	1.006090	0.224006	0.242240
Cu27	Cu	1.339423	0.557339	0.575573
O28	O	0.668213	-0.231662	0.077203
O29	O	1.001546	0.101672	0.410536
O30	O	1.334879	0.435005	0.743869
C31	C	0.568627	-0.116340	0.000083
C32	C	0.901960	0.216993	0.333416
C33	C	1.235294	0.550326	0.666749
C34	C	0.505406	-0.115211	0.000073
C35	C	0.838739	0.218123	0.333406
C36	C	1.172072	0.551456	0.666739
C37	C	0.676899	0.044265	0.000109
C38	C	1.010233	0.377598	0.333443
C39	C	1.343566	0.710931	0.666776
C40	C	0.675772	0.137501	0.000110
C41	C	1.009106	0.470834	0.333443
C42	C	1.342439	0.804168	0.666776
N43	N	0.672731	-0.109366	0.219575
N44	N	1.006064	0.223967	0.552908
N45	N	1.339398	0.557301	0.886241
C46	C	0.106572	-0.184874	0.000109
C47	C	0.439906	0.148460	0.333443
C48	C	0.773239	0.481793	0.666776
C49	C	0.047168	-0.183824	0.000115
C50	C	0.380501	0.149509	0.333448
C51	C	0.713835	0.482842	0.666782
O52	O	0.010674	-0.248403	0.000144
O53	O	0.344007	0.084931	0.333477
O54	O	0.677340	0.418264	0.666811
N55	N	0.024243	-0.106724	0.000119
N56	N	0.357577	0.226610	0.333453
N57	N	0.690910	0.559943	0.666786
C58	C	0.060726	-0.030668	0.000127
C59	C	0.394060	0.302666	0.333461
C60	C	0.727393	0.635999	0.666794
O61	O	0.035772	0.035009	0.000132
O62	O	0.369105	0.368342	0.333466
O63	O	0.702439	0.701675	0.666799
C64	C	0.120129	-0.031718	0.000128
C65	C	0.453463	0.301615	0.333461
C66	C	0.786796	0.634949	0.666795
C67	C	0.143051	-0.108823	0.000114
C68	C	0.476384	0.224510	0.333448
C69	C	0.809717	0.557843	0.666781
C70	C	0.129494	-0.261973	0.000097
C71	C	0.462828	0.071361	0.333430
C72	C	0.796161	0.404694	0.666763
C73	C	0.188894	-0.263022	0.000089
C74	C	0.522228	0.070312	0.333423
C75	C	0.855561	0.403645	0.666756
C76	C	0.225373	-0.186971	0.000094
C77	C	0.558706	0.146362	0.333428
C78	C	0.892039	0.479695	0.666761
C79	C	0.202451	-0.109872	0.000107
C80	C	0.535784	0.223461	0.333440
C81	C	0.869118	0.556794	0.666774
C82	C	0.156611	0.044337	0.000143
C83	C	0.489944	0.377671	0.333476
C84	C	0.823278	0.711004	0.666809
C85	C	0.216018	0.043281	0.000144
C86	C	0.549351	0.376614	0.333478
C87	C	0.882684	0.709947	0.666811
C88	C	0.238939	-0.033825	0.000131
C89	C	0.572272	0.299508	0.333464
C90	C	0.905606	0.632842	0.666797
C91	C	0.298329	-0.034871	0.000105
C92	C	0.631663	0.298462	0.333438
C93	C	0.964996	0.631796	0.666771
N94	N	0.321254	-0.111971	0.000100
N95	N	0.654588	0.221362	0.333434
N96	N	0.987921	0.554695	0.666767
C97	C	0.284776	-0.188022	0.000095
C98	C	0.618109	0.145312	0.333429
C99	C	0.951443	0.478645	0.666762
C100	C	-0.064025	-0.028468	0.000127
C101	C	0.269308	0.304865	0.333460
C102	C	0.602642	0.638199	0.666794
C103	C	-0.123427	-0.027417	0.000119
C104	C	0.209906	0.305916	0.333453
C105	C	0.543240	0.639250	0.666786
C106	C	-0.136981	-0.180574	0.000109
C107	C	0.196352	0.152759	0.333442
C108	C	0.529686	0.486093	0.666776
C109	C	-0.077578	-0.181624	0.000110
C110	C	0.255756	0.151709	0.333443
C111	C	0.589089	0.485043	0.666777
C112	C	-0.041100	-0.105569	0.000123
C113	C	0.292233	0.227765	0.333456
C114	C	0.625567	0.561098	0.666789
C115	C	0.409521	-0.190219	0.000079
C116	C	0.742855	0.143115	0.333412
C117	C	1.076188	0.476448	0.666745
C118	C	0.468927	-0.191261	0.000067
C119	C	0.802261	0.142072	0.333401
C120	C	1.135594	0.475406	0.666734
C121	C	0.482476	-0.038104	0.000083
C122	C	0.815809	0.295229	0.333416
C123	C	1.149143	0.628562	0.666749
C124	C	0.423075	-0.037062	0.000089
C125	C	0.756409	0.296272	0.333422
C126	C	1.089742	0.629605	0.666756
C127	C	0.386599	-0.113126	0.000090
C128	C	0.719932	0.220208	0.333424
C129	C	1.053265	0.553541	0.666757
O130	O	0.334859	0.029673	0.000080
O131	O	0.668192	0.363007	0.333413
O132	O	1.001525	0.696340	0.666746
O133	O	0.309738	-0.253687	0.000103
O134	O	0.643072	0.079646	0.333436
O135	O	0.976405	0.412980	0.666769
C136	C	0.776868	-0.102338	0.000115
C137	C	1.110202	0.230995	0.333448
C138	C	1.443535	0.564329	0.666782
C139	C	0.840090	-0.103468	0.000119
C140	C	1.173423	0.229866	0.333453
C141	C	1.506756	0.563199	0.666786
C142	C	0.668596	-0.262943	0.000089
C143	C	1.001929	0.070390	0.333422
C144	C	1.335262	0.403724	0.666755
C145	C	0.669723	-0.356179	0.000082
C146	C	1.003056	-0.022846	0.333416
C147	C	1.336389	0.310487	0.666749
C148	C	0.618885	0.351879	0.000087
C149	C	0.952218	0.685212	0.333421
C150	C	1.285551	1.018545	0.666754
C151	C	0.645294	0.413109	0.076133
C152	C	0.978628	0.746442	0.409467
C153	C	1.311961	1.079775	0.742800
C154	C	0.673733	0.308210	0.000102
C155	C	1.007067	0.641543	0.333435
C156	C	1.340400	0.974876	0.666769
C157	C	0.645322	0.413111	-0.075919
C158	C	0.978655	0.746445	0.257414
C159	C	1.311988	1.079778	0.590748
C160	C	0.671760	0.473106	0.000091
C161	C	1.005093	0.806439	0.333424
C162	C	1.338427	1.139773	0.666757
C163	C	0.700158	0.368212	0.076211
C164	C	1.033491	0.701545	0.409544
C165	C	1.366825	1.034879	0.742877
C166	C	0.700178	0.368208	-0.075910
C167	C	1.033511	0.701542	0.257424
C168	C	1.366844	1.034875	0.590757
C169	C	0.726627	0.429421	0.000155
C170	C	1.059961	0.762755	0.333488
C171	C	1.393294	1.096088	0.666821
C172	C	0.674869	0.213217	0.000109
C173	C	1.008202	0.546550	0.333443
C174	C	1.341535	0.879884	0.666776
C175	C	0.670629	0.568097	0.000090
C176	C	1.003962	0.901431	0.333424
C177	C	1.337296	1.234764	0.666757
N178	N	0.672769	-0.109306	-0.219375
N179	N	1.006102	0.224028	0.113959
N180	N	1.339435	0.557361	0.447292
C181	C	0.632296	-0.169308	0.469218
C182	C	0.965629	0.164025	0.802551
C183	C	1.298963	0.497359	1.135885
C184	C	0.683757	-0.185182	0.531028
C185	C	1.017090	0.148152	0.864361
C186	C	1.350423	0.481485	1.197694
C187	C	0.672745	-0.109346	0.408736
C188	C	1.006078	0.223987	0.742070
C189	C	1.339412	0.557321	1.075403
C190	C	0.621298	-0.093492	0.531020
C191	C	0.954631	0.239842	0.864354
C192	C	1.287964	0.573175	1.197687
C193	C	0.672754	-0.109328	0.591458
C194	C	1.006087	0.224005	0.924791
C195	C	1.339420	0.557338	1.258124
C196	C	0.724232	-0.125257	0.469185
C197	C	1.057565	0.208076	0.802519
C198	C	1.390898	0.541410	1.135852
C199	C	0.661739	-0.033535	0.469172
C200	C	0.995072	0.299799	0.802506
C201	C	1.328405	0.633132	1.135839
C202	C	0.713237	-0.049376	0.530954
C203	C	1.046570	0.283958	0.864288
C204	C	1.379903	0.617291	1.197621
C205	C	0.672739	-0.109358	0.303475
C206	C	1.006072	0.223975	0.636808
C207	C	1.339406	0.557308	0.970142
C208	C	0.672766	-0.109315	0.696717
C209	C	1.006099	0.224018	1.030050
C210	C	1.339432	0.557351	1.363383
H211	H	0.487586	-0.254052	0.000056
H212	H	0.820919	0.079281	0.333389
H213	H	1.154253	0.412615	0.666723
F214	F	0.730449	0.342332	0.160335
F215	F	1.063783	0.675665	0.493668
F216	F	1.397116	1.008998	0.827002
F217	F	0.254837	0.124232	0.000160
F218	F	0.588171	0.457565	0.333494
F219	F	0.921504	0.790899	0.666827
H220	H	0.598124	-0.220056	0.442111
H221	H	0.931458	0.113277	0.775445
H222	H	1.264791	0.446611	1.108778
H223	H	0.577786	-0.080090	0.558184
H224	H	0.911119	0.253243	0.891518
H225	H	1.244452	0.586576	1.224851
F226	F	0.132230	0.126405	0.000144
F227	F	0.465563	0.459738	0.333477
F228	F	0.798897	0.793072	0.666811
H229	H	0.622089	0.433014	0.140416
H230	H	0.955423	0.766347	0.473750
H231	H	1.288756	1.099680	0.807083
H232	H	0.404412	0.025724	0.000087
H233	H	0.737745	0.359057	0.333420
H234	H	1.071079	0.692390	0.666753
F235	F	0.695936	-0.268969	0.566541
F236	F	1.029270	0.064364	0.899875
F237	F	1.362603	0.397698	1.233208
H238	H	0.772194	0.462964	0.000205
H239	H	1.105527	0.796297	0.333538
H240	H	1.438861	1.129631	0.666872
H241	H	0.512187	0.023814	0.000083
H242	H	0.845521	0.357147	0.333417
H243	H	1.178854	0.690480	0.666750
H244	H	0.723363	0.348281	-0.140196
H245	H	1.056696	0.681615	0.193137
H246	H	1.390029	1.014948	0.526470
F247	F	0.614994	0.439126	-0.159945
F248	F	0.948328	0.772460	0.173388
F249	F	1.281661	1.105793	0.506721
H250	H	0.767753	-0.138736	0.442138
H251	H	1.101086	0.194598	0.775471
H252	H	1.434420	0.527931	1.108805
H253	H	0.747484	0.001343	0.557891
H254	H	1.080817	0.334676	0.891224
H255	H	1.414151	0.668010	1.224558
F256	F	0.649539	0.050228	0.433629
F257	F	0.982873	0.383561	0.766963
F258	F	1.316206	0.716894	1.100296
H259	H	0.099799	-0.323906	0.000096
H260	H	0.433132	0.009428	0.333429
H261	H	0.766465	0.342761	0.666763
F262	F	0.213281	-0.345089	0.000079
F263	F	0.546615	-0.011755	0.333413
F264	F	0.879948	0.321578	0.666746
F265	F	-0.053189	-0.263689	0.000097
F266	F	0.280144	0.069644	0.333431
F267	F	0.613478	0.402977	0.666764
F268	F	-0.175814	-0.261514	0.000107
F269	F	0.157519	0.071819	0.333441
F270	F	0.490852	0.405153	0.666774
F271	F	-0.147815	0.054649	0.000113
F272	F	0.185519	0.387982	0.333446
F273	F	0.518852	0.721316	0.666780
F274	F	-0.025207	0.052486	0.000132
F275	F	0.308127	0.385820	0.333465
F276	F	0.641460	0.719153	0.666798
F277	F	0.370708	-0.271175	0.000081
F278	F	0.704041	0.062159	0.333414
F279	F	1.037375	0.395492	0.666747
H280	H	0.573358	0.318187	0.000156
H281	H	0.906691	0.651521	0.333489
H282	H	1.240024	0.984854	0.666822
