data_functionalizedCrystal
_audit_creation_method	'MofGen! by Chris Wilmer'
_symmetry_space_group_name_H-M	'P1'
_symmetry_Int_Tables_number	1
_symmetry_cell_setting	triclinic
loop_
_symmetry_equiv_pos_as_xyz
  x,y,z
_cell_length_a	17.640112
_cell_length_b	19.120786
_cell_length_c	17.639306
_cell_angle_alpha	99.260613
_cell_angle_beta	87.804122
_cell_angle_gamma	104.119216
loop_
_atom_site_label
_atom_site_type_symbol
_atom_site_fract_x
_atom_site_fract_y
_atom_site_fract_z
Zn1	Zn	1.242712	-0.090587	-0.191727
Zn2	Zn	1.211437	-0.190204	-0.061080
Zn3	Zn	1.089548	-0.099887	-0.090037
Zn4	Zn	1.107610	-0.235941	-0.211966
O5	O	1.162827	-0.154155	-0.138703
O6	O	1.346115	-0.080768	-0.153808
O7	O	1.174620	-0.162974	0.040782
O8	O	1.115395	-0.000024	-0.107175
O9	O	1.323138	-0.153956	-0.057823
O10	O	1.227924	0.006809	-0.181887
O11	O	1.085069	-0.096618	0.019508
O12	O	0.984392	-0.140968	-0.126800
O13	O	1.146179	-0.231909	-0.314985
O14	O	0.997662	-0.240927	-0.216381
O15	O	1.245438	-0.125118	-0.300116
O16	O	1.192135	-0.294900	-0.077447
O17	O	1.115853	-0.328503	-0.188302
C18	C	0.963140	-0.196920	-0.176929
C19	C	0.877715	-0.215235	-0.193300
C20	C	1.152584	-0.337273	-0.131941
C21	C	1.148278	-0.415601	-0.129060
C22	C	0.562203	-0.015007	-0.014344
C23	C	0.481935	-0.032232	-0.029736
C24	C	0.495768	-0.136419	-0.122845
C25	C	0.576040	-0.119201	-0.107464
C26	C	0.609251	-0.058494	-0.053211
C27	C	0.623087	-0.162688	-0.146331
C28	C	0.703351	-0.145472	-0.130947
C29	C	0.736567	-0.084770	-0.076696
C30	C	0.689514	-0.041279	-0.037828
C31	C	0.589874	-0.223397	-0.200579
C32	C	0.636921	-0.266884	-0.239447
C33	C	0.717188	-0.249666	-0.224067
C34	C	0.750404	-0.188963	-0.169816
C35	C	0.764241	-0.293157	-0.262936
C36	C	0.844505	-0.275942	-0.247552
C37	C	0.830668	-0.171748	-0.154432
C38	C	1.204814	-0.448795	-0.166652
C39	C	1.200764	-0.522393	-0.163947
C40	C	1.140182	-0.562794	-0.123646
C41	C	1.083640	-0.529595	-0.086054
C42	C	1.087687	-0.456000	-0.088764
C43	C	1.125031	-0.785185	-0.113519
C44	C	1.120989	-0.858785	-0.110810
C45	C	1.238113	-0.851577	-0.188705
C46	C	1.242157	-0.777980	-0.191407
C47	C	1.185614	-0.744789	-0.153819
C48	C	1.136043	-0.638022	-0.120878
C49	C	1.189750	-0.669563	-0.156591
C50	C	1.363293	-0.111223	-0.100328
C51	C	1.448720	-0.092927	-0.083975
C52	C	1.201312	-0.182578	-0.335725
C53	C	1.217712	-0.194690	-0.419684
C54	C	1.173133	0.029681	-0.145503
C55	C	1.177525	0.108021	-0.148401
C56	C	1.038549	-0.061813	-0.751215
C57	C	1.053976	-0.073205	-0.830104
C58	C	1.147217	-0.142294	-0.807933
C59	C	1.131800	-0.130904	-0.729041
C60	C	1.077465	-0.090664	-0.700688
C61	C	1.170716	-0.159755	-0.678514
C62	C	1.155298	-0.148370	-0.599629
C63	C	1.100964	-0.108133	-0.571271
C64	C	1.062047	-0.079278	-0.621803
C65	C	1.225047	-0.200000	-0.706868
C66	C	1.263963	-0.228851	-0.656341
C67	C	1.248549	-0.217461	-0.577454
C68	C	1.194215	-0.177224	-0.549096
C69	C	1.287466	-0.246316	-0.526921
C70	C	1.272048	-0.234930	-0.448036
C71	C	1.178796	-0.165839	-0.470211
C72	C	1.124538	-0.125782	0.057559
C73	C	1.108298	-0.113439	0.141539
H74	H	0.857712	-0.122306	-0.110266
C75	C	0.726054	0.025506	0.021839
H76	H	0.686540	0.048943	0.042785
H77	H	0.764735	0.058705	-0.002250
H78	H	0.749419	0.010064	0.061799
C79	C	1.323735	-0.273106	-0.687529
H80	H	1.344703	-0.288659	-0.646137
H81	H	1.364744	-0.243410	-0.712888
H82	H	1.298630	-0.314560	-0.722793
H83	H	0.468716	-0.185848	-0.167015
C84	C	1.314852	-0.266662	-0.392451
H85	H	1.297881	-0.254124	-0.341410
H86	H	1.369597	-0.247154	-0.395867
H87	H	1.303471	-0.318296	-0.405777
C88	C	1.271447	-0.404363	-0.210994
H89	H	1.304531	-0.434679	-0.233003
H90	H	1.300906	-0.364289	-0.176779
H91	H	1.250008	-0.386724	-0.250575
H92	H	0.589248	0.034435	0.029822
C93	C	1.347232	-0.290577	-0.558112
H94	H	1.368199	-0.306132	-0.516721
H95	H	1.388241	-0.260886	-0.583475
H96	H	1.322119	-0.332030	-0.593374
C97	C	0.430186	0.015611	0.013018
H98	H	0.461464	0.054233	0.047526
H99	H	0.390927	-0.013262	0.040968
H100	H	0.406250	0.035390	-0.023070
C101	C	0.824855	-0.065828	-0.059769
H102	H	0.837893	-0.023450	-0.021888
H103	H	0.853229	-0.056849	-0.105498
H104	H	0.837908	-0.105502	-0.041461
C105	C	0.727716	-0.359900	-0.322648
H106	H	0.767234	-0.383328	-0.343603
H107	H	0.704366	-0.344417	-0.362583
H108	H	0.689023	-0.393132	-0.298602
H109	H	0.882812	-0.311353	-0.279203
C110	C	1.256381	-0.625131	-0.200931
H111	H	1.289473	-0.655440	-0.222939
H112	H	1.285832	-0.585056	-0.166711
H113	H	1.234941	-0.607492	-0.240512
H114	H	1.017810	-0.046501	-0.598717
H115	H	1.246807	-0.549414	-0.194550
C116	C	0.501584	-0.242343	-0.217496
H117	H	0.488541	-0.284732	-0.255363
H118	H	0.488520	-0.202678	-0.235801
H119	H	0.473221	-0.251323	-0.171757
C120	C	0.600386	-0.333654	-0.299123
H121	H	0.545846	-0.337677	-0.302723
H122	H	0.608726	-0.376566	-0.283722
H123	H	0.624041	-0.327903	-0.347751
C124	C	1.308808	-0.733539	-0.235724
H125	H	1.341900	-0.763850	-0.257725
H126	H	1.338251	-0.693475	-0.201485
H127	H	1.287393	-0.715884	-0.275309
C128	C	1.300300	-0.888092	-0.230056
H129	H	1.289212	-0.937710	-0.222678
H130	H	1.350464	-0.863340	-0.209605
H131	H	1.299577	-0.885762	-0.283409
C132	C	1.054341	-0.903227	-0.066484
H133	H	1.021240	-0.872922	-0.044493
H134	H	1.075762	-0.920876	-0.026904
H135	H	1.024894	-0.943298	-0.100721
H136	H	1.078992	-0.758167	-0.082911
H137	H	1.034310	-0.562497	-0.053243
C138	C	1.069406	-0.682462	-0.076545
H139	H	1.036309	-0.652156	-0.054545
H140	H	1.090833	-0.700114	-0.036971
H141	H	1.039953	-0.722530	-0.110780
H142	H	1.041649	-0.428975	-0.058154
H143	H	1.191454	-0.175060	-0.831029
H144	H	1.134560	-0.133062	-0.447124
C145	C	1.083998	-0.095606	-0.484500
H146	H	1.046061	-0.067514	-0.474853
H147	H	1.130787	-0.070220	-0.457603
H148	H	1.064663	-0.141363	-0.467515
H149	H	0.994312	-0.029036	-0.728129
H150	H	1.022285	-0.049705	-0.871241
C151	C	1.242114	-0.212416	-0.793624
H152	H	1.280070	-0.240487	-0.803269
H153	H	1.261457	-0.166616	-0.810506
H154	H	1.195369	-0.237785	-0.820614
