data_functionalizedCrystal
_audit_creation_method	'MofGen! by Chris Wilmer'
_symmetry_space_group_name_H-M	'P1'
_symmetry_Int_Tables_number	1
_symmetry_cell_setting	triclinic
loop_
_symmetry_equiv_pos_as_xyz
  x,y,z
_cell_length_a	12.837932
_cell_length_b	22.610064
_cell_length_c	12.837942
_cell_angle_alpha	89.994876
_cell_angle_beta	94.829322
_cell_angle_gamma	90.008806
loop_
_atom_site_label
_atom_site_type_symbol
_atom_site_fract_x
_atom_site_fract_y
_atom_site_fract_z
O1	O	1.402344	0.049186	0.272136
O2	O	1.099210	0.049186	0.258691
O3	O	1.244055	0.049182	0.113847
O4	O	1.257498	0.049190	0.416980
O5	O	1.244029	-0.049187	0.113867
O6	O	1.099184	-0.049183	0.258712
O7	O	1.402318	-0.049184	0.272157
Zn8	Zn	1.250746	-0.064801	0.265438
Zn9	Zn	1.250781	0.064804	0.265410
O10	O	1.257472	-0.049180	0.417001
C11	C	1.060127	0.000002	0.254160
C12	C	0.943712	0.000002	0.240614
N13	N	1.250731	-0.153254	0.265456
C14	C	0.782686	-0.000002	0.127402
C15	C	0.892069	-0.000001	0.140122
C16	C	0.885965	0.000003	0.328393
C17	C	0.776582	0.000003	0.315673
C18	C	0.724947	0.000001	0.215174
C19	C	0.615562	0.000005	0.202455
C20	C	0.609460	0.000005	0.390725
C21	C	0.718843	0.000005	0.403445
C22	C	1.314923	-0.561897	0.201285
C23	C	1.314927	-0.623817	0.201278
O24	O	1.369463	-0.655837	0.146728
N25	N	1.250778	-0.654791	0.265389
C26	C	1.186612	-0.623842	0.329503
O27	O	1.132047	-0.655874	0.384033
C28	C	1.186602	-0.561923	0.329504
C29	C	1.250764	-0.530952	0.265396
C30	C	1.379078	-0.530926	0.137182
C31	C	1.379074	-0.469011	0.137190
C32	C	1.314916	-0.438066	0.201302
C33	C	1.250760	-0.469037	0.265405
C34	C	1.122432	-0.530975	0.393612
C35	C	1.122427	-0.469052	0.393607
C36	C	1.186589	-0.438081	0.329499
C37	C	1.186598	-0.376176	0.329526
N38	N	1.250748	-0.345202	0.265415
C39	C	1.314906	-0.376147	0.201303
C40	C	1.186635	-0.753876	0.329495
C41	C	1.186649	-0.815793	0.329501
C42	C	1.314963	-0.815764	0.201273
C43	C	1.314954	-0.753845	0.201274
C44	C	1.250784	-0.722902	0.265384
C45	C	1.314895	-0.246120	0.201327
C46	C	1.314889	-0.184199	0.201344
C47	C	1.186571	-0.184233	0.329567
C48	C	1.186581	-0.246149	0.329554
C49	C	1.250746	-0.277091	0.265425
O50	O	1.132088	-0.344117	0.384045
O51	O	1.369452	-0.344108	0.146772
C52	C	1.441400	0.000002	0.276688
C53	C	1.557815	0.000006	0.290233
C54	C	1.239501	-0.000002	0.074788
C55	C	1.225956	-0.000001	-0.041627
N56	N	1.250804	0.153257	0.265384
C57	C	1.388786	0.000011	-0.266500
C58	C	1.376064	0.000012	-0.375883
C59	C	1.187793	0.000006	-0.369777
C60	C	1.200514	0.000005	-0.260394
C61	C	1.301014	0.000007	-0.208760
C62	C	1.313734	0.000002	-0.099375
C63	C	1.125464	0.000000	-0.093271
C64	C	1.112742	0.000001	-0.202654
C65	C	1.262027	0.000006	0.456060
C66	C	1.275571	0.000009	0.572475
H67	H	0.573523	0.000006	0.120623
C68	C	1.002196	-0.000001	-0.259453
C69	C	0.926292	0.051075	-0.241895
C70	C	0.815742	0.051071	-0.298689
C71	C	0.781096	-0.000010	-0.373041
C72	C	0.857002	-0.051090	-0.390603
C73	C	0.967552	-0.051086	-0.333809
H74	H	0.951938	0.088891	-0.186852
H75	H	0.759552	0.088884	-0.285688
H76	H	0.699261	-0.000013	-0.415084
H77	H	0.831356	-0.088906	-0.445646
H78	H	1.023742	-0.088899	-0.346809
H79	H	1.367199	-0.728632	0.149072
H80	H	0.740644	0.000003	0.045571
H81	H	1.470616	0.000006	-0.224459
C82	C	0.775651	0.000010	0.513988
C83	C	0.758086	-0.051065	0.589918
C84	C	0.814893	-0.051058	0.700462
C85	C	0.889265	0.000025	0.735076
C86	C	0.906833	0.051104	0.659145
C87	C	0.850026	0.051097	0.548601
H88	H	0.703028	-0.088884	0.564296
H89	H	0.801887	-0.088870	0.756671
H90	H	0.931316	0.000031	0.816907
H91	H	0.961890	0.088923	0.684767
H92	H	0.863032	0.088910	0.492391
C93	C	1.449641	-0.434946	0.066660
C94	C	1.400825	-0.392382	-0.017466
C95	C	1.471391	-0.358321	-0.088004
C96	C	1.590773	-0.366824	-0.074415
C97	C	1.639596	-0.409390	0.009716
C98	C	1.569030	-0.443451	0.080253
H99	H	1.312445	-0.386085	-0.027529
H100	H	1.435248	-0.326811	-0.150283
H101	H	1.643010	-0.341610	-0.126631
H102	H	1.727975	-0.415686	0.019778
H103	H	1.605172	-0.474961	0.142532
H104	H	0.939077	-0.000004	0.068648
C105	C	1.116009	-0.280218	0.400079
C106	C	1.164808	-0.322791	0.484201
C107	C	1.094226	-0.356854	0.554719
C108	C	0.974846	-0.348345	0.541116
C109	C	0.926041	-0.305770	0.456990
C110	C	0.996623	-0.271707	0.386472
H111	H	1.253186	-0.329092	0.494274
H112	H	1.130355	-0.388371	0.616995
H113	H	0.922597	-0.373560	0.593318
H114	H	0.837663	-0.299469	0.446917
H115	H	0.960494	-0.240190	0.324197
H116	H	1.367143	-0.271305	0.149106
H117	H	1.053994	-0.000008	-0.046247
H118	H	1.395566	0.000000	-0.057336
H119	H	0.928026	-0.000001	0.410215
C120	C	1.385467	-0.150131	0.130819
C121	C	1.371939	-0.158636	0.011435
C122	C	1.442512	-0.124571	-0.059090
C123	C	1.526614	-0.082001	-0.010229
C124	C	1.540145	-0.073493	0.109162
C125	C	1.469572	-0.107559	0.179686
H126	H	1.309679	-0.190151	-0.024741
H127	H	1.432495	-0.130869	-0.147471
H128	H	1.578856	-0.056783	-0.062436
H129	H	1.602405	-0.041978	0.145337
H130	H	1.479589	-0.101261	0.268067
H131	H	0.562437	0.000007	0.462196
H132	H	1.134337	-0.159028	0.381770
H133	H	1.431323	-0.556116	0.084969
H134	H	1.367203	-0.840970	0.149068
H135	H	1.134415	-0.841005	0.381715
C136	C	1.051846	-0.565035	0.464124
C137	C	0.967749	-0.607605	0.415253
C138	C	0.897157	-0.641664	0.485766
C139	C	0.910660	-0.633153	0.605150
C140	C	0.994761	-0.590581	0.654027
C141	C	1.065353	-0.556522	0.583514
H142	H	0.957750	-0.613907	0.326872
H143	H	0.834900	-0.673178	0.449583
H144	H	0.858404	-0.658366	0.657348
H145	H	1.004760	-0.584279	0.742408
H146	H	1.127610	-0.525007	0.619697
H147	H	1.134384	-0.728684	0.381710
H148	H	1.070169	-0.443861	0.445811
H149	H	1.447538	0.000017	-0.422891
H150	H	1.105971	0.000012	-0.411837
