data_functionalizedCrystal
_audit_creation_method	'MofGen! by Chris Wilmer'
_symmetry_space_group_name_H-M	'P1'
_symmetry_Int_Tables_number	1
_symmetry_cell_setting	triclinic
loop_
_symmetry_equiv_pos_as_xyz
  x,y,z
_cell_length_a	10.686220
_cell_length_b	16.959454
_cell_length_c	10.686551
_cell_angle_alpha	94.404578
_cell_angle_beta	89.691918
_cell_angle_gamma	94.401635
loop_
_atom_site_label
_atom_site_type_symbol
_atom_site_fract_x
_atom_site_fract_y
_atom_site_fract_z
Zn1	Zn	1.972261	-0.192706	0.562392
Zn2	Zn	1.956011	-0.335773	0.352638
Zn3	Zn	1.746376	-0.212926	0.368710
Zn4	Zn	1.762442	-0.334171	0.578415
O5	O	1.859272	-0.268894	0.465539
O6	O	2.145648	-0.203892	0.521135
O7	O	1.914679	-0.328610	0.179225
O8	O	1.776417	-0.099628	0.394423
O9	O	2.133710	-0.309003	0.367030
O10	O	1.942373	-0.084773	0.536720
O11	O	1.760661	-0.238355	0.191033
O12	O	1.572964	-0.236801	0.409960
O13	O	1.803798	-0.306273	0.751835
O14	O	1.584768	-0.325880	0.564030
O15	O	1.957951	-0.202339	0.740063
O16	O	1.930257	-0.446176	0.382567
O17	O	1.788042	-0.444999	0.548445
C18	C	1.533350	-0.283361	0.490478
C19	C	1.393921	-0.289568	0.501177
C20	C	1.859166	-0.474266	0.465525
C21	C	1.859238	-0.562118	0.465553
C22	C	1.785337	-0.933005	0.551894
C23	C	1.933567	-0.934158	0.379285
C24	C	1.933522	-0.851615	0.379276
C25	C	1.859382	-0.809763	0.465577
C26	C	1.785287	-0.850454	0.551886
C27	C	2.007607	-0.810918	0.292961
C28	C	2.007564	-0.728369	0.292948
C29	C	1.933430	-0.686515	0.379256
C30	C	1.859333	-0.727212	0.465569
C31	C	1.785193	-0.685360	0.551870
C32	C	1.711101	-0.726054	0.638190
C33	C	1.711153	-0.808600	0.638193
C34	C	1.933378	-0.603970	0.379252
C35	C	1.785143	-0.602809	0.551862
C36	C	2.186468	-0.254371	0.440502
C37	C	2.325899	-0.248182	0.429834
C38	C	1.884480	-0.251872	0.792738
C39	C	1.895221	-0.244618	0.932171
C40	C	1.859416	-0.062717	0.465577
C41	C	1.859477	0.025143	0.465593
C42	C	1.834236	-0.285790	0.139606
C43	C	1.823737	-0.292810	0.000156
H44	H	1.374330	-0.208002	0.360567
O45	O	1.741083	-0.348693	0.942190
C46	C	1.806705	-0.400484	0.860946
H47	H	1.900307	-0.369387	0.834180
H48	H	1.824285	-0.455859	0.910302
C49	C	1.613238	-0.462456	0.774556
C50	C	1.728197	-0.424259	0.741674
H51	H	1.564810	-0.477126	0.700986
H52	H	1.569026	-0.427566	0.829295
H53	H	1.627905	-0.508598	0.815688
H54	H	1.713529	-0.378114	0.700558
H55	H	1.772404	-0.459143	0.686925
O56	O	1.335951	-0.337447	0.583790
C57	C	1.204972	-0.333210	0.576425
H58	H	1.184054	-0.275081	0.536851
H59	H	1.162606	-0.385151	0.512317
C60	C	1.173074	-0.408335	0.757045
C61	C	1.147382	-0.336938	0.708449
H62	H	1.137548	-0.410638	0.838482
H63	H	1.261316	-0.411193	0.762005
H64	H	1.137768	-0.451611	0.703610
H65	H	1.182701	-0.293663	0.761875
H66	H	1.059144	-0.334073	0.703501
H67	H	1.964650	-0.197809	0.980643
H68	H	1.724774	-0.568738	0.622143
H69	H	1.650730	-0.691970	0.708451
H70	H	1.725017	-0.966141	0.622177
O71	O	1.639358	-0.848208	0.722077
C72	C	1.716985	-0.888513	0.797719
H73	H	1.808695	-0.898910	0.746280
H74	H	1.737830	-0.851241	0.889649
C75	C	1.537099	-0.956074	0.888825
C76	C	1.649735	-0.968850	0.825643
H77	H	1.495615	-1.005629	0.906056
H78	H	1.484799	-0.928918	0.837868
H79	H	1.554486	-0.925012	0.965427
H80	H	1.632345	-0.999903	0.749036
H81	H	1.702030	-0.996013	0.876588
O82	O	2.005500	-0.974932	0.295534
C83	C	1.989599	-1.056520	0.314001
H84	H	1.955959	-1.064599	0.413946
H85	H	1.917074	-1.086799	0.244686
C86	C	2.156958	-1.083907	0.170042
C87	C	2.115652	-1.093829	0.292800
H88	H	2.234711	-1.106923	0.156959
H89	H	2.167669	-1.028940	0.157596
H90	H	2.096510	-1.109139	0.112293
H91	H	2.176092	-1.068589	0.350546
H92	H	2.104954	-1.148793	0.305255
O93	O	2.079658	-0.851635	0.209253
C94	C	2.166137	-0.892087	0.274457
H95	H	2.181571	-0.861700	0.372646
H96	H	2.127618	-0.956139	0.281794
C97	C	2.272833	-0.928122	0.082538
C98	C	2.291797	-0.890796	0.203132
H99	H	2.350345	-0.927329	0.038540
H100	H	2.214568	-0.900871	0.038607
H101	H	2.240730	-0.981495	0.088670
H102	H	2.323884	-0.837422	0.196999
H103	H	2.350071	-0.918038	0.247060
H104	H	2.067894	-0.695241	0.222664
H105	H	1.993696	-0.570841	0.308966
