data_functionalizedCrystal
_audit_creation_method	'MofGen! by Chris Wilmer'
_symmetry_space_group_name_H-M	'P1'
_symmetry_Int_Tables_number	1
_symmetry_cell_setting	triclinic
loop_
_symmetry_equiv_pos_as_xyz
  x,y,z
_cell_length_a	10.967874
_cell_length_b	11.026607
_cell_length_c	10.065875
_cell_angle_alpha	79.268236
_cell_angle_beta	69.229500
_cell_angle_gamma	83.619819
loop_
_atom_site_label
_atom_site_type_symbol
_atom_site_fract_x
_atom_site_fract_y
_atom_site_fract_z
O1	O	1.760378	-0.088173	-0.527502
O2	O	2.260378	0.411827	-0.027502
O3	O	1.389779	-0.118100	-0.440346
O4	O	1.889779	0.381900	0.059654
O5	O	1.544363	0.072636	-0.476695
O6	O	2.044363	0.572636	0.023305
O7	O	1.605795	-0.278909	-0.491153
O8	O	2.105795	0.221091	0.008847
O9	O	1.514919	0.036124	-0.242783
O10	O	2.014919	0.536124	0.257217
O11	O	1.360335	-0.154613	-0.206433
O12	O	1.860335	0.345387	0.293567
O13	O	1.730934	-0.124685	-0.293590
O14	O	2.230934	0.375315	0.206410
Zn15	Zn	1.540960	-0.145446	-0.212873
Zn16	Zn	2.040960	0.354554	0.287127
Zn17	Zn	1.579754	-0.097339	-0.521063
Zn18	Zn	2.079754	0.402661	-0.021063
O19	O	1.576350	-0.315422	-0.257240
O20	O	2.076350	0.184578	0.242760
C21	C	1.326875	-0.136938	-0.312058
C22	C	1.826875	0.363062	0.187942
C23	C	1.183304	-0.138655	-0.278294
C24	C	1.683304	0.361345	0.221706
C25	C	1.134549	-0.120506	-0.384414
C26	C	1.634549	0.379494	0.115586
C27	C	0.986161	-0.122280	-0.349519
C28	C	1.486161	0.377720	0.150481
C29	C	1.518309	0.099267	-0.357076
C30	C	2.018309	0.599267	0.142924
C31	C	1.484526	0.233014	-0.349136
C32	C	1.984526	0.733014	0.150864
C33	C	1.793839	-0.105847	-0.421881
C34	C	2.293839	0.394153	0.078119
C35	C	1.937411	-0.104129	-0.455655
C36	C	2.437411	0.395871	0.044345
C37	C	1.602405	-0.342052	-0.376863
C38	C	2.102405	0.157948	0.123137
C39	C	1.636189	-0.475798	-0.384812
C40	C	2.136189	0.024202	0.115188
N41	N	1.514494	-0.178277	-0.002544
N42	N	2.014494	0.321723	0.497456
C43	C	1.577808	0.309491	-0.371075
C44	C	2.077808	0.809491	0.128925
C45	C	1.542894	0.447726	-0.362870
C46	C	2.042894	0.947726	0.137130
N47	N	1.606228	-0.064499	-0.731394
N48	N	2.106228	0.435501	-0.231394
C49	C	1.570535	-0.108755	0.052057
C50	C	2.070535	0.391245	0.552057
C51	C	1.550178	-0.134031	0.214011
C52	C	2.050178	0.365969	0.714011
H53	H	0.918051	-0.139140	-0.232825
H54	H	1.418051	0.360860	0.267175
Br55	Br	1.812395	0.462785	-0.426264
Br56	Br	2.312395	0.962785	0.073736
H57	H	1.451437	-0.256506	0.070610
H58	H	1.951437	0.243494	0.570610
H59	H	1.005521	-0.087284	-0.572350
H60	H	1.505521	0.412716	-0.072350
H61	H	1.378818	0.269880	-0.324285
H62	H	1.878818	0.769880	0.175715
Br63	Br	1.069789	-0.166758	-0.083800
Br64	Br	1.569789	0.333242	0.416200
H65	H	1.487118	-0.212265	0.287160
H66	H	1.987118	0.287735	0.787160
H67	H	1.202664	-0.103661	-0.501101
H68	H	1.702664	0.396339	-0.001101
H69	H	1.683516	0.272625	-0.395927
H70	H	2.183516	0.772625	0.104073
Br71	Br	1.366694	0.509153	-0.321451
Br72	Br	1.866694	1.009153	0.178549
Br73	Br	1.675231	0.021937	-0.069763
Br74	Br	2.175231	0.521937	0.430237
H75	H	1.669277	0.013744	0.195460
H76	H	2.169277	0.513744	0.695460
