data_functionalizedCrystal
_audit_creation_method	'MofGen! by Chris Wilmer'
_symmetry_space_group_name_H-M	'P1'
_symmetry_Int_Tables_number	1
_symmetry_cell_setting	triclinic
loop_
_symmetry_equiv_pos_as_xyz
  x,y,z
_cell_length_a	12.759395
_cell_length_b	12.759394
_cell_length_c	11.169409
_cell_angle_alpha	89.967170
_cell_angle_beta	89.979216
_cell_angle_gamma	90.015393
loop_
_atom_site_label
_atom_site_type_symbol
_atom_site_fract_x
_atom_site_fract_y
_atom_site_fract_z
Zn1	Zn	1.606278	-0.418138	-0.678569
Zn2	Zn	1.606170	-0.593864	-0.477885
Zn3	Zn	1.430575	-0.418204	-0.477900
Zn4	Zn	1.430571	-0.593781	-0.678526
O5	O	1.518398	-0.505997	-0.578220
O6	O	1.753285	-0.441456	-0.651960
O7	O	1.582834	-0.570625	-0.309937
O8	O	1.453929	-0.271175	-0.504544
O9	O	1.753205	-0.570561	-0.504517
O10	O	1.583017	-0.271126	-0.651975
O11	O	1.453825	-0.441569	-0.309948
O12	O	1.283553	-0.441488	-0.504502
O13	O	1.453922	-0.570419	-0.846482
O14	O	1.283550	-0.570483	-0.651901
O15	O	1.583013	-0.441375	-0.846513
O16	O	1.582830	-0.740874	-0.504475
O17	O	1.453818	-0.740813	-0.651886
C18	C	1.245431	-0.505984	-0.578199
C19	C	1.128654	-0.506004	-0.578219
C20	C	1.128690	-0.640544	-0.731457
C21	C	1.073846	-0.707822	-0.808080
C22	C	0.964125	-0.707835	-0.808094
C23	C	0.909244	-0.640560	-0.731481
C24	C	0.964087	-0.573282	-0.654858
C25	C	1.073811	-0.573278	-0.654849
C26	C	0.964052	-0.438738	-0.501628
C27	C	1.073773	-0.438729	-0.501606
C28	C	0.909171	-0.371463	-0.425015
C29	C	0.964014	-0.304189	-0.348384
C30	C	1.073742	-0.304179	-0.348372
C31	C	1.128616	-0.371451	-0.424983
C32	C	1.518340	-0.778964	-0.578200
C33	C	1.518411	-0.895741	-0.578232
C34	C	1.652730	-0.895532	-0.731867
C35	C	1.719922	-0.950289	-0.808693
C36	C	1.719985	-1.060010	-0.808719
C37	C	1.652845	-1.114978	-0.731913
C38	C	1.585653	-1.060222	-0.655086
C39	C	1.585600	-0.950497	-0.655066
C40	C	1.451330	-1.060430	-0.501460
C41	C	1.451272	-0.950709	-0.501426
C42	C	1.384191	-1.115398	-0.424653
C43	C	1.317002	-1.060642	-0.347819
C44	C	1.316943	-0.950913	-0.347795
C45	C	1.384079	-0.895952	-0.424599
C46	C	1.792432	-0.506010	-0.578242
C47	C	1.909208	-0.506016	-0.578251
C48	C	1.518479	-0.505880	-0.891263
C49	C	1.518513	-0.505830	-1.024663
C50	C	1.518486	-0.231963	-0.578266
C51	C	1.518523	-0.115187	-0.578286
C52	C	1.518379	-0.506037	-0.266395
C53	C	1.518548	-0.505791	-0.132996
H54	H	0.819903	-0.640567	-0.731510
H55	H	1.774688	-1.104593	-0.871290
H56	H	0.919472	-0.762613	-0.870493
Cl57	Cl	1.232599	-1.129748	-0.251285
H58	H	0.819829	-0.371474	-0.425037
H59	H	1.217957	-0.371453	-0.424977
Cl60	Cl	1.652643	-0.757596	-0.731856
H61	H	1.384242	-1.204739	-0.424684
Cl62	Cl	1.804312	-0.881182	-0.905255
Cl63	Cl	1.142844	-0.792399	-0.904380
Cl64	Cl	1.653076	-1.252914	-0.731777
Cl65	Cl	1.383994	-0.758016	-0.424595
H66	H	0.919321	-0.249414	-0.286018
Cl67	Cl	1.142678	-0.219590	-0.252046
H68	H	1.262223	-0.906336	-0.285239
H69	H	1.218031	-0.640548	-0.731444
