data_functionalizedCrystal
_audit_creation_method	'MofGen! by Chris Wilmer'
_symmetry_space_group_name_H-M	'P1'
_symmetry_Int_Tables_number	1
_symmetry_cell_setting	triclinic
loop_
_symmetry_equiv_pos_as_xyz
  x,y,z
_cell_length_a	15.298114
_cell_length_b	15.299816
_cell_length_c	11.169409
_cell_angle_alpha	80.352328
_cell_angle_beta	80.332446
_cell_angle_gamma	69.256891
loop_
_atom_site_label
_atom_site_type_symbol
_atom_site_fract_x
_atom_site_fract_y
_atom_site_fract_z
Zn1	Zn	1.485567	-0.615755	0.477843
Zn2	Zn	1.985567	-0.115755	0.977843
Zn3	Zn	1.512353	-0.771233	0.306804
Zn4	Zn	2.012353	-0.271233	0.806804
Zn5	Zn	1.330075	-0.588931	0.306853
Zn6	Zn	1.830075	-0.088931	0.806853
Zn7	Zn	1.356930	-0.744293	0.537082
Zn8	Zn	1.856930	-0.244293	1.037082
O9	O	1.421231	-0.680053	0.407145
O10	O	1.921231	-0.180053	0.907145
O11	O	1.619240	-0.658880	0.430342
O12	O	2.119240	-0.158880	0.930342
O13	O	1.488145	-0.747099	0.138879
O14	O	1.988145	-0.247099	0.638879
O15	O	1.328253	-0.462402	0.304764
O16	O	1.828253	0.037598	0.804764
O17	O	1.638919	-0.773109	0.304680
O18	O	2.138919	-0.273109	0.804680
O19	O	1.442492	-0.482109	0.430389
O20	O	1.942492	0.017891	0.930389
O21	O	1.354226	-0.613163	0.138914
O22	O	1.854226	-0.113163	0.638914
O23	O	1.203518	-0.587040	0.362206
O24	O	1.703518	-0.087040	0.862206
O25	O	1.374023	-0.727193	0.697156
O26	O	1.874023	-0.227193	1.197156
O27	O	1.223248	-0.701183	0.531354
O28	O	1.723248	-0.201183	1.031354
O29	O	1.468532	-0.632757	0.653633
O30	O	1.968532	-0.132757	1.153633
O31	O	1.514185	-0.897747	0.362122
O32	O	2.014185	-0.397747	0.862122
O33	O	1.399996	-0.877954	0.531307
O34	O	1.899996	-0.377954	1.031307
C35	C	1.179645	-0.638278	0.453214
C36	C	1.679645	-0.138278	0.953214
C37	C	1.076297	-0.620429	0.472955
C38	C	1.576297	-0.120429	0.972955
C39	C	0.825892	-0.807630	0.266349
C40	C	1.325892	-0.307630	0.766349
C41	C	0.922993	-0.824399	0.247792
C42	C	1.422993	-0.324399	0.747792
C43	C	0.961324	-0.773408	0.304082
C44	C	1.461324	-0.273408	0.804082
C45	C	0.902545	-0.705645	0.378931
C46	C	1.402545	-0.205645	0.878931
C47	C	0.805434	-0.688869	0.397482
C48	C	1.305434	-0.188869	0.897482
C49	C	0.940865	-0.654648	0.435214
C50	C	1.440865	-0.154648	0.935214
C51	C	0.882086	-0.586884	0.510063
C52	C	1.382086	-0.086884	1.010063
C53	C	0.784986	-0.570112	0.528612
C54	C	1.284986	-0.070112	1.028612
C55	C	0.746654	-0.621103	0.472322
C56	C	1.246654	-0.121103	0.972322
C57	C	1.037976	-0.671423	0.416663
C58	C	1.537976	-0.171423	0.916663
C59	C	1.017518	-0.552663	0.547796
C60	C	1.517518	-0.052663	1.047796
C61	C	0.920417	-0.535894	0.566353
C62	C	1.420417	-0.035894	1.066353
C63	C	1.462936	-0.921585	0.453159
C64	C	1.962936	-0.421585	0.953159
C65	C	1.480863	-1.024928	0.472867
C66	C	1.980863	-0.524928	0.972867
C67	C	1.293717	-1.275532	0.266576
C68	C	1.793717	-0.775532	0.766576
C69	C	1.276870	-1.178436	0.248063
C70	C	1.776870	-0.678436	0.748063
C71	C	1.327867	-1.140054	0.304262
C72	C	1.827867	-0.640054	0.804262
C73	C	1.395714	-1.198779	0.378979
C74	C	1.895714	-0.698779	0.878979
C75	C	1.412558	-1.295884	0.397501
C76	C	1.912558	-0.795884	0.897501
C77	C	1.446707	-1.160405	0.435187
C78	C	1.946707	-0.660405	0.935187
C79	C	1.514554	-1.219130	0.509904
C80	C	2.014554	-0.719130	1.009904
C81	C	1.531396	-1.316226	0.528422
C82	C	2.031396	-0.816226	1.028422
C83	C	1.480399	-1.354607	0.472223
C84	C	1.980399	-0.854607	0.972223
C85	C	1.429863	-1.063300	0.416664
C86	C	1.929863	-0.563300	0.916664
C87	C	1.548704	-1.083652	0.547589
C88	C	2.048704	-0.583652	1.047589
C89	C	1.565551	-1.180748	0.566103
C90	C	2.065551	-0.680748	1.066103
C91	C	1.663761	-0.721992	0.360898
C92	C	2.163761	-0.221992	0.860898
C93	C	1.767113	-0.739863	0.341189
C94	C	2.267113	-0.239863	0.841189
C95	C	1.421285	-0.679962	0.720155
C96	C	1.921285	-0.179962	1.220155
C97	C	1.421308	-0.679923	0.853541
C98	C	1.921308	-0.179923	1.353541
C99	C	1.379389	-0.437582	0.360974
C100	C	1.879389	0.062418	0.860974
C101	C	1.361558	-0.334256	0.341298
C102	C	1.861558	0.165744	0.841298
C103	C	1.421220	-0.680086	0.095331
C104	C	1.921220	-0.180086	0.595331
C105	C	1.421332	-0.679894	-0.038139
C106	C	1.921332	-0.179894	0.461861
H107	H	0.737128	-0.514929	0.589550
H108	H	1.237128	-0.014929	1.089550
Cl109	Cl	1.306360	-1.017932	0.281468
Cl110	Cl	1.806360	-0.517932	0.781468
H111	H	0.794672	-0.849133	0.220517
H112	H	1.294672	-0.349133	0.720517
H113	H	1.221629	-1.130625	0.187231
H114	H	1.721629	-0.630625	0.687231
H115	H	1.590228	-1.052402	0.593354
H116	H	2.090228	-0.552402	1.093354
Cl117	Cl	1.065697	-0.488552	0.618557
Cl118	Cl	1.565697	0.011448	1.118557
H119	H	0.970844	-0.879570	0.186848
H120	H	1.470844	-0.379570	0.686848
H121	H	1.040388	-0.787066	0.288968
H122	H	1.540388	-0.287066	0.788968
Cl123	Cl	0.624583	-0.600038	0.495668
Cl124	Cl	1.124583	-0.100038	0.995668
H125	H	1.620793	-1.228575	0.626938
H126	H	2.120793	-0.728575	1.126938
H127	H	0.872546	-0.480720	0.627295
H128	H	1.372546	0.019280	1.127295
Cl129	Cl	1.344574	-0.989487	0.322736
Cl130	Cl	1.844574	-0.489487	0.822736
Cl131	Cl	1.229602	-1.323786	0.195957
Cl132	Cl	1.729602	-0.823786	0.695957
H133	H	1.085825	-0.726597	0.355721
H134	H	1.585825	-0.226597	0.855721
Cl135	Cl	1.501770	-1.476710	0.495207
Cl136	Cl	2.001770	-0.976710	0.995207
Cl137	Cl	1.616671	-1.390046	0.622379
Cl138	Cl	2.116671	-0.890046	1.122379
