data_functionalizedCrystal
_audit_creation_method	'MofGen! by Chris Wilmer'
_symmetry_space_group_name_H-M	'P1'
_symmetry_Int_Tables_number	1
_symmetry_cell_setting	triclinic
loop_
_symmetry_equiv_pos_as_xyz
  x,y,z
_cell_length_a	16.974885
_cell_length_b	14.185328
_cell_length_c	15.537862
_cell_angle_alpha	108.253061
_cell_angle_beta	65.368690
_cell_angle_gamma	101.241994
loop_
_atom_site_label
_atom_site_type_symbol
_atom_site_fract_x
_atom_site_fract_y
_atom_site_fract_z
O1	O	1.014806	0.001113	0.120334
O2	O	0.782587	0.019951	0.139943
O3	O	0.943908	0.006856	-0.007898
O4	O	0.853485	0.014208	0.268175
O5	O	0.923044	-0.158297	-0.045616
O6	O	0.761724	-0.145202	0.102224
O7	O	0.993943	-0.164040	0.082616
Cu8	Cu	0.875928	-0.169701	0.088976
Cu9	Cu	0.900601	0.025612	0.133582
O10	O	0.832622	-0.150945	0.230457
C11	C	0.743161	-0.060274	0.121040
C12	C	0.656770	-0.053266	0.120897
N13	N	0.858580	-0.307073	0.057602
C14	C	0.171725	-0.004088	0.122288
C15	C	0.252897	-0.010686	0.122419
C16	C	0.282099	-0.104011	0.101931
C17	C	0.230129	-0.190743	0.081301
C18	C	0.148961	-0.184145	0.081164
C19	C	0.523633	-0.133400	0.100131
C20	C	0.604806	-0.139992	0.100272
C21	C	0.627569	0.040066	0.141388
C22	C	0.546397	0.046657	0.141255
C23	C	0.494436	-0.040076	0.120620
N24	N	0.365068	-0.110757	0.102067
N25	N	0.411471	-0.033329	0.120478
C26	C	0.968855	-0.683613	0.257154
C27	C	0.955736	-0.787577	0.233374
C28	C	0.893278	-0.782503	0.120281
C29	C	0.906388	-0.678536	0.144056
C30	C	0.944177	-0.629099	0.212492
C31	C	0.881710	-0.624022	0.099393
C32	C	0.894822	-0.520065	0.123162
C33	C	0.932613	-0.470621	0.191594
C34	C	0.957290	-0.525142	0.236261
C35	C	0.843926	-0.673461	0.030952
C36	C	0.819248	-0.618948	-0.013710
C37	C	0.832355	-0.514988	0.010064
C38	C	0.870146	-0.465544	0.078495
C39	C	0.807678	-0.460467	-0.034603
C40	C	0.820791	-0.356510	-0.010834
C41	C	0.883258	-0.361587	0.102264
C42	C	1.033369	-0.083813	0.101519
C43	C	1.119760	-0.090814	0.101663
C44	C	0.942937	-0.076488	-0.062043
C45	C	0.971119	-0.078774	-0.167182
N46	N	0.917958	0.162984	0.164949
C47	C	1.085352	-0.088041	-0.328080
C48	C	1.058863	-0.085892	-0.229284
C49	C	0.909831	-0.073797	-0.203857
C50	C	0.936309	-0.075940	-0.302651
C51	C	1.024071	-0.083063	-0.364755
C52	C	0.875028	-0.070963	-0.339326
C53	C	0.901503	-0.073110	-0.438113
C54	C	0.989261	-0.080236	-0.500224
C55	C	1.050546	-0.085211	-0.463542
C56	C	0.787266	-0.063847	-0.277222
C57	C	0.725984	-0.058869	-0.313897
C58	C	0.752460	-0.061010	-0.412684
C59	C	0.840218	-0.068135	-0.474795
C60	C	0.691175	-0.056035	-0.449366
C61	C	0.717650	-0.058183	-0.548153
C62	C	0.866693	-0.070283	-0.573582
C63	C	0.833593	-0.067599	0.284602
C64	C	0.805412	-0.065306	0.389742
H65	H	0.147953	0.071907	0.138979
C66	C	0.777664	-0.673327	-0.088968
H67	H	0.764843	-0.625969	-0.112161
H68	H	0.725550	-0.710077	-0.058715
H69	H	0.816948	-0.717473	-0.142466
H70	H	0.765712	-0.062105	-0.196785
C71	C	1.147083	-0.093040	-0.531866
H72	H	1.154071	-0.093601	-0.595950
H73	H	1.166093	-0.152763	-0.534059
H74	H	1.180638	-0.037570	-0.507745
H75	H	0.999615	-0.643358	0.312892
H76	H	0.862513	-0.822769	0.064557
H77	H	0.943290	-0.385972	0.210944
C78	C	0.629454	-0.051030	-0.245577
H79	H	0.622462	-0.050457	-0.181489
H80	H	0.595892	-0.106483	-0.269697
H81	H	0.610459	0.008708	-0.243385
C82	C	0.982876	-0.847538	0.282515
H83	H	1.007253	-0.803202	0.326681
H84	H	1.024761	-0.891895	0.233735
H85	H	0.933348	-0.884498	0.317461
C86	C	0.998862	-0.470755	0.311536
H87	H	1.011687	-0.518109	0.334731
H88	H	0.959577	-0.426607	0.365020
H89	H	1.050984	-0.434008	0.281283
H90	H	0.833257	-0.758111	0.011596
C91	C	0.310051	0.084710	0.145123
H92	H	0.362577	0.067417	0.142264
H93	H	0.279842	0.124528	0.208881
H94	H	0.323008	0.121034	0.098217
H95	H	0.522627	0.122651	0.157937
H96	H	0.938159	-0.076068	-0.624149
H97	H	1.010816	-0.081980	-0.580662
C98	C	1.181889	-0.095870	-0.396404
H99	H	1.188876	-0.096430	-0.460488
H100	H	1.200899	-0.155593	-0.398596
H101	H	1.215444	-0.040400	-0.372283
H102	H	1.108772	-0.089947	-0.199429
H103	H	0.106648	-0.254766	0.064379
H104	H	0.914019	-0.321332	0.158002
H105	H	0.667747	-0.054141	-0.578017
H106	H	0.619718	-0.050245	-0.398789
C107	C	0.684725	0.135465	0.164078
H108	H	0.655705	0.191990	0.176266
H109	H	0.738441	0.134879	0.109657
H110	H	0.695278	0.138392	0.220326
H111	H	0.776918	-0.500735	-0.090331
H112	H	0.838375	-0.068001	-0.153279
C113	C	0.636945	-0.242654	0.077686
H114	H	0.594383	-0.293365	0.065356
H115	H	0.646570	-0.247246	0.132197
H116	H	0.689714	-0.250690	0.021544
C117	C	0.466245	-0.228777	0.078050
H118	H	0.413653	-0.211482	0.081075
H119	H	0.453456	-0.264692	0.125234
H120	H	0.496147	-0.268989	0.014382
C121	C	0.262248	-0.293398	0.058767
H122	H	0.318027	-0.284908	0.061813
H123	H	0.265848	-0.331067	-0.005032
H124	H	0.222685	-0.327545	0.105639
H125	H	0.800694	-0.312123	-0.047201
