data_functionalizedCrystal
_audit_creation_method	'MofGen! by Chris Wilmer'
_symmetry_space_group_name_H-M	'P1'
_symmetry_Int_Tables_number	1
_symmetry_cell_setting	triclinic
loop_
_symmetry_equiv_pos_as_xyz
  x,y,z
_cell_length_a	12.827893
_cell_length_b	16.625539
_cell_length_c	12.827892
_cell_angle_alpha	89.974941
_cell_angle_beta	90.015553
_cell_angle_gamma	89.981586
loop_
_atom_site_label
_atom_site_type_symbol
_atom_site_fract_x
_atom_site_fract_y
_atom_site_fract_z
Zn1	Zn	1.597663	-0.455881	-0.416027
Zn2	Zn	1.597559	-0.321056	-0.590790
Zn3	Zn	1.422906	-0.321067	-0.416064
Zn4	Zn	1.422889	-0.455851	-0.590727
O5	O	1.510254	-0.388464	-0.503402
O6	O	1.743885	-0.438004	-0.439220
O7	O	1.574354	-0.208225	-0.567654
O8	O	1.446138	-0.338967	-0.269823
O9	O	1.743809	-0.338949	-0.567618
O10	O	1.574531	-0.438015	-0.269796
O11	O	1.446038	-0.208233	-0.439283
O12	O	1.276668	-0.338938	-0.439222
O13	O	1.446110	-0.568687	-0.567511
O14	O	1.276656	-0.437963	-0.567547
O15	O	1.574515	-0.568710	-0.439159
O16	O	1.574338	-0.338920	-0.737017
O17	O	1.446009	-0.437953	-0.736971
C18	C	1.238744	-0.388449	-0.503382
C19	C	1.122591	-0.388462	-0.503399
C20	C	0.950784	-0.437399	-0.567014
C21	C	1.070834	-0.437387	-0.566997
C22	C	1.510322	-0.598773	-0.503324
C23	C	1.510351	-0.688394	-0.503291
C24	C	1.510399	-1.016570	-0.503174
C25	C	1.510383	-0.925261	-0.503210
C26	C	1.510376	-0.852485	-0.503233
C27	C	1.510358	-0.761170	-0.503267
C28	C	1.782824	-0.388479	-0.503422
C29	C	1.898977	-0.388485	-0.503430
C30	C	1.510189	-0.388450	-0.774912
C31	C	1.510257	-0.388470	-0.891065
C32	C	1.510247	-0.178973	-0.503404
C33	C	1.510420	-0.089352	-0.503143
C34	C	1.573833	-0.339520	-0.942838
C35	C	1.573905	-0.339540	-1.062888
C36	C	1.510348	-0.388496	-0.230832
C37	C	1.510388	-0.388509	-0.114678
H38	H	1.078046	-0.346586	-0.448957
F39	F	0.892594	-0.492139	-0.638197
F40	F	1.439233	-0.443286	-1.056494
H41	H	1.455883	-0.430397	-0.935617
H42	H	1.115386	-0.479268	-0.621428
H43	H	0.943501	-0.346597	-0.448986
F44	F	1.644917	-0.284726	-0.884611
H45	H	1.628332	-0.297630	-1.107412
