data_functionalizedCrystal
_audit_creation_method	'MofGen! by Chris Wilmer'
_symmetry_space_group_name_H-M	'P1'
_symmetry_Int_Tables_number	1
_symmetry_cell_setting	triclinic
loop_
_symmetry_equiv_pos_as_xyz
  x,y,z
_cell_length_a	15.625950
_cell_length_b	15.944564
_cell_length_c	14.185569
_cell_angle_alpha	103.157742
_cell_angle_beta	120.545593
_cell_angle_gamma	96.106936
loop_
_atom_site_label
_atom_site_type_symbol
_atom_site_fract_x
_atom_site_fract_y
_atom_site_fract_z
O1	O	1.290666	-0.021748	0.385916
O2	O	1.002543	-0.058684	0.281140
O3	O	1.154468	0.082704	0.336397
O4	O	1.138740	-0.163136	0.330659
O5	O	1.199348	0.124467	0.519555
O6	O	1.047423	-0.016921	0.464298
O7	O	1.335546	0.020015	0.569073
Cu8	Cu	1.195582	0.005360	0.533410
Cu9	Cu	1.142506	-0.044029	0.316804
O10	O	1.183620	-0.121373	0.513817
C11	C	0.988113	-0.040266	0.359312
C12	C	0.878252	-0.047594	0.319362
C13	C	0.639129	0.042051	0.687032
C14	C	0.535883	0.035136	0.649441
C15	C	0.487008	-0.010389	0.449788
C16	C	0.590251	-0.003482	0.487362
C17	C	0.666304	0.022739	0.605985
C18	C	0.617426	-0.022794	0.406316
C19	C	0.720661	-0.015883	0.443888
C20	C	0.796720	0.010340	0.562506
C21	C	0.769539	0.029650	0.643557
C22	C	0.541372	-0.049009	0.287693
C23	C	0.568547	-0.068321	0.206647
C24	C	0.671783	-0.061416	0.244218
C25	C	0.747842	-0.035194	0.362836
C26	C	0.698964	-0.080727	0.163166
C27	C	0.802199	-0.073816	0.200738
C28	C	0.851077	-0.028283	0.400408
C29	C	1.176254	0.134826	0.427738
C30	C	1.174290	0.227911	0.427025
C31	C	1.075421	0.434672	0.391059
C32	C	1.143451	0.520037	0.498059
C33	C	1.170736	0.398343	0.425726
C34	C	1.099225	0.478847	0.317488
C35	C	1.167295	0.562971	0.424464
C36	C	1.238811	0.482500	0.532810
C37	C	1.194552	0.441284	0.352153
C38	C	1.262657	0.526642	0.459201
C39	C	1.172716	0.303505	0.426453
C40	C	1.165324	0.657810	0.423747
C41	C	1.349975	0.001596	0.490900
C42	C	1.459834	0.008923	0.530843
C43	C	1.161821	0.826503	0.422469
C44	C	1.163744	0.733409	0.423164
N45	N	1.232920	0.040100	0.685761
N46	N	1.105176	-0.078761	0.164456
C47	C	0.995477	-0.180789	0.967050
C48	C	1.023767	-0.154479	1.082361
C49	C	1.158324	-0.029320	1.131262
C50	C	1.130042	-0.055617	1.015952
C51	C	1.048619	-0.131352	0.933854
C52	C	1.183184	-0.006180	0.982756
C53	C	1.154908	-0.032477	0.867457
C54	C	1.073490	-0.108211	0.785354
C55	C	1.020343	-0.157649	0.818555
C56	C	1.264612	0.069551	1.064857
C57	C	1.317754	0.118988	1.031661
C58	C	1.289473	0.092694	0.916359
C59	C	1.208055	0.016961	0.834256
C60	C	1.342620	0.142132	0.883157
C61	C	1.314344	0.115835	0.767858
C62	C	1.179778	-0.009337	0.718957
H63	H	0.831465	0.050989	0.740151
Cl64	Cl	0.946694	0.004671	0.549537
H65	H	0.457312	-0.054640	0.257106
H66	H	0.880780	0.015967	0.593095
H67	H	1.408922	0.203792	0.950018
H68	H	0.425072	-0.031735	0.353205
H69	H	0.701055	0.063390	0.783626
Cl70	Cl	0.603350	-0.113654	0.014048
Cl71	Cl	1.110096	0.572868	0.593303
H72	H	1.297819	0.483234	0.623890
Cl73	Cl	0.501728	0.059432	0.751343
H74	H	1.216122	0.407040	0.290449
H75	H	0.506612	-0.089667	0.110063
Cl76	Cl	0.917969	-0.252855	0.715338
H77	H	1.040190	0.478214	0.226470
Cl78	Cl	1.384921	0.587862	0.503730
H79	H	1.384053	0.180651	1.098519
H80	H	0.996332	0.394910	0.362381
Cl81	Cl	0.836367	-0.098091	0.098851
H82	H	1.113468	-0.071003	0.652105
Cl83	Cl	1.037946	-0.141275	0.640406
Cl84	Cl	0.893103	-0.275994	0.863833
H85	H	0.980486	-0.194744	1.109379
Cl86	Cl	1.260684	0.065886	1.234477
H87	H	1.287635	0.090957	1.158740
H88	H	1.357619	0.156091	0.740833
