data_functionalizedCrystal
_audit_creation_method	'MofGen! by Chris Wilmer'
_symmetry_space_group_name_H-M	'P1'
_symmetry_Int_Tables_number	1
_symmetry_cell_setting	triclinic
loop_
_symmetry_equiv_pos_as_xyz
  x,y,z
_cell_length_a	6.817900
_cell_length_b	11.452732
_cell_length_c	15.185463
_cell_angle_alpha	82.305990
_cell_angle_beta	104.264314
_cell_angle_gamma	108.697210
loop_
_atom_site_label
_atom_site_type_symbol
_atom_site_fract_x
_atom_site_fract_y
_atom_site_fract_z
V1	V	-4.046448	-0.169645	-0.256560
O2	O	-4.022253	0.007322	-0.279156
O3	O	-4.008731	-0.335579	-0.228375
O4	O	-4.001660	-0.167400	-0.380512
O5	O	-4.029373	-0.162022	-0.125966
V6	V	-4.528224	-0.148435	-0.244150
O7	O	-4.311540	-0.216172	-0.283780
O8	O	-4.713330	-0.101908	-0.216929
O9	O	-4.342734	0.017500	-0.272335
O10	O	-4.669816	-0.325402	-0.221553
O11	O	-4.662696	-0.156058	-0.374744
O12	O	-4.349805	-0.150680	-0.120198
C13	C	-3.856214	-0.376019	-0.217508
C14	C	-3.906687	-0.511675	-0.195290
C15	C	-3.970938	-0.588940	-0.261832
C16	C	-4.023105	-0.729148	-0.238870
C17	C	-3.847193	-0.161488	-0.411573
C18	C	-3.891929	-0.160750	-0.512731
C19	C	-3.898440	-0.151567	-0.936787
C20	C	-4.263754	-0.163774	-0.944107
C21	C	-4.221721	-0.164456	-0.849064
C22	C	-4.018043	-0.158696	-0.797878
C23	C	-3.856399	-0.152253	-0.841735
C24	C	-4.383364	-0.170912	-0.805200
C25	C	-4.341336	-0.171596	-0.710151
C26	C	-4.137652	-0.165826	-0.658964
C27	C	-3.976002	-0.159382	-0.702826
C28	C	-3.772325	-0.153621	-0.651640
C29	C	-3.610668	-0.147168	-0.695501
C30	C	-3.652715	-0.146483	-0.790547
C31	C	-4.095606	-0.166511	-0.563917
C32	C	-3.730284	-0.154307	-0.556588
C33	C	-4.158594	0.057933	-0.283198
C34	C	-4.087359	0.193588	-0.305422
C35	C	-4.167614	-0.156596	-0.089131
C36	C	-4.102117	-0.157328	0.012027
H37	H	-3.890287	-0.549325	-0.121321
Br38	Br	-4.659778	-0.178751	-0.874669
H39	H	-3.987313	-0.551290	-0.335800
H40	H	-4.006700	-0.766792	-0.164897
H41	H	-4.103742	-0.768770	-0.379396
H42	H	-3.766823	-0.146308	-0.972503
Br43	Br	-3.334262	-0.139368	-0.626022
H44	H	-4.472971	-0.176849	-0.674448
Br45	Br	-3.453848	-0.146474	-0.487129
Br46	Br	-4.314983	-0.175283	-0.504394
Br47	Br	-4.540169	-0.171611	-1.013573
H48	H	-3.521109	-0.141232	-0.826268
