data_functionalizedCrystal
_audit_creation_method	'MofGen! by Chris Wilmer'
_symmetry_space_group_name_H-M	'P1'
_symmetry_Int_Tables_number	1
_symmetry_cell_setting	triclinic
loop_
_symmetry_equiv_pos_as_xyz
  x,y,z
_cell_length_a	13.897449
_cell_length_b	12.645330
_cell_length_c	13.897441
_cell_angle_alpha	90.026402
_cell_angle_beta	89.979267
_cell_angle_gamma	89.972534
loop_
_atom_site_label
_atom_site_type_symbol
_atom_site_fract_x
_atom_site_fract_y
_atom_site_fract_z
Zn1	Zn	1.474646	0.421969	-0.545409
Zn2	Zn	1.974646	0.921969	-0.045409
Zn3	Zn	1.474516	0.599265	-0.384122
Zn4	Zn	1.974516	1.099265	0.115878
Zn5	Zn	1.313335	0.422020	-0.384128
Zn6	Zn	1.813335	0.922020	0.115872
Zn7	Zn	1.313293	0.599195	-0.545375
Zn8	Zn	1.813293	1.099195	-0.045375
O9	O	1.393947	0.510612	-0.464759
O10	O	1.893947	1.010612	0.035241
O11	O	1.609610	0.445496	-0.524026
O12	O	2.109610	0.945496	-0.024026
O13	O	1.453098	0.575803	-0.249141
O14	O	1.953098	1.075803	0.250859
O15	O	1.334805	0.273666	-0.405538
O16	O	1.834805	0.773666	0.094462
O17	O	1.609515	0.575754	-0.405530
O18	O	2.109515	1.075754	0.094470
O19	O	1.453319	0.273629	-0.524031
O20	O	1.953319	0.773629	-0.024031
O21	O	1.334679	0.445582	-0.249145
O22	O	1.834679	0.945582	0.250855
O23	O	1.178348	0.445515	-0.405505
O24	O	1.678348	0.945515	0.094495
O25	O	1.334733	0.575636	-0.680361
O26	O	1.834733	1.075636	-0.180361
O27	O	1.178317	0.575684	-0.523973
O28	O	1.678317	1.075684	-0.023973
O29	O	1.453279	0.445429	-0.680386
O30	O	1.953279	0.945429	-0.180386
O31	O	1.453057	0.747603	-0.405497
O32	O	1.953057	1.247603	0.094503
O33	O	1.334607	0.747552	-0.523968
O34	O	1.834607	1.247552	-0.023968
C35	C	1.143333	0.510598	-0.464737
C36	C	1.643333	1.010598	0.035263
C37	C	1.036119	0.510618	-0.464750
C38	C	1.536119	1.010618	0.035250
C39	C	0.839824	0.510621	-0.464775
C40	C	1.339824	1.010621	0.035225
C41	C	0.949056	0.510616	-0.464759
C42	C	1.449056	1.010616	0.035241
C43	C	1.393840	0.786042	-0.464749
C44	C	1.893840	1.286042	0.035251
C45	C	1.393882	0.903872	-0.464777
C46	C	1.893882	1.403872	0.035223
C47	C	1.319650	1.071448	-0.539540
C48	C	1.819650	1.571448	-0.039540
C49	C	1.319287	0.948889	-0.539298
C50	C	1.819287	1.448889	-0.039298
C51	C	1.366357	0.948472	-0.363122
C52	C	1.866357	1.448472	0.136878
C53	C	1.365887	1.071070	-0.363578
C54	C	1.865887	1.571070	0.136422
C55	C	1.496042	1.070958	-0.490850
C56	C	1.996042	1.570958	0.009150
C57	C	1.495433	0.948351	-0.493071
C58	C	1.995433	1.448351	0.006929
C59	C	1.645540	0.510627	-0.464781
C60	C	2.145540	1.010627	0.035219
C61	C	1.752754	0.510634	-0.464791
C62	C	2.252754	1.010634	0.035209
C63	C	1.394016	0.510519	-0.716352
C64	C	1.894016	1.010519	-0.216352
C65	C	1.394045	0.510479	-0.823566
C66	C	1.894045	1.010479	-0.323566
C67	C	1.394048	1.234107	-0.464793
C68	C	1.894048	1.734107	0.035207
C69	C	1.394004	1.116277	-0.464817
C70	C	1.894004	1.616277	0.035183
C71	C	1.394071	0.510407	-1.019861
C72	C	1.894071	1.010407	-0.519861
C73	C	1.394054	0.510450	-0.910628
C74	C	1.894054	1.010450	-0.410628
C75	C	1.393935	0.510629	-0.214144
C76	C	1.893935	1.010629	0.285856
C77	C	1.394092	0.510370	-0.106931
C78	C	1.894092	1.010370	0.393069
H79	H	1.336508	0.918731	-0.614674
H80	H	1.836508	1.418731	-0.114674
Cl81	Cl	1.527485	0.903340	-0.608577
Cl82	Cl	2.027485	1.403340	-0.108577
Cl83	Cl	1.581575	1.115736	-0.406840
Cl84	Cl	2.081575	1.615736	0.093160
Cl85	Cl	1.203590	1.119182	-0.513273
Cl86	Cl	1.703590	1.619182	-0.013273
H87	H	1.336705	1.100856	-0.615165
H88	H	1.836705	1.600856	-0.115165
H89	H	1.553756	0.917701	-0.442609
H90	H	2.053756	1.417701	0.057391
Cl91	Cl	1.252405	0.901224	-0.328454
Cl92	Cl	1.752405	1.401224	0.171546
Cl93	Cl	1.202506	0.903749	-0.512672
Cl94	Cl	1.702506	1.403749	-0.012672
Cl95	Cl	1.250726	1.115377	-0.329529
Cl96	Cl	1.750726	1.615377	0.170471
H97	H	1.417694	1.100729	-0.306005
H98	H	1.917694	1.600729	0.193995
Cl99	Cl	1.447328	0.903459	-0.274810
Cl100	Cl	1.947328	1.403459	0.225190
H101	H	1.521141	1.101798	-0.563718
H102	H	2.021141	1.601798	-0.063718
