data_functionalizedCrystal
_audit_creation_method	'MofGen! by Chris Wilmer'
_symmetry_space_group_name_H-M	'P1'
_symmetry_Int_Tables_number	1
_symmetry_cell_setting	triclinic
loop_
_symmetry_equiv_pos_as_xyz
  x,y,z
_cell_length_a	17.699077
_cell_length_b	10.723024
_cell_length_c	16.776229
_cell_angle_alpha	89.994545
_cell_angle_beta	89.993415
_cell_angle_gamma	83.874223
loop_
_atom_site_label
_atom_site_type_symbol
_atom_site_fract_x
_atom_site_fract_y
_atom_site_fract_z
O1	O	1.005076	0.157762	-0.066276
O2	O	0.784827	0.178299	-0.066279
O3	O	0.900032	-0.013633	-0.066274
O4	O	0.889871	0.349694	-0.066280
O5	O	0.900017	-0.013645	0.066302
O6	O	0.784811	0.178287	0.066297
O7	O	1.005061	0.157750	0.066301
Zn8	Zn	0.894934	0.168017	0.087348
Zn9	Zn	0.894954	0.168032	-0.087327
O10	O	0.889856	0.349682	0.066296
C11	C	0.756618	0.177559	0.000009
C12	C	0.672585	0.175355	0.000007
C13	C	0.633103	0.174310	0.072275
C14	C	0.554147	0.172219	0.072276
C15	C	0.514675	0.171182	0.000008
C16	C	0.554163	0.172223	-0.072266
C17	C	0.633118	0.174305	-0.072266
C18	C	0.235747	0.163826	-0.072267
C19	C	0.156786	0.161748	-0.072262
C20	C	0.156776	0.161740	0.072275
C21	C	0.235731	0.163822	0.072275
C22	C	0.275213	0.164856	0.000002
C23	C	0.360826	0.167121	0.000001
C24	C	0.429062	0.168927	0.000007
C25	C	0.899285	-0.060126	0.000013
C26	C	0.897073	-0.198642	0.000010
C27	C	0.961535	-0.274732	0.000010
C28	C	0.959250	-0.417896	0.000007
C29	C	1.033270	0.158490	0.000011
C30	C	1.117303	0.160694	0.000008
C31	C	0.890603	0.396175	0.000007
C32	C	0.892815	0.534691	0.000005
N33	N	0.894925	0.168005	0.206560
N34	N	0.894969	0.168034	-0.206538
C35	C	0.945954	0.083053	0.248279
C36	C	0.945958	0.083052	0.331731
C37	C	0.894937	0.168010	0.373463
C38	C	0.843903	0.252967	0.331737
C39	C	0.843895	0.252961	0.248287
C40	C	0.843930	0.252992	0.668285
C41	C	0.843943	0.252993	0.751741
C42	C	0.945993	0.083082	0.751729
C43	C	0.945986	0.083076	0.668278
C44	C	0.894949	0.168028	0.626561
C45	C	0.894944	0.168026	0.536072
C46	C	0.894945	0.168019	0.463949
H47	H	0.124621	0.160892	0.131124
O48	O	0.671522	0.175105	-0.142448
C49	C	0.725221	0.068299	-0.146763
H50	H	0.707026	-0.007836	-0.105749
H51	H	0.728813	0.032067	-0.210681
H52	H	0.783246	0.094297	-0.127349
O53	O	0.995493	0.000595	0.792379
C54	C	0.984574	0.018827	0.874983
H55	H	0.924645	0.065586	0.886392
H56	H	0.992513	-0.075689	0.906702
H57	H	1.027734	0.081326	0.898651
H58	H	0.987535	0.013899	0.634303
H59	H	0.802356	0.322138	0.365720
O60	O	1.025110	-0.495834	0.000147
C61	C	1.067543	-0.473291	0.068799
H62	H	1.027842	-0.428618	0.116792
H63	H	1.097346	-0.565779	0.091845
H64	H	1.111751	-0.407251	0.053276
O65	O	0.995428	0.000408	0.372288
C66	C	0.954514	-0.076482	0.420589
H67	H	0.894815	-0.078473	0.395459
H68	H	0.984887	-0.175724	0.421531
H69	H	0.950757	-0.037427	0.483835
H70	H	0.802392	0.322179	0.785718
O71	O	0.826993	-0.387276	-0.000137
C72	C	0.824151	-0.311060	-0.068788
H73	H	0.862582	-0.358906	-0.116779
H74	H	0.763267	-0.296111	-0.091838
H75	H	0.844302	-0.216534	-0.053260
O76	O	0.794332	0.335637	0.627891
C77	C	0.749293	0.410604	0.682622
H78	H	0.780338	0.411949	0.742099
H79	H	0.738257	0.510280	0.658506
H80	H	0.692864	0.370205	0.691518
H81	H	0.522019	0.171370	-0.131108
O82	O	0.794300	0.335608	0.207882
C83	C	0.749256	0.410578	0.262607
H84	H	0.780298	0.411930	0.322087
H85	H	0.738221	0.510252	0.238488
H86	H	0.692828	0.370177	0.271500
H87	H	1.018416	-0.233887	0.000016
H88	H	0.987505	0.013875	0.214307
H89	H	0.522006	0.171347	0.131124
O90	O	0.671331	0.175257	0.142550
C91	C	0.619545	0.173914	0.206335
H92	H	0.566196	0.132946	0.185146
H93	H	0.646845	0.113951	0.256880
H94	H	0.603721	0.273757	0.228557
H95	H	0.267865	0.164672	0.131123
O96	O	0.118562	0.160682	-0.142539
C97	C	0.170337	0.162071	-0.206330
H98	H	0.229548	0.124062	-0.185146
H99	H	0.152018	0.100912	-0.256869
H100	H	0.171313	0.262358	-0.228559
H101	H	0.267883	0.164665	-0.131117
O102	O	0.829164	-0.247209	0.000112
C103	C	0.787746	-0.206354	0.068785
H104	H	0.808761	-0.116094	0.091681
H105	H	0.724809	-0.188231	0.053341
H106	H	0.796176	-0.281698	0.116862
