data_functionalizedCrystal
_audit_creation_method	'MofGen! by Chris Wilmer'
_symmetry_space_group_name_H-M	'P1'
_symmetry_Int_Tables_number	1
_symmetry_cell_setting	triclinic
loop_
_symmetry_equiv_pos_as_xyz
  x,y,z
_cell_length_a	18.101398
_cell_length_b	11.169416
_cell_length_c	11.169409
_cell_angle_alpha	90.030874
_cell_angle_beta	89.971502
_cell_angle_gamma	89.994393
loop_
_atom_site_label
_atom_site_type_symbol
_atom_site_fract_x
_atom_site_fract_y
_atom_site_fract_z
Zn1	Zn	1.132258	0.477861	-0.678833
Zn2	Zn	1.132190	0.678602	-0.478155
Zn3	Zn	1.008408	0.477915	-0.478137
Zn4	Zn	1.008413	0.678485	-0.678769
O5	O	1.070317	0.578216	-0.578473
O6	O	1.235882	0.504517	-0.652246
O7	O	1.115740	0.652052	-0.310202
O8	O	1.024864	0.309958	-0.504778
O9	O	1.235832	0.652000	-0.504809
O10	O	1.115856	0.309919	-0.652229
O11	O	1.024798	0.504608	-0.310189
O12	O	0.904776	0.504494	-0.504717
O13	O	1.024872	0.651800	-0.846727
O14	O	0.904779	0.651852	-0.652121
O15	O	1.115861	0.504403	-0.846774
O16	O	1.115744	0.846536	-0.504748
O17	O	1.024806	0.846450	-0.652138
C18	C	0.877907	0.578167	-0.578411
C19	C	0.795593	0.578175	-0.578412
C20	C	1.070288	0.890040	-0.578464
C21	C	1.070343	1.023440	-0.578500
C22	C	1.070374	0.578082	-0.891516
C23	C	1.070399	0.578026	-1.024916
C24	C	0.496502	0.578250	-0.578513
C25	C	0.527800	0.485073	-0.486223
C26	C	0.613418	0.485323	-0.485829
C27	C	0.644884	0.578212	-0.578463
C28	C	0.613793	0.704644	-0.543918
C29	C	0.528148	0.704127	-0.543277
C30	C	0.528115	0.546093	-0.705565
C31	C	0.613765	0.543278	-0.704872
C32	C	0.728744	0.578198	-0.578437
C33	C	0.412642	0.578272	-0.578536
C34	C	1.263479	0.578265	-0.578537
C35	C	1.345793	0.578287	-0.578564
C36	C	1.070367	0.265173	-0.578509
C37	C	1.070388	0.131773	-0.578524
C38	C	1.070303	0.578262	-0.266649
C39	C	1.070423	0.577981	-0.133249
H40	H	0.634439	0.391568	-0.507481
N41	N	0.640663	0.739436	-0.428658
N42	N	0.682701	0.671335	-0.371758
H43	H	0.701678	0.695900	-0.290352
N44	N	0.500772	0.511408	-0.368797
N45	N	0.519368	0.447322	-0.282192
H46	H	0.500276	0.465920	-0.199260
N47	N	0.503052	0.738339	-0.426757
N48	N	0.548790	0.762429	-0.346475
H49	H	0.531070	0.786592	-0.264179
H50	H	0.507210	0.391032	-0.507636
H51	H	0.506524	0.455502	-0.736976
H52	H	0.507445	0.775902	-0.607566
H53	H	0.633872	0.506583	-0.391684
H54	H	0.634176	0.775929	-0.609035
N55	N	0.639260	0.426556	-0.737536
N56	N	0.680199	0.369244	-0.668043
H57	H	0.698210	0.286807	-0.691108
N58	N	0.640591	0.622278	-0.795733
N59	N	0.683271	0.705988	-0.768681
H60	H	0.702197	0.761817	-0.832842
N61	N	0.502740	0.631255	-0.791814
N62	N	0.461552	0.715299	-0.760014
H63	H	0.443633	0.775455	-0.820915
