data_functionalizedCrystal
_audit_creation_method	'MofGen! by Chris Wilmer'
_symmetry_space_group_name_H-M	'P1'
_symmetry_Int_Tables_number	1
_symmetry_cell_setting	triclinic
loop_
_symmetry_equiv_pos_as_xyz
  x,y,z
_cell_length_a	12.594517
_cell_length_b	16.959454
_cell_length_c	16.959447
_cell_angle_alpha	89.973264
_cell_angle_beta	90.015760
_cell_angle_gamma	89.980125
loop_
_atom_site_label
_atom_site_type_symbol
_atom_site_fract_x
_atom_site_fract_y
_atom_site_fract_z
Zn1	Zn	1.627179	0.314670	0.446959
Zn2	Zn	2.127179	0.814670	0.946959
Zn3	Zn	1.627074	0.446863	0.314788
Zn4	Zn	2.127074	0.946863	0.814788
Zn5	Zn	1.449200	0.314702	0.314793
Zn6	Zn	1.949200	0.814702	0.814793
Zn7	Zn	1.449152	0.446810	0.446924
Zn8	Zn	1.949152	0.946810	0.946924
O9	O	1.538151	0.380761	0.380866
O10	O	2.038151	0.880761	0.880866
O11	O	1.776111	0.332215	0.429439
O12	O	2.276111	0.832215	0.929439
O13	O	1.603455	0.429366	0.204178
O14	O	2.103455	0.929366	0.704178
O15	O	1.472873	0.204086	0.332342
O16	O	1.972873	0.704086	0.832342
O17	O	1.776034	0.429336	0.332334
O18	O	2.276034	0.929336	0.832334
O19	O	1.603633	0.204063	0.429443
O20	O	2.103633	0.704063	0.929443
O21	O	1.472772	0.332268	0.204181
O22	O	1.972772	0.832268	0.704181
O23	O	1.300248	0.332217	0.332308
O24	O	1.800248	0.832217	0.832308
O25	O	1.472792	0.429246	0.557539
O26	O	1.972792	0.929246	1.057539
O27	O	1.300213	0.429277	0.429383
O28	O	1.800213	0.929277	0.929383
O29	O	1.603587	0.332164	0.557565
O30	O	2.103587	0.832164	1.057565
O31	O	1.603409	0.557467	0.332300
O32	O	2.103409	1.057467	0.832300
O33	O	1.472690	0.557428	0.429379
O34	O	1.972690	1.057428	0.929379
C35	C	1.538062	0.586127	0.380852
C36	C	2.038062	1.086127	0.880852
C37	C	1.538121	0.673984	0.380873
C38	C	2.038121	1.173984	0.880873
C39	C	1.261610	0.380745	0.380843
C40	C	1.761610	0.880745	0.880843
C41	C	1.143305	0.380758	0.380851
C42	C	1.643305	0.880758	0.880851
C43	C	1.538196	0.380696	0.587034
C44	C	2.038196	0.880696	1.087034
C45	C	1.538215	0.380668	0.674891
C46	C	2.038215	0.880668	1.174891
C47	C	1.074040	0.327895	0.328153
C48	C	1.574040	0.827895	0.828153
C49	C	1.003225	0.399995	0.308711
C50	C	1.503225	0.899995	0.808711
C51	C	1.003321	0.308693	0.400306
C52	C	1.503321	0.808693	0.900306
C53	C	1.074048	0.452896	0.361372
C54	C	1.574048	0.952896	0.861372
C55	C	1.074151	0.361545	0.453001
C56	C	1.574151	0.861545	0.953001
C57	C	1.003367	0.433695	0.433587
C58	C	1.503367	0.933695	0.933587
C59	C	1.815772	0.380778	0.380890
C60	C	2.315772	0.880778	0.880890
C61	C	1.934078	0.380785	0.380900
C62	C	2.434078	0.880785	0.880900
C63	C	1.538270	0.174593	0.380897
C64	C	2.038270	0.674593	0.880897
C65	C	1.538320	0.086736	0.380910
C66	C	2.038320	0.586736	0.880910
C67	C	1.470185	1.045469	0.431410
C68	C	1.970185	1.545469	0.931410
C69	C	1.606414	1.045450	0.330403
C70	C	2.106414	1.545450	0.830403
C71	C	1.606377	0.962904	0.330395
C72	C	2.106377	1.462904	0.830395
C73	C	1.538242	0.921637	0.380895
C74	C	2.038242	1.421637	0.880895
C75	C	1.470143	0.962916	0.431402
C76	C	1.970143	1.462916	0.931402
C77	C	1.674466	0.921619	0.279884
C78	C	2.174466	1.421619	0.779884
C79	C	1.674431	0.839068	0.279874
C80	C	2.174431	1.339068	0.779874
C81	C	1.606300	0.797799	0.330378
C82	C	2.106300	1.297799	0.830378
C83	C	1.538200	0.839083	0.380888
C84	C	2.038200	1.339083	0.880888
C85	C	1.470065	0.797816	0.431388
C86	C	1.970065	1.297816	0.931388
C87	C	1.401969	0.839099	0.481902
C88	C	1.901969	1.339099	0.981902
C89	C	1.402013	0.921647	0.481907
C90	C	1.902013	1.421647	0.981907
C91	C	1.606257	0.715251	0.330373
C92	C	2.106257	1.215251	0.830373
C93	C	1.470023	0.715263	0.431380
C94	C	1.970023	1.215263	0.931380
C95	C	1.538168	0.380769	0.175500
C96	C	2.038168	0.880769	0.675500
C97	C	1.538356	0.380574	0.087644
C98	C	2.038356	0.880574	0.587644
C99	C	1.470243	0.431131	1.046356
C100	C	1.970243	0.931131	1.546356
C101	C	1.606441	0.330038	1.046378
C102	C	2.106441	0.830038	1.546378
C103	C	1.606413	0.330055	0.963832
C104	C	2.106413	0.830055	1.463832
C105	C	1.538299	0.380611	0.922544
C106	C	2.038299	0.880611	1.422544
C107	C	1.470214	0.431151	0.963802
C108	C	1.970214	0.931151	1.463802
C109	C	1.674504	0.279522	0.922567
C110	C	2.174504	0.779522	1.422567
C111	C	1.674479	0.279537	0.840016
C112	C	2.174479	0.779537	1.340016
C113	C	1.606360	0.330090	0.798727
C114	C	2.106360	0.830090	1.298727
C115	C	1.538271	0.380631	0.839990
C116	C	2.038271	0.880631	1.339990
C117	C	1.470158	0.431188	0.798703
C118	C	1.970158	0.931188	1.298703
C119	C	1.402063	0.481725	0.839964
C120	C	1.902063	0.981725	1.339964
C121	C	1.402095	0.481704	0.922513
C122	C	1.902095	0.981704	1.422513
C123	C	1.606328	0.330111	0.716179
C124	C	2.106328	0.830111	1.216179
C125	C	1.470130	0.431207	0.716149
C126	C	1.970130	0.931207	1.216149
H127	H	1.105071	0.283234	0.283532
H128	H	1.605071	0.783234	0.783532
Br129	Br	1.377676	0.499817	0.660122
Br130	Br	1.877676	0.999817	1.160122
H131	H	1.729931	0.955224	0.238764
H132	H	2.229931	1.455224	0.738764
H133	H	1.729879	0.805460	0.238743
H134	H	2.229879	1.305460	0.738743
H135	H	1.661772	0.288967	0.682587
H136	H	2.161772	0.788967	1.182587
H137	H	1.661881	1.079054	0.289283
H138	H	2.161881	1.579054	0.789283
H139	H	1.346659	0.522851	0.956116
H140	H	1.846659	1.022851	1.456116
H141	H	1.414746	1.079085	0.472539
H142	H	1.914746	1.579085	0.972539
H143	H	1.661694	0.681642	0.289242
H144	H	2.161694	1.181642	0.789242
Br145	Br	1.125604	0.554523	0.333863
Br146	Br	1.625604	1.054523	0.833863
Br147	Br	1.377827	0.499710	1.102350
Br148	Br	1.877827	0.999710	1.602350
Br149	Br	1.309636	0.550341	0.783921
Br150	Br	1.809636	1.050341	1.283921
H151	H	0.972072	0.416262	0.247716
H152	H	1.472072	0.916262	0.747716
Br153	Br	1.698886	0.261437	1.102411
Br154	Br	2.198886	0.761437	1.602411
Br155	Br	1.766948	0.210922	0.978603
Br156	Br	2.266948	0.710922	1.478603
H157	H	1.729925	0.238386	0.806428
H158	H	2.229925	0.738386	1.306428
Br159	Br	0.951968	0.508305	0.507904
Br160	Br	1.451968	1.008305	1.007904
Br161	Br	1.126114	0.334398	0.554637
Br162	Br	1.626114	0.834398	1.054637
H163	H	1.414543	0.681668	0.472507
H164	H	1.914543	1.181668	0.972507
Br165	Br	0.951527	0.207099	0.427696
Br166	Br	1.451527	0.707099	0.927696
H167	H	1.346488	0.805490	0.523016
H168	H	1.846488	1.305490	1.023016
Br169	Br	1.309606	0.977678	0.550455
Br170	Br	1.809606	1.477678	1.050455
