data_functionalizedCrystal
_audit_creation_method	'MofGen! by Chris Wilmer'
_symmetry_space_group_name_H-M	'P1'
_symmetry_Int_Tables_number	1
_symmetry_cell_setting	triclinic
loop_
_symmetry_equiv_pos_as_xyz
  x,y,z
_cell_length_a	12.827892
_cell_length_b	10.685980
_cell_length_c	10.686551
_cell_angle_alpha	81.591741
_cell_angle_beta	85.594922
_cell_angle_gamma	94.382205
loop_
_atom_site_label
_atom_site_type_symbol
_atom_site_fract_x
_atom_site_fract_y
_atom_site_fract_z
Zn1	Zn	-0.234228	1.995786	-0.866707
Zn2	Zn	0.265772	2.495786	-0.366707
Zn3	Zn	-0.423541	1.979362	-0.654447
Zn4	Zn	0.076459	2.479362	-0.154447
Zn5	Zn	-0.263313	1.767213	-0.638172
Zn6	Zn	0.236687	2.267213	-0.138172
Zn7	Zn	-0.423440	1.783486	-0.850357
Zn8	Zn	0.076560	2.283486	-0.350357
O9	O	-0.336130	1.881462	-0.752421
O10	O	0.163870	2.381462	-0.252421
O11	O	-0.247211	2.171241	-0.852204
O12	O	0.252789	2.671241	-0.352204
O13	O	-0.414501	1.937536	-0.474656
O14	O	0.085499	2.437536	0.025344
O15	O	-0.113213	1.797597	-0.668520
O16	O	0.386787	2.297597	-0.168520
O17	O	-0.386299	2.159174	-0.696257
O18	O	0.113701	2.659174	-0.196257
O19	O	-0.091844	1.965529	-0.836423
O20	O	0.408156	2.465529	-0.336423
O21	O	-0.296782	1.781671	-0.462699
O22	O	0.203218	2.281671	0.037301
O23	O	-0.296684	1.591738	-0.652666
O24	O	0.203316	2.091738	-0.152666
O25	O	-0.386126	1.825332	-1.030158
O26	O	0.113874	2.325332	-0.530158
O27	O	-0.414328	1.603693	-0.808557
O28	O	0.085672	2.103693	-0.308557
O29	O	-0.247112	1.981308	-1.042170
O30	O	0.252888	2.481308	-0.542170
O31	O	-0.569770	1.953315	-0.680403
O32	O	-0.069770	2.453315	-0.180403
O33	O	-0.569695	1.809406	-0.824338
O34	O	-0.069695	2.309406	-0.324338
C35	C	-0.358652	1.551657	-0.727072
C36	C	0.141348	2.051657	-0.227072
C37	C	-0.368310	1.410568	-0.716257
C38	C	0.131690	1.910568	-0.216257
C39	C	-0.607647	1.881381	-0.752393
C40	C	-0.107647	2.381381	-0.252393
C41	C	-0.723793	1.881465	-0.752432
C42	C	-0.223793	2.381465	-0.252432
C43	C	-0.775567	1.952774	-0.681301
C44	C	-0.275567	2.452774	-0.181301
C45	C	-0.895610	1.952864	-0.681340
C46	C	-0.395610	2.452864	-0.181340
C47	C	-0.063549	1.881580	-0.752480
C48	C	0.436451	2.381580	-0.252480
C49	C	0.052609	1.881630	-0.752505
C50	C	0.552609	2.381630	-0.252505
C51	C	-0.313363	1.906967	-1.083510
C52	C	0.186637	2.406967	-0.583510
C53	C	-0.303661	1.917836	-1.224600
C54	C	0.196339	2.417836	-0.724600
C55	C	-0.313522	2.212554	-0.777870
C56	C	0.186478	2.712554	-0.277870
C57	C	-0.303887	2.353646	-0.788715
C58	C	0.196113	2.853646	-0.288715
C59	C	-0.358729	1.856129	-0.422626
C60	C	0.141271	2.356129	0.077374
C61	C	-0.368119	1.845506	-0.281555
C62	C	0.131881	2.345506	0.218445
H63	H	-0.430857	1.351357	-0.645939
H64	H	0.069143	1.851357	-0.145939
H65	H	-0.241338	1.412850	-0.859020
H66	H	0.258662	1.912850	-0.359020
H67	H	-0.241053	1.988085	-1.283785
H68	H	0.258947	2.488085	-0.783785
H69	H	-0.731025	2.013765	-0.620379
H70	H	-0.231025	2.513765	-0.120379
H71	H	-0.940135	2.013910	-0.620439
H72	H	-0.440135	2.513910	-0.120439
N73	N	-0.782776	1.800676	-0.833145
N74	N	-0.282776	2.300676	-0.333145
H75	H	-0.820434	1.856827	-0.895943
H76	H	-0.320434	2.356827	-0.395943
H77	H	-0.835630	1.738004	-0.776873
H78	H	-0.335630	2.238004	-0.276873
N79	N	-0.888421	1.800757	-0.833175
N80	N	-0.388421	2.300757	-0.333175
H81	H	-0.899736	1.827380	-0.925423
H82	H	-0.399736	2.327380	-0.425423
H83	H	-0.915017	1.708573	-0.806337
H84	H	-0.415017	2.208573	-0.306337
N85	N	-0.451059	1.752467	-1.203181
N86	N	0.048941	2.252467	-0.703181
H87	H	-0.446468	1.757630	-1.110120
H88	H	0.053532	2.257630	-0.610120
H89	H	-0.439415	1.663575	-1.219321
H90	H	0.060585	2.163575	-0.719321
