data_functionalizedCrystal
_audit_creation_method	'MofGen! by Chris Wilmer'
_symmetry_space_group_name_H-M	'P1'
_symmetry_Int_Tables_number	1
_symmetry_cell_setting	triclinic
loop_
_symmetry_equiv_pos_as_xyz
  x,y,z
_cell_length_a	14.853567
_cell_length_b	10.654550
_cell_length_c	9.730223
_cell_angle_alpha	90.000193
_cell_angle_beta	89.997236
_cell_angle_gamma	84.059917
loop_
_atom_site_label
_atom_site_type_symbol
_atom_site_fract_x
_atom_site_fract_y
_atom_site_fract_z
O1	O	-1.197237	-0.163956	-0.114191
O2	O	-0.934882	-0.183487	-0.114215
O3	O	-1.072092	0.009081	-0.114197
O4	O	-1.060028	-0.356523	-0.114209
O5	O	-1.072090	0.009076	0.114382
O6	O	-0.934881	-0.183492	0.114365
O7	O	-1.197236	-0.163960	0.114388
Zn8	Zn	-1.066058	-0.173727	0.150669
Zn9	Zn	-1.066060	-0.173721	-0.150495
O10	O	-1.060026	-0.356528	0.114371
C11	C	-0.901288	-0.182605	0.000072
C12	C	-0.801190	-0.179953	0.000064
C13	C	-1.230830	-0.164843	0.000098
C14	C	-1.330928	-0.167495	0.000098
C15	C	-1.071205	0.055867	0.000091
C16	C	-1.068555	0.195283	0.000086
C17	C	-0.387984	-0.054353	0.000098
C18	C	-0.367928	-0.283127	0.000090
C19	C	-0.461975	-0.285621	0.000085
C20	C	-0.519031	-0.172479	0.000085
C21	C	-0.482040	-0.056843	0.000090
C22	C	-0.498973	-0.401255	0.000067
C23	C	-0.593025	-0.403753	0.000061
C24	C	-0.650083	-0.290609	0.000071
C25	C	-0.613087	-0.174969	0.000077
C26	C	-0.670143	-0.061826	0.000076
C27	C	-0.633149	0.053816	0.000092
C28	C	-0.539098	0.056301	0.000099
C29	C	-0.744134	-0.293095	0.000064
C30	C	-0.764199	-0.064317	0.000068
C31	C	-1.060913	-0.403314	0.000080
C32	C	-1.063563	-0.542730	0.000076
N33	N	-1.066063	-0.173731	0.356205
C34	C	-1.149342	0.275608	0.000097
C35	C	-1.146846	0.406603	0.000087
C36	C	-0.982770	0.376935	0.000061
C37	C	-0.985267	0.245942	0.000061
C38	C	-1.244070	0.292737	0.000118
C39	C	-1.241574	0.423732	0.000109
N40	N	-1.066062	-0.173707	-0.356031
C41	C	-1.126835	-0.088490	0.428139
C42	C	-1.126833	-0.088475	0.572022
C43	C	-1.005283	-0.258951	0.572025
C44	C	-1.005282	-0.258960	0.428145
C45	C	-1.197014	0.009929	0.428138
C46	C	-1.197011	0.009945	0.572021
H47	H	-0.810649	0.027819	0.000073
H48	H	-1.274234	0.257422	0.098817
H49	H	-1.281122	0.263766	-0.095532
H50	H	-0.919482	0.180545	0.000032
H51	H	-0.955796	-0.328342	0.630613
H52	H	-0.914959	0.418198	0.000039
H53	H	-1.270203	0.469675	-0.098583
H54	H	-1.277266	0.465861	0.095770
H55	H	-0.452512	-0.493369	0.000053
H56	H	-1.262469	-0.019979	0.383517
H57	H	-1.175108	0.100940	0.616637
H58	H	-1.181621	0.106302	0.389086
H59	H	-0.955789	-0.328358	0.369577
H60	H	-0.623138	-0.497916	0.000048
H61	H	-0.774251	-0.387249	0.000053
H62	H	-1.266291	-0.010854	0.611078
H63	H	-0.679616	0.145936	0.000083
H64	H	-0.357859	0.039800	0.000116
H65	H	-0.321468	-0.375243	0.000078
H66	H	-0.508968	0.150451	0.000145
