data_functionalizedCrystal
_audit_creation_method	'MofGen! by Chris Wilmer'
_symmetry_space_group_name_H-M	'P1'
_symmetry_Int_Tables_number	1
_symmetry_cell_setting	triclinic
loop_
_symmetry_equiv_pos_as_xyz
  x,y,z
_cell_length_a	10.686285
_cell_length_b	10.685904
_cell_length_c	10.686551
_cell_angle_alpha	98.408451
_cell_angle_beta	99.084519
_cell_angle_gamma	89.665902
loop_
_atom_site_label
_atom_site_type_symbol
_atom_site_fract_x
_atom_site_fract_y
_atom_site_fract_z
Zn1	Zn	-0.282812	2.015996	0.846610
Zn2	Zn	0.050521	2.349329	1.179943
Zn3	Zn	0.383854	2.682663	1.513277
Zn4	Zn	-0.511401	2.015894	0.618099
Zn5	Zn	-0.178067	2.349227	0.951432
Zn6	Zn	0.155266	2.682561	1.284766
Zn7	Zn	-0.317932	1.789929	0.615577
Zn8	Zn	0.015401	2.123262	0.948911
Zn9	Zn	0.348734	2.456595	1.282244
Zn10	Zn	-0.511279	1.820008	0.814017
Zn11	Zn	-0.177945	2.153341	1.147351
Zn12	Zn	0.155388	2.486674	1.480684
O13	O	-0.405856	1.910457	0.723576
O14	O	-0.072523	2.243790	1.056909
O15	O	0.260811	2.577123	1.390243
O16	O	-0.298488	2.192572	0.830993
O17	O	0.034845	2.525905	1.164326
O18	O	0.368179	2.859238	1.497660
O19	O	-0.500485	1.973289	0.439084
O20	O	-0.167152	2.306622	0.772417
O21	O	0.166181	2.639955	1.105751
O22	O	-0.136692	1.807372	0.658809
O23	O	0.196641	2.140705	0.992142
O24	O	0.529974	2.474038	1.325476
O25	O	-0.466431	2.192497	0.663107
O26	O	-0.133098	2.525830	0.996440
O27	O	0.200236	2.859163	1.329774
O28	O	-0.110890	1.973462	0.828548
O29	O	0.222444	2.306796	1.161881
O30	O	0.555777	2.640129	1.495214
O31	O	-0.358345	1.807273	0.437231
O32	O	-0.025012	2.140606	0.770565
O33	O	0.308322	2.473940	1.103898
O34	O	-0.358227	1.617330	0.627205
O35	O	-0.024894	1.950663	0.960539
O36	O	0.308440	2.283996	1.293872
O37	O	-0.466223	1.858637	0.997021
O38	O	-0.132890	2.191970	1.330355
O39	O	0.200443	2.525303	1.663688
O40	O	-0.500278	1.639428	0.772998
O41	O	-0.166944	1.972762	1.106332
O42	O	0.166389	2.306095	1.439665
O43	O	-0.298370	2.002629	1.020967
O44	O	0.034963	2.335962	1.354300
O45	O	0.368297	2.669295	1.687633
O46	O	-0.687966	2.002455	0.631503
O47	O	-0.354632	2.335788	0.964837
O48	O	-0.021299	2.669121	1.298170
O49	O	-0.687876	1.858538	0.775444
O50	O	-0.354543	2.191871	1.108777
O51	O	-0.021209	2.525204	1.442110
C52	C	-0.433051	1.582592	0.696292
C53	C	-0.099718	1.915925	1.029625
C54	C	0.233616	2.249258	1.362959
C55	C	-0.444713	1.442334	0.684648
C56	C	-0.111380	1.775667	1.017981
C57	C	0.221954	2.109000	1.351315
C58	C	-0.733701	1.933785	0.700241
C59	C	-0.400368	2.267119	1.033574
C60	C	-0.067035	2.600452	1.366908
C61	C	-0.873942	1.943884	0.690311
C62	C	-0.540608	2.277217	1.023644
C63	C	-0.207275	2.610550	1.356977
C64	C	-0.076725	1.887073	0.747033
C65	C	0.256608	2.220407	1.080366
C66	C	0.589941	2.553740	1.413699
C67	C	0.063531	1.877109	0.757029
C68	C	0.396864	2.210442	1.090362
C69	C	0.730197	2.543775	1.423695
C70	C	-0.378365	1.933999	1.056619
C71	C	-0.045032	2.267332	1.389953
C72	C	0.288301	2.600666	1.723286
C73	C	-0.366651	1.944032	1.198543
C74	C	-0.033317	2.277365	1.531876
C75	C	0.300016	2.610698	1.865209
C76	C	-0.378556	2.239602	0.750967
C77	C	-0.045222	2.572935	1.084300
C78	C	0.288111	2.906269	1.417634
C79	C	-0.366922	2.379864	0.762639
C80	C	-0.033588	2.713198	1.095973
C81	C	0.299745	3.046531	1.429306
C82	C	-0.433142	1.887072	0.391841
C83	C	-0.099809	2.220405	0.725174
C84	C	0.233524	2.553738	1.058507
C85	C	-0.444481	1.877259	0.249964
C86	C	-0.111148	2.210592	0.583297
C87	C	0.222185	2.543925	0.916630
H88	H	-0.291393	1.433689	0.838317
H89	H	0.041940	1.767022	1.171650
H90	H	0.375274	2.100355	1.504983
Br91	Br	-0.846878	1.768941	0.864900
Br92	Br	-0.513545	2.102275	1.198233
Br93	Br	-0.180211	2.435608	1.531566
H94	H	-0.927705	2.008772	0.625578
H95	H	-0.594372	2.342106	0.958912
H96	H	-0.261039	2.675439	1.292245
H97	H	-0.520081	1.812420	1.185412
H98	H	-0.186748	2.145753	1.518746
H99	H	0.146586	2.479087	1.852079
H100	H	-0.520229	1.388515	0.608968
H101	H	-0.186896	1.721848	0.942302
H102	H	0.146437	2.055181	1.275635
Br103	Br	-0.240652	2.052130	1.306134
Br104	Br	0.092682	2.385463	1.639467
Br105	Br	0.426015	2.718796	1.972801
