data_functionalizedCrystal
_audit_creation_method	'MofGen! by Chris Wilmer'
_symmetry_space_group_name_H-M	'P1'
_symmetry_Int_Tables_number	1
_symmetry_cell_setting	triclinic
loop_
_symmetry_equiv_pos_as_xyz
  x,y,z
_cell_length_a	14.044191
_cell_length_b	12.503552
_cell_length_c	14.044190
_cell_angle_alpha	93.836179
_cell_angle_beta	86.808223
_cell_angle_gamma	93.842477
loop_
_atom_site_label
_atom_site_type_symbol
_atom_site_fract_x
_atom_site_fract_y
_atom_site_fract_z
O1	O	1.282222	0.089291	-0.225150
O2	O	1.532222	0.339291	0.024850
O3	O	1.782222	0.589291	0.274850
O4	O	2.032222	0.839291	0.524850
O5	O	1.005550	0.089303	-0.216836
O6	O	1.255550	0.339303	0.033164
O7	O	1.505550	0.589303	0.283164
O8	O	1.755550	0.839303	0.533164
O9	O	1.139728	0.089276	-0.082658
O10	O	1.389728	0.339276	0.167342
O11	O	1.639728	0.589276	0.417342
O12	O	1.889728	0.839276	0.667342
O13	O	1.148043	0.089318	-0.359328
O14	O	1.398043	0.339318	-0.109328
O15	O	1.648043	0.589318	0.140672
O16	O	1.898043	0.839318	0.390672
O17	O	1.129625	-0.089364	-0.092758
O18	O	1.379625	0.160636	0.157242
O19	O	1.629625	0.410636	0.407242
O20	O	1.879625	0.660636	0.657242
O21	O	0.995447	-0.089337	-0.226936
O22	O	1.245447	0.160663	0.023064
O23	O	1.495447	0.410663	0.273064
O24	O	1.745447	0.660663	0.523064
O25	O	1.272119	-0.089350	-0.235249
O26	O	1.522119	0.160650	0.014751
O27	O	1.772119	0.410650	0.264751
O28	O	2.022119	0.660650	0.514751
Cu29	Cu	1.132860	-0.105655	-0.232015
Cu30	Cu	1.382860	0.144345	0.017985
Cu31	Cu	1.632860	0.394345	0.267985
Cu32	Cu	1.882860	0.644345	0.517985
Cu33	Cu	1.144808	0.105608	-0.220071
Cu34	Cu	1.394808	0.355608	0.029929
Cu35	Cu	1.644808	0.605608	0.279929
Cu36	Cu	1.894808	0.855608	0.529929
O37	O	1.137940	-0.089323	-0.369428
O38	O	1.387940	0.160677	-0.119428
O39	O	1.637940	0.410677	0.130572
O40	O	1.887940	0.660677	0.380572
C41	C	0.964876	-0.000016	-0.218249
C42	C	1.214876	0.249984	0.031751
C43	C	1.464876	0.499984	0.281751
C44	C	1.714876	0.749984	0.531751
C45	C	0.858733	-0.000012	-0.207402
C46	C	1.108733	0.249988	0.042598
C47	C	1.358733	0.499988	0.292598
C48	C	1.608733	0.749988	0.542598
C49	C	0.613276	-0.000014	-0.264503
C50	C	0.863276	0.249986	-0.014503
C51	C	1.113276	0.499986	0.235497
C52	C	1.363276	0.749986	0.485497
C53	C	0.664399	-0.000023	-0.187587
C54	C	0.914399	0.249977	0.062413
C55	C	1.164399	0.499977	0.312413
C56	C	1.414399	0.749977	0.562413
C57	C	0.772536	-0.000017	-0.198615
C58	C	1.022536	0.249983	0.051385
C59	C	1.272536	0.499983	0.301385
C60	C	1.522536	0.749983	0.551385
C61	C	0.505129	-0.000020	-0.253476
C62	C	0.755129	0.249980	-0.003476
C63	C	1.005129	0.499980	0.246524
C64	C	1.255129	0.749980	0.496524
N65	N	1.124464	-0.254246	-0.240416
N66	N	1.374464	-0.004246	0.009584
N67	N	1.624464	0.245754	0.259584
N68	N	1.874464	0.495754	0.509584
C69	C	1.165558	-0.526687	-0.199302
C70	C	1.415558	-0.276687	0.050698
C71	C	1.665558	-0.026687	0.300698
C72	C	1.915558	0.223313	0.550698
C73	C	1.112120	-0.473352	-0.252774
C74	C	1.362120	-0.223352	-0.002774
C75	C	1.612120	0.026648	0.247226
C76	C	1.862120	0.276648	0.497226
C77	C	1.118990	-0.351430	-0.245896
C78	C	1.368990	-0.101430	0.004104
C79	C	1.618990	0.148570	0.254104
C80	C	1.868990	0.398570	0.504104
C81	C	1.158689	-0.648621	-0.206179
C82	C	1.408689	-0.398621	0.043821
C83	C	1.658689	-0.148621	0.293821
C84	C	1.908689	0.101379	0.543821
C85	C	1.312792	-0.000029	-0.233836
C86	C	1.562792	0.249971	0.016164
C87	C	1.812792	0.499971	0.266164
C88	C	2.062792	0.749971	0.516164
C89	C	1.418936	-0.000026	-0.244683
C90	C	1.668936	0.249974	0.005317
C91	C	1.918936	0.499974	0.255317
C92	C	2.168936	0.749974	0.505317
C93	C	1.131040	-0.000047	-0.052086
C94	C	1.381040	0.249953	0.197914
C95	C	1.631040	0.499953	0.447914
C96	C	1.881040	0.749953	0.697914
C97	C	1.120192	-0.000056	0.054057
C98	C	1.370192	0.249944	0.304057
C99	C	1.620192	0.499944	0.554057
C100	C	1.870192	0.749944	0.804057
N101	N	1.153212	0.254199	-0.211663
N102	N	1.403212	0.504199	0.038337
N103	N	1.653212	0.754199	0.288337
N104	N	1.903212	1.004199	0.538337
C105	C	1.146629	0.000003	-0.400000
C106	C	1.396629	0.250003	-0.150000
C107	C	1.646629	0.500003	0.100000
C108	C	1.896629	0.750003	0.350000
C109	C	1.157477	0.000019	-0.506142
C110	C	1.407477	0.250019	-0.256142
C111	C	1.657477	0.500019	-0.006142
C112	C	1.907477	0.750019	0.243858
C113	C	1.177295	-0.000017	0.299516
C114	C	1.427295	0.249983	0.549516
C115	C	1.677295	0.499983	0.799516
C116	C	1.927295	0.749983	1.049516
C117	C	1.100378	-0.000021	0.248393
C118	C	1.350378	0.249979	0.498393
C119	C	1.600378	0.499979	0.748393
C120	C	1.850378	0.749979	0.998393
C121	C	1.111405	-0.000040	0.140254
C122	C	1.361405	0.249960	0.390254
C123	C	1.611405	0.499960	0.640254
C124	C	1.861405	0.749960	0.890254
C125	C	1.166269	0.000003	0.407664
C126	C	1.416269	0.250003	0.657664
C127	C	1.666269	0.500003	0.907664
C128	C	1.916269	0.750003	1.157664
H129	H	0.650720	0.000001	-0.338629
H130	H	0.900720	0.250001	-0.088629
H131	H	1.150720	0.500001	0.161371
H132	H	1.400720	0.750001	0.411371
C133	C	1.277437	-0.000048	0.248930
C134	C	1.527437	0.249952	0.498930
C135	C	1.777437	0.499952	0.748930
C136	C	2.027437	0.749952	0.998930
N137	N	1.352863	-0.000080	0.210816
N138	N	1.602863	0.249920	0.460816
N139	N	1.852863	0.499920	0.710816
N140	N	2.102863	0.749920	0.960816
C141	C	1.043354	-0.535366	-0.321608
C142	C	1.293354	-0.285366	-0.071608
C143	C	1.543354	-0.035366	0.178392
C144	C	1.793354	0.214634	0.428392
N145	N	0.991566	-0.582079	-0.373457
N146	N	1.241566	-0.332079	-0.123457
N147	N	1.491566	-0.082079	0.126543
N148	N	1.741566	0.167921	0.376543
C149	C	1.234322	-0.464674	-0.130475
C150	C	1.484322	-0.214674	0.119525
C151	C	1.734322	0.035326	0.369525
C152	C	1.984322	0.285326	0.619525
N153	N	1.286112	-0.417954	-0.078633
N154	N	1.536112	-0.167954	0.171367
N155	N	1.786112	0.082046	0.421367
N156	N	2.036112	0.332046	0.671367
H157	H	1.026246	-0.000011	0.285838
H158	H	1.276246	0.249989	0.535838
H159	H	1.526246	0.499989	0.785838
H160	H	1.776246	0.749989	1.035838
H161	H	0.626957	0.000041	-0.113450
H162	H	0.876957	0.250041	0.136550
H163	H	1.126957	0.500041	0.386550
H164	H	1.376957	0.750041	0.636550
