data_functionalizedCrystal
_audit_creation_method	'MofGen! by Chris Wilmer'
_symmetry_space_group_name_H-M	'P1'
_symmetry_Int_Tables_number	1
_symmetry_cell_setting	triclinic
loop_
_symmetry_equiv_pos_as_xyz
  x,y,z
_cell_length_a	16.992694
_cell_length_b	16.098538
_cell_length_c	16.992695
_cell_angle_alpha	87.090873
_cell_angle_beta	90.668223
_cell_angle_gamma	92.919142
loop_
_atom_site_label
_atom_site_type_symbol
_atom_site_fract_x
_atom_site_fract_y
_atom_site_fract_z
O1	O	1.054150	0.069152	0.163624
O2	O	1.554150	0.569152	0.663624
O3	O	0.825751	0.069177	0.161792
O4	O	1.325751	0.569177	0.661792
O5	O	0.939035	0.069158	0.048509
O6	O	1.439035	0.569158	0.548509
O7	O	0.940866	0.069171	0.276908
O8	O	1.440866	0.569171	0.776908
O9	O	0.932415	-0.069354	0.055098
O10	O	1.432415	0.430646	0.555098
O11	O	0.819132	-0.069335	0.168382
O12	O	1.319132	0.430665	0.668382
O13	O	1.047531	-0.069360	0.170214
O14	O	1.547531	0.430640	0.670214
Zn15	Zn	0.932280	-0.091339	0.170344
Zn16	Zn	1.432280	0.408661	0.670344
Zn17	Zn	0.941001	0.091156	0.161662
Zn18	Zn	1.441001	0.591156	0.661662
O19	O	0.934247	-0.069341	0.283498
O20	O	1.434247	0.430659	0.783498
C21	C	0.793081	-0.000076	0.162731
C22	C	1.293081	0.499924	0.662731
C23	C	0.705597	-0.000067	0.155702
C24	C	1.205597	0.499933	0.655702
N25	N	0.926334	-0.215887	0.176270
N26	N	1.426334	0.284113	0.676270
C27	C	0.659607	-0.000064	0.223520
C28	C	1.159607	0.499936	0.723520
C29	C	0.577405	-0.000075	0.216911
C30	C	1.077405	0.499925	0.716911
C31	C	0.541196	-0.000085	0.142484
C32	C	1.041196	0.499915	0.642484
C33	C	0.587193	-0.000090	0.074661
C34	C	1.087193	0.499910	0.574661
C35	C	0.669393	-0.000084	0.081271
C36	C	1.169393	0.499916	0.581271
C37	C	0.295881	-0.000108	0.115091
C38	C	0.795881	0.499892	0.615091
C39	C	0.213676	-0.000112	0.108486
C40	C	0.713676	0.499888	0.608486
C41	C	0.203893	-0.000099	0.250737
C42	C	0.703893	0.499901	0.750737
C43	C	0.286095	-0.000088	0.257340
C44	C	0.786095	0.499912	0.757340
C45	C	0.332084	-0.000098	0.189517
C46	C	0.832084	0.499902	0.689517
N47	N	0.457174	-0.000094	0.135727
N48	N	0.957174	0.499906	0.635727
N49	N	0.416105	-0.000094	0.196275
N50	N	0.916105	0.499906	0.696275
C51	C	0.974436	-0.259480	0.128207
C52	C	1.474436	0.240520	0.628207
C53	C	0.970284	-0.346669	0.132360
C54	C	1.470284	0.153331	0.632360
C55	C	0.918034	-0.390262	0.184580
C56	C	1.418034	0.109738	0.684580
C57	C	0.869927	-0.346663	0.232645
C58	C	1.369927	0.153337	0.732645
C59	C	0.874075	-0.259476	0.228487
C60	C	1.374075	0.240524	0.728487
C61	C	0.902995	-0.653510	0.199638
C62	C	1.402995	-0.153510	0.699638
C63	C	0.898852	-0.740703	0.203793
C64	C	1.398852	-0.240703	0.703793
C65	C	0.999209	-0.740702	0.103507
C66	C	1.499209	-0.240702	0.603507
C67	C	1.003356	-0.653514	0.099358
C68	C	1.503356	-0.153514	0.599358
C69	C	0.955246	-0.609922	0.147419
C70	C	1.455246	-0.109922	0.647419
C71	C	0.913791	-0.479383	0.188828
C72	C	1.413791	0.020617	0.688828
C73	C	0.959485	-0.520803	0.143167
C74	C	1.459485	-0.020803	0.643167
C75	C	1.080200	-0.000105	0.169275
C76	C	1.580200	0.499895	0.669275
C77	C	1.167685	-0.000109	0.176304
C78	C	1.667685	0.499891	0.676304
C79	C	0.933369	-0.000098	0.022443
C80	C	1.433369	0.499902	0.522443
C81	C	0.926341	-0.000097	-0.065041
C82	C	1.426341	0.499903	0.434959
N83	N	0.946954	0.215704	0.155731
N84	N	1.446954	0.715704	0.655731
C85	C	0.994158	-0.000105	-0.111032
C86	C	1.494158	0.499895	0.388968
C87	C	0.987550	-0.000096	-0.193233
C88	C	1.487550	0.499904	0.306767
C89	C	0.913122	-0.000085	-0.229442
C90	C	1.413122	0.499915	0.270558
C91	C	0.845300	-0.000075	-0.183445
C92	C	1.345300	0.499925	0.316555
C93	C	0.851909	-0.000077	-0.101246
C94	C	1.351909	0.499923	0.398754
C95	C	0.885729	-0.000071	-0.474757
C96	C	1.385729	0.499929	0.025243
C97	C	0.879124	-0.000071	-0.556962
C98	C	1.379124	0.499929	-0.056962
C99	C	1.021374	-0.000091	-0.566744
C100	C	1.521374	0.499909	-0.066744
C101	C	1.027977	-0.000098	-0.484543
C102	C	1.527977	0.499902	0.015457
C103	C	0.960155	-0.000083	-0.438554
C104	C	1.460155	0.499917	0.061446
N105	N	0.906366	-0.000079	-0.313464
N106	N	1.406366	0.499921	0.186536
N107	N	0.966913	-0.000083	-0.354533
N108	N	1.466913	0.499917	0.145467
C109	C	0.939913	-0.000083	0.309563
C110	C	1.439913	0.499917	0.809563
C111	C	0.946942	-0.000079	0.397047
C112	C	1.446942	0.499921	0.897047
H113	H	0.689081	-0.000056	0.284126
H114	H	1.189081	0.499944	0.784126
H115	H	0.784700	-0.000061	-0.212933
H116	H	1.284700	0.499939	0.287067
H117	H	0.184198	-0.000118	0.047876
H118	H	0.684198	0.499882	0.547876
O119	O	0.159337	-0.000058	0.316694
O120	O	0.659337	0.499942	0.816694
C121	C	0.208922	-0.000072	0.383802
C122	C	0.708922	0.499928	0.883802
H123	H	0.270200	0.026154	0.366413
H124	H	0.770200	0.526154	0.866413
H125	H	0.183666	0.040142	0.429724
H126	H	0.683666	0.540142	0.929724
H127	H	0.212995	-0.066522	0.409535
H128	H	0.712995	0.433478	0.909535
H129	H	1.088584	-0.000107	-0.455068
H130	H	1.588584	0.499893	0.044932
H131	H	1.076591	-0.000101	-0.604197
H132	H	1.576591	0.499899	-0.104197
O133	O	0.806763	-0.000014	-0.592012
O134	O	1.306763	0.499986	-0.092012
C135	C	0.748317	-0.000019	-0.533795
C136	C	1.248317	0.499981	-0.033795
H137	H	0.775131	0.026197	-0.477879
H138	H	1.275131	0.526197	0.022121
H139	H	0.698593	0.040210	-0.556038
H140	H	1.198593	0.540210	-0.056038
H141	H	0.723964	-0.066464	-0.520392
H142	H	1.223964	0.433536	-0.020392
H143	H	0.333316	-0.000117	0.059864
H144	H	0.833316	0.499883	0.559864
H145	H	1.042774	-0.000105	-0.230675
H146	H	1.542774	0.499895	0.269325
O147	O	0.847975	-0.783018	0.254428
O148	O	1.347975	-0.283018	0.754428
C149	C	0.770265	-0.761718	0.235689
C150	C	1.270265	-0.261718	0.735689
H151	H	0.767083	-0.737754	0.171498
H152	H	1.267083	-0.237754	0.671498
H153	H	0.728603	-0.819065	0.244966
H154	H	1.228603	-0.319065	0.744966
H155	H	0.752271	-0.711113	0.275448
H156	H	1.252271	-0.211113	0.775448
H157	H	1.002025	-0.485307	0.100646
H158	H	1.502025	0.014693	0.600646
O159	O	0.819876	0.000086	-0.430066
O160	O	1.319876	0.500086	0.069934
C161	C	0.822874	0.071813	-0.385622
C162	C	1.322874	0.571813	0.114378
H163	H	0.863644	0.121948	-0.415549
H164	H	1.363644	0.621948	0.084451
H165	H	0.761194	0.095900	-0.381516
H166	H	1.261194	0.595900	0.118484
H167	H	0.846207	0.055593	-0.323865
H168	H	1.346207	0.555593	0.176135
H169	H	0.796685	-0.000071	-0.063801
H170	H	1.296685	0.499929	0.436199
O171	O	1.066482	0.000034	-0.075905
O172	O	1.566482	0.500034	0.424095
C173	C	1.111567	0.071758	-0.102392
C174	C	1.611567	0.571758	0.397608
H175	H	1.070529	0.121900	-0.124507
H176	H	1.570529	0.621900	0.375493
H177	H	1.149326	0.095834	-0.051699
H178	H	1.649326	0.595834	0.448301
H179	H	1.151304	0.055537	-0.152386
H180	H	1.651304	0.555537	0.347614
O181	O	0.532849	-0.000034	0.282868
O182	O	1.032849	0.499966	0.782868
C183	C	0.582433	-0.000041	0.349976
C184	C	1.082433	0.499959	0.849976
H185	H	0.643710	0.026188	0.332586
H186	H	1.143710	0.526188	0.832586
H187	H	0.557175	0.040175	0.395896
H188	H	1.057175	0.540175	0.895896
H189	H	0.586509	-0.066489	0.375713
H190	H	1.086509	0.433511	0.875713
H191	H	0.557705	-0.000110	0.014062
H192	H	1.057705	0.499890	0.514062
O193	O	0.321395	-0.000015	0.329575
O194	O	0.821395	0.499985	0.829575
C195	C	0.403808	-0.000013	0.320866
C196	C	0.903808	0.499987	0.820866
H197	H	0.420480	0.026177	0.259383
H198	H	0.920480	0.526177	0.759383
H199	H	0.433832	0.040241	0.366864
H200	H	0.933832	0.540241	0.866864
H201	H	0.423755	-0.066453	0.329308
H202	H	0.923755	0.433547	0.829308
O203	O	0.713956	-0.000046	0.015311
O204	O	1.213956	0.499954	0.515311
C205	C	0.664372	-0.000074	-0.051798
C206	C	1.164372	0.499926	0.448202
H207	H	0.605592	0.026147	-0.036907
H208	H	1.105592	0.526147	0.463093
H209	H	0.693461	0.040138	-0.101545
H210	H	1.193461	0.540138	0.398455
H211	H	0.653969	-0.066527	-0.071208
H212	H	1.153969	0.433473	0.428792
H213	H	1.016987	-0.223992	0.085687
H214	H	1.516987	0.276008	0.585687
O215	O	0.862997	-0.521826	0.239452
O216	O	1.362997	-0.021826	0.739452
C217	C	0.809385	-0.572255	0.196621
C218	C	1.309385	-0.072255	0.696621
H219	H	0.836257	-0.585311	0.137624
H220	H	1.336257	-0.085311	0.637624
H221	H	0.796080	-0.633567	0.231606
H222	H	1.296080	-0.133567	0.731606
H223	H	0.752466	-0.538668	0.186000
H224	H	1.252466	-0.038668	0.686000
O225	O	1.017100	-0.388885	0.085650
O226	O	1.517100	0.111115	0.585650
C227	C	1.064101	-0.331713	0.038662
C228	C	1.564101	0.168287	0.538662
H229	H	1.069956	-0.269556	0.068028
H230	H	1.569956	0.230444	0.568028
H231	H	1.125019	-0.356894	0.031845
H232	H	1.625019	0.143106	0.531845
H233	H	1.035334	-0.322458	-0.021881
H234	H	1.535334	0.177542	0.478119
O235	O	1.045817	-0.783087	0.056735
O236	O	1.545817	-0.283087	0.556735
C237	C	0.998216	-0.833548	0.007925
C238	C	1.498216	-0.333548	0.507925
H239	H	0.937303	-0.807280	0.001421
H240	H	1.437303	-0.307280	0.501421
H241	H	1.026364	-0.834545	-0.052567
H242	H	1.526364	-0.334545	0.447433
H243	H	0.992489	-0.899621	0.035452
H244	H	1.492489	-0.399621	0.535452
O245	O	1.054128	-0.611298	0.048560
O246	O	1.554128	-0.111298	0.548560
C247	C	1.095709	-0.668472	0.007041
C248	C	1.595709	-0.168472	0.507041
H249	H	1.060424	-0.730627	0.007073
H250	H	1.560424	-0.230627	0.507073
H251	H	1.104981	-0.643289	-0.056266
H252	H	1.604981	-0.143289	0.443734
H253	H	1.155345	-0.677731	0.036742
H254	H	1.655345	-0.177731	0.536742
H255	H	0.827379	-0.382162	0.275161
H256	H	1.327379	0.117838	0.775161
O257	O	0.856350	-0.611214	0.246447
O258	O	1.356350	-0.111214	0.746447
C259	C	0.873004	-0.632526	0.326194
C260	C	1.373004	-0.132526	0.826194
H261	H	0.934916	-0.656477	0.331701
H262	H	1.434916	-0.156477	0.831701
H263	H	0.869146	-0.575189	0.362402
H264	H	1.369146	-0.075189	0.862402
H265	H	0.828420	-0.683145	0.348966
H266	H	1.328420	-0.183145	0.848966
O267	O	0.827382	-0.216998	0.275097
O268	O	1.327382	0.283002	0.775097
C269	C	0.842260	-0.130698	0.260244
C270	C	1.342260	0.369302	0.760244
H271	H	0.868330	-0.118798	0.198952
H272	H	1.368330	0.381202	0.698952
H273	H	0.784771	-0.097569	0.263650
H274	H	1.284771	0.402431	0.763650
H275	H	0.885707	-0.105941	0.306118
H276	H	1.385707	0.394059	0.806118
