data_functionalizedCrystal
_audit_creation_method	'MofGen! by Chris Wilmer'
_symmetry_space_group_name_H-M	'P1'
_symmetry_Int_Tables_number	1
_symmetry_cell_setting	triclinic
loop_
_symmetry_equiv_pos_as_xyz
  x,y,z
_cell_length_a	17.077404
_cell_length_b	13.897448
_cell_length_c	13.897449
_cell_angle_alpha	90.010270
_cell_angle_beta	90.007040
_cell_angle_gamma	90.017917
loop_
_atom_site_label
_atom_site_type_symbol
_atom_site_fract_x
_atom_site_fract_y
_atom_site_fract_z
Zn1	Zn	1.199986	-0.384172	0.545408
Zn2	Zn	1.699986	0.115828	1.045408
Zn3	Zn	1.199934	-0.545436	0.384110
Zn4	Zn	1.699934	-0.045436	0.884110
Zn5	Zn	1.068747	-0.384158	0.384124
Zn6	Zn	1.568747	0.115842	0.884124
Zn7	Zn	1.068698	-0.545427	0.545359
Zn8	Zn	1.568698	-0.045427	1.045359
O9	O	1.134341	-0.464798	0.464750
O10	O	1.634341	0.035202	0.964750
O11	O	1.309826	-0.405574	0.524026
O12	O	1.809826	0.094426	1.024026
O13	O	1.182530	-0.524040	0.249130
O14	O	1.682530	-0.024040	0.749130
O15	O	1.086198	-0.249178	0.405545
O16	O	1.586198	0.250822	0.905545
O17	O	1.309788	-0.524054	0.405521
O18	O	1.809788	-0.024054	0.905521
O19	O	1.182619	-0.249188	0.524040
O20	O	1.682619	0.250812	1.024040
O21	O	1.086147	-0.405549	0.249140
O22	O	1.586147	0.094451	0.749140
O23	O	0.958893	-0.405541	0.405497
O24	O	1.458893	0.094459	0.905497
O25	O	1.086115	-0.524039	0.680347
O26	O	1.586115	-0.024039	1.180347
O27	O	0.958858	-0.524025	0.523956
O28	O	1.458858	-0.024025	1.023956
O29	O	1.182572	-0.405565	0.680383
O30	O	1.682572	0.094435	1.180383
O31	O	1.182483	-0.680417	0.405473
O32	O	1.682483	-0.180417	0.905473
O33	O	1.086064	-0.680410	0.523943
O34	O	1.586064	-0.180410	1.023943
C35	C	0.930393	-0.464781	0.464723
C36	C	1.430393	0.035219	0.964723
C37	C	0.843144	-0.464797	0.464735
C38	C	1.343144	0.035203	0.964735
C39	C	0.802155	-0.526584	0.526318
C40	C	1.302155	-0.026584	1.026318
C41	C	0.720175	-0.526586	0.526333
C42	C	1.220175	-0.026586	1.026333
C43	C	0.679184	-0.464805	0.464760
C44	C	1.179184	0.035195	0.964760
C45	C	0.720178	-0.403010	0.403175
C46	C	1.220178	0.096990	0.903175
C47	C	0.802157	-0.403004	0.403165
C48	C	1.302157	0.096996	0.903165
C49	C	0.549308	-0.403029	0.403198
C50	C	1.049308	0.096971	0.903198
C51	C	0.467324	-0.403037	0.403206
C52	C	0.967324	0.096963	0.903206
C53	C	0.467326	-0.526612	0.526366
C54	C	0.967326	-0.026612	1.026366
C55	C	0.549305	-0.526605	0.526356
C56	C	1.049305	-0.026605	1.026356
C57	C	0.590293	-0.464812	0.464769
C58	C	1.090293	0.035188	0.964769
C59	C	1.134284	-0.715413	0.464722
C60	C	1.634284	-0.215413	0.964722
C61	C	1.134331	-0.822627	0.464742
C62	C	1.634331	-0.322627	0.964742
C63	C	1.134414	-1.018922	0.464803
C64	C	1.634414	-0.518922	0.964803
C65	C	1.134366	-0.909689	0.464772
C66	C	1.634366	-0.409689	0.964772
C67	C	1.339086	-0.464817	0.464777
C68	C	1.839086	0.035183	0.964777
C69	C	1.426335	-0.464824	0.464789
C70	C	1.926335	0.035176	0.964789
C71	C	1.134344	-0.464802	0.716343
C72	C	1.634344	0.035198	1.216343
C73	C	1.134345	-0.464804	0.823557
C74	C	1.634345	0.035196	1.323557
C75	C	1.134420	-0.213205	0.464799
C76	C	1.634420	0.286795	0.964799
C77	C	1.134454	-0.105991	0.464820
C78	C	1.634454	0.394009	0.964820
C79	C	1.134326	-0.464808	1.019852
C80	C	1.634326	0.035192	1.519852
C81	C	1.134334	-0.464809	0.910620
C82	C	1.634334	0.035191	1.410620
C83	C	1.134331	-0.464814	1.214136
C84	C	1.634331	0.035186	1.714136
C85	C	1.134325	-0.464806	1.106922
C86	C	1.634325	0.035194	1.606922
H87	H	0.835524	-0.576897	0.576454
H88	H	1.335524	-0.076897	1.076454
F89	F	0.592929	-0.592366	0.591883
F90	F	1.092929	-0.092366	1.091883
F91	F	0.592929	-0.337260	0.337651
F92	F	1.092929	0.162740	0.837651
H93	H	0.835529	-0.352685	0.353023
H94	H	1.335529	0.147315	0.853023
H95	H	0.686797	-0.352703	0.353045
H96	H	1.186797	0.147297	0.853045
H97	H	0.686806	-0.576901	0.576479
H98	H	1.186806	-0.076901	1.076479
F99	F	0.423703	-0.592366	0.591923
F100	F	0.923703	-0.092366	1.091923
H101	H	0.433951	-0.352717	0.353080
H102	H	0.933951	0.147283	0.853080
