data_functionalizedCrystal
_audit_creation_method	'MofGen! by Chris Wilmer'
_symmetry_space_group_name_H-M	'P1'
_symmetry_Int_Tables_number	1
_symmetry_cell_setting	triclinic
loop_
_symmetry_equiv_pos_as_xyz
  x,y,z
_cell_length_a	18.215407
_cell_length_b	18.215405
_cell_length_c	11.169409
_cell_angle_alpha	89.960202
_cell_angle_beta	89.976684
_cell_angle_gamma	90.025333
loop_
_atom_site_label
_atom_site_type_symbol
_atom_site_fract_x
_atom_site_fract_y
_atom_site_fract_z
Zn1	Zn	1.125097	-0.292916	-0.678592
Zn2	Zn	1.124998	-0.416007	-0.477883
Zn3	Zn	1.002022	-0.292960	-0.477914
Zn4	Zn	1.001996	-0.415946	-0.678516
O5	O	1.063528	-0.354457	-0.578226
O6	O	1.228068	-0.309251	-0.651987
O7	O	1.108655	-0.399728	-0.309937
O8	O	1.018401	-0.189970	-0.504580
O9	O	1.227996	-0.399686	-0.504526
O10	O	1.108824	-0.189937	-0.652017
O11	O	1.018305	-0.309326	-0.309960
O12	O	0.899035	-0.309267	-0.504506
O13	O	1.018356	-0.399582	-0.846476
O14	O	0.899015	-0.399625	-0.651887
O15	O	1.108798	-0.309192	-0.846532
O16	O	1.108629	-0.518983	-0.504452
O17	O	1.018260	-0.518939	-0.651856
C18	C	0.872322	-0.354445	-0.578192
C19	C	0.790523	-0.354457	-0.578206
C20	C	0.602338	-0.401580	-0.654851
C21	C	0.525480	-0.401582	-0.654866
C22	C	0.525470	-0.307348	-0.501628
C23	C	0.602328	-0.307342	-0.501620
C24	C	0.640760	-0.354463	-0.578230
C25	C	0.487044	-0.354470	-0.578253
C26	C	0.403710	-0.354473	-0.578268
C27	C	0.724099	-0.354460	-0.578216
C28	C	1.063451	-0.545664	-0.578169
C29	C	1.063485	-0.627462	-0.578184
C30	C	1.110651	-0.815655	-0.501572
C31	C	1.110683	-0.892514	-0.501601
C32	C	1.016500	-0.892507	-0.654967
C33	C	1.016472	-0.815650	-0.654943
C34	C	1.063546	-0.777226	-0.578239
C35	C	1.063607	-0.930942	-0.578292
C36	C	1.063643	-1.014276	-0.578324
C37	C	1.063512	-0.693887	-0.578208
C38	C	1.255481	-0.354470	-0.578262
C39	C	1.337280	-0.354476	-0.578277
C40	C	1.063585	-0.354375	-0.891269
C41	C	1.063609	-0.354341	-1.024669
C42	C	1.063626	-0.162504	-0.578311
C43	C	1.063668	-0.080705	-0.578346
C44	C	1.063514	-0.354486	-0.266402
C45	C	1.063633	-0.354313	-0.133002
H46	H	0.494170	-0.268985	-0.439254
H47	H	0.978173	-0.923801	-0.717415
H48	H	0.633611	-0.268969	-0.439226
H49	H	0.633627	-0.439947	-0.717234
C50	C	0.964654	-0.773372	-0.739284
C51	C	0.912869	-0.815633	-0.823647
C52	C	0.861057	-0.773355	-0.907988
C53	C	0.861030	-0.688815	-0.907967
C54	C	0.912817	-0.646548	-0.823600
C55	C	0.964629	-0.688827	-0.739259
H56	H	0.912887	-0.878219	-0.823666
H57	H	0.822721	-0.804643	-0.970442
H58	H	0.822676	-0.657517	-0.970401
H59	H	0.912799	-0.583962	-0.823581
H60	H	1.002965	-0.657538	-0.676805
C61	C	1.162437	-0.773388	-0.417211
C62	C	1.162409	-0.688848	-0.417177
C63	C	1.214200	-0.646583	-0.332817
C64	C	1.266018	-0.688858	-0.248492
C65	C	1.266048	-0.773403	-0.248523
C66	C	1.214258	-0.815668	-0.332883
H67	H	1.124049	-0.657549	-0.479602
H68	H	1.214178	-0.583997	-0.332794
H69	H	1.304357	-0.657571	-0.186044
H70	H	1.304409	-0.804702	-0.186098
H71	H	1.214280	-0.878253	-0.332906
H72	H	0.494200	-0.439949	-0.717260
C73	C	1.162497	-0.934787	-0.417264
C74	C	1.220282	-0.987545	-0.469375
C75	C	1.272099	-1.029819	-0.385036
C76	C	1.266131	-1.019334	-0.248585
C77	C	1.208345	-0.966574	-0.196466
C78	C	1.156528	-0.924300	-0.280805
H79	H	1.224701	-0.995309	-0.570391
H80	H	1.314876	-1.068876	-0.423618
H81	H	1.304489	-1.050628	-0.186151
H82	H	1.203925	-0.958811	-0.095450
H83	H	1.113750	-0.885244	-0.242223
