data_functionalizedCrystal
_audit_creation_method	'MofGen! by Chris Wilmer'
_symmetry_space_group_name_H-M	'P1'
_symmetry_Int_Tables_number	1
_symmetry_cell_setting	triclinic
loop_
_symmetry_equiv_pos_as_xyz
  x,y,z
_cell_length_a	10.654551
_cell_length_b	9.730223
_cell_length_c	10.654550
_cell_angle_alpha	90.001139
_cell_angle_beta	95.514913
_cell_angle_gamma	90.002278
loop_
_atom_site_label
_atom_site_type_symbol
_atom_site_fract_x
_atom_site_fract_y
_atom_site_fract_z
O1	O	1.667838	0.114269	-0.176396
O2	O	1.302360	0.114275	-0.193201
O3	O	1.493502	0.114266	-0.002059
O4	O	1.476696	0.114277	-0.367537
O5	O	1.493490	-0.114314	-0.002070
O6	O	1.302348	-0.114305	-0.193211
O7	O	1.667826	-0.114311	-0.176406
Zn8	Zn	1.485085	-0.150600	-0.184810
Zn9	Zn	1.485101	0.150564	-0.184796
O10	O	1.476684	-0.114303	-0.367548
C11	C	1.255556	-0.000014	-0.191972
C12	C	1.116113	-0.000012	-0.188279
N13	N	1.485083	-0.356137	-0.184819
C14	C	0.919574	-0.124612	-0.183067
C15	C	1.050595	-0.124613	-0.186548
C16	C	1.050602	0.124598	-0.186543
C17	C	0.919583	0.124596	-0.183072
C18	C	0.854064	-0.249222	-0.181323
C19	C	0.919565	-0.373832	-0.183062
C20	C	1.050586	-0.373832	-0.186542
C21	C	1.116105	-0.249222	-0.188284
C22	C	1.561913	-0.428075	-0.261694
C23	C	1.561931	-0.571958	-0.261671
C24	C	1.408280	-0.571952	-0.107894
C25	C	1.408269	-0.428071	-0.107912
C26	C	1.638726	-0.356140	-0.338602
C27	C	1.715561	-0.428079	-0.415484
C28	C	1.715580	-0.571962	-0.415460
C29	C	1.638764	-0.643906	-0.338554
C30	C	1.714630	-0.000019	-0.177635
C31	C	1.854073	-0.000013	-0.181327
C32	C	1.492262	-0.000022	0.044734
C33	C	1.488570	-0.000017	0.184177
N34	N	1.485113	0.356100	-0.184778
C35	C	1.477924	-0.000012	-0.414341
C36	C	1.481616	-0.000008	-0.553784
C37	C	1.601112	-0.000023	0.263662
C38	C	1.597635	-0.000013	0.394683
C39	C	1.369066	0.000003	0.366720
C40	C	1.372544	0.000003	0.235702
C41	C	1.717138	-0.000043	0.212137
C42	C	1.829689	-0.000051	0.291624
C43	C	1.826212	-0.000041	0.422645
C44	C	1.710185	-0.000024	0.474179
H45	H	0.747381	-0.249235	-0.178487
H46	H	1.103912	-0.475295	-0.187971
C47	C	1.248742	-0.000001	0.148263
N48	N	1.155491	-0.000003	0.082404
H49	H	1.924154	-0.000030	0.249656
C50	C	1.260231	-0.249230	-0.192119
N51	N	1.368787	-0.249238	-0.195000
H52	H	1.778152	-0.630530	-0.478052
C53	C	0.847491	-0.510894	-0.181152
N54	N	0.793206	-0.614133	-0.179713
C55	C	1.706368	-0.000005	0.618307
N56	N	1.703494	0.000002	0.726864
C57	C	1.122680	0.261658	-0.188444
N58	N	1.176970	0.364895	-0.189869
C59	C	1.638719	-0.197866	-0.338629
N60	N	1.638713	-0.078654	-0.338647
C61	C	1.800064	-0.348937	-0.500065
N62	N	1.863716	-0.289329	-0.563772
H63	H	0.866251	0.226057	-0.181658
C64	C	1.638795	-0.802183	-0.338527
N65	N	1.638814	-0.921395	-0.338513
H66	H	1.345738	-0.630540	-0.045283
C67	C	1.323749	-0.348935	-0.023349
N68	N	1.260088	-0.289329	0.040347
C69	C	1.720973	-0.000054	0.068013
N70	N	1.723860	-0.000063	-0.040541
C71	C	1.241445	-0.000000	0.423414
N72	N	1.145318	-0.000012	0.466116
C73	C	1.950019	-0.000050	0.510076
N74	N	2.043274	-0.000067	0.575928
