data_functionalizedCrystal
_audit_creation_method	'MofGen! by Chris Wilmer'
_symmetry_space_group_name_H-M	'P1'
_symmetry_Int_Tables_number	1
_symmetry_cell_setting	triclinic
loop_
_symmetry_equiv_pos_as_xyz
  x,y,z
_cell_length_a	11.169417
_cell_length_b	16.959454
_cell_length_c	11.169409
_cell_angle_alpha	89.967057
_cell_angle_beta	89.980176
_cell_angle_gamma	90.020954
loop_
_atom_site_label
_atom_site_type_symbol
_atom_site_fract_x
_atom_site_fract_y
_atom_site_fract_z
Zn1	Zn	1.834881	-0.314599	-0.678538
Zn2	Zn	1.834736	-0.446806	-0.477852
Zn3	Zn	1.634167	-0.314647	-0.477872
Zn4	Zn	1.634140	-0.446741	-0.678497
O5	O	1.734481	-0.380698	-0.578190
O6	O	2.002812	-0.332143	-0.651925
O7	O	1.808081	-0.429322	-0.309905
O8	O	1.660864	-0.204030	-0.504516
O9	O	2.002705	-0.429275	-0.504482
O10	O	1.808328	-0.203995	-0.651944
O11	O	1.660724	-0.332225	-0.309920
O12	O	1.466214	-0.332163	-0.504477
O13	O	1.660819	-0.429165	-0.846452
O14	O	1.466194	-0.429212	-0.651875
O15	O	1.808302	-0.332081	-0.846482
O16	O	1.808055	-0.557408	-0.504443
O17	O	1.660678	-0.557361	-0.651856
C18	C	1.422657	-0.380686	-0.578174
C19	C	1.289257	-0.380700	-0.578196
C20	C	1.734381	-0.586065	-0.578169
C21	C	1.734447	-0.673921	-0.578201
C22	C	1.657853	-1.045402	-0.654940
C23	C	1.811443	-1.045391	-0.501562
C24	C	1.811401	-0.962846	-0.501551
C25	C	1.734583	-0.921574	-0.578234
C26	C	1.657807	-0.962849	-0.654928
C27	C	1.888168	-0.921565	-0.424850
C28	C	1.888128	-0.839014	-0.424835
C29	C	1.811315	-0.797741	-0.501525
C30	C	1.734536	-0.839021	-0.578223
C31	C	1.657718	-0.797749	-0.654906
C32	C	1.580944	-0.839027	-0.731611
C33	C	1.580993	-0.921576	-0.731618
C34	C	1.811266	-0.715193	-0.501518
C35	C	1.657671	-0.715196	-0.654895
C36	C	2.047524	-0.380711	-0.578206
C37	C	2.180924	-0.380716	-0.578213
C38	C	1.734573	-0.380611	-0.891232
C39	C	1.734613	-0.380573	-1.024633
C40	C	1.734615	-0.174530	-0.578237
C41	C	1.734672	-0.086674	-0.578257
C42	C	1.734459	-0.380729	-0.266365
C43	C	1.734652	-0.380543	-0.132966
H44	H	1.518393	-0.805415	-0.794042
O45	O	1.885891	-0.675010	-0.427181
C46	C	1.963375	-0.627210	-0.495565
H47	H	1.921002	-0.614823	-0.586485
H48	H	1.979451	-0.569175	-0.446684
H49	H	2.052327	-0.658977	-0.508825
H50	H	1.950642	-0.805410	-0.362380
O51	O	1.506582	-0.961761	-0.806173
C52	C	1.574896	-1.009434	-0.883771
H53	H	1.665882	-1.021771	-0.841526
H54	H	1.526035	-1.067502	-0.899807
H55	H	1.588013	-0.977582	-0.972726
O56	O	1.583109	-0.675193	-0.729555
C57	C	1.609316	-0.695282	-0.849199
H58	H	1.655488	-0.755194	-0.851735
H59	H	1.522676	-0.698125	-0.902947
H60	H	1.670974	-0.648773	-0.889664
O61	O	1.583316	-1.085616	-0.729333
C62	C	1.599849	-1.167327	-0.712933
H63	H	1.639210	-1.178628	-0.620348
H64	H	1.509964	-1.198740	-0.721004
H65	H	1.663738	-1.190687	-0.784183
O66	O	1.885976	-1.085601	-0.427144
C67	C	1.869504	-1.167312	-0.443550
H68	H	1.830212	-1.178575	-0.536161
H69	H	1.959402	-1.198664	-0.435417
H70	H	1.805581	-1.190771	-0.372341
O71	O	1.962810	-0.961726	-0.350480
C72	C	2.040306	-1.009471	-0.418796
H73	H	2.047819	-0.984544	-0.513309
H74	H	2.132636	-1.010453	-0.375351
H75	H	2.003132	-1.072022	-0.422970
