data_functionalizedCrystal
_audit_creation_method	'MofGen! by Chris Wilmer'
_symmetry_space_group_name_H-M	'P1'
_symmetry_Int_Tables_number	1
_symmetry_cell_setting	triclinic
loop_
_symmetry_equiv_pos_as_xyz
  x,y,z
_cell_length_a	12.837943
_cell_length_b	12.784905
_cell_length_c	11.892095
_cell_angle_alpha	86.521160
_cell_angle_beta	94.310562
_cell_angle_gamma	83.968130
loop_
_atom_site_label
_atom_site_type_symbol
_atom_site_fract_x
_atom_site_fract_y
_atom_site_fract_z
O1	O	-1.357946	-0.267749	-0.093977
O2	O	-1.057360	-0.254222	-0.093984
O3	O	-1.229649	-0.108486	-0.093976
O4	O	-1.185657	-0.413485	-0.093984
O5	O	-1.215285	-0.120616	0.094031
O6	O	-1.042997	-0.266353	0.094023
O7	O	-1.343582	-0.279879	0.094030
Zn8	Zn	-1.191009	-0.275042	0.123877
Zn9	Zn	-1.209933	-0.259059	-0.123830
O10	O	-1.171294	-0.425615	0.094023
C11	C	-1.011969	-0.255718	0.000019
C12	C	-0.898121	-0.242090	0.000016
C13	C	-1.225328	-0.075242	0.000026
C14	C	-1.233842	0.041890	0.000021
C15	C	-1.388973	-0.278383	0.000025
C16	C	-1.502822	-0.292011	0.000021
C17	C	-0.642394	-0.405922	0.000029
C18	C	-0.535422	-0.393123	0.000027
C19	C	-0.577202	-0.203692	0.000019
C20	C	-0.684174	-0.216492	0.000021
C21	C	-0.716766	-0.317610	0.000024
C22	C	-0.823741	-0.330408	0.000018
C23	C	-0.865518	-0.140979	0.000018
C24	C	-0.758546	-0.128180	0.000016
C25	C	-1.175614	-0.458860	0.000019
C26	C	-1.167101	-0.575991	0.000016
C27	C	-1.060398	0.255841	0.000028
C28	C	-1.068392	0.365896	0.000024
C29	C	-1.257822	0.372059	0.000016
C30	C	-1.249828	0.262003	0.000020
C31	C	-1.151113	0.203898	0.000025
C32	C	-1.143120	0.093841	0.000021
C33	C	-1.332549	0.100004	0.000021
C34	C	-1.340543	0.210060	0.000017
N35	N	-1.178101	-0.285949	0.292931
N36	N	-1.222850	-0.248144	-0.292884
C37	C	-1.312673	-0.172183	0.529584
C38	C	-1.303657	-0.179816	0.647925
C39	C	-1.151051	-0.308842	0.647957
C40	C	-1.160066	-0.301209	0.529616
C41	C	-1.240881	-0.232879	0.470433
C42	C	-1.249900	-0.225252	0.352090
C43	C	-1.097290	-0.354271	0.352123
C44	C	-1.088274	-0.361904	0.470465
H45	H	-0.850274	-0.412744	0.000022
H46	H	-1.022474	-0.417535	0.518665
H47	H	-0.926085	-0.069069	0.000007
H48	H	-1.085247	-0.364467	0.696159
H49	H	-1.378481	-0.116554	0.481397
H50	H	-1.062741	0.046533	0.000022
H51	H	-0.980021	0.208531	0.000023
H52	H	-0.668930	-0.488256	0.000029
H53	H	-0.731993	-0.045853	0.000027
H54	H	-1.038835	-0.403697	0.303949
H55	H	-0.994523	0.408183	0.000033
H56	H	-1.362116	-0.130391	0.696083
H57	H	-0.474871	-0.465036	0.000034
H58	H	-1.406423	0.057708	-0.000081
H59	H	-0.550639	-0.121372	0.000110
H60	H	-1.420914	0.257384	0.000018
H61	H	-1.338190	0.419386	0.000026
H62	H	-1.315706	-0.169617	0.303904
