data_functionalizedCrystal
_audit_creation_method	'MofGen! by Chris Wilmer'
_symmetry_space_group_name_H-M	'P1'
_symmetry_Int_Tables_number	1
_symmetry_cell_setting	triclinic
loop_
_symmetry_equiv_pos_as_xyz
  x,y,z
_cell_length_a	19.188930
_cell_length_b	17.038272
_cell_length_c	17.666332
_cell_angle_alpha	89.991265
_cell_angle_beta	90.015196
_cell_angle_gamma	92.871832
loop_
_atom_site_label
_atom_site_type_symbol
_atom_site_fract_x
_atom_site_fract_y
_atom_site_fract_z
O1	O	0.932204	-0.097596	0.063194
O2	O	0.729709	-0.110733	0.063143
O3	O	0.829753	0.009647	0.063162
O4	O	0.832160	-0.217976	0.063175
O5	O	0.829751	0.009660	-0.062735
O6	O	0.729707	-0.110720	-0.062754
O7	O	0.932202	-0.097583	-0.062703
Cu8	Cu	0.830954	-0.104151	-0.074224
Cu9	Cu	0.830957	-0.104165	0.074664
O10	O	0.832158	-0.217963	-0.062722
C11	C	0.703670	-0.110301	0.000187
C12	C	0.626087	-0.109024	0.000168
C13	C	0.827563	0.038775	0.000213
C14	C	0.821031	0.125548	0.000212
N15	N	0.830957	-0.104139	-0.178943
C16	C	0.585551	-0.179659	0.000183
C17	C	0.512653	-0.178460	0.000192
C18	C	0.480293	-0.106621	0.000199
C19	C	0.520838	-0.035976	0.000179
C20	C	0.593735	-0.037178	0.000163
N21	N	0.368902	-0.051713	0.043075
N22	N	0.299653	-0.050576	0.043091
C23	C	0.260659	-0.102995	0.000245
N24	N	0.293530	-0.156606	-0.042609
N25	N	0.362785	-0.157745	-0.042622
C26	C	0.401249	-0.105309	0.000216
C27	C	0.141078	-0.172334	0.000269
C28	C	0.068179	-0.171132	0.000273
C29	C	0.076366	-0.028646	0.000268
C30	C	0.149264	-0.029851	0.000257
C31	C	0.181616	-0.101697	0.000261
C32	C	0.958240	-0.098015	0.000254
C33	C	1.035824	-0.099292	0.000279
C34	C	0.834348	-0.247091	0.000228
C35	C	0.840880	-0.333863	0.000235
C36	C	0.880998	0.175849	0.000226
C37	C	0.874857	0.257380	0.000232
C38	C	0.808748	0.288609	0.000218
C39	C	0.748777	0.238301	0.000205
C40	C	0.754919	0.156771	0.000205
C41	C	0.787050	0.534299	0.000222
C42	C	0.780913	0.615835	0.000220
C43	C	0.906993	0.634909	0.000248
C44	C	0.913129	0.553377	0.000243
C45	C	0.853158	0.503076	0.000235
C46	C	0.802470	0.371947	0.000221
C47	C	0.859437	0.419740	0.000237
N48	N	0.830959	-0.104170	0.179383
C49	C	0.875357	-0.050953	0.781442
C50	C	0.875355	-0.050951	0.702194
C51	C	0.830960	-0.104150	0.662565
C52	C	0.786551	-0.157340	0.702189
C53	C	0.786550	-0.157335	0.781435
N54	N	0.826056	-0.173348	0.538154
N55	N	0.826062	-0.173350	0.462873
C56	C	0.830962	-0.104167	0.423801
N57	N	0.835869	-0.034980	0.462852
N58	N	0.835867	-0.034978	0.538140
C59	C	0.830957	-0.104161	0.576635
C60	C	0.875362	-0.050975	0.298256
C61	C	0.875355	-0.050972	0.219007
C62	C	0.786556	-0.157368	0.219004
C63	C	0.786559	-0.157364	0.298251
C64	C	0.830966	-0.104168	0.337873
H65	H	0.611887	-0.238162	0.000188
H66	H	0.050019	0.029847	0.000321
H67	H	0.911519	-0.007657	0.330518
H68	H	0.911509	-0.007657	0.186752
H69	H	0.694950	0.263733	0.000198
H70	H	0.966961	0.527958	0.000255
H71	H	0.035175	-0.228654	0.000281
H72	H	0.748644	0.397382	0.000208
H73	H	0.911512	-0.007639	0.669934
H74	H	0.750407	-0.200676	0.330508
H75	H	0.750403	-0.200654	0.669919
H76	H	0.750393	-0.200647	0.813690
H77	H	0.706088	0.115815	0.000193
H78	H	0.167421	-0.230836	0.000261
H79	H	0.494486	0.022516	0.000196
H80	H	0.913263	0.394310	0.000266
H81	H	0.911514	-0.007636	0.813700
H82	H	0.182269	0.027668	0.000248
H83	H	0.750406	-0.200680	0.186738
H84	H	0.955818	0.675873	0.000256
H85	H	0.934830	0.150430	0.000233
H86	H	0.479642	-0.235981	0.000202
H87	H	0.923688	0.298333	0.000242
H88	H	0.626739	0.020344	0.000151
H89	H	0.727077	0.641257	0.000196
H90	H	0.738217	0.493353	0.000215
