data_functionalizedCrystal
_audit_creation_method	'MofGen! by Chris Wilmer'
_symmetry_space_group_name_H-M	'P1'
_symmetry_Int_Tables_number	1
_symmetry_cell_setting	triclinic
loop_
_symmetry_equiv_pos_as_xyz
  x,y,z
_cell_length_a	13.033293
_cell_length_b	18.101396
_cell_length_c	13.032268
_cell_angle_alpha	97.146132
_cell_angle_beta	90.920818
_cell_angle_gamma	82.793385
loop_
_atom_site_label
_atom_site_type_symbol
_atom_site_fract_x
_atom_site_fract_y
_atom_site_fract_z
Zn1	Zn	1.498354	0.230410	0.781469
Zn2	Zn	1.520046	0.336839	0.609490
Zn3	Zn	1.348216	0.226499	0.587645
Zn4	Zn	1.326283	0.367712	0.759529
O5	O	1.423225	0.290365	0.684533
O6	O	1.645155	0.233245	0.776981
O7	O	1.515510	0.307645	0.462685
O8	O	1.368233	0.123380	0.613397
O9	O	1.661093	0.311437	0.650628
O10	O	1.478538	0.126253	0.755798
O11	O	1.389267	0.226579	0.446635
O12	O	1.201382	0.256515	0.592121
O13	O	1.330851	0.364056	0.906347
O14	O	1.185268	0.360263	0.718403
O15	O	1.457271	0.263181	0.922467
O16	O	1.494243	0.444572	0.629353
O17	O	1.351885	0.467255	0.739586
C18	C	1.156007	0.311316	0.650512
C19	C	1.041687	0.320299	0.635981
C20	C	0.982822	0.285695	0.692117
C21	C	0.864666	0.294979	0.677100
C22	C	1.423063	0.482786	0.684485
C23	C	1.423083	0.565100	0.684511
C24	C	1.423259	0.864183	0.684594
C25	C	1.333855	0.847165	0.754170
C26	C	1.333522	0.761550	0.753873
C27	C	1.423172	0.715805	0.684554
C28	C	1.407597	0.738272	0.572442
C29	C	1.407013	0.824006	0.572853
C30	C	1.528536	0.826804	0.726198
C31	C	1.527607	0.741443	0.728493
C32	C	1.423125	0.631947	0.684524
C33	C	1.423304	0.948040	0.684616
C34	C	1.691485	0.269333	0.718689
C35	C	1.805802	0.260371	0.733244
C36	C	1.423376	1.097196	0.684607
C37	C	1.423347	1.014887	0.684637
C38	C	1.389194	0.317498	0.952764
C39	C	1.374693	0.329061	1.067067
C40	C	1.457182	0.263279	0.417354
C41	C	1.471883	0.251492	0.303077
C42	C	1.430777	0.284305	1.126003
C43	C	1.415790	0.296254	1.244142
H44	H	0.842874	0.223865	0.792419
O45	O	1.509079	0.221827	1.077001
H46	H	1.587195	0.230263	1.107838
H47	H	1.019899	0.249194	0.751290
H48	H	1.356668	0.343417	1.281142
O49	O	1.344312	0.742529	0.863415
H50	H	1.344087	0.681222	0.863313
O51	O	0.815574	0.343330	0.598705
H52	H	0.730474	0.343038	0.599216
H53	H	1.530993	0.204322	1.266077
H54	H	1.341782	0.874460	0.837104
O55	O	0.992591	0.368647	0.557590
H56	H	0.907490	0.368355	0.558101
O57	O	1.230723	0.881636	0.716610
H58	H	1.242864	0.910836	0.648602
O59	O	1.229810	0.740395	0.715900
H60	H	1.179700	0.791345	0.697668
H61	H	1.330466	0.847906	0.539218
O62	O	1.490497	0.837476	0.500847
H63	H	1.531102	0.782781	0.465879
H64	H	1.315575	0.376220	1.104071
H65	H	1.471279	0.707331	0.518584
H66	H	1.539601	0.727429	0.811069
H67	H	1.331952	0.720634	0.538492
H68	H	1.545414	0.854128	0.807284
O69	O	1.619043	0.699409	0.667685
H70	H	1.621220	0.638380	0.672013
O71	O	1.616582	0.839873	0.659478
H72	H	1.585574	0.872804	0.596973
