data_functionalizedCrystal
_audit_creation_method	'MofGen! by Chris Wilmer'
_symmetry_space_group_name_H-M	'P1'
_symmetry_Int_Tables_number	1
_symmetry_cell_setting	triclinic
loop_
_symmetry_equiv_pos_as_xyz
  x,y,z
_cell_length_a	16.625548
_cell_length_b	16.625546
_cell_length_c	12.827885
_cell_angle_alpha	89.964876
_cell_angle_beta	89.978764
_cell_angle_gamma	90.023536
loop_
_atom_site_label
_atom_site_type_symbol
_atom_site_fract_x
_atom_site_fract_y
_atom_site_fract_z
Zn1	Zn	1.232686	-0.320940	-0.590865
Zn2	Zn	1.732686	0.179060	-0.090865
Zn3	Zn	1.232587	-0.455794	-0.416109
Zn4	Zn	1.732587	0.044206	0.083891
Zn5	Zn	1.097846	-0.320981	-0.416132
Zn6	Zn	1.597846	0.179019	0.083868
Zn7	Zn	1.097818	-0.455736	-0.590803
Zn8	Zn	1.597818	0.044264	-0.090803
O9	O	1.165234	-0.388363	-0.503477
O10	O	1.665234	0.111637	-0.003477
O11	O	1.345505	-0.338835	-0.567699
O12	O	1.845505	0.161165	-0.067699
O13	O	1.214684	-0.437952	-0.269876
O14	O	1.714684	0.062048	0.230124
O15	O	1.115786	-0.208143	-0.439347
O16	O	1.615786	0.291857	0.060653
O17	O	1.345433	-0.437912	-0.439307
O18	O	1.845433	0.062088	0.060693
O19	O	1.214852	-0.208113	-0.567722
O20	O	1.714852	0.291887	-0.067722
O21	O	1.115690	-0.338906	-0.269893
O22	O	1.615690	0.161094	0.230107
O23	O	0.985010	-0.338850	-0.439287
O24	O	1.485010	0.161150	0.060713
O25	O	1.115738	-0.437814	-0.737047
O26	O	1.615738	0.062186	-0.237047
O27	O	0.984989	-0.437854	-0.567616
O28	O	1.484989	0.062146	-0.067616
O29	O	1.214825	-0.338779	-0.737093
O30	O	1.714825	0.161221	-0.237093
O31	O	1.214657	-0.568619	-0.439246
O32	O	1.714657	-0.068619	0.060754
O33	O	1.115643	-0.568576	-0.567593
O34	O	1.615643	-0.068576	-0.067593
C35	C	0.955743	-0.388351	-0.503448
C36	C	1.455743	0.111649	-0.003448
C37	C	0.866122	-0.388366	-0.503460
C38	C	1.366122	0.111634	-0.003460
C39	C	0.537947	-0.388371	-0.503505
C40	C	1.037947	0.111629	-0.003505
C41	C	0.629255	-0.388367	-0.503489
C42	C	1.129255	0.111633	-0.003489
C43	C	0.702032	-0.388369	-0.503482
C44	C	1.202032	0.111631	-0.003482
C45	C	0.793346	-0.388364	-0.503468
C46	C	1.293346	0.111636	-0.003468
C47	C	1.165158	-0.597854	-0.503433
C48	C	1.665158	-0.097854	-0.003433
C49	C	1.165199	-0.687475	-0.503450
C50	C	1.665199	-0.187475	-0.003450
C51	C	1.165340	-1.015650	-0.503558
C52	C	1.665340	-0.515650	-0.003558
C53	C	1.165298	-0.924342	-0.503531
C54	C	1.665298	-0.424342	-0.003531
C55	C	1.165269	-0.851565	-0.503503
C56	C	1.665269	-0.351565	-0.003503
C57	C	1.165228	-0.760251	-0.503477
C58	C	1.665228	-0.260251	-0.003477
C59	C	1.375543	-0.388375	-0.503507
C60	C	1.875543	0.111625	-0.003507
C61	C	1.465164	-0.388380	-0.503520
C62	C	1.965164	0.111620	-0.003520
C63	C	1.165289	-0.388285	-0.776047
C64	C	1.665289	0.111715	-0.276047
C65	C	1.165313	-0.388252	-0.892201
C66	C	1.665313	0.111748	-0.392201
C67	C	1.165333	-0.178054	-0.503544
C68	C	1.665333	0.321946	-0.003544
C69	C	1.165375	-0.088433	-0.503572
C70	C	1.665375	0.411567	-0.003572
C71	C	1.214349	-0.339237	-0.944008
C72	C	1.714349	0.160763	-0.444008
C73	C	1.214374	-0.339202	-1.064058
C74	C	1.714374	0.160798	-0.564058
C75	C	1.165226	-0.388382	-0.231967
C76	C	1.665226	0.111618	0.268033
C77	C	1.165359	-0.388188	-0.115815
C78	C	1.665359	0.111812	0.384185
H79	H	1.256310	-0.297297	-0.899485
H80	H	1.756310	0.202703	-0.399485
C81	C	1.260100	-0.293473	-1.231480
C82	C	1.760100	0.206527	-0.731480
C83	C	1.271048	-0.282545	-1.124194
C84	C	1.771048	0.217455	-0.624194
H85	H	1.295086	-0.258489	-1.268604
H86	H	1.795086	0.241511	-0.768604
H87	H	1.271873	-0.347649	-1.249296
H88	H	1.771873	0.152351	-0.749296
H89	H	1.205918	-0.281680	-1.249300
H90	H	1.705918	0.218320	-0.749300
H91	H	1.325229	-0.294344	-1.106373
H92	H	1.825229	0.205656	-0.606373
H93	H	1.259281	-0.228357	-1.106371
H94	H	1.759281	0.271643	-0.606371
H95	H	1.123344	-0.430185	-0.936723
H96	H	1.623344	0.069815	-0.436723
H97	H	1.123378	-0.430156	-1.071268
H98	H	1.623378	0.069844	-0.571268
