data_functionalizedCrystal
_audit_creation_method	'MofGen! by Chris Wilmer'
_symmetry_space_group_name_H-M	'P1'
_symmetry_Int_Tables_number	1
_symmetry_cell_setting	triclinic
loop_
_symmetry_equiv_pos_as_xyz
  x,y,z
_cell_length_a	23.532355
_cell_length_b	23.532407
_cell_length_c	14.750779
_cell_angle_alpha	77.433997
_cell_angle_beta	102.563979
_cell_angle_gamma	82.838088
loop_
_atom_site_label
_atom_site_type_symbol
_atom_site_fract_x
_atom_site_fract_y
_atom_site_fract_z
O1	O	0.742864	0.081405	-0.079709
O2	O	0.576991	0.091444	-0.079741
O3	O	0.664932	0.003489	-0.079706
O4	O	0.654923	0.169360	-0.079744
O5	O	0.689792	-0.021373	0.079954
O6	O	0.601851	0.066582	0.079919
O7	O	0.767724	0.056543	0.079951
Zn8	Zn	0.688734	0.057616	0.105285
Zn9	Zn	0.655981	0.090371	-0.105075
O10	O	0.679783	0.144498	0.079916
C11	C	0.568204	0.078763	0.000085
C12	C	0.504984	0.078011	0.000074
C13	C	0.126527	0.059714	0.087146
C14	C	0.067128	0.058996	0.087150
O15	O	0.047934	0.047081	0.161165
N16	N	0.023869	0.072192	0.000119
C17	C	0.040011	0.086101	-0.086921
O18	O	-0.002238	0.097259	-0.160946
C19	C	0.099410	0.086815	-0.086923
C20	C	0.142666	0.073624	0.000113
C21	C	0.169783	0.046523	0.174175
C22	C	0.229177	0.047243	0.174170
C23	C	0.245316	0.061152	0.087137
C24	C	0.202061	0.074343	0.000108
C25	C	0.115552	0.100720	-0.173962
C26	C	0.174955	0.101432	-0.173958
C27	C	0.218212	0.088241	-0.086922
C28	C	0.277594	0.088972	-0.086929
N29	N	0.320854	0.075776	0.000101
C30	C	0.304715	0.061866	0.087134
C31	C	-0.084728	0.084600	-0.086908
C32	C	-0.144126	0.083891	-0.086906
C33	C	-0.117005	0.056784	0.087165
C34	C	-0.057606	0.057498	0.087162
C35	C	-0.041469	0.071404	0.000122
C36	C	0.429446	0.063378	0.087119
C37	C	0.488845	0.064101	0.087107
C38	C	0.461718	0.091204	-0.086963
C39	C	0.402325	0.090484	-0.086952
C40	C	0.386192	0.076568	0.000097
O41	O	0.296832	0.100880	-0.160907
O42	O	0.346971	0.050703	0.161148
C43	C	0.677108	-0.030158	0.000126
C44	C	0.676343	-0.093376	0.000133
C45	C	0.723571	-0.492482	0.000090
C46	C	0.722858	-0.551880	0.000082
O47	O	0.766641	-0.588629	0.000055
N48	N	0.670579	-0.574495	0.000073
C49	C	0.619008	-0.537706	0.000061
O50	O	0.574475	-0.562396	0.000052
C51	C	0.619720	-0.478308	0.000062
C52	C	0.672004	-0.455698	0.000081
C53	C	0.775850	-0.469871	0.000108
C54	C	0.776563	-0.410476	0.000117
C55	C	0.724996	-0.373692	0.000108
C56	C	0.672717	-0.396303	0.000090
C57	C	0.568148	-0.441519	0.000043
C58	C	0.568865	-0.382116	0.000043
C59	C	0.621149	-0.359506	0.000062
C60	C	0.621862	-0.300125	0.000090
N61	N	0.674141	-0.277510	0.000100
C62	C	0.725708	-0.314293	0.000109
C63	C	0.617516	-0.662448	0.000058
C64	C	0.616804	-0.721847	0.000065
C65	C	0.720655	-0.736017	0.000084
C66	C	0.721367	-0.676618	0.000084
C67	C	0.669795	-0.639833	0.000068
C68	C	0.727201	-0.189560	0.000129
C69	C	0.727910	-0.130160	0.000142
C70	C	0.624059	-0.115995	0.000118
C71	C	0.623351	-0.175390	0.000110
C72	C	0.674926	-0.212172	0.000112
O73	O	0.578102	-0.263341	0.000114
O74	O	0.770232	-0.289593	0.000106
C75	C	0.776511	0.069224	0.000123
C76	C	0.839730	0.069978	0.000128
C77	C	0.667607	0.178146	0.000082
C78	C	0.668371	0.241365	0.000068
N79	N	0.711092	0.035260	0.248849
N80	N	0.633627	0.112722	-0.248639
C81	C	0.571185	0.175132	0.600612
C82	C	0.586856	0.159470	0.701118
C83	C	0.664744	0.081615	0.701111
C84	C	0.649077	0.097268	0.600603
C85	C	0.602298	0.144027	0.550362
C86	C	0.680190	0.066163	0.550353
C87	C	0.664527	0.081817	0.449855
C88	C	0.617751	0.128575	0.399606
C89	C	0.586635	0.159681	0.449864
C90	C	0.726972	0.019406	0.600597
C91	C	0.758085	-0.011698	0.550346
C92	C	0.742419	0.003953	0.449846
C93	C	0.695643	0.050711	0.399598
C94	C	0.773535	-0.027153	0.399589
C95	C	0.757871	-0.011499	0.299090
C96	C	0.679979	0.066365	0.299099
H97	H	0.416318	0.052051	0.158002
H98	H	0.582075	-0.086036	0.000114
O99	O	0.525677	0.220480	0.551759
C100	C	0.481669	0.199215	0.493620
H101	H	0.485689	0.149587	0.523914
H102	H	0.487640	0.208001	0.417451
C103	C	0.415165	0.292114	0.454874
C104	C	0.420099	0.231160	0.492087
H105	H	0.377185	0.311820	0.453923
H106	H	0.444814	0.306442	0.494040
H107	H	0.420144	0.299427	0.391403
H108	H	0.415127	0.223847	0.555560
H109	H	0.390447	0.216832	0.452931
O110	O	0.541251	0.205140	0.400943
C111	C	0.562489	0.249179	0.342816
H112	H	0.604839	0.228610	0.327761
H113	H	0.572147	0.285223	0.381535
C114	C	0.463422	0.301645	0.265842
C115	C	0.515434	0.276380	0.247345
H116	H	0.434396	0.318427	0.206953
H117	H	0.449113	0.271977	0.305005
H118	H	0.471478	0.331679	0.298110
H119	H	0.507379	0.246343	0.215088
H120	H	0.529741	0.306045	0.208174
O121	O	0.770688	-0.771827	0.000038
C122	C	0.758845	-0.829103	0.000052
H123	H	0.709414	-0.826409	-0.030177
H124	H	0.773033	-0.858233	0.076646
C125	C	0.854225	-0.859266	-0.025439
C126	C	0.793515	-0.855957	-0.062574
H127	H	0.875613	-0.875833	-0.064065
H128	H	0.862206	-0.820679	-0.025444
H129	H	0.866041	-0.883540	0.038389
H130	H	0.781699	-0.831678	-0.126396
H131	H	0.785533	-0.894541	-0.062580
H132	H	0.783208	-0.036827	0.258176
O133	O	0.825965	-0.505520	-0.000008
C134	C	0.844846	-0.482438	-0.082699
H135	H	0.826296	-0.433003	-0.110276
H136	H	0.828244	-0.505871	-0.140601
C137	C	0.935740	-0.553066	-0.023687
C138	C	0.912960	-0.492348	-0.057552
H139	H	0.977756	-0.559181	-0.008178
H140	H	0.923019	-0.568619	0.032022
H141	H	0.921899	-0.572586	-0.071944
H142	H	0.926795	-0.472830	-0.009291
H143	H	0.925685	-0.476792	-0.113253
O144	O	-0.132589	0.043280	0.171798
C145	C	-0.081674	0.031770	0.248622
H146	H	-0.045767	0.054288	0.223113
H147	H	-0.064949	-0.018019	0.275389
C148	C	-0.141256	0.028380	0.362172
C149	C	-0.097156	0.056041	0.330844
H150	H	-0.150805	0.043349	0.412893
H151	H	-0.175558	0.036132	0.310415
H152	H	-0.127312	-0.013109	0.384471
H153	H	-0.111102	0.097529	0.308534
H154	H	-0.062856	0.048297	0.382599
O155	O	0.556623	0.189590	0.750041
C156	C	0.530713	0.150219	0.808166
H157	H	0.555995	0.103189	0.823217
H158	H	0.482610	0.152604	0.769447
C159	C	0.502188	0.225285	0.885146
C160	C	0.533243	0.167522	0.903639
H161	H	0.503746	0.235959	0.944036
H162	H	0.519642	0.251811	0.845984
H163	H	0.462105	0.227265	0.852878
H164	H	0.573327	0.165544	0.935895
H165	H	0.515796	0.140995	0.942809
O166	O	0.634471	0.111714	0.250245
C167	C	0.590464	0.090449	0.192107
H168	H	0.594483	0.040820	0.222401
H169	H	0.596434	0.099235	0.115938
C170	C	0.523959	0.183348	0.153361
C171	C	0.528893	0.122393	0.190573
H172	H	0.485979	0.203054	0.152410
H173	H	0.553608	0.197675	0.192527
H174	H	0.528938	0.190661	0.089890
H175	H	0.523921	0.115081	0.254046
H176	H	0.499241	0.108065	0.151418
O177	O	0.190587	0.115049	-0.258535
C178	C	0.161072	0.172445	-0.311502
H179	H	0.147969	0.198798	-0.260584
H180	H	0.119663	0.169323	-0.365763
C181	C	0.218565	0.171390	-0.427385
C182	C	0.202475	0.203760	-0.364846
H183	H	0.244102	0.190707	-0.460294
H184	H	0.238448	0.132721	-0.391702
H185	H	0.184053	0.168791	-0.472593
H186	H	0.236986	0.206352	-0.319632
H187	H	0.182598	0.242430	-0.400522
H188	H	0.811627	-0.065221	0.440508
O189	O	0.360379	0.103297	-0.171582
C190	C	0.387361	0.115750	-0.248399
H191	H	0.436140	0.094255	-0.222884
H192	H	0.383268	0.165692	-0.275162
C193	C	0.296561	0.117325	-0.361964
C194	C	0.356471	0.090920	-0.330627
H195	H	0.277506	0.102012	-0.412688
H196	H	0.278382	0.108938	-0.310211
H197	H	0.293159	0.158942	-0.384260
H198	H	0.359873	0.049306	-0.308321
H199	H	0.374651	0.099300	-0.382378
O200	O	0.154210	0.033026	0.258812
C201	C	0.205137	0.021523	0.335612
H202	H	0.241037	0.044038	0.310072
H203	H	0.221863	-0.028266	0.362389
C204	C	0.145585	0.018149	0.449204
C205	C	0.189677	0.045806	0.417837
H206	H	0.136049	0.033124	0.499927
H207	H	0.111275	0.025896	0.397463
H208	H	0.159530	-0.023340	0.471511
H209	H	0.175729	0.087293	0.395520
H210	H	0.223985	0.038066	0.469576
H211	H	0.739725	0.006665	0.682429
O212	O	-0.186100	0.096798	-0.171514
C213	C	-0.186578	0.154556	-0.224460
H214	H	-0.141843	0.167670	-0.199709
H215	H	-0.222849	0.186818	-0.212407
C216	C	-0.253479	0.140245	-0.362408
C217	C	-0.198533	0.156350	-0.332014
H218	H	-0.260855	0.141353	-0.428753
H219	H	-0.253159	0.101333	-0.326737
H220	H	-0.283698	0.167133	-0.352356
H221	H	-0.168314	0.129458	-0.342055
H222	H	-0.198848	0.195257	-0.367690
H223	H	0.264393	0.036498	0.245044
O224	O	0.827361	-0.388513	0.000292
C225	C	0.843758	-0.367447	0.082968
H226	H	0.823080	-0.390326	0.140764
H227	H	0.827442	-0.317612	0.064271
C228	C	0.937040	-0.352748	0.049476
C229	C	0.911647	-0.380852	0.120465
H230	H	0.978917	-0.361014	0.072605
H231	H	0.925993	-0.366938	-0.006226
H232	H	0.923437	-0.311221	0.033902
H233	H	0.925244	-0.422378	0.136029
H234	H	0.922698	-0.366669	0.176171
O235	O	0.530793	0.051244	0.171744
C236	C	0.503804	0.038826	0.248559
H237	H	0.459952	0.024254	0.223045
H238	H	0.495414	0.080280	0.275310
C239	C	0.598756	0.006843	0.362132
C240	C	0.544898	-0.011059	0.330798
H241	H	0.624104	-0.023926	0.412863
H242	H	0.616939	0.015212	0.310381
H243	H	0.591755	0.041389	0.384418
H244	H	0.551898	-0.045599	0.308501
H245	H	0.526716	-0.019435	0.382547
H246	H	-0.071596	0.095930	-0.157790
O247	O	0.517399	-0.463526	0.000184
C248	C	0.526742	-0.510355	0.082852
H249	H	0.565419	-0.505490	0.140668
H250	H	0.537235	-0.554363	0.064155
C251	C	0.423022	-0.514604	0.049301
C252	C	0.470522	-0.508627	0.120314
H253	H	0.388343	-0.513541	0.072408
H254	H	0.416727	-0.483057	-0.006396
H255	H	0.431774	-0.551278	0.033727
H256	H	0.461772	-0.471951	0.135879
H257	H	0.476814	-0.540169	0.176015
O258	O	0.073508	0.113627	-0.258487
C259	C	0.031588	0.163350	-0.263723
H260	H	0.052463	0.190362	-0.214345
H261	H	-0.008269	0.148015	-0.240352
C262	C	-0.014202	0.168714	-0.428363
C263	C	0.011439	0.201893	-0.367722
H264	H	-0.026633	0.192488	-0.492514
H265	H	0.014039	0.135213	-0.424835
H266	H	-0.047413	0.155937	-0.408876
H267	H	0.044653	0.214663	-0.387202
H268	H	-0.016797	0.235397	-0.371255
O269	O	0.778744	-0.108286	0.000114
C270	C	0.824107	-0.153497	0.000140
H271	H	0.803666	-0.189049	-0.030095
H272	H	0.851923	-0.173931	0.076739
C273	C	0.888798	-0.083591	-0.025326
C274	C	0.863693	-0.127254	-0.062469
H275	H	0.913219	-0.067404	-0.063942
H276	H	0.858238	-0.053132	-0.025340
H277	H	0.911975	-0.100626	0.038506
H278	H	0.840512	-0.110218	-0.126295
H279	H	0.894251	-0.157710	-0.062467
H280	H	0.474870	0.102531	-0.157823
H281	H	0.769198	-0.219501	0.000127
H282	H	0.702833	0.043544	0.742029
H283	H	0.763941	-0.658213	0.000099
H284	H	0.605000	0.141322	0.317774
H285	H	0.574232	-0.740253	0.000066
H286	H	-0.022390	0.046757	0.158034
H287	H	0.575519	-0.632502	0.000053
H288	H	0.526867	-0.352168	0.000028
O289	O	0.803492	-0.057121	0.599303
C290	C	0.810657	-0.064258	0.698782
H291	H	0.767400	-0.044869	0.712517
H292	H	0.847174	-0.040306	0.727288
C293	C	0.880717	-0.154415	0.733516
C294	C	0.827586	-0.130606	0.750386
H295	H	0.891162	-0.195341	0.765349
H296	H	0.875891	-0.149606	0.666495
H297	H	0.911141	-0.134449	0.757271
H298	H	0.797161	-0.150567	0.726620
H299	H	0.832407	-0.135420	0.817404
H300	H	0.580781	-0.193804	0.000121
