data_functionalizedCrystal
_audit_creation_method	'MofGen! by Chris Wilmer'
_symmetry_space_group_name_H-M	'P1'
_symmetry_Int_Tables_number	1
_symmetry_cell_setting	triclinic
loop_
_symmetry_equiv_pos_as_xyz
  x,y,z
_cell_length_a	19.077105
_cell_length_b	19.120786
_cell_length_c	19.076919
_cell_angle_alpha	90.269320
_cell_angle_beta	89.923776
_cell_angle_gamma	90.063747
loop_
_atom_site_label
_atom_site_type_symbol
_atom_site_fract_x
_atom_site_fract_y
_atom_site_fract_z
Zn1	Zn	1.044393	-0.338642	0.425365
Zn2	Zn	1.544393	0.161358	0.925365
Zn3	Zn	1.044421	-0.451190	0.302856
Zn4	Zn	1.544421	0.048810	0.802856
Zn5	Zn	0.931995	-0.329265	0.303575
Zn6	Zn	1.431995	0.170735	0.803575
Zn7	Zn	0.922260	-0.450768	0.415627
Zn8	Zn	1.422260	0.049232	0.915627
O9	O	0.985768	-0.392466	0.361856
O10	O	1.485768	0.107534	0.861856
O11	O	1.142561	-0.357673	0.412888
O12	O	1.642561	0.142327	0.912888
O13	O	1.033594	-0.431269	0.204786
O14	O	1.533594	0.068731	0.704786
O15	O	0.950968	-0.232557	0.324108
O16	O	1.450968	0.267443	0.824108
O17	O	1.142581	-0.440361	0.322881
O18	O	1.642581	0.059639	0.822881
O19	O	1.033546	-0.239446	0.413586
O20	O	1.533546	0.260554	0.913586
O21	O	0.950995	-0.341691	0.205315
O22	O	1.450995	0.158309	0.705315
O23	O	0.832540	-0.341281	0.314665
O24	O	1.332540	0.158719	0.814665
O25	O	0.934376	-0.439642	0.515084
O26	O	1.434376	0.060358	1.015084
O27	O	0.825388	-0.430549	0.396989
O28	O	1.325388	0.069451	0.896989
O29	O	1.024106	-0.357263	0.522238
O30	O	1.524106	0.142737	1.022238
O31	O	1.024154	-0.549086	0.313438
O32	O	1.524154	-0.049086	0.813438
O33	O	0.934403	-0.548776	0.396291
O34	O	1.434403	-0.048776	0.896291
C35	C	0.803511	-0.384853	0.354849
C36	C	1.303511	0.115147	0.854849
C37	C	0.725540	-0.381613	0.351867
C38	C	1.225540	0.118387	0.851867
C39	C	0.685204	-0.426633	0.393254
C40	C	1.185204	0.073367	0.893254
C41	C	0.611941	-0.423580	0.390456
C42	C	1.111941	0.076420	0.890456
C43	C	0.579017	-0.375510	0.346267
C44	C	1.079017	0.124490	0.846267
C45	C	0.619359	-0.330485	0.304878
C46	C	1.119359	0.169515	0.804878
C47	C	0.692620	-0.333535	0.307680
C48	C	1.192620	0.166465	0.807680
C49	C	0.360308	-0.361393	0.333302
C50	C	0.860308	0.138607	0.833302
C51	C	0.287042	-0.358348	0.330501
C52	C	0.787042	0.141652	0.830501
C53	C	0.279630	-0.451442	0.416081
C54	C	0.779630	0.048558	0.916081
C55	C	0.352892	-0.454491	0.418876
C56	C	0.852892	0.045509	0.918876
C57	C	0.393228	-0.409464	0.377490
C58	C	0.893228	0.090536	0.877490
N59	N	0.504131	-0.372389	0.343404
N60	N	1.004131	0.127611	0.843404
N61	N	0.468112	-0.412581	0.380357
N62	N	0.968112	0.087419	0.880357
C63	C	0.978243	-0.574330	0.353746
C64	C	1.478243	-0.074330	0.853746
C65	C	0.975088	-0.652136	0.350302
C66	C	1.475088	-0.152136	0.850302
C67	C	1.016564	-0.692215	0.395306
C68	C	1.516564	-0.192215	0.895306
C69	C	1.013596	-0.765322	0.392072
C70	C	1.513596	-0.265322	0.892072
C71	C	0.969155	-0.798347	0.343829
C72	C	1.469155	-0.298347	0.843829
C73	C	0.927673	-0.758262	0.298823
C74	C	1.427673	-0.258262	0.798823
C75	C	0.930638	-0.685157	0.302062
C76	C	1.430638	-0.185157	0.802062
C77	C	0.958050	-1.018902	0.331722
C78	C	1.458050	-0.518902	0.831722
C79	C	0.955090	-1.092012	0.328486
C80	C	1.455090	-0.592012	0.828486
C81	C	1.041012	-1.099067	0.421736
C82	C	1.541012	-0.599067	0.921736
C83	C	1.043976	-1.025960	0.424967
C84	C	1.543976	-0.525960	0.924967
C85	C	1.002492	-0.985881	0.379963
C86	C	1.502492	-0.485881	0.879963
C87	C	0.966121	-0.873074	0.340521
C88	C	1.466121	-0.373074	0.840521
C89	C	1.005522	-0.911156	0.383276
C90	C	1.505522	-0.411156	0.883276
C91	C	1.168736	-0.400110	0.368891
C92	C	1.668736	0.099890	0.868891
C93	C	1.246706	-0.403367	0.371889
C94	C	1.746706	0.096633	0.871889
C95	C	0.978152	-0.399452	0.544826
C96	C	1.478152	0.100548	1.044826
C97	C	0.974907	-0.402428	0.622796
C98	C	1.474907	0.097572	1.122796
C99	C	0.993340	-0.209894	0.370014
C100	C	1.493340	0.290106	0.870014
C101	C	0.996567	-0.132092	0.373490
C102	C	1.496567	0.367908	0.873490
C103	C	0.993396	-0.385459	0.179602
C104	C	1.493396	0.114541	0.679602
C105	C	0.996785	-0.382291	0.101645
C106	C	1.496785	0.117709	0.601645
C107	C	1.020097	-0.360938	0.663153
C108	C	1.520097	0.139062	1.163153
C109	C	1.017040	-0.363732	0.736415
C110	C	1.517040	0.136268	1.236415
C111	C	0.968794	-0.408020	0.769318
C112	C	1.468794	0.091980	1.269318
C113	C	0.923598	-0.449512	0.728956
C114	C	1.423598	0.050488	1.228956
C115	C	0.926653	-0.446714	0.655696
C116	C	1.426653	0.053286	1.155696
C117	C	0.954645	-0.420984	0.988023
C118	C	1.454645	0.079016	1.488023
C119	C	0.951595	-0.423781	1.061289
C120	C	1.451595	0.076219	1.561289
C121	C	1.045036	-0.338000	1.068742
C122	C	1.545036	0.162000	1.568742
C123	C	1.048089	-0.335209	0.995480
C124	C	1.548089	0.164791	1.495480
C125	C	1.002891	-0.376698	0.955125
C126	C	1.502891	0.123302	1.455125
N127	N	0.965669	-0.410879	0.844203
N128	N	1.465669	0.089121	1.344203
N129	N	1.006013	-0.373835	0.880241
N130	N	1.506013	0.126165	1.380241
H131	H	0.246781	-0.488100	0.449776
H132	H	0.746781	0.011900	0.949776
C133	C	0.583147	-0.277606	0.256271
C134	C	1.083147	0.222394	0.756271
H135	H	0.617665	-0.251226	0.232029
H136	H	1.117665	0.248774	0.732029
H137	H	0.554731	-0.301974	0.223377
H138	H	1.054731	0.198026	0.723377
H139	H	0.554715	-0.246984	0.283426
H140	H	1.054715	0.253016	0.783426
H141	H	0.889847	-0.480492	0.622838
H142	H	1.389847	0.019508	1.122838
C143	C	0.878791	-0.794588	0.245756
C144	C	1.378791	-0.294588	0.745756
H145	H	0.882970	-0.843868	0.250267
H146	H	1.382970	-0.343868	0.750267
H147	H	0.831708	-0.781071	0.254698
H148	H	1.331708	-0.281071	0.754698
H149	H	0.891549	-0.781243	0.199557
H150	H	1.391549	-0.281243	0.699557
C151	C	0.736990	-0.284012	0.262156
C152	C	1.236990	0.215988	0.762156
H153	H	0.706890	-0.254950	0.235433
H154	H	1.206890	0.245050	0.735433
H155	H	0.765713	-0.255773	0.291494
H156	H	1.265713	0.244227	0.791494
H157	H	0.765733	-0.310763	0.231444
H158	H	1.265733	0.189237	0.731444
C159	C	0.250823	-0.305475	0.281886
C160	C	0.750823	0.194525	0.781886
H161	H	0.201415	-0.310117	0.286138
H162	H	0.701415	0.189883	0.786138
H163	H	0.264336	-0.259351	0.294779
H164	H	0.764336	0.240649	0.794779
H165	H	0.264366	-0.314354	0.234741
H166	H	0.764366	0.185646	0.734741
H167	H	1.052756	-0.665331	0.434587
H168	H	1.552756	-0.165331	0.934587
H169	H	1.047376	-0.797952	0.428714
H170	H	1.547376	-0.297952	0.928714
C171	C	0.870530	-0.498228	0.765148
C172	C	1.370530	0.001772	1.265148
H173	H	0.875187	-0.493959	0.814559
H174	H	1.375187	0.006041	1.314559
H175	H	0.824322	-0.485558	0.751785
H176	H	1.324322	0.014442	1.251785
H177	H	0.879351	-0.545231	0.751433
H178	H	1.379351	-0.045231	1.251433
C179	C	0.404668	-0.311877	0.287766
C180	C	0.904668	0.188123	0.787766
H181	H	0.374565	-0.282820	0.261041
H182	H	0.874565	0.217180	0.761041
H183	H	0.433397	-0.283631	0.317093
H184	H	0.933397	0.216369	0.817093
H185	H	0.433405	-0.338636	0.257057
H186	H	0.933405	0.161364	0.757057
H187	H	1.059387	-0.324877	0.636369
H188	H	1.559387	0.175123	1.136369
C189	C	1.092873	-0.989637	0.478023
C190	C	1.592873	-0.489637	0.978023
H191	H	1.117151	-1.023978	0.504363
H192	H	1.617151	-0.523978	1.004363
H193	H	1.125727	-0.961360	0.453640
H194	H	1.625727	-0.461360	0.953640
H195	H	1.065907	-0.961171	0.508803
H196	H	1.565907	-0.461171	1.008803
C197	C	1.086633	-1.143154	0.471241
C198	C	1.586633	-0.643154	0.971241
H199	H	1.078500	-1.191423	0.462409
H200	H	1.578500	-0.691423	0.962409
H201	H	1.134688	-1.132712	0.463361
H202	H	1.634688	-0.632712	0.963361
H203	H	1.074846	-1.132533	0.518501
H204	H	1.574846	-0.632533	1.018501
C205	C	0.906197	-1.128339	0.275422
C206	C	1.406197	-0.628339	0.775422
H207	H	0.881909	-1.094000	0.249088
H208	H	1.381909	-0.594000	0.749088
H209	H	0.933168	-1.156799	0.244647
H210	H	1.433168	-0.656799	0.744647
H211	H	0.873340	-1.156622	0.299802
H212	H	1.373340	-0.656622	0.799802
C213	C	0.912430	-0.974824	0.282212
C214	C	1.412430	-0.474824	0.782212
H215	H	0.885546	-1.004966	0.253011
H216	H	1.385546	-0.504966	0.753011
H217	H	0.881880	-0.946069	0.309100
H218	H	1.381880	-0.446069	0.809100
H219	H	0.941724	-0.946251	0.253963
H220	H	1.441724	-0.446251	0.753963
H221	H	1.081832	-0.304222	1.101608
H222	H	1.581832	0.195778	1.601608
C223	C	0.885015	-0.641069	0.252557
C224	C	1.385015	-0.141069	0.752557
H225	H	0.858127	-0.671207	0.223357
H226	H	1.358127	-0.171207	0.723357
H227	H	0.854470	-0.612316	0.279454
H228	H	1.354470	-0.112316	0.779454
H229	H	0.914305	-0.612493	0.224307
H230	H	1.414305	-0.112493	0.724307
C231	C	0.389104	-0.507364	0.467489
C232	C	0.889104	-0.007364	0.967489
H233	H	0.354588	-0.533735	0.491742
H234	H	0.854588	-0.033735	0.991742
H235	H	0.417539	-0.537984	0.440341
H236	H	0.917539	-0.037984	0.940341
H237	H	0.417518	-0.482987	0.500385
H238	H	0.917518	0.017013	1.000385
H239	H	1.041704	-0.884265	0.422558
H240	H	1.541704	-0.384265	0.922558
C241	C	0.904915	-0.466605	0.943641
C242	C	1.404915	0.033395	1.443641
H243	H	0.875745	-0.493380	0.973732
H244	H	1.375745	0.006620	1.473732
H245	H	0.876657	-0.437445	0.915093
H246	H	1.376657	0.062555	1.415093
H247	H	0.931660	-0.497142	0.914722
H248	H	1.431660	0.002858	1.414722
C249	C	1.066753	-0.318097	0.780804
C250	C	1.566753	0.181903	1.280804
H251	H	1.095930	-0.291327	0.750716
H252	H	1.595930	0.208673	1.250716
H253	H	1.039997	-0.287566	0.809713
H254	H	1.539997	0.212434	1.309713
H255	H	1.095015	-0.347248	0.809363
H256	H	1.595015	0.152752	1.309363
H257	H	0.929939	-0.899972	0.301240
H258	H	1.429939	-0.399972	0.801240
H259	H	0.912305	-0.459847	1.088076
H260	H	1.412305	0.040153	1.588076
C261	C	0.721414	-0.479509	0.441864
C262	C	1.221414	0.020491	0.941864
H263	H	0.686896	-0.505879	0.466117
H264	H	1.186896	-0.005879	0.966117
H265	H	0.749848	-0.510131	0.414718
H266	H	1.249848	-0.010131	0.914718
H267	H	0.749829	-0.455134	0.474761
H268	H	1.249829	0.044866	0.974761
C269	C	0.567574	-0.473143	0.435937
C270	C	1.067574	0.026857	0.935937
H271	H	0.597675	-0.502226	0.462636
H272	H	1.097675	-0.002226	0.962636
H273	H	0.538810	-0.446434	0.466659
H274	H	1.038810	0.053566	0.966659
H275	H	0.538873	-0.501369	0.406559
H276	H	1.038873	-0.001369	0.906559
C277	C	1.101160	-0.286493	0.959292
C278	C	1.601160	0.213507	1.459292
H279	H	1.127634	-0.262179	0.993820
H280	H	1.627634	0.237821	1.493820
H281	H	1.131803	-0.313457	0.930694
H282	H	1.631803	0.186543	1.430694
H283	H	1.076781	-0.253778	0.931042
H284	H	1.576781	0.246222	1.431042
