data_functionalizedCrystal
_audit_creation_method	'MofGen! by Chris Wilmer'
_symmetry_space_group_name_H-M	'P1'
_symmetry_Int_Tables_number	1
_symmetry_cell_setting	triclinic
loop_
_symmetry_equiv_pos_as_xyz
  x,y,z
_cell_length_a	13.033409
_cell_length_b	29.839133
_cell_length_c	13.032268
_cell_angle_alpha	97.152246
_cell_angle_beta	105.162573
_cell_angle_gamma	82.859558
loop_
_atom_site_label
_atom_site_type_symbol
_atom_site_fract_x
_atom_site_fract_y
_atom_site_fract_z
Zn1	Zn	1.547296	-0.284738	-0.394003
Zn2	Zn	1.569714	-0.351401	-0.216425
Zn3	Zn	1.392257	-0.267840	-0.239006
Zn4	Zn	1.369632	-0.351384	-0.416576
O5	O	1.469725	-0.313840	-0.316503
O6	O	1.698889	-0.300659	-0.351550
O7	O	1.565025	-0.333251	-0.070790
O8	O	1.412910	-0.207219	-0.259569
O9	O	1.715360	-0.349636	-0.221084
O10	O	1.526816	-0.219634	-0.373445
O11	O	1.434648	-0.271860	-0.087380
O12	O	1.240636	-0.271843	-0.281458
O13	O	1.374348	-0.349608	-0.562213
O14	O	1.224014	-0.333223	-0.411918
O15	O	1.504877	-0.300643	-0.545628
O16	O	1.543087	-0.414261	-0.242973
O17	O	1.396087	-0.414248	-0.390023
C18	C	1.193789	-0.300698	-0.351589
C19	C	1.075740	-0.295088	-0.366624
C20	C	0.909258	-0.310974	-0.324216
C21	C	1.031269	-0.316774	-0.308671
C22	C	1.469590	-0.430556	-0.316517
C23	C	1.469625	-0.480494	-0.316546
C24	C	1.529065	-0.843520	-0.375871
C25	C	1.528964	-0.655842	-0.375882
O26	O	1.579367	-0.637044	-0.426324
N27	N	1.469710	-0.625943	-0.316533
C28	C	1.410481	-0.642967	-0.257171
O29	O	1.360088	-0.613230	-0.206682
C30	C	1.410588	-0.830644	-0.257154
C31	C	1.469838	-0.860540	-0.316516
C32	C	1.588311	-0.873415	-0.435227
C33	C	1.588331	-0.920332	-0.435228
C34	C	1.529105	-0.937353	-0.375873
C35	C	1.469858	-0.907457	-0.316517
C36	C	1.351367	-0.847667	-0.197786
C37	C	1.351401	-0.894590	-0.197785
C38	C	1.410651	-0.924486	-0.257147
C39	C	1.410652	-0.971394	-0.257163
N40	N	1.469907	-1.001293	-0.316512
C41	C	1.529133	-0.984272	-0.375867
C42	C	1.410427	-0.544434	-0.257185
C43	C	1.410399	-0.497515	-0.257191
C44	C	1.528884	-0.510393	-0.375901
C45	C	1.528906	-0.557313	-0.375901
C46	C	1.469682	-0.574333	-0.316535
C47	C	1.529170	-1.082800	-0.375866
C48	C	1.529181	-1.129720	-0.375865
C49	C	1.410700	-1.116838	-0.257151
C50	C	1.410684	-1.069922	-0.257156
C51	C	1.469927	-1.052904	-0.316516
O52	O	1.360286	-0.990224	-0.206738
O53	O	1.579538	-1.014016	-0.426330
C54	C	1.529045	-0.796603	-0.375870
C55	C	1.469799	-0.766707	-0.316513
C56	C	1.410572	-0.783728	-0.257158
C57	C	1.469770	-0.719788	-0.316519
C58	C	1.528997	-0.702767	-0.375874
C59	C	1.588251	-0.732666	-0.435224
C60	C	1.588271	-0.779582	-0.435225
C61	C	1.351317	-0.753830	-0.197809
C62	C	1.351301	-0.706914	-0.197814
C63	C	1.410528	-0.689893	-0.257169
C64	C	1.746737	-0.327035	-0.281280
C65	C	1.864784	-0.332657	-0.266271
C66	C	1.434588	-0.327009	-0.593536
C67	C	1.419615	-0.332620	-0.711592
C68	C	1.469886	-0.196671	-0.316508
C69	C	1.469954	-0.146741	-0.316510
C70	C	1.477523	-0.310895	-0.756019
C71	C	1.462049	-0.316694	-0.878035
C72	C	1.504786	-0.300694	-0.040539
C73	C	1.519965	-0.294966	0.077542
H74	H	1.577427	-1.154060	-0.424212
H75	H	1.303174	-0.908444	-0.149440
C76	C	1.363451	-0.407844	-0.752520
C77	C	1.337219	-0.363527	-0.782174
H78	H	1.312577	-0.426924	-0.796089
H79	H	1.432506	-0.418668	-0.761582
H80	H	1.363041	-0.407995	-0.679781
H81	H	1.337637	-0.363376	-0.854912
H82	H	1.268145	-0.352700	-0.773122
C83	C	0.905658	-0.407841	-0.209908
C84	C	0.935313	-0.363517	-0.183765
H85	H	0.949204	-0.426893	-0.158974
H86	H	0.832928	-0.407988	-0.209521
H87	H	0.914750	-0.418703	-0.278954
H88	H	0.926213	-0.352653	-0.114721
H89	H	1.008061	-0.363368	-0.184140
H90	H	1.577147	-0.581652	-0.424244
H91	H	1.580996	-0.272069	-0.870167
H92	H	1.083517	-0.339636	-0.247555
C93	C	1.508092	-0.245282	-0.629261
C94	C	1.559921	-0.279991	-0.685426
H95	H	1.558967	-0.226206	-0.585676
H96	H	1.456409	-0.227937	-0.678416
H97	H	1.473767	-0.258166	-0.585584
H98	H	1.594240	-0.267108	-0.729108
H99	H	1.611623	-0.297339	-0.636265
H100	H	1.577412	-1.068950	-0.424201
C101	C	0.766305	-0.305727	-0.482896
C102	C	0.838726	-0.280116	-0.406724
H103	H	0.722760	-0.286674	-0.533829
H104	H	0.804427	-0.329291	-0.517973
H105	H	0.722601	-0.318578	-0.448543
H106	H	0.882436	-0.267267	-0.441076
H107	H	0.800602	-0.256543	-0.371643
H108	H	1.023492	-0.272229	-0.427748
H109	H	1.636588	-0.944670	-0.483558
H110	H	1.636545	-0.859562	-0.483560
H111	H	1.362139	-0.473176	-0.208866
C112	C	1.581453	-0.444182	-0.428597
C113	C	1.593995	-0.491678	-0.441139
H114	H	1.621658	-0.432628	-0.468860
H115	H	1.508122	-0.433860	-0.453166
H116	H	1.606092	-0.433849	-0.355256
H117	H	1.569349	-0.502011	-0.514478
H118	H	1.667342	-0.502005	-0.416574
C119	C	1.354764	-0.646677	-0.056782
C120	C	1.286167	-0.674053	-0.132559
H121	H	1.314557	-0.626390	-0.016498
H122	H	1.406220	-0.665246	-0.010319
H123	H	1.390024	-0.629824	-0.092142
H124	H	1.250913	-0.690909	-0.097198
H125	H	1.234692	-0.655482	-0.179028
H126	H	1.303121	-0.823331	-0.149448
H127	H	1.401005	-0.339585	-0.930329
H128	H	1.362198	-0.558286	-0.208840
H129	H	1.362425	-1.045579	-0.208830
H130	H	1.636472	-0.718800	-0.483557
H131	H	1.362477	-1.130705	-0.208829
C132	C	1.705387	-0.787583	-0.552556
C133	C	1.653410	-0.812440	-0.500470
H134	H	1.745608	-0.807868	-0.592831
H135	H	1.653918	-0.769023	-0.599029
H136	H	1.751898	-0.769008	-0.501129
H137	H	1.606892	-0.831014	-0.551898
H138	H	1.704885	-0.831009	-0.453994
C139	C	1.234192	-0.736379	-0.080485
C140	C	1.286202	-0.772534	-0.132568
H141	H	1.193981	-0.747926	-0.040215
H142	H	1.285641	-0.718345	-0.034008
H143	H	1.187667	-0.718350	-0.131914
H144	H	1.332733	-0.790561	-0.081139
H145	H	1.234746	-0.790576	-0.179049
