data_functionalizedCrystal
_audit_creation_method	'MofGen! by Chris Wilmer'
_symmetry_space_group_name_H-M	'P1'
_symmetry_Int_Tables_number	1
_symmetry_cell_setting	triclinic
loop_
_symmetry_equiv_pos_as_xyz
  x,y,z
_cell_length_a	11.792241
_cell_length_b	13.596369
_cell_length_c	11.792241
_cell_angle_alpha	89.999475
_cell_angle_beta	95.806584
_cell_angle_gamma	90.001745
loop_
_atom_site_label
_atom_site_type_symbol
_atom_site_fract_x
_atom_site_fract_y
_atom_site_fract_z
O1	O	1.506912	0.081696	-0.155560
O2	O	2.006912	0.581696	0.344440
O3	O	1.176571	0.081719	-0.171593
O4	O	1.676571	0.581719	0.328407
O5	O	1.349758	0.081700	0.001594
O6	O	1.849758	0.581700	0.501594
O7	O	1.333725	0.081715	-0.328747
O8	O	1.833725	0.581715	0.171253
O9	O	1.349736	-0.081883	0.001584
O10	O	1.849736	0.418117	0.501584
O11	O	1.176549	-0.081864	-0.171603
O12	O	1.676549	0.418136	0.328397
O13	O	1.506890	-0.081887	-0.155570
O14	O	2.006890	0.418113	0.344430
Zn15	Zn	1.341717	-0.107847	-0.163588
Zn16	Zn	1.841717	0.392153	0.336412
Zn17	Zn	1.341745	0.107680	-0.163575
Zn18	Zn	1.841745	0.607680	0.336425
O19	O	1.333704	-0.081868	-0.328757
O20	O	1.833704	0.418132	0.171243
C21	C	1.134269	-0.000069	-0.170591
C22	C	1.634269	0.499931	0.329409
C23	C	1.008255	-0.000061	-0.167576
C24	C	1.508255	0.499939	0.332424
C25	C	0.777543	-0.000089	-0.162034
C26	C	1.277543	0.499911	0.337966
C27	C	0.905928	-0.000074	-0.165113
C28	C	1.405928	0.499926	0.334887
N29	N	1.341706	-0.254939	-0.163596
N30	N	1.841706	0.245061	0.336404
C31	C	1.341711	-0.343937	-0.163598
C32	C	1.841711	0.156063	0.336402
C33	C	1.341722	-0.455589	-0.163591
C34	C	1.841722	0.044411	0.336409
C35	C	1.341737	-0.544579	-0.163578
C36	C	1.841737	-0.044579	0.336422
C37	C	1.341750	-0.656238	-0.163571
C38	C	1.841750	-0.156238	0.336429
C39	C	1.549192	-0.000096	-0.156572
C40	C	2.049192	0.499904	0.343428
C41	C	1.675206	-0.000098	-0.159587
C42	C	2.175206	0.499902	0.340413
C43	C	1.348740	-0.000091	0.043880
C44	C	1.848740	0.499909	0.543880
C45	C	1.345726	-0.000090	0.169894
C46	C	1.845726	0.499910	0.669894
N47	N	1.341765	0.254772	-0.163558
N48	N	1.841765	0.754772	0.336442
C49	C	1.334721	-0.000074	-0.371043
C50	C	1.834721	0.499926	0.128957
C51	C	1.337736	-0.000069	-0.497057
C52	C	1.837736	0.499931	0.002943
C53	C	1.340183	-0.000073	0.400606
C54	C	1.840183	0.499927	0.900606
C55	C	1.343262	-0.000082	0.272221
C56	C	1.843262	0.499918	0.772221
