data_functionalizedCrystal
_audit_creation_method	'MofGen! by Chris Wilmer'
_symmetry_space_group_name_H-M	'P1'
_symmetry_Int_Tables_number	1
_symmetry_cell_setting	triclinic
loop_
_symmetry_equiv_pos_as_xyz
  x,y,z
_cell_length_a	10.489763
_cell_length_b	14.044190
_cell_length_c	8.965430
_cell_angle_alpha	90.012822
_cell_angle_beta	90.006251
_cell_angle_gamma	91.129931
loop_
_atom_site_label
_atom_site_type_symbol
_atom_site_fract_x
_atom_site_fract_y
_atom_site_fract_z
O1	O	-1.707610	0.133943	0.123993
O2	O	-1.337690	0.146483	0.124012
O3	O	-1.517093	0.002190	0.123973
O4	O	-1.528207	0.278236	0.124031
O5	O	-1.517108	0.002176	-0.124106
O6	O	-1.337705	0.146469	-0.124067
O7	O	-1.707625	0.133929	-0.124086
Cu8	Cu	-1.522667	0.140198	-0.146728
Cu9	Cu	-1.522648	0.140215	0.146654
O10	O	-1.528223	0.278222	-0.124048
C11	C	-1.290070	0.145525	-0.000026
C12	C	-1.148153	0.142678	-0.000020
C13	C	-1.070698	0.050856	-0.000054
C14	C	-0.982964	0.094231	0.122266
C15	C	-0.983016	0.094239	-0.122320
C16	C	-1.062289	0.186090	0.122402
C17	C	-1.062348	0.186085	-0.122294
C18	C	-0.974649	0.229527	0.000056
C19	C	-1.512238	-0.033165	-0.000070
C20	C	-1.497735	-0.138491	-0.000083
C21	C	-1.574080	-0.388251	-0.000028
C22	C	-1.471241	-0.331331	-0.000033
C23	C	-1.485986	-0.224025	-0.000061
C24	C	-1.559337	-0.495567	-0.000001
C25	C	-0.755246	0.134873	-0.000049
C26	C	-0.897166	0.137675	-0.000058
C27	C	-1.533077	0.313577	-0.000001
C28	C	-1.547580	0.418903	0.000021
N29	N	-1.522689	0.140185	-0.353077
N30	N	-1.522635	0.140219	0.353003
C31	C	-1.439496	0.206802	0.549734
C32	C	-1.556857	0.226193	0.450268
C33	C	-1.405289	0.120871	0.450262
C34	C	-1.640113	0.159619	0.549645
C35	C	-1.488465	0.054260	0.549648
C36	C	-1.605905	0.073615	0.450226
H37	H	-1.112729	-0.024620	0.000084
H38	H	-0.932891	0.305083	0.000138
H39	H	-1.676319	0.017291	0.406812
H40	H	-1.372123	-0.363189	-0.000020
C41	C	-1.706268	-0.345831	0.000249
C42	C	-1.772394	-0.376106	0.127895
C43	C	-1.894160	-0.337024	0.128207
H44	H	-1.751487	-0.366303	-0.086163
H45	H	-1.698788	-0.278304	0.000312
H46	H	-1.779880	-0.443618	0.127819
H47	H	-1.727214	-0.355635	0.214328
H48	H	-1.886680	-0.269497	0.128270
H49	H	-1.939367	-0.357498	0.041790
H50	H	-1.939037	-0.357552	0.214820
H51	H	-1.369256	0.263160	0.593422
H52	H	-0.948002	0.055386	0.225666
C53	C	-1.108879	0.237786	0.260404
C54	C	-1.242268	0.239797	0.258863
C55	C	-1.285234	0.287396	0.385975
H56	H	-1.075316	0.301100	0.260899
H57	H	-1.081121	0.205382	0.347189
H58	H	-1.270013	0.272203	0.172102
H59	H	-1.275864	0.176497	0.258391
H60	H	-1.257476	0.254992	0.472760
H61	H	-1.251663	0.350707	0.386459
H62	H	-1.375742	0.288759	0.384953
H63	H	-1.097339	0.224899	-0.225699
C64	C	-1.449587	-0.042578	0.607836
C65	C	-1.326562	-0.062447	0.557602
C66	C	-1.290683	-0.151638	0.611195
H67	H	-1.507686	-0.090112	0.572320
H68	H	-1.450580	-0.042061	0.713796
H69	H	-1.325579	-0.062972	0.451665
H70	H	-1.268435	-0.014936	0.593115
H71	H	-1.291676	-0.151121	0.717155
H72	H	-1.348790	-0.199164	0.575675
H73	H	-1.207204	-0.165127	0.577131
H74	H	-1.306028	0.104522	0.406602
C75	C	-1.772419	0.181785	0.607633
C76	C	-1.766176	0.264617	0.694477
C77	C	-1.888027	0.285101	0.747885
H78	H	-1.803354	0.130185	0.666749
H79	H	-1.828376	0.191110	0.525825
H80	H	-1.710239	0.255286	0.776273
H81	H	-1.735264	0.316234	0.635394
H82	H	-1.943984	0.294426	0.666077
H83	H	-1.918952	0.233495	0.806994
H84	H	-1.883810	0.341308	0.806803
H85	H	-1.585790	0.298872	0.406614
H86	H	-0.948101	0.055365	-0.225735
