data_functionalizedCrystal
_audit_creation_method	'MofGen! by Chris Wilmer'
_symmetry_space_group_name_H-M	'P1'
_symmetry_Int_Tables_number	1
_symmetry_cell_setting	triclinic
loop_
_symmetry_equiv_pos_as_xyz
  x,y,z
_cell_length_a	19.288864
_cell_length_b	10.654550
_cell_length_c	18.366186
_cell_angle_alpha	89.994973
_cell_angle_beta	89.977106
_cell_angle_gamma	83.810575
loop_
_atom_site_label
_atom_site_type_symbol
_atom_site_fract_x
_atom_site_fract_y
_atom_site_fract_z
O1	O	0.922379	0.156657	-0.060782
O2	O	0.720256	0.177789	-0.060732
O3	O	0.825965	-0.015616	-0.060755
O4	O	0.816670	0.350062	-0.060758
O5	O	0.825946	-0.015625	0.060344
O6	O	0.720238	0.177780	0.060368
O7	O	0.922360	0.156647	0.060318
Zn8	Zn	0.821296	0.167212	0.079570
Zn9	Zn	0.821320	0.167224	-0.079984
O10	O	0.816652	0.350052	0.060341
C11	C	0.694366	0.177105	-0.000176
C12	C	0.617249	0.175063	-0.000156
C13	C	0.573296	0.288545	-0.000169
C14	C	0.500836	0.286627	-0.000177
C15	C	0.472333	0.171222	-0.000187
C16	C	0.516296	0.057725	-0.000171
C17	C	0.588754	0.059646	-0.000155
C18	C	0.363484	0.080503	-0.042637
C19	C	0.291027	0.078587	-0.042657
C20	C	0.248849	0.165292	-0.000231
C21	C	0.279136	0.253935	0.042205
C22	C	0.351594	0.255855	0.042221
C23	C	0.393766	0.169126	-0.000203
C24	C	0.126326	0.276702	-0.000251
C25	C	0.053865	0.274779	-0.000255
C26	C	0.069327	0.045875	-0.000256
C27	C	0.141786	0.047800	-0.000245
C28	C	0.170281	0.163217	-0.000246
C29	C	0.825273	-0.062404	-0.000206
C30	C	0.823231	-0.201803	-0.000208
C31	C	0.885471	-0.282621	-0.000221
C32	C	0.883548	-0.413601	-0.000226
C33	C	0.757141	-0.382932	-0.000201
C34	C	0.759065	-0.251955	-0.000202
C35	C	0.949637	-0.232470	-0.000228
C36	C	1.011882	-0.313290	-0.000240
C37	C	1.009959	-0.444269	-0.000245
C38	C	0.945792	-0.494429	-0.000237
C39	C	0.948250	0.157332	-0.000240
C40	C	1.025367	0.159373	-0.000264
C41	C	0.817344	0.396840	-0.000209
C42	C	0.819385	0.536240	-0.000212
N43	N	0.821285	0.167203	0.188461
N44	N	0.821337	0.167224	-0.188875
C45	C	0.868108	0.081605	0.226551
C46	C	0.868113	0.081599	0.302779
C47	C	0.821300	0.167213	0.340914
C48	C	0.774468	0.252817	0.302815
C49	C	0.774461	0.252812	0.226588
C50	C	0.812752	0.281634	0.461675
C51	C	0.812764	0.281641	0.537899
C52	C	0.821320	0.167229	0.576021
C53	C	0.829879	0.052804	0.537909
C54	C	0.829871	0.052799	0.461682
C55	C	0.821303	0.167228	0.423569
C56	C	0.868151	0.081618	0.696766
C57	C	0.868151	0.081610	0.772995
C58	C	0.774509	0.252840	0.773030
C59	C	0.774507	0.252836	0.696802
C60	C	0.821331	0.167226	0.658675
H61	H	0.376250	0.328027	0.076776
O62	O	0.913515	-0.001902	0.189659
C63	C	0.901522	-0.126031	0.208478
H64	H	0.845876	-0.126157	0.229392
H65	H	0.909228	-0.189332	0.158449
H66	H	0.939761	-0.162978	0.252808
H67	H	0.736352	0.322524	0.333868
O68	O	0.804566	0.392819	0.424676
C69	C	0.858875	0.465439	0.443282
H70	H	0.905475	0.400592	0.464224
H71	H	0.874975	0.518334	0.393139
H72	H	0.840091	0.536114	0.487528
O73	O	0.944011	-0.621685	-0.000343
C74	C	0.978030	-0.673835	-0.063081
H75	H	1.016047	-0.607305	-0.083997
H76	H	1.007811	-0.769004	-0.048988
H77	H	0.937743	-0.687366	-0.106990
O78	O	1.070485	-0.522599	-0.000228
C79	C	1.127528	-0.450241	-0.000254
H80	H	1.110364	-0.352385	0.022678
H81	H	1.171168	-0.498814	0.034896
H82	H	1.147178	-0.441015	-0.058354
O83	O	0.698626	-0.173386	-0.000315
C84	C	0.695980	-0.096679	-0.063024
H85	H	0.731272	-0.144854	-0.106868
H86	H	0.640107	-0.081619	-0.084065
H87	H	0.714421	-0.001539	-0.048849
H88	H	0.244796	0.324537	0.076753
H89	H	0.805800	0.374812	0.568925
H90	H	0.465043	0.379040	-0.000185
H91	H	0.624542	-0.032767	-0.000146
O92	O	0.694873	-0.431864	-0.000156
C93	C	0.706522	-0.564798	-0.000175
H94	H	0.760574	-0.595864	0.022739
H95	H	0.665423	-0.604788	0.034994
H96	H	0.702990	-0.601235	-0.058271
O97	O	0.913632	-0.001382	0.339867
C98	C	0.956814	0.065687	0.383915
H99	H	0.929619	0.164079	0.395342
H100	H	0.967561	0.013225	0.437516
H101	H	1.008181	0.073991	0.354508
O102	O	0.838155	-0.058457	0.424773
C103	C	0.845728	-0.159446	0.474758
H104	H	0.821472	-0.127008	0.529107
H105	H	0.818343	-0.241153	0.452752
H106	H	0.903490	-0.191842	0.482832
H107	H	0.836846	-0.040361	0.568946
H108	H	0.906276	0.011905	0.665722
O109	O	0.913705	-0.001590	0.809886
C110	C	0.955018	-0.077164	0.759884
H111	H	0.956041	-0.025681	0.705543
H112	H	1.010395	-0.096563	0.781881
H113	H	0.932028	-0.170359	0.751795
O114	O	0.154047	0.388778	-0.000369
C115	C	0.195545	0.396738	-0.063070
H116	H	0.178117	0.331227	-0.106915
H117	H	0.189545	0.497989	-0.084116
H118	H	0.252528	0.367438	-0.048882
O119	O	0.729004	0.335833	0.810144
C120	C	0.685826	0.268776	0.854248
H121	H	0.713020	0.170382	0.865662
H122	H	0.675092	0.321246	0.907852
H123	H	0.634453	0.260476	0.824897
H124	H	0.018079	0.367194	-0.000261
O125	O	0.184386	-0.062553	-0.000273
C126	C	0.143694	-0.164827	-0.000265
H127	H	0.089790	-0.132643	-0.023202
H128	H	0.170056	-0.244313	-0.035419
H129	H	0.138333	-0.200227	0.057831
H130	H	0.046120	-0.048091	-0.000309
H131	H	0.736381	0.322543	0.665787
O132	O	0.729047	0.336146	0.189618
C133	C	0.740922	0.460408	0.208246
H134	H	0.796532	0.460766	0.229174
H135	H	0.733232	0.523471	0.158117
H136	H	0.702605	0.497470	0.252508
O137	O	0.600860	0.400767	-0.000130
C138	C	0.546522	0.500518	-0.000160
H139	H	0.497124	0.465592	0.022753
H140	H	0.562028	0.581116	0.035004
H141	H	0.536474	0.535509	-0.058259
H142	H	0.397820	0.009895	-0.077190
O143	O	0.261725	-0.007636	-0.083894
C144	C	0.314486	-0.083745	-0.121341
H145	H	0.366109	-0.082218	-0.091327
H146	H	0.300339	-0.184799	-0.124081
H147	H	0.319675	-0.045766	-0.178895
H148	H	0.493084	-0.036239	-0.000189
H149	H	0.951210	-0.125822	-0.000222
H150	H	1.064124	-0.272440	-0.000265
