data_functionalizedCrystal
_audit_creation_method	'MofGen! by Chris Wilmer'
_symmetry_space_group_name_H-M	'P1'
_symmetry_Int_Tables_number	1
_symmetry_cell_setting	triclinic
loop_
_symmetry_equiv_pos_as_xyz
  x,y,z
_cell_length_a	11.026607
_cell_length_b	10.908890
_cell_length_c	10.065875
_cell_angle_alpha	83.386829
_cell_angle_beta	100.697662
_cell_angle_gamma	84.335052
loop_
_atom_site_label
_atom_site_type_symbol
_atom_site_fract_x
_atom_site_fract_y
_atom_site_fract_z
O1	O	-1.527072	-0.499655	-0.113430
O2	O	-1.027072	0.000345	0.386570
O3	O	-1.185574	-0.441152	-0.113439
O4	O	-0.685574	0.058848	0.386561
O5	O	-1.401597	-0.293935	-0.113451
O6	O	-0.901597	0.206065	0.386549
O7	O	-1.311049	-0.646873	-0.113418
O8	O	-0.811049	-0.146873	0.386582
O9	O	-1.360375	-0.322151	0.113540
O10	O	-0.860375	0.177849	0.613540
O11	O	-1.144352	-0.469369	0.113552
O12	O	-0.644352	0.030631	0.613552
O13	O	-1.485850	-0.527872	0.113561
O14	O	-0.985850	-0.027872	0.613561
Zn15	Zn	-1.308556	-0.503101	0.149596
Zn16	Zn	-0.808556	-0.003101	0.649596
Zn17	Zn	-1.362868	-0.465924	-0.149474
Zn18	Zn	-0.862868	0.034076	0.350526
O19	O	-1.269827	-0.675090	0.113573
O20	O	-0.769827	-0.175090	0.613573
C21	C	-1.121931	-0.444468	0.000055
C22	C	-0.621931	0.055532	0.500055
C23	C	-0.993710	-0.412294	0.000050
C24	C	-0.493710	0.087706	0.500050
C25	C	-1.389449	-0.262156	0.000037
C26	C	-0.889449	0.237844	0.500037
C27	C	-1.414653	-0.125426	0.000016
C28	C	-0.914653	0.374574	0.500016
C29	C	-1.549494	-0.524556	0.000064
C30	C	-1.049494	-0.024556	0.500064
C31	C	-1.677716	-0.556728	0.000060
C32	C	-1.177716	-0.056728	0.500060
N33	N	-1.271499	-0.528474	0.353704
N34	N	-0.771499	-0.028474	0.853704
C35	C	-0.901975	-0.501130	0.000058
C36	C	-0.401975	-0.001130	0.500058
C37	C	-0.769452	-0.467880	0.000053
C38	C	-0.269452	0.032120	0.500053
C39	C	-1.322711	-0.055162	0.000004
C40	C	-0.822711	0.444838	0.500004
C41	C	-1.348757	0.086156	-0.000018
C42	C	-0.848757	0.586156	0.499982
C43	C	-1.281983	0.293136	0.000051
C44	C	-0.781983	0.793136	0.500051
C45	C	-1.256803	0.156418	-0.000030
C46	C	-0.756803	0.656418	0.499970
N47	N	-1.399937	-0.440543	-0.353582
N48	N	-0.899937	0.059457	0.146418
C49	C	-1.349969	-0.474743	0.421478
C50	C	-0.849969	0.025257	0.921478
C51	C	-1.321455	-0.494282	0.578647
C52	C	-0.821455	0.005718	1.078647
H53	H	-0.921547	-0.601803	0.000075
H54	H	-0.421547	-0.101803	0.500075
H55	H	-1.512649	-0.080961	0.000015
H56	H	-1.012649	0.419039	0.500015
H57	H	-1.183205	-0.588935	0.412035
H58	H	-0.683205	-0.088935	0.912035
H59	H	-1.438256	-0.414270	0.363149
H60	H	-0.938256	0.085730	0.863149
H61	H	-0.749892	-0.367197	0.000008
H62	H	-0.249892	0.132803	0.500008
H63	H	-1.488230	-0.380067	0.588092
H64	H	-0.988230	0.119933	1.088092
H65	H	-1.446761	0.130616	-0.000019
H66	H	-0.946761	0.630616	0.499981
N67	N	-0.702264	-0.683028	0.000092
N68	N	-0.202264	-0.183028	0.500092
N69	N	-0.809880	-0.709865	0.000106
N70	N	-0.309880	-0.209865	0.500106
H71	H	-0.827219	-0.799063	0.000131
H72	H	-0.327219	-0.299063	0.500131
N73	N	-1.210685	-0.570127	0.651826
N74	N	-0.710685	-0.070127	1.151826
N75	N	-1.187676	-0.585887	0.779396
N76	N	-0.687676	-0.085887	1.279396
H77	H	-1.109446	-0.639451	0.831083
H78	H	-0.609446	-0.139451	1.331083
H79	H	-0.974144	-0.311618	0.000006
H80	H	-0.474144	0.188382	0.500006
H81	H	-1.224712	-0.099629	0.000017
H82	H	-0.724712	0.400371	0.500017
H83	H	-1.158795	0.111957	-0.000012
H84	H	-0.658795	0.611957	0.499988
