data_functionalizedCrystal
_audit_creation_method	'MofGen! by Chris Wilmer'
_symmetry_space_group_name_H-M	'P1'
_symmetry_Int_Tables_number	1
_symmetry_cell_setting	triclinic
loop_
_symmetry_equiv_pos_as_xyz
  x,y,z
_cell_length_a	12.837943
_cell_length_b	10.868271
_cell_length_c	12.811415
_cell_angle_alpha	95.435992
_cell_angle_beta	89.411917
_cell_angle_gamma	90.003083
loop_
_atom_site_label
_atom_site_type_symbol
_atom_site_fract_x
_atom_site_fract_y
_atom_site_fract_z
O1	O	1.376632	0.132756	0.272979
O2	O	1.876632	0.632756	0.772979
O3	O	1.074768	0.131259	0.259494
O4	O	1.574768	0.631259	0.759494
O5	O	1.233294	0.115037	0.114203
O6	O	1.733294	0.615037	0.614203
O7	O	1.218106	0.148977	0.418270
O8	O	1.718106	0.648977	0.918270
O9	O	1.233281	-0.089608	0.114195
O10	O	1.733281	0.410392	0.614195
O11	O	1.074755	-0.073387	0.259486
O12	O	1.574755	0.426613	0.759486
O13	O	1.376619	-0.071890	0.272971
O14	O	1.876619	0.428110	0.772971
Zn15	Zn	1.225685	-0.105130	0.266228
Zn16	Zn	1.725685	0.394870	0.766228
Zn17	Zn	1.225702	0.164499	0.266237
Zn18	Zn	1.725702	0.664499	0.766237
O19	O	1.218093	-0.055668	0.418262
O20	O	1.718093	0.444332	0.918262
C21	C	1.036121	0.028429	0.254935
C22	C	1.536121	0.528429	0.754935
C23	C	0.920985	0.026915	0.241349
C24	C	1.420985	0.526915	0.741349
N25	N	1.225680	-0.289145	0.266221
N26	N	1.725680	0.210855	0.766221
C27	C	0.680732	0.045129	0.404679
C28	C	1.180732	0.545129	0.904679
C29	C	0.572551	0.043707	0.391919
C30	C	1.072551	0.543707	0.891919
C31	C	0.596441	0.022640	0.203068
C32	C	1.096441	0.522640	0.703068
C33	C	0.704622	0.024062	0.215829
C34	C	1.204622	0.524062	0.715829
C35	C	0.746763	0.035309	0.316637
C36	C	1.246763	0.535309	0.816637
C37	C	0.854946	0.036740	0.329397
C38	C	1.354946	0.536740	0.829397
C39	C	0.878833	0.015665	0.140547
C40	C	1.378833	0.515665	0.640547
C41	C	0.770652	0.014242	0.127787
C42	C	1.270652	0.514242	0.627787
C43	C	1.225697	-0.540149	0.266235
C44	C	1.725697	-0.040149	0.766235
C45	C	1.225684	-0.400472	0.266230
C46	C	1.725684	0.099528	0.766230
C47	C	1.415265	0.030943	0.277530
C48	C	1.915265	0.530943	0.777530
C49	C	1.530401	0.032465	0.291116
C50	C	2.030401	0.532465	0.791116
C51	C	1.232436	0.008343	0.075010
C52	C	1.732436	0.508343	0.575010
C53	C	1.229887	-0.004683	-0.041764
C54	C	1.729887	0.495317	0.458236
N55	N	1.225714	0.348513	0.266237
N56	N	1.725714	0.848513	0.766237
C57	C	1.225092	0.193969	-0.261175
C58	C	1.725092	0.693969	0.238825
C59	C	1.222697	0.181735	-0.370894
C60	C	1.722697	0.681735	0.129106
C61	C	1.222694	-0.041383	-0.370922
C62	C	1.722694	0.458617	0.129078
C63	C	1.225089	-0.029149	-0.261203
C64	C	1.725089	0.470851	0.238797
C65	C	1.226290	0.088530	-0.206334
C66	C	1.726290	0.588530	0.293666
C67	C	1.228692	0.100763	-0.096613
C68	C	1.728692	0.600763	0.403387
C69	C	1.228682	-0.122354	-0.096643
C70	C	1.728682	0.377646	0.403357
C71	C	1.226287	-0.134588	-0.206362
C72	C	1.726287	0.365412	0.293638
C73	C	1.218951	0.051029	0.457455
C74	C	1.718951	0.551029	0.957455
C75	C	1.221500	0.064063	0.574229
C76	C	1.721500	0.564063	1.074229
H77	H	0.889255	0.045895	0.411480
H78	H	1.389255	0.545895	0.911480
H79	H	1.229661	-0.208210	-0.051979
H80	H	1.729661	0.291790	0.448021
H81	H	1.226079	0.289788	-0.216500
H82	H	1.726079	0.789788	0.283500
H83	H	0.715044	0.054288	0.486762
H84	H	1.215044	0.554288	0.986762
H85	H	1.225305	-0.230399	-0.251051
H86	H	1.725305	0.269601	0.248949
O87	O	0.550981	0.010492	0.094345
O88	O	1.050981	0.510492	0.594345
H89	H	0.464662	0.011151	0.100268
H90	H	0.964662	0.511151	0.600268
H91	H	0.518792	0.051700	0.463612
H92	H	1.018792	0.551700	0.963612
H93	H	1.229673	0.196583	-0.051940
H94	H	1.729673	0.696583	0.448060
H95	H	0.736326	0.005072	0.045711
H96	H	1.236326	0.505072	0.545711
O97	O	0.950051	0.005065	0.045576
O98	O	1.450051	0.505065	0.545576
H99	H	1.032357	0.007936	0.071382
H100	H	1.532357	0.507936	0.571382
H101	H	1.221718	0.267594	-0.415542
H102	H	1.721718	0.767594	0.084458
H103	H	1.221708	-0.137192	-0.415616
H104	H	1.721708	0.362808	0.084384
