data_functionalizedCrystal
_audit_creation_method	'MofGen! by Chris Wilmer'
_symmetry_space_group_name_H-M	'P1'
_symmetry_Int_Tables_number	1
_symmetry_cell_setting	triclinic
loop_
_symmetry_equiv_pos_as_xyz
  x,y,z
_cell_length_a	29.917948
_cell_length_b	29.917021
_cell_length_c	29.913391
_cell_angle_alpha	60.005297
_cell_angle_beta	60.010472
_cell_angle_gamma	59.993667
loop_
_atom_site_label
_atom_site_type_symbol
_atom_site_fract_x
_atom_site_fract_y
_atom_site_fract_z
O1	O	0.061938	-0.653075	0.546110
O2	O	0.561938	-0.153075	1.046110
O3	O	0.023328	-0.508466	0.440017
O4	O	0.523328	-0.008466	0.940017
O5	O	0.114898	-0.599963	0.439941
O6	O	0.614898	-0.099963	0.939941
O7	O	-0.029633	-0.561578	0.546186
O8	O	0.470367	-0.061578	1.046186
O9	O	0.145278	-0.569587	0.470242
O10	O	0.645278	-0.069587	0.970242
O11	O	0.053708	-0.478090	0.470318
O12	O	0.553708	0.021910	0.970318
O13	O	0.092318	-0.622699	0.576411
O14	O	0.592318	-0.122699	1.076411
Zn15	Zn	0.077836	-0.545572	0.528175
Zn16	Zn	0.577836	-0.045572	1.028175
Zn17	Zn	0.037809	-0.585593	0.488253
Zn18	Zn	0.537809	-0.085593	0.988253
O19	O	0.000747	-0.531202	0.576487
O20	O	0.500747	-0.031202	1.076487
N21	N	0.105154	-0.518262	0.555424
N22	N	0.605154	-0.018262	1.055424
N23	N	0.010496	-0.612908	0.461004
N24	N	0.510496	-0.112908	0.961004
C25	C	0.164136	-0.309209	0.614352
C26	C	0.664136	0.190791	1.114352
C27	C	0.164251	-0.459335	0.764424
C28	C	0.664251	0.040665	1.264424
C29	C	0.164150	-0.459313	0.614341
C30	C	0.664150	0.040687	1.114341
C31	C	0.314282	-0.459305	0.614278
C32	C	0.814282	0.040695	1.114278
C33	C	0.180666	-0.358742	0.630849
C34	C	0.680666	0.141258	1.130849
C35	C	0.180732	-0.442815	0.714891
C36	C	0.680732	0.057185	1.214891
C37	C	0.264747	-0.442797	0.630809
C38	C	0.764747	0.057203	1.130809
C39	C	0.180676	-0.442802	0.630843
C40	C	0.680676	0.057198	1.130843
C41	C	0.143097	-0.246161	0.593354
C42	C	0.643097	0.253839	1.093354
C43	C	0.143120	-0.480326	0.593337
C44	C	0.643120	0.019674	1.093337
C45	C	0.201706	-0.421790	0.651848
C46	C	0.701706	0.078210	1.151848
C47	C	0.405963	-0.443499	0.565998
C48	C	0.905963	0.056501	1.065998
C49	C	0.463273	-0.462598	0.546874
C50	C	0.963273	0.037402	1.046874
C51	C	0.463297	-0.555329	0.582235
C52	C	0.963297	-0.055329	1.082235
C53	C	0.405988	-0.536228	0.601360
C54	C	0.905988	-0.036228	1.101360
C55	C	0.156905	-0.217495	0.537012
C56	C	0.656905	0.282505	1.037012
C57	C	0.137776	-0.160180	0.517926
C58	C	0.637776	0.339820	1.017926
C59	C	0.091035	-0.160201	0.611524
C60	C	0.591035	0.339799	1.111524
C61	C	0.110164	-0.217516	0.630611
C62	C	0.610164	0.282484	1.130611
C63	C	0.086772	-0.466488	0.607209
C64	C	0.586772	0.033512	1.107209
C65	C	0.067659	-0.485590	0.588108
C66	C	0.567659	0.014410	1.088108
C67	C	0.161236	-0.532368	0.541277
C68	C	0.661236	-0.032368	1.041277
C69	C	0.180352	-0.513266	0.560371
C70	C	0.680352	-0.013266	1.060371
C71	C	0.086942	-0.466529	0.856152
C72	C	0.586942	0.033471	1.356152
C73	C	0.067877	-0.485647	0.913465
C74	C	0.567877	0.014353	1.413465
C75	C	0.161489	-0.532436	0.913415
C76	C	0.661489	-0.032436	1.413415
C77	C	0.180552	-0.513318	0.856101
C78	C	0.680552	-0.013318	1.356101
C79	C	0.143277	-0.480363	0.827471
C80	C	0.643277	0.019637	1.327471
C81	C	0.377323	-0.480313	0.593239
C82	C	0.877323	0.019687	1.093239
C83	C	-0.111377	-0.650681	0.422736
C84	C	0.388623	-0.150681	0.922736
C85	C	-0.027364	-0.650787	0.422929
C86	C	0.472636	-0.150787	0.922929
C87	C	-0.048335	-0.671770	0.401835
C88	C	0.451665	-0.171770	0.901835
C89	C	-0.064214	-0.763416	0.450041
C90	C	0.435786	-0.263416	0.950041
C91	C	-0.045160	-0.820731	0.469172
C92	C	0.454840	-0.320731	0.969172
C93	C	0.047573	-0.820841	0.433980
C94	C	0.547573	-0.320841	0.933980
C95	C	0.028517	-0.763527	0.414847
C96	C	0.528517	-0.263527	0.914847
C97	C	-0.140115	-0.664483	0.479060
C98	C	0.359885	-0.164483	0.979060
C99	C	-0.197425	-0.645309	0.498058
C100	C	0.302575	-0.145309	0.998058
C101	C	-0.197256	-0.598535	0.404405
C102	C	0.302744	-0.098535	0.904405
C103	C	-0.139946	-0.617709	0.385407
C104	C	0.360054	-0.117709	0.885407
C105	C	-0.041168	-0.594444	0.409067
C106	C	0.458832	-0.094444	0.909067
C107	C	-0.022104	-0.575374	0.428250
C108	C	0.477896	-0.075374	0.928250
C109	C	0.024568	-0.668986	0.475143
C110	C	0.524568	-0.168986	0.975143
C111	C	0.005504	-0.688059	0.455967
C112	C	0.505504	-0.188059	0.955967
C113	C	-0.041000	-0.594453	0.310105
C114	C	0.459000	-0.094453	0.810105
C115	C	-0.021803	-0.575386	0.252792
C116	C	0.478197	-0.075386	0.752792
C117	C	0.024951	-0.669004	0.252854
C118	C	0.524951	-0.169004	0.752854
C119	C	0.005755	-0.688070	0.310168
C120	C	0.505755	-0.188070	0.810168
C121	C	-0.027222	-0.650793	0.338792
C122	C	0.472778	-0.150793	0.838792
C123	C	-0.027377	-0.734817	0.422881
C124	C	0.472623	-0.234817	0.922881
N125	N	0.491125	-0.518235	0.555255
N126	N	0.991125	-0.018235	1.055255
O127	O	0.678406	-0.527360	0.420422
O128	O	1.178406	-0.027360	0.920422
O129	O	0.678588	-0.633782	0.564887
O130	O	1.178588	-0.133782	1.064887
O131	O	0.678516	-0.633539	0.473265
O132	O	1.178516	-0.133539	0.973265
O133	O	0.678478	-0.527602	0.512044
O134	O	1.178478	-0.027602	1.012044
O135	O	0.587469	-0.603251	0.503685
O136	O	1.087469	-0.103251	1.003685
O137	O	0.587541	-0.603493	0.595307
O138	O	1.087541	-0.103493	1.095307
O139	O	0.587359	-0.497071	0.450842
O140	O	1.087359	0.002929	0.950842
Zn141	Zn	0.572994	-0.545473	0.527905
Zn142	Zn	1.072994	-0.045473	1.027905
Zn143	Zn	0.692953	-0.585380	0.487825
Zn144	Zn	1.192953	-0.085380	0.987825
O145	O	0.587431	-0.497313	0.542465
O146	O	1.087431	0.002687	1.042465
N147	N	0.774821	-0.612618	0.460470
N148	N	1.274821	-0.112618	0.960470
N149	N	0.105125	-0.132348	0.555445
N150	N	0.605125	0.367652	1.055445
O151	O	-0.029633	0.055031	0.546198
O152	O	0.470367	0.555031	1.046198
O153	O	0.114837	0.055047	0.439777
O154	O	0.614837	0.555047	0.939777
O155	O	0.023189	0.055024	0.440050
O156	O	0.523189	0.555024	0.940050
O157	O	0.062016	0.055054	0.545925
O158	O	0.562016	0.555054	1.045925
O159	O	0.053572	-0.036031	0.470398
O160	O	0.553572	0.463969	0.970398
O161	O	0.145220	-0.036008	0.470125
O162	O	0.645220	0.463992	0.970125
O163	O	0.000750	-0.036024	0.576546
O164	O	0.500750	0.463976	1.076546
Zn165	Zn	0.077809	-0.050473	0.528154
Zn166	Zn	0.577809	0.449527	1.028154
Zn167	Zn	0.037778	0.069496	0.488169
Zn168	Zn	0.537778	0.569496	0.988169
O169	O	0.092399	-0.036001	0.576273
O170	O	0.592399	0.463999	1.076273
N171	N	0.010456	0.151371	0.460879
N172	N	0.510456	0.651371	0.960879
N173	N	0.105414	-0.518315	0.941279
N174	N	0.605414	-0.018315	1.441279
O175	O	0.096182	-0.653057	1.128644
O176	O	0.596182	-0.153057	1.628644
O177	O	-0.010215	-0.508539	1.128670
O178	O	0.489785	-0.008539	1.628670
O179	O	-0.009968	-0.600172	1.128636
O180	O	0.490032	-0.100172	1.628636
O181	O	0.095935	-0.561424	1.128678
O182	O	0.595935	-0.061424	1.628678
O183	O	0.020367	-0.569808	1.037586
O184	O	0.520367	-0.069808	1.537586
O185	O	0.020121	-0.478175	1.037620
O186	O	0.520121	0.021825	1.537620
O187	O	0.126517	-0.622693	1.037594
O188	O	0.626517	-0.122693	1.537594
Zn189	Zn	0.078135	-0.545613	1.023151
Zn190	Zn	0.578135	-0.045613	1.523151
Zn191	Zn	0.038167	-0.585619	1.143113
Zn192	Zn	0.538167	-0.085619	1.643113
O193	O	0.126270	-0.531061	1.037628
O194	O	0.626270	-0.031061	1.537628
N195	N	0.010887	-0.612923	1.224985
N196	N	0.510887	-0.112923	1.724985
C197	C	0.034899	-0.475056	0.440551
C198	C	0.534899	0.024944	0.940551
C199	C	0.148298	-0.588365	0.440456
C200	C	0.648298	-0.088365	0.940456
C201	C	0.080746	-0.656109	0.575876
C202	C	0.580746	-0.156109	1.075876
C203	C	-0.032653	-0.542801	0.575971
C204	C	0.467347	-0.042801	1.075971
C205	C	0.633086	-0.633292	0.598298
C206	C	1.133086	-0.133292	1.098298
C207	C	0.632998	-0.632993	0.484834
C208	C	1.132998	-0.132993	0.984834
C209	C	0.632857	-0.497559	0.417433
C210	C	1.132857	0.002441	0.917433
C211	C	0.632949	-0.497860	0.530895
C212	C	1.132949	0.002140	1.030895
C213	C	0.148191	0.009634	0.440259
C214	C	0.648191	0.509634	0.940259
C215	C	0.034733	0.009493	0.440634
C216	C	0.534733	0.509493	0.940634
C217	C	-0.032641	0.009502	0.576027
C218	C	0.467359	0.509502	1.076027
C219	C	0.080854	0.009529	0.575690
C220	C	0.580854	0.509529	1.075690
C221	C	-0.009699	-0.475150	1.083148
C222	C	0.490301	0.024850	1.583148
C223	C	-0.009388	-0.588620	1.083088
C224	C	0.490612	-0.088620	1.583088
C225	C	0.126001	-0.656082	1.083116
C226	C	0.626001	-0.156082	1.583116
C227	C	0.125697	-0.542605	1.083155
C228	C	0.625697	-0.042605	1.583155
H229	H	0.022003	-0.474373	0.936811
H230	H	0.522003	0.025627	1.436811
H231	H	-0.043102	-0.433644	1.083156
H232	H	0.456898	0.066356	1.583156
C233	C	0.091886	-0.712229	0.620892
C234	C	0.591886	-0.212229	1.120892
N235	N	0.100277	-0.754498	0.654798
N236	N	0.600277	-0.254498	1.154798
H237	H	0.159407	-0.697586	1.083101
H238	H	0.659407	-0.197586	1.583101
H239	H	0.189808	-0.596548	0.407092
H240	H	0.689808	-0.096548	0.907092
H241	H	-0.074166	-0.534620	0.609333
H242	H	0.425834	-0.034620	1.109333
C243	C	0.633154	-0.678429	0.654350
C244	C	1.133154	-0.178429	1.154350
N245	N	0.633206	-0.712426	0.696569
N246	N	1.133206	-0.212426	1.196569
H247	H	0.633014	-0.666272	0.476534
H248	H	1.133014	-0.166272	0.976534
C249	C	0.632701	-0.452393	0.361410
C250	C	1.132701	0.047607	0.861410
N251	N	0.632556	-0.418365	0.319223
N252	N	1.132556	0.081635	0.819223
H253	H	0.486634	-0.600858	0.588843
H254	H	0.986634	-0.100858	1.088843
C255	C	0.632930	-0.452900	0.542105
C256	C	1.132930	0.047100	1.042105
N257	N	0.632913	-0.419035	0.550550
N258	N	1.132913	0.080965	1.050550
C259	C	0.202495	-0.568678	0.944906
C260	C	0.702495	-0.068678	1.444906
N261	N	0.233381	-0.595981	0.968625
N262	N	0.733381	-0.095981	1.468625
H263	H	0.189596	0.009891	0.406765
H264	H	0.689596	0.509891	0.906765
H265	H	-0.074131	0.009496	0.609437
H266	H	0.425869	0.509496	1.109437
C267	C	0.092084	0.009537	0.620627
C268	C	0.592084	0.509537	1.120627
N269	N	0.100543	0.009542	0.654473
N270	N	0.600543	0.509542	1.154473
C271	C	-0.054316	-0.599798	1.083018
C272	C	0.445684	-0.099798	1.583018
N273	N	-0.088155	-0.608217	1.082964
N274	N	0.411845	-0.108217	1.582964
H275	H	0.149018	-0.136838	0.472047
H276	H	0.649018	0.363162	0.972047
H277	H	0.026418	0.009490	0.407371
H278	H	0.526418	0.509490	0.907371
H279	H	0.158967	-0.534314	1.083161
H280	H	0.658967	-0.034314	1.583161
C281	C	0.202199	-0.568607	0.505016
C282	C	0.702199	-0.068607	1.005016
N283	N	0.233051	-0.595900	0.477704
N284	N	0.733051	-0.095900	0.977704
C285	C	0.242527	-0.528537	0.824555
C286	C	0.742527	-0.028537	1.324555
N287	N	0.289207	-0.539998	0.800797
N288	N	0.789207	-0.039998	1.300797
C289	C	0.045933	-0.430247	0.824664
C290	C	0.545933	0.069753	1.324664
N291	N	0.015045	-0.402912	0.800947
N292	N	0.515045	0.097088	1.300947
H293	H	0.056452	-0.439666	0.634048
H294	H	0.556452	0.060334	1.134048
H295	H	0.226235	-0.524529	0.549071
H296	H	0.726235	-0.024529	1.049071
C297	C	0.005673	-0.470369	0.603364
C298	C	0.505673	0.029631	1.103364
N299	N	-0.041013	-0.458904	0.614856
N300	N	0.458987	0.041096	1.114856
H301	H	0.382671	-0.566208	0.623544
H302	H	0.882671	-0.066208	1.123544
H303	H	0.382624	-0.397967	0.559385
H304	H	0.882624	0.102033	1.059385
C305	C	0.193130	-0.249000	0.496025
C306	C	0.693130	0.251000	0.996025
N307	N	0.220415	-0.272732	0.465153
N308	N	0.720415	0.227268	0.965153
C309	C	0.494780	-0.422099	0.516903
C310	C	0.994780	0.077901	1.016903
N311	N	0.518512	-0.391595	0.494326
N312	N	1.018512	0.108405	0.994326
C313	C	0.054828	-0.128691	0.652510
C314	C	0.554828	0.371309	1.152510
N315	N	0.027561	-0.104959	0.683382
N316	N	0.527561	0.395041	1.183382
H317	H	-0.033030	-0.529506	0.229442
H318	H	0.466970	-0.029506	0.729442
C319	C	-0.077277	-0.553441	0.341589
C320	C	0.422723	-0.053441	0.841589
N321	N	-0.104600	-0.522553	0.365302
N322	N	0.395400	-0.022553	0.865302
C323	C	0.061218	-0.710014	0.221374
C324	C	0.561218	-0.210014	0.721374
N325	N	0.088538	-0.740905	0.197663
N326	N	0.588538	-0.240905	0.697663
C327	C	0.020915	-0.750051	0.341720
C328	C	0.520915	-0.250051	0.841720
N329	N	0.032333	-0.796734	0.365484
N330	N	0.532333	-0.296734	0.865484
C331	C	0.094974	-0.249045	0.692590
C332	C	0.594974	0.250955	1.192590
N333	N	0.083533	-0.272793	0.739275
N334	N	0.583533	0.227207	1.239275
H335	H	-0.033345	-0.529494	0.416965
H336	H	0.466655	-0.029494	0.916965
C337	C	0.060743	-0.709990	0.511462
C338	C	0.560743	-0.209990	1.011462
N339	N	0.087997	-0.740877	0.538813
N340	N	0.587997	-0.240877	1.038813
H341	H	-0.067926	-0.564092	0.382165
H342	H	0.432074	-0.064092	0.882165
H343	H	0.058518	-0.740243	0.392731
H344	H	0.558518	-0.240243	0.892731
C345	C	0.020690	-0.750039	0.471210
C346	C	0.520690	-0.250039	0.971210
N347	N	0.032131	-0.796723	0.482690
N348	N	0.532131	-0.296723	0.982690
H349	H	0.093086	-0.844219	0.427442
H350	H	0.593086	-0.344219	0.927442
C351	C	-0.125699	-0.731839	0.458878
C352	C	0.374301	-0.231839	0.958878
N353	N	-0.172011	-0.708054	0.465533
N354	N	0.327989	-0.208054	0.965533
C355	C	-0.085686	-0.852190	0.499062
C356	C	0.414314	-0.352190	0.999062
N357	N	-0.116212	-0.875886	0.521581
N358	N	0.383788	-0.375886	1.021581
H359	H	-0.220824	-0.656545	0.543924
H360	H	0.279176	-0.156545	1.043924
C361	C	-0.108690	-0.700751	0.520123
C362	C	0.391310	-0.200751	1.020123
N363	N	-0.085022	-0.728068	0.551054
N364	N	0.414978	-0.228068	1.051054
H365	H	-0.220518	-0.571693	0.374008
H366	H	0.279482	-0.071693	0.874008
H367	H	0.026652	-0.433515	0.407232
H368	H	0.526652	0.066485	0.907232
C369	C	-0.108333	-0.602527	0.323444
C370	C	0.391667	-0.102527	0.823444
N371	N	-0.084523	-0.591091	0.276774
N372	N	0.415477	-0.091091	0.776774
