data_functionalizedCrystal
_audit_creation_method	'MofGen! by Chris Wilmer'
_symmetry_space_group_name_H-M	'P1'
_symmetry_Int_Tables_number	1
_symmetry_cell_setting	triclinic
loop_
_symmetry_equiv_pos_as_xyz
  x,y,z
_cell_length_a	23.532355
_cell_length_b	23.532407
_cell_length_c	22.610064
_cell_angle_alpha	90.000603
_cell_angle_beta	90.004331
_cell_angle_gamma	82.838075
loop_
_atom_site_label
_atom_site_type_symbol
_atom_site_fract_x
_atom_site_fract_y
_atom_site_fract_z
O1	O	-0.755283	-0.068986	-0.049137
O2	O	-0.589415	-0.079020	-0.049151
O3	O	-0.677351	0.008929	-0.049133
O4	O	-0.667347	-0.156936	-0.049155
O5	O	-0.677335	0.008917	0.049236
O6	O	-0.589400	-0.079033	0.049218
O7	O	-0.755267	-0.068999	0.049232
Zn8	Zn	-0.672331	-0.074018	0.064843
Zn9	Zn	-0.672351	-0.074001	-0.064762
O10	O	-0.667332	-0.156949	0.049214
C11	C	-0.568191	-0.078776	0.000032
C12	C	-0.504972	-0.078022	0.000027
C13	C	-0.231736	-0.074717	-0.053588
C14	C	-0.291136	-0.075431	-0.053590
O15	O	-0.321869	-0.075774	-0.099191
N16	N	-0.320833	-0.075798	0.000031
C17	C	-0.291128	-0.075446	0.053658
O18	O	-0.321843	-0.075824	0.099267
C19	C	-0.231730	-0.074728	0.053659
C20	C	-0.202035	-0.074366	0.000035
C21	C	-0.202041	-0.074354	-0.107208
C22	C	-0.142645	-0.073642	-0.107205
C23	C	-0.112944	-0.073291	-0.053583
C24	C	-0.142639	-0.073654	0.000037
C25	C	-0.202027	-0.074372	0.107285
C26	C	-0.142625	-0.073654	0.107282
C27	C	-0.112930	-0.073292	0.053658
C28	C	-0.053542	-0.072591	0.053662
N29	N	-0.023845	-0.072223	0.000041
C30	C	-0.053546	-0.072574	-0.053582
C31	C	-0.415869	-0.076953	0.053651
C32	C	-0.475266	-0.077675	0.053650
C33	C	-0.475269	-0.077658	-0.053598
C34	C	-0.415871	-0.076940	-0.053596
C35	C	-0.386172	-0.076585	0.000030
C36	C	0.071190	-0.071077	-0.053573
C37	C	0.130591	-0.070367	-0.053566
C38	C	0.130590	-0.070381	0.053681
C39	C	0.071194	-0.071094	0.053675
C40	C	0.041495	-0.071440	0.000043
O41	O	-0.022772	-0.072245	0.099240
O42	O	-0.022825	-0.072188	-0.099183
C43	C	-0.677088	0.030139	0.000053
C44	C	-0.676322	0.093356	0.000058
C45	C	0.223509	-0.069248	0.000050
C46	C	0.160292	-0.070017	0.000056
C47	C	-0.667594	-0.178158	0.000027
C48	C	-0.668360	-0.241375	0.000018
N49	N	-0.672321	-0.074029	0.153296
C50	C	-0.723557	0.492468	0.000029
C51	C	-0.722845	0.551868	0.000025
O52	O	-0.766632	0.588621	0.000007
N53	N	-0.670568	0.574484	0.000021
C54	C	-0.618998	0.537697	0.000015
O55	O	-0.574467	0.562388	0.000011
C56	C	-0.619710	0.478298	0.000016
C57	C	-0.671991	0.455685	0.000026
C58	C	-0.775834	0.469854	0.000039
C59	C	-0.776545	0.410458	0.000044
C60	C	-0.724979	0.373676	0.000041
C61	C	-0.672703	0.396289	0.000031
C62	C	-0.568141	0.441512	0.000006
C63	C	-0.568858	0.382110	0.000006
C64	C	-0.621139	0.359497	0.000016
C65	C	-0.621848	0.300111	0.000033
N66	N	-0.674126	0.277494	0.000037
C67	C	-0.725691	0.314277	0.000041
C68	C	-0.617507	0.662439	0.000014
C69	C	-0.616794	0.721837	0.000018
C70	C	-0.720642	0.736004	0.000026
C71	C	-0.721354	0.676605	0.000026
C72	C	-0.669784	0.639823	0.000018
C73	C	-0.727181	0.189540	0.000053
C74	C	-0.727888	0.130138	0.000061
C75	C	-0.624041	0.115977	0.000050
C76	C	-0.623334	0.175374	0.000045
C77	C	-0.674909	0.212154	0.000045
O78	O	-0.578084	0.263323	0.000049
O79	O	-0.770216	0.289577	0.000037
N80	N	-0.672366	-0.073986	-0.153215
C81	C	-0.711291	-0.035063	0.561945
C82	C	-0.711294	-0.035059	0.623865
O83	O	-0.744403	-0.001937	0.655891
N84	N	-0.672351	-0.073989	0.654833
C85	C	-0.633399	-0.112923	0.623878
O86	O	-0.600275	-0.146035	0.655904
C87	C	-0.633394	-0.112924	0.561959
C88	C	-0.672343	-0.073995	0.530994
C89	C	-0.750237	0.003863	0.530981
C90	C	-0.750234	0.003858	0.469065
C91	C	-0.711286	-0.035073	0.438114
C92	C	-0.672341	-0.074000	0.469079
C93	C	-0.594439	-0.151854	0.531005
C94	C	-0.594437	-0.151851	0.469082
C95	C	-0.633386	-0.112922	0.438117
C96	C	-0.633390	-0.112936	0.376212
N97	N	-0.672333	-0.074005	0.345244
C98	C	-0.711281	-0.035074	0.376195
C99	C	-0.633412	-0.112917	0.753911
C100	C	-0.633419	-0.112919	0.815829
C101	C	-0.711314	-0.035055	0.815812
C102	C	-0.711309	-0.035055	0.753893
C103	C	-0.672355	-0.073987	0.722943
C104	C	-0.711273	-0.035088	0.246168
C105	C	-0.711269	-0.035098	0.184247
C106	C	-0.633373	-0.112960	0.184269
C107	C	-0.633379	-0.112953	0.246185
C108	C	-0.672331	-0.074012	0.277133
O109	O	-0.600296	-0.146040	0.344147
O110	O	-0.744395	-0.001962	0.344161
H111	H	0.047016	-0.071360	-0.097245
H112	H	-0.582057	0.086018	0.000049
O113	O	-0.595631	-0.150822	0.723876
C114	C	-0.561676	-0.250033	0.704982
C115	C	-0.604502	-0.207170	0.739018
H116	H	-0.568824	-0.295599	0.717220
H117	H	-0.568354	-0.243404	0.655399
H118	H	-0.516110	-0.242823	0.717160
H119	H	-0.650084	-0.214353	0.726889
H120	H	-0.597774	-0.213809	0.788592
O121	O	-0.749034	0.002793	0.276253
C122	C	-0.761618	0.080625	0.346175
C123	C	-0.718790	0.037771	0.312130
H124	H	-0.737183	0.108908	0.375199
H125	H	-0.789444	0.108485	0.313427
H126	H	-0.789940	0.056176	0.375134
H127	H	-0.690430	0.062174	0.283169
H128	H	-0.691004	0.009912	0.344909
O129	O	-0.770720	0.771763	-0.000082
C130	C	-0.830164	0.847075	-0.051034
C131	C	-0.773441	0.806600	-0.050992
H132	H	-0.832378	0.875259	-0.092184
H133	H	-0.867677	0.820741	-0.051069
H134	H	-0.832414	0.875215	-0.009851
H135	H	-0.771135	0.778451	-0.092168
H136	H	-0.735955	0.832968	-0.050926
H137	H	-0.601663	-0.144660	0.159059
O138	O	-0.788087	0.041734	0.439082
C139	C	-0.865365	0.118947	0.445624
C140	C	-0.822519	0.076088	0.479647
H141	H	-0.893222	0.146725	0.478406
H142	H	-0.840968	0.147310	0.416656
H143	H	-0.893652	0.094503	0.416614
H144	H	-0.794220	0.100486	0.508689
H145	H	-0.846951	0.047726	0.508577
H146	H	-0.226218	-0.074638	-0.150876
H147	H	-0.580762	0.193786	0.000054
H148	H	-0.817827	0.499797	0.000039
H149	H	-0.574222	0.740243	0.000020
O150	O	-0.113702	-0.073386	0.159339
C151	C	-0.039929	-0.121949	0.221599
C152	C	-0.072628	-0.122315	0.162620
H153	H	-0.006722	-0.161510	0.224277
H154	H	-0.017519	-0.081779	0.224296
H155	H	-0.071375	-0.122302	0.259911
H156	H	-0.041220	-0.121982	0.124275
H157	H	-0.095047	-0.162481	0.159975
O158	O	-0.787997	0.041739	0.561067
C159	C	-0.800593	0.119572	0.630988
C160	C	-0.757760	0.076719	0.596949
H161	H	-0.776163	0.147856	0.660016
H162	H	-0.828416	0.147430	0.598238
H163	H	-0.828919	0.095122	0.659943
H164	H	-0.729397	0.101123	0.567993
H165	H	-0.729977	0.048861	0.629731
O166	O	0.042429	-0.071422	0.105817
C167	C	0.048713	-0.071389	0.212192
C168	C	0.081352	-0.071013	0.153183
H169	H	0.080170	-0.071070	0.250503
H170	H	0.015483	-0.031847	0.214917
H171	H	0.026322	-0.111572	0.214838
H172	H	0.103778	-0.030856	0.150498
H173	H	0.114550	-0.110581	0.150483
H174	H	-0.226195	-0.074665	0.150952
H175	H	-0.391697	-0.076645	-0.097262
H176	H	-0.743027	-0.003354	0.841024
H177	H	-0.575510	0.632494	0.000012
O178	O	-0.749127	0.002776	0.154260
C179	C	-0.826410	0.079985	0.160790
C180	C	-0.783562	0.037134	0.194820
H181	H	-0.854270	0.107766	0.193567
H182	H	-0.802015	0.108346	0.131818
H183	H	-0.854695	0.055534	0.131783
H184	H	-0.755266	0.061538	0.223858
H185	H	-0.807993	0.008773	0.223754
H186	H	0.154783	-0.070098	0.097339
H187	H	-0.743024	-0.003356	0.728686
H188	H	-0.601668	-0.144658	0.271397
O189	O	-0.595510	-0.150683	0.845878
C190	C	-0.496293	-0.184599	0.864797
C191	C	-0.539167	-0.141793	0.830744
H192	H	-0.450730	-0.177434	0.852564
H193	H	-0.502930	-0.177915	0.914377
H194	H	-0.503483	-0.230171	0.852628
H195	H	-0.532002	-0.096204	0.842863
H196	H	-0.532519	-0.148527	0.781172
H197	H	-0.499463	-0.077943	-0.097260
H198	H	-0.562714	-0.183553	0.443885
O199	O	0.159345	-0.069990	-0.105712
C200	C	0.153066	-0.070085	-0.212087
C201	C	0.120434	-0.070500	-0.153077
H202	H	0.121623	-0.070509	-0.250397
H203	H	0.175418	-0.029880	-0.214804
H204	H	0.186329	-0.109604	-0.214742
H205	H	0.087144	-0.031009	-0.150382
H206	H	0.098121	-0.110731	-0.150385
H207	H	-0.562723	-0.183553	0.556208
H208	H	-0.526863	0.352164	-0.000002
O209	O	-0.113896	-0.073257	-0.159350
C210	C	-0.120188	-0.073338	-0.265723
C211	C	-0.152813	-0.073766	-0.206710
H212	H	-0.151636	-0.073762	-0.304029
H213	H	-0.097842	-0.033129	-0.268438
H214	H	-0.086921	-0.112853	-0.268388
H215	H	-0.186107	-0.034279	-0.204005
H216	H	-0.175119	-0.114001	-0.204020
H217	H	-0.525569	0.459912	-0.000005
O218	O	-0.777332	0.225183	0.000081
C219	C	-0.880409	0.232949	0.000062
C220	C	-0.823656	0.192520	0.000039
H221	H	-0.917876	0.206558	0.000016
H222	H	-0.882707	0.261104	0.041238
H223	H	-0.882654	0.261122	-0.041097
H224	H	-0.821373	0.164311	0.041171
H225	H	-0.821381	0.164404	-0.041163
O226	O	-0.504095	-0.077930	0.105756
C227	C	-0.528957	-0.028832	0.197445
C228	C	-0.496296	-0.028469	0.138448
H229	H	-0.522653	0.011148	0.223899
H230	H	-0.576526	-0.029365	0.188276
H231	H	-0.511837	-0.068575	0.223856
H232	H	-0.513368	0.011269	0.112008
H233	H	-0.448731	-0.027965	0.147659
O234	O	-0.386946	-0.076690	0.105709
C235	C	-0.313173	-0.125254	0.167969
C236	C	-0.345869	-0.125617	0.108988
H237	H	-0.279963	-0.164813	0.170644
H238	H	-0.290765	-0.085083	0.170669
H239	H	-0.344619	-0.125612	0.206279
H240	H	-0.314461	-0.125280	0.070644
H241	H	-0.368286	-0.165785	0.106339
O242	O	-0.778641	0.108106	-0.000011
C243	C	-0.839739	0.049296	-0.050982
C244	C	-0.782239	0.074196	-0.050965
H245	H	-0.842672	0.021885	-0.092181
H246	H	-0.842674	0.021807	-0.009840
H247	H	-0.876460	0.085802	-0.050954
H248	H	-0.745484	0.037727	-0.051014
H249	H	-0.779354	0.101700	-0.092103
H250	H	-0.763925	0.658198	0.000034
O251	O	-0.827381	0.388591	0.000023
C252	C	-0.930307	0.408934	0.000063
C253	C	-0.872772	0.433769	0.000075
H254	H	-0.967021	0.445448	0.000118
H255	H	-0.933285	0.381501	-0.041114
H256	H	-0.933205	0.381461	0.041221
H257	H	-0.869835	0.461267	-0.041055
H258	H	-0.869818	0.461169	0.041279
