data_functionalizedCrystal
_audit_creation_method	'MofGen! by Chris Wilmer'
_symmetry_space_group_name_H-M	'P1'
_symmetry_Int_Tables_number	1
_symmetry_cell_setting	triclinic
loop_
_symmetry_equiv_pos_as_xyz
  x,y,z
_cell_length_a	13.897449
_cell_length_b	13.897447
_cell_length_c	21.395355
_cell_angle_alpha	89.985644
_cell_angle_beta	89.976610
_cell_angle_gamma	90.020810
loop_
_atom_site_label
_atom_site_type_symbol
_atom_site_fract_x
_atom_site_fract_y
_atom_site_fract_z
Zn1	Zn	1.474716	-0.384094	-0.354260
Zn2	Zn	1.474597	-0.545373	-0.249490
Zn3	Zn	1.313397	-0.384097	-0.249499
Zn4	Zn	1.313381	-0.545352	-0.354233
O5	O	1.394023	-0.464729	-0.301870
O6	O	1.609681	-0.405495	-0.340370
O7	O	1.453170	-0.523990	-0.161813
O8	O	1.334853	-0.249115	-0.263411
O9	O	1.609594	-0.523986	-0.263396
O10	O	1.453373	-0.249113	-0.340378
O11	O	1.334738	-0.405502	-0.161820
O12	O	1.178413	-0.405481	-0.263384
O13	O	1.334826	-0.523950	-0.441914
O14	O	1.178402	-0.523954	-0.340332
O15	O	1.453357	-0.405474	-0.441934
O16	O	1.453155	-0.680352	-0.263369
O17	O	1.334710	-0.680336	-0.340323
C18	C	1.143408	-0.464716	-0.301856
C19	C	1.036194	-0.464734	-0.301865
C20	C	0.839899	-0.464737	-0.301881
C21	C	0.949132	-0.464733	-0.301870
C22	C	1.393944	-0.715343	-0.301856
C23	C	1.393999	-0.822557	-0.301871
C24	C	1.394046	-0.909627	-0.301885
C25	C	1.394113	-1.018860	-0.301901
C26	C	1.645616	-0.464743	-0.301885
C27	C	1.752830	-0.464749	-0.301891
C28	C	1.394103	-0.464710	-0.465294
C29	C	1.394137	-0.464701	-0.534935
C30	C	1.394128	-0.213136	-0.301899
C31	C	1.394172	-0.105922	-0.301911
C32	C	1.455854	-0.403008	-0.567660
C33	C	1.455852	-0.402967	-0.633095
C34	C	1.394144	-0.464636	-0.665803
C35	C	1.332416	-0.526333	-0.633071
C36	C	1.332412	-0.526366	-0.567637
C37	C	1.386501	-0.551488	-0.769473
C38	C	1.386511	-0.551457	-0.834906
C39	C	1.394150	-0.464534	-0.867624
C40	C	1.401799	-0.377639	-0.834901
C41	C	1.401795	-0.377672	-0.769467
C42	C	1.394141	-0.464606	-0.736756
C43	C	1.455869	-0.402790	-0.971302
C44	C	1.455861	-0.402747	-1.036738
C45	C	1.332429	-0.526122	-1.036713
C46	C	1.332432	-0.526156	-0.971277
C47	C	1.394157	-0.464492	-0.938576
C48	C	1.393998	-0.464679	-0.139083
C49	C	1.394151	-0.464416	-0.069442
H50	H	1.506114	-0.352795	-0.541038
H51	H	1.380022	-0.622253	-0.742840
N52	N	1.269357	-0.589390	-0.534216
N53	N	1.214257	-0.644442	-0.563423
H54	H	1.169724	-0.688955	-0.539819
H55	H	1.408021	-0.306919	-0.742827
H56	H	1.282170	-0.576541	-0.659706
H57	H	1.506124	-0.352574	-0.944675
H58	H	1.408021	-0.306858	-0.861539
N59	N	1.518896	-0.339933	-0.666522
N60	N	1.573995	-0.284877	-0.637317
H61	H	1.618520	-0.240357	-0.660923
H62	H	1.506117	-0.352504	-1.063382
H63	H	1.282176	-0.576324	-1.063343
H64	H	1.282182	-0.576399	-0.944633
H65	H	1.380289	-0.622212	-0.861544
