data_functionalizedCrystal
_audit_creation_method	'MofGen! by Chris Wilmer'
_symmetry_space_group_name_H-M	'P1'
_symmetry_Int_Tables_number	1
_symmetry_cell_setting	triclinic
loop_
_symmetry_equiv_pos_as_xyz
  x,y,z
_cell_length_a	12.759401
_cell_length_b	12.759399
_cell_length_c	12.759393
_cell_angle_alpha	89.969069
_cell_angle_beta	89.981287
_cell_angle_gamma	90.016641
loop_
_atom_site_label
_atom_site_type_symbol
_atom_site_fract_x
_atom_site_fract_y
_atom_site_fract_z
Zn1	Zn	1.606240	-0.418172	-0.594017
Zn2	Zn	1.606137	-0.593888	-0.418336
Zn3	Zn	1.430546	-0.418228	-0.418352
Zn4	Zn	1.430530	-0.593815	-0.593973
O5	O	1.518363	-0.506026	-0.506170
O6	O	1.753248	-0.441489	-0.570724
O7	O	1.582808	-0.570641	-0.271317
O8	O	1.453902	-0.271200	-0.441680
O9	O	1.753172	-0.570586	-0.441652
O10	O	1.582984	-0.271159	-0.570740
O11	O	1.453802	-0.441584	-0.271329
O12	O	1.283523	-0.441513	-0.441637
O13	O	1.453874	-0.570461	-0.741000
O14	O	1.283511	-0.570515	-0.570665
O15	O	1.582968	-0.441418	-0.741032
O16	O	1.582792	-0.740899	-0.441609
O17	O	1.453774	-0.740845	-0.570649
C18	C	1.245396	-0.506013	-0.506149
C19	C	1.128619	-0.506033	-0.506165
C20	C	1.073779	-0.573307	-0.573244
C21	C	0.964054	-0.573311	-0.573265
C22	C	0.964021	-0.438764	-0.439118
C23	C	1.073743	-0.438756	-0.439104
C24	C	0.814153	-0.611009	-0.697125
C25	C	0.759309	-0.678299	-0.764195
C26	C	0.794905	-0.780830	-0.780142
C27	C	0.885344	-0.816092	-0.729004
C28	C	0.940183	-0.748807	-0.661926
C29	C	0.904588	-0.646262	-0.645999
C30	C	1.223646	-0.401068	-0.315242
C31	C	1.278487	-0.333788	-0.248158
C32	C	1.242893	-0.231255	-0.232200
C33	C	1.152450	-0.195998	-0.283320
C34	C	1.097610	-0.263278	-0.350404
C35	C	1.133212	-0.365809	-0.366363
C36	C	1.518299	-0.778993	-0.506146
C37	C	1.518367	-0.895770	-0.506171
C38	C	1.585624	-0.950625	-0.439056
C39	C	1.585691	-1.060349	-0.439091
C40	C	1.451237	-1.060353	-0.573359
C41	C	1.451176	-0.950631	-0.573328
C42	C	1.709701	-1.210225	-0.401704
C43	C	1.776948	-1.265083	-0.334573
C44	C	1.793115	-1.229543	-0.232062
C45	C	1.742019	-1.139145	-0.196662
C46	C	1.674764	-1.084292	-0.263788
C47	C	1.658618	-1.119831	-0.366313
C48	C	1.327164	-0.800754	-0.610705
C49	C	1.259903	-0.745898	-0.677826
C50	C	1.243726	-0.781437	-0.780338
C51	C	1.294803	-0.871838	-0.815734
C52	C	1.362064	-0.926693	-0.748613
C53	C	1.378243	-0.891147	-0.646102
C54	C	1.792396	-0.506040	-0.506191
C55	C	1.909173	-0.506045	-0.506200
C56	C	1.518431	-0.505925	-0.780203
C57	C	1.518460	-0.505882	-0.896980
C58	C	1.518456	-0.231993	-0.506217
C59	C	1.518496	-0.115216	-0.506237
C60	C	1.451264	-0.573043	-0.951827
C61	C	1.451301	-0.573004	-1.061551
C62	C	1.585734	-0.438633	-1.061572
C63	C	1.585702	-0.438678	-0.951849
C64	C	1.413763	-0.696846	-1.211484
C65	C	1.346550	-0.763998	-1.266335
C66	C	1.244020	-0.780136	-1.230719
C67	C	1.208681	-0.729106	-1.140255
C68	C	1.275888	-0.661946	-1.085410
C69	C	1.378434	-0.645828	-1.121024
C70	C	1.623228	-0.314836	-0.801914
C71	C	1.690431	-0.247669	-0.747067
C72	C	1.792964	-0.231521	-0.782681
C73	C	1.828299	-0.282532	-0.873149
C74	C	1.761096	-0.349698	-0.927996
C75	C	1.658564	-0.365849	-0.892375
C76	C	1.518356	-0.506051	-0.233202
C77	C	1.518530	-0.505798	-0.116426
H78	H	1.287549	-0.176480	-0.177566
Br79	Br	1.884376	-1.303998	-0.140957
H80	H	1.123457	-0.112514	-0.270310
H81	H	1.281631	-0.900774	-0.899208
H82	H	1.218320	-0.672284	-0.649000
H83	H	1.013816	-0.777517	-0.620290
H84	H	1.118455	-0.628085	-0.627852
H85	H	1.340339	-0.771803	-0.527233
Br86	Br	1.642475	-0.178434	-0.624290
H87	H	0.750244	-0.835618	-0.834753
H88	H	1.696555	-1.239163	-0.485179
Br89	Br	0.933637	-0.955257	-0.750631
Br90	Br	0.636577	-0.630446	-0.833596
Br91	Br	0.765851	-0.471845	-0.675508
H92	H	0.919328	-0.383991	-0.384518
H93	H	1.755179	-1.110222	-0.113184
Br94	Br	1.401219	-0.381646	-0.178760
H95	H	1.640479	-0.383917	-1.106260
Br96	Br	0.974858	-0.215432	-0.419774
H97	H	1.789872	-0.391230	-1.001663
H98	H	1.375333	-0.805546	-1.339992
Br99	Br	1.271854	-0.540286	-0.336751
H100	H	1.640337	-0.905960	-0.384374
H101	H	1.633165	-1.010691	-0.234967
H102	H	1.539738	-0.327983	-0.772905
H103	H	1.818551	-1.338685	-0.363405
H104	H	1.396530	-1.105034	-0.628034
H105	H	1.911787	-0.269377	-0.902151
Br106	Br	1.431384	-1.049384	-0.796650
H107	H	1.396505	-0.627759	-0.907155
H108	H	1.188953	-0.736764	-0.834986
Br109	Br	1.069515	-0.750992	-1.091937
Br110	Br	1.227940	-0.592693	-0.962645
Br111	Br	1.152803	-0.871268	-1.305164
H112	H	1.497256	-0.683723	-1.240484
Br113	Br	1.884165	-0.140356	-0.708250
