data_functionalizedCrystal
_audit_creation_method	'MofGen! by Chris Wilmer'
_symmetry_space_group_name_H-M	'P1'
_symmetry_Int_Tables_number	1
_symmetry_cell_setting	triclinic
loop_
_symmetry_equiv_pos_as_xyz
  x,y,z
_cell_length_a	14.560432
_cell_length_b	14.628931
_cell_length_c	14.628931
_cell_angle_alpha	59.999864
_cell_angle_beta	90.000514
_cell_angle_gamma	60.001153
loop_
_atom_site_label
_atom_site_type_symbol
_atom_site_fract_x
_atom_site_fract_y
_atom_site_fract_z
Zr1	Zr	0.884747	1.000603	-0.119965
O2	O	0.738102	1.191306	-0.265925
O3	O	0.929702	0.809899	-0.075219
O4	O	0.929702	1.000605	-0.265925
O5	O	0.738101	1.000600	0.075212
O6	O	1.080840	1.000608	-0.265926
O7	O	0.738102	1.000600	-0.075219
O8	O	1.080840	0.659470	0.075213
O9	O	0.738101	1.341738	-0.265926
O10	O	1.061667	0.888342	-0.056137
O11	O	0.948874	0.888339	0.056129
O12	O	0.948874	1.112871	-0.168403
O13	O	0.836082	1.112868	-0.056137
Zr14	Zr	1.125794	1.000610	0.119957
Zr15	Zr	1.125794	1.000610	-0.119965
Zr16	Zr	0.884747	1.000603	0.119957
Zr17	Zr	0.884747	1.240525	-0.119965
Zr18	Zr	1.125794	0.760688	0.119957
O19	O	1.080839	1.191314	0.075211
O20	O	1.080839	1.191314	-0.265926
O21	O	0.738101	1.191306	0.075212
O22	O	1.272439	0.809907	0.265917
O23	O	1.272440	0.809907	-0.075220
O24	O	0.929702	0.809899	0.265918
O25	O	1.272440	1.000613	-0.075220
O26	O	1.080839	1.000608	0.265917
O27	O	0.929701	1.000605	0.265918
O28	O	1.272439	1.000613	0.075211
O29	O	0.929702	1.341743	-0.265926
O30	O	1.080839	0.659470	0.265918
O31	O	1.272440	0.659475	0.265918
O32	O	1.272440	0.659475	0.075212
O33	O	0.738101	1.341738	-0.075220
O34	O	0.929701	1.341743	-0.075220
O35	O	1.061667	0.888342	0.168395
O36	O	1.174459	0.888345	0.056129
O37	O	1.061667	1.112874	-0.056137
O38	O	0.948874	1.112871	0.056129
C39	C	1.005271	0.700501	-0.000003
C40	C	1.005271	0.598647	-0.000003
C41	C	1.084399	0.369217	0.078755
C42	C	1.084400	0.474486	0.078756
C43	C	0.703757	1.000599	-0.000003
C44	C	0.601427	1.000596	-0.000003
C45	C	0.719166	0.766186	0.117193
C46	C	0.729959	0.648984	0.175785
C47	C	0.633806	0.648990	0.175782
C48	C	0.526852	0.766209	0.117183
C49	C	0.516060	0.883410	0.058591
C50	C	0.612221	0.883392	0.058597
C51	C	0.398322	1.117818	-0.058597
C52	C	0.494473	1.117815	-0.058602
C53	C	0.291368	1.235037	-0.117196
C54	C	0.280574	1.352241	-0.175797
C55	C	0.376735	1.352231	-0.175792
C56	C	0.483680	1.235016	-0.117195
C57	C	1.306784	1.000614	-0.000005
C58	C	1.409114	1.000617	-0.000005
C59	C	1.005271	1.000606	-0.300109
C60	C	1.005271	1.000606	-0.401962
C61	C	1.005270	1.300712	-0.000005
C62	C	1.005270	1.402565	-0.000005
C63	C	1.084399	1.000608	-0.552637
C64	C	1.084400	1.000608	-0.447366
C65	C	1.005270	1.000606	0.300101
C66	C	1.005270	1.000606	0.401954
C67	C	1.306784	0.700508	-0.000004
C68	C	1.409115	0.598658	-0.000004
C69	C	1.005271	0.700501	0.300102
C70	C	1.005271	0.598647	0.401955
C71	C	1.306784	0.700508	0.300101
C72	C	1.409114	0.598658	0.401954
C73	C	0.703757	1.300705	-0.300109
C74	C	0.601427	1.402555	-0.401962
C75	C	0.703757	1.300705	-0.000004
C76	C	0.601426	1.402555	-0.000004
C77	C	1.005271	1.300712	-0.300110
C78	C	1.005271	1.402565	-0.401963
C79	C	1.398785	0.553248	-0.055695
C80	C	1.504548	0.447980	-0.055696
C81	C	1.061223	0.553240	0.503056
C82	C	1.061224	0.447969	0.608327
C83	C	1.510689	0.553251	0.391672
C84	C	1.616455	0.447983	0.496941
H85	H	0.937520	0.627033	-0.067433
Cl86	Cl	1.619520	0.462853	0.073621
Cl87	Cl	0.170490	1.235044	-0.117191
H88	H	1.109120	0.592304	0.511676
H89	H	1.400454	0.559604	0.488691
H90	H	0.797464	0.766169	0.117192
H91	H	0.957364	0.559593	0.393335
H92	H	1.152141	0.446110	0.146189
Cl93	Cl	1.543654	0.538373	0.073605
H94	H	1.109129	0.408918	0.695058
H95	H	0.937529	0.509050	-0.067436
Cl96	Cl	1.264246	0.613546	-0.129317
H97	H	0.817050	0.553547	0.223498
H98	H	1.152147	0.262733	0.146178
H99	H	0.642599	0.553554	0.223497
H100	H	0.448565	0.766203	0.117197
Cl101	Cl	0.146123	1.499585	-0.249446
H102	H	0.957372	0.441601	0.511314
H103	H	1.152140	1.000617	-0.591696
Cl104	Cl	1.524073	0.613553	0.257761
Cl105	Cl	1.491155	0.387687	-0.129307
H106	H	1.703592	0.408931	0.488311
Cl107	Cl	1.471591	0.462849	0.611376
Cl108	Cl	1.189004	1.000601	-0.387075
Cl109	Cl	0.363153	1.499579	-0.249449
H110	H	0.937526	1.000598	-0.441003
Cl111	Cl	0.604566	1.234994	-0.117188
H112	H	0.937522	1.000612	-0.558992
