data_functionalizedCrystal
_audit_creation_method	'MofGen! by Chris Wilmer'
_symmetry_space_group_name_H-M	'P1'
_symmetry_Int_Tables_number	1
_symmetry_cell_setting	triclinic
loop_
_symmetry_equiv_pos_as_xyz
  x,y,z
_cell_length_a	17.019372
_cell_length_b	27.732048
_cell_length_c	15.500227
_cell_angle_alpha	87.200457
_cell_angle_beta	88.970414
_cell_angle_gamma	83.018477
loop_
_atom_site_label
_atom_site_type_symbol
_atom_site_fract_x
_atom_site_fract_y
_atom_site_fract_z
O1	O	1.045614	0.061748	-0.005878
O2	O	1.545614	0.561748	0.494122
O3	O	0.816731	0.069072	0.011162
O4	O	1.316731	0.569072	0.511162
O5	O	0.938280	-0.004942	0.002096
O6	O	1.438280	0.495058	0.502096
O7	O	0.924065	0.135762	0.003187
O8	O	1.424065	0.635762	0.503187
O9	O	0.930905	-0.000468	-0.141242
O10	O	1.430905	0.499532	0.358758
O11	O	0.809356	0.073546	-0.132177
O12	O	1.309356	0.573546	0.367823
O13	O	1.038238	0.066221	-0.149217
O14	O	1.538238	0.566221	0.350783
Cu15	Cu	0.923123	0.070292	-0.153785
Cu16	Cu	1.423123	0.570292	0.346215
Cu17	Cu	0.931846	0.065001	0.015730
Cu18	Cu	1.431846	0.565001	0.515730
O19	O	0.916689	0.140236	-0.140151
O20	O	1.416689	0.640236	0.359849
C21	C	0.783770	0.070944	-0.058328
C22	C	1.283770	0.570944	0.441672
C23	C	0.696546	0.069849	-0.051835
C24	C	1.196546	0.569849	0.448165
C25	C	0.203429	0.063520	-0.011135
C26	C	0.703429	0.563520	0.488865
C27	C	0.285385	0.064548	-0.017247
C28	C	0.785385	0.564548	0.482753
C29	C	0.322334	0.067505	-0.098438
C30	C	0.822334	0.567505	0.401562
C31	C	0.277323	0.069428	-0.173521
C32	C	0.777323	0.569428	0.326479
C33	C	0.195369	0.068396	-0.167408
C34	C	0.695369	0.568396	0.332592
C35	C	0.569581	0.070740	-0.120805
C36	C	1.069581	0.570740	0.379195
C37	C	0.651541	0.071774	-0.126913
C38	C	1.151541	0.571774	0.373087
C39	C	0.659597	0.066893	0.029362
C40	C	1.159597	0.566893	0.529362
C41	C	0.577641	0.065864	0.035468
C42	C	1.077641	0.565864	0.535468
C43	C	0.532638	0.067785	-0.039615
C44	C	1.032638	0.567785	0.460385
C45	C	0.406106	0.068558	-0.104688
C46	C	0.906106	0.568558	0.395312
C47	C	0.448868	0.066728	-0.033364
C48	C	0.948868	0.566728	0.466636
C49	C	0.934294	-0.020714	-0.069553
C50	C	1.434294	0.479286	0.430447
C51	C	0.933395	-0.074374	-0.069494
C52	C	1.433395	0.425626	0.430506
C53	C	0.999568	-0.412780	-0.074376
C54	C	1.499568	0.087220	0.425624
C55	C	0.996234	-0.614461	-0.074115
C56	C	1.496234	-0.114461	0.425885
O57	O	1.056744	-0.645342	-0.078582
O58	O	1.556744	-0.145342	0.421418
N59	N	0.924160	-0.634032	-0.068750
N60	N	1.424160	-0.134032	0.431250
C61	C	0.852915	-0.603180	-0.063444
C62	C	1.352915	-0.103180	0.436556
O63	O	0.791535	-0.624454	-0.058866
O64	O	1.291535	-0.124454	0.441134
C65	C	0.856249	-0.401500	-0.063698
C66	C	1.356249	0.098500	0.436302
C67	C	0.928328	-0.381931	-0.069073
C68	C	1.428328	0.118069	0.430927
C69	C	1.071640	-0.393211	-0.079748
C70	C	1.571640	0.106789	0.420252
C71	C	1.072472	-0.342793	-0.079818
C72	C	1.572472	0.157207	0.420182
C73	C	1.001232	-0.311945	-0.074515
C74	C	1.501232	0.188055	0.425485
C75	C	0.929160	-0.331514	-0.069142
C76	C	1.429160	0.168486	0.430858
C77	C	0.785005	-0.370649	-0.058386
C78	C	1.285005	0.129351	0.441614
C79	C	0.785845	-0.320226	-0.058448
C80	C	1.285845	0.179774	0.441552
C81	C	0.857924	-0.300658	-0.063822
C82	C	1.357924	0.199342	0.436178
C83	C	0.858752	-0.250248	-0.063909
C84	C	1.358752	0.249752	0.436091
N85	N	0.930826	-0.230677	-0.069274
N86	N	1.430826	0.269323	0.430726
C87	C	1.002066	-0.261526	-0.074577
C88	C	1.502066	0.238474	0.425423
C89	C	0.851169	-0.709065	-0.063313
C90	C	1.351169	-0.209065	0.436687
C91	C	0.850335	-0.759484	-0.063251
C92	C	1.350335	-0.259484	0.436749
C93	C	0.993655	-0.770762	-0.073920
C94	C	1.493655	-0.270762	0.426080
C95	C	0.994487	-0.720341	-0.073989
C96	C	1.494487	-0.220341	0.426011
C97	C	0.923243	-0.689493	-0.068678
C98	C	1.423243	-0.189493	0.431322
C99	C	1.003809	-0.155645	-0.074724
C100	C	1.503809	0.344355	0.425276
C101	C	1.004635	-0.105223	-0.074797
C102	C	1.504635	0.394777	0.425203
C103	C	0.861316	-0.093950	-0.064123
C104	C	1.361316	0.406050	0.435877
C105	C	0.860489	-0.144367	-0.064054
C106	C	1.360489	0.355633	0.435946
C107	C	0.931742	-0.175214	-0.069352
C108	C	1.431742	0.324786	0.430648
O109	O	0.798275	-0.219339	-0.059435
O110	O	1.298275	0.280661	0.440565
O111	O	1.063438	-0.240242	-0.079135
O112	O	1.563438	0.259758	0.420865
C113	C	0.998735	-0.463197	-0.074306
C114	C	1.498735	0.036803	0.425694
C115	C	0.926663	-0.482766	-0.068933
C116	C	1.426663	0.017234	0.431067
C117	C	0.855423	-0.451918	-0.063630
C118	C	1.355423	0.048082	0.436370
C119	C	0.925829	-0.533186	-0.068871
C120	C	1.425829	-0.033186	0.431129
C121	C	0.997069	-0.564034	-0.074174
C122	C	1.497069	-0.064034	0.425826
C123	C	1.069143	-0.544463	-0.079539
C124	C	1.569143	-0.044463	0.420461
C125	C	1.069975	-0.494046	-0.079609
C126	C	1.569975	0.005954	0.420391
C127	C	0.783349	-0.471489	-0.058265
C128	C	1.283349	0.028511	0.441735
C129	C	0.782522	-0.521907	-0.058197
C130	C	1.282522	-0.021907	0.441803
C131	C	0.853762	-0.552755	-0.063500
C132	C	1.353762	-0.052755	0.436500
C133	C	1.071199	0.064350	-0.079725
C134	C	1.571199	0.564350	0.420275
C135	C	1.158424	0.065444	-0.086212
C136	C	1.658424	0.565444	0.413788
C137	C	0.920676	0.156007	-0.068500
C138	C	1.420676	0.656007	0.431500
C139	C	0.921575	0.209668	-0.068554
C140	C	1.421575	0.709668	0.431446
N141	N	0.916994	0.074013	-0.273013
N142	N	1.416994	0.574013	0.226987
C143	C	0.968516	0.042662	-0.322132
C144	C	1.468516	0.542662	0.177868
C145	C	0.963888	0.045481	-0.412360
C146	C	1.463888	0.545481	0.087640
C147	C	0.907741	0.079653	-0.453466
C148	C	1.407741	0.579653	0.046534
C149	C	0.856213	0.111005	-0.404340
C150	C	1.356213	0.611005	0.095660
C151	C	0.860838	0.108184	-0.314114
C152	C	1.360838	0.608184	0.185886
C153	C	0.891079	0.089808	-0.725691
C154	C	1.391079	0.589808	-0.225691
C155	C	0.886459	0.092628	-0.815924
C156	C	1.386459	0.592628	-0.315924
C157	C	0.994134	0.027102	-0.823937
C158	C	1.494134	0.527102	-0.323937
C159	C	0.998757	0.024286	-0.733708
C160	C	1.498757	0.524286	-0.233708
C161	C	0.947227	0.055637	-0.684590
C162	C	1.447227	0.555637	-0.184590
C163	C	0.903010	0.082536	-0.545694
C164	C	1.403010	0.582536	-0.045694
C165	C	0.951954	0.052751	-0.592364
C166	C	1.451954	0.552751	-0.092364
N167	N	0.937981	0.061277	0.134957
N168	N	1.437981	0.561277	0.634957
H169	H	0.418781	0.064319	0.032741
H170	H	0.918781	0.564319	0.532741
H171	H	0.173351	0.061116	0.054980
H172	H	0.673351	0.561116	0.554980
H173	H	0.547563	0.063456	0.101582
H174	H	1.047563	0.563456	0.601582
O175	O	0.708997	-0.286957	-0.052729
O176	O	1.208997	0.213043	0.447271
H177	H	0.708947	-0.265535	0.005920
H178	H	1.208947	0.234465	0.505920
H179	H	0.849122	0.115335	-0.685705
H180	H	1.349122	0.615335	-0.185705
O181	O	1.082383	-0.084119	-0.080579
O182	O	1.582383	0.415881	0.419421
H183	H	1.113585	-0.094689	-0.141541
H184	H	1.613585	0.405311	0.358459
O185	O	1.012508	0.015895	-0.548027
O186	O	1.512508	0.515895	-0.048027
H187	H	1.047560	-0.005436	-0.597338
H188	H	1.547560	0.494564	-0.097338
H189	H	1.005841	0.019952	-0.452352
H190	H	1.505841	0.519952	0.047648
O191	O	0.708143	0.064809	0.110337
O192	O	1.208143	0.564809	0.610337
H193	H	0.738279	0.098070	0.111857
H194	H	1.238279	0.598070	0.611857
O195	O	0.842458	0.119394	-0.590037
O196	O	1.342458	0.619394	-0.090037
H197	H	0.807403	0.140723	-0.540726
H198	H	1.307403	0.640723	-0.040726
H199	H	0.681621	0.074185	-0.193031
H200	H	1.181621	0.574185	0.306969
H201	H	0.726312	-0.386573	-0.054005
H202	H	1.226312	0.113427	0.445995
H203	H	0.810493	0.138827	-0.437814
H204	H	1.310493	0.638827	0.062186
H205	H	0.532951	0.072297	-0.181944
H206	H	1.032951	0.572297	0.318056
H207	H	0.307414	0.071832	-0.239629
H208	H	0.807414	0.571832	0.260371
H209	H	0.803314	-0.068824	-0.059808
H210	H	1.303314	0.431176	0.440192
O211	O	1.150218	-0.321694	-0.085606
O212	O	1.650218	0.178306	0.414394
H213	H	1.138842	-0.281451	-0.084768
H214	H	1.638842	0.218549	0.415232
H215	H	0.818882	0.133712	-0.274121
H216	H	1.318882	0.633712	0.225879
H217	H	0.322026	0.062978	0.043889
H218	H	0.822026	0.562978	0.543889
O219	O	0.445959	0.071756	-0.192256
O220	O	0.945959	0.571756	0.307744
H221	H	0.490516	0.039433	-0.199341
H222	H	0.990516	0.539433	0.300659
H223	H	0.158726	0.069968	-0.228544
H224	H	0.658726	0.569968	0.271456
H225	H	0.791641	-0.775412	-0.058890
H226	H	1.291641	-0.275412	0.441110
H227	H	1.061830	-0.180755	-0.079035
H228	H	1.561830	0.319245	0.420965
O229	O	1.148483	-0.426480	-0.085481
O230	O	1.648483	0.073520	0.414519
H231	H	1.198731	-0.404393	-0.089235
H232	H	1.698731	0.095607	0.410765
H233	H	1.053180	-0.704412	-0.078364
H234	H	1.553180	-0.204412	0.421636
H235	H	1.044477	-0.003539	-0.700241
H236	H	1.544477	0.496461	-0.200241
O237	O	1.070496	-0.804038	-0.079634
O238	O	1.570496	-0.304038	0.420366
H239	H	1.057800	-0.842384	-0.078680
H240	H	1.557800	-0.342384	0.421320
H241	H	0.840735	0.120457	-0.849388
H242	H	1.340735	0.620457	-0.349388
H243	H	0.793149	-0.683952	-0.058988
H244	H	1.293149	-0.183952	0.441012
O245	O	0.782751	-0.165479	-0.058261
O246	O	1.282751	0.334521	0.441739
H247	H	0.733354	-0.135555	-0.054581
H248	H	1.233354	0.364445	0.445419
H249	H	1.128669	-0.478118	-0.083985
H250	H	1.628669	0.021882	0.416015
O251	O	1.049705	-0.006714	-0.876911
O252	O	1.549705	0.493286	-0.376911
H253	H	1.037054	0.000983	-0.946557
H254	H	1.537054	0.500983	-0.446557
O255	O	1.145984	-0.577739	-0.085259
O256	O	1.645984	-0.077739	0.414741
H257	H	1.133287	-0.616085	-0.084303
H258	H	1.633287	-0.116085	0.415697
O259	O	0.704776	-0.543011	-0.052402
O260	O	1.204776	-0.043011	0.447598
H261	H	0.655383	-0.513085	-0.048718
H262	H	1.155383	-0.013085	0.451282
H263	H	0.725335	-0.446377	-0.053945
H264	H	1.225335	0.053623	0.446055
H265	H	1.014240	0.014838	-0.288669
H266	H	1.514240	0.514838	0.211331
