data_functionalizedCrystal
_audit_creation_method	'MofGen! by Chris Wilmer'
_symmetry_space_group_name_H-M	'P1'
_symmetry_Int_Tables_number	1
_symmetry_cell_setting	triclinic
loop_
_symmetry_equiv_pos_as_xyz
  x,y,z
_cell_length_a	19.077105
_cell_length_b	18.050589
_cell_length_c	19.077271
_cell_angle_alpha	87.709704
_cell_angle_beta	89.912562
_cell_angle_gamma	87.724731
loop_
_atom_site_label
_atom_site_type_symbol
_atom_site_fract_x
_atom_site_fract_y
_atom_site_fract_z
Zn1	Zn	1.058165	-0.359400	0.440435
Zn2	Zn	1.558165	0.140600	0.940435
Zn3	Zn	1.062819	-0.478776	0.322936
Zn4	Zn	1.562819	0.021224	0.822936
Zn5	Zn	0.945407	-0.349418	0.318229
Zn6	Zn	1.445407	0.150582	0.818229
Zn7	Zn	0.940620	-0.478359	0.435688
Zn8	Zn	1.440620	0.021641	0.935688
O9	O	1.001753	-0.416488	0.379322
O10	O	1.501753	0.083512	0.879322
O11	O	1.157114	-0.379588	0.428805
O12	O	1.657114	0.120412	0.928805
O13	O	1.051195	-0.457614	0.223981
O14	O	1.551195	0.042386	0.723981
O15	O	0.960420	-0.246821	0.334456
O16	O	1.460420	0.253179	0.834456
O17	O	1.160533	-0.467293	0.342479
O18	O	1.660533	0.032707	0.842479
O19	O	1.043263	-0.254154	0.424241
O20	O	1.543263	0.245846	0.924241
O21	O	0.964932	-0.362575	0.220522
O22	O	1.464932	0.137425	0.720522
O23	O	0.846441	-0.362171	0.329853
O24	O	1.346441	0.137829	0.829853
O25	O	0.952262	-0.466581	0.534648
O26	O	1.452262	0.033419	1.034648
O27	O	0.842924	-0.456903	0.416150
O28	O	1.342924	0.043097	0.916150
O29	O	1.038622	-0.379183	0.538136
O30	O	1.538622	0.120817	1.038136
O31	O	1.046554	-0.582643	0.337876
O32	O	1.546554	-0.082643	0.837876
O33	O	0.956775	-0.582336	0.420714
O34	O	1.456775	-0.082336	0.920714
C35	C	0.819187	-0.408409	0.371976
C36	C	1.319187	0.091591	0.871976
C37	C	0.741083	-0.404971	0.368850
C38	C	1.241083	0.095029	0.868850
C39	C	0.702580	-0.452746	0.412241
C40	C	1.202580	0.047254	0.912241
C41	C	0.629194	-0.449506	0.409307
C42	C	1.129194	0.050494	0.909307
C43	C	0.594312	-0.398494	0.362978
C44	C	1.094312	0.101506	0.862978
C45	C	0.632820	-0.350713	0.319586
C46	C	1.132820	0.149287	0.819586
C47	C	0.706205	-0.353950	0.322524
C48	C	1.206205	0.146050	0.822524
C49	C	0.375028	-0.383513	0.349385
C50	C	0.875028	0.116487	0.849385
C51	C	0.301638	-0.380282	0.346449
C52	C	0.801638	0.119718	0.846449
C53	C	0.298017	-0.479074	0.436171
C54	C	0.798017	0.020926	0.936171
C55	C	0.371404	-0.482309	0.439102
C56	C	0.871404	0.017691	0.939102
C57	C	0.409905	-0.434526	0.395712
C58	C	0.909905	0.065474	0.895712
N59	N	0.519299	-0.395183	0.359977
N60	N	1.019299	0.104817	0.859977
N61	N	0.484916	-0.437835	0.398718
N62	N	0.984916	0.062165	0.898718
C63	C	1.001669	-0.609436	0.379307
C64	C	1.501669	-0.109436	0.879307
C65	C	1.001696	-0.691984	0.379326
C66	C	1.501696	-0.191984	0.879326
C67	C	0.952921	-0.891296	0.424359
C68	C	1.452921	-0.391296	0.924359
C69	C	0.938383	-0.937353	0.359553
C70	C	1.438383	-0.437353	0.859553
C71	C	1.001764	-0.843118	0.379338
C72	C	1.501764	-0.343118	0.879338
C73	C	1.016337	-0.944145	0.444153
C74	C	1.516337	-0.444145	0.944153
C75	C	1.001829	-0.989106	0.379355
C76	C	1.501829	-0.489106	0.879355
C77	C	0.987194	-0.888084	0.314497
C78	C	1.487194	-0.388084	0.814497
C79	C	1.065176	-0.894875	0.399142
C80	C	1.565176	-0.394875	0.899142
C81	C	1.050664	-0.940909	0.334292
C82	C	1.550664	-0.440909	0.834292
C83	C	1.001725	-0.759018	0.379329
C84	C	1.501725	-0.259018	0.879329
C85	C	1.001869	-1.073205	0.379357
C86	C	1.501869	-0.573205	0.879357
C87	C	1.185032	-0.424600	0.386697
C88	C	1.685032	0.075400	0.886697
C89	C	1.263135	-0.428057	0.389840
C90	C	1.763135	0.071943	0.889840
C91	C	0.994389	-0.423949	0.562601
C92	C	1.494389	0.076051	1.062601
C93	C	0.991251	-0.427128	0.640704
C94	C	1.491251	0.072872	1.140704
C95	C	1.001856	-0.222789	0.379353
C96	C	1.501856	0.277211	0.879353
C97	C	1.001900	-0.140245	0.379366
C98	C	1.501900	0.359755	0.879366
C99	C	1.034737	-0.383120	0.679213
C100	C	1.534737	0.116880	1.179213
C101	C	1.031780	-0.386104	0.752599
C102	C	1.531780	0.113896	1.252599
C103	C	0.985340	-0.433101	0.787473
C104	C	1.485340	0.066899	1.287473
C105	C	0.941849	-0.477110	0.748958
C106	C	1.441849	0.022890	1.248958
C107	C	0.944803	-0.474122	0.675574
C108	C	1.444803	0.025878	1.175574
C109	C	0.971680	-0.446914	1.006753
C110	C	1.471680	0.053086	1.506753
C111	C	0.968731	-0.449901	1.080143
C112	C	1.468731	0.050099	1.580143
C113	C	1.058662	-0.358893	1.083778
C114	C	1.558662	0.141107	1.583778
C115	C	1.061615	-0.355912	1.010393
C116	C	1.561615	0.144088	1.510393
C117	C	1.018121	-0.399919	0.971884
C118	C	1.518121	0.100081	1.471884
N119	N	0.982318	-0.436154	0.862485
N120	N	1.482318	0.063846	1.362485
N121	N	1.021140	-0.396862	0.896873
N122	N	1.521140	0.103138	1.396873
C123	C	1.009082	-0.409073	1.196755
C124	C	1.509082	0.090927	1.696755
C125	C	1.012217	-0.405893	1.118653
C126	C	1.512217	0.094107	1.618653
H127	H	0.604412	-0.309175	0.281867
H128	H	1.104412	0.190825	0.781867
H129	H	1.092000	-0.962550	0.296181
H130	H	1.592000	-0.462550	0.796181
H131	H	1.118758	-0.876087	0.415907
H132	H	1.618758	-0.376087	0.915907
C133	C	0.923833	-0.495321	0.964403
C134	C	1.423833	0.004679	1.464403
N135	N	0.887791	-0.531782	0.932502
N136	N	1.387791	-0.031782	1.432502
H137	H	1.028636	-0.968658	0.498960
H138	H	1.528636	-0.468658	0.998960
H139	H	0.974832	-0.863658	0.259673
H140	H	1.474832	-0.363658	0.759673
H141	H	0.737553	-0.315043	0.287194
H142	H	1.237553	0.184957	0.787194
C143	C	1.085825	-0.331419	0.640858
C144	C	1.585825	0.168581	1.140858
N145	N	1.124304	-0.292473	0.611971
N146	N	1.624304	0.207527	1.111971
C147	C	1.079620	-0.337693	0.794956
C148	C	1.579620	0.162307	1.294956
N149	N	1.115656	-0.301227	0.826860
N150	N	1.615656	0.198773	1.326860
H151	H	1.099434	-0.317645	0.982003
H152	H	1.599434	0.182355	1.482003
H153	H	1.094071	-0.323064	1.115140
H154	H	1.594071	0.176936	1.615140
C155	C	0.255659	-0.531627	0.483902
C156	C	0.755659	-0.031627	0.983902
N157	N	0.223755	-0.571209	0.519857
N158	N	0.723755	-0.071209	1.019857
H159	H	0.909384	-0.509950	0.644220
H160	H	1.409384	-0.009950	1.144220
H161	H	0.911559	-0.869512	0.462373
H162	H	1.411559	-0.369512	0.962373
C163	C	0.917638	-0.501600	1.118503
C164	C	1.417638	-0.001600	1.618503
N165	N	0.879158	-0.540539	1.147396
N166	N	1.379158	-0.040539	1.647396
H167	H	0.884788	-0.956144	0.342818
H168	H	1.384788	-0.456144	0.842818
C169	C	0.586845	-0.502077	0.457027
C170	C	1.086845	-0.002077	0.957027
N171	N	0.554948	-0.541681	0.492968
N172	N	1.054948	-0.041681	0.992968
H173	H	0.904033	-0.515373	0.777358
H174	H	1.404033	-0.015373	1.277358
C175	C	0.417370	-0.330954	0.301650
C176	C	0.917370	0.169046	0.801650
N177	N	0.449265	-0.291366	0.265692
N178	N	0.949265	0.208634	0.765692
C179	C	0.409769	-0.538430	0.490064
C180	C	0.909769	-0.038430	0.990064
N181	N	0.438665	-0.580705	0.528446
N182	N	0.938665	-0.080705	1.028446
C183	C	0.740944	-0.508865	0.463206
C184	C	1.240944	-0.008865	0.963206
N185	N	0.769837	-0.551133	0.501597
N186	N	1.269837	-0.051133	1.001597
H187	H	0.273238	-0.338733	0.308727
H188	H	0.773238	0.161267	0.808727
