data_functionalizedCrystal
_audit_creation_method	'MofGen! by Chris Wilmer'
_symmetry_space_group_name_H-M	'P1'
_symmetry_Int_Tables_number	1
_symmetry_cell_setting	triclinic
loop_
_symmetry_equiv_pos_as_xyz
  x,y,z
_cell_length_a	21.395362
_cell_length_b	18.050589
_cell_length_c	21.395356
_cell_angle_alpha	89.977426
_cell_angle_beta	89.964122
_cell_angle_gamma	90.044101
loop_
_atom_site_label
_atom_site_type_symbol
_atom_site_fract_x
_atom_site_fract_y
_atom_site_fract_z
Zn1	Zn	0.957820	-0.295360	-0.354610
Zn2	Zn	0.957742	-0.419553	-0.249843
Zn3	Zn	0.853050	-0.295415	-0.249811
Zn4	Zn	0.853009	-0.419547	-0.354547
O5	O	0.905406	-0.357469	-0.302203
O6	O	1.045488	-0.311813	-0.340752
O7	O	0.943839	-0.403111	-0.162161
O8	O	0.866998	-0.191483	-0.263726
O9	O	1.045431	-0.403057	-0.263780
O10	O	0.943972	-0.191443	-0.340721
O11	O	0.866922	-0.311908	-0.162138
O12	O	0.765367	-0.311903	-0.263665
O13	O	0.866928	-0.403048	-0.442234
O14	O	0.765337	-0.403101	-0.340615
O15	O	0.943933	-0.311808	-0.442280
O16	O	0.943799	-0.523476	-0.263719
O17	O	0.866852	-0.523472	-0.340645
C18	C	0.742618	-0.357508	-0.302130
C19	C	0.672977	-0.357543	-0.302114
C20	C	0.640264	-0.405093	-0.342121
C21	C	0.574829	-0.405075	-0.342149
C22	C	0.542108	-0.357514	-0.302159
C23	C	0.574829	-0.309955	-0.262148
C24	C	0.640263	-0.309969	-0.262126
C25	C	0.438391	-0.351543	-0.245753
C26	C	0.372958	-0.351533	-0.245774
C27	C	0.340288	-0.357466	-0.302228
C28	C	0.373058	-0.363422	-0.358662
C29	C	0.438492	-0.363437	-0.358640
C30	C	0.471156	-0.357493	-0.302179
C31	C	0.236623	-0.404999	-0.342269
C32	C	0.171186	-0.404975	-0.342298
C33	C	0.171187	-0.309859	-0.262291
C34	C	0.236622	-0.309878	-0.262268
C35	C	0.269336	-0.357452	-0.302256
C36	C	0.905330	-0.550421	-0.302192
C37	C	0.905355	-0.632967	-0.302209
C38	C	0.863552	-0.832442	-0.344027
C39	C	0.848282	-0.881886	-0.286848
C40	C	0.905416	-0.784097	-0.302217
C41	C	0.920717	-0.881734	-0.359402
C42	C	0.905475	-0.930082	-0.302230
C43	C	0.890116	-0.832454	-0.245009
C44	C	0.962578	-0.832298	-0.317601
C45	C	0.947330	-0.881720	-0.260383
C46	C	0.905381	-0.699999	-0.302211
C47	C	0.905510	-1.014178	-0.302230
C48	C	1.068829	-0.357430	-0.302276
C49	C	1.138470	-0.357413	-0.302307
C50	C	0.905435	-0.357421	-0.465626
C51	C	0.905447	-0.357401	-0.535268
C52	C	0.905499	-0.163763	-0.302227
C53	C	0.905538	-0.081217	-0.302237
C54	C	0.945602	-0.309774	-1.037089
C55	C	0.945597	-0.309792	-0.971653
C56	C	0.905501	-0.357302	-0.938906
C57	C	0.865417	-0.404811	-0.971600
C58	C	0.865428	-0.404797	-1.037034
C59	C	0.849032	-0.363202	-0.835211
C60	C	0.849020	-0.363210	-0.769778
C61	C	0.905469	-0.357349	-0.737085
C62	C	0.961930	-0.351464	-0.769833
C63	C	0.961941	-0.351450	-0.835267
C64	C	0.905485	-0.357323	-0.867954
C65	C	0.945547	-0.309866	-0.633447
C66	C	0.945543	-0.309889	-0.568010
C67	C	0.865358	-0.404905	-0.567958
C68	C	0.865367	-0.404885	-0.633393
C69	C	0.905461	-0.357362	-0.666134
C70	C	0.905413	-0.357463	-0.139415
C71	C	0.905522	-0.357274	-0.069774
H72	H	0.346459	-0.368252	-0.404632
H73	H	0.263260	-0.443732	-0.374833
Cl74	Cl	0.130061	-0.464754	-0.392601
H75	H	0.548183	-0.271229	-0.229589
Cl76	Cl	0.130059	-0.250063	-0.212020
H77	H	0.799970	-0.903683	-0.273849
H78	H	0.978252	-0.271080	-1.063742
H79	H	0.832713	-0.443591	-0.541296
H80	H	0.828097	-0.810803	-0.379334
H81	H	0.877142	-0.810896	-0.196640
Cl82	Cl	1.002030	-0.914918	-0.205743
Cl83	Cl	0.681387	-0.464896	-0.392395
H84	H	0.263257	-0.271162	-0.229686
H85	H	0.548189	-0.443795	-0.374731
H86	H	0.832727	-0.443562	-0.660006
H87	H	0.346282	-0.346688	-0.199822
H88	H	1.010880	-0.810503	-0.330628
Cl89	Cl	0.940662	-0.915160	-0.434057
Cl90	Cl	0.815037	-0.464516	-1.078126
H91	H	0.465171	-0.368285	-0.404590
H92	H	1.007896	-0.346688	-0.743216
H93	H	0.978235	-0.271109	-0.945036
Cl94	Cl	0.778041	-0.370602	-0.728616
H95	H	1.007914	-0.346659	-0.861928
Cl96	Cl	0.995938	-0.250111	-0.674610
Cl97	Cl	0.995938	-0.250174	-0.526919
Cl98	Cl	0.815012	-0.464540	-0.930432
H99	H	0.464986	-0.346709	-0.199778
Cl100	Cl	0.681389	-0.250187	-0.211826
H101	H	0.803062	-0.367975	-0.861825
