data_functionalizedCrystal
_audit_creation_method	'MofGen! by Chris Wilmer'
_symmetry_space_group_name_H-M	'P1'
_symmetry_Int_Tables_number	1
_symmetry_cell_setting	triclinic
loop_
_symmetry_equiv_pos_as_xyz
  x,y,z
_cell_length_a	12.759401
_cell_length_b	21.295417
_cell_length_c	12.759393
_cell_angle_alpha	89.961880
_cell_angle_beta	89.981287
_cell_angle_gamma	90.032032
loop_
_atom_site_label
_atom_site_type_symbol
_atom_site_fract_x
_atom_site_fract_y
_atom_site_fract_z
Zn1	Zn	1.606128	-0.250553	-0.593965
Zn2	Zn	1.605977	-0.355835	-0.418261
Zn3	Zn	1.430433	-0.250587	-0.418300
Zn4	Zn	1.430370	-0.355791	-0.593899
O5	O	1.518227	-0.303191	-0.506106
O6	O	1.753129	-0.264523	-0.570669
O7	O	1.582655	-0.341906	-0.271245
O8	O	1.453829	-0.162493	-0.441646
O9	O	1.753018	-0.341874	-0.441580
O10	O	1.582911	-0.162468	-0.570706
O11	O	1.453683	-0.264580	-0.271274
O12	O	1.283404	-0.264538	-0.441582
O13	O	1.453721	-0.341799	-0.740929
O14	O	1.283357	-0.341831	-0.570594
O15	O	1.582850	-0.264481	-0.740977
O16	O	1.582593	-0.443919	-0.441516
O17	O	1.453575	-0.443886	-0.570556
C18	C	1.245260	-0.303184	-0.506085
C19	C	1.128483	-0.303196	-0.506101
C20	C	1.073624	-0.343503	-0.573172
C21	C	0.963900	-0.343506	-0.573193
C22	C	0.963903	-0.262891	-0.439063
C23	C	1.073626	-0.262886	-0.439048
C24	C	0.813989	-0.366093	-0.697048
C25	C	0.759127	-0.406411	-0.764110
C26	C	0.794696	-0.467844	-0.780044
C27	C	0.885125	-0.488971	-0.728901
C28	C	0.939982	-0.448657	-0.661832
C29	C	0.904415	-0.387215	-0.645918
C30	C	1.223539	-0.240305	-0.315192
C31	C	1.278397	-0.199993	-0.248116
C32	C	1.242831	-0.138559	-0.232171
C33	C	1.152398	-0.117434	-0.283295
C34	C	1.097539	-0.157746	-0.350371
C35	C	1.133113	-0.219179	-0.366317
C36	C	1.518089	-0.466743	-0.506048
C37	C	1.518127	-0.536711	-0.506058
C38	C	1.585366	-0.569574	-0.438936
C39	C	1.585415	-0.635316	-0.438960
C40	C	1.518206	-0.668194	-0.506094
C41	C	1.450962	-0.635323	-0.573230
C42	C	1.450922	-0.569582	-0.573212
N43	N	1.426299	-0.771460	-0.514097
N44	N	1.426340	-0.833912	-0.514108
C45	C	1.518324	-0.866268	-0.506155
N46	N	1.610268	-0.833814	-0.498169
N47	N	1.610226	-0.771357	-0.498153
C48	C	1.518243	-0.739479	-0.506122
C49	C	1.585622	-0.970416	-0.439054
C50	C	1.585673	-1.036160	-0.439085
C51	C	1.451211	-1.036166	-0.573350
C52	C	1.451170	-0.970423	-0.573325
C53	C	1.518374	-0.937553	-0.506171
C54	C	1.792260	-0.303200	-0.506128
C55	C	1.909037	-0.303203	-0.506137
C56	C	1.518295	-0.303131	-0.780140
C57	C	1.518324	-0.303105	-0.896916
C58	C	1.518394	-0.139001	-0.506188
C59	C	1.518465	-0.069033	-0.506222
C60	C	1.451110	-0.343346	-0.951755
C61	C	1.451147	-0.343322	-1.061479
C62	C	1.585617	-0.262812	-1.061517
C63	C	1.585584	-0.262839	-0.951794
C64	C	1.413576	-0.417523	-1.211397
C65	C	1.346345	-0.457758	-1.266239
C66	C	1.243810	-0.467428	-1.230621
C67	C	1.208485	-0.436853	-1.140163
C68	C	1.275710	-0.396613	-1.085327
C69	C	1.378260	-0.386956	-1.120943
C70	C	1.623144	-0.188638	-0.801875
C71	C	1.690365	-0.148394	-0.747036
C72	C	1.792901	-0.138718	-0.782652
C73	C	1.828223	-0.169282	-0.873113
C74	C	1.761002	-0.209526	-0.927952
C75	C	1.658466	-0.219202	-0.892329
C76	C	1.518220	-0.303206	-0.233139
C77	C	1.518395	-0.303055	-0.116363
H78	H	1.023909	-0.140539	-0.392006
O79	O	1.237624	-0.363648	-0.987756
H80	H	1.169378	-0.333616	-1.007605
O81	O	1.171277	-0.510801	-1.289794
H82	H	1.213059	-0.530429	-1.358683
O83	O	1.658135	-0.219380	-1.120727
H84	H	1.740581	-0.230182	-1.099688
H85	H	1.396493	-1.062934	-0.628017
H86	H	1.640434	-1.062916	-0.384428
H87	H	1.539650	-0.196515	-0.772864
O88	O	1.261902	-0.306570	-0.332383
H89	H	1.279522	-0.313563	-0.416763
O90	O	1.378561	-0.386775	-0.892574
H91	H	1.425523	-0.418816	-0.842561
H92	H	1.640090	-0.542812	-0.384258
O93	O	1.114028	-0.051172	-0.266110
H94	H	1.167373	-0.026688	-0.210890
H95	H	1.013607	-0.465858	-0.620192
H96	H	1.640173	-0.662078	-0.384301
O97	O	1.378458	-0.670778	-0.645631
H98	H	1.389770	-0.722014	-0.634356
O99	O	1.378378	-0.534131	-0.645591
H100	H	1.331642	-0.568034	-0.692272
H101	H	1.396413	-0.943665	-0.627977
H102	H	1.640348	-0.943652	-0.384377
H103	H	0.750019	-0.500670	-0.834648
H104	H	1.124986	-0.444723	-1.111178
H105	H	1.789767	-0.234410	-1.001614
H106	H	1.118286	-0.376325	-0.627773
O107	O	1.384438	-0.490737	-1.363801
H108	H	1.467041	-0.477264	-1.379348
O109	O	0.661592	-0.383624	-0.819262
H110	H	0.629411	-0.421984	-0.868557
O111	O	0.923487	-0.555235	-0.746078
H112	H	0.870154	-0.579717	-0.801313
O113	O	1.524159	-0.407072	-1.249837
H114	H	1.537409	-0.435075	-1.321968
H115	H	1.911714	-0.161400	-0.902117
O116	O	1.865411	-0.095314	-0.723506
H117	H	1.823630	-0.075685	-0.654617
O118	O	1.375941	-0.222777	-0.192978
H119	H	1.364364	-0.219742	-0.106910
H120	H	1.661594	-0.123503	-0.673383
O121	O	0.775628	-0.299829	-0.679879
H122	H	0.828973	-0.275339	-0.624664
H123	H	0.919225	-0.230073	-0.384470
O124	O	1.301997	-0.095077	-0.159826
H125	H	1.370857	-0.120084	-0.126950
