data_functionalizedCrystal
_audit_creation_method	'MofGen! by Chris Wilmer'
_symmetry_space_group_name_H-M	'P1'
_symmetry_Int_Tables_number	1
_symmetry_cell_setting	triclinic
loop_
_symmetry_equiv_pos_as_xyz
  x,y,z
_cell_length_a	6.817900
_cell_length_b	12.000055
_cell_length_c	19.551136
_cell_angle_alpha	92.526283
_cell_angle_beta	78.349158
_cell_angle_gamma	60.857764
loop_
_atom_site_label
_atom_site_type_symbol
_atom_site_fract_x
_atom_site_fract_y
_atom_site_fract_z
V1	V	4.213999	-0.399216	-0.099333
O2	O	4.206921	-0.390968	0.002044
O3	O	4.155607	-0.397108	-0.194336
O4	O	4.251196	-0.573043	-0.099003
O5	O	4.110669	-0.213816	-0.093949
V6	V	4.687831	-0.376965	-0.087066
O7	O	4.496517	-0.448025	-0.126243
O8	O	4.855510	-0.328155	-0.060156
O9	O	4.523017	-0.379072	0.007937
O10	O	4.812306	-0.385212	-0.188443
O11	O	4.908558	-0.562365	-0.092450
O12	O	4.427427	-0.203137	-0.087396
C13	C	3.995407	-0.390971	-0.217459
C14	C	4.029521	-0.390407	-0.295132
C15	C	3.948642	-0.272991	-0.320841
C16	C	3.980749	-0.272422	-0.393822
C17	C	4.093697	-0.389273	-0.441090
C18	C	4.174596	-0.506705	-0.415374
C19	C	4.142509	-0.507272	-0.342395
C20	C	4.099930	-0.474000	-0.562665
C21	C	4.132000	-0.473428	-0.635642
C22	C	4.192680	-0.387530	-0.666183
C23	C	4.221240	-0.302182	-0.623735
C24	C	4.189153	-0.302749	-0.550756
C25	C	4.128503	-0.388672	-0.520225
C26	C	4.146610	-0.269489	-0.771025
C27	C	4.178734	-0.268925	-0.844008
C28	C	4.372563	-0.503211	-0.865559
C29	C	4.340458	-0.503773	-0.792578
C30	C	4.227471	-0.386908	-0.745315
C31	C	4.117339	-0.615392	-0.095851
C32	C	4.228969	-0.757501	-0.096209
C33	C	4.102926	-0.814650	-0.093014
C34	C	4.218298	-0.961527	-0.093385
C35	C	4.346556	-0.385206	0.031055
C36	C	4.291684	-0.385778	0.108728
C37	C	4.224623	-0.160782	-0.090551
C38	C	4.092231	-0.018671	-0.090189
H39	H	4.054608	-0.174331	-0.732541
O40	O	4.427650	-0.630413	-0.764841
H41	H	4.511566	-0.711574	-0.809968
H42	H	4.112880	-0.173308	-0.864937
O43	O	3.826795	-0.146945	-0.269869
H44	H	3.818050	-0.167059	-0.214801
O45	O	3.846848	-0.735434	-0.089030
H46	H	3.772071	-0.799640	-0.086751
H47	H	3.898901	-0.958869	-0.087182
H48	H	4.422295	-0.817312	-0.099224
H49	H	4.411632	-1.021334	-0.096399
O50	O	4.101183	-0.565470	-0.681423
H51	H	4.266160	-0.629255	-0.722193
O52	O	3.893491	-0.145776	-0.421564
H53	H	3.809518	-0.064609	-0.376438
O54	O	4.219827	-0.210657	-0.504964
H55	H	4.267372	-0.150811	-0.538454
H56	H	4.464529	-0.598354	-0.904045
O57	O	4.286708	-0.209533	-0.656662
H58	H	4.304259	-0.223486	-0.714541
O59	O	4.034488	-0.566651	-0.529721
H60	H	3.866735	-0.547627	-0.539343
O61	O	4.296427	-0.632743	-0.466351
H62	H	4.305136	-0.612624	-0.521418
H63	H	4.208380	-0.602889	-0.321465
