data_functionalizedCrystal
_audit_creation_method	'MofGen! by Chris Wilmer'
_symmetry_space_group_name_H-M	'P1'
_symmetry_Int_Tables_number	1
_symmetry_cell_setting	triclinic
loop_
_symmetry_equiv_pos_as_xyz
  x,y,z
_cell_length_a	14.908308
_cell_length_b	18.215407
_cell_length_c	18.215405
_cell_angle_alpha	90.025333
_cell_angle_beta	86.737442
_cell_angle_gamma	86.722162
loop_
_atom_site_label
_atom_site_type_symbol
_atom_site_fract_x
_atom_site_fract_y
_atom_site_fract_z
Zn1	Zn	-0.510069	-1.101048	0.316974
Zn2	Zn	-0.359205	-1.108062	0.432949
Zn3	Zn	-0.359228	-0.985085	0.309903
Zn4	Zn	-0.510012	-0.977949	0.440002
O5	O	-0.434628	-1.043036	0.374957
O6	O	-0.490071	-1.204962	0.332366
O7	O	-0.232967	-1.097671	0.410717
O8	O	-0.379272	-1.000519	0.207859
O9	O	-0.379231	-1.210115	0.417573
O10	O	-0.490094	-1.085716	0.213053
O11	O	-0.232984	-1.007320	0.320315
O12	O	-0.379216	-0.881155	0.327153
O13	O	-0.636260	-0.988356	0.429592
O14	O	-0.489996	-0.875912	0.422736
O15	O	-0.636302	-1.078796	0.339204
O16	O	-0.379175	-1.090751	0.536868
O17	O	-0.489973	-0.995158	0.542049
C18	C	-0.434603	-0.851831	0.374943
C19	C	-0.434613	-0.770031	0.374956
C20	C	-0.434585	-1.042960	0.566161
C21	C	-0.434597	-1.042994	0.647961
C22	C	-0.669929	-1.031998	0.385974
C23	C	-0.770201	-1.027294	0.390668
C24	C	-0.958667	-1.112629	0.305352
C25	C	-1.052880	-1.108212	0.309760
C26	C	-1.052844	-1.014039	0.403890
C27	C	-0.958630	-1.018457	0.399481
C28	C	-0.911545	-1.067754	0.350211
C29	C	-0.817329	-1.072174	0.345807
C30	C	-0.817294	-0.977999	0.439932
C31	C	-0.911508	-0.973582	0.444340
C32	C	-0.200243	-1.054073	0.363930
C33	C	-0.099972	-1.058919	0.359028
C34	C	-0.434655	-1.234987	0.374972
C35	C	-0.434666	-1.316786	0.374978
C36	C	-0.492224	-0.579130	0.424797
C37	C	-0.492235	-0.502271	0.424799
C38	C	-0.377053	-0.507692	0.325132
C39	C	-0.377047	-0.584550	0.325126
C40	C	-0.434631	-0.620267	0.374963
C41	C	-0.434648	-0.466550	0.374971
C42	C	-0.434660	-0.383216	0.374974
C43	C	-0.434621	-0.703606	0.374959
C44	C	-0.434692	-1.043131	0.183007
C45	C	-0.434719	-1.043171	0.101209
C46	C	-0.377011	-1.092875	0.833437
C47	C	-0.377032	-1.092907	0.910297
C48	C	-0.492311	-0.993288	0.915728
C49	C	-0.492293	-0.993260	0.838870
C50	C	-0.434638	-1.043053	0.797726
C51	C	-0.434678	-1.043112	0.951444
C52	C	-0.434702	-1.043147	1.034779
C53	C	-0.434615	-1.043020	0.714386
H54	H	-0.920329	-1.152772	0.265238
C55	C	-0.554718	-0.939128	0.799991
C56	C	-0.503574	-0.894392	0.753514
C57	C	-0.561048	-0.844529	0.717679
H58	H	-0.589074	-0.909403	0.835417
H59	H	-0.594034	-0.965381	0.771771
H60	H	-0.464273	-0.868142	0.781732
H61	H	-0.469219	-0.924096	0.718074
H62	H	-0.600365	-0.870781	0.689459
H63	H	-0.595402	-0.814809	0.753111
H64	H	-0.526356	-0.814174	0.686136
C65	C	-1.104029	-0.960633	0.457459
C66	C	-1.158104	-0.999738	0.507168
C67	C	-1.205262	-0.950563	0.556529
H68	H	-1.140852	-0.926845	0.431102
H69	H	-1.062507	-0.934544	0.483593
H70	H	-1.199621	-1.025815	0.481038
H71	H	-1.121303	-1.033523	0.533543
H72	H	-1.163741	-0.924474	0.582662
H73	H	-1.242080	-0.916778	0.530166
H74	H	-1.241952	-0.977089	0.590267
H75	H	-1.091244	-1.144752	0.273229
C76	C	-0.766255	-1.125599	0.292193
C77	C	-0.789177	-1.108514	0.220452
C78	C	-0.742140	-1.157706	0.171039
H79	H	-0.781660	-1.174346	0.303583
H80	H	-0.703386	-1.121801	0.295939
H81	H	-0.852032	-1.112319	0.216708
H82	H	-0.773770	-1.059776	0.209039
H83	H	-0.679272	-1.153907	0.174786
H84	H	-0.757549	-1.206449	0.182437
H85	H	-0.757681	-1.146116	0.122358
C86	C	-0.962682	-0.920183	0.497924
C87	C	-1.016745	-0.959299	0.547633
C88	C	-1.063888	-0.910134	0.597014
H89	H	-0.999512	-0.886387	0.471582
H90	H	-0.921151	-0.894102	0.524056
H91	H	-1.058271	-0.985368	0.521505
H92	H	-0.979938	-0.993092	0.573993
H93	H	-1.022357	-0.884053	0.623145
H94	H	-1.100713	-0.876341	0.570665
H95	H	-1.100569	-0.936668	0.630751
H96	H	-0.330169	-0.478602	0.284558
H97	H	-0.778917	-0.941460	0.476462
H98	H	-0.539114	-0.608208	0.465375
H99	H	-0.539251	-0.952748	0.949236
H100	H	-0.330108	-1.133478	0.939370
C101	C	-0.554797	-0.457739	0.478989
C102	C	-0.605206	-0.505473	0.522641
C103	C	-0.662843	-0.464478	0.572577
H104	H	-0.594250	-0.425921	0.452819
H105	H	-0.520240	-0.429375	0.509435
H106	H	-0.639761	-0.533824	0.492200
H107	H	-0.565777	-0.537291	0.548828
H108	H	-0.628286	-0.436114	0.603022
H109	H	-0.702290	-0.432662	0.546400
H110	H	-0.697046	-0.496859	0.602205
C111	C	-0.314414	-0.629091	0.270985
C112	C	-0.263963	-0.581364	0.227359
C113	C	-0.206254	-0.622369	0.177484
H114	H	-0.348892	-0.657475	0.240510
H115	H	-0.274997	-0.660891	0.297226
H116	H	-0.303375	-0.549577	0.201120
H117	H	-0.229466	-0.552980	0.257813
H118	H	-0.166836	-0.654169	0.203725
H119	H	-0.240739	-0.650752	0.147015
H120	H	-0.172010	-0.589993	0.147882
C121	C	-0.314386	-1.147019	0.788898
C122	C	-0.263941	-1.190670	0.836628
C123	C	-0.206250	-1.240564	0.795627
H124	H	-0.274958	-1.120815	0.757106
H125	H	-0.348906	-1.177469	0.760508
H126	H	-0.229424	-1.160224	0.865005
H127	H	-0.303345	-1.216890	0.868421
H128	H	-0.240770	-1.271015	0.767237
H129	H	-0.166828	-1.214355	0.763837
H130	H	-0.172022	-1.270192	0.828006
