data_functionalizedCrystal
_audit_creation_method	'MofGen! by Chris Wilmer'
_symmetry_space_group_name_H-M	'P1'
_symmetry_Int_Tables_number	1
_symmetry_cell_setting	triclinic
loop_
_symmetry_equiv_pos_as_xyz
  x,y,z
_cell_length_a	13.897448
_cell_length_b	13.032831
_cell_length_c	13.032268
_cell_angle_alpha	89.113023
_cell_angle_beta	97.148041
_cell_angle_gamma	97.177601
loop_
_atom_site_label
_atom_site_type_symbol
_atom_site_fract_x
_atom_site_fract_y
_atom_site_fract_z
Zn1	Zn	-0.651422	-1.498483	-0.780818
Zn2	Zn	-0.151422	-0.998483	-0.280818
Zn3	Zn	-0.795137	-1.520226	-0.608835
Zn4	Zn	-0.295137	-1.020226	-0.108835
Zn5	Zn	-0.611127	-1.348341	-0.587060
Zn6	Zn	-0.111127	-0.848341	-0.087060
Zn7	Zn	-0.789922	-1.326474	-0.758960
Zn8	Zn	-0.289922	-0.826474	-0.258960
O9	O	-0.711902	-1.423381	-0.683918
O10	O	-0.211902	-0.923381	-0.183918
O11	O	-0.689533	-1.645288	-0.776265
O12	O	-0.189533	-1.145288	-0.276265
O13	O	-0.756047	-1.515676	-0.462030
O14	O	-0.256047	-1.015676	0.037970
O15	O	-0.481501	-1.368309	-0.612798
O16	O	0.018499	-0.868309	-0.112798
O17	O	-0.795119	-1.661262	-0.649909
O18	O	-0.295119	-1.161262	-0.149909
O19	O	-0.511106	-1.478618	-0.755151
O20	O	-0.011106	-0.978618	-0.255151
O21	O	-0.620856	-1.389393	-0.446032
O22	O	-0.120856	-0.889393	0.053968
O23	O	-0.615798	-1.201520	-0.591603
O24	O	-0.115798	-0.701520	-0.091603
O25	O	-0.786231	-1.331040	-0.905776
O26	O	-0.286231	-0.831040	-0.405776
O27	O	-0.747158	-1.185454	-0.717897
O28	O	-0.247158	-0.685454	-0.217897
O29	O	-0.684476	-1.457414	-0.921835
O30	O	-0.184476	-0.957414	-0.421835
O31	O	-0.929417	-1.494472	-0.628714
O32	O	-0.429417	-0.994472	-0.128714
O33	O	-0.925585	-1.352124	-0.739010
O34	O	-0.425585	-0.852124	-0.239010
C35	C	-0.676541	-1.156170	-0.650016
C36	C	-0.176541	-0.656170	-0.150016
C37	C	-0.661439	-1.041852	-0.635536
C38	C	-0.161439	-0.541852	-0.135536
C39	C	-0.962504	-1.423310	-0.683879
C40	C	-0.462504	-0.923310	-0.183879
C41	C	-1.069728	-1.423369	-0.683909
C42	C	-0.569728	-0.923369	-0.183909
C43	C	-0.739266	-1.389363	-0.952165
C44	C	-0.239266	-0.889363	-0.452165
C45	C	-0.750927	-1.374866	-1.066476
C46	C	-0.250927	-0.874866	-0.566476
C47	C	-1.266044	-1.423469	-0.683987
C48	C	-0.766044	-0.923469	-0.183987
C49	C	-1.156800	-1.423410	-0.683946
C50	C	-0.656800	-0.923410	-0.183946
C51	C	-0.460328	-1.423478	-0.683984
C52	C	0.039672	-0.923478	-0.183984
C53	C	-0.353122	-1.423519	-0.684012
C54	C	0.146878	-0.923519	-0.184012
C55	C	-0.747403	-1.691635	-0.717954
C56	C	-0.247403	-1.191635	-0.217954
C57	C	-0.762531	-1.805950	-0.732458
C58	C	-0.262531	-1.305950	-0.232458
C59	C	-0.719784	-0.982977	-0.691475
C60	C	-0.219784	-0.482977	-0.191475
C61	C	-0.704177	-0.864824	-0.676511
C62	C	-0.204177	-0.364824	-0.176511
C63	C	-0.705779	-1.430931	-1.125385
C64	C	-0.205779	-0.930931	-0.625385
C65	C	-0.717831	-1.415949	-1.243531
C66	C	-0.217831	-0.915949	-0.743531
C67	C	-0.684583	-1.457326	-0.416723
C68	C	-0.184583	-0.957326	0.083277
C69	C	-0.672677	-1.472021	-0.302438
C70	C	-0.172677	-0.972021	0.197562
H71	H	-0.781288	-1.020043	-0.750448
H72	H	-0.281288	-0.520043	-0.250448
H73	H	-0.599929	-1.004785	-0.576571
H74	H	-0.099929	-0.504785	-0.076571
H75	H	-0.658201	-1.490017	-1.088351
H76	H	-0.158201	-0.990017	-0.588351
H77	H	-0.798494	-1.315770	-1.103508
H78	H	-0.298494	-0.815770	-0.603508
Br79	Br	-0.797122	-1.317445	-1.305237
Br80	Br	-0.297122	-0.817445	-0.805237
H81	H	-0.642663	-0.827761	-0.617542
H82	H	-0.142663	-0.327761	-0.117542
Br83	Br	-0.865038	-0.867707	-0.830774
Br84	Br	-0.365038	-0.367707	-0.330774
H85	H	-0.625093	-1.531110	-1.265411
H86	H	-0.125093	-1.031110	-0.765411
