data_functionalizedCrystal
_audit_creation_method	'MofGen! by Chris Wilmer'
_symmetry_space_group_name_H-M	'P1'
_symmetry_Int_Tables_number	1
_symmetry_cell_setting	triclinic
loop_
_symmetry_equiv_pos_as_xyz
  x,y,z
_cell_length_a	19.188930
_cell_length_b	14.044190
_cell_length_c	12.503552
_cell_angle_alpha	93.836179
_cell_angle_beta	86.474913
_cell_angle_gamma	88.168277
loop_
_atom_site_label
_atom_site_type_symbol
_atom_site_fract_x
_atom_site_fract_y
_atom_site_fract_z
O1	O	-0.937485	-0.112791	0.089682
O2	O	-0.604152	0.220542	0.423015
O3	O	-0.270818	0.553875	0.756348
O4	O	-0.735199	-0.128722	0.089610
O5	O	-0.401865	0.204611	0.422944
O6	O	-0.068532	0.537944	0.756277
O7	O	-0.833302	0.017214	0.089624
O8	O	-0.499969	0.350547	0.422957
O9	O	-0.166635	0.683881	0.756290
O10	O	-0.839382	-0.258728	0.089668
O11	O	-0.506048	0.074606	0.423002
O12	O	-0.172715	0.407939	0.756335
O13	O	-0.825915	0.006229	-0.089020
O14	O	-0.492582	0.339562	0.244314
O15	O	-0.159249	0.672896	0.577647
O16	O	-0.727812	-0.139707	-0.089033
O17	O	-0.394479	0.193626	0.244300
O18	O	-0.061145	0.526960	0.577633
O19	O	-0.930098	-0.123776	-0.088962
O20	O	-0.596765	0.209557	0.244372
O21	O	-0.263432	0.542890	0.577705
Cu22	Cu	-0.828281	-0.132745	-0.105309
Cu23	Cu	-0.494947	0.200589	0.228024
Cu24	Cu	-0.161614	0.533922	0.561358
Cu25	Cu	-0.837016	-0.119754	0.105958
Cu26	Cu	-0.503683	0.213579	0.439291
Cu27	Cu	-0.170350	0.546913	0.772624
O28	O	-0.831995	-0.269713	-0.088975
O29	O	-0.498662	0.063621	0.244358
O30	O	-0.165328	0.396954	0.577691
C31	C	-0.705461	-0.133699	0.000279
C32	C	-0.372127	0.199634	0.333612
C33	C	-0.038794	0.532967	0.666946
C34	C	-0.627855	-0.132153	0.000250
C35	C	-0.294522	0.201180	0.333584
C36	C	0.038812	0.534514	0.666917
C37	C	-0.826950	0.047025	0.000298
C38	C	-0.493616	0.380358	0.333631
C39	C	-0.160283	0.713691	0.666965
C40	C	-0.819018	0.152217	0.000286
C41	C	-0.485685	0.485550	0.333619
C42	C	-0.152352	0.818884	0.666952
C43	C	-0.959836	-0.118799	0.000372
C44	C	-0.626503	0.214534	0.333705
C45	C	-0.293170	0.547868	0.667039
C46	C	-1.037442	-0.120345	0.000407
C47	C	-0.704109	0.212988	0.333741
C48	C	-0.370776	0.546322	0.667074
C49	C	-0.588460	-0.217781	0.000281
C50	C	-0.255126	0.115552	0.333614
C51	C	0.078207	0.448885	0.666948
C52	C	-0.515543	-0.216326	0.000293
C53	C	-0.182209	0.117007	0.333626
C54	C	0.151124	0.450341	0.666959
C55	C	-0.482024	-0.129236	0.000295
C56	C	-0.148691	0.204097	0.333628
C57	C	0.184642	0.537430	0.666962
C58	C	-0.521429	-0.043597	0.000258
C59	C	-0.188095	0.289736	0.333592
C60	C	0.145238	0.623069	0.666925
C61	C	-0.594344	-0.045056	0.000236
C62	C	-0.261011	0.288278	0.333569
C63	C	0.072323	0.621611	0.666903
N64	N	-0.372263	-0.058927	0.061128
N65	N	-0.038929	0.274407	0.394461
N66	N	0.294404	0.607740	0.727795
N67	N	-0.302996	-0.057547	0.061151
N68	N	0.030337	0.275786	0.394485
N69	N	0.363671	0.609120	0.727818
C70	C	-0.262335	-0.124837	0.000360
C71	C	0.070998	0.208496	0.333693
C72	C	0.404332	0.541829	0.667027
N73	N	-0.293557	-0.193573	-0.060442
N74	N	0.039776	0.139760	0.272891
N75	N	0.373110	0.473093	0.606225
N76	N	-0.362830	-0.194955	-0.060461
N77	N	-0.029497	0.138378	0.272873
N78	N	0.303837	0.471711	0.606206
C79	C	-0.402960	-0.127645	0.000319
C80	C	-0.069627	0.205688	0.333652
C81	C	0.263706	0.539021	0.666985
C82	C	-0.143874	-0.208894	0.000402
C83	C	0.189459	0.124440	0.333735
C84	C	0.522793	0.457773	0.667068
C85	C	-0.070955	-0.207435	0.000407
C86	C	0.262378	0.125898	0.333740
C87	C	0.595711	0.459231	0.667073
C88	C	-0.076844	-0.034703	0.000383
C89	C	0.256490	0.298630	0.333717
C90	C	0.589823	0.631963	0.667050
C91	C	-0.149760	-0.036165	0.000368
C92	C	0.183573	0.297168	0.333701
C93	C	0.516906	0.630502	0.667034
C94	C	-0.183271	-0.123262	0.000382
C95	C	0.150062	0.210071	0.333715
C96	C	0.483395	0.543404	0.667049
C97	C	-0.838347	-0.299523	0.000353
C98	C	-0.505014	0.033810	0.333686
C99	C	-0.171681	0.367143	0.667020
C100	C	-0.846279	-0.404715	0.000372
C101	C	-0.512946	-0.071382	0.333705
C102	C	-0.179612	0.261952	0.667039
C103	C	-0.860769	0.402680	0.000343
C104	C	-0.527435	0.736013	0.333676
C105	C	-0.194102	1.069347	0.667009
C106	C	-0.804532	0.344816	0.000315
C107	C	-0.471198	0.678150	0.333649
C108	C	-0.137865	1.011483	0.666982
C109	C	-0.812594	0.237644	0.000299
C110	C	-0.479261	0.570978	0.333632
C111	C	-0.145927	0.904311	0.666965
C112	C	-0.852707	0.509862	0.000359
C113	C	-0.519374	0.843195	0.333692
C114	C	-0.186041	1.176529	0.667026
N115	N	-0.822142	-0.141881	-0.253903
N116	N	-0.488808	0.191452	0.079431
N117	N	-0.155475	0.524785	0.412764
C118	C	-0.852187	-0.097167	-0.526332
C119	C	-0.518854	0.236167	-0.192998
C120	C	-0.185521	0.569500	0.140335
C121	C	-0.813117	-0.155321	-0.473013
C122	C	-0.479783	0.178012	-0.139680
C123	C	-0.146450	0.511345	0.193654
C124	C	-0.818139	-0.147841	-0.351089
C125	C	-0.484806	0.185492	-0.017755
C126	C	-0.151473	0.518825	0.315578
C127	C	-0.847165	-0.104645	-0.648267
C128	C	-0.513832	0.228688	-0.314934
C129	C	-0.180499	0.562021	0.018400
N130	N	-0.843160	-0.110610	0.254551
N131	N	-0.509827	0.222724	0.587884
N132	N	-0.176494	0.556057	0.921218
H133	H	-0.483460	-0.286057	0.000315
H134	H	-0.150127	0.047276	0.333648
H135	H	0.183206	0.380610	0.666981
N136	N	-0.736534	0.383632	0.000270
N137	N	-0.403200	0.716965	0.333603
N138	N	-0.069867	1.050299	0.666936
N139	N	-0.692132	0.360330	-0.075060
N140	N	-0.358799	0.693663	0.258273
N141	N	-0.025465	1.026997	0.591607
H142	H	-0.644109	0.387747	-0.075098
H143	H	-0.310776	0.721080	0.258235
H144	H	0.022557	1.054413	0.591569
N145	N	-0.898842	-0.027652	-0.468677
N146	N	-0.565509	0.305681	-0.135343
N147	N	-0.232176	0.639015	0.197990
N148	N	-0.875501	0.034820	-0.405915
N149	N	-0.542167	0.368154	-0.072582
N150	N	-0.208834	0.701487	0.260751
H151	H	-0.908439	0.083916	-0.365163
H152	H	-0.575106	0.417249	-0.031830
H153	H	-0.241773	0.750582	0.301504
H154	H	-0.615740	-0.288703	0.000295
H155	H	-0.282406	0.044631	0.333628
H156	H	0.050927	0.377964	0.666961
H157	H	-0.171160	-0.279815	0.000398
H158	H	0.162174	0.053519	0.333731
H159	H	0.495507	0.386852	0.667064
N160	N	-0.928754	0.363843	0.000336
N161	N	-0.595420	0.697176	0.333669
N162	N	-0.262087	1.030510	0.667003
N163	N	-0.943751	0.306612	-0.074977
N164	N	-0.610417	0.639946	0.258356
N165	N	-0.277084	0.973279	0.591690
H166	H	-0.991764	0.279171	-0.074987
H167	H	-0.658431	0.612504	0.258346
H168	H	-0.325098	0.945838	0.591680
N169	N	-0.766414	-0.224822	-0.530608
N170	N	-0.433081	0.108511	-0.197275
N171	N	-0.099748	0.441845	0.136058
N172	N	-0.718649	-0.198742	-0.593417
N173	N	-0.385315	0.134591	-0.260084
N174	N	-0.051982	0.467925	0.073250
H175	H	-0.685667	-0.247826	-0.634097
H176	H	-0.352333	0.085507	-0.300764
H177	H	-0.019000	0.418841	0.032570
N178	N	-0.487194	0.045362	0.000240
N179	N	-0.153861	0.378695	0.333573
N180	N	0.179473	0.712029	0.666906
N181	N	-0.444029	0.060812	-0.075056
N182	N	-0.110695	0.394145	0.258277
N183	N	0.222638	0.727479	0.591611
H184	H	-0.419851	0.123643	-0.075076
H185	H	-0.086517	0.456976	0.258257
H186	H	0.246816	0.790309	0.591591
N187	N	-0.634579	0.042424	0.000200
N188	N	-0.301245	0.375758	0.333533
N189	N	0.032088	0.709091	0.666866
N190	N	-0.604647	0.120179	0.000191
N191	N	-0.271314	0.453512	0.333524
N192	N	0.062019	0.786845	0.666858
H193	H	-0.633063	0.181964	0.000166
H194	H	-0.299730	0.515297	0.333499
H195	H	0.033603	0.848630	0.666833
N196	N	-0.030703	-0.294903	0.000414
N197	N	0.302630	0.038430	0.333747
N198	N	0.635963	0.371763	0.667080
N199	N	0.013769	-0.317989	-0.074885
N200	N	0.347102	0.015344	0.258449
N201	N	0.680435	0.348677	0.591782
H202	H	0.042197	-0.379766	-0.074885
H203	H	0.375531	-0.046433	0.258448
H204	H	0.708864	0.286900	0.591781
H205	H	-0.181837	0.033563	0.000349
H206	H	0.151496	0.366897	0.333682
H207	H	0.484830	0.700230	0.667015
N208	N	-0.042603	0.054248	0.000366
N209	N	0.290730	0.387582	0.333700
N210	N	0.624064	0.720915	0.667033
N211	N	0.022500	0.055540	0.000375
N212	N	0.355833	0.388873	0.333709
N213	N	0.689167	0.722207	0.667042
H214	H	0.046687	0.118364	0.000356
H215	H	0.380020	0.451698	0.333690
H216	H	0.713353	0.785031	0.667023
