data_functionalizedCrystal
_audit_creation_method	'MofGen! by Chris Wilmer'
_symmetry_space_group_name_H-M	'P1'
_symmetry_Int_Tables_number	1
_symmetry_cell_setting	triclinic
loop_
_symmetry_equiv_pos_as_xyz
  x,y,z
_cell_length_a	19.188905
_cell_length_b	19.188940
_cell_length_c	10.868271
_cell_angle_alpha	89.994428
_cell_angle_beta	89.988558
_cell_angle_gamma	83.141635
loop_
_atom_site_label
_atom_site_type_symbol
_atom_site_fract_x
_atom_site_fract_y
_atom_site_fract_z
O1	O	0.926159	0.087084	-0.102526
O2	O	0.722845	0.098837	-0.102484
O3	O	0.830366	-0.008695	-0.102497
O4	O	0.818638	0.194616	-0.102513
O5	O	0.830357	-0.008699	0.102148
O6	O	0.722837	0.098833	0.102160
O7	O	0.926150	0.087080	0.102119
Zn8	Zn	0.824492	0.092956	0.134631
Zn9	Zn	0.824503	0.092961	-0.134997
O10	O	0.818630	0.194612	0.102131
C11	C	0.696830	0.098457	-0.000157
C12	C	0.619324	0.097323	-0.000140
C13	C	0.582937	0.096781	-0.111695
C14	C	0.510113	0.095708	-0.111710
C15	C	0.473682	0.095163	-0.000164
C16	C	0.510077	0.095710	0.111405
C17	C	0.582898	0.096790	0.111417
N18	N	0.364656	0.053733	0.082852
N19	N	0.295479	0.052706	0.082833
C20	C	0.254275	0.091911	-0.000194
N21	N	0.284862	0.132173	-0.083220
N22	N	0.354046	0.133198	-0.083204
C23	C	0.394719	0.093993	-0.000165
C24	C	0.138924	0.090206	-0.111773
C25	C	0.066098	0.089137	-0.111784
C26	C	0.066064	0.089132	0.111336
C27	C	0.138887	0.090208	0.111343
C28	C	0.175313	0.090741	-0.000215
C29	C	0.829980	-0.034708	-0.000175
C30	C	0.828837	-0.112212	-0.000175
C31	C	0.820698	-0.665473	0.111349
C32	C	0.821764	-0.592648	0.111356
C33	C	0.822306	-0.556227	-0.000195
C34	C	0.821762	-0.592633	-0.111760
C35	C	0.820689	-0.665455	-0.111763
N36	N	0.863726	-0.447205	-0.083233
N37	N	0.864748	-0.378027	-0.083222
C38	C	0.825539	-0.336818	-0.000191
N39	N	0.785280	-0.367401	0.082847
N40	N	0.784262	-0.436585	0.082840
C41	C	0.823470	-0.477263	-0.000203
C42	C	0.827234	-0.221455	0.111374
C43	C	0.828297	-0.148629	0.111376
C44	C	0.828302	-0.148616	-0.111743
C45	C	0.827233	-0.221440	-0.111741
C46	C	0.826702	-0.257856	-0.000179
C47	C	0.952166	0.087460	-0.000212
C48	C	1.029671	0.088594	-0.000236
C49	C	0.819015	0.220625	-0.000194
C50	C	0.820158	0.298129	-0.000201
N51	N	0.824489	0.092952	0.318645
N52	N	0.824512	0.092960	-0.319011
C53	C	0.824500	0.092960	0.569651
C54	C	0.824492	0.092957	0.429974
H55	H	0.168514	0.090645	0.202183
H56	H	0.036401	0.088693	0.202159
C57	C	0.820103	-0.705524	0.234071
N58	N	0.819651	-0.735692	0.326507
C59	C	0.622926	0.097381	0.234142
N60	N	0.653076	0.097823	0.326580
C61	C	0.470000	0.095109	0.234107
N62	N	0.439815	0.094659	0.326529
H63	H	0.168583	0.090648	-0.202610
C64	C	0.822364	-0.552604	0.234075
N65	N	0.822818	-0.522444	0.326508
C66	C	0.822362	-0.552568	-0.234466
N67	N	0.822813	-0.522391	-0.326892
H68	H	0.820249	-0.695090	-0.202604
C69	C	0.623002	0.097367	-0.234413
N70	N	0.653180	0.097807	-0.326844
C71	C	0.828887	-0.108591	0.234098
N72	N	0.829332	-0.078434	0.326534
H73	H	0.826797	-0.251106	0.202215
H74	H	0.828735	-0.118961	-0.202569
C75	C	0.026073	0.088538	-0.234510
N76	N	-0.004074	0.088083	-0.326950
C77	C	0.826682	-0.261485	-0.234458
N78	N	0.826279	-0.291648	-0.326894
H79	H	0.480481	0.095268	-0.202555
