data_functionalizedCrystal
_audit_creation_method	'MofGen! by Chris Wilmer'
_symmetry_space_group_name_H-M	'P1'
_symmetry_Int_Tables_number	1
_symmetry_cell_setting	triclinic
loop_
_symmetry_equiv_pos_as_xyz
  x,y,z
_cell_length_a	27.732064
_cell_length_b	27.731994
_cell_length_c	7.088929
_cell_angle_alpha	83.843573
_cell_angle_beta	96.168170
_cell_angle_gamma	82.634978
loop_
_atom_site_label
_atom_site_type_symbol
_atom_site_fract_x
_atom_site_fract_y
_atom_site_fract_z
O1	O	0.062390	0.635958	0.158701
O2	O	0.071165	0.495159	0.158762
O3	O	-0.003620	0.569927	0.158737
O4	O	0.137174	0.561190	0.158726
O5	O	-0.013636	0.579919	-0.159241
O6	O	0.061148	0.505151	-0.159216
O7	O	0.052373	0.645950	-0.159278
Cu8	Cu	0.055846	0.576463	-0.188281
Cu9	Cu	0.067692	0.564646	0.187765
O10	O	0.127157	0.571182	-0.159253
C11	C	0.065976	0.482147	-0.000219
C12	C	0.065435	0.428490	-0.000195
C13	C	0.056557	0.101221	-0.173599
C14	C	0.054495	-0.100437	-0.173620
O15	O	0.049564	-0.121877	-0.321030
N16	N	0.059699	-0.131099	-0.000290
C17	C	0.065415	-0.111343	0.173057
O18	O	0.069789	-0.142049	0.320485
C19	C	0.067474	0.090315	0.173077
C20	C	0.062275	0.120973	-0.000264
C21	C	0.051357	0.131879	-0.346926
C22	C	0.051876	0.182290	-0.346919
C23	C	0.057593	0.202043	-0.173584
C24	C	0.062793	0.171384	-0.000257
C25	C	0.073187	0.110070	0.346423
C26	C	0.073700	0.160488	0.346412
C27	C	0.068501	0.191147	0.173071
C28	C	0.069029	0.241548	0.173084
N29	N	0.063825	0.272209	-0.000246
C30	C	0.058107	0.252457	-0.173580
C31	C	0.064335	-0.217215	0.173035
C32	C	0.063821	-0.267629	0.173031
C33	C	0.052900	-0.256720	-0.173648
C34	C	0.053417	-0.206306	-0.173641
C35	C	0.059131	-0.186554	-0.000295
C36	C	0.059196	0.358323	-0.173552
C37	C	0.059717	0.408738	-0.173529
C38	C	0.070636	0.397824	0.173148
C39	C	0.070118	0.347414	0.173126
C40	C	0.064396	0.327665	-0.000239
O41	O	0.073952	0.263023	0.320417
O42	O	0.053723	0.283172	-0.320985
C43	C	0.056039	0.050810	-0.173606
C44	C	0.061238	0.020151	-0.000279
C45	C	0.066956	0.039904	0.173056
C46	C	0.060724	-0.030263	-0.000283
C47	C	0.055007	-0.050016	-0.173617
C48	C	0.049803	-0.019354	-0.346947
C49	C	0.050321	0.031057	-0.346940
C50	C	0.072160	0.009242	0.346386
C51	C	0.071642	-0.041168	0.346364
C52	C	0.065924	-0.060921	0.173030
C53	C	-0.026634	0.574738	-0.000246
C54	C	-0.080288	0.574181	-0.000228
C55	C	-0.457351	0.526212	-0.000200
C56	C	-0.255691	0.528258	-0.000198
O57	O	-0.224428	0.491033	-0.000106
N58	N	-0.236573	0.572594	-0.000217
C59	C	-0.267872	0.616422	-0.000224
O60	O	-0.246983	0.654179	-0.000221
C61	C	-0.469531	0.614374	-0.000212
C62	C	-0.488647	0.570036	-0.000212
C63	C	-0.476467	0.481877	-0.000198
C64	C	-0.526879	0.481367	-0.000209
C65	C	-0.558175	0.525191	-0.000221
C66	C	-0.539059	0.569525	-0.000223
C67	C	-0.500829	0.658201	-0.000205
C68	C	-0.551246	0.657685	-0.000197
C69	C	-0.570362	0.613347	-0.000198
C70	C	-0.620768	0.612839	-0.000247
N71	N	-0.639886	0.568503	-0.000228
C72	C	-0.608590	0.524679	-0.000215
C73	C	-0.161999	0.617493	-0.000234
C74	C	-0.111584	0.618005	-0.000241
C75	C	-0.099406	0.529842	-0.000211
C76	C	-0.149822	0.529331	-0.000218
C77	C	-0.181117	0.573157	-0.000215
C78	C	-0.714460	0.523609	-0.000239
C79	C	-0.764877	0.523103	-0.000258
C80	C	-0.777051	0.611266	-0.000278
C81	C	-0.726638	0.611773	-0.000269
C82	C	-0.695343	0.567941	-0.000243
O83	O	-0.652058	0.650043	-0.000317
O84	O	-0.629487	0.486926	-0.000176
C85	C	-0.406938	0.526723	-0.000189
C86	C	-0.387822	0.571058	-0.000191
C87	C	-0.419118	0.614882	-0.000203
C88	C	-0.337408	0.571570	-0.000197
C89	C	-0.306112	0.527746	-0.000185
C90	C	-0.325230	0.483410	-0.000166
C91	C	-0.375642	0.482899	-0.000176
C92	C	-0.400000	0.659218	-0.000222
C93	C	-0.349587	0.659725	-0.000214
C94	C	-0.318291	0.615901	-0.000201
C95	C	0.150172	0.566371	-0.000265
C96	C	0.203827	0.566927	-0.000271
C97	C	0.057561	0.658961	-0.000292
C98	C	0.058103	0.712618	-0.000304
N99	N	0.047514	0.584778	-0.452772
N100	N	0.076020	0.556335	0.452256
H101	H	0.075880	-0.066128	0.487530
H102	H	-0.425477	0.694905	-0.000231
Br103	Br	0.051429	0.331529	-0.408835
Br104	Br	-0.001719	0.633920	-0.588873
Br105	Br	0.052663	0.450343	-0.408794
Br106	Br	0.044816	0.223891	-0.582181
H107	H	-0.187475	0.653185	-0.000235
Br108	Br	0.125259	0.507203	-0.411649
Br109	Br	0.043598	0.105082	-0.582198
H110	H	0.046087	0.056015	-0.488093
H111	H	0.049184	-0.181346	-0.314791
H112	H	0.076815	0.025319	0.487538
Br113	Br	0.045139	-0.283537	-0.408886
H114	H	-0.688985	0.487917	-0.000218
H115	H	-0.780439	0.486996	-0.000267
Br116	Br	0.070890	-0.309233	0.408289
H117	H	-0.576725	0.693374	-0.000184
Br118	Br	0.072091	-0.190417	0.408315
H119	H	-0.165382	0.493227	-0.000227
H120	H	-0.542438	0.445261	-0.000193
H121	H	0.077421	0.085116	0.487576
H122	H	-0.485274	0.694306	-0.000204
Br123	Br	-0.282747	0.423935	-0.000161
Br124	Br	0.081453	0.187292	0.581682
H125	H	-0.334029	0.695834	-0.000229
Br126	Br	0.077184	0.305803	0.408376
H127	H	0.075293	0.413916	0.314272
H128	H	-0.711074	0.647878	-0.000296
H129	H	0.045149	-0.035446	-0.488082
H130	H	-0.073916	0.494159	-0.000209
Br131	Br	-0.434002	0.422393	-0.000172
H132	H	-0.802541	0.646946	-0.000297
Br133	Br	-0.085649	0.678182	-0.000277
H134	H	-0.391201	0.446794	-0.000178
