data_functionalizedCrystal
_audit_creation_method	'MofGen! by Chris Wilmer'
_symmetry_space_group_name_H-M	'P1'
_symmetry_Int_Tables_number	1
_symmetry_cell_setting	triclinic
loop_
_symmetry_equiv_pos_as_xyz
  x,y,z
_cell_length_a	19.188933
_cell_length_b	16.974813
_cell_length_c	16.053811
_cell_angle_alpha	88.912778
_cell_angle_beta	87.428528
_cell_angle_gamma	83.270760
loop_
_atom_site_label
_atom_site_type_symbol
_atom_site_fract_x
_atom_site_fract_y
_atom_site_fract_z
O1	O	0.929536	0.095076	-0.075824
O2	O	0.726286	0.108320	-0.076726
O3	O	0.833249	-0.013052	-0.068518
O4	O	0.822574	0.216448	-0.084032
O5	O	0.827361	-0.006398	0.069891
O6	O	0.720398	0.114973	0.061683
O7	O	0.923648	0.101730	0.062585
Zn8	Zn	0.821088	0.109408	0.084109
Zn9	Zn	0.828846	0.100641	-0.098250
O10	O	0.816685	0.223101	0.054377
C11	C	0.829789	-0.039087	0.002670
C12	C	0.828245	-0.126575	0.008578
C13	C	0.697329	0.111217	-0.007494
C14	C	0.619819	0.109929	-0.007410
C15	C	0.830731	-0.171300	-0.064092
C16	C	0.829275	-0.253503	-0.058537
C17	C	0.825339	-0.290982	0.019688
C18	C	0.822851	-0.246251	0.092364
C19	C	0.824301	-0.164048	0.086809
C20	C	0.820652	-0.536442	0.044393
C21	C	0.819204	-0.618651	0.049943
C22	C	0.825627	-0.625898	-0.100959
C23	C	0.827081	-0.543694	-0.106507
C24	C	0.824590	-0.498970	-0.033831
N25	N	0.823853	-0.375007	0.025368
N26	N	0.826070	-0.414945	-0.039512
C27	C	0.069731	0.097108	-0.082226
C28	C	0.142561	0.098313	-0.082311
C29	C	0.175771	0.102547	-0.006905
C30	C	0.136147	0.105555	0.068592
C31	C	0.063319	0.104341	0.068675
N32	N	0.282617	0.152000	0.046093
N33	N	0.351800	0.153155	0.046008
C34	C	0.395196	0.106202	-0.007151
N35	N	0.366794	0.058061	-0.060236
N36	N	0.297605	0.056910	-0.060154
C37	C	0.254740	0.103863	-0.006987
C38	C	0.513782	0.104496	-0.082735
C39	C	0.586614	0.105697	-0.082816
C40	C	0.580198	0.112946	0.068088
C41	C	0.507368	0.111737	0.068168
C42	C	0.474165	0.107516	-0.007246
C43	C	0.952605	0.098832	-0.006649
C44	C	1.030115	0.100120	-0.006739
C45	C	0.820145	0.249136	-0.016813
C46	C	0.821689	0.336624	-0.022727
N47	N	0.815798	0.115390	0.208565
C48	C	0.861328	0.063765	0.255750
C49	C	0.857634	0.067957	0.342874
C50	C	0.808414	0.123779	0.382810
C51	C	0.762880	0.175407	0.335618
C52	C	0.766571	0.171211	0.248497
C53	C	0.792293	0.142088	0.642981
C54	C	0.788607	0.146282	0.730109
C55	C	0.883360	0.038831	0.737358
C56	C	0.887049	0.034643	0.650235
C57	C	0.841513	0.086267	0.603051
N58	N	0.804639	0.128068	0.471863
N59	N	0.845285	0.081975	0.513999
N60	N	0.834136	0.094657	0.777294
H61	H	0.833940	-0.140792	-0.127791
H62	H	0.607237	0.116390	0.129485
H63	H	0.486747	0.101056	-0.144141
C64	C	0.463788	0.115063	0.151204
H65	H	0.493995	0.117764	0.196101
H66	H	0.440480	0.068793	0.157480
H67	H	0.430009	0.160698	0.151264
C68	C	0.814866	-0.659875	0.135995
H69	H	0.813582	-0.621465	0.178483
H70	H	0.854843	-0.697941	0.141721
H71	H	0.773484	-0.685641	0.140871
C72	C	0.818518	-0.287470	0.178412
H73	H	0.817238	-0.249057	0.220896
H74	H	0.858496	-0.325537	0.184137
H75	H	0.777136	-0.313235	0.183295
H76	H	0.755216	0.184125	0.604570
H77	H	0.827654	-0.662321	-0.160127
H78	H	0.818637	-0.500039	0.103571
C79	C	0.831998	-0.302695	-0.138475
H80	H	0.834554	-0.268602	-0.185858
H81	H	0.790882	-0.328756	-0.139855
H82	H	0.872243	-0.341070	-0.139035
C83	C	0.630194	0.102388	-0.165854
H84	H	0.678324	0.103708	-0.155104
H85	H	0.614338	0.146654	-0.199939
H86	H	0.624814	0.054749	-0.193743
H87	H	0.822267	-0.127632	0.145984
H88	H	0.901410	0.018312	0.223240
H89	H	0.927128	-0.010812	0.617721
H90	H	0.729495	0.213248	0.210079
H91	H	0.174821	0.095865	-0.143783
C92	C	0.831403	-0.502472	-0.192555
H93	H	0.832667	-0.540882	-0.235041
H94	H	0.872778	-0.476702	-0.197445
H95	H	0.791417	-0.464409	-0.198270
H96	H	0.031064	0.106797	0.130147
H97	H	0.894707	0.025919	0.381292
C98	C	0.734425	0.207647	0.774040
H99	H	0.707819	0.237776	0.733463
H100	H	0.758124	0.242042	0.805823
H101	H	0.703888	0.180963	0.809929
H102	H	0.163191	0.109000	0.129988
H103	H	0.722801	0.220856	0.368139
C104	C	0.033213	0.092444	-0.165176
H105	H	0.067242	0.090813	-0.210145
H106	H	-0.000307	0.137764	-0.171394
H107	H	0.010181	0.045860	-0.165169
C108	C	0.933439	-0.017958	0.789262
H109	H	0.924189	-0.007471	0.846869
H110	H	0.980655	-0.010221	0.774403
H111	H	0.926355	-0.071227	0.778545
