data_functionalizedCrystal
_audit_creation_method	'MofGen! by Chris Wilmer'
_symmetry_space_group_name_H-M	'P1'
_symmetry_Int_Tables_number	1
_symmetry_cell_setting	triclinic
loop_
_symmetry_equiv_pos_as_xyz
  x,y,z
_cell_length_a	9.065218
_cell_length_b	15.021413
_cell_length_c	9.065218
_cell_angle_alpha	89.994080
_cell_angle_beta	85.015885
_cell_angle_gamma	90.007503
loop_
_atom_site_label
_atom_site_type_symbol
_atom_site_fract_x
_atom_site_fract_y
_atom_site_fract_z
O1	O	1.960410	0.074030	0.216337
O2	O	2.460410	0.574030	0.716337
O3	O	1.531125	0.074031	0.234084
O4	O	2.031125	0.574031	0.734084
O5	O	1.754640	0.074029	0.010568
O6	O	2.254640	0.574029	0.510568
O7	O	1.736894	0.074033	0.439853
O8	O	2.236894	0.574033	0.939853
O9	O	1.754605	-0.074035	0.010600
O10	O	2.254605	0.425965	0.510600
O11	O	1.531089	-0.074033	0.234116
O12	O	2.031089	0.425967	0.734116
O13	O	1.960374	-0.074034	0.216369
O14	O	2.460374	0.425966	0.716369
Zn15	Zn	1.745726	-0.097542	0.225247
Zn16	Zn	2.245726	0.402458	0.725247
Zn17	Zn	1.745773	0.097539	0.225205
Zn18	Zn	2.245773	0.597539	0.725205
O19	O	1.736858	-0.074032	0.439885
O20	O	2.236858	0.425968	0.939885
C21	C	1.476120	-0.000001	0.232394
C22	C	1.976120	0.499999	0.732394
C23	C	1.312277	-0.000000	0.227294
C24	C	1.812277	0.500000	0.727294
N25	N	1.745705	-0.230679	0.225275
N26	N	2.245705	0.269321	0.725275
C27	C	1.642334	-0.470362	0.328580
C28	C	2.142334	0.029638	0.828580
C29	C	1.776049	-0.529696	0.359000
C30	C	2.276049	-0.029696	0.859000
C31	C	1.745742	-0.412286	0.225239
C32	C	2.245742	0.087714	0.725239
C33	C	1.612064	-0.529693	0.194852
C34	C	2.112064	-0.029693	0.694852
C35	C	1.745766	-0.587710	0.225207
C36	C	2.245766	-0.087710	0.725207
C37	C	1.879524	-0.470314	0.255727
C38	C	2.379524	0.029686	0.755727
C39	C	1.715451	-0.470307	0.091520
C40	C	2.215451	0.029693	0.591520
C41	C	1.849261	-0.529614	0.121885
C42	C	2.349261	-0.029614	0.621885
C43	C	1.745726	-0.311229	0.225261
C44	C	2.245726	0.188771	0.725261
C45	C	1.745797	-0.688766	0.225184
C46	C	2.245797	-0.188766	0.725184
C47	C	2.015378	0.000000	0.218059
C48	C	2.515378	0.500000	0.718059
C49	C	2.179221	0.000005	0.223158
C50	C	2.679221	0.500005	0.723158
C51	C	1.752917	-0.000002	-0.044403
C52	C	2.252917	0.499998	0.455597
C53	C	1.747817	0.000003	-0.208245
C54	C	2.247817	0.500003	0.291755
N55	N	1.745806	0.230677	0.225166
N56	N	2.245806	0.730677	0.725166
C57	C	1.738582	0.000001	0.494855
C58	C	2.238582	0.500001	0.994855
C59	C	1.743681	0.000003	0.658698
C60	C	2.243681	0.500003	1.158698
H61	H	1.554976	-0.444345	0.416044
H62	H	2.054976	0.055655	0.916044
Cl63	Cl	2.054123	-0.430220	0.295591
Cl64	Cl	2.554123	0.069780	0.795591
H65	H	1.499005	-0.555778	0.169165
H66	H	1.999005	-0.055778	0.669165
Cl67	Cl	1.984434	-0.569538	-0.013067
Cl68	Cl	2.484434	-0.069538	0.486933
Cl69	Cl	1.675799	-0.429995	-0.082998
Cl70	Cl	2.175799	0.070005	0.417002
H71	H	1.801690	-0.555782	0.472070
H72	H	2.301690	-0.055782	0.972070
