data_functionalizedCrystal
_audit_creation_method	'MofGen! by Chris Wilmer'
_symmetry_space_group_name_H-M	'P1'
_symmetry_Int_Tables_number	1
_symmetry_cell_setting	triclinic
loop_
_symmetry_equiv_pos_as_xyz
  x,y,z
_cell_length_a	10.654541
_cell_length_b	17.699083
_cell_length_c	16.776229
_cell_angle_alpha	90.007545
_cell_angle_beta	90.005775
_cell_angle_gamma	83.883471
loop_
_atom_site_label
_atom_site_type_symbol
_atom_site_fract_x
_atom_site_fract_y
_atom_site_fract_z
O1	O	-1.665988	-0.106296	-0.066266
O2	O	-1.300331	-0.116425	-0.066273
O3	O	-1.493490	-0.001237	-0.066262
O4	O	-1.472829	-0.221484	-0.066276
O5	O	-1.493465	-0.001230	0.066315
O6	O	-1.300306	-0.116418	0.066304
O7	O	-1.665962	-0.106288	0.066311
Zn8	Zn	-1.483130	-0.111352	0.087357
Zn9	Zn	-1.483164	-0.111362	-0.087318
O10	O	-1.472803	-0.221477	0.066300
C11	C	-1.253534	-0.115678	0.000015
C12	C	-1.114129	-0.113454	0.000012
C13	C	-1.492737	0.026968	0.000026
C14	C	-1.490516	0.111001	0.000027
C15	C	-1.712760	-0.107035	0.000022
C16	C	-1.852165	-0.109260	0.000019
C17	C	-1.083747	-0.251193	-0.000007
C18	C	-1.003066	-0.319015	-0.000019
C19	C	-0.872084	-0.316920	-0.000020
C20	C	-0.821783	-0.246997	-0.000006
C21	C	-0.902464	-0.179175	0.000007
C22	C	-1.033447	-0.181277	0.000005
C23	C	-0.932846	-0.041438	0.000032
C24	C	-1.063828	-0.043531	0.000027
C25	C	-0.882545	0.028485	0.000046
C26	C	-0.963227	0.096308	0.000053
C27	C	-1.094215	0.094211	0.000053
C28	C	-1.144509	0.024291	0.000039
C29	C	-1.473556	-0.249682	0.000010
C30	C	-1.475777	-0.333714	0.000005
N31	N	-1.483116	-0.111345	0.206568
C32	C	-1.603896	0.158901	0.000030
C33	C	-1.601802	0.237858	0.000023
C34	C	-1.486326	0.268912	0.000018
C35	C	-1.372937	0.221005	0.000013
C36	C	-1.375033	0.142050	0.000014
C37	C	-1.364483	0.539422	0.000006
C38	C	-1.362396	0.618383	0.000007
C39	C	-1.591252	0.635230	0.000015
C40	C	-1.593348	0.556275	0.000016
C41	C	-1.479960	0.508375	0.000006
C42	C	-1.482232	0.422761	0.000013
C43	C	-1.484052	0.354524	0.000018
N44	N	-1.483187	-0.111363	-0.206530
C45	C	-1.568673	-0.060361	0.248290
C46	C	-1.568680	-0.060360	0.331742
C47	C	-1.483135	-0.111348	0.373471
C48	C	-1.397569	-0.162335	0.331743
C49	C	-1.397557	-0.162331	0.248293
C50	C	-1.397615	-0.162350	0.668290
C51	C	-1.397636	-0.162351	0.751747
C52	C	-1.568737	-0.060379	0.751740
C53	C	-1.568725	-0.060376	0.668289
C54	C	-1.483156	-0.111359	0.626569
C55	C	-1.483147	-0.111358	0.536080
C56	C	-1.483148	-0.111353	0.463958
H57	H	-1.190398	-0.252906	-0.000024
C58	C	-0.907894	0.173213	0.000067
H59	H	-0.818331	0.164747	0.000064
H60	H	-0.935596	0.201170	0.046301
H61	H	-0.935599	0.201165	-0.046170
H62	H	-1.159900	0.149440	0.000066
H63	H	-1.638346	-0.018845	0.365712
H64	H	-0.775892	0.030186	0.000050
H65	H	-1.327911	-0.203848	0.365724
H66	H	-1.327887	-0.203847	0.214323
H67	H	-1.044036	-0.375945	-0.000029
H68	H	-1.683578	0.674240	0.000019
C69	C	-1.662844	-0.004305	0.622388
H70	H	-1.650596	-0.011613	0.566712
H71	H	-1.649393	0.046290	0.636067
H72	H	-1.746623	-0.013013	0.636059
H73	H	-1.251159	0.022576	0.000030
H74	H	-0.715130	-0.245298	0.000003
H75	H	-1.694128	0.276856	0.000027
H76	H	-1.638409	-0.018863	0.785718
C77	C	-1.235367	0.652542	-0.000009
H78	H	-1.168136	0.612707	-0.000023
H79	H	-1.229774	0.682998	0.046222
H80	H	-1.229819	0.682986	-0.046249
C81	C	-1.720370	0.522119	0.000018
H82	H	-1.787598	0.561956	0.000011
H83	H	-1.725940	0.491672	0.046249
H84	H	-1.725946	0.491665	-0.046221
H85	H	-1.272155	0.500431	-0.000002
H86	H	-1.278915	0.246296	0.000004
C87	C	-1.303510	-0.218427	0.797647
H88	H	-1.252532	-0.248782	0.760849
H89	H	-1.348568	-0.250193	0.830195
H90	H	-1.251339	-0.190889	0.830208
H91	H	-1.327943	-0.203864	0.634328
C92	C	-1.662780	-0.004281	0.202392
H93	H	-1.650533	-0.011585	0.146715
H94	H	-1.649314	0.046310	0.216077
H95	H	-1.746564	-0.012981	0.216060
H96	H	-0.806392	-0.372147	-0.000025
H97	H	-1.697930	0.133623	0.000039
H98	H	-1.282707	0.103050	0.000011
