data_functionalizedCrystal
_audit_creation_method	'MofGen! by Chris Wilmer'
_symmetry_space_group_name_H-M	'P1'
_symmetry_Int_Tables_number	1
_symmetry_cell_setting	triclinic
loop_
_symmetry_equiv_pos_as_xyz
  x,y,z
_cell_length_a	21.395364
_cell_length_b	21.395362
_cell_length_c	21.395356
_cell_angle_alpha	89.970924
_cell_angle_beta	89.976411
_cell_angle_gamma	90.042450
loop_
_atom_site_label
_atom_site_type_symbol
_atom_site_fract_x
_atom_site_fract_y
_atom_site_fract_z
Zn1	Zn	0.957867	-0.249204	-0.354255
Zn2	Zn	0.957777	-0.353981	-0.249475
Zn3	Zn	0.853084	-0.249249	-0.249492
Zn4	Zn	0.853057	-0.353975	-0.354216
O5	O	0.905446	-0.301602	-0.301860
O6	O	1.045533	-0.263087	-0.340366
O7	O	0.943863	-0.340109	-0.161800
O8	O	0.867033	-0.161565	-0.263413
O9	O	1.045467	-0.340066	-0.263384
O10	O	0.944016	-0.161532	-0.340382
O11	O	0.866945	-0.263162	-0.161812
O12	O	0.765403	-0.263157	-0.263374
O13	O	0.866987	-0.340057	-0.441899
O14	O	0.765383	-0.340099	-0.340314
O15	O	0.943990	-0.263082	-0.441928
O16	O	0.943837	-0.441658	-0.263346
O17	O	0.866900	-0.441654	-0.340298
C18	C	0.742659	-0.301633	-0.301842
C19	C	0.673018	-0.301661	-0.301849
C20	C	0.640361	-0.261644	-0.341996
C21	C	0.574926	-0.261627	-0.341998
C22	C	0.542149	-0.301639	-0.301861
C23	C	0.574814	-0.341659	-0.261707
C24	C	0.640248	-0.341670	-0.261701
C25	C	0.438428	-0.358064	-0.296822
C26	C	0.372995	-0.358054	-0.296832
C27	C	0.340329	-0.301604	-0.301875
C28	C	0.373103	-0.245163	-0.306921
C29	C	0.438537	-0.245174	-0.306915
C30	C	0.471197	-0.301631	-0.301862
C31	C	0.236720	-0.261566	-0.342026
C32	C	0.171283	-0.261548	-0.342024
C33	C	0.171172	-0.341585	-0.261736
C34	C	0.236607	-0.341598	-0.261735
C35	C	0.269377	-0.301589	-0.301883
C36	C	0.905373	-0.464390	-0.301829
C37	C	0.905399	-0.534031	-0.301837
C38	C	0.945659	-1.035809	-0.261892
C39	C	0.945635	-0.970373	-0.261878
C40	C	0.905535	-0.937670	-0.301904
C41	C	0.865445	-0.970407	-0.341937
C42	C	0.865466	-1.035841	-0.341947
C43	C	0.900526	-0.833971	-0.358335
C44	C	0.900510	-0.768538	-0.358327
C45	C	0.905469	-0.735849	-0.301876
C46	C	0.910456	-0.768600	-0.245432
C47	C	0.910477	-0.834035	-0.245441
C48	C	0.905508	-0.866717	-0.301899
C49	C	0.945528	-0.632167	-0.261827
C50	C	0.945499	-0.566731	-0.261811
C51	C	0.865313	-0.566765	-0.341876
C52	C	0.865338	-0.632200	-0.341886
C53	C	0.905448	-0.664898	-0.301862
C54	C	1.068870	-0.301572	-0.301878
C55	C	1.138511	-0.301559	-0.301885
C56	C	0.905496	-0.301564	-0.465283
C57	C	0.905517	-0.301547	-0.534924
C58	C	0.905537	-0.138179	-0.301904
C59	C	0.905576	-0.068538	-0.301923
C60	C	0.865476	-0.261476	-0.567634
C61	C	0.865474	-0.261465	-0.633069
C62	C	0.905524	-0.301517	-0.665793
C63	C	0.945567	-0.341596	-0.633075
C64	C	0.945563	-0.341610	-0.567641
C65	C	0.961976	-0.306428	-0.769479
C66	C	0.961980	-0.306409	-0.834912
C67	C	0.905534	-0.301475	-0.867614
C68	C	0.849081	-0.296547	-0.834874
C69	C	0.849078	-0.296562	-0.769440
C70	C	0.905532	-0.301506	-0.736745
C71	C	0.865488	-0.261390	-0.971276
C72	C	0.865485	-0.261382	-1.036712
C73	C	0.945583	-0.341510	-1.036717
C74	C	0.945581	-0.341520	-0.971282
C75	C	0.905534	-0.301457	-0.938565
C76	C	0.905433	-0.301596	-0.139072
C77	C	0.905534	-0.301436	-0.069431
H78	H	0.666836	-0.374258	-0.229008
H79	H	0.914536	-0.860698	-0.199482
C80	C	0.135126	-0.385601	-0.217588
H81	H	0.091478	-0.379867	-0.223344
H82	H	0.145836	-0.376382	-0.175506
H83	H	0.145817	-0.427713	-0.226688
C84	C	0.337182	-0.183063	-0.312466
H85	H	0.366072	-0.149453	-0.315474
H86	H	0.311645	-0.177503	-0.276569
H87	H	0.311672	-0.183920	-0.348788
H88	H	0.832879	-0.228768	-0.944636
C89	C	0.989624	-0.385650	-0.669065
H90	H	1.013469	-0.409520	-0.640210
H91	H	1.016939	-0.361670	-0.694606
H92	H	0.965641	-0.412950	-0.694576
C93	C	0.474590	-0.183095	-0.312460
H94	H	0.518237	-0.191190	-0.311738
H95	H	0.463875	-0.156692	-0.278426
H96	H	0.463905	-0.163110	-0.350645
C97	C	0.989772	-1.071772	-0.217861
H98	H	1.013636	-1.042904	-0.194014
H99	H	1.017066	-1.097256	-0.241856
H100	H	0.965822	-1.097337	-0.190538
C101	C	0.915900	-0.732651	-0.183332
H102	H	0.915164	-0.688991	-0.191407
H103	H	0.954056	-0.743343	-0.163329
H104	H	0.881828	-0.743435	-0.156952
H105	H	0.978137	-0.540082	-0.229210
H106	H	0.263402	-0.228984	-0.374713
H107	H	0.263197	-0.374187	-0.229046
C108	C	0.135361	-0.217527	-0.386187
H109	H	0.164251	-0.193706	-0.410099
H110	H	0.109849	-0.190188	-0.362274
H111	H	0.109826	-0.241532	-0.413444
C112	C	0.821425	-0.217318	-1.072696
H113	H	0.827152	-0.223056	-1.116353
H114	H	0.830607	-0.175217	-1.061997
H115	H	0.779323	-0.226511	-1.061945
C116	C	0.786985	-0.291152	-0.733429
H117	H	0.753365	-0.288216	-0.762272
H118	H	0.787815	-0.254841	-0.707910
H119	H	0.781463	-0.327074	-0.707894
H120	H	0.978187	-0.658790	-0.229236
H121	H	0.832794	-0.943776	-0.374527
H122	H	0.346315	-0.404013	-0.292726
H123	H	0.896453	-0.741874	-0.404286
H124	H	0.465020	-0.404036	-0.292715
C125	C	0.821378	-1.071844	-0.385986
H126	H	0.797494	-1.042998	-0.409826
H127	H	0.794101	-1.097418	-0.361999
H128	H	0.845345	-1.097323	-0.413316
C129	C	0.538762	-0.385673	-0.217560
H130	H	0.495114	-0.379941	-0.223318
H131	H	0.549471	-0.376452	-0.175477
H132	H	0.549454	-0.427786	-0.226657
H133	H	0.978276	-0.943720	-0.229279
C134	C	0.821423	-0.217415	-0.531646
H135	H	0.827156	-0.223159	-0.487990
H136	H	0.779321	-0.226589	-0.542354
H137	H	0.830621	-0.175311	-0.542384
H138	H	0.832661	-0.540138	-0.374464
H139	H	0.896602	-0.860581	-0.404317
H140	H	0.832700	-0.658849	-0.374485
C141	C	0.821434	-0.217382	-0.669061
H142	H	0.827171	-0.223114	-0.712716
H143	H	0.830632	-0.175287	-0.658351
H144	H	0.779326	-0.226559	-0.658323
H145	H	0.803118	-0.292525	-0.861498
H146	H	0.978193	-0.374120	-1.063360
H147	H	0.978187	-0.374149	-0.944649
C148	C	1.024075	-0.311828	-0.870919
H149	H	1.057691	-0.314780	-0.842073
H150	H	1.029607	-0.275913	-0.896456
H151	H	1.023238	-0.348145	-0.896435
C152	C	0.676405	-0.217628	-0.386149
H153	H	0.647580	-0.193788	-0.410055
H154	H	0.701926	-0.241631	-0.413403
H155	H	0.701939	-0.190298	-0.362223
C156	C	1.024069	-0.311862	-0.733510
H157	H	1.015982	-0.311173	-0.689852
H158	H	1.050447	-0.277774	-0.744250
H159	H	1.044078	-0.350005	-0.744233
C160	C	0.989613	-0.385686	-0.531659
H161	H	1.013468	-0.409537	-0.560517
H162	H	0.965631	-0.412994	-0.506113
H163	H	1.016928	-0.361713	-0.506153
H164	H	0.548332	-0.229037	-0.374689
