data_functionalizedCrystal
_audit_creation_method	'MofGen! by Chris Wilmer'
_symmetry_space_group_name_H-M	'P1'
_symmetry_Int_Tables_number	1
_symmetry_cell_setting	triclinic
loop_
_symmetry_equiv_pos_as_xyz
  x,y,z
_cell_length_a	10.540539
_cell_length_b	16.992695
_cell_length_c	15.455313
_cell_angle_alpha	87.152573
_cell_angle_beta	92.706132
_cell_angle_gamma	87.596857
loop_
_atom_site_label
_atom_site_type_symbol
_atom_site_fract_x
_atom_site_fract_y
_atom_site_fract_z
O1	O	-1.700697	-0.107164	-0.072091
O2	O	-1.200697	0.392836	0.427909
O3	O	-1.332189	-0.117581	-0.072101
O4	O	-0.832189	0.382419	0.427899
O5	O	-1.514965	0.001778	-0.072089
O6	O	-1.014965	0.501778	0.427911
O7	O	-1.517921	-0.226523	-0.072103
O8	O	-1.017921	0.273477	0.427897
O9	O	-1.504510	-0.005019	0.072172
O10	O	-1.004510	0.494981	0.572172
O11	O	-1.321734	-0.124378	0.072160
O12	O	-0.821734	0.375622	0.572160
O13	O	-1.690242	-0.113961	0.072171
O14	O	-1.190242	0.386039	0.572171
Cu15	Cu	-1.505033	-0.119790	0.085338
Cu16	Cu	-1.005033	0.380210	0.585338
Cu17	Cu	-1.517398	-0.111752	-0.085268
Cu18	Cu	-1.017398	0.388248	0.414732
O19	O	-1.507466	-0.233320	0.072159
O20	O	-1.007466	0.266680	0.572159
C21	C	-1.279591	-0.120198	0.000028
C22	C	-0.779591	0.379802	0.500028
C23	C	-1.138440	-0.117861	0.000024
C24	C	-0.638440	0.382139	0.500024
C25	C	-1.505937	0.027613	0.000041
C26	C	-1.005937	0.527613	0.500041
C27	C	-1.494596	0.114721	0.000041
C28	C	-0.994596	0.614721	0.500041
C29	C	-1.742840	-0.111344	0.000039
C30	C	-1.242840	0.388656	0.500039
C31	C	-1.883991	-0.113681	0.000038
C32	C	-1.383991	0.386319	0.500038
C33	C	-0.947217	-0.028316	0.000366
C34	C	-0.447217	0.471684	0.500366
C35	C	-1.094065	-0.030670	0.000032
C36	C	-0.594065	0.469330	0.500032
C37	C	-1.086379	-0.155939	-0.082356
C38	C	-0.586379	0.344061	0.417644
C39	C	-0.939580	-0.152961	-0.082415
C40	C	-0.439580	0.347039	0.417585
C41	C	-0.927357	-0.162464	0.081637
C42	C	-0.427357	0.337536	0.581637
C43	C	-1.074330	-0.163318	0.082716
C44	C	-0.574330	0.336682	0.582716
C45	C	-1.516494	-0.259155	0.000026
C46	C	-1.016494	0.240845	0.500026
C47	C	-1.527835	-0.346263	0.000021
C48	C	-1.027835	0.153737	0.500021
N49	N	-1.496346	-0.125444	0.205333
N50	N	-0.996346	0.374556	0.705333
C51	C	-1.604016	0.164349	0.000045
C52	C	-1.104016	0.664349	0.500045
C53	C	-1.593354	0.246195	0.000036
C54	C	-1.093354	0.746195	0.500036
C55	C	-1.473270	0.278413	0.000030
C56	C	-0.973270	0.778413	0.500030
C57	C	-1.363842	0.228779	0.000023
C58	C	-0.863842	0.728779	0.500023
C59	C	-1.374506	0.146934	0.000025
C60	C	-0.874506	0.646934	0.500025
C61	C	-1.429072	0.522259	0.000017
C62	C	-0.929072	1.022259	0.500017
C63	C	-1.418415	0.604110	0.000017
C64	C	-0.918415	1.104110	0.500017
C65	C	-1.647928	0.621521	0.000028
C66	C	-1.147928	1.121521	0.500028
C67	C	-1.658581	0.539673	0.000036
C68	C	-1.158581	1.039673	0.500036
C69	C	-1.549154	0.490047	0.000025
C70	C	-1.049154	0.990047	0.500025
N71	N	-1.462368	0.362073	0.000024
N72	N	-0.962368	0.862073	0.500024
N73	N	-1.560057	0.406389	0.000024
N74	N	-1.060057	0.906389	0.500024
N75	N	-1.526094	-0.106092	-0.205263
N76	N	-1.026094	0.393908	0.294737
C77	C	-1.574027	-0.074755	0.250732
C78	C	-1.074027	0.425245	0.750732
C79	C	-1.567470	-0.079037	0.341539
C80	C	-1.067470	0.420963	0.841539
C81	C	-1.483238	-0.134013	0.386946
C82	C	-0.983238	0.365987	0.886946
C83	C	-1.405549	-0.184704	0.341540
C84	C	-0.905549	0.315296	0.841540
C85	C	-1.412100	-0.180417	0.250734
C86	C	-0.912100	0.319583	0.750734
C87	C	-1.454957	-0.152496	0.658525
C88	C	-0.954957	0.347504	1.158525
C89	C	-1.448413	-0.156781	0.749337
C90	C	-0.948413	0.343219	1.249337
C91	C	-1.610334	-0.051113	0.749330
C92	C	-1.110334	0.448887	1.249330
C93	C	-1.616883	-0.046834	0.658523
C94	C	-1.116883	0.453166	1.158523
C95	C	-1.539190	-0.097522	0.613125
C96	C	-1.039190	0.402478	1.113125
N97	N	-1.476536	-0.138394	0.479766
N98	N	-0.976536	0.361606	0.979766
N99	N	-1.545886	-0.093137	0.520307
N100	N	-1.045886	0.406863	1.020307
H101	H	-1.129534	-0.000436	0.059086
H102	H	-0.629534	0.499564	0.559086
Cl103	Cl	-1.299649	-0.253814	0.398621
Cl104	Cl	-0.799649	0.246186	0.898621
Cl105	Cl	-1.707995	0.012609	0.806406
Cl106	Cl	-1.207995	0.512609	1.306406
Cl107	Cl	-1.314435	-0.244141	0.193662
Cl108	Cl	-0.814435	0.255859	0.693662
Cl109	Cl	-0.891850	0.020569	0.091581
Cl110	Cl	-0.391850	0.520569	0.591581
H111	H	-0.888837	-0.137189	0.144080
H112	H	-0.388837	0.362811	0.644080
Cl113	Cl	-1.291504	0.459882	0.000000
Cl114	Cl	-0.791504	0.959882	0.500000
Cl115	Cl	-1.722777	0.022278	0.601440
Cl116	Cl	-1.222777	0.522278	1.101440
H117	H	-0.918291	0.008752	-0.058380
H118	H	-0.418291	0.508752	0.441620
Cl119	Cl	-1.809552	0.499179	0.000016
Cl120	Cl	-1.309552	0.999179	0.500016
H121	H	-1.137212	0.005366	-0.059120
H122	H	-0.637212	0.505366	0.440880
Cl123	Cl	-1.155079	-0.106478	-0.177009
Cl124	Cl	-0.655079	0.393522	0.322991
Cl125	Cl	-0.898755	-0.100600	-0.177482
Cl126	Cl	-0.398755	0.399400	0.322518
H127	H	-0.897324	-0.215491	-0.086158
H128	H	-0.397324	0.284509	0.413842
H129	H	-1.103712	-0.227120	0.087687
H130	H	-0.603712	0.272880	0.587687
Cl131	Cl	-0.862819	-0.259736	0.082492
Cl132	Cl	-0.362819	0.240264	0.582492
Cl133	Cl	-1.129849	-0.254566	-0.087116
Cl134	Cl	-0.629849	0.245434	0.412884
Cl135	Cl	-1.236944	0.084545	0.000017
Cl136	Cl	-0.736944	0.584545	0.500017
Cl137	Cl	-1.212879	0.269281	0.000004
Cl138	Cl	-0.712879	0.769281	0.500004
H139	H	-1.379818	-0.201552	0.786303
H140	H	-0.879818	0.298448	1.286303
Cl141	Cl	-1.754986	0.123855	0.000062
Cl142	Cl	-1.254986	0.623855	0.500062
H143	H	-1.391697	-0.193770	0.621570
H144	H	-0.891697	0.306230	1.121570
Cl145	Cl	-1.126481	-0.120346	0.176810
Cl146	Cl	-0.626481	0.379654	0.676810
Cl147	Cl	-1.785485	0.683912	0.000040
Cl148	Cl	-1.285485	1.183912	0.500040
Cl149	Cl	-1.730917	0.308581	0.000044
Cl150	Cl	-1.230917	0.808581	0.500044
H151	H	-1.320623	0.630337	0.000026
H152	H	-0.820623	1.130337	0.500026
H153	H	-1.642623	-0.029991	0.213768
H154	H	-1.142623	0.470009	0.713768
H155	H	-1.630722	-0.037762	0.378503
H156	H	-1.130722	0.462238	0.878503
