data_functionalizedCrystal
_audit_creation_method	'MofGen! by Chris Wilmer'
_symmetry_space_group_name_H-M	'P1'
_symmetry_Int_Tables_number	1
_symmetry_cell_setting	triclinic
loop_
_symmetry_equiv_pos_as_xyz
  x,y,z
_cell_length_a	16.120530
_cell_length_b	13.033615
_cell_length_c	13.032268
_cell_angle_alpha	90.919108
_cell_angle_beta	85.357344
_cell_angle_gamma	93.931702
loop_
_atom_site_label
_atom_site_type_symbol
_atom_site_fract_x
_atom_site_fract_y
_atom_site_fract_z
Zn1	Zn	1.157364	-0.564931	0.592636
Zn2	Zn	1.657364	-0.064931	1.092636
Zn3	Zn	1.161674	-0.715402	0.399073
Zn4	Zn	1.661674	-0.215402	0.899073
Zn5	Zn	1.039079	-0.534792	0.414227
Zn6	Zn	1.539079	-0.034792	0.914227
Zn7	Zn	1.004682	-0.726084	0.562438
Zn8	Zn	1.504682	-0.226084	1.062438
O9	O	1.090700	-0.635302	0.492094
O10	O	1.590700	-0.135302	0.992094
O11	O	1.273140	-0.593034	0.573255
O12	O	1.773140	-0.093034	1.073255
O13	O	1.161610	-0.674360	0.258050
O14	O	1.661610	-0.174360	0.758050
O15	O	1.067361	-0.395762	0.456873
O16	O	1.567361	0.104238	0.956873
O17	O	1.276307	-0.703584	0.431046
O18	O	1.776307	-0.203584	0.931046
O19	O	1.154264	-0.417904	0.587949
O20	O	1.654264	0.082096	1.087949
O21	O	1.071540	-0.541667	0.269183
O22	O	1.571540	-0.041667	0.769183
O23	O	0.919311	-0.552025	0.427591
O24	O	1.419311	-0.052025	0.927591
O25	O	1.008737	-0.721791	0.709477
O26	O	1.508737	-0.221791	1.209477
O27	O	0.894040	-0.692566	0.536482
O28	O	1.394040	-0.192566	1.036482
O29	O	1.120911	-0.603392	0.731664
O30	O	1.620911	-0.103392	1.231664
O31	O	1.128258	-0.859848	0.401764
O32	O	1.628258	-0.359848	0.901764
O33	O	1.012916	-0.867696	0.521788
O34	O	1.512916	-0.367696	1.021788
C35	C	0.876805	-0.620185	0.480405
C36	C	1.376805	-0.120185	0.980405
C37	C	0.785294	-0.613745	0.475425
C38	C	1.285294	-0.113745	0.975425
C39	C	1.067342	-0.900862	0.456878
C40	C	1.567342	-0.400862	0.956878
C41	C	1.057421	-1.014479	0.441851
C42	C	1.557421	-0.514479	0.941851
C43	C	1.060506	-0.667145	0.758695
C44	C	1.560506	-0.167145	1.258695
C45	C	1.047640	-0.680714	0.872304
C46	C	1.547640	-0.180714	1.372304
C47	C	0.617744	-0.601965	0.466345
C48	C	1.117744	-0.101965	0.966345
C49	C	0.564481	-0.668724	0.517906
C50	C	1.064481	-0.168724	1.017906
C51	C	0.471250	-0.662169	0.512854
C52	C	0.971250	-0.162169	1.012854
C53	C	0.710984	-0.608518	0.471396
C54	C	1.210984	-0.108518	0.971396
C55	C	1.305430	-0.650480	0.503829
C56	C	1.805430	-0.150480	1.003829
C57	C	1.396935	-0.656947	0.508830
C58	C	1.896935	-0.156947	1.008830
C59	C	1.114168	-0.368710	0.527470
C60	C	1.614168	0.131290	1.027470
C61	C	1.124169	-0.255105	0.542545
C62	C	1.624169	0.244895	1.042545
C63	C	1.085630	-0.193500	0.484412
C64	C	1.585630	0.306500	0.984412
C65	C	1.095966	-0.076082	0.499992
C66	C	1.595966	0.423918	0.999992
C67	C	1.120829	-0.603513	0.226542
C68	C	1.620829	-0.103513	0.726542
C69	C	1.133881	-0.589667	0.112980
C70	C	1.633881	-0.089667	0.612980
C71	C	1.097405	-0.628183	0.933932
C72	C	1.597405	-0.128183	1.433932
C73	C	1.084108	-0.642206	1.051353
C74	C	1.584108	-0.142206	1.551353
H75	H	0.593327	-0.539894	0.418411
H76	H	1.093327	-0.039894	0.918411
H77	H	1.164813	-0.220920	0.603853
H78	H	1.664813	0.279080	1.103853
H79	H	0.995185	-0.736063	0.906473
H80	H	1.495185	-0.236063	1.406473
H81	H	1.016765	-0.048658	0.380549
H82	H	1.516765	0.451342	0.880549
O83	O	1.021571	-0.708385	1.091970
O84	O	1.521571	-0.208385	1.591970
C85	C	1.033534	-0.808444	1.053439
C86	C	1.533534	-0.308444	1.553439
H87	H	1.073714	-0.803604	0.977338
H88	H	1.573714	-0.303604	1.477338
H89	H	0.970483	-0.849657	1.040565
H90	H	1.470483	-0.349657	1.540565
H91	H	1.066075	-0.852983	1.111257
H92	H	1.566075	-0.352983	1.611257
H93	H	1.044980	-0.227686	0.423112
H94	H	1.544980	0.272314	0.923112
H95	H	1.186331	-0.534301	1.078818
H96	H	1.686331	-0.034301	1.578818
O97	O	1.144459	-0.035143	0.573058
O98	O	1.644459	0.464857	1.073058
C99	C	1.143971	0.072977	0.572361
C100	C	1.643971	0.572977	1.072361
H101	H	1.127207	0.098783	0.493914
H102	H	1.627207	0.598783	0.993914
H103	H	1.208403	0.108443	0.588019
H104	H	1.708403	0.608443	1.088019
H105	H	1.095911	0.099134	0.634584
H106	H	1.595911	0.599134	1.134584
H107	H	0.588899	-0.730799	0.565845
H108	H	1.088899	-0.230799	1.065845
H109	H	1.149853	-0.572823	0.899764
H110	H	1.649853	-0.072823	1.399764
