data_functionalizedCrystal
_audit_creation_method	'MofGen! by Chris Wilmer'
_symmetry_space_group_name_H-M	'P1'
_symmetry_Int_Tables_number	1
_symmetry_cell_setting	triclinic
loop_
_symmetry_equiv_pos_as_xyz
  x,y,z
_cell_length_a	19.077713
_cell_length_b	11.169417
_cell_length_c	11.169409
_cell_angle_alpha	90.019824
_cell_angle_beta	92.261581
_cell_angle_gamma	92.266368
loop_
_atom_site_label
_atom_site_type_symbol
_atom_site_fract_x
_atom_site_fract_y
_atom_site_fract_z
Zn1	Zn	-0.280106	-1.853982	-0.697699
Zn2	Zn	-0.397817	-1.861864	-0.505066
Zn3	Zn	-0.280149	-1.653271	-0.497036
Zn4	Zn	-0.397760	-1.661264	-0.705707
O5	O	-0.338958	-1.757595	-0.601377
O6	O	-0.295726	-2.022978	-0.672155
O7	O	-0.382250	-1.834147	-0.336053
O8	O	-0.181660	-1.673252	-0.516942
O9	O	-0.382208	-2.028769	-0.530628
O10	O	-0.181628	-1.820713	-0.664368
O11	O	-0.295799	-1.680895	-0.330154
O12	O	-0.295744	-1.486381	-0.524707
O13	O	-0.382111	-1.686875	-0.872591
O14	O	-0.382152	-1.492254	-0.678017
O15	O	-0.295671	-1.828464	-0.866708
O16	O	-0.496293	-1.841898	-0.538393
O17	O	-0.496250	-1.694518	-0.685803
C18	C	-0.338947	-1.445770	-0.601360
C19	C	-0.338959	-1.312371	-0.601383
C20	C	-0.521807	-1.769964	-0.613864
C21	C	-0.600031	-1.775365	-0.619247
C22	C	-0.338880	-1.757682	-0.914414
C23	C	-0.338846	-1.757719	-1.047812
C24	C	-1.040339	-1.814098	-0.657815
C25	C	-0.966840	-1.809010	-0.652747
C26	C	-0.930173	-1.729751	-0.573405
C27	C	-0.967009	-1.655585	-0.499117
C28	C	-1.040507	-1.660680	-0.504180
C29	C	-0.710365	-1.706293	-0.550022
C30	C	-0.636862	-1.701201	-0.544967
C31	C	-0.636698	-1.854628	-0.698596
C32	C	-0.710197	-1.859711	-0.703657
C33	C	-0.747027	-1.785549	-0.629365
N34	N	-0.855044	-1.724546	-0.568225
N35	N	-0.822154	-1.790762	-0.634539
C36	C	-0.155394	-1.745212	-0.588867
C37	C	-0.077170	-1.739934	-0.583535
C38	C	-0.338969	-2.070638	-0.601394
C39	C	-0.338974	-2.204039	-0.601401
C40	C	-0.338985	-1.757575	-0.289554
C41	C	-0.338820	-1.757757	-0.156143
H42	H	-0.936852	-1.869400	-0.713230
H43	H	-0.937151	-1.591055	-0.434509
O44	O	-0.745704	-1.936835	-0.780735
C45	C	-0.697435	-2.001196	-0.845221
H46	H	-0.645060	-2.001716	-0.792471
H47	H	-0.689610	-1.956690	-0.935815
C48	C	-0.790354	-2.130277	-0.929330
C49	C	-0.726028	-2.130925	-0.864536
H50	H	-0.807993	-2.210299	-0.941249
H51	H	-0.822876	-2.086914	-0.885888
H52	H	-0.783826	-2.093183	-1.004818
H53	H	-0.732560	-2.168004	-0.789044
H54	H	-0.693509	-2.174297	-0.907965
H55	H	-1.070494	-1.600288	-0.443693
H56	H	-0.606704	-1.915009	-0.759080
H57	H	-0.607011	-1.636655	-0.480354
H58	H	-1.070188	-1.878627	-0.722436
H59	H	-0.740344	-1.645905	-0.489528
