data_functionalizedCrystal
_audit_creation_method	'MofGen! by Chris Wilmer'
_symmetry_space_group_name_H-M	'P1'
_symmetry_Int_Tables_number	1
_symmetry_cell_setting	triclinic
loop_
_symmetry_equiv_pos_as_xyz
  x,y,z
_cell_length_a	17.077404
_cell_length_b	13.897448
_cell_length_c	13.897449
_cell_angle_alpha	90.010270
_cell_angle_beta	90.007040
_cell_angle_gamma	90.017917
loop_
_atom_site_label
_atom_site_type_symbol
_atom_site_fract_x
_atom_site_fract_y
_atom_site_fract_z
Zn1	Zn	1.199986	-0.384172	0.545408
Zn2	Zn	1.199934	-0.545436	0.384110
Zn3	Zn	1.068747	-0.384158	0.384124
Zn4	Zn	1.068698	-0.545427	0.545359
O5	O	1.134341	-0.464798	0.464750
O6	O	1.309826	-0.405574	0.524026
O7	O	1.182530	-0.524040	0.249130
O8	O	1.086198	-0.249178	0.405545
O9	O	1.309788	-0.524054	0.405521
O10	O	1.182619	-0.249188	0.524040
O11	O	1.086147	-0.405549	0.249140
O12	O	0.958893	-0.405541	0.405497
O13	O	1.086115	-0.524039	0.680347
O14	O	0.958858	-0.524025	0.523956
O15	O	1.182572	-0.405565	0.680383
O16	O	1.182483	-0.680417	0.405473
O17	O	1.086064	-0.680410	0.523943
C18	C	0.930393	-0.464781	0.464723
C19	C	0.843144	-0.464797	0.464735
C20	C	0.802155	-0.526584	0.526318
C21	C	0.720175	-0.526586	0.526333
C22	C	0.679184	-0.464805	0.464760
C23	C	0.720178	-0.403010	0.403175
C24	C	0.802157	-0.403004	0.403165
C25	C	0.549308	-0.403029	0.403198
C26	C	0.467324	-0.403037	0.403206
C27	C	0.467326	-0.526612	0.526366
C28	C	0.549305	-0.526605	0.526356
C29	C	0.590293	-0.464812	0.464769
C30	C	1.134284	-0.715413	0.464722
C31	C	1.134331	-0.822627	0.464742
C32	C	1.134414	-1.018922	0.464803
C33	C	1.134366	-0.909689	0.464772
C34	C	1.339086	-0.464817	0.464777
C35	C	1.426335	-0.464824	0.464789
C36	C	1.134344	-0.464802	0.716343
C37	C	1.134345	-0.464804	0.823557
C38	C	1.134420	-0.213205	0.464799
C39	C	1.134454	-0.105991	0.464820
C40	C	1.134326	-0.464808	1.019852
C41	C	1.134334	-0.464809	0.910620
C42	C	1.134331	-0.464814	1.214136
C43	C	1.134325	-0.464806	1.106922
H44	H	0.835524	-0.576897	0.576454
F45	F	0.592929	-0.592366	0.591883
F46	F	0.592929	-0.337260	0.337651
H47	H	0.835529	-0.352685	0.353023
H48	H	0.686797	-0.352703	0.353045
H49	H	0.686806	-0.576901	0.576479
F50	F	0.423703	-0.592366	0.591923
H51	H	0.433951	-0.352717	0.353080
