data_functionalizedCrystal
_audit_creation_method	'MofGen! by Chris Wilmer'
_symmetry_space_group_name_H-M	'P1'
_symmetry_Int_Tables_number	1
_symmetry_cell_setting	triclinic
loop_
_symmetry_equiv_pos_as_xyz
  x,y,z
_cell_length_a	16.959455
_cell_length_b	18.101395
_cell_length_c	16.959447
_cell_angle_alpha	89.974098
_cell_angle_beta	89.982507
_cell_angle_gamma	90.028051
loop_
_atom_site_label
_atom_site_type_symbol
_atom_site_fract_x
_atom_site_fract_y
_atom_site_fract_z
Zn1	Zn	1.208348	-0.294901	-0.446913
Zn2	Zn	1.708348	0.205099	0.053087
Zn3	Zn	1.208238	-0.418747	-0.314737
Zn4	Zn	1.708238	0.081253	0.185263
Zn5	Zn	1.076169	-0.294917	-0.314751
Zn6	Zn	1.576169	0.205083	0.185249
Zn7	Zn	1.076116	-0.418699	-0.446875
Zn8	Zn	1.576116	0.081301	0.053125
O9	O	1.142218	-0.356816	-0.380819
O10	O	1.642218	0.143184	0.119181
O11	O	1.318944	-0.311343	-0.429390
O12	O	1.818944	0.188657	0.070610
O13	O	1.190695	-0.402347	-0.204128
O14	O	1.690695	0.097653	0.295872
O15	O	1.093771	-0.191282	-0.332304
O16	O	1.593771	0.308718	0.167696
O17	O	1.318863	-0.402332	-0.332280
O18	O	1.818863	0.097668	0.167720
O19	O	1.190883	-0.191271	-0.429404
O20	O	1.690883	0.308729	0.070596
O21	O	1.093664	-0.311370	-0.204138
O22	O	1.593664	0.188630	0.295862
O23	O	0.965551	-0.311323	-0.332267
O24	O	1.465551	0.188677	0.167733
O25	O	1.093680	-0.402251	-0.557491
O26	O	1.593680	0.097749	-0.057491
O27	O	0.965512	-0.402266	-0.429339
O28	O	1.465512	0.097734	0.070661
O29	O	1.190831	-0.311297	-0.557519
O30	O	1.690831	0.188703	-0.057519
O31	O	1.190643	-0.522373	-0.332243
O32	O	1.690643	-0.022373	0.167757
O33	O	1.093573	-0.522338	-0.429325
O34	O	1.593573	-0.022338	0.070675
C35	C	0.936851	-0.356792	-0.380801
C36	C	1.436851	0.143208	0.119199
C37	C	0.848995	-0.356799	-0.380812
C38	C	1.348995	0.143201	0.119188
C39	C	0.477515	-0.309424	-0.330380
C40	C	0.977515	0.190576	0.169620
C41	C	0.477523	-0.404269	-0.431304
C42	C	0.977523	0.095731	0.068696
C43	C	0.560069	-0.404259	-0.431299
C44	C	1.060069	0.095741	0.068701
C45	C	0.601342	-0.356831	-0.380833
C46	C	1.101342	0.143169	0.119167
C47	C	0.560069	-0.309413	-0.330372
C48	C	1.060069	0.190587	0.169628
C49	C	0.601348	-0.451681	-0.481754
C50	C	1.101348	0.048319	0.018246
C51	C	0.683899	-0.451672	-0.481750
C52	C	1.183899	0.048328	0.018250
C53	C	0.725173	-0.404240	-0.431287
C54	C	1.225173	0.095760	0.068713
C55	C	0.683895	-0.356820	-0.380825
C56	C	1.183895	0.143180	0.119175
C57	C	0.725168	-0.309392	-0.330359
C58	C	1.225168	0.190608	0.169641
C59	C	0.683891	-0.261968	-0.279899
C60	C	1.183891	0.238032	0.220101
C61	C	0.601343	-0.261981	-0.279909
C62	C	1.101343	0.238019	0.220091
C63	C	0.807722	-0.404227	-0.431278
C64	C	1.307722	0.095773	0.068722
C65	C	0.807722	-0.309381	-0.330351
C66	C	1.307722	0.190619	0.169649
C67	C	1.142112	-0.549227	-0.380796
C68	C	1.642112	-0.049227	0.119204
C69	C	1.142139	-0.631541	-0.380812
C70	C	1.642139	-0.131541	0.119188
C71	C	1.142312	-0.930632	-0.380855
C72	C	1.642312	-0.430632	0.119145
C73	C	1.081380	-0.899315	-0.442088
C74	C	1.581380	-0.399315	0.057912
C75	C	1.081091	-0.813697	-0.441896
C76	C	1.581091	-0.313697	0.058104
C77	C	1.142226	-0.782249	-0.380834
C78	C	1.642226	-0.282249	0.119166
C79	C	1.119675	-0.813397	-0.297530
C80	C	1.619675	-0.313397	0.202470
C81	C	1.119282	-0.899043	-0.297896
C82	C	1.619282	-0.399043	0.202104
C83	C	1.225929	-0.898980	-0.402193
C84	C	1.725929	-0.398980	0.097807
C85	C	1.225437	-0.813329	-0.404020
C86	C	1.725437	-0.313329	0.095980
C87	C	1.142179	-0.698390	-0.380818
C88	C	1.642179	-0.198390	0.119182
C89	C	1.142358	-1.014491	-0.380866
C90	C	1.642358	-0.514491	0.119134
C91	C	1.348386	-0.356841	-0.380838
C92	C	1.848386	0.143159	0.119162
C93	C	1.436242	-0.356852	-0.380846
C94	C	1.936242	0.143148	0.119154
C95	C	1.142262	-0.356767	-0.586987
C96	C	1.642262	0.143233	-0.086987
C97	C	1.142281	-0.356746	-0.674844
C98	C	1.642281	0.143254	-0.174844
C99	C	1.142345	-0.163654	-0.380860
C100	C	1.642345	0.336346	0.119140
C101	C	1.142400	-0.081340	-0.380877
C102	C	1.642400	0.418660	0.119123
C103	C	1.091709	-0.404092	-0.716105
C104	C	1.591709	0.095908	-0.216105
C105	C	1.192866	-0.309375	-0.716137
C106	C	1.692866	0.190625	-0.216137
C107	C	1.192882	-0.309351	-0.798683
C108	C	1.692882	0.190649	-0.298683
C109	C	1.142310	-0.356697	-0.839944
C110	C	1.642310	0.143303	-0.339944
C111	C	1.091722	-0.404068	-0.798659
C112	C	1.591722	0.095932	-0.298659
C113	C	1.243464	-0.261976	-0.839974
C114	C	1.743464	0.238024	-0.339974
C115	C	1.243482	-0.261949	-0.922525
C116	C	1.743482	0.238051	-0.422525
C117	C	1.192913	-0.309300	-0.963787
C118	C	1.692913	0.190700	-0.463787
C119	C	1.142324	-0.356673	-0.922497
C120	C	1.642324	0.143327	-0.422497
C121	C	1.091752	-0.404019	-0.963758
C122	C	1.591752	0.095981	-0.463758
C123	C	1.041165	-0.451396	-0.922470
C124	C	1.541165	0.048604	-0.422470
C125	C	1.041153	-0.451418	-0.839921
C126	C	1.541153	0.048582	-0.339921
C127	C	1.192925	-0.309278	-1.046336
C128	C	1.692925	0.190722	-0.546336
C129	C	1.091765	-0.403995	-1.046312
C130	C	1.591765	0.096005	-0.546312
C131	C	1.142219	-0.356812	-0.175453
C132	C	1.642219	0.143188	0.324547
C133	C	1.142353	-0.356624	-0.087597
C134	C	1.642353	0.143376	0.412403
H135	H	0.717507	-0.223355	-0.238806
H136	H	1.217507	0.276645	0.261194
C137	C	1.036130	-0.456080	-1.091692
C138	C	1.536130	0.043920	-0.591692
N139	N	0.994224	-0.495310	-1.125872
N140	N	1.494224	0.004690	-0.625872
C141	C	1.253703	-0.928088	-0.482862
C142	C	1.753703	-0.428088	0.017138
N143	N	1.274613	-0.950013	-0.543626
N144	N	1.774613	-0.450013	-0.043626
H145	H	1.242443	-0.792968	-0.465328
H146	H	1.742443	-0.292968	0.034672
H147	H	0.567728	-0.223371	-0.238827
H148	H	1.067728	0.276629	0.261173
C149	C	0.853122	-0.456390	-0.486780
C150	C	1.353122	0.043610	0.013220
N151	N	0.887317	-0.495681	-0.528589
N152	N	1.387317	0.004319	-0.028589
H153	H	1.271325	-0.919231	-0.357595
H154	H	1.771325	-0.419231	0.142405
C155	C	1.176627	-0.927034	-0.234153
C156	C	1.676627	-0.427034	0.265847
N157	N	1.219814	-0.948114	-0.186138
N158	N	1.719814	-0.448114	0.313862
C159	C	1.177738	-0.785875	-0.234211
C160	C	1.677738	-0.285875	0.265789
N161	N	1.221472	-0.765142	-0.186520
N162	N	1.721472	-0.265142	0.313480
H163	H	1.284634	-0.223427	-0.806373
H164	H	1.784634	0.276573	-0.306373
C165	C	0.985506	-0.503521	-0.794498
C166	C	1.485506	-0.003521	-0.294498
N167	N	0.943589	-0.542762	-0.760282
N168	N	1.443589	-0.042762	-0.260282
C169	C	1.037970	-0.784511	-0.272675
C170	C	1.537970	-0.284511	0.227325
N171	N	0.976428	-0.762756	-0.253958
N172	N	1.476428	-0.262756	0.246042
H173	H	0.841320	-0.270755	-0.289259
H174	H	1.341320	0.229245	0.210741
H175	H	0.443904	-0.270810	-0.289299
H176	H	0.943904	0.229190	0.210701
C177	C	1.100149	-0.785242	-0.525345
C178	C	1.600149	-0.285242	-0.025345
N179	N	1.114500	-0.763812	-0.588203
N180	N	1.614500	-0.263812	-0.088203
C181	C	1.290013	-0.784407	-0.348159
C182	C	1.790013	-0.284407	0.151841
N183	N	1.338650	-0.762624	-0.306076
N184	N	1.838650	-0.262624	0.193924
H185	H	1.234106	-0.270698	-1.079949
H186	H	1.734106	0.229302	-0.579949
H187	H	1.058159	-0.919082	-0.279821
H188	H	1.558159	-0.419082	0.220179
H189	H	0.443914	-0.442887	-0.472386
H190	H	0.943914	0.057113	0.027614
C191	C	0.985532	-0.503470	-0.967867
C192	C	1.485532	-0.003470	-0.467867
N193	N	0.943629	-0.542689	-1.002064
N194	N	1.443629	-0.042689	-0.502064
C195	C	0.555943	-0.503850	-0.537260
C196	C	1.055943	-0.003850	-0.037260
N197	N	0.521741	-0.543145	-0.579071
N198	N	1.021741	-0.043145	-0.079071
C199	C	1.036064	-0.456202	-0.670688
C200	C	1.536064	0.043798	-0.170688
N201	N	0.994151	-0.495451	-0.636478
N202	N	1.494151	0.004549	-0.136478
C203	C	1.100245	-0.927083	-0.525807
C204	C	1.600245	-0.427083	-0.025807
N205	N	1.114454	-0.948004	-0.588866
N206	N	1.614454	-0.448004	-0.088866
C207	C	0.729296	-0.503837	-0.537259
C208	C	1.229296	-0.003837	-0.037259
N209	N	0.763489	-0.543126	-0.579070
N210	N	1.263489	-0.043126	-0.079070
H211	H	1.019779	-0.920898	-0.428131
H212	H	1.519779	-0.420898	0.071869
C213	C	0.997347	-0.786098	-0.422859
C214	C	1.497347	-0.286098	0.077141
N215	N	0.934262	-0.765312	-0.408539
N216	N	1.434262	-0.265312	0.091461
H217	H	1.234036	-0.270825	-0.682537
H218	H	1.734036	0.229175	-0.182537
C219	C	1.299133	-0.209838	-0.967934
C220	C	1.799133	0.290162	-0.467934
N221	N	1.341052	-0.170590	-1.002138
N222	N	1.841052	0.329410	-0.502138
