data_functionalizedCrystal
_audit_creation_method	'MofGen! by Chris Wilmer'
_symmetry_space_group_name_H-M	'P1'
_symmetry_Int_Tables_number	1
_symmetry_cell_setting	triclinic
loop_
_symmetry_equiv_pos_as_xyz
  x,y,z
_cell_length_a	27.732048
_cell_length_b	10.489741
_cell_length_c	8.965430
_cell_angle_alpha	89.999293
_cell_angle_beta	90.001729
_cell_angle_gamma	96.409086
loop_
_atom_site_label
_atom_site_type_symbol
_atom_site_fract_x
_atom_site_fract_y
_atom_site_fract_z
O1	O	0.641885	-0.151746	-0.123847
O2	O	0.501237	-0.174821	-0.123892
O3	O	0.574761	0.022455	-0.123859
O4	O	0.568361	-0.349022	-0.123879
O5	O	0.574755	0.022442	0.124220
O6	O	0.501231	-0.174834	0.124187
O7	O	0.641879	-0.151760	0.124232
Cu8	Cu	0.571554	-0.163298	0.146861
Cu9	Cu	0.571562	-0.163282	-0.146521
O10	O	0.568354	-0.349035	0.124200
C11	C	0.483224	-0.174343	0.000142
C12	C	0.429560	-0.172885	0.000125
C13	C	0.091423	-0.280280	0.000184
C14	C	-0.110271	-0.274868	0.000198
O15	O	-0.140907	-0.373073	0.000257
N16	N	-0.130133	-0.157892	0.000201
C17	C	-0.099568	-0.042260	0.000211
O18	O	-0.121090	0.057360	0.000230
C19	C	0.102124	-0.047673	0.000208
C20	C	0.121984	-0.164657	0.000190
C21	C	0.111282	-0.397254	0.000167
C22	C	0.161703	-0.398606	0.000155
C23	C	0.192264	-0.282983	0.000161
C24	C	0.172404	-0.166008	0.000178
C25	C	0.132688	0.067958	0.000229
C26	C	0.183114	0.066594	0.000232
C27	C	0.202973	-0.050390	0.000213
C28	C	0.253385	-0.051737	0.000172
N29	N	0.273247	-0.168714	0.000168
C30	C	0.242687	-0.284336	0.000163
C31	C	-0.205460	-0.039426	0.000210
C32	C	-0.255883	-0.038073	0.000208
C33	C	-0.266583	-0.270682	0.000197
C34	C	-0.216159	-0.272034	0.000188
C35	C	-0.185598	-0.156403	0.000206
C36	C	0.348574	-0.287166	0.000137
C37	C	0.398999	-0.288508	0.000120
C38	C	0.409694	-0.055900	0.000138
C39	C	0.359273	-0.054557	0.000148
C40	C	0.328714	-0.170201	0.000153
O41	O	0.284050	0.046415	0.000129
O42	O	0.264218	-0.383942	0.000177
C43	C	0.041002	-0.278928	0.000196
C44	C	0.021143	-0.161954	0.000213
C45	C	0.051703	-0.046331	0.000218
C46	C	-0.029280	-0.160600	0.000211
C47	C	-0.059841	-0.276223	0.000205
C48	C	-0.039979	-0.393199	0.000202
C49	C	0.010441	-0.394551	0.000190
C50	C	0.031841	0.070646	0.000222
C51	C	-0.018580	0.071988	0.000232
C52	C	-0.049140	-0.043635	0.000226
C53	C	0.574275	0.069959	0.000179
C54	C	0.572828	0.211525	0.000176
C55	C	0.659892	-0.152237	0.000195
C56	C	0.713556	-0.153696	0.000202
N57	N	0.571553	-0.163308	0.353210
C58	C	0.568841	-0.396539	0.000158
C59	C	0.570287	-0.538105	0.000151
C60	C	0.526047	0.277609	0.000150
C61	C	0.548143	0.370696	0.122473
C62	C	0.548160	0.370684	-0.122113
C63	C	0.594944	0.302747	0.122600
C64	C	0.594954	0.302726	-0.122096
C65	C	0.617084	0.395787	0.000256
N66	N	0.571567	-0.163262	-0.352870
C67	C	0.537539	-0.254512	0.450501
C68	C	0.581302	-0.278399	0.549928
C69	C	0.527809	-0.139431	0.549911
C70	C	0.615337	-0.187252	0.450448
C71	C	0.561815	-0.048235	0.450423
C72	C	0.605609	-0.072072	0.549804
H73	H	0.086404	-0.491414	0.000168
Cl74	Cl	0.594034	-0.428613	0.617411
Cl75	Cl	0.186661	-0.545679	0.000143
H76	H	0.487584	0.226267	0.000261
Cl77	Cl	0.035399	-0.541625	0.000169
H78	H	-0.199993	-0.367292	0.000182
H79	H	0.652345	-0.207545	0.406941
Cl80	Cl	0.470686	-0.108278	0.617370
H81	H	0.415165	-0.383774	0.000103
Cl82	Cl	0.517591	0.417187	-0.281769
Cl83	Cl	0.517580	0.417226	0.282120
H84	H	0.634411	0.005081	0.593132
H85	H	0.614734	0.272556	-0.225505
H86	H	0.323698	-0.381334	0.000146
Cl87	Cl	-0.305011	-0.416035	0.000196
H88	H	-0.272048	0.057187	0.000200
H89	H	-0.180582	0.054740	0.000224
Cl90	Cl	0.107735	0.215033	0.000227
Cl91	Cl	0.493172	-0.373693	0.383172
H92	H	0.553556	0.049029	0.406682
H93	H	0.207995	0.160757	0.000248
H94	H	0.655582	0.446903	0.000336
H95	H	0.343103	0.040700	0.000142
Cl96	Cl	0.625475	0.256487	0.282443
H97	H	0.434585	0.038237	0.000137
H98	H	-0.064871	-0.487343	0.000191
H99	H	-0.034744	0.167257	0.000235
Cl100	Cl	0.070254	0.216016	0.000229
