data_functionalizedCrystal
_audit_creation_method	'MofGen! by Chris Wilmer'
_symmetry_space_group_name_H-M	'P1'
_symmetry_Int_Tables_number	1
_symmetry_cell_setting	triclinic
loop_
_symmetry_equiv_pos_as_xyz
  x,y,z
_cell_length_a	16.109301
_cell_length_b	14.586319
_cell_length_c	16.109301
_cell_angle_alpha	89.994786
_cell_angle_beta	83.461481
_cell_angle_gamma	89.999213
loop_
_atom_site_label
_atom_site_type_symbol
_atom_site_fract_x
_atom_site_fract_y
_atom_site_fract_z
O1	O	-1.103131	0.076185	-0.106866
O2	O	-0.861069	0.076200	-0.120165
O3	O	-0.988749	0.076183	0.007515
O4	O	-0.975450	0.076203	-0.234547
O5	O	-0.988741	-0.076298	0.007517
O6	O	-0.861060	-0.076281	-0.120164
O7	O	-1.103122	-0.076295	-0.106864
Cu8	Cu	-0.982090	-0.090211	-0.113514
Cu9	Cu	-0.982101	0.090115	-0.113516
O10	O	-0.975441	-0.076278	-0.234545
C11	C	-0.830090	-0.000038	-0.119626
C12	C	-0.737794	-0.000033	-0.118011
N13	N	-0.982089	-0.217042	-0.113512
C14	C	-0.988206	-0.000058	0.038491
C15	C	-0.986591	-0.000059	0.130786
C16	C	-1.134101	-0.000055	-0.107404
C17	C	-1.226397	-0.000054	-0.109019
C18	C	-0.515522	-0.000038	-0.190018
C19	C	-0.428801	-0.000044	-0.188494
C20	C	-0.448676	-0.000052	-0.037006
C21	C	-0.535394	-0.000053	-0.038530
C22	C	-0.568815	-0.000041	-0.115039
C23	C	-0.395376	-0.000046	-0.111990
C24	C	-0.301350	-0.000053	-0.110337
C25	C	-0.662847	-0.000036	-0.116693
C26	C	-1.038644	-0.452057	-0.056994
C27	C	-1.038647	-0.548038	-0.056992
C28	C	-0.925547	-0.548032	-0.170032
C29	C	-0.925541	-0.452052	-0.170030
C30	C	-0.982095	-0.404067	-0.113511
C31	C	-0.982103	-0.596028	-0.113512
C32	C	-0.982105	-0.700095	-0.113510
C33	C	-0.982092	-0.299993	-0.113512
N34	N	-0.982109	0.216947	-0.113511
C35	C	-0.975984	-0.000035	-0.265521
C36	C	-0.977600	-0.000028	-0.357816
C37	C	-1.058599	-0.000049	0.353059
C38	C	-1.057075	-0.000041	0.439779
C39	C	-0.905586	-0.000036	0.419905
C40	C	-0.907111	-0.000037	0.333186
C41	C	-0.983620	-0.000048	0.299766
C42	C	-0.980571	-0.000039	0.473205
C43	C	-0.978918	-0.000031	0.567231
C44	C	-0.985273	-0.000055	0.205734
H45	H	-0.542730	-0.000035	-0.252317
C46	C	-0.821431	-0.000041	0.456676
N47	N	-0.758043	-0.000052	0.484371
C48	C	-0.863340	-0.600825	-0.232197
N49	N	-0.816484	-0.640587	-0.279021
C50	C	-0.370182	-0.000045	-0.270977
N51	N	-0.326030	-0.000048	-0.333108
C52	C	-0.411905	-0.000057	0.047150
N53	N	-0.384210	-0.000056	0.110538
H54	H	-0.578788	-0.000058	0.022530
H55	H	-1.084693	-0.412989	-0.010972
C56	C	-0.863366	-0.399261	-0.232244
N57	N	-0.816551	-0.359499	-0.279115
H58	H	-1.120897	-0.000056	0.325851
H59	H	-1.084694	-0.587108	-0.010969
C60	C	-0.824624	-0.000031	0.274560
N61	N	-0.762497	-0.000024	0.230402
H62	H	-1.118130	-0.000040	0.483168
