data_functionalizedCrystal
_audit_creation_method	'MofGen! by Chris Wilmer'
_symmetry_space_group_name_H-M	'P1'
_symmetry_Int_Tables_number	1
_symmetry_cell_setting	triclinic
loop_
_symmetry_equiv_pos_as_xyz
  x,y,z
_cell_length_a	12.594517
_cell_length_b	12.594516
_cell_length_c	16.959447
_cell_angle_alpha	89.974854
_cell_angle_beta	89.984240
_cell_angle_gamma	90.015853
loop_
_atom_site_label
_atom_site_type_symbol
_atom_site_fract_x
_atom_site_fract_y
_atom_site_fract_z
Zn1	Zn	1.627208	-0.423727	-0.446967
Zn2	Zn	1.627117	-0.601734	-0.314801
Zn3	Zn	1.449230	-0.423769	-0.314802
Zn4	Zn	1.449195	-0.601663	-0.446936
O5	O	1.538187	-0.512723	-0.380877
O6	O	1.776142	-0.447352	-0.429448
O7	O	1.603496	-0.578174	-0.204190
O8	O	1.472892	-0.274818	-0.332347
O9	O	1.776075	-0.578133	-0.332346
O10	O	1.603652	-0.274787	-0.429449
O11	O	1.472803	-0.447424	-0.204191
O12	O	1.300279	-0.447355	-0.332317
O13	O	1.472832	-0.578012	-0.557551
O14	O	1.300253	-0.578053	-0.429395
O15	O	1.603618	-0.447283	-0.557574
O16	O	1.603462	-0.750670	-0.332315
O17	O	1.472743	-0.750618	-0.429395
C18	C	1.261646	-0.512702	-0.380853
C19	C	1.143341	-0.512718	-0.380862
C20	C	1.074071	-0.441535	-0.328162
C21	C	1.003262	-0.538623	-0.308722
C22	C	1.003350	-0.415678	-0.400315
C23	C	1.074091	-0.609858	-0.361385
C24	C	1.074185	-0.486847	-0.453011
C25	C	1.003408	-0.584002	-0.433599
C26	C	1.538118	-0.789264	-0.380869
C27	C	1.538185	-0.907570	-0.380892
C28	C	1.467080	-0.976833	-0.433656
C29	C	1.441156	-1.047697	-0.361530
C30	C	1.564206	-1.047505	-0.453030
C31	C	1.512210	-0.976875	-0.308728
C32	C	1.635305	-0.976677	-0.400276
C33	C	1.609418	-1.047509	-0.328101
C34	C	1.815808	-0.512745	-0.380900
C35	C	1.934114	-0.512755	-0.380911
C36	C	1.538232	-0.512635	-0.587045
C37	C	1.538250	-0.512598	-0.674901
C38	C	1.538286	-0.235102	-0.380902
C39	C	1.538329	-0.116797	-0.380912
C40	C	1.470283	-0.580550	-1.046368
C41	C	1.606472	-0.444421	-1.046387
C42	C	1.606444	-0.444443	-0.963841
C43	C	1.538335	-0.512521	-0.922555
C44	C	1.470255	-0.580577	-0.963814
C45	C	1.674530	-0.376397	-0.922575
C46	C	1.674505	-0.376417	-0.840024
C47	C	1.606391	-0.444491	-0.798736
C48	C	1.538307	-0.512548	-0.840001
C49	C	1.470199	-0.580626	-0.798715
C50	C	1.402109	-0.648679	-0.839978
C51	C	1.402140	-0.648650	-0.922526
C52	C	1.606359	-0.444520	-0.716188
C53	C	1.470170	-0.580653	-0.716161
C54	C	1.538204	-0.512734	-0.175510
C55	C	1.538392	-0.512472	-0.087654
H56	H	0.972577	-0.644285	-0.478187
H57	H	1.717351	-0.945461	-0.416690
H58	H	1.661800	-0.389115	-0.682595
H59	H	1.414843	-0.635954	-1.079968
H60	H	1.661929	-0.389001	-1.080007
H61	H	1.105098	-0.381396	-0.283540
O62	O	1.740539	-0.310167	-0.962718
C63	C	1.679986	-0.241417	-1.010493
H64	H	1.596154	-0.234827	-0.985609
H65	H	1.676315	-0.274314	-1.073047
C66	C	1.835005	-0.138872	-1.042354
C67	C	1.732043	-0.130772	-1.011788
H68	H	1.867118	-0.070623	-1.043156
H69	H	1.875802	-0.185192	-1.010169
H70	H	1.831932	-0.166291	-1.094480
H71	H	1.735119	-0.103367	-0.959659
H72	H	1.691248	-0.084445	-1.043963
H73	H	0.972112	-0.560528	-0.247728
O74	O	1.590587	-1.084467	-0.525776
C75	C	1.692192	-1.046707	-0.546621
H76	H	1.738335	-1.025741	-0.490942
H77	H	1.683770	-0.972979	-0.585135
C78	C	1.695549	-1.159125	-0.660962
C79	C	1.752226	-1.133383	-0.592575
H80	H	1.732581	-1.212588	-0.689312
H81	H	1.627095	-1.184562	-0.646921
H82	H	1.688535	-1.097677	-0.693048
H83	H	1.759228	-1.194826	-0.560486
H84	H	1.820684	-1.107958	-0.606612
H85	H	1.105034	-0.691963	-0.344884
O86	O	1.111337	-0.460498	-0.525731
C87	C	1.075336	-0.358069	-0.545997
H88	H	1.055414	-0.312060	-0.490046
H89	H	1.001325	-0.364863	-0.584353
C90	C	1.187369	-0.355666	-0.660620
C91	C	1.162908	-0.299153	-0.591900
H92	H	1.241384	-0.319324	-0.688938
H93	H	1.211620	-0.424675	-0.646969
H94	H	1.125685	-0.361323	-0.692574
H95	H	1.224588	-0.293507	-0.559943
H96	H	1.138669	-0.230140	-0.605547
H97	H	1.669610	-1.078345	-0.283437
H98	H	1.406842	-0.945799	-0.478212
O99	O	1.343186	-1.084867	-0.342103
C100	C	1.268378	-1.048843	-0.397856
H101	H	1.310641	-1.028895	-0.455439
H102	H	1.227032	-0.974843	-0.374312
C103	C	1.133515	-1.160902	-0.342051
C104	C	1.185423	-1.136411	-0.412778
H105	H	1.082341	-1.214915	-0.351254
H106	H	1.183913	-1.185170	-0.304487
H107	H	1.099069	-1.099228	-0.322439
H108	H	1.219879	-1.198081	-0.432383
H109	H	1.135029	-1.112156	-0.450346
O110	O	0.966226	-0.317729	-0.419788
C111	C	0.903022	-0.278236	-0.357759
H112	H	0.926019	-0.319350	-0.300356
H113	H	0.815774	-0.294368	-0.371064
C114	C	0.892527	-0.107267	-0.420075
C115	C	0.920779	-0.157758	-0.349570
H116	H	0.903476	-0.032950	-0.415025
H117	H	0.935106	-0.133875	-0.461866
H118	H	0.819822	-0.120722	-0.431155
H119	H	0.993485	-0.144314	-0.338496
H120	H	0.878213	-0.131145	-0.307776
O121	O	1.485876	-0.939846	-0.235992
C122	C	1.486099	-0.827904	-0.236863
H123	H	1.474187	-0.798566	-0.299840
H124	H	1.565319	-0.797539	-0.213437
C125	C	1.410053	-0.822306	-0.107036
C126	C	1.395413	-0.786272	-0.184385
H127	H	1.354117	-0.796624	-0.074663
H128	H	1.409906	-0.897724	-0.106447
H129	H	1.476072	-0.796999	-0.087526
H130	H	1.329401	-0.811590	-0.203897
H131	H	1.395547	-0.710857	-0.184976
O132	O	1.404127	-0.646942	-0.676091
C133	C	1.427343	-0.753016	-0.696268
H134	H	1.512376	-0.758384	-0.718968
H135	H	1.370279	-0.780818	-0.744176
C136	C	1.310480	-0.817486	-0.595047
C137	C	1.414923	-0.824081	-0.622922
H138	H	1.302815	-0.861324	-0.549806
H139	H	1.294836	-0.746022	-0.581455
H140	H	1.262939	-0.840653	-0.634977
H141	H	1.462461	-0.800902	-0.582996
H142	H	1.430575	-0.895543	-0.636505
O143	O	1.336075	-0.714968	-0.799900
C144	C	1.359293	-0.821043	-0.820072
H145	H	1.444321	-0.826407	-0.842784
H146	H	1.302219	-0.848854	-0.867971
C147	C	1.242460	-0.885509	-0.718832
C148	C	1.346897	-0.892099	-0.746720
H149	H	1.234809	-0.929342	-0.673586
H150	H	1.226814	-0.814045	-0.705242
H151	H	1.194910	-0.908684	-0.758754
H152	H	1.394443	-0.868913	-0.706802
H153	H	1.362550	-0.963562	-0.760301
O154	O	1.335856	-0.714645	-0.962572
C155	C	1.229774	-0.691403	-0.942392
H156	H	1.224416	-0.606378	-0.919715
H157	H	1.201914	-0.748480	-0.894466
C158	C	1.165345	-0.808196	-1.043575
C159	C	1.158764	-0.703764	-1.015729
H160	H	1.121541	-0.815825	-1.088811
H161	H	1.236815	-0.823858	-1.057169
H162	H	1.142130	-0.855748	-1.003630
H163	H	1.181991	-0.656215	-1.055670
H164	H	1.087296	-0.688094	-1.002143
O165	O	1.740672	-0.310208	-0.800067
C166	C	1.800811	-0.250137	-0.854210
H167	H	1.757239	-0.246436	-0.913056
H168	H	1.881639	-0.289116	-0.862981
C169	C	1.869691	-0.141410	-0.749740
C170	C	1.816171	-0.136857	-0.822014
H171	H	1.879171	-0.071534	-0.729879
H172	H	1.829178	-0.181883	-0.713262
H173	H	1.937043	-0.173897	-0.757059
H174	H	1.748817	-0.104382	-0.814692
H175	H	1.856674	-0.096375	-0.858490
