data_functionalizedCrystal
_audit_creation_method	'MofGen! by Chris Wilmer'
_symmetry_space_group_name_H-M	'P1'
_symmetry_Int_Tables_number	1
_symmetry_cell_setting	triclinic
loop_
_symmetry_equiv_pos_as_xyz
  x,y,z
_cell_length_a	11.792241
_cell_length_b	17.699083
_cell_length_c	16.176319
_cell_angle_alpha	90.005848
_cell_angle_beta	89.996769
_cell_angle_gamma	83.738215
loop_
_atom_site_label
_atom_site_type_symbol
_atom_site_fract_x
_atom_site_fract_y
_atom_site_fract_z
O1	O	1.505671	0.103731	-0.068654
O2	O	1.175202	0.114422	-0.068671
O3	O	1.349773	-0.001063	-0.068670
O4	O	1.331100	0.219216	-0.068655
O5	O	1.349747	-0.001056	0.068823
O6	O	1.175175	0.114429	0.068822
O7	O	1.505645	0.103737	0.068840
Cu8	Cu	1.340408	0.109084	0.081385
Cu9	Cu	1.340439	0.109076	-0.081217
O10	O	1.331074	0.219222	0.068838
C11	C	1.132906	0.113754	0.000073
C12	C	1.006916	0.111744	0.000065
C13	C	0.776248	0.108048	0.000089
C14	C	0.904609	0.110101	0.000076
C15	C	1.349091	-0.029260	0.000073
C16	C	1.347083	-0.113289	0.000061
C17	C	1.547941	0.104406	0.000094
C18	C	1.673930	0.106416	0.000096
C19	C	1.331756	0.247420	0.000094
C20	C	1.333763	0.331449	0.000100
N21	N	1.340394	0.109088	0.195750
C22	C	1.231293	0.379523	0.000094
C23	C	1.233186	0.458477	0.000085
C24	C	1.337550	0.489354	0.000087
C25	C	1.440027	0.441273	0.000090
C26	C	1.438133	0.362321	0.000093
C27	C	1.447668	0.759677	0.000074
C28	C	1.449554	0.838635	0.000073
C29	C	1.242721	0.855832	0.000065
C30	C	1.240827	0.776881	0.000069
C31	C	1.343304	0.728807	0.000067
C32	C	1.341250	0.643196	0.000076
C33	C	1.339605	0.574962	0.000084
N34	N	1.340461	0.109065	-0.195582
C35	C	1.417771	0.057947	0.761133
C36	C	1.417766	0.057952	0.674586
C37	C	1.340445	0.109073	0.631325
C38	C	1.263132	0.160196	0.674616
C39	C	1.263143	0.160194	0.761162
C40	C	1.263086	0.160207	0.325588
C41	C	1.263078	0.160203	0.239036
C42	C	1.417709	0.057965	0.239012
C43	C	1.417720	0.057963	0.325558
C44	C	1.340411	0.109089	0.368841
C45	C	1.340419	0.109084	0.462685
C46	C	1.340431	0.109075	0.537483
H47	H	1.146309	0.354390	0.000102
H48	H	1.480678	0.016334	0.360778
H49	H	1.525002	0.466419	0.000093
H50	H	1.521575	0.323179	0.000094
Cl51	Cl	1.104361	0.518911	0.000070
Cl52	Cl	1.576497	0.699251	0.000081
Cl53	Cl	1.514904	-0.006306	0.184595
H54	H	1.155844	0.751745	0.000072
H55	H	1.200179	0.201823	0.639388
H56	H	1.480730	0.016316	0.796350
H57	H	1.480718	0.016329	0.639344
H58	H	1.200112	0.201835	0.203815
Cl59	Cl	1.165953	0.224463	0.815576
Cl60	Cl	1.113890	0.916273	0.000061
Cl61	Cl	1.580765	0.877450	0.000072
H62	H	1.200136	0.201834	0.360823
