data_functionalizedCrystal
_audit_creation_method	'MofGen! by Chris Wilmer'
_symmetry_space_group_name_H-M	'P1'
_symmetry_Int_Tables_number	1
_symmetry_cell_setting	triclinic
loop_
_symmetry_equiv_pos_as_xyz
  x,y,z
_cell_length_a	19.077105
_cell_length_b	16.120531
_cell_length_c	19.076919
_cell_angle_alpha	95.042833
_cell_angle_beta	89.923776
_cell_angle_gamma	89.254880
loop_
_atom_site_label
_atom_site_type_symbol
_atom_site_fract_x
_atom_site_fract_y
_atom_site_fract_z
Zn1	Zn	1.040298	0.403259	0.456920
Zn2	Zn	1.540298	0.903259	0.956920
Zn3	Zn	1.038964	0.537283	0.344897
Zn4	Zn	1.538964	1.037283	0.844897
Zn5	Zn	0.928013	0.392092	0.334256
Zn6	Zn	1.428013	0.892092	0.834256
Zn7	Zn	0.916808	0.536780	0.457629
Zn8	Zn	1.416808	1.036780	0.957629
O9	O	0.981021	0.467354	0.398425
O10	O	1.481021	0.967354	0.898425
O11	O	1.138235	0.425921	0.446216
O12	O	1.638235	0.925921	0.946216
O13	O	1.028378	0.513560	0.244972
O14	O	1.528378	1.013560	0.744972
O15	O	0.948155	0.276932	0.345777
O16	O	1.448155	0.776932	0.845777
O17	O	1.137255	0.524388	0.363914
O18	O	1.637255	1.024388	0.863914
O19	O	1.030650	0.285135	0.435898
O20	O	1.530650	0.785135	0.935898
O21	O	0.946862	0.406889	0.237154
O22	O	1.446862	0.906889	0.737154
O23	O	0.828413	0.406402	0.346465
O24	O	1.328413	0.906402	0.846465
O25	O	0.929058	0.523531	0.556049
O26	O	1.429058	1.023531	1.056049
O27	O	0.820181	0.512704	0.437107
O28	O	1.320181	1.012704	0.937107
O29	O	1.019785	0.425433	0.555528
O30	O	1.519785	0.925433	1.055528
O31	O	1.017513	0.653858	0.364602
O32	O	1.517513	1.153858	0.864602
O33	O	0.927765	0.653489	0.447425
O34	O	1.427765	1.153489	0.947425
C35	C	0.798857	0.458287	0.390709
C36	C	1.298857	0.958287	0.890709
C37	C	0.720924	0.454429	0.387425
C38	C	1.220924	0.954429	0.887425
C39	C	0.680044	0.508040	0.433007
C40	C	1.180044	1.008040	0.933007
C41	C	0.606818	0.504404	0.429925
C42	C	1.106818	1.004404	0.929925
C43	C	0.574475	0.447161	0.381257
C44	C	1.074475	0.947161	0.881257
C45	C	0.615362	0.393545	0.335672
C46	C	1.115362	0.893545	0.835672
C47	C	0.688586	0.397178	0.338759
C48	C	1.188586	0.897178	0.838759
C49	C	0.355937	0.430351	0.366976
C50	C	0.855937	0.930351	0.866976
C51	C	0.282708	0.426725	0.363892
C52	C	0.782708	0.926725	0.863892
C53	C	0.274169	0.537583	0.458146
C54	C	0.774169	1.037583	0.958146
C55	C	0.347395	0.541213	0.461225
C56	C	0.847395	1.041213	0.961225
C57	C	0.388275	0.487594	0.415643
C58	C	0.888275	0.987594	0.915643
N59	N	0.499627	0.443446	0.378103
N60	N	0.999627	0.943446	0.878103
N61	N	0.463122	0.491307	0.418800
N62	N	0.963122	0.991307	0.918800
C63	C	0.971297	0.683919	0.407261
C64	C	1.471297	1.183919	0.907261
C65	C	0.967200	0.776571	0.411068
C66	C	1.467200	1.276571	0.911068
C67	C	0.959724	0.946208	0.418032
C68	C	1.459724	1.446208	0.918032
C69	C	1.002346	0.987658	0.378781
C70	C	1.502346	1.487658	0.878781
C71	C	0.998186	1.082050	0.382655
C72	C	1.498186	1.582050	0.882655
C73	C	0.963883	0.851808	0.414158
C74	C	1.463883	1.351808	0.914158
C75	C	1.163896	0.476456	0.406173
C76	C	1.663896	0.976456	0.906173
C77	C	1.241827	0.480335	0.409474
C78	C	1.741827	0.980335	0.909474
C79	C	0.973321	0.475672	0.582046
C80	C	1.473321	0.975672	1.082046
C81	C	0.970039	0.479217	0.660294
C82	C	1.470039	0.979217	1.160294
C83	C	0.990777	1.249942	0.389557
C84	C	1.490777	1.749942	0.889557
C85	C	0.994872	1.157290	0.385742
C86	C	1.494872	1.657290	0.885742
C87	C	0.988734	0.459010	0.215518
C88	C	1.488734	0.959010	0.715518
C89	C	0.992162	0.455237	0.137267
C90	C	1.492162	0.955237	0.637267
C91	C	1.015732	0.429810	0.696785
C92	C	1.515732	0.929810	1.196785
C93	C	1.012640	0.433137	0.770307
C94	C	1.512640	0.933137	1.270307
C95	C	0.963859	0.485876	0.807337
C96	C	1.463859	0.985876	1.307337
C97	C	0.918161	0.535284	0.770841
C98	C	1.418161	1.035284	1.270841
C99	C	0.921250	0.531952	0.697320
C100	C	1.421250	1.031952	1.197320
C101	C	0.949553	0.501313	1.027250
C102	C	1.449553	1.001313	1.527250
C103	C	0.946469	0.504643	1.100776
C104	C	1.446469	1.004643	1.600776
C105	C	1.040948	0.402495	1.100237
C106	C	1.540948	0.902495	1.600237
C107	C	1.044035	0.399171	1.026715
C108	C	1.544035	0.899171	1.526715
C109	C	0.998335	0.448576	0.990225
C110	C	1.498335	0.948576	1.490225
N111	N	0.960699	0.489280	0.882488
N112	N	1.460699	0.989280	1.382488
N113	N	1.001492	0.445167	0.915075
N114	N	1.501492	0.945167	1.415075
H115	H	0.389213	0.386697	0.329855
H116	H	0.889213	0.886697	0.829855
H117	H	1.049850	0.392907	0.800015
H118	H	1.549850	0.892907	1.300015
H119	H	0.589022	0.346934	0.296048
H120	H	1.089022	0.846934	0.796048
N121	N	0.910026	0.990600	0.463840
N122	N	1.410026	1.490600	0.963840
N123	N	0.912308	0.984092	0.528609
N124	N	1.412308	1.484092	1.028609
H125	H	0.877206	1.015450	0.560960
H126	H	1.377206	1.515450	1.060960
N127	N	1.065562	0.375948	0.658952
N128	N	1.565562	0.875948	1.158952
N129	N	1.110644	0.405638	0.621016
N130	N	1.610644	0.905638	1.121016
H131	H	1.145837	0.367595	0.594297
H132	H	1.645837	0.867595	1.094297
H133	H	1.041959	0.952253	0.342266
H134	H	1.541959	1.452253	0.842266
H135	H	0.912351	0.541555	0.997550
H136	H	1.412351	1.041555	1.497550
H137	H	1.083760	0.356228	0.996570
H138	H	1.583760	0.856228	1.496570
H139	H	1.078153	0.362271	1.129955
H140	H	1.578153	0.862271	1.629955
N141	N	0.232401	0.592345	0.504697
N142	N	0.732401	1.092345	1.004697
N143	N	0.167024	0.589098	0.501937
N144	N	0.667024	1.089098	1.001937
H145	H	0.137523	0.627775	0.534817
H146	H	0.637523	1.127775	1.034817
H147	H	0.906743	0.547591	1.130924
H148	H	1.406743	1.047591	1.630924
N149	N	0.868331	0.589144	0.808674
N150	N	1.368331	1.089144	1.308674
N151	N	0.865579	0.592113	0.874317
N152	N	1.365579	1.092113	1.374317
H153	H	0.830385	0.630154	0.901037
H154	H	1.330385	1.130154	1.401037
H155	H	0.706371	0.554655	0.472636
H156	H	1.206371	1.054655	0.972636
H157	H	0.884036	0.572175	0.667609
H158	H	1.384036	1.072175	1.167609
N159	N	0.565064	0.559188	0.476472
N160	N	1.065064	1.059188	0.976472
N161	N	0.522865	0.609106	0.452065
N162	N	1.022865	1.109106	0.952065
H163	H	0.493377	0.647803	0.484939
H164	H	0.993377	1.147803	0.984939
N165	N	0.380425	0.599698	0.510932
N166	N	0.880425	1.099698	1.010932
N167	N	0.368990	0.675980	0.508943
N168	N	0.868990	1.175980	1.008943
H169	H	0.392316	0.717291	0.544047
H170	H	0.892316	1.217291	1.044047
N171	N	0.249678	0.368235	0.314181
N172	N	0.749678	0.868235	0.814181
N173	N	0.261103	0.291951	0.316170
N174	N	0.761103	0.791951	0.816170
H175	H	0.237775	0.250645	0.281064
H176	H	0.737775	0.750645	0.781064
N177	N	0.730337	0.342402	0.292199
N178	N	1.230337	0.842402	0.792199
N179	N	0.701453	0.291293	0.248751
N180	N	1.201453	0.791293	0.748751
H181	H	0.730938	0.252601	0.215869
H182	H	1.230938	0.752601	0.715869
