data_functionalizedCrystal
_audit_creation_method	'MofGen! by Chris Wilmer'
_symmetry_space_group_name_H-M	'P1'
_symmetry_Int_Tables_number	1
_symmetry_cell_setting	triclinic
loop_
_symmetry_equiv_pos_as_xyz
  x,y,z
_cell_length_a	10.723024
_cell_length_b	14.519709
_cell_length_c	9.198806
_cell_angle_alpha	89.995869
_cell_angle_beta	89.996352
_cell_angle_gamma	84.074007
loop_
_atom_site_label
_atom_site_type_symbol
_atom_site_fract_x
_atom_site_fract_y
_atom_site_fract_z
O1	O	1.655978	0.129347	-0.120886
O2	O	1.989312	0.462681	0.212447
O3	O	2.322645	0.796014	0.545780
O4	O	1.292710	0.141728	-0.120892
O5	O	1.626043	0.475062	0.212442
O6	O	1.959377	0.808395	0.545775
O7	O	1.483976	0.001349	-0.120876
O8	O	1.817309	0.334682	0.212457
O9	O	2.150642	0.668015	0.545791
O10	O	1.464713	0.269727	-0.120902
O11	O	1.798046	0.603061	0.212431
O12	O	2.131379	0.936394	0.545764
O13	O	1.483960	0.001348	0.120909
O14	O	1.817294	0.334682	0.454242
O15	O	2.150627	0.668015	0.787576
O16	O	1.292695	0.141728	0.120893
O17	O	1.626028	0.475061	0.454227
O18	O	1.959362	0.808395	0.787560
O19	O	1.655963	0.129347	0.120899
O20	O	1.989296	0.462680	0.454232
O21	O	2.322630	0.796014	0.787565
Cu22	Cu	1.474328	0.135538	0.142973
Cu23	Cu	1.807661	0.468871	0.476306
Cu24	Cu	2.140994	0.802204	0.809639
Cu25	Cu	1.474345	0.135538	-0.142966
Cu26	Cu	1.807679	0.468871	0.190367
Cu27	Cu	2.141012	0.802205	0.523701
O28	O	1.464697	0.269727	0.120883
O29	O	1.798031	0.603060	0.454216
O30	O	2.131364	0.936393	0.787549
C31	C	1.246211	0.140827	0.000000
C32	C	1.579545	0.474161	0.333334
C33	C	1.912878	0.807494	0.666667
C34	C	1.107682	0.138132	-0.000001
C35	C	1.441016	0.471465	0.333332
C36	C	1.774349	0.804798	0.666665
C37	C	1.031965	0.216681	-0.000010
C38	C	1.365298	0.550014	0.333323
C39	C	1.698632	0.883347	0.666657
C40	C	0.888788	0.213896	-0.000012
C41	C	1.222121	0.547230	0.333322
C42	C	1.555454	0.880563	0.666655
C43	C	1.483070	-0.033016	0.000017
C44	C	1.816404	0.300317	0.333350
C45	C	2.149737	0.633651	0.666684
C46	C	1.480380	-0.135411	0.000018
C47	C	1.813713	0.197922	0.333351
C48	C	2.147047	0.531256	0.666684
C49	C	1.470476	-0.510357	-0.000020
C50	C	1.803810	-0.177024	0.333313
C51	C	2.137143	0.156309	0.666646
C52	C	1.473227	-0.406035	-0.000009
C53	C	1.806560	-0.072702	0.333324
C54	C	2.139893	0.260631	0.666657
C55	C	1.475428	-0.322887	0.000000
C56	C	1.808761	0.010446	0.333333
C57	C	2.142095	0.343779	0.666667
C58	C	1.478179	-0.218559	0.000008
C59	C	1.811512	0.114775	0.333342
C60	C	2.144845	0.448108	0.666675
C61	C	1.702462	0.130248	0.000003
C62	C	2.035795	0.463582	0.333337
C63	C	2.369128	0.796915	0.666670
C64	C	1.840991	0.132944	-0.000005
C65	C	2.174324	0.466277	0.333329
C66	C	2.507657	0.799611	0.666662
C67	C	1.465603	0.304091	-0.000013
C68	C	1.798936	0.637425	0.333320
C69	C	2.132269	0.970758	0.666653
C70	C	1.468293	0.406486	-0.000024
C71	C	1.801626	0.739820	0.333310
C72	C	2.134960	1.073153	0.666643
N73	N	1.474324	0.135537	0.344087
N74	N	1.807657	0.468870	0.677420
N75	N	2.140991	0.802203	1.010753
N76	N	1.474359	0.135532	-0.344080
N77	N	1.807692	0.468865	-0.010747
N78	N	2.141026	0.802198	0.322587
C79	C	1.554633	0.076335	0.416290
C80	C	1.887967	0.409669	0.749624
C81	C	2.221300	0.743002	1.082957
C82	C	1.554653	0.076332	0.583703
C83	C	1.887986	0.409665	0.917036
C84	C	2.221319	0.742999	1.250369
H85	H	0.906045	0.065696	-0.000006
H86	H	1.239378	0.399029	0.333327
H87	H	1.572712	0.732363	0.666660
Br88	Br	1.100577	0.332209	-0.000012
Br89	Br	1.433910	0.665543	0.333321
Br90	Br	1.767243	0.998876	0.666655
Br91	Br	0.780355	0.325982	-0.000042
Br92	Br	1.113689	0.659315	0.333292
Br93	Br	1.447022	0.992649	0.666625
Br94	Br	1.359733	0.220008	0.447615
Br95	Br	1.693067	0.553341	0.780948
Br96	Br	2.026400	0.886675	1.114282
Br97	Br	1.039071	0.022603	0.000026
Br98	Br	1.372404	0.355936	0.333360
Br99	Br	1.705737	0.689270	0.666693
Br100	Br	1.668898	-0.008377	0.312763
Br101	Br	2.002231	0.324957	0.646096
Br102	Br	2.335565	0.658290	0.979429
H103	H	1.623414	0.025651	0.645795
H104	H	1.956747	0.358984	0.979128
H105	H	2.290080	0.692317	1.312461
H106	H	1.405604	0.186222	0.593837
H107	H	1.738937	0.519556	0.927171
H108	H	2.072270	0.852889	1.260504
