data_functionalizedCrystal
_audit_creation_method	'MofGen! by Chris Wilmer'
_symmetry_space_group_name_H-M	'P1'
_symmetry_Int_Tables_number	1
_symmetry_cell_setting	triclinic
loop_
_symmetry_equiv_pos_as_xyz
  x,y,z
_cell_length_a	19.805407
_cell_length_b	18.050589
_cell_length_c	19.805399
_cell_angle_alpha	89.977706
_cell_angle_beta	89.980427
_cell_angle_gamma	90.028221
loop_
_atom_site_label
_atom_site_type_symbol
_atom_site_fract_x
_atom_site_fract_y
_atom_site_fract_z
Zn1	Zn	1.034727	-0.295677	-0.382745
Zn2	Zn	1.368060	0.037657	-0.049411
Zn3	Zn	1.701394	0.370990	0.283922
Zn4	Zn	1.034638	-0.419869	-0.269567
Zn5	Zn	1.367972	-0.086535	0.063767
Zn6	Zn	1.701305	0.246798	0.397100
Zn7	Zn	0.921542	-0.295697	-0.269569
Zn8	Zn	1.254875	0.037636	0.063764
Zn9	Zn	1.588208	0.370970	0.397098
Zn10	Zn	0.921502	-0.419829	-0.382713
Zn11	Zn	1.254835	-0.086496	-0.049380
Zn12	Zn	1.588168	0.246837	0.283953
O13	O	0.978102	-0.357768	-0.326148
O14	O	1.311436	-0.024435	0.007185
O15	O	1.644769	0.308899	0.340518
O16	O	1.129432	-0.312159	-0.367743
O17	O	1.462765	0.021174	-0.034410
O18	O	1.796099	0.354508	0.298923
O19	O	1.019616	-0.403422	-0.174850
O20	O	1.352949	-0.070089	0.158483
O21	O	1.686282	0.263244	0.491816
O22	O	0.936610	-0.191770	-0.284596
O23	O	1.269943	0.141564	0.048737
O24	O	1.603277	0.474897	0.382071
O25	O	1.129367	-0.403402	-0.284592
O26	O	1.462700	-0.070069	0.048741
O27	O	1.796033	0.263264	0.382075
O28	O	1.019767	-0.191755	-0.367746
O29	O	1.353100	0.141579	-0.034412
O30	O	1.686433	0.474912	0.298921
O31	O	0.936524	-0.312194	-0.174852
O32	O	1.269857	0.021139	0.158481
O33	O	1.603191	0.354473	0.491814
O34	O	0.826820	-0.312156	-0.284566
O35	O	1.160153	0.021178	0.048767
O36	O	1.493487	0.354511	0.382101
O37	O	0.936542	-0.403335	-0.477434
O38	O	1.269875	-0.070002	-0.144101
O39	O	1.603208	0.263332	0.189232
O40	O	0.826791	-0.403355	-0.367693
O41	O	1.160124	-0.070022	-0.034359
O42	O	1.493457	0.263312	0.298974
O43	O	1.019728	-0.312121	-0.477457
O44	O	1.353061	0.021213	-0.144124
O45	O	1.686395	0.354546	0.189210
O46	O	1.019577	-0.523788	-0.284562
O47	O	1.352910	-0.190455	0.048771
O48	O	1.686243	0.142878	0.382105
O49	O	0.936456	-0.523759	-0.367690
O50	O	1.269789	-0.190426	-0.034357
O51	O	1.603122	0.142907	0.298976
C52	C	0.802246	-0.357754	-0.326127
C53	C	1.135580	-0.024420	0.007207
C54	C	1.468913	0.308913	0.340540
C55	C	0.727014	-0.357766	-0.326133
C56	C	1.060348	-0.024432	0.007200
C57	C	1.393681	0.308901	0.340533
C58	C	0.691673	-0.405325	-0.369347
C59	C	1.025006	-0.071991	-0.036014
C60	C	1.358339	0.261342	0.297319
C61	C	0.620984	-0.405326	-0.369357
C62	C	0.954317	-0.071993	-0.036023
C63	C	1.287651	0.261341	0.297310
C64	C	0.585639	-0.357771	-0.326148
C65	C	0.918972	-0.024438	0.007185
C66	C	1.252305	0.308895	0.340518
C67	C	0.620985	-0.310207	-0.282933
C68	C	0.954319	0.023126	0.050401
C69	C	1.287652	0.356460	0.383734
C70	C	0.691673	-0.310203	-0.282927
C71	C	1.025006	0.023131	0.050406
C72	C	1.358339	0.356464	0.383740
C73	C	0.335912	-0.310224	-0.282955
C74	C	0.669245	0.023110	0.050378
C75	C	1.002579	0.356443	0.383712
C76	C	0.265220	-0.310233	-0.282962
C77	C	0.598553	0.023100	0.050371
C78	C	0.931887	0.356433	0.383704
C79	C	0.265224	-0.405347	-0.369385
C80	C	0.598557	-0.072013	-0.036051
C81	C	0.931890	0.261320	0.297282
C82	C	0.335911	-0.405342	-0.369379
C83	C	0.669244	-0.072009	-0.036046
C84	C	1.002577	0.261324	0.297288
C85	C	0.371251	-0.357776	-0.326166
C86	C	0.704585	-0.024442	0.007167
C87	C	1.037918	0.308891	0.340501
C88	C	0.447900	-0.357774	-0.326157
C89	C	0.781233	-0.024440	0.007176
C90	C	1.114566	0.308893	0.340509
C91	C	0.508992	-0.357776	-0.326153
C92	C	0.842325	-0.024443	0.007180
C93	C	1.175658	0.308890	0.340513
C94	C	0.978021	-0.550720	-0.326137
C95	C	1.311354	-0.217387	0.007196
C96	C	1.644687	0.115947	0.340529
C97	C	0.978048	-0.633266	-0.326155
C98	C	1.311381	-0.299933	0.007178
C99	C	1.644714	0.033401	0.340512
C100	C	0.932891	-0.832728	-0.371344
C101	C	1.266224	-0.499394	-0.038011
C102	C	1.599557	-0.166061	0.295322
C103	C	0.916392	-0.882167	-0.309581
C104	C	1.249726	-0.548833	0.023752
C105	C	1.583059	-0.215500	0.357085
C106	C	0.978114	-0.784396	-0.326164
C107	C	1.311447	-0.451063	0.007169
C108	C	1.644781	-0.117730	0.340503
C109	C	0.994646	-0.882039	-0.387934
C110	C	1.327979	-0.548706	-0.054601
C111	C	1.661312	-0.215372	0.278733
C112	C	0.978177	-0.930381	-0.326178
C113	C	1.311510	-0.597048	0.007156
C114	C	1.644844	-0.263715	0.340489
C115	C	0.961583	-0.832748	-0.264368
C116	C	1.294917	-0.499415	0.068965
C117	C	1.628250	-0.166081	0.402299
C118	C	1.039865	-0.832616	-0.342762
C119	C	1.373198	-0.499283	-0.009429
C120	C	1.706532	-0.165949	0.323904
C121	C	1.023390	-0.882033	-0.280957
C122	C	1.356724	-0.548699	0.052377
C123	C	1.690057	-0.215366	0.385710
C124	C	0.978076	-0.700298	-0.326157
C125	C	1.311409	-0.366965	0.007177
C126	C	1.644743	-0.033631	0.340510
C127	C	0.978215	-1.014478	-0.326178
C128	C	1.311548	-0.681144	0.007155
C129	C	1.644882	-0.347811	0.340489
C130	C	1.154645	-0.357783	-0.326171
C131	C	1.487978	-0.024449	0.007163
C132	C	1.821312	0.308884	0.340496
C133	C	1.229877	-0.357789	-0.326180
C134	C	1.563210	-0.024456	0.007153
C135	C	1.896544	0.308878	0.340486
C136	C	0.978140	-0.357721	-0.502691
C137	C	1.311474	-0.024388	-0.169358
C138	C	1.644807	0.308945	0.163975
C139	C	0.978156	-0.357701	-0.577923
C140	C	1.311490	-0.024368	-0.244590
C141	C	1.644823	0.308965	0.088743
C142	C	0.978203	-0.164062	-0.326175
C143	C	1.311536	0.169271	0.007159
C144	C	1.644869	0.502604	0.340492
C145	C	0.978246	-0.081517	-0.326186
C146	C	1.311579	0.251817	0.007148
C147	C	1.644912	0.585150	0.340481
C148	C	1.021472	-0.310204	-0.613280
C149	C	1.354806	0.023130	-0.279947
C150	C	1.688139	0.356463	0.053386
C151	C	1.021479	-0.310182	-0.683969
C152	C	1.354813	0.023151	-0.350636
C153	C	1.688146	0.356485	-0.017302
C154	C	0.978173	-0.357662	-0.719299
C155	C	1.311507	-0.024329	-0.385966
C156	C	1.644840	0.309004	-0.052632
C157	C	0.934852	-0.405162	-0.683937
C158	C	1.268186	-0.071829	-0.350603
C159	C	1.601519	0.261504	-0.017270
C160	C	0.934843	-0.405180	-0.613250
C161	C	1.268176	-0.071846	-0.279916
C162	C	1.601509	0.261487	0.053417
C163	C	0.934891	-0.405093	-0.969010
C164	C	1.268224	-0.071760	-0.635677
C165	C	1.601557	0.261574	-0.302344
C166	C	0.934905	-0.405074	-1.039702
C167	C	1.268239	-0.071740	-0.706369
C168	C	1.601572	0.261593	-0.373036
C169	C	1.021527	-0.310096	-1.039729
C170	C	1.354861	0.023238	-0.706396
C171	C	1.688194	0.356571	-0.373063
C172	C	1.021518	-0.310113	-0.969042
C173	C	1.354851	0.023221	-0.635709
C174	C	1.688184	0.356554	-0.302376
C175	C	0.978195	-0.357609	-0.933686
C176	C	1.311528	-0.024276	-0.600353
C177	C	1.644861	0.309057	-0.267020
C178	C	0.978187	-0.357631	-0.857038
C179	C	1.311520	-0.024298	-0.523705
C180	C	1.644853	0.309035	-0.190371
C181	C	0.978184	-0.357645	-0.795946
C182	C	1.311517	-0.024312	-0.462613
C183	C	1.644851	0.309022	-0.129279
C184	C	0.978103	-0.357761	-0.150292
C185	C	1.311437	-0.024428	0.183041
C186	C	1.644770	0.308906	0.516374
C187	C	0.978218	-0.357572	-0.075061
C188	C	1.311552	-0.024238	0.258272
C189	C	1.644885	0.309095	0.591606
H190	H	0.236441	-0.444075	-0.404574
H191	H	0.569774	-0.110742	-0.071240
H192	H	0.903108	0.222592	0.262093
Br193	Br	0.938222	-0.796815	-0.177283
Br194	Br	1.271556	-0.463482	0.156050
Br195	Br	1.604889	-0.130149	0.489383
H196	H	0.592202	-0.271484	-0.247754
H197	H	0.925535	0.061849	0.085579
H198	H	1.258868	0.395182	0.418912
Br199	Br	0.383866	-0.245665	-0.224312
Br200	Br	0.717199	0.087669	0.109021
Br201	Br	1.050532	0.421002	0.442354
Br202	Br	0.876094	-0.469552	-0.921036
Br203	Br	1.209427	-0.136218	-0.587703
Br204	Br	1.542760	0.197115	-0.254369
Br205	Br	0.383876	-0.469887	-0.428017
Br206	Br	0.717209	-0.136554	-0.094684
Br207	Br	1.050543	0.196779	0.238650
Br208	Br	1.080323	-0.245633	-1.087716
Br209	Br	1.413657	0.087700	-0.754383
Br210	Br	1.746990	0.421034	-0.421049
H211	H	0.236444	-0.271504	-0.247777
H212	H	0.569777	0.061829	0.085556
H213	H	0.903110	0.395163	0.418890
Br214	Br	1.087181	-0.917889	-0.217216
Br215	Br	1.420515	-0.584556	0.116118
Br216	Br	1.753848	-0.251223	0.449451
Br217	Br	0.829399	-0.918439	-0.286181
Br218	Br	1.162732	-0.585106	0.047153
Br219	Br	1.496066	-0.251773	0.380486
Br220	Br	1.126836	-0.796313	-0.366189
Br221	Br	1.460170	-0.462980	-0.032856
Br222	Br	1.793503	-0.129646	0.300477
H223	H	1.008603	-0.903691	-0.440167
H224	H	1.341936	-0.570358	-0.106834
H225	H	1.675270	-0.237024	0.226500
H226	H	0.899563	-0.443850	-0.584463
H227	H	1.232897	-0.110516	-0.251129
H228	H	1.566230	0.222817	0.082204
H229	H	1.056740	-0.271542	-0.584520
H230	H	1.390073	0.061792	-0.251186
H231	H	1.723406	0.395125	0.082147
H232	H	0.899589	-0.443819	-0.712708
H233	H	1.232923	-0.110486	-0.379375
H234	H	1.566256	0.222848	-0.046042
Br235	Br	1.080300	-0.245753	-0.731951
Br236	Br	1.413633	0.087581	-0.398618
Br237	Br	1.746966	0.420914	-0.065285
H238	H	0.899637	-0.443740	-1.068466
H239	H	1.232971	-0.110406	-0.735133
H240	H	1.566304	0.222927	-0.401800
Br241	Br	1.080296	-0.245677	-0.921098
Br242	Br	1.413629	0.087656	-0.587764
Br243	Br	1.746963	0.420990	-0.254431
H244	H	0.592212	-0.444054	-0.404545
H245	H	0.925545	-0.110721	-0.071212
H246	H	1.258879	0.222613	0.262121
Br247	Br	0.739637	-0.245652	-0.224281
Br248	Br	1.072971	0.087682	0.109053
Br249	Br	1.406304	0.421015	0.442386
Br250	Br	0.739634	-0.469872	-0.427985
Br251	Br	1.072968	-0.136539	-0.094652
Br252	Br	1.406301	0.196795	0.238681
H253	H	0.894591	-0.811078	-0.409498
H254	H	1.227924	-0.477744	-0.076165
H255	H	1.561257	-0.144411	0.257169
