data_functionalizedCrystal
_audit_creation_method	'MofGen! by Chris Wilmer'
_symmetry_space_group_name_H-M	'P1'
_symmetry_Int_Tables_number	1
_symmetry_cell_setting	triclinic
loop_
_symmetry_equiv_pos_as_xyz
  x,y,z
_cell_length_a	21.295417
_cell_length_b	10.685972
_cell_length_c	10.686551
_cell_angle_alpha	98.409768
_cell_angle_beta	85.587790
_cell_angle_gamma	85.605282
loop_
_atom_site_label
_atom_site_type_symbol
_atom_site_fract_x
_atom_site_fract_y
_atom_site_fract_z
Zn1	Zn	-0.141130	-1.995712	-0.866708
Zn2	Zn	0.192203	-1.662378	-0.533374
Zn3	Zn	0.525537	-1.329045	-0.200041
Zn4	Zn	-0.255172	-1.979224	-0.654409
Zn5	Zn	0.078161	-1.645891	-0.321076
Zn6	Zn	0.411495	-1.312557	0.012258
Zn7	Zn	-0.158647	-1.767128	-0.638161
Zn8	Zn	0.174686	-1.433795	-0.304828
Zn9	Zn	0.508019	-1.100462	0.028505
Zn10	Zn	-0.255108	-1.783347	-0.850315
Zn11	Zn	0.078226	-1.450014	-0.516981
Zn12	Zn	0.411559	-1.116681	-0.183648
O13	O	-0.202514	-1.881353	-0.752398
O14	O	0.130819	-1.548019	-0.419065
O15	O	0.464152	-1.214686	-0.085731
O16	O	-0.148954	-2.171162	-0.852206
O17	O	0.184380	-1.837829	-0.518873
O18	O	0.517713	-1.504496	-0.185539
O19	O	-0.249726	-1.937401	-0.474619
O20	O	0.083608	-1.604068	-0.141286
O21	O	0.416941	-1.270735	0.192048
O22	O	-0.068228	-1.797562	-0.668540
O23	O	0.265106	-1.464229	-0.335206
O24	O	0.598439	-1.130896	-0.001873
O25	O	-0.232740	-2.159049	-0.696231
O26	O	0.100593	-1.825716	-0.362898
O27	O	0.433927	-1.492382	-0.029564
O28	O	-0.055358	-1.965502	-0.836452
O29	O	0.277976	-1.632168	-0.503118
O30	O	0.611309	-1.298835	-0.169785
O31	O	-0.178809	-1.781575	-0.462682
O32	O	0.154524	-1.448242	-0.129349
O33	O	0.487857	-1.114909	0.203985
O34	O	-0.178747	-1.591642	-0.652644
O35	O	0.154586	-1.258308	-0.319310
O36	O	0.487920	-0.924975	0.014023
O37	O	-0.232630	-1.825206	-1.030124
O38	O	0.100703	-1.491873	-0.696790
O39	O	0.434036	-1.158539	-0.363457
O40	O	-0.249616	-1.603558	-0.808512
O41	O	0.083717	-1.270225	-0.475178
O42	O	0.417050	-0.936891	-0.141845
O43	O	-0.148891	-1.981229	-1.042168
O44	O	0.184442	-1.647896	-0.708835
O45	O	0.517775	-1.314562	-0.375501
O46	O	-0.343260	-1.953128	-0.680335
O47	O	-0.009926	-1.619795	-0.347002
O48	O	0.323407	-1.286462	-0.013668
O49	O	-0.343212	-1.809219	-0.824266
O50	O	-0.009879	-1.475885	-0.490933
O51	O	0.323454	-1.142552	-0.157599
C52	C	-0.216076	-1.551540	-0.727037
C53	C	0.117257	-1.218207	-0.393703
C54	C	0.450591	-0.884874	-0.060370
C55	C	-0.221892	-1.410447	-0.716217
C56	C	0.111442	-1.077114	-0.382883
C57	C	0.444775	-0.743781	-0.049550
C58	C	-0.366076	-1.881181	-0.752315
C59	C	-0.032742	-1.547848	-0.418982
C60	C	0.300591	-1.214514	-0.085648
C61	C	-0.436041	-1.881227	-0.752331
C62	C	-0.102708	-1.547894	-0.418998
C63	C	0.230625	-1.214560	-0.085664
C64	C	-0.468905	-1.956239	-0.677475
C65	C	-0.135572	-1.622906	-0.344141
C66	C	0.197761	-1.289573	-0.010808
C67	C	-0.534644	-1.956301	-0.677508
C68	C	-0.201311	-1.622968	-0.344175
C69	C	0.132022	-1.289634	-0.010841
C70	C	-0.567518	-1.881327	-0.752382
C71	C	-0.234185	-1.547993	-0.419049
C72	C	0.099149	-1.214660	-0.085715
C73	C	-0.534646	-1.806310	-0.827254
C74	C	-0.201312	-1.472976	-0.493920
C75	C	0.132021	-1.139643	-0.160587
C76	C	-0.468907	-1.806260	-0.827228
C77	C	-0.135574	-1.472927	-0.493895
C78	C	0.197759	-1.139593	-0.160561
N79	N	-0.674955	-1.771023	-0.753520
N80	N	-0.341621	-1.437690	-0.420187
N81	N	-0.008288	-1.104356	-0.086853
N82	N	-0.737403	-1.771073	-0.753537
N83	N	-0.404070	-1.437740	-0.420204
N84	N	-0.070737	-1.104407	-0.086870
C85	C	-0.765584	-1.881474	-0.752466
C86	C	-0.432251	-1.548141	-0.419132
C87	C	-0.098917	-1.214808	-0.085799
N88	N	-0.728957	-1.991824	-0.751352
N89	N	-0.395624	-1.658490	-0.418019
N90	N	-0.062291	-1.325157	-0.084685
N91	N	-0.666503	-1.991771	-0.751328
N92	N	-0.333170	-1.658438	-0.417995
N93	N	0.000164	-1.325105	-0.084662
C94	C	-0.638800	-1.881373	-0.752419
C95	C	-0.305467	-1.548040	-0.419085
C96	C	0.027866	-1.214706	-0.085752
C97	C	-0.869729	-1.956560	-0.677642
C98	C	-0.536396	-1.623227	-0.344308
C99	C	-0.203063	-1.289893	-0.010975
C100	C	-0.935469	-1.956625	-0.677684
C101	C	-0.602136	-1.623291	-0.344351
C102	C	-0.268802	-1.289958	-0.011017
C103	C	-0.935470	-1.806622	-0.827422
C104	C	-0.602137	-1.473288	-0.494089
C105	C	-0.268803	-1.139955	-0.160755
C106	C	-0.869731	-1.806569	-0.827387
C107	C	-0.536398	-1.473236	-0.494054
C108	C	-0.203064	-1.139902	-0.160721
C109	C	-0.836865	-1.881536	-0.752490
C110	C	-0.503532	-1.548203	-0.419157
C111	C	-0.170198	-1.214869	-0.085824
C112	C	-0.038312	-1.881562	-0.752512
C113	C	0.295022	-1.548229	-0.419179
C114	C	0.628355	-1.214895	-0.085845
C115	C	0.031662	-1.881651	-0.752560
C116	C	0.364995	-1.548318	-0.419227
C117	C	0.698328	-1.214984	-0.085894
C118	C	-0.188800	-1.906866	-1.083492
C119	C	0.144534	-1.573532	-0.750159
C120	C	0.477867	-1.240199	-0.416826
C121	C	-0.182955	-1.917738	-1.224585
C122	C	0.150378	-1.584404	-0.891252
C123	C	0.483711	-1.251071	-0.557918
C124	C	-0.188896	-1.212453	-0.777854
C125	C	0.144437	-0.879119	-0.444520
C126	C	0.477771	-0.545786	-0.111187
C127	C	-0.183083	-1.353547	-0.788686
C128	C	0.150251	-1.020213	-0.455353
C129	C	0.483584	-0.686880	-0.122019
C130	C	-0.216127	-1.856012	-0.422598
C131	C	0.117206	-1.522679	-0.089264
C132	C	0.450540	-1.189346	0.244069
C133	C	-0.221784	-1.845386	-0.281525
C134	C	0.111550	-1.512053	0.051809
C135	C	0.444883	-1.178720	0.385142
H136	H	-0.259569	-1.351215	-0.645885
H137	H	0.073764	-1.017882	-0.312551
H138	H	0.407097	-0.684548	0.020782
H139	H	-0.561416	-1.745268	-0.888219
H140	H	-0.228082	-1.411934	-0.554886
H141	H	0.105251	-1.078601	-0.221552
H142	H	-0.442147	-2.017285	-0.616493
H143	H	-0.108814	-1.683952	-0.283159
H144	H	0.224519	-1.350618	0.050174
H145	H	-0.561407	-2.017389	-0.616552
H146	H	-0.228074	-1.684056	-0.283218
H147	H	0.105260	-1.350723	0.050115
H148	H	-0.259499	-1.775129	-1.222334
H149	H	0.073834	-1.441796	-0.889000
H150	H	0.407168	-1.108462	-0.555667
H151	H	-0.442149	-1.745175	-0.888186
H152	H	-0.108816	-1.411842	-0.554853
H153	H	0.224518	-1.078508	-0.221520
H154	H	-0.145242	-1.988009	-1.283784
H155	H	0.188092	-1.654675	-0.950450
H156	H	0.521425	-1.321342	-0.617117
H157	H	-0.145404	-1.412772	-0.859005
H158	H	0.187929	-1.079438	-0.525672
H159	H	0.521263	-0.746105	-0.192338
H160	H	-0.842968	-2.017607	-0.616660
H161	H	-0.509635	-1.684274	-0.283327
H162	H	-0.176302	-1.350941	0.050007
H163	H	-0.962235	-1.745582	-0.888392
H164	H	-0.628902	-1.412249	-0.555059
H165	H	-0.295568	-1.078915	-0.221726
H166	H	-0.842972	-1.745481	-0.888337
H167	H	-0.509638	-1.412148	-0.555003
H168	H	-0.176305	-1.078814	-0.221670
H169	H	-0.962225	-2.017717	-0.616730
H170	H	-0.628892	-1.684383	-0.283397
H171	H	-0.295559	-1.351050	0.049937
