data_functionalizedCrystal
_audit_creation_method	'MofGen! by Chris Wilmer'
_symmetry_space_group_name_H-M	'P1'
_symmetry_Int_Tables_number	1
_symmetry_cell_setting	triclinic
loop_
_symmetry_equiv_pos_as_xyz
  x,y,z
_cell_length_a	19.121063
_cell_length_b	21.395364
_cell_length_c	21.395356
_cell_angle_alpha	89.982872
_cell_angle_beta	87.586704
_cell_angle_gamma	87.514290
loop_
_atom_site_label
_atom_site_type_symbol
_atom_site_fract_x
_atom_site_fract_y
_atom_site_fract_z
Zn1	Zn	-0.279337	-0.947191	0.364894
Zn2	Zn	0.220663	-0.447191	0.864894
Zn3	Zn	-0.396787	-0.942644	0.264582
Zn4	Zn	0.103213	-0.442644	0.764582
Zn5	Zn	-0.279386	-0.842419	0.260131
Zn6	Zn	0.220614	-0.342419	0.760131
Zn7	Zn	-0.396788	-0.837911	0.369321
Zn8	Zn	0.103212	-0.337911	0.869321
O9	O	-0.338075	-0.892541	0.314732
O10	O	0.161925	-0.392541	0.814732
O11	O	-0.294896	-1.034267	0.351597
O12	O	0.205104	-0.534267	0.851597
O13	O	-0.381233	-0.929333	0.176314
O14	O	0.118767	-0.429333	0.676314
O15	O	-0.181094	-0.860107	0.270313
O16	O	0.318906	-0.360107	0.770313
O17	O	-0.381186	-1.030926	0.277899
O18	O	0.118814	-0.530926	0.777899
O19	O	-0.181058	-0.937082	0.347282
O20	O	0.318942	-0.437082	0.847282
O21	O	-0.294980	-0.855698	0.173045
O22	O	0.205020	-0.355698	0.673045
O23	O	-0.294981	-0.754142	0.274606
O24	O	0.205019	-0.254142	0.774606
O25	O	-0.381189	-0.852423	0.456411
O26	O	0.118811	-0.352423	0.956411
O27	O	-0.381236	-0.750830	0.354827
O28	O	0.118764	-0.250830	0.854827
O29	O	-0.294898	-0.932711	0.453158
O30	O	0.205102	-0.432711	0.953158
O31	O	-0.495073	-0.924961	0.282191
O32	O	0.004927	-0.424961	0.782191
O33	O	-0.495074	-0.848014	0.359142
O34	O	0.004926	-0.348014	0.859142
C35	C	-0.338115	-0.729752	0.314714
C36	C	0.161885	-0.229752	0.814714
C37	C	-0.338148	-0.660110	0.314722
C38	C	0.161852	-0.160110	0.814722
C39	C	-0.293292	-0.629155	0.353161
C40	C	0.206708	-0.129155	0.853161
C41	C	-0.293276	-0.563721	0.353162
C42	C	0.206724	-0.063721	0.853162
C43	C	-0.338128	-0.529242	0.314730
C44	C	0.161872	-0.029242	0.814730
C45	C	-0.382988	-0.560204	0.276283
C46	C	0.117012	-0.060204	0.776283
C47	C	-0.382998	-0.625638	0.276279
C48	C	0.117002	-0.125638	0.776279
C49	C	-0.401384	-0.423114	0.312096
C50	C	0.098616	0.076886	0.812096
C51	C	-0.401375	-0.357681	0.312105
C52	C	0.098625	0.142319	0.812105
C53	C	-0.338096	-0.327422	0.314741
C54	C	0.161904	0.172578	0.814741
C55	C	-0.274825	-0.362604	0.317380
C56	C	0.225175	0.137396	0.817380
C57	C	-0.274835	-0.428038	0.317375
C58	C	0.225165	0.071962	0.817375
C59	C	-0.338122	-0.458290	0.314731
C60	C	0.161878	0.041710	0.814731
C61	C	-0.293218	-0.225517	0.353183
C62	C	0.206782	0.274483	0.853183
C63	C	-0.293201	-0.160081	0.353179
C64	C	0.206799	0.339919	0.853179
C65	C	-0.382919	-0.156565	0.276305
C66	C	0.117081	0.343435	0.776305
C67	C	-0.382930	-0.222000	0.276305
C68	C	0.117070	0.278000	0.776305
C69	C	-0.338081	-0.256472	0.314747
C70	C	0.161919	0.243528	0.814747
C71	C	-0.520558	-0.885522	0.321644
C72	C	-0.020558	-0.385522	0.821644
C73	C	-0.598626	-0.882577	0.324621
C74	C	-0.098626	-0.382577	0.824621
C75	C	-0.635278	-0.921286	0.285989
C76	C	-0.135278	-0.421286	0.785989
C77	C	-0.708630	-0.918520	0.288793
C78	C	-0.208630	-0.418520	0.788793
C79	C	-0.745329	-0.877040	0.330227
C80	C	-0.245329	-0.377040	0.830227
C81	C	-0.708672	-0.838329	0.368863
C82	C	-0.208672	-0.338329	0.868863
C83	C	-0.635321	-0.841099	0.366062
C84	C	-0.135321	-0.341099	0.866062
C85	C	-0.966803	-0.866674	0.340691
C86	C	-0.466803	-0.366674	0.840691
C87	C	-1.040159	-0.863905	0.343489
C88	C	-0.540159	-0.363905	0.843489
C89	C	-1.040113	-0.944097	0.263419
C90	C	-0.540113	-0.444097	0.763419
C91	C	-0.966760	-0.946861	0.260618
C92	C	-0.466760	-0.446861	0.760618
C93	C	-0.930109	-0.908152	0.299257
C94	C	-0.430109	-0.408152	0.799257
C95	C	-0.820307	-0.874210	0.333093
C96	C	-0.320307	-0.374210	0.833093
C97	C	-0.855133	-0.910986	0.296394
C98	C	-0.355133	-0.410986	0.796394
C99	C	-0.154879	-0.899605	0.307807
C100	C	0.345121	-0.399605	0.807807
C101	C	-0.076811	-0.902615	0.304856
C102	C	0.423189	-0.402615	0.804856
C103	C	-0.338038	-0.892571	0.478154
C104	C	0.161962	-0.392571	0.978154
C105	C	-0.338022	-0.892584	0.547795
C106	C	0.161978	-0.392584	1.047795
C107	C	-0.338044	-0.055966	0.314748
C108	C	0.161956	0.444034	0.814748
C109	C	-0.338053	-0.125607	0.314747
C110	C	0.161947	0.374393	0.814747
C111	C	-0.338061	-0.892549	0.151944
C112	C	0.161939	-0.392549	0.651944
C113	C	-0.337879	-0.892665	0.082296
C114	C	0.162121	-0.392665	0.582296
C115	C	-0.382787	-0.931002	1.051289
C116	C	0.117213	-0.431002	1.551289
C117	C	-0.382809	-0.930990	0.985854
C118	C	0.117191	-0.430990	1.485854
C119	C	-0.337911	-0.892648	0.951429
C120	C	0.162089	-0.392648	1.451429
C121	C	-0.292999	-0.854304	0.982444
C122	C	0.207001	-0.354304	1.482444
C123	C	-0.292983	-0.854313	1.047878
C124	C	0.207017	-0.354313	1.547878
C125	C	-0.274658	-0.890127	0.845369
C126	C	0.225342	-0.390127	1.345369
C127	C	-0.274673	-0.890123	0.779936
C128	C	0.225327	-0.390123	1.279936
C129	C	-0.337961	-0.892618	0.749610
C130	C	0.162039	-0.392618	1.249610
C131	C	-0.401235	-0.895131	0.784724
C132	C	0.098765	-0.395131	1.284724
C133	C	-0.401219	-0.895139	0.850158
C134	C	0.098781	-0.395139	1.350158
C135	C	-0.337923	-0.892634	0.880477
C136	C	0.162077	-0.392634	1.380477
C137	C	-0.382897	-0.930943	0.647651
C138	C	0.117103	-0.430943	1.147651
C139	C	-0.382920	-0.930927	0.582215
C140	C	0.117080	-0.430927	1.082215
C141	C	-0.293104	-0.854245	0.578806
C142	C	0.206896	-0.354245	1.078806
C143	C	-0.293087	-0.854258	0.644241
C144	C	0.206913	-0.354258	1.144241
C145	C	-0.337982	-0.892610	0.678659
C146	C	0.162018	-0.392610	1.178659
H147	H	-0.452894	-0.329041	0.309959
H148	H	0.047106	0.170959	0.809959
Cl149	Cl	-0.236526	-0.806110	1.086861
Cl150	Cl	0.263474	-0.306110	1.586861
H151	H	-0.936881	-0.980637	0.226880
H152	H	-0.436881	-0.480637	0.726880
H153	H	-0.452917	-0.447745	0.309950
H154	H	0.047083	0.052255	0.809950
H155	H	-0.256695	-0.253585	0.384481
H156	H	0.243305	0.246415	0.884481
H157	H	-0.419455	-0.962171	0.675676
H158	H	0.080545	-0.462171	1.175676
H159	H	-0.419460	-0.247203	0.245006
H160	H	0.080540	0.252797	0.745006
Cl161	Cl	-0.920737	-0.818009	0.389265
Cl162	Cl	-0.420737	-0.318009	0.889265
H163	H	-0.850195	-0.840436	0.366827
H164	H	-0.350195	-0.340436	0.866827
H165	H	-0.419497	-0.962142	0.556970
H166	H	0.080503	-0.462142	1.056970
H167	H	-0.419506	-0.532127	0.244992
H168	H	0.080494	-0.032127	0.744992
H169	H	-0.256772	-0.657218	0.384463
H170	H	0.243228	-0.157218	0.884463
Cl171	Cl	-0.236553	-0.806105	0.939168
Cl172	Cl	0.263447	-0.306105	1.439168
H173	H	-0.256548	-0.823025	0.550778
H174	H	0.243452	-0.323025	1.050778
Cl175	Cl	-0.439392	-0.664554	0.227949
Cl176	Cl	0.060608	-0.164554	0.727949
Cl177	Cl	-0.236880	-0.524798	0.401489
Cl178	Cl	0.263120	-0.024798	0.901489
H179	H	-0.223317	-0.456681	0.319523
H180	H	0.276683	0.043319	0.819523
Cl181	Cl	-0.808996	-0.963132	0.244310
Cl182	Cl	-0.308996	-0.463132	0.744310
Cl183	Cl	-0.589149	-0.973431	0.233894
Cl184	Cl	-0.089149	-0.473431	0.733894
Cl185	Cl	-0.754704	-0.967188	0.240226
Cl186	Cl	-0.254704	-0.467188	0.740226
Cl187	Cl	-0.195058	-0.887305	0.883485
Cl188	Cl	0.304942	-0.387305	1.383485
Cl189	Cl	-1.086192	-0.992761	0.214852
Cl190	Cl	-0.586192	-0.492761	0.714852
H191	H	-0.419439	-0.128493	0.245013
H192	H	0.080561	0.371507	0.745013
Cl193	Cl	-0.236637	-0.806051	0.683225
Cl194	Cl	0.263363	-0.306051	1.183225
H195	H	-0.223297	-0.337969	0.319526
H196	H	0.276703	0.162031	0.819526
H197	H	-0.419347	-0.962230	1.079308
H198	H	0.080653	-0.462230	1.579308
Cl199	Cl	-0.236802	-0.121166	0.401505
Cl200	Cl	0.263198	0.378834	0.901505
H201	H	-1.070037	-0.830135	0.377240
H202	H	-0.570037	-0.330135	0.877240
H203	H	-0.738558	-0.804558	0.402602
H204	H	-0.238558	-0.304558	0.902602
Cl205	Cl	-0.589243	-0.792436	0.414632
Cl206	Cl	-0.089243	-0.292436	0.914632
H207	H	-0.419371	-0.962217	0.960602
H208	H	0.080629	-0.462217	1.460602
Cl209	Cl	-0.480761	-0.898293	0.894299
Cl210	Cl	0.019239	-0.398293	1.394299
H211	H	-0.452770	-0.897164	0.760034
H212	H	0.047230	-0.397164	1.260034
H213	H	-0.223151	-0.888081	0.751351
H214	H	0.276849	-0.388081	1.251351
