data_functionalizedCrystal
_audit_creation_method	'MofGen! by Chris Wilmer'
_symmetry_space_group_name_H-M	'P1'
_symmetry_Int_Tables_number	1
_symmetry_cell_setting	triclinic
loop_
_symmetry_equiv_pos_as_xyz
  x,y,z
_cell_length_a	21.295418
_cell_length_b	21.295417
_cell_length_c	21.295420
_cell_angle_alpha	90.005898
_cell_angle_beta	90.036164
_cell_angle_gamma	90.045515
loop_
_atom_site_label
_atom_site_type_symbol
_atom_site_fract_x
_atom_site_fract_y
_atom_site_fract_z
Zn1	Zn	0.962312	-0.250507	0.356238
Zn2	Zn	1.295645	0.082827	0.689571
Zn3	Zn	1.628979	0.416160	1.022905
Zn4	Zn	0.962230	-0.355731	0.250965
Zn5	Zn	1.295563	-0.022398	0.584299
Zn6	Zn	1.628897	0.310935	0.917632
Zn7	Zn	0.857049	-0.250509	0.250948
Zn8	Zn	1.190383	0.082824	0.584281
Zn9	Zn	1.523716	0.416158	0.917615
Zn10	Zn	0.857006	-0.355771	0.356162
Zn11	Zn	1.190340	-0.022438	0.689495
Zn12	Zn	1.523673	0.310896	1.022828
O13	O	0.909649	-0.303130	0.303578
O14	O	1.242983	0.030204	0.636912
O15	O	1.576316	0.363537	0.970245
O16	O	1.050391	-0.264447	0.342313
O17	O	1.383724	0.068886	0.675646
O18	O	1.717057	0.402219	1.008979
O19	O	0.948261	-0.341758	0.162874
O20	O	1.281594	-0.008425	0.496207
O21	O	1.614928	0.324909	0.829540
O22	O	0.871065	-0.162419	0.264939
O23	O	1.204398	0.170914	0.598273
O24	O	1.537732	0.504247	0.931606
O25	O	1.050330	-0.341756	0.264969
O26	O	1.383664	-0.008422	0.598303
O27	O	1.716997	0.324911	0.931636
O28	O	0.948401	-0.162418	0.342296
O29	O	1.281735	0.170916	0.675629
O30	O	1.615068	0.504249	1.008962
O31	O	0.870985	-0.264452	0.162861
O32	O	1.204319	0.068882	0.496194
O33	O	1.537652	0.402215	0.829527
O34	O	0.768954	-0.264490	0.264865
O35	O	1.102287	0.068843	0.598199
O36	O	1.435621	0.402177	0.931532
O37	O	0.870992	-0.341823	0.444261
O38	O	1.204325	-0.008490	0.777595
O39	O	1.537658	0.324844	1.110928
O40	O	0.768923	-0.341825	0.342166
O41	O	1.102256	-0.008492	0.675499
O42	O	1.435589	0.324841	1.008832
O43	O	0.948359	-0.264486	0.444317
O44	O	1.281693	0.068848	0.777651
O45	O	1.615026	0.402181	1.110984
O46	O	0.948219	-0.443826	0.264895
O47	O	1.281553	-0.110493	0.598229
O48	O	1.614886	0.222841	0.931562
O49	O	0.870912	-0.443855	0.342183
O50	O	1.204245	-0.110522	0.675516
O51	O	1.537579	0.222812	1.008849
C52	C	0.746098	-0.303163	0.303506
C53	C	1.079431	0.030171	0.636839
C54	C	1.412764	0.363504	0.970172
C55	C	0.676130	-0.303192	0.303490
C56	C	1.009463	0.030141	0.636823
C57	C	1.342796	0.363475	0.970156
C58	C	0.643263	-0.343514	0.343680
C59	C	0.976596	-0.010180	0.677013
C60	C	1.309930	0.323153	1.010346
C61	C	0.577520	-0.343498	0.343708
C62	C	0.910854	-0.010165	0.677041
C63	C	1.244187	0.323168	1.010375
C64	C	0.544647	-0.303168	0.303535
C65	C	0.877980	0.030166	0.636868
C66	C	1.211314	0.363499	0.970202
C67	C	0.577522	-0.262838	0.263342
C68	C	0.910855	0.070495	0.596675
C69	C	1.244188	0.403829	0.930009
C70	C	0.643263	-0.262850	0.263319
C71	C	0.976596	0.070483	0.596653
C72	C	1.309930	0.403817	0.929986
N73	N	0.441378	-0.298226	0.248477
N74	N	0.774712	0.035107	0.581811
N75	N	1.108045	0.368440	0.915144
N76	N	0.378927	-0.298218	0.248501
N77	N	0.712260	0.035115	0.581834
N78	N	1.045594	0.368448	0.915167
C79	C	0.346572	-0.303127	0.303602
C80	C	0.679906	0.030206	0.636935
C81	C	1.013239	0.363539	0.970268
N82	N	0.379029	-0.308057	0.358680
N83	N	0.712362	0.025276	0.692013
N84	N	1.045695	0.358610	1.025347
N85	N	0.441486	-0.308068	0.358656
N86	N	0.774819	0.025265	0.691989
N87	N	1.108153	0.358599	1.025323
C88	C	0.473362	-0.303150	0.303555
C89	C	0.806695	0.030184	0.636889
C90	C	1.140028	0.363517	0.970222
C91	C	0.242420	-0.343435	0.343826
C92	C	0.575754	-0.010101	0.677159
C93	C	0.909087	0.323232	1.010493
C94	C	0.176677	-0.343415	0.343855
C95	C	0.510010	-0.010081	0.677189
C96	C	0.843343	0.323252	1.010522
C97	C	0.176679	-0.262758	0.263484
C98	C	0.510012	0.070576	0.596817
C99	C	0.843346	0.403909	0.930150
C100	C	0.242422	-0.262774	0.263460
C101	C	0.575755	0.070559	0.596793
C102	C	0.909088	0.403892	0.930127
C103	C	0.275288	-0.303116	0.303630
C104	C	0.608622	0.030217	0.636964
C105	C	0.941955	0.363551	0.970297
C106	C	0.909569	-0.466681	0.303546
C107	C	1.242903	-0.133348	0.636880
C108	C	1.576236	0.199985	0.970213
C109	C	0.909592	-0.536649	0.303554
C110	C	1.242926	-0.203316	0.636887
C111	C	1.576259	0.130017	0.970220
C112	C	0.949838	-0.569458	0.343862
C113	C	1.283172	-0.236124	0.677195
C114	C	1.616505	0.097209	1.010529
C115	C	0.949861	-0.635200	0.343877
C116	C	1.283194	-0.301867	0.677211
C117	C	1.616527	0.031466	1.010544
C118	C	0.909643	-0.668132	0.303574
C119	C	1.242977	-0.334798	0.636907
C120	C	1.576310	-0.001465	0.970240
C121	C	0.869390	-0.635315	0.263263
C122	C	1.202723	-0.301982	0.596596
C123	C	1.536056	0.031351	0.929929
C124	C	0.869364	-0.569574	0.263253
C125	C	1.202698	-0.236241	0.596586
C126	C	1.536031	0.097093	0.929919
N127	N	0.904891	-0.771371	0.248481
N128	N	1.238225	-0.438038	0.581814
N129	N	1.571558	-0.104705	0.915148
N130	N	0.904919	-0.833823	0.248492
N131	N	1.238253	-0.500489	0.581826
N132	N	1.571586	-0.167156	0.915159
C133	C	0.909717	-0.866206	0.303602
C134	C	1.243050	-0.532873	0.636935
C135	C	1.576384	-0.199540	0.970269
N136	N	0.914498	-0.833780	0.358701
N137	N	1.247831	-0.500446	0.692035
N138	N	1.581165	-0.167113	1.025368
N139	N	0.914473	-0.771322	0.358690
N140	N	1.247807	-0.437989	0.692023
N141	N	1.581140	-0.104656	1.025356
C142	C	0.909666	-0.739417	0.303580
C143	C	1.243000	-0.406084	0.636914
C144	C	1.576333	-0.072750	0.970247
C145	C	0.949989	-0.970301	0.343930
C146	C	1.283322	-0.636967	0.677264
C147	C	1.616656	-0.303634	1.010597
C148	C	0.950007	-1.036044	0.343947
C149	C	1.283340	-0.702711	0.677280
C150	C	1.616674	-0.369378	1.010614
C151	C	0.869539	-1.036158	0.263327
C152	C	1.202873	-0.702825	0.596660
C153	C	1.536206	-0.369491	0.929993
C154	C	0.869518	-0.970415	0.263316
C155	C	1.202852	-0.637082	0.596649
C156	C	1.536185	-0.303749	0.929982
C157	C	0.909747	-0.937491	0.303617
C158	C	1.243080	-0.604157	0.636950
C159	C	1.576413	-0.270824	0.970283
C160	C	1.073840	-0.303097	0.303651
C161	C	1.407173	0.030237	0.636985
C162	C	1.740506	0.363570	0.970318
C163	C	1.143808	-0.303083	0.303683
C164	C	1.477141	0.030250	0.637016
C165	C	1.810474	0.363584	0.970349
C166	C	0.909680	-0.303158	0.467768
C167	C	1.243013	0.030175	0.801102
C168	C	1.576347	0.363508	1.134435
C169	C	0.909693	-0.303171	0.537737
C170	C	1.243026	0.030163	0.871070
C171	C	1.576360	0.363496	1.204403
C172	C	0.909747	-0.138939	0.303624
C173	C	1.243080	0.194394	0.636957
C174	C	1.576414	0.527727	0.970291
C175	C	0.909789	-0.068971	0.303644
C176	C	1.243122	0.264362	0.636977
C177	C	1.576455	0.597696	0.970310
C178	C	0.949972	-0.262908	0.570633
C179	C	1.283306	0.070426	0.903967
C180	C	1.616639	0.403759	1.237300
C181	C	0.949963	-0.262897	0.636376
C182	C	1.283296	0.070436	0.969709
C183	C	1.616629	0.403769	1.303043
C184	C	0.909680	-0.303161	0.669219
C185	C	1.243014	0.030172	1.002552
C186	C	1.576347	0.363506	1.335886
C187	C	0.869393	-0.343427	0.636314
C188	C	1.202727	-0.010093	0.969648
C189	C	1.536060	0.323240	1.302981
C190	C	0.869399	-0.343432	0.570573
C191	C	1.202733	-0.010098	0.903906
C192	C	1.536066	0.323235	1.237240
N193	N	0.904811	-0.358257	0.772434
N194	N	1.238144	-0.024923	1.105767
N195	N	1.571477	0.308410	1.439100
N196	N	0.904809	-0.358250	0.834885
N197	N	1.238142	-0.024917	1.168219
N198	N	1.571475	0.308416	1.501552
C199	C	0.909658	-0.303148	0.867294
C200	C	1.242991	0.030185	1.200627
C201	C	1.576325	0.363519	1.533960
N202	N	0.914522	-0.248051	0.834892
N203	N	1.247856	0.085282	1.168225
N204	N	1.581189	0.418615	1.501558
N205	N	0.914528	-0.248058	0.772435
N206	N	1.247861	0.085275	1.105768
N207	N	1.581195	0.418608	1.439101
C208	C	0.909669	-0.303160	0.740504
C209	C	1.243002	0.030173	1.073838
C210	C	1.576335	0.363507	1.407171
C211	C	0.949929	-0.262871	0.971476
C212	C	1.283263	0.070463	1.304809
C213	C	1.616596	0.403796	1.638143
C214	C	0.949915	-0.262859	1.037220
C215	C	1.283249	0.070474	1.370553
C216	C	1.616582	0.403808	1.703887
C217	C	0.869349	-0.343394	1.037157
C218	C	1.202682	-0.010061	1.370490
C219	C	1.536016	0.323273	1.703824
C220	C	0.869360	-0.343400	0.971415
C221	C	1.202693	-0.010067	1.304748
C222	C	1.536026	0.323267	1.638081
C223	C	0.909653	-0.303139	0.938578
C224	C	1.242987	0.030194	1.271911
C225	C	1.576320	0.363528	1.605245
C226	C	0.909622	-0.303120	1.140027
C227	C	1.242955	0.030213	1.473360
C228	C	1.576289	0.363547	1.806693
C229	C	0.909632	-0.303122	1.070059
C230	C	1.242965	0.030211	1.403392
C231	C	1.576299	0.363544	1.736725
H232	H	0.670023	-0.230013	0.230592
H233	H	1.003356	0.103320	0.563925
H234	H	1.336689	0.436653	0.897258
H235	H	0.550755	-0.376333	0.376438
H236	H	0.884089	-0.043000	0.709771
H237	H	1.217422	0.290334	1.043105
H238	H	0.670019	-0.376362	0.376390
H239	H	1.003352	-0.043029	0.709724
H240	H	1.336686	0.290304	1.043057
H241	H	0.269182	-0.376280	0.376538
H242	H	0.602515	-0.042947	0.709871
H243	H	0.935848	0.290387	1.043205
H244	H	0.836596	-0.376218	0.543789
H245	H	1.169930	-0.042884	0.877122
H246	H	1.503263	0.290449	1.210456
H247	H	0.836564	-0.376190	0.944630
H248	H	1.169897	-0.042857	1.277963
H249	H	1.503230	0.290477	1.611296
H250	H	0.550752	-0.229999	0.230634
H251	H	0.884085	0.103334	0.563967
H252	H	1.217419	0.436667	0.897301
H253	H	0.982593	-0.542652	0.376679
H254	H	1.315926	-0.209319	0.710012
H255	H	1.649260	0.124014	1.043346
H256	H	0.982782	-0.230123	0.543902
H257	H	1.316115	0.103210	0.877235
H258	H	1.649448	0.436543	1.210569
H259	H	0.836590	-0.542861	0.230428
H260	H	1.169924	-0.209527	0.563762
H261	H	1.503257	0.123806	0.897095
H262	H	0.982735	-0.230084	0.944739
H263	H	1.316068	0.103249	1.278073
H264	H	1.649402	0.436582	1.611406
H265	H	0.982715	-0.230069	1.064003
H266	H	1.316048	0.103265	1.397337
H267	H	1.649381	0.436598	1.730670
C268	C	0.140523	-0.387780	0.388065
C269	C	0.473857	-0.054446	0.721398
C270	C	0.807190	0.278887	1.054731
N271	N	0.113292	-0.421199	0.421361
N272	N	0.446626	-0.087866	0.754694
N273	N	0.779959	0.245467	1.088028
H274	H	0.836544	-0.376171	1.063897
H275	H	1.169877	-0.042838	1.397231
H276	H	1.503211	0.290495	1.730564
C277	C	0.278576	-0.218422	0.219241
C278	C	0.611910	0.114911	0.552575
C279	C	0.945243	0.448245	0.885908
N280	N	0.305808	-0.185013	0.185934
N281	N	0.639141	0.148320	0.519268
N282	N	0.972474	0.481653	0.852601
C283	C	0.994279	-0.218607	0.672570
C284	C	1.327612	0.114726	1.005903
C285	C	1.660945	0.448060	1.339236
N286	N	1.027659	-0.185249	0.699829
N287	N	1.360993	0.148084	1.033162
N288	N	1.694326	0.481417	1.366496
H289	H	0.836593	-0.376208	0.663059
H290	H	1.169926	-0.042874	0.996393
H291	H	1.503260	0.290459	1.329726
H292	H	0.149914	-0.229917	0.230777
H293	H	0.483248	0.103417	0.564110
H294	H	0.816581	0.436750	0.897444
H295	H	0.982628	-0.661918	0.376709
H296	H	1.315962	-0.328585	0.710042
H297	H	1.649295	0.004748	1.043375
H298	H	0.982743	-0.943492	0.376748
H299	H	1.316077	-0.610159	0.710081
H300	H	1.649410	-0.276825	1.043415
C301	C	0.825175	-0.671541	0.218904
C302	C	1.158509	-0.338208	0.552237
C303	C	1.491842	-0.004874	0.885571
N304	N	0.791879	-0.698826	0.185484
N305	N	1.125212	-0.365493	0.518817
N306	N	1.458546	-0.032160	0.852151
H307	H	0.982780	-1.062756	0.376774
H308	H	1.316113	-0.729422	0.710107
H309	H	1.649446	-0.396089	1.043440
H310	H	0.836790	-1.062970	0.230514
H311	H	1.170123	-0.729637	0.563848
H312	H	1.503457	-0.396303	0.897181
H313	H	0.836749	-0.943701	0.230490
H314	H	1.170082	-0.610368	0.563824
H315	H	1.503416	-0.277034	0.897157
