data_functionalizedCrystal
_audit_creation_method	'MofGen! by Chris Wilmer'
_symmetry_space_group_name_H-M	'P1'
_symmetry_Int_Tables_number	1
_symmetry_cell_setting	triclinic
loop_
_symmetry_equiv_pos_as_xyz
  x,y,z
_cell_length_a	13.032831
_cell_length_b	13.032721
_cell_length_c	13.032268
_cell_angle_alpha	103.289627
_cell_angle_beta	90.886977
_cell_angle_gamma	90.902885
loop_
_atom_site_label
_atom_site_type_symbol
_atom_site_fract_x
_atom_site_fract_y
_atom_site_fract_z
Zn1	Zn	1.399428	-0.702884	-0.857492
Zn2	Zn	1.399318	-0.857952	-0.702424
Zn3	Zn	1.255414	-0.659406	-0.658991
Zn4	Zn	1.206359	-0.852325	-0.851935
O5	O	1.315130	-0.768142	-0.767710
O6	O	1.540438	-0.744005	-0.857424
O7	O	1.400712	-0.815774	-0.551018
O8	O	1.295093	-0.519539	-0.669471
O9	O	1.540357	-0.857933	-0.743496
O10	O	1.400900	-0.551483	-0.815309
O11	O	1.294986	-0.669903	-0.519108
O12	O	1.107882	-0.664446	-0.664083
O13	O	1.211487	-0.848342	-0.998317
O14	O	1.071842	-0.806183	-0.805839
O15	O	1.353334	-0.738549	-1.002399
O16	O	1.353146	-1.002840	-0.738108
O17	O	1.211380	-0.998706	-0.847953
C18	C	1.053296	-0.729987	-0.729646
C19	C	0.941275	-0.713692	-0.713389
C20	C	0.873527	-0.776647	-0.776195
C21	C	0.757747	-0.759806	-0.759394
C22	C	1.276952	-1.038540	-0.797167
C23	C	1.260707	-1.154235	-0.809817
C24	C	1.323655	-1.207840	-0.761163
C25	C	1.306867	-1.327417	-0.774236
C26	C	1.577986	-0.806447	-0.805925
C27	C	1.690000	-0.822770	-0.822209
C28	C	1.276951	-0.797668	-1.039178
C29	C	1.260681	-0.810250	-1.154861
C30	C	1.353481	-0.496694	-0.738165
C31	C	1.369823	-0.381019	-0.725575
C32	C	1.323611	-0.761535	-1.208456
C33	C	1.306797	-0.774538	-1.328021
C34	C	1.353229	-0.738664	-0.497299
C35	C	1.369735	-0.725817	-0.381613
H36	H	0.913561	-0.647322	-0.647184
O37	O	1.227763	-1.378419	-0.835408
C38	C	1.228622	-1.486459	-0.834859
H39	H	1.270927	-1.497287	-0.760974
H40	H	1.269262	-1.531769	-0.907775
C41	C	1.065551	-1.515342	-0.926316
C42	C	1.117504	-1.528641	-0.835564
H43	H	0.997009	-1.541364	-0.926756
H44	H	1.064974	-1.442554	-0.926689
H45	H	1.099429	-1.553101	-0.987069
H46	H	1.083633	-1.490872	-0.774813
H47	H	1.118073	-1.601423	-0.835180
H48	H	1.240463	-0.825867	-1.370647
O49	O	1.181701	-1.205227	-0.871145
C50	C	1.220811	-1.283685	-0.953583
H51	H	1.300119	-1.306953	-0.929797
H52	H	1.226811	-1.251802	-1.027775
C53	C	1.050889	-1.352449	-1.004756
C54	C	1.148293	-1.381033	-0.975538
H55	H	1.006155	-1.412496	-1.018303
H56	H	1.024539	-1.299588	-0.949219
H57	H	1.055903	-1.325878	-1.066580
H58	H	1.143280	-1.407590	-0.913708
H59	H	1.174641	-1.433901	-1.031066
H60	H	1.389932	-0.710199	-1.165823
H61	H	1.436059	-0.674475	-1.338985
O62	O	1.181678	-0.871632	-1.205789
C63	C	1.220780	-0.953983	-1.284346
H64	H	1.303828	-0.968428	-1.263759
H65	H	1.217296	-0.931204	-1.363696
C66	C	1.054011	-1.037455	-1.316062
C67	C	1.156010	-1.055202	-1.290772
H68	H	1.014057	-1.099891	-1.320031
H69	H	1.027666	-0.981971	-1.263140
H70	H	1.051123	-1.018470	-1.382185
H71	H	1.158899	-1.074174	-1.224645
H72	H	1.182354	-1.110691	-1.343684
H73	H	0.901241	-0.843009	-0.842407
H74	H	1.389980	-1.165210	-0.709834
H75	H	0.717707	-0.889135	-0.888428
H76	H	1.436153	-1.338392	-0.674242
H77	H	0.730039	-0.693432	-0.693185
