data_functionalizedCrystal
_audit_creation_method	'MofGen! by Chris Wilmer'
_symmetry_space_group_name_H-M	'P1'
_symmetry_Int_Tables_number	1
_symmetry_cell_setting	triclinic
loop_
_symmetry_equiv_pos_as_xyz
  x,y,z
_cell_length_a	14.519731
_cell_length_b	15.995362
_cell_length_c	12.996460
_cell_angle_alpha	90.000758
_cell_angle_beta	89.994327
_cell_angle_gamma	96.406883
loop_
_atom_site_label
_atom_site_type_symbol
_atom_site_fract_x
_atom_site_fract_y
_atom_site_fract_z
O1	O	1.223662	-0.109844	-0.085556
O2	O	1.473662	0.140156	0.164444
O3	O	1.723662	0.390156	0.414444
O4	O	1.973662	0.640156	0.664444
O5	O	0.955165	-0.122751	-0.085556
O6	O	1.205165	0.127249	0.164444
O7	O	1.455165	0.377249	0.414444
O8	O	1.705165	0.627249	0.664444
O9	O	1.096748	0.005578	-0.085564
O10	O	1.346748	0.255578	0.164436
O11	O	1.596748	0.505578	0.414436
O12	O	1.846748	0.755578	0.664436
O13	O	1.082080	-0.238173	-0.085549
O14	O	1.332080	0.011827	0.164451
O15	O	1.582080	0.261827	0.414451
O16	O	1.832080	0.511827	0.664451
O17	O	1.096733	0.005585	0.085570
O18	O	1.346733	0.255585	0.335570
O19	O	1.596733	0.505585	0.585570
O20	O	1.846733	0.755585	0.835570
O21	O	0.955151	-0.122744	0.085577
O22	O	1.205151	0.127256	0.335577
O23	O	1.455151	0.377256	0.585577
O24	O	1.705151	0.627256	0.835577
O25	O	1.223648	-0.109837	0.085577
O26	O	1.473648	0.140163	0.335577
O27	O	1.723648	0.390163	0.585577
O28	O	1.973648	0.640163	0.835577
Cu29	Cu	1.089398	-0.116290	0.101203
Cu30	Cu	1.339398	0.133710	0.351203
Cu31	Cu	1.589398	0.383710	0.601203
Cu32	Cu	1.839398	0.633710	0.851203
Cu33	Cu	1.089415	-0.116298	-0.101182
Cu34	Cu	1.339415	0.133702	0.148818
Cu35	Cu	1.589415	0.383702	0.398818
Cu36	Cu	1.839415	0.633702	0.648818
O37	O	1.082066	-0.238166	0.085585
O38	O	1.332066	0.011834	0.335585
O39	O	1.582066	0.261834	0.585585
O40	O	1.832066	0.511834	0.835585
C41	C	0.920800	-0.122143	0.000010
C42	C	1.170800	0.127857	0.250010
C43	C	1.420800	0.377857	0.500010
C44	C	1.670800	0.627857	0.750010
C45	C	0.818423	-0.120331	0.000010
C46	C	1.068423	0.129669	0.250010
C47	C	1.318423	0.379669	0.500010
C48	C	1.568423	0.629669	0.750010
C49	C	0.735281	-0.118858	0.000005
C50	C	0.985281	0.131142	0.250005
C51	C	1.235281	0.381142	0.500005
C52	C	1.485281	0.631142	0.750005
C53	C	0.630976	-0.117018	0.000005
C54	C	0.880976	0.132982	0.250005
C55	C	1.130976	0.382982	0.500005
C56	C	1.380976	0.632982	0.750005
C57	C	0.547839	-0.115558	0.000005
C58	C	0.797839	0.134442	0.250005
C59	C	1.047839	0.384442	0.500005
C60	C	1.297839	0.634442	0.750005
C61	C	0.443527	-0.113718	0.000002
C62	C	0.693527	0.136282	0.250002
C63	C	0.943527	0.386282	0.500002
C64	C	1.193527	0.636282	0.750002
C65	C	1.096132	0.036777	-0.000001
C66	C	1.346132	0.286777	0.249999
C67	C	1.596132	0.536777	0.499999
C68	C	1.846132	0.786777	0.749999
C69	C	1.094308	0.129729	-0.000013
C70	C	1.344308	0.379729	0.249987
C71	C	1.594308	0.629729	0.499987
C72	C	1.844308	0.879729	0.749987
C73	C	1.258013	-0.110446	0.000009
C74	C	1.508013	0.139554	0.250009
C75	C	1.758013	0.389554	0.500009
C76	C	2.008013	0.639554	0.750009
C77	C	1.360391	-0.112258	0.000002
C78	C	1.610391	0.137742	0.250002
C79	C	1.860391	0.387742	0.500002
C80	C	2.110391	0.637742	0.750002
N81	N	1.089392	-0.116284	0.243550
N82	N	1.339392	0.133716	0.493550
N83	N	1.589392	0.383716	0.743550
N84	N	1.839392	0.633716	0.993550
C85	C	1.087758	0.467485	-0.000032
C86	C	1.337758	0.717485	0.249968
C87	C	1.587758	0.967485	0.499968
C88	C	1.837758	1.217485	0.749968
C89	C	0.986924	0.420209	-0.000413
C90	C	1.236924	0.670209	0.249587
C91	C	1.486924	0.920209	0.499587
C92	C	1.736924	1.170209	0.749587
C93	C	0.988748	0.323517	-0.000021
C94	C	1.238748	0.573517	0.249979
C95	C	1.488748	0.823517	0.499979
C96	C	1.738748	1.073517	0.749979
C97	C	1.091007	0.299921	-0.000023
C98	C	1.341007	0.549921	0.249977
C99	C	1.591007	0.799921	0.499977
C100	C	1.841007	1.049921	0.749977
C101	C	1.140733	0.340924	0.097698
C102	C	1.390733	0.590924	0.347698
C103	C	1.640733	0.840924	0.597698
C104	C	1.890733	1.090924	0.847698
C105	C	1.138195	0.437563	0.097773
C106	C	1.388195	0.687563	0.347773
C107	C	1.638195	0.937563	0.597773
C108	C	1.888195	1.187563	0.847773
C109	C	1.140295	0.437910	-0.096838
C110	C	1.390295	0.687910	0.153162
C111	C	1.640295	0.937910	0.403162
C112	C	1.890295	1.187910	0.653162
C113	C	1.140276	0.340965	-0.098123
C114	C	1.390276	0.590965	0.151877
C115	C	1.640276	0.840965	0.401877
C116	C	1.890276	1.090965	0.651877
C117	C	1.092848	0.205221	-0.000015
C118	C	1.342848	0.455221	0.249985
C119	C	1.592848	0.705221	0.499985
C120	C	1.842848	0.955221	0.749985
C121	C	1.085919	0.562185	-0.000034
C122	C	1.335919	0.812185	0.249966
C123	C	1.585919	1.062185	0.499966
C124	C	1.835919	1.312185	0.749966
C125	C	1.082669	0.730633	0.000003
C126	C	1.332669	0.980633	0.250003
C127	C	1.582669	1.230633	0.500003
C128	C	1.832669	1.480633	0.750003
C129	C	1.084457	0.637676	-0.000043
C130	C	1.334457	0.887676	0.249957
C131	C	1.584457	1.137676	0.499957
C132	C	1.834457	1.387676	0.749957
N133	N	1.089428	-0.116298	-0.243529
N134	N	1.339428	0.133702	0.006471
N135	N	1.589428	0.383702	0.256471
N136	N	1.839428	0.633702	0.506471
C137	C	1.089414	-0.116299	0.663365
C138	C	1.339414	0.133701	0.913365
C139	C	1.589414	0.383701	1.163365
C140	C	1.839414	0.633701	1.413365
C141	C	1.089405	-0.116298	0.546560
C142	C	1.339405	0.133702	0.796560
C143	C	1.589405	0.383702	1.046560
C144	C	1.839405	0.633702	1.296560
C145	C	1.089404	-0.116292	0.453461
C146	C	1.339404	0.133708	0.703461
C147	C	1.589404	0.383708	0.953461
C148	C	1.839404	0.633708	1.203461
C149	C	1.089394	-0.116289	0.336649
C150	C	1.339394	0.133711	0.586649
C151	C	1.589394	0.383711	0.836649
C152	C	1.839394	0.633711	1.086649
H153	H	0.949659	0.295153	-0.070072
H154	H	1.199659	0.545153	0.179928
H155	H	1.449659	0.795153	0.429928
H156	H	1.699659	1.045153	0.679928
F157	F	1.097203	0.464811	-0.193654
F158	F	1.347203	0.714811	0.056346
F159	F	1.597203	0.964811	0.306346
F160	F	1.847203	1.214811	0.556346
F161	F	1.234956	0.479565	0.103573
F162	F	1.484956	0.729565	0.353573
F163	F	1.734956	0.979565	0.603573
F164	F	1.984956	1.229565	0.853573
H165	H	1.215859	0.326681	0.101330
H166	H	1.465859	0.576681	0.351330
H167	H	1.715859	0.826681	0.601330
H168	H	1.965859	1.076681	0.851330
H169	H	1.214848	0.325486	-0.104025
H170	H	1.464848	0.575486	0.145975
H171	H	1.714848	0.825486	0.395975
H172	H	1.964848	1.075486	0.645975
H173	H	0.946625	0.438801	-0.070494
H174	H	1.196625	0.688801	0.179506
H175	H	1.446625	0.938801	0.429506
H176	H	1.696625	1.188801	0.679506
F177	F	0.937294	0.287176	0.091699
F178	F	1.187294	0.537176	0.341699
F179	F	1.437294	0.787176	0.591699
F180	F	1.687294	1.037176	0.841699
F181	F	1.090777	0.461565	0.193254
F182	F	1.340777	0.711565	0.443254
F183	F	1.590777	0.961565	0.693254
F184	F	1.840777	1.211565	0.943254
H185	H	1.106184	0.312600	0.170425
H186	H	1.356184	0.562600	0.420425
H187	H	1.606184	0.812600	0.670425
H188	H	1.856184	1.062600	0.920425
H189	H	1.103919	0.313771	-0.170415
H190	H	1.353919	0.563771	0.079585
H191	H	1.603919	0.813771	0.329585
H192	H	1.853919	1.063771	0.579585
F193	F	0.934333	0.446187	0.090424
F194	F	1.184333	0.696187	0.340424
F195	F	1.434333	0.946187	0.590424
F196	F	1.684333	1.196187	0.840424
H197	H	1.214640	0.469554	-0.097500
H198	H	1.464640	0.719554	0.152500
H199	H	1.714640	0.969554	0.402500
H200	H	1.964640	1.219554	0.652500
