data_functionalizedCrystal
_audit_creation_method	'MofGen! by Chris Wilmer'
_symmetry_space_group_name_H-M	'P1'
_symmetry_Int_Tables_number	1
_symmetry_cell_setting	triclinic
loop_
_symmetry_equiv_pos_as_xyz
  x,y,z
_cell_length_a	6.817900
_cell_length_b	9.582860
_cell_length_c	13.561464
_cell_angle_alpha	106.627866
_cell_angle_beta	104.692446
_cell_angle_gamma	111.206767
loop_
_atom_site_label
_atom_site_type_symbol
_atom_site_fract_x
_atom_site_fract_y
_atom_site_fract_z
V1	V	-4.166751	-0.349992	-0.345902
O2	O	-4.110561	-0.130352	-0.339527
O3	O	-4.156781	-0.552432	-0.343335
O4	O	-4.161398	-0.409185	-0.496853
O5	O	-4.105912	-0.274591	-0.184945
V6	V	-4.639822	-0.316091	-0.326675
O7	O	-4.450938	-0.424358	-0.388078
O8	O	-4.805833	-0.241725	-0.284498
O9	O	-4.426586	-0.113650	-0.329242
O10	O	-4.813409	-0.535730	-0.333050
O11	O	-4.818059	-0.391491	-0.487631
O12	O	-4.421969	-0.256898	-0.175723
C13	C	-4.009737	-0.599765	-0.337826
C14	C	-4.083159	-0.765678	-0.336733
C15	C	-4.015626	-0.417036	-0.533653
C16	C	-4.092786	-0.466772	-0.657055
C17	C	-4.025650	-0.032411	-0.941766
C18	C	-3.953086	0.014231	-0.825830
C19	C	-3.988006	-0.106016	-0.783631
C20	C	-4.095501	-0.272912	-0.857379
C21	C	-4.168089	-0.319560	-0.973326
C22	C	-4.130444	-0.393165	-0.815191
C23	C	-4.237940	-0.560061	-0.888939
C24	C	-4.310517	-0.606701	-1.004875
C25	C	-4.275597	-0.486454	-1.047074
C26	C	-4.057856	-0.346517	-0.699243
C27	C	-4.200295	-0.633666	-0.730803
C28	C	-4.272859	-0.680308	-0.846739
C29	C	-4.236972	-0.066324	-0.334747
C30	C	-4.142792	0.099584	-0.335847
C31	C	-4.231083	-0.249049	-0.138918
C32	C	-4.133159	-0.199305	-0.015514
H33	H	-3.970337	-0.210629	-0.639208
F34	F	-4.237475	-0.761651	-0.685898
F35	F	-4.424953	-0.784329	-1.083361
F36	F	-3.838591	0.191852	-0.747348
F37	F	-3.910773	-0.056370	-0.660240
H38	H	-4.360391	-0.816198	-0.906801
H39	H	-3.997247	0.065475	-0.976138
H40	H	-4.334672	-0.524421	-1.141478
