data_functionalizedCrystal
_audit_creation_method	'MofGen! by Chris Wilmer'
_symmetry_space_group_name_H-M	'P1'
_symmetry_Int_Tables_number	1
_symmetry_cell_setting	triclinic
loop_
_symmetry_equiv_pos_as_xyz
  x,y,z
_cell_length_a	6.817900
_cell_length_b	10.943574
_cell_length_c	10.943881
_cell_angle_alpha	91.770401
_cell_angle_beta	108.843448
_cell_angle_gamma	108.837846
loop_
_atom_site_label
_atom_site_type_symbol
_atom_site_fract_x
_atom_site_fract_y
_atom_site_fract_z
V1	V	-4.115545	-0.178594	-0.402525
O2	O	-4.073257	0.008620	-0.394891
O3	O	-4.093492	-0.354157	-0.399745
O4	O	-4.093531	-0.175830	-0.578092
O5	O	-4.073217	-0.170942	-0.215308
V6	V	-4.592340	-0.156203	-0.380136
O7	O	-4.391562	-0.227710	-0.451638
O8	O	-4.766521	-0.107086	-0.331023
O9	O	-4.391187	0.019361	-0.382916
O10	O	-4.752026	-0.343416	-0.387770
O11	O	-4.752065	-0.163854	-0.567352
O12	O	-4.391148	-0.158966	-0.204568
C13	C	-3.944048	-0.396957	-0.393388
C14	C	-4.007480	-0.540482	-0.392285
C15	C	-3.890309	-0.703486	-0.384277
C16	C	-4.003701	-0.637677	-0.495235
C17	C	-3.893221	-0.604391	-0.281390
C18	C	-4.234057	-0.730417	-0.501413
C19	C	-4.123503	-0.697122	-0.287470
C20	C	-4.237066	-0.631361	-0.398459
C21	C	-3.944097	-0.169480	-0.620886
C22	C	-4.007556	-0.168382	-0.764413
C23	C	-4.236999	-0.174463	-0.855295
C24	C	-4.123546	-0.063483	-0.921049
C25	C	-4.234020	-0.277327	-0.954386
C26	C	-3.893221	-0.057330	-0.828263
C27	C	-4.003769	-0.271270	-0.861608
C28	C	-3.890145	-0.160260	-0.927314
C29	C	-4.203973	0.062154	-0.389269
C30	C	-4.119782	0.205678	-0.390381
C31	C	-4.203924	-0.165320	-0.161768
C32	C	-4.119702	-0.166411	-0.018239
H33	H	-3.748477	-0.549680	-0.188433
H34	H	-3.744437	-0.735397	-0.378405
Cl35	Cl	-3.924768	-0.406938	-0.820580
Cl36	Cl	-4.457333	-0.814624	-0.645108
Cl37	Cl	-3.924597	-0.596691	-0.630876
Cl38	Cl	-4.462758	-0.582487	-0.407782
Cl39	Cl	-3.669971	0.086349	-0.743993
Cl40	Cl	-4.462265	-0.183545	-0.806085
H41	H	-4.174681	-0.723694	-0.199609
Cl42	Cl	-4.202619	0.072180	-0.962021
H43	H	-3.743912	-0.154213	-0.958914
Cl44	Cl	-4.457446	-0.420845	-1.038892
