data_functionalizedCrystal
_audit_creation_method	'MofGen! by Chris Wilmer'
_symmetry_space_group_name_H-M	'P1'
_symmetry_Int_Tables_number	1
_symmetry_cell_setting	triclinic
loop_
_symmetry_equiv_pos_as_xyz
  x,y,z
_cell_length_a	19.121102
_cell_length_b	29.839131
_cell_length_c	19.121175
_cell_angle_alpha	92.404073
_cell_angle_beta	85.212968
_cell_angle_gamma	87.589066
loop_
_atom_site_label
_atom_site_type_symbol
_atom_site_fract_x
_atom_site_fract_y
_atom_site_fract_z
Zn1	Zn	1.092558	-0.220826	-0.443606
Zn2	Zn	1.087438	-0.292604	-0.325918
Zn3	Zn	0.969885	-0.214140	-0.320946
Zn4	Zn	0.974838	-0.292574	-0.438530
O5	O	1.031180	-0.255036	-0.382250
O6	O	1.190342	-0.233159	-0.432200
O7	O	1.067629	-0.279409	-0.226796
O8	O	0.986228	-0.152163	-0.337260
O9	O	1.186580	-0.285893	-0.345735
O10	O	1.076355	-0.157075	-0.427378
O11	O	0.981263	-0.221762	-0.223143
O12	O	0.872079	-0.221734	-0.332338
O13	O	0.994670	-0.285843	-0.537666
O14	O	0.875719	-0.279359	-0.418727
O15	O	1.081158	-0.233130	-0.541395
O16	O	1.072432	-0.355464	-0.340813
O17	O	0.989705	-0.355442	-0.423549
C18	C	0.848369	-0.249818	-0.374443
C19	C	0.770162	-0.247597	-0.371120
C20	C	0.735330	-0.276597	-0.414466
C21	C	0.661847	-0.274504	-0.411347
C22	C	0.623196	-0.243413	-0.364877
C23	C	0.658033	-0.214410	-0.321529
C24	C	0.731515	-0.216501	-0.324653
C25	C	0.401232	-0.235595	-0.353204
C26	C	0.327744	-0.233507	-0.350082
C27	C	0.331563	-0.293601	-0.439901
C28	C	0.405047	-0.295691	-0.443017
C29	C	0.439877	-0.266686	-0.399672
C30	C	0.548084	-0.241274	-0.361686
C31	C	0.514988	-0.268823	-0.402867
C32	C	1.031070	-0.371754	-0.382186
C33	C	1.031089	-0.421689	-0.382185
C34	C	1.078102	-0.733861	-0.429238
C35	C	1.078181	-0.921537	-0.429284
O36	O	1.118046	-0.947948	-0.469241
N37	N	1.031303	-0.942484	-0.382333
C38	C	0.984399	-0.916508	-0.335371
O39	O	0.944524	-0.938630	-0.295443
C40	C	0.984318	-0.728832	-0.335330
C41	C	1.031204	-0.707889	-0.382278
C42	C	1.124984	-0.712917	-0.476184
C43	C	1.124966	-0.666001	-0.476169
C44	C	1.078067	-0.640028	-0.429209
C45	C	1.031186	-0.660972	-0.382264
C46	C	0.937412	-0.702857	-0.288371
C47	C	0.937394	-0.655936	-0.288366
C48	C	0.984280	-0.634992	-0.335315
C49	C	0.984270	-0.588084	-0.335290
N50	N	1.031148	-0.567137	-0.382240
C51	C	1.078047	-0.593110	-0.429200
C52	C	0.984446	-1.015040	-0.335395
C53	C	0.984467	-1.061959	-0.335405
C54	C	1.078248	-1.066985	-0.429318
C55	C	1.078229	-1.020066	-0.429305
C56	C	1.031324	-0.994094	-0.382346
C57	C	1.078007	-0.494582	-0.429166
C58	C	1.077987	-0.447661	-0.429145
C59	C	0.984204	-0.442639	-0.335234
C60	C	0.984226	-0.489555	-0.335252
C61	C	1.031130	-0.515526	-0.382224
O62	O	0.944420	-0.561645	-0.295358
O63	O	1.117905	-0.570979	-0.469133
C64	C	1.078120	-0.780777	-0.429253
C65	C	1.031239	-0.801721	-0.382307
C66	C	0.984340	-0.775749	-0.335347
C67	C	1.031260	-0.848640	-0.382317
C68	C	1.078158	-0.874612	-0.429277
C69	C	1.125036	-0.853666	-0.476227
C70	C	1.125018	-0.806750	-0.476213
C71	C	0.937462	-0.796695	-0.288397
C72	C	0.937484	-0.843612	-0.288415
C73	C	0.984383	-0.869584	-0.335374
C74	C	1.214705	-0.260275	-0.390088
C75	C	1.292913	-0.262507	-0.393428
C76	C	1.039038	-0.260229	-0.565775
C77	C	1.042386	-0.262442	-0.643982
C78	C	1.031310	-0.137863	-0.382330
C79	C	1.031366	-0.087931	-0.382365
C80	C	0.998995	-0.233468	-0.678821
C81	C	1.002138	-0.235551	-0.752305
C82	C	1.048677	-0.266606	-0.790948
C83	C	1.092070	-0.295582	-0.756104
C84	C	1.088922	-0.293501	-0.682621
C85	C	1.060427	-0.274392	-1.012913
C86	C	1.063573	-0.276470	-1.086401
C87	C	0.973640	-0.216439	-1.082597
C88	C	0.970499	-0.214359	-1.009113
C89	C	1.013890	-0.243338	-0.974275
C90	C	1.051893	-0.268734	-0.866061
C91	C	1.010670	-0.241211	-0.899164
C92	C	1.023394	-0.249832	-0.199441
C93	C	1.020182	-0.247497	-0.121240
H94	H	0.766794	-0.301916	-0.452304
F95	F	0.768585	-0.185634	-0.278519
H96	H	0.899305	-0.860660	-0.250177
H97	H	1.163225	-0.874821	-0.514461
H98	H	0.966802	-0.211959	-0.780668
F99	F	0.949465	-0.200413	-0.637700
H100	H	1.163197	-0.789701	-0.514443
H101	H	0.633490	-0.298120	-0.446643
H102	H	1.116435	-1.088140	-0.467554
H103	H	0.303196	-0.317215	-0.475191
H104	H	0.296277	-0.208184	-0.312246
H105	H	1.089784	-0.294019	-0.897532
H106	H	0.932601	-0.189073	-0.977655
H107	H	0.938313	-0.192848	-1.110970
H108	H	0.436511	-0.321010	-0.480856
H109	H	0.899233	-0.719901	-0.250140
H110	H	1.101473	-0.301759	-1.117863
F111	F	0.616896	-0.181317	-0.272077
F112	F	1.106611	-0.305231	-0.975846
F113	F	1.141596	-0.328635	-0.797233
H114	H	1.124261	-0.317091	-0.654256
F115	F	0.556124	-0.301911	-0.452322
F116	F	0.887540	-0.769059	-0.238416
H117	H	0.516607	-0.215961	-0.323849
H118	H	1.116170	-0.430611	-0.467376
F119	F	1.174865	-0.643717	-0.526143
H120	H	0.429582	-0.211980	-0.317904
F121	F	0.961142	-0.208161	-0.858036
H122	H	1.116196	-0.515722	-0.467419
H123	H	0.946295	-1.079007	-0.297167
H124	H	1.116407	-1.003016	-0.467535
F125	F	1.174901	-0.740552	-0.526172
H126	H	0.946249	-0.993897	-0.297154
H127	H	0.899196	-0.634791	-0.250127
H128	H	0.946054	-0.506609	-0.297017
F129	F	0.934295	-0.414989	-0.285258
