data_functionalizedCrystal
_audit_creation_method	'MofGen! by Chris Wilmer'
_symmetry_space_group_name_H-M	'P1'
_symmetry_Int_Tables_number	1
_symmetry_cell_setting	triclinic
loop_
_symmetry_equiv_pos_as_xyz
  x,y,z
_cell_length_a	18.101398
_cell_length_b	25.639239
_cell_length_c	18.101389
_cell_angle_alpha	89.979551
_cell_angle_beta	89.975673
_cell_angle_gamma	90.033952
loop_
_atom_site_label
_atom_site_type_symbol
_atom_site_fract_x
_atom_site_fract_y
_atom_site_fract_z
Zn1	Zn	1.132082	-0.208272	-0.418828
Zn2	Zn	1.632082	0.291728	0.081172
Zn3	Zn	1.131961	-0.295693	-0.294982
Zn4	Zn	1.631961	0.204307	0.205018
Zn5	Zn	1.008241	-0.208266	-0.294989
Zn6	Zn	1.508241	0.291734	0.205011
Zn7	Zn	1.008175	-0.295671	-0.418771
Zn8	Zn	1.508175	0.204329	0.081229
O9	O	1.070115	-0.251975	-0.356893
O10	O	1.570115	0.248025	0.143107
O11	O	1.235699	-0.219880	-0.402421
O12	O	1.735699	0.280120	0.097579
O13	O	1.115527	-0.284103	-0.191350
O14	O	1.615527	0.215897	0.308650
O15	O	1.024747	-0.135102	-0.311444
O16	O	1.524747	0.364898	0.188556
O17	O	1.235610	-0.284108	-0.311432
O18	O	1.735610	0.215892	0.188568
O19	O	1.115732	-0.135106	-0.402428
O20	O	1.615732	0.364894	0.097572
O21	O	1.024630	-0.219871	-0.191356
O22	O	1.524630	0.280129	0.308644
O23	O	0.904599	-0.219849	-0.311388
O24	O	1.404599	0.280151	0.188612
O25	O	1.024635	-0.284070	-0.522411
O26	O	1.524635	0.215930	-0.022411
O27	O	0.904551	-0.284065	-0.402330
O28	O	1.404551	0.215935	0.097670
O29	O	1.115668	-0.219858	-0.522454
O30	O	1.615668	0.280142	-0.022454
O31	O	1.115463	-0.368855	-0.311376
O32	O	1.615463	0.131145	0.188624
O33	O	1.024518	-0.368839	-0.402323
O34	O	1.524518	0.131161	0.097677
C35	C	0.877704	-0.251954	-0.356854
C36	C	1.377704	0.248046	0.143146
C37	C	0.795390	-0.251958	-0.356855
C38	C	1.295390	0.248042	0.143145
C39	C	0.496299	-0.251990	-0.356917
C40	C	0.996299	0.248010	0.143083
C41	C	0.527630	-0.211386	-0.299978
C42	C	1.027630	0.288614	0.200022
C43	C	0.613248	-0.211495	-0.299735
C44	C	1.113248	0.288505	0.200265
C45	C	0.644682	-0.251974	-0.356886
C46	C	1.144682	0.248026	0.143114
C47	C	0.613553	-0.307048	-0.335559
C48	C	1.113553	0.192952	0.164441
C49	C	0.527908	-0.306822	-0.335163
C50	C	1.027908	0.193178	0.164837
C51	C	0.527917	-0.238000	-0.435317
C52	C	1.027917	0.262000	0.064683
C53	C	0.613568	-0.236773	-0.434890
C54	C	1.113568	0.263227	0.065110
C55	C	0.728541	-0.251968	-0.356870
C56	C	1.228541	0.248032	0.143130
C57	C	0.412440	-0.252000	-0.356932
C58	C	0.912440	0.248000	0.143068
C59	C	1.069990	-0.387818	-0.356859
C60	C	1.569990	0.112182	0.143141
C61	C	1.070005	-0.445932	-0.356869
C62	C	1.570005	0.054068	0.143131
C63	C	1.117594	-0.806291	-0.309617
C64	C	1.617594	-0.306291	0.190383
C65	C	1.117622	-0.860895	-0.309627
C66	C	1.617622	-0.360895	0.190373
O67	O	1.157955	-0.889129	-0.269415
O68	O	1.657955	-0.389129	0.230585
N69	N	1.070245	-0.888214	-0.356942
N70	N	1.570245	-0.388214	0.143058
C71	C	1.022841	-0.860926	-0.404255
C72	C	1.522841	-0.360926	0.095745
O73	O	0.982546	-0.889177	-0.444501
O74	O	1.482546	-0.389177	0.055499
C75	C	1.022817	-0.806323	-0.404248
C76	C	1.522817	-0.306323	0.095752
C77	C	1.070192	-0.779007	-0.356925
C78	C	1.570192	-0.279007	0.143075
C79	C	1.164965	-0.778975	-0.262299
C80	C	1.664965	-0.278975	0.237701
C81	C	1.164936	-0.724374	-0.262288
C82	C	1.664936	-0.224374	0.237712
C83	C	1.117534	-0.697090	-0.309596
C84	C	1.617534	-0.197090	0.190404
C85	C	1.070162	-0.724406	-0.356914
C86	C	1.570162	-0.224406	0.143086
C87	C	0.975417	-0.779036	-0.451564
C88	C	1.475417	-0.279036	0.048436
C89	C	0.975397	-0.724429	-0.451554
C90	C	1.475397	-0.224429	0.048446
C91	C	1.022773	-0.697113	-0.404231
C92	C	1.522773	-0.197113	0.095769
C93	C	1.022731	-0.642522	-0.404212
C94	C	1.522731	-0.142522	0.095788
N95	N	1.070108	-0.615202	-0.356897
N96	N	1.570108	-0.115202	0.143103
C97	C	1.117509	-0.642487	-0.309589
C98	C	1.617509	-0.142487	0.190411
C99	C	1.022897	-0.975597	-0.404266
C100	C	1.522897	-0.475597	0.095734
C101	C	1.022917	-1.030199	-0.404270
C102	C	1.522917	-0.530199	0.095730
C103	C	1.117699	-1.030164	-0.309643
C104	C	1.617699	-0.530164	0.190357
C105	C	1.117675	-0.975561	-0.309636
C106	C	1.617675	-0.475561	0.190364
C107	C	1.070274	-0.948278	-0.356952
C108	C	1.570274	-0.448278	0.143048
C109	C	1.117443	-0.527822	-0.309570
C110	C	1.617443	-0.027822	0.190430
C111	C	1.117406	-0.473216	-0.309561
C112	C	1.617406	0.026784	0.190439
C113	C	1.022627	-0.473256	-0.404190
C114	C	1.522627	0.026744	0.095810
C115	C	1.022661	-0.527856	-0.404197
C116	C	1.522661	-0.027856	0.095803
C117	C	1.070074	-0.555138	-0.356884
C118	C	1.570074	-0.055138	0.143116
O119	O	0.982421	-0.614254	-0.444405
O120	O	1.482421	-0.114254	0.055595
O121	O	1.157804	-0.614229	-0.269357
O122	O	1.657804	-0.114229	0.230643
C123	C	1.263277	-0.251997	-0.356932
C124	C	1.763277	0.248003	0.143068
C125	C	1.345591	-0.252006	-0.356949
C126	C	1.845591	0.247994	0.143051
C127	C	1.070158	-0.251962	-0.550055
C128	C	1.570158	0.248038	-0.050055
C129	C	1.070176	-0.251957	-0.632369
C130	C	1.570176	0.248043	-0.132369
C131	C	1.070260	-0.115602	-0.356943
C132	C	1.570260	0.384398	0.143057
C133	C	1.070322	-0.057488	-0.356964
C134	C	1.570322	0.442512	0.143036
C135	C	1.070219	-0.251859	-0.931460
C136	C	1.570219	0.248141	-0.431460
C137	C	1.012746	-0.292130	-0.900108
C138	C	1.512746	0.207870	-0.400108
C139	C	1.012901	-0.292317	-0.814490
C140	C	1.512901	0.207683	-0.314490
C141	C	1.070197	-0.251907	-0.783077
C142	C	1.570197	0.248093	-0.283077
C143	C	1.148220	-0.266868	-0.814182
C144	C	1.648220	0.233132	-0.314182
C145	C	1.147899	-0.267132	-0.899827
C146	C	1.647899	0.232868	-0.399827
C147	C	1.050348	-0.196537	-0.899887
C148	C	1.550348	0.303463	-0.399887
C149	C	1.048612	-0.196856	-0.814236
C150	C	1.548612	0.303144	-0.314236
C151	C	1.070189	-0.251934	-0.699218
C152	C	1.570189	0.248066	-0.199218
C153	C	1.070232	-0.251833	-1.015320
C154	C	1.570232	0.248167	-0.515320
C155	C	1.070115	-0.251951	-0.164482
C156	C	1.570115	0.248049	0.335518
C157	C	1.070240	-0.251809	-0.082169
C158	C	1.570240	0.248191	0.417831
H159	H	0.506352	-0.198540	-0.454708
H160	H	1.006352	0.301460	0.045292
H161	H	1.087419	-0.165258	-0.792854
H162	H	1.587419	0.334742	-0.292854
H163	H	0.633919	-0.196245	-0.450971
H164	H	1.133919	0.303755	0.049029
H165	H	1.025734	-0.332886	-0.921632
H166	H	1.525734	0.167114	-0.421632
N167	N	0.501398	-0.322533	-0.259242
N168	N	1.001398	0.177467	0.240758
H169	H	0.470789	-0.293448	-0.237386
H170	H	0.970789	0.206552	0.262614
H171	H	0.470331	-0.355146	-0.263179
H172	H	0.970331	0.144854	0.236821
N173	N	0.501082	-0.277164	-0.491530
N174	N	1.001082	0.222836	0.008470
H175	H	0.518364	-0.313195	-0.477064
H176	H	1.018364	0.186805	0.022936
H177	H	0.445327	-0.276519	-0.493375
H178	H	0.945327	0.223481	0.006625
H179	H	0.936799	-0.702218	-0.490086
H180	H	1.436799	-0.202218	0.009914
H181	H	1.156299	-1.052389	-0.271125
H182	H	1.656299	-0.552389	0.228875
H183	H	1.156252	-0.953323	-0.271102
H184	H	1.656252	-0.453323	0.228898
H185	H	0.634966	-0.319119	-0.278864
H186	H	1.134966	0.180881	0.221136
H187	H	0.507180	-0.338099	-0.374826
H188	H	1.007180	0.161901	0.125174
N189	N	1.216044	-0.694915	-0.211258
N190	N	1.716044	-0.194915	0.288742
H191	H	1.246077	-0.720492	-0.181299
H192	H	1.746077	-0.220492	0.318701
H193	H	1.250286	-0.672232	-0.241443
H194	H	1.750286	-0.172232	0.258557
N195	N	1.206461	-0.229231	-0.787239
N196	N	1.706461	0.270769	-0.287239
H197	H	1.208424	-0.230088	-0.731491
H198	H	1.708424	0.269912	-0.231491
H199	H	1.256133	-0.239612	-0.807960
H200	H	1.756133	0.260388	-0.307960
H201	H	0.984031	-0.451032	-0.442706
H202	H	1.484031	0.048968	0.057294
N203	N	1.168576	-0.557236	-0.258530
N204	N	1.668576	-0.057236	0.241470
H205	H	1.138510	-0.579921	-0.224183
H206	H	1.638510	-0.079921	0.275817
H207	H	1.202889	-0.579828	-0.288704
H208	H	1.702889	-0.079828	0.211296
N209	N	0.641902	-0.273095	-0.494101
N210	N	1.141902	0.226905	0.005899
H211	H	0.670381	-0.252436	-0.532161
H212	H	1.170381	0.247564	-0.032161
H213	H	0.675427	-0.300031	-0.471037
H214	H	1.175427	0.199969	0.028963
N215	N	1.105794	-0.156789	-0.926742
N216	N	1.605794	0.343211	-0.426742
H217	H	1.143604	-0.174502	-0.959200
H218	H	1.643604	0.325498	-0.459200
H219	H	1.079461	-0.128886	-0.956007
H220	H	1.579461	0.371114	-0.456007
H221	H	0.634297	-0.170655	-0.313104
H222	H	1.134297	0.329345	0.186896
N223	N	0.640490	-0.348196	-0.388787
N224	N	1.140490	0.151804	0.111213
H225	H	0.673214	-0.331492	-0.427327
H226	H	1.173214	0.168508	0.072673
H227	H	0.669494	-0.375471	-0.360895
H228	H	1.169494	0.124529	0.139105
N229	N	0.971757	-0.946170	-0.455288
N230	N	1.471757	-0.446170	0.044712
H231	H	1.001814	-0.923484	-0.489640
H232	H	1.501814	-0.423484	0.010360
H233	H	0.941758	-0.971797	-0.485208
H234	H	1.441758	-0.471797	0.014792
N235	N	0.972561	-0.181906	-0.787299
N236	N	1.472561	0.318094	-0.287299
H237	H	0.958984	-0.146465	-0.807517
H238	H	1.458984	0.353535	-0.307517
H239	H	0.935443	-0.208599	-0.804805
H240	H	1.435443	0.291401	-0.304805
H241	H	1.165358	-0.306879	-0.792738
H242	H	1.665358	0.193121	-0.292738
N243	N	1.168507	-0.443754	-0.258520
N244	N	1.668507	0.056246	0.241480
H245	H	1.198542	-0.469327	-0.228557
H246	H	1.698542	0.030673	0.271443
H247	H	1.202749	-0.421066	-0.288698
H248	H	1.702749	0.078934	0.211302
N249	N	0.976297	-0.178479	-0.928476
N250	N	1.476297	0.321521	-0.428476
H251	H	0.954879	-0.205981	-0.962189
H252	H	1.454879	0.294019	-0.462189
H253	H	0.941716	-0.172505	-0.885508
H254	H	1.441716	0.327495	-0.385508
N255	N	0.924329	-0.808488	-0.502618
N256	N	1.424329	-0.308488	-0.002618
H257	H	0.931531	-0.847221	-0.495455
H258	H	1.431531	-0.347221	0.004545
H259	H	0.871439	-0.798981	-0.491044
H260	H	1.371439	-0.298981	0.008956
H261	H	0.984086	-0.550098	-0.442733
H262	H	1.484086	-0.050098	0.057267
H263	H	0.954715	-0.282864	-0.920695
H264	H	1.454715	0.217136	-0.420695
H265	H	0.984333	-1.052436	-0.442798
H266	H	1.484333	-0.552436	0.057202
N267	N	0.500385	-0.157122	-0.317477
N268	N	1.000385	0.342878	0.182523
H269	H	0.517122	-0.146878	-0.368703
H270	H	1.017122	0.353122	0.131297
H271	H	0.444646	-0.156498	-0.315125
H272	H	0.944646	0.343502	0.184875
N273	N	0.498817	-0.223349	-0.223529
N274	N	0.998817	0.276651	0.276471
H275	H	0.465588	-0.254973	-0.225611
H276	H	0.965588	0.245027	0.274389
H277	H	0.541659	-0.230538	-0.189289
H278	H	1.041659	0.269462	0.310711
N279	N	1.216097	-0.808397	-0.211271
N280	N	1.716097	-0.308397	0.288729
H281	H	1.246098	-0.782799	-0.181299
H282	H	1.746098	-0.282799	0.318701
H283	H	1.185983	-0.831081	-0.176968
H284	H	1.685983	-0.331081	0.323032
N285	N	0.936273	-0.279893	-0.786623
N286	N	1.436273	0.220107	-0.286623
H287	H	0.902088	-0.274248	-0.829974
H288	H	1.402088	0.225752	-0.329974
H289	H	0.917497	-0.309899	-0.755694
H290	H	1.417497	0.190101	-0.255694
N291	N	0.640345	-0.223755	-0.222789
N292	N	1.140345	0.276245	0.277211
H293	H	0.696139	-0.223876	-0.222311
H294	H	1.196139	0.276124	0.277689
H295	H	0.621548	-0.196422	-0.187298
H296	H	1.121548	0.303578	0.312702
H297	H	1.026019	-0.333323	-0.794005
H298	H	1.526019	0.166677	-0.294005
N299	N	1.170214	-0.320699	-0.926303
N300	N	1.670214	0.179301	-0.426303
H301	H	1.180164	-0.343918	-0.882338
H302	H	1.680164	0.156082	-0.382338
H303	H	1.129013	-0.336128	-0.956921
H304	H	1.629013	0.163872	-0.456921
N305	N	1.206551	-0.229976	-0.927310
N306	N	1.706551	0.270024	-0.427310
H307	H	1.232501	-0.213499	-0.883787
H308	H	1.732501	0.286501	-0.383787
H309	H	1.243591	-0.249729	-0.958252
H310	H	1.743591	0.250271	-0.458252
