data_functionalizedCrystal
_audit_creation_method	'MofGen! by Chris Wilmer'
_symmetry_space_group_name_H-M	'P1'
_symmetry_Int_Tables_number	1
_symmetry_cell_setting	triclinic
loop_
_symmetry_equiv_pos_as_xyz
  x,y,z
_cell_length_a	12.827893
_cell_length_b	25.639239
_cell_length_c	12.827885
_cell_angle_alpha	89.964018
_cell_angle_beta	89.980728
_cell_angle_gamma	90.038657
loop_
_atom_site_label
_atom_site_type_symbol
_atom_site_fract_x
_atom_site_fract_y
_atom_site_fract_z
Zn1	Zn	1.597500	-0.208126	-0.590804
Zn2	Zn	1.597324	-0.295571	-0.416045
Zn3	Zn	1.422742	-0.208151	-0.416077
Zn4	Zn	1.422656	-0.295532	-0.590745
O5	O	1.510055	-0.251845	-0.503418
O6	O	1.743713	-0.219731	-0.567633
O7	O	1.574127	-0.284002	-0.269813
O8	O	1.446034	-0.134983	-0.439293
O9	O	1.743583	-0.283977	-0.439238
O10	O	1.574428	-0.134964	-0.567664
O11	O	1.445862	-0.219775	-0.269837
O12	O	1.276494	-0.219737	-0.439236
O13	O	1.445888	-0.283911	-0.736989
O14	O	1.276431	-0.283935	-0.567564
O15	O	1.574345	-0.219694	-0.737032
O16	O	1.574044	-0.368731	-0.439181
O17	O	1.445716	-0.368702	-0.567533
C18	C	1.238546	-0.251835	-0.503398
C19	C	1.122392	-0.251843	-0.503414
C20	C	1.070604	-0.283660	-0.566817
C21	C	0.950554	-0.283670	-0.566835
C22	C	1.509880	-0.387688	-0.503370
C23	C	1.509900	-0.445802	-0.503384
C24	C	1.577050	-0.806167	-0.436699
C25	C	1.577090	-0.860771	-0.436713
O26	O	1.634001	-0.889010	-0.379962
N27	N	1.510239	-0.888084	-0.503487
C28	C	1.443350	-0.860790	-0.570259
O29	O	1.386493	-0.889035	-0.627057
C30	C	1.443316	-0.806186	-0.570249
C31	C	1.510164	-0.778876	-0.503463
C32	C	1.643893	-0.778857	-0.369920
C33	C	1.643851	-0.724256	-0.369904
C34	C	1.576966	-0.696966	-0.436669
C35	C	1.510122	-0.724276	-0.503448
C36	C	1.376433	-0.778893	-0.637026
C37	C	1.376405	-0.724286	-0.637011
C38	C	1.443253	-0.696976	-0.570225
C39	C	1.443194	-0.642385	-0.570198
N40	N	1.510045	-0.615072	-0.503424
C41	C	1.576931	-0.642363	-0.436659
C42	C	1.443429	-0.975460	-0.570275
C43	C	1.443458	-1.030063	-0.570280
C44	C	1.577199	-1.030040	-0.436735
C45	C	1.577165	-0.975437	-0.436726
C46	C	1.510281	-0.948148	-0.503501
C47	C	1.576837	-0.527698	-0.436632
C48	C	1.576786	-0.473092	-0.436620
C49	C	1.443049	-0.473119	-0.570168
C50	C	1.443095	-0.527720	-0.570177
C51	C	1.509998	-0.555008	-0.503405
O52	O	1.386315	-0.614112	-0.626923
O53	O	1.633789	-0.614110	-0.379880
C54	C	1.782626	-0.251856	-0.503438
C55	C	1.898779	-0.251860	-0.503447
C56	C	1.510127	-0.251795	-0.775988
C57	C	1.510157	-0.251773	-0.892141
C58	C	1.510260	-0.115472	-0.503489
C59	C	1.510348	-0.057358	-0.503519
C60	C	1.573729	-0.219991	-0.943947
C61	C	1.573761	-0.219968	-1.063998
C62	C	1.510045	-0.251857	-0.231908
C63	C	1.510217	-0.251731	-0.115755
H64	H	1.077854	-0.224608	-0.449151
C65	C	1.647293	-0.183207	-1.124170
H66	H	1.687161	-0.163285	-1.076125
H67	H	1.607329	-0.160437	-1.166762
H68	H	1.692774	-0.203225	-1.166738
H69	H	1.455792	-0.278945	-1.071210
C70	C	1.436659	-0.288511	-0.952274
H71	H	1.396765	-0.308452	-0.904204
H72	H	1.476648	-0.311266	-0.994847
H73	H	1.391202	-0.268478	-0.994856
C74	C	1.650705	-0.945401	-0.363271
H75	H	1.690545	-0.969479	-0.323517
H76	H	1.610750	-0.924134	-0.317697
H77	H	1.696211	-0.924066	-0.403289
C78	C	1.717364	-0.694220	-0.296423
H79	H	1.707760	-0.657790	-0.305955
H80	H	1.787581	-0.703124	-0.311760
H81	H	1.702084	-0.703212	-0.226204
H82	H	1.115143	-0.310891	-0.621088
H83	H	1.388665	-0.549957	-0.624562
C84	C	1.647219	-0.183249	-0.883815
H85	H	1.687101	-0.163302	-0.931885
H86	H	1.692671	-0.203274	-0.841222
H87	H	1.607214	-0.160492	-0.841251
C88	C	0.890397	-0.320469	-0.640169
H89	H	0.817602	-0.315645	-0.630567
H90	H	0.908189	-0.355596	-0.624767
H91	H	0.908275	-0.312860	-0.710427
H92	H	1.631318	-0.549909	-0.382263
H93	H	1.631221	-0.450858	-0.382231
H94	H	1.698366	-0.801071	-0.315552
H95	H	1.631665	-1.052270	-0.382375
C96	C	0.958924	-0.215057	-0.430111
H97	H	0.910867	-0.195104	-0.390341
H98	H	1.001548	-0.192317	-0.470201
H99	H	1.001457	-0.235049	-0.384533
C100	C	1.369918	-1.060098	-0.643738
H101	H	1.330087	-1.036019	-0.683499
H102	H	1.324421	-1.081439	-0.603735
H103	H	1.409889	-1.081358	-0.689319
C104	C	1.369485	-0.443093	-0.643608
H105	H	1.379049	-0.406662	-0.634037
H106	H	1.299282	-0.452079	-0.628267
H107	H	1.384762	-0.452006	-0.713840
C108	C	1.302907	-0.808922	-0.710499
H109	H	1.263084	-0.784841	-0.750263
H110	H	1.257400	-0.830263	-0.670506
H111	H	1.342881	-0.830182	-0.756077
C112	C	1.369839	-0.945446	-0.643720
H113	H	1.330029	-0.969537	-0.683478
H114	H	1.409766	-0.924108	-0.689290
H115	H	1.324308	-0.924185	-0.603694
C116	C	1.302831	-0.694271	-0.710466
H117	H	1.263025	-0.718359	-0.750234
H118	H	1.342767	-0.672932	-0.756027
H119	H	1.257295	-0.673009	-0.670446
