data_functionalizedCrystal
_audit_creation_method	'MofGen! by Chris Wilmer'
_symmetry_space_group_name_H-M	'P1'
_symmetry_Int_Tables_number	1
_symmetry_cell_setting	triclinic
loop_
_symmetry_equiv_pos_as_xyz
  x,y,z
_cell_length_a	19.288864
_cell_length_b	14.519709
_cell_length_c	17.766277
_cell_angle_alpha	89.992699
_cell_angle_beta	89.976791
_cell_angle_gamma	83.408195
loop_
_atom_site_label
_atom_site_type_symbol
_atom_site_fract_x
_atom_site_fract_y
_atom_site_fract_z
O1	O	0.921767	0.115045	-0.062837
O2	O	1.421767	0.615045	0.437163
O3	O	0.719562	0.130564	-0.062786
O4	O	1.219562	0.630564	0.437214
O5	O	0.826026	-0.011468	-0.062806
O6	O	1.326026	0.488532	0.437194
O7	O	0.815304	0.257077	-0.062817
O8	O	1.315304	0.757077	0.437183
O9	O	0.826007	-0.011475	0.062382
O10	O	1.326007	0.488525	0.562382
O11	O	0.719544	0.130557	0.062402
O12	O	1.219544	0.630557	0.562402
O13	O	0.921748	0.115038	0.062351
O14	O	1.421748	0.615038	0.562351
Cu15	Cu	0.820644	0.122797	0.073808
Cu16	Cu	1.320644	0.622797	0.573808
Cu17	Cu	0.820666	0.122805	-0.074242
Cu18	Cu	1.320666	0.622805	0.425758
O19	O	0.815285	0.257070	0.062371
O20	O	1.315285	0.757070	0.562371
C21	C	0.693675	0.130061	-0.000185
C22	C	1.193675	0.630061	0.499815
C23	C	0.616566	0.128562	-0.000165
C24	C	1.116566	0.628562	0.499835
C25	C	0.572169	0.211900	-0.000181
C26	C	1.072169	0.711900	0.499819
C27	C	0.499717	0.210492	-0.000189
C28	C	0.999717	0.710492	0.499811
C29	C	0.471665	0.125741	-0.000197
C30	C	0.971665	0.625741	0.499803
C31	C	0.516071	0.042392	-0.000178
C32	C	1.016071	0.542392	0.499822
C33	C	0.588521	0.043803	-0.000162
C34	C	1.088521	0.543803	0.499838
C35	C	0.363169	0.059120	-0.044079
C36	C	0.863169	0.559120	0.455921
C37	C	0.290720	0.057713	-0.044099
C38	C	0.790720	0.557713	0.455901
C39	C	0.248203	0.121387	-0.000242
C40	C	0.748203	0.621387	0.499758
C41	C	0.278144	0.186483	0.043625
C42	C	0.778144	0.686483	0.543625
C43	C	0.350594	0.187894	0.043641
C44	C	0.850594	0.687894	0.543641
C45	C	0.393105	0.124202	-0.000214
C46	C	0.893105	0.624202	0.499786
C47	C	0.125246	0.203203	-0.000265
C48	C	0.625246	0.703203	0.499735
C49	C	0.052792	0.201792	-0.000269
C50	C	0.552792	0.701792	0.499731
C51	C	0.069148	0.033689	-0.000265
C52	C	0.569148	0.533689	0.499735
C53	C	0.141599	0.035103	-0.000254
C54	C	0.641599	0.535103	0.499746
C55	C	0.169644	0.119863	-0.000258
C56	C	0.669644	0.619863	0.499742
C57	C	0.825517	-0.045828	-0.000212
C58	C	1.325517	0.454172	0.499788
C59	C	0.824019	-0.148200	-0.000211
C60	C	1.324019	0.351800	0.499789
C61	C	0.818507	-0.523061	-0.000229
C62	C	1.318507	-0.023061	0.499771
C63	C	0.820037	-0.418762	-0.000224
C64	C	1.320037	0.081238	0.499776
C65	C	0.821263	-0.335633	-0.000219
C66	C	1.321263	0.164367	0.499781
C67	C	0.822794	-0.231329	-0.000215
C68	C	1.322794	0.268671	0.499785
C69	C	0.947636	0.115541	-0.000251
C70	C	1.447636	0.615541	0.499749
C71	C	1.024745	0.117040	-0.000276
C72	C	1.524745	0.617040	0.499724
C73	C	0.815794	0.291430	-0.000225
C74	C	1.315794	0.791430	0.499775
C75	C	0.817291	0.393802	-0.000230
C76	C	1.317291	0.893802	0.499770
N77	N	0.820634	0.122790	0.177938
N78	N	1.320634	0.622790	0.677938
N79	N	0.820682	0.122805	-0.178373
N80	N	1.320682	0.622805	0.321627
C81	C	0.867791	0.059929	0.217316
C82	C	1.367791	0.559929	0.717316
C83	C	0.867795	0.059925	0.296118
C84	C	1.367795	0.559925	0.796118
C85	C	0.820648	0.122798	0.335538
C86	C	1.320648	0.622798	0.835538
C87	C	0.773482	0.185664	0.296151
C88	C	1.273482	0.685664	0.796151
C89	C	0.773475	0.185660	0.217351
C90	C	1.273475	0.685660	0.717351
C91	C	0.811652	0.206826	0.460375
C92	C	1.311652	0.706826	0.960375
C93	C	0.811664	0.206831	0.539173
C94	C	1.311664	0.706831	1.039173
C95	C	0.820667	0.122809	0.578585
C96	C	1.320667	0.622809	1.078585
C97	C	0.829672	0.038778	0.539188
C98	C	1.329672	0.538778	1.039188
C99	C	0.829665	0.038775	0.460387
C100	C	1.329665	0.538775	0.960387
C101	C	0.820651	0.122808	0.420984
C102	C	1.320651	0.622808	0.920984
C103	C	0.867831	0.059938	0.703409
C104	C	1.367831	0.559938	1.203409
C105	C	0.867830	0.059932	0.782212
C106	C	1.367830	0.559932	1.282212
C107	C	0.773521	0.185679	0.782244
C108	C	1.273521	0.685679	1.282244
C109	C	0.773518	0.185676	0.703442
C110	C	1.273518	0.685676	1.203442
C111	C	0.820677	0.122807	0.664029
C112	C	1.320677	0.622807	1.164029
H113	H	0.624670	-0.024063	-0.000150
H114	H	1.124670	0.475937	0.499850
H115	H	0.594998	0.280918	-0.000185
H116	H	1.094998	0.780918	0.499815
H117	H	0.735121	0.236867	0.671378
H118	H	1.235121	0.736867	1.171378
N119	N	0.722665	0.253488	0.824752
N120	N	1.222665	0.753488	1.324752
H121	H	0.673359	0.243024	0.811064
H122	H	1.173359	0.743024	1.311064
H123	H	0.729884	0.243913	0.880633
H124	H	1.229884	0.743913	1.380633
H125	H	0.804336	0.275253	0.571244
H126	H	1.304336	0.775253	1.071244
N127	N	0.382888	0.258087	0.090964
N128	N	0.882888	0.758087	0.590964
H129	H	0.435236	0.249313	0.084319
H130	H	0.935236	0.749313	0.584319
H131	H	0.363928	0.322701	0.074569
H132	H	0.863928	0.822701	0.574569
N133	N	0.258429	-0.012497	-0.091407
N134	N	0.758429	0.487503	0.408593
H135	H	0.225098	0.020782	-0.128926
H136	H	0.725098	0.520782	0.371074
H137	H	0.296398	-0.052609	-0.119130
H138	H	0.796398	0.447391	0.380870
N139	N	0.918659	-0.007872	0.338608
N140	N	1.418659	0.492128	0.838608
H141	H	0.910588	-0.073305	0.324913
H142	H	1.410588	0.426695	0.824913
H143	H	0.967942	0.002669	0.324852
H144	H	1.467942	0.502669	0.824852
N145	N	0.189483	-0.054788	-0.000241
N146	N	0.689483	0.445212	0.499759
H147	H	0.180475	-0.091776	-0.046649
H148	H	0.680475	0.408224	0.453351
H149	H	0.239618	-0.040964	-0.000200
H150	H	0.739618	0.459036	0.499800
N151	N	0.801942	0.297455	0.417870
N152	N	1.301942	0.797455	0.917870
H153	H	0.796247	0.350686	0.454782
H154	H	1.296247	0.850686	0.954782
H155	H	0.844142	0.302691	0.385153
H156	H	1.344142	0.802691	0.885153
H157	H	0.735073	0.236850	0.185288
H158	H	1.235073	0.736850	0.685288
N159	N	0.409024	-0.009564	-0.091382
N160	N	0.909024	0.490436	0.408618
H161	H	0.379065	-0.051009	-0.119178
H162	H	0.879065	0.448991	0.380822
H163	H	0.435803	0.024961	-0.128838
H164	H	0.935803	0.524961	0.371162
N165	N	0.038904	-0.057725	-0.000276
N166	N	0.538904	0.442275	0.499724
H167	H	0.055063	-0.094225	0.046136
H168	H	0.555063	0.405775	0.546136
H169	H	-0.013725	-0.045899	-0.000315
H170	H	0.486275	0.454101	0.499685
N171	N	0.839375	-0.051849	0.417893
N172	N	1.339375	0.448151	0.917893
H173	H	0.845080	-0.105080	0.454812
H174	H	1.345080	0.394920	0.954812
H175	H	0.797171	-0.057090	0.385223
H176	H	1.297171	0.442910	0.885223
H177	H	0.463563	0.278358	-0.000199
H178	H	0.963563	0.778358	0.499801
H179	H	0.735093	0.236854	0.328251
H180	H	1.235093	0.736854	0.828251
H181	H	0.906189	0.008735	0.185228
H182	H	1.406189	0.508735	0.685228
H183	H	0.837003	-0.029641	0.571275
H184	H	1.337003	0.470359	1.071275
H185	H	0.493226	-0.026613	-0.000195
H186	H	0.993226	0.473387	0.499805
H187	H	0.148080	0.272220	-0.000257
H188	H	0.648080	0.772220	0.499743
N189	N	0.232298	0.255172	0.090928
N190	N	0.732298	0.755172	0.590928
H191	H	0.181858	0.244401	0.084266
H192	H	0.681858	0.744401	0.584266
H193	H	0.245773	0.246796	0.145637
H194	H	0.745773	0.746796	0.645637
N195	N	0.918690	-0.007869	0.660892
N196	N	1.418690	0.492131	1.160892
H197	H	0.948562	-0.047699	0.697799
H198	H	1.448562	0.452301	1.197799
H199	H	0.892049	-0.048550	0.628214
H200	H	1.392049	0.451450	1.128214
H201	H	0.016645	0.269658	-0.000277
H202	H	0.516645	0.769658	0.499723
N203	N	0.918707	-0.007856	0.824688
N204	N	1.418707	0.492144	1.324688
H205	H	0.948585	-0.047673	0.787760
H206	H	1.448585	0.452327	1.287760
H207	H	0.949446	0.027375	0.857354
H208	H	1.449446	0.527375	1.357354
