data_functionalizedCrystal
_audit_creation_method	'MofGen! by Chris Wilmer'
_symmetry_space_group_name_H-M	'P1'
_symmetry_Int_Tables_number	1
_symmetry_cell_setting	triclinic
loop_
_symmetry_equiv_pos_as_xyz
  x,y,z
_cell_length_a	19.805407
_cell_length_b	19.805405
_cell_length_c	19.805399
_cell_angle_alpha	90.029301
_cell_angle_beta	90.019573
_cell_angle_gamma	90.026410
loop_
_atom_site_label
_atom_site_type_symbol
_atom_site_fract_x
_atom_site_fract_y
_atom_site_fract_z
Zn1	Zn	-1.034736	0.269479	-0.382712
Zn2	Zn	-0.701402	0.602812	-0.049378
Zn3	Zn	-0.368069	0.936146	0.283955
Zn4	Zn	-1.034651	0.382667	-0.269520
Zn5	Zn	-0.701317	0.716001	0.063813
Zn6	Zn	-0.367984	1.049334	0.397147
Zn7	Zn	-0.921550	0.269498	-0.269536
Zn8	Zn	-0.588217	0.602831	0.063797
Zn9	Zn	-0.254884	0.936164	0.397131
Zn10	Zn	-0.921514	0.382631	-0.382667
Zn11	Zn	-0.588180	0.715965	-0.049333
Zn12	Zn	-0.254847	1.049298	0.284000
O13	O	-0.978113	0.326069	-0.326109
O14	O	-0.644779	0.659402	0.007225
O15	O	-0.311446	0.992735	0.340558
O16	O	-1.129441	0.284501	-0.367708
O17	O	-0.796108	0.617834	-0.034375
O18	O	-0.462774	0.951167	0.298958
O19	O	-1.019627	0.367678	-0.174805
O20	O	-0.686294	0.701011	0.158528
O21	O	-0.352960	1.034345	0.491861
O22	O	-0.936616	0.174778	-0.284575
O23	O	-0.603282	0.508112	0.048759
O24	O	-0.269949	0.841445	0.382092
O25	O	-1.129378	0.367660	-0.284547
O26	O	-0.796045	0.700993	0.048786
O27	O	-0.462712	1.034326	0.382120
O28	O	-1.019772	0.174765	-0.367724
O29	O	-0.686439	0.508098	-0.034391
O30	O	-0.353106	0.841431	0.298942
O31	O	-0.936533	0.284533	-0.174817
O32	O	-0.603200	0.617866	0.158516
O33	O	-0.269866	0.951199	0.491849
O34	O	-0.826829	0.284498	-0.284531
O35	O	-0.493496	0.617831	0.048802
O36	O	-0.160162	0.951164	0.382136
O37	O	-0.936553	0.367598	-0.477389
O38	O	-0.603220	0.700932	-0.144056
O39	O	-0.269887	1.034265	0.189277
O40	O	-0.826802	0.367617	-0.367648
O41	O	-0.493469	0.700950	-0.034314
O42	O	-0.160135	1.034283	0.299019
O43	O	-1.019737	0.284466	-0.477422
O44	O	-0.686404	0.617799	-0.144089
O45	O	-0.353070	0.951133	0.189244
O46	O	-1.019592	0.477379	-0.284503
O47	O	-0.686258	0.810712	0.048830
O48	O	-0.352925	1.144046	0.382163
O49	O	-0.936471	0.477353	-0.367632
O50	O	-0.603137	0.810686	-0.034299
O51	O	-0.269804	1.144019	0.299035
C52	C	-0.802257	0.326056	-0.326087
C53	C	-0.468923	0.659389	0.007247
C54	C	-0.135590	0.992722	0.340580
C55	C	-0.727025	0.326067	-0.326093
C56	C	-0.393691	0.659400	0.007240
C57	C	-0.060358	0.992733	0.340573
C58	C	-0.978036	0.501925	-0.326076
C59	C	-0.644703	0.835258	0.007258
C60	C	-0.311370	1.168591	0.340591
C61	C	-0.978066	0.577157	-0.326084
C62	C	-0.644732	0.910490	0.007249
C63	C	-0.311399	1.243823	0.340582
C64	C	-0.978151	0.326026	-0.502651
C65	C	-0.644817	0.659359	-0.169318
C66	C	-0.311484	0.992693	0.164015
C67	C	-0.978167	0.326008	-0.577883
C68	C	-0.644833	0.659341	-0.244550
C69	C	-0.311500	0.992675	0.088783
C70	C	-1.154655	0.326082	-0.326131
C71	C	-0.821322	0.659416	0.007202
C72	C	-0.487989	0.992749	0.340536
C73	C	-1.229887	0.326088	-0.326140
C74	C	-0.896554	0.659421	0.007193
C75	C	-0.563221	0.992755	0.340526
C76	C	-0.691684	0.369412	-0.369302
C77	C	-0.358351	0.702745	-0.035969
C78	C	-0.025018	1.036078	0.297365
C79	C	-0.620996	0.369413	-0.369312
C80	C	-0.287662	0.702746	-0.035978
C81	C	0.045671	1.036080	0.297355
C82	C	-0.585649	0.326072	-0.326109
C83	C	-0.252316	0.659405	0.007225
C84	C	0.081018	0.992738	0.340558
C85	C	-0.620994	0.282722	-0.282898
C86	C	-0.287661	0.616055	0.050435
C87	C	0.045672	0.949389	0.383769
C88	C	-0.691681	0.282718	-0.282892
C89	C	-0.358348	0.616051	0.050441
C90	C	-0.025015	0.949384	0.383774
C91	C	-0.335921	0.282737	-0.282920
C92	C	-0.002588	0.616070	0.050413
C93	C	0.330746	0.949404	0.383746
C94	C	-0.265229	0.282746	-0.282928
C95	C	0.068104	0.616079	0.050406
C96	C	0.401438	0.949412	0.383739
C97	C	-0.265235	0.369432	-0.369340
C98	C	0.068098	0.702765	-0.036006
C99	C	0.401431	1.036099	0.297327
C100	C	-0.335922	0.369428	-0.369334
C101	C	-0.002589	0.702761	-0.036001
C102	C	0.330744	1.036094	0.297333
C103	C	-0.371262	0.326076	-0.326126
C104	C	-0.037928	0.659409	0.007207
C105	C	0.295405	0.992742	0.340540
C106	C	-0.447910	0.326074	-0.326117
C107	C	-0.114577	0.659407	0.007216
C108	C	0.218757	0.992741	0.340549
C109	C	-0.509002	0.326076	-0.326114
C110	C	-0.175669	0.659410	0.007220
C111	C	0.157665	0.992743	0.340553
C112	C	-0.978207	0.149526	-0.326156
C113	C	-0.644874	0.482859	0.007177
C114	C	-0.311541	0.816193	0.340510
C115	C	-0.978248	0.074294	-0.326177
C116	C	-0.644915	0.407627	0.007157
C117	C	-0.311581	0.740961	0.340490
C118	C	-1.021389	0.612492	-0.282845
C119	C	-0.688056	0.945826	0.050489
C120	C	-0.354722	1.279159	0.383822
C121	C	-1.021418	0.683181	-0.282860
C122	C	-0.688084	1.016514	0.050474
C123	C	-0.354751	1.349847	0.383807
C124	C	-0.978119	0.718532	-0.326111
C125	C	-0.644786	1.051866	0.007222
C126	C	-0.311453	1.385199	0.340555
C127	C	-0.934794	0.683192	-0.369356
C128	C	-0.601461	1.016525	-0.036023
C129	C	-0.268128	1.349859	0.297311
C130	C	-0.934769	0.612505	-0.369344
C131	C	-0.601436	0.945838	-0.036010
C132	C	-0.268103	1.279171	0.297323
C133	C	-0.934894	0.968265	-0.369406
C134	C	-0.601561	1.301598	-0.036073
C135	C	-0.268227	1.634932	0.297261
C136	C	-0.934921	1.038957	-0.369413
C137	C	-0.601588	1.372291	-0.036080
C138	C	-0.268254	1.705624	0.297253
C139	C	-1.021542	1.038941	-0.282922
C140	C	-0.688209	1.372274	0.050411
C141	C	-0.354876	1.705608	0.383745
C142	C	-1.021517	0.968254	-0.282910
C143	C	-0.688184	1.301587	0.050423
C144	C	-0.354851	1.634921	0.383757
C145	C	-0.978195	0.932920	-0.326157
C146	C	-0.644862	1.266253	0.007177
C147	C	-0.311529	1.599586	0.340510
C148	C	-0.978166	0.856271	-0.326141
C149	C	-0.644832	1.189605	0.007193
C150	C	-0.311499	1.522938	0.340526
C151	C	-0.978145	0.795179	-0.326124
C152	C	-0.644812	1.128513	0.007209
C153	C	-0.311478	1.461846	0.340542
C154	C	-1.021481	0.282719	-0.613246
C155	C	-0.688148	0.616052	-0.279912
C156	C	-0.354815	0.949385	0.053421
C157	C	-1.021488	0.282699	-0.683934
C158	C	-0.688155	0.616032	-0.350601
C159	C	-0.354822	0.949366	-0.017268
C160	C	-0.978184	0.325973	-0.719259
C161	C	-0.644850	0.659306	-0.385926
C162	C	-0.311517	0.992639	-0.052592
C163	C	-0.934864	0.369264	-0.683892
C164	C	-0.601531	0.702597	-0.350558
C165	C	-0.268197	1.035930	-0.017225
C166	C	-0.934854	0.369279	-0.613204
C167	C	-0.601521	0.702613	-0.279871
C168	C	-0.268188	1.035946	0.053462
C169	C	-0.934902	0.369201	-0.968965
C170	C	-0.601569	0.702534	-0.635632
C171	C	-0.268236	1.035867	-0.302298
C172	C	-0.934917	0.369183	-1.039657
C173	C	-0.601584	0.702516	-0.706324
C174	C	-0.268250	1.035850	-0.372991
C175	C	-1.021536	0.282620	-1.039695
C176	C	-0.688203	0.615954	-0.706362
C177	C	-0.354870	0.949287	-0.373028
C178	C	-1.021527	0.282636	-0.969008
C179	C	-0.688193	0.615969	-0.635674
C180	C	-0.354860	0.949303	-0.302341
C181	C	-0.978205	0.325924	-0.933647
C182	C	-0.644872	0.659258	-0.600313
C183	C	-0.311538	0.992591	-0.266980
C184	C	-0.978197	0.325944	-0.856998
C185	C	-0.644864	0.659277	-0.523665
C186	C	-0.311530	0.992611	-0.190331
C187	C	-0.978194	0.325957	-0.795906
C188	C	-0.644861	0.659290	-0.462573
C189	C	-0.311528	0.992623	-0.129240
C190	C	-0.978114	0.326062	-0.150253
C191	C	-0.644780	0.659396	0.183081
C192	C	-0.311447	0.992729	0.516414
C193	C	-0.978229	0.325890	-0.075021
C194	C	-0.644895	0.659223	0.258312
C195	C	-0.311562	0.992557	0.591646
H196	H	-0.720458	0.404707	-0.404481
H197	H	-0.387125	0.738041	-0.071148
H198	H	-0.053792	1.071374	0.262186
H199	H	-0.899618	0.939502	-0.404618
H200	H	-0.566285	1.272835	-0.071284
H201	H	-0.232952	1.606168	0.262049
H202	H	-0.899663	1.067739	-0.404639
H203	H	-0.566330	1.401072	-0.071306
H204	H	-0.232996	1.734405	0.262028
C205	C	-0.582110	0.235044	-0.235376
C206	C	-0.248777	0.568378	0.097958
C207	C	0.084556	0.901711	0.431291
N208	N	-0.552824	0.199134	-0.199579
N209	N	-0.219490	0.532468	0.133754
N210	N	0.113843	0.865801	0.467087
C211	C	-0.582124	0.417109	-0.416832
C212	C	-0.248791	0.750442	-0.083498
C213	C	0.084542	1.083776	0.249835
N214	N	-0.552847	0.453040	-0.452622
N215	N	-0.219514	0.786373	-0.119288
N216	N	0.113820	1.119707	0.214045
C217	C	-0.374800	0.417107	-0.416860
C218	C	-0.041467	0.750441	-0.083526
C219	C	0.291867	1.083774	0.249807
N220	N	-0.404081	0.453019	-0.452659
N221	N	-0.070748	0.786352	-0.119326
N222	N	0.262585	1.119685	0.214008
C223	C	-0.887163	0.722081	-0.416931
C224	C	-0.553830	1.055415	-0.083598
C225	C	-0.220497	1.388748	0.249736
N226	N	-0.851284	0.751372	-0.452763
N227	N	-0.517950	1.084706	-0.119429
N228	N	-0.184617	1.418039	0.213904
H229	H	-1.056792	0.247400	-0.940250
H230	H	-0.723459	0.580734	-0.606916
H231	H	-0.390125	0.914067	-0.273583
C232	C	-0.887111	0.573636	-0.416911
C233	C	-0.553778	0.906970	-0.083578
C234	C	-0.220444	1.240303	0.249755
N235	N	-0.851215	0.544361	-0.452742
N236	N	-0.517881	0.877695	-0.119409
N237	N	-0.184548	1.211028	0.213924
H238	H	-0.364686	0.247442	-0.247733
H239	H	-0.031352	0.580775	0.085601
H240	H	0.301981	0.914109	0.418934
C241	C	-1.069120	0.235113	-0.574395
C242	C	-0.735787	0.568446	-0.241062
C243	C	-0.402454	0.901779	0.092272
N244	N	-1.105001	0.199252	-0.545135
N245	N	-0.771668	0.532585	-0.211801
N246	N	-0.438334	0.865919	0.121532
H247	H	-0.899637	0.404459	-0.940183
H248	H	-0.566304	0.737792	-0.606849
H249	H	-0.232970	1.071125	-0.273516
C250	C	-0.730556	0.235036	-0.235358
C251	C	-0.397222	0.568370	0.097975
C252	C	-0.063889	0.901703	0.431309
N253	N	-0.759835	0.199120	-0.199555
N254	N	-0.426501	0.532453	0.133779
N255	N	-0.093168	0.865786	0.467112
H256	H	-0.899650	0.404423	-1.068417
H257	H	-0.566317	0.737756	-0.735083
H258	H	-0.232983	1.071090	-0.401750
H259	H	-1.056809	0.247370	-1.068495
H260	H	-0.723475	0.580704	-0.735161
H261	H	-0.390142	0.914037	-0.401828
H262	H	-1.056644	0.583713	-0.247621
H263	H	-0.723311	0.917047	0.085712
H264	H	-0.389978	1.250380	0.419045
C265	C	-1.069072	0.722046	-0.235288
C266	C	-0.735739	1.055380	0.098045
C267	C	-0.402406	1.388713	0.431378
N268	N	-1.104967	0.751320	-0.199454
N269	N	-0.771634	1.084653	0.133879
N270	N	-0.438300	1.417986	0.467212
H271	H	-1.056773	0.939473	-0.247688
H272	H	-0.723439	1.272806	0.085645
H273	H	-0.390106	1.606139	0.418979
H274	H	-1.056820	1.067719	-0.247711
H275	H	-0.723487	1.401052	0.085622
H276	H	-0.390153	1.734385	0.418956
C277	C	-1.069139	0.235078	-0.722830
C278	C	-0.735806	0.568412	-0.389496
C279	C	-0.402473	0.901745	-0.056163
N280	N	-1.105032	0.199208	-0.752125
N281	N	-0.771699	0.532542	-0.418792
N282	N	-0.438365	0.865875	-0.085459
H283	H	-0.899602	0.404495	-0.712659
H284	H	-0.566269	0.737829	-0.379325
H285	H	-0.232935	1.071162	-0.045992
C286	C	-0.226349	0.235060	-0.235404
C287	C	0.106984	0.568393	0.097929
C288	C	0.440318	0.901726	0.431263
N289	N	-0.197065	0.199144	-0.199612
N290	N	0.136269	0.532477	0.133722
N291	N	0.469602	0.865810	0.467055
H292	H	-0.236454	0.404729	-0.404524
H293	H	0.096880	0.738062	-0.071191
H294	H	0.430213	1.071395	0.262143
C295	C	-0.887206	0.416902	-0.574306
C296	C	-0.553873	0.750236	-0.240973
C297	C	-0.220539	1.083569	0.092360
N298	N	-0.851314	0.452772	-0.545009
N299	N	-0.517981	0.786105	-0.211676
N300	N	-0.184648	1.119439	0.121658
