data_functionalizedCrystal
_audit_creation_method	'MofGen! by Chris Wilmer'
_symmetry_space_group_name_H-M	'P1'
_symmetry_Int_Tables_number	1
_symmetry_cell_setting	triclinic
loop_
_symmetry_equiv_pos_as_xyz
  x,y,z
_cell_length_a	6.817900
_cell_length_b	17.982959
_cell_length_c	10.992410
_cell_angle_alpha	94.193478
_cell_angle_beta	108.764651
_cell_angle_gamma	102.451857
loop_
_atom_site_label
_atom_site_type_symbol
_atom_site_fract_x
_atom_site_fract_y
_atom_site_fract_z
V1	V	-4.082291	-0.105413	-0.401130
O2	O	-4.073912	0.005065	-0.392942
O3	O	-4.028461	-0.209015	-0.398917
O4	O	-4.060375	-0.103791	-0.575834
O5	O	-4.041777	-0.100887	-0.214800
V6	V	-4.563191	-0.092198	-0.378779
O7	O	-4.349303	-0.134400	-0.450158
O8	O	-4.746375	-0.063211	-0.329750
O9	O	-4.393814	0.011405	-0.380991
O10	O	-4.688967	-0.202676	-0.386967
O11	O	-4.721101	-0.096723	-0.565108
O12	O	-4.361900	-0.093820	-0.204074
C13	C	-3.871284	-0.234271	-0.392726
C14	C	-3.908735	-0.318968	-0.392082
C15	C	-4.109221	-0.362639	-0.398207
C16	C	-4.144402	-0.442221	-0.397609
C17	C	-3.979090	-0.478130	-0.390877
C18	C	-3.778590	-0.434453	-0.384754
C19	C	-3.743416	-0.354873	-0.385362
C20	C	-3.920439	-0.755389	-0.382307
C21	C	-3.955627	-0.834974	-0.381696
C22	C	-4.321425	-0.842736	-0.394555
C23	C	-4.286251	-0.763157	-0.395162
C24	C	-4.085759	-0.719488	-0.389047
C25	C	-4.047615	-0.633196	-0.389698
C26	C	-4.017227	-0.564419	-0.390216
C27	C	-3.911992	-0.100046	-0.618399
C28	C	-3.975320	-0.099406	-0.761224
C29	C	-3.844212	-0.093573	-0.956318
C30	C	-3.778364	-0.094555	-0.807840
C31	C	-4.150562	-0.174528	-0.838711
C32	C	-4.215077	-0.173864	-0.987274
C33	C	-4.136942	-0.028401	-0.948502
C34	C	-4.066341	-0.028045	-0.799487
C35	C	-4.214332	0.036657	-0.387179
C36	C	-4.156121	0.121353	-0.387831
C37	C	-4.173624	-0.097567	-0.161502
C38	C	-4.089534	-0.098203	-0.018676
H39	H	-4.243836	-0.333408	-0.403678
H40	H	-3.821003	-0.864208	-0.376222
O41	O	-4.360638	-0.489319	-0.404198
H42	H	-4.484608	-0.484034	-0.495404
O43	O	-3.682195	-0.161909	-0.775294
H44	H	-3.802214	-0.216369	-0.828218
H45	H	-4.051322	0.028645	-0.968570
O46	O	-3.704194	-0.708295	-0.375697
H47	H	-3.722416	-0.679996	-0.463692
O48	O	-4.464565	-0.724428	-0.402460
H49	H	-4.609903	-0.768168	-0.406643
H50	H	-4.484681	-0.878302	-0.399536
H51	H	-3.643996	-0.463697	-0.379280
O52	O	-3.527180	-0.307764	-0.378759
H53	H	-3.403213	-0.313030	-0.287536
O54	O	-4.254898	-0.026861	-0.756378
H55	H	-4.383939	-0.080174	-0.803509
O56	O	-3.603379	-0.023015	-0.736805
H57	H	-3.565128	0.012595	-0.808438
O58	O	-4.347242	-0.182838	-0.800602
H59	H	-4.322112	-0.133398	-0.725847
O60	O	-4.372922	-0.032008	-1.002619
H61	H	-4.395200	0.020994	-1.045147
O62	O	-3.898903	0.045571	-0.729778
H63	H	-3.854316	0.046534	-0.623153
H64	H	-3.804069	-0.143726	-1.004566
O65	O	-3.710775	-0.021541	-0.980907
H66	H	-3.817871	0.011730	-1.037841
H67	H	-4.183492	-0.226716	-1.033813
H68	H	-4.088738	-0.227511	-0.813375
O69	O	-4.453532	-0.182519	-1.043806
H70	H	-4.522303	-0.187166	-0.965012
