data_functionalizedCrystal
_audit_creation_method	'MofGen! by Chris Wilmer'
_symmetry_space_group_name_H-M	'P1'
_symmetry_Int_Tables_number	1
_symmetry_cell_setting	triclinic
loop_
_symmetry_equiv_pos_as_xyz
  x,y,z
_cell_length_a	26.455835
_cell_length_b	26.455273
_cell_length_c	26.451828
_cell_angle_alpha	60.005170
_cell_angle_beta	60.010757
_cell_angle_gamma	59.993435
loop_
_atom_site_label
_atom_site_type_symbol
_atom_site_fract_x
_atom_site_fract_y
_atom_site_fract_z
O1	O	0.069940	-0.738516	0.617604
O2	O	0.026299	-0.574986	0.497618
O3	O	0.129847	-0.678463	0.497546
O4	O	-0.033607	-0.635040	0.617676
O5	O	0.164197	-0.644116	0.531822
O6	O	0.060649	-0.540639	0.531894
O7	O	0.104290	-0.704170	0.651880
Cu8	Cu	0.085606	-0.619268	0.595016
Cu9	Cu	0.044984	-0.659887	0.554481
O10	O	0.000742	-0.600693	0.651952
N11	N	0.114179	-0.590703	0.623530
N12	N	0.016416	-0.688458	0.525968
C13	C	0.157553	-0.547535	0.933368
C14	C	0.424104	-0.547506	0.666656
C15	C	0.157413	-0.547503	0.666729
C16	C	0.157397	-0.280846	0.666749
C17	C	0.200330	-0.409550	0.709625
C18	C	0.200339	-0.504608	0.709615
C19	C	0.224118	-0.480848	0.733375
C20	C	0.327800	-0.462984	0.678792
C21	C	0.392611	-0.484588	0.657175
C22	C	0.392630	-0.589450	0.697162
C23	C	0.327821	-0.567844	0.718781
C24	C	0.215955	-0.377135	0.645910
C25	C	0.194327	-0.312320	0.624323
C26	C	0.141457	-0.312339	0.730169
C27	C	0.163084	-0.377154	0.751756
C28	C	0.136618	-0.488954	0.725292
C29	C	0.115007	-0.510553	0.703686
C30	C	0.220833	-0.563461	0.650740
C31	C	0.242447	-0.541861	0.672339
C32	C	0.136680	-0.488971	0.837094
C33	C	0.115112	-0.510589	0.901907
C34	C	0.220969	-0.563508	0.901868
C35	C	0.242535	-0.541892	0.837053
C36	C	0.200389	-0.504622	0.804668
C37	C	0.295409	-0.504610	0.709593
C38	C	0.132990	-0.570876	1.004655
C39	C	0.495389	-0.570440	0.642547
C40	C	0.132802	-0.570856	0.643399
C41	C	0.133212	-0.209553	0.643833
C42	C	-0.097217	-0.706972	0.506986
C43	C	-0.002040	-0.707108	0.412067
C44	C	-0.002230	-0.802124	0.507163
C45	C	-0.002214	-0.707101	0.507221
C46	C	-0.025925	-0.730827	0.483360
N47	N	0.553723	-0.590712	0.623415
O48	O	0.751638	-0.596429	0.475603
O49	O	0.751819	-0.716773	0.638980
O50	O	0.751753	-0.716500	0.535361
O51	O	0.751705	-0.596703	0.579222
O52	O	0.648791	-0.682239	0.569747
O53	O	0.648858	-0.682512	0.673366
O54	O	0.648676	-0.562169	0.509989
Cu55	Cu	0.639366	-0.619212	0.594817
Cu56	Cu	0.761130	-0.659729	0.554152
O57	O	0.648743	-0.562442	0.613609
N58	N	0.846773	-0.688230	0.525548
N59	N	0.114157	-0.151217	0.623565
O60	O	-0.033591	0.046803	0.617717
O61	O	0.129795	0.046806	0.497390
O62	O	0.026157	0.046789	0.497680
O63	O	0.070046	0.046819	0.617427
O64	O	0.060509	-0.056181	0.532004
O65	O	0.164146	-0.056164	0.531714
O66	O	0.000760	-0.056167	0.652041
Cu67	Cu	0.085590	-0.065568	0.595012
Cu68	Cu	0.044965	0.056206	0.554419
O69	O	0.104397	-0.056151	0.651751
N70	N	0.016390	0.141855	0.525867
N71	N	0.114410	-0.590756	1.062992
O72	O	0.108565	-0.738494	1.260998
O73	O	-0.011747	-0.575059	1.261012
O74	O	-0.011470	-0.678679	1.260970
O75	O	0.108287	-0.634874	1.261040
O76	O	0.022849	-0.644347	1.158004
O77	O	0.022572	-0.540726	1.158046
O78	O	0.142884	-0.704162	1.158033
Cu79	Cu	0.085861	-0.619309	1.148638
Cu80	Cu	0.045275	-0.659911	1.270406
O81	O	0.142606	-0.600541	1.158074
N82	N	0.016726	-0.688471	1.356052
C83	C	0.039385	-0.537207	0.498225
C84	C	0.167616	-0.665350	0.498136
C85	C	0.091204	-0.741950	0.651272
C86	C	-0.037027	-0.613806	0.651361
C87	C	0.700360	-0.716215	0.676756
C88	C	0.700279	-0.715877	0.548436
C89	C	0.700133	-0.562725	0.472214
C90	C	0.700218	-0.563065	0.600533
C91	C	0.167511	-0.004552	0.497940
C92	C	0.039211	-0.004699	0.498341
C93	C	-0.036999	-0.004682	0.651449
C94	C	0.091344	-0.004663	0.651090
C95	C	-0.011156	-0.537302	1.209530
C96	C	-0.010806	-0.665617	1.209458
C97	C	0.142293	-0.741918	1.209514
C98	C	0.141950	-0.613596	1.209563
H99	H	0.063231	-0.497836	0.928300
O100	O	0.186914	-0.602466	1.209496
C101	C	0.289985	-0.596649	1.156152
C102	C	0.239123	-0.609284	1.156159
H103	H	0.332204	-0.602144	1.113027
H104	H	0.303573	-0.630940	1.199214
H105	H	0.271810	-0.547460	1.156192
H106	H	0.257255	-0.658456	1.156097
H107	H	0.225542	-0.574954	1.113100
O108	O	-0.092981	-0.602816	0.696445
C109	C	-0.148319	-0.597211	0.799616
C110	C	-0.084912	-0.609686	0.748617
H111	H	-0.141818	-0.602748	0.841805
H112	H	-0.170599	-0.631558	0.813203
H113	H	-0.179490	-0.548043	0.781575
H114	H	-0.053693	-0.658836	0.766615
H115	H	-0.062681	-0.575300	0.735038
H116	H	0.214562	-0.674609	0.460411
H117	H	0.214338	-0.004265	0.460069
O118	O	0.028336	-0.481141	0.453281
C119	C	0.058254	-0.390147	0.385624
C120	C	0.070825	-0.453621	0.436531
H121	H	0.092606	-0.367884	0.372057
H122	H	0.009090	-0.358984	0.403680
H123	H	0.063784	-0.396603	0.343414
H124	H	0.065329	-0.447223	0.478759
H125	H	0.119984	-0.484761	0.418425
H126	H	0.700208	-0.525435	0.609919
H127	H	0.100526	-0.788925	0.688956
O128	O	-0.056297	-0.481358	1.209615
C129	C	-0.159535	-0.426049	1.262966
C130	C	-0.108472	-0.489446	1.262942
H131	H	-0.201725	-0.432564	1.306083
H132	H	-0.173083	-0.403802	1.219896
H133	H	-0.141575	-0.394836	1.262956
H134	H	-0.126388	-0.520706	1.262975
H135	H	-0.094930	-0.511642	1.306009
H136	H	-0.083922	-0.004684	0.689225
O137	O	0.700325	-0.760853	0.537336
C138	C	0.700374	-0.865177	0.577830
C139	C	0.700337	-0.814302	0.590478
H140	H	0.700370	-0.908399	0.620790
H141	H	0.743454	-0.876766	0.537309
H142	H	0.657275	-0.848009	0.566035
H143	H	0.743406	-0.831428	0.602299
H144	H	0.657227	-0.802721	0.630981
H145	H	0.100739	-0.004653	0.688708
O146	O	0.028027	-0.004832	0.453515
C147	C	0.000754	-0.058204	0.424017
C148	C	0.013411	-0.058129	0.474829
H149	H	-0.011078	-0.101284	0.441235
H150	H	0.043689	-0.058252	0.380776
H151	H	-0.039764	-0.015101	0.412434
H152	H	0.053909	-0.101226	0.486465
H153	H	-0.029555	-0.058050	0.518038
H154	H	0.700073	-0.524942	0.425295
O155	O	-0.055595	-0.676865	1.209353
C156	C	-0.083893	-0.750392	1.209271
C157	C	-0.033109	-0.737731	1.209375
H158	H	-0.065736	-0.799606	1.209302
H159	H	-0.097387	-0.716138	1.166150
H160	H	-0.126172	-0.744814	1.252332
H161	H	0.009203	-0.743317	1.166343
H162	H	-0.019667	-0.771983	1.252524
O163	O	0.187282	-0.797957	1.209535
C164	C	0.216078	-0.899932	1.209459
C165	C	0.165069	-0.836502	1.209452
H166	H	0.198142	-0.931108	1.209379
H167	H	0.229575	-0.922218	1.252568
H168	H	0.258302	-0.893409	1.166386
H169	H	0.122812	-0.842971	1.252496
H170	H	0.151624	-0.814238	1.166315
H171	H	0.255291	-0.593843	0.928229
O172	O	0.095652	-0.452796	0.805731
C173	C	-0.011619	-0.402556	0.812610
C174	C	0.034772	-0.443537	0.848206
H175	H	-0.060851	-0.395047	0.846936
H176	H	-0.004214	-0.426291	0.782283
H177	H	-0.004131	-0.355950	0.782253
H178	H	0.027311	-0.490150	0.878596
H179	H	0.027355	-0.419754	0.878494
H180	H	0.700405	-0.753994	0.723681
H181	H	0.102328	-0.458621	0.755642
O182	O	0.304447	-0.557133	0.805652
C183	C	0.407164	-0.611935	0.812457
C184	C	0.337069	-0.594709	0.848094
H185	H	0.433560	-0.642328	0.846756
H186	H	0.419942	-0.567974	0.782133
H187	H	0.419883	-0.638292	0.782093
H188	H	0.324299	-0.568367	0.878491
H189	H	0.324328	-0.638692	0.878379
H190	H	0.063121	-0.497793	0.716436
H191	H	0.294333	-0.554601	0.659567
O192	O	0.261770	-0.599554	0.614443
C193	C	0.345622	-0.607816	0.519051
C194	C	0.299277	-0.566874	0.560096
H195	H	0.375966	-0.581415	0.475109
H196	H	0.319277	-0.620560	0.506238
H197	H	0.375960	-0.651806	0.545448
H198	H	0.268926	-0.522858	0.533737
H199	H	0.325659	-0.554180	0.572911
O200	O	0.296450	-0.608363	0.748664
C201	C	0.303313	-0.714657	0.786072
C202	C	0.338916	-0.668836	0.752207
H203	H	0.337631	-0.763561	0.788959
H204	H	0.272968	-0.701691	0.759583
H205	H	0.272974	-0.712643	0.834791
H206	H	0.369289	-0.670827	0.703488
H207	H	0.369222	-0.681818	0.778744
H208	H	0.418982	-0.450689	0.632093
O209	O	0.424151	-0.650856	0.705970
C210	C	0.497346	-0.729270	0.658205
C211	C	0.461678	-0.659715	0.648141
H212	H	0.527706	-0.736454	0.611459
H213	H	0.463092	-0.755343	0.683898
H214	H	0.527681	-0.747505	0.686717
H215	H	0.431343	-0.641423	0.619613
H216	H	0.495966	-0.633685	0.622475
H217	H	0.301415	-0.411495	0.671309
H218	H	0.246280	-0.403511	0.611604
H219	H	0.207047	-0.285927	0.572438
H220	H	0.150353	-0.403547	0.803641
O221	O	0.105266	-0.280961	0.771176
C222	C	0.055156	-0.287817	0.878439
C223	C	0.096135	-0.323427	0.832067
H224	H	0.047772	-0.322135	0.927680
H225	H	0.008496	-0.257494	0.871041
H226	H	0.078901	-0.257451	0.870921
H227	H	0.072445	-0.353826	0.839557
H228	H	0.142793	-0.353710	0.839477
