data_functionalizedCrystal
_audit_creation_method	'MofGen! by Chris Wilmer'
_symmetry_space_group_name_H-M	'P1'
_symmetry_Int_Tables_number	1
_symmetry_cell_setting	triclinic
loop_
_symmetry_equiv_pos_as_xyz
  x,y,z
_cell_length_a	16.956984
_cell_length_b	14.044190
_cell_length_c	16.053802
_cell_angle_alpha	92.795827
_cell_angle_beta	87.610701
_cell_angle_gamma	84.622598
loop_
_atom_site_label
_atom_site_type_symbol
_atom_site_fract_x
_atom_site_fract_y
_atom_site_fract_z
O1	O	1.063881	0.034824	-0.069436
O2	O	0.834079	0.067919	-0.069439
O3	O	0.945527	-0.086342	-0.069421
O4	O	0.952433	0.189085	-0.069454
O5	O	0.939390	-0.077884	0.069437
O6	O	0.827942	0.076377	0.069419
O7	O	1.057745	0.043282	0.069422
Zn8	Zn	0.941869	0.061172	0.091467
Zn9	Zn	0.949954	0.050029	-0.091484
O10	O	0.946296	0.197543	0.069404
C11	C	0.801423	0.073842	-0.000011
C12	C	0.713261	0.078881	-0.000011
C13	C	0.675182	-0.005360	0.000000
C14	C	0.592344	-0.000620	-0.000006
C15	C	0.547586	0.088361	-0.000018
C16	C	0.585671	0.172607	-0.000032
C17	C	0.668507	0.167867	-0.000032
C18	C	0.299484	0.111826	-0.000027
C19	C	0.216642	0.116560	-0.000025
C20	C	0.223321	-0.056668	-0.000000
C21	C	0.306159	-0.061400	0.000005
C22	C	0.344236	0.022846	-0.000013
N23	N	0.462913	0.093207	-0.000022
N24	N	0.428908	0.017998	-0.000015
C25	C	0.939438	-0.117190	0.000010
C26	C	0.930428	-0.221710	0.000017
C27	C	0.977857	-0.475715	-0.000015
C28	C	0.913970	-0.413079	-0.000010
C29	C	0.923130	-0.306592	0.000005
C30	C	0.968699	-0.582212	-0.000030
C31	C	1.090401	0.037358	-0.000008
C32	C	1.178563	0.032320	-0.000013
C33	C	0.952385	0.228391	-0.000029
C34	C	0.961396	0.332911	-0.000042
N35	N	0.936357	0.068777	0.216326
N36	N	0.955473	0.042416	-0.216344
C37	C	0.983799	0.003159	0.260028
C38	C	0.979951	0.008487	0.347434
C39	C	0.928664	0.079437	0.391137
C40	C	0.881217	0.145058	0.347429
C41	C	0.885061	0.139725	0.260025
C42	C	0.911870	0.102704	0.652544
C43	C	0.908031	0.108034	0.739955
C44	C	1.006763	-0.028539	0.739954
C45	C	1.010607	-0.033862	0.652547
C46	C	0.963157	0.031756	0.608847
N47	N	0.924732	0.084887	0.480480
N48	N	0.967086	0.026301	0.519506
H49	H	0.192310	-0.125257	0.000005
N50	N	0.707419	0.253907	-0.000048
N51	N	0.755485	0.267017	-0.058584
H52	H	0.782967	0.327785	-0.058600
H53	H	0.549222	0.245057	-0.000048
N54	N	0.553435	-0.086659	0.000028
N55	N	0.479474	-0.082418	0.000032
H56	H	0.451993	-0.143186	0.000060
N57	N	1.028387	-0.058544	0.392096
N58	N	1.077579	-0.029513	0.440879
H59	H	1.111775	-0.076862	0.472430
H60	H	0.866265	0.165814	0.775534
H61	H	1.039426	-0.449365	-0.000005
H62	H	0.711618	-0.077817	0.000014
H63	H	1.045394	-0.081963	0.775542
H64	H	0.852396	-0.439430	-0.000016
H65	H	1.025565	-0.054612	0.224451
N66	N	1.063146	-0.106192	0.607922
N67	N	1.105599	-0.164675	0.646952
H68	H	1.142762	-0.215702	0.615436
H69	H	0.873235	0.156135	0.616970
H70	H	0.839454	0.202825	0.383017
N71	N	0.351863	-0.152301	0.000017
N72	N	0.317854	-0.227511	0.000025
H73	H	0.350132	-0.291711	0.000035
N74	N	0.836592	0.206756	0.215395
N75	N	0.790803	0.270100	0.254422
H76	H	0.756566	0.317441	0.222904
H77	H	0.180201	0.189023	-0.000031
H78	H	0.330476	0.180424	-0.000047
