data_functionalizedCrystal
_audit_creation_method	'MofGen! by Chris Wilmer'
_symmetry_space_group_name_H-M	'P1'
_symmetry_Int_Tables_number	1
_symmetry_cell_setting	triclinic
loop_
_symmetry_equiv_pos_as_xyz
  x,y,z
_cell_length_a	10.723024
_cell_length_b	10.489741
_cell_length_c	9.798715
_cell_angle_alpha	89.997135
_cell_angle_beta	89.996609
_cell_angle_gamma	84.503522
loop_
_atom_site_label
_atom_site_type_symbol
_atom_site_fract_x
_atom_site_fract_y
_atom_site_fract_z
O1	O	1.657297	0.178906	-0.113481
O2	O	1.294155	0.196031	-0.113486
O3	O	1.483989	0.001865	-0.113475
O4	O	1.467463	0.373072	-0.113492
O5	O	1.483975	0.001865	0.113507
O6	O	1.294141	0.196030	0.113496
O7	O	1.657283	0.178906	0.113501
Zn8	Zn	1.475709	0.187468	0.149537
Zn9	Zn	1.475728	0.187469	-0.149522
O10	O	1.467448	0.373071	0.113490
C11	C	1.247647	0.194785	0.000005
C12	C	1.109091	0.191056	0.000003
C13	C	1.034175	0.299701	-0.000003
C14	C	0.890969	0.295850	-0.000004
C15	C	1.482734	-0.045666	0.000015
C16	C	1.478999	-0.187293	0.000012
C17	C	1.358213	-0.255356	0.000001
C18	C	1.415265	-0.347515	0.111915
C19	C	1.415307	-0.347489	-0.111871
C20	C	1.536100	-0.277587	0.112019
C21	C	1.536126	-0.277551	-0.111868
C22	C	1.593265	-0.369683	0.000074
C23	C	1.703790	0.180152	0.000007
C24	C	1.842347	0.183881	-0.000000
C25	C	1.468704	0.420602	-0.000003
C26	C	1.472438	0.562229	-0.000009
N27	N	1.475706	0.187467	0.353637
N28	N	1.475742	0.187460	-0.353622
C29	C	1.555412	0.105583	0.421418
C30	C	1.555432	0.105578	0.578581
H31	H	0.826593	0.388858	-0.000015
H32	H	1.407503	0.257572	0.588098
C33	C	1.647623	0.010867	0.657324
N34	N	1.717062	-0.060475	0.716637
H35	H	0.906715	0.090867	-0.000004
H36	H	1.076055	0.395567	0.000001
C37	C	1.052518	0.061540	0.000009
N38	N	1.009910	-0.036014	0.000011
C39	C	1.224056	-0.188182	0.000153
N40	N	1.123012	-0.137583	0.000277
H41	H	1.364151	-0.378494	0.206530
C42	C	1.383530	0.282169	0.432420
N43	N	1.314100	0.353501	0.491759
H44	H	1.587157	-0.246787	0.206741
C45	C	1.727543	-0.436552	0.000163
N46	N	1.828679	-0.486922	0.000238
C47	C	1.605118	-0.235649	-0.239696
N48	N	1.657074	-0.204085	-0.335987
C49	C	1.346246	-0.389294	-0.239692
N50	N	1.294221	-0.420775	-0.335962
C51	C	1.647562	0.010855	0.342634
N52	N	1.716966	-0.060504	0.283296
