data_functionalizedCrystal
_audit_creation_method	'MofGen! by Chris Wilmer'
_symmetry_space_group_name_H-M	'P1'
_symmetry_Int_Tables_number	1
_symmetry_cell_setting	triclinic
loop_
_symmetry_equiv_pos_as_xyz
  x,y,z
_cell_length_a	18.101398
_cell_length_b	19.121063
_cell_length_c	18.101389
_cell_angle_alpha	87.580609
_cell_angle_beta	90.024327
_cell_angle_gamma	92.464489
loop_
_atom_site_label
_atom_site_type_symbol
_atom_site_fract_x
_atom_site_fract_y
_atom_site_fract_z
Zn1	Zn	1.119554	-0.279777	0.431404
Zn2	Zn	1.619554	0.220223	0.931404
Zn3	Zn	1.114175	-0.397213	0.312837
Zn4	Zn	1.614175	0.102787	0.812837
Zn5	Zn	0.995713	-0.279770	0.307565
Zn6	Zn	1.495713	0.220230	0.807565
Zn7	Zn	0.990390	-0.397183	0.436624
Zn8	Zn	1.490390	0.102817	0.936624
O9	O	1.054958	-0.338486	0.372107
O10	O	1.554958	0.161514	0.872107
O11	O	1.222473	-0.295371	0.415698
O12	O	1.722473	0.204629	0.915698
O13	O	1.098437	-0.381644	0.208505
O14	O	1.598437	0.118356	0.708505
O15	O	1.016620	-0.181486	0.319601
O16	O	1.516620	0.318514	0.819601
O17	O	1.218521	-0.381651	0.328587
O18	O	1.718521	0.118349	0.828587
O19	O	1.107605	-0.181491	0.410586
O20	O	1.607605	0.318509	0.910586
O21	O	1.011404	-0.295359	0.204632
O22	O	1.511404	0.204641	0.704632
O23	O	0.891375	-0.295330	0.324663
O24	O	1.391375	0.204670	0.824663
O25	O	1.007547	-0.381599	0.539564
O26	O	1.507547	0.118401	1.039564
O27	O	0.887464	-0.381592	0.419482
O28	O	1.387464	0.118408	0.919482
O29	O	1.102443	-0.295342	0.535729
O30	O	1.602443	0.204658	1.035729
O31	O	1.093276	-0.495494	0.333648
O32	O	1.593276	0.004506	0.833648
O33	O	1.002331	-0.495472	0.424594
O34	O	1.502331	0.004528	0.924594
C35	C	0.862549	-0.338457	0.372067
C36	C	1.362549	0.161543	0.872067
C37	C	0.780234	-0.338462	0.372069
C38	C	1.280234	0.161538	0.872069
C39	C	0.481141	-0.338506	0.372133
C40	C	0.981141	0.161494	0.872133
C41	C	0.514915	-0.283961	0.312742
C42	C	1.014915	0.216039	0.812742
C43	C	0.600526	-0.284107	0.312506
C44	C	1.100526	0.215893	0.812506
C45	C	0.629525	-0.338484	0.372101
C46	C	1.129525	0.161516	0.872101
C47	C	0.595084	-0.412466	0.354099
C48	C	1.095084	0.087534	0.854099
C49	C	0.509452	-0.412163	0.353690
C50	C	1.009452	0.087837	0.853690
C51	C	0.513600	-0.319712	0.449688
C52	C	1.013600	0.180288	0.949688
C53	C	0.599325	-0.318065	0.449186
C54	C	1.099325	0.181935	0.949186
C55	C	0.713385	-0.338476	0.372084
C56	C	1.213385	0.161524	0.872084
C57	C	0.397281	-0.338519	0.372148
C58	C	0.897281	0.161481	0.872148
C59	C	1.046662	-0.520967	0.380276
C60	C	1.546662	-0.020967	0.880276
C61	C	1.043181	-0.599034	0.383795
C62	C	1.543181	-0.099034	0.883795
C63	C	1.088932	-0.635698	0.338137
C64	C	1.588932	-0.135698	0.838137
C65	C	1.085662	-0.709049	0.341451
C66	C	1.585662	-0.209049	0.841451
C67	C	1.036637	-0.745735	0.390420
C68	C	1.536637	-0.245735	0.890420
C69	C	0.990884	-0.709066	0.436083
C70	C	1.490884	-0.209066	0.936083
C71	C	0.994158	-0.635716	0.432772
C72	C	1.494158	-0.135716	0.932772
C73	C	1.024385	-0.967206	0.402788
C74	C	1.524385	-0.467206	0.902788
C75	C	1.021113	-1.040562	0.406094
C76	C	1.521113	-0.540562	0.906094
C77	C	1.115892	-1.040539	0.311462
C78	C	1.615892	-0.540539	0.811462
C79	C	1.119159	-0.967188	0.308152
C80	C	1.619159	-0.467188	0.808152
C81	C	1.073408	-0.930525	0.353818
C82	C	1.573408	-0.430525	0.853818
C83	C	1.033292	-0.820713	0.393807
C84	C	1.533292	-0.320713	0.893807
C85	C	1.076758	-0.855549	0.350434
C86	C	1.576758	-0.355549	0.850434
C87	C	1.248119	-0.338515	0.372148
C88	C	1.748119	0.161485	0.872148
C89	C	1.330432	-0.338528	0.372165
C90	C	1.830432	0.161472	0.872165
C91	C	1.055002	-0.338468	0.565269
C92	C	1.555002	0.161532	1.065269
C93	C	1.055020	-0.338461	0.647582
C94	C	1.555020	0.161539	1.147582
C95	C	1.063306	-0.155292	0.363923
C96	C	1.563306	0.344708	0.863923
C97	C	1.066864	-0.077226	0.360436
C98	C	1.566864	0.422774	0.860436
C99	C	1.054959	-0.338453	0.179695
C100	C	1.554959	0.161547	0.679695
C101	C	1.055093	-0.338263	0.097373
C102	C	1.555093	0.161737	0.597373
C103	C	1.055069	-0.338329	0.946668
C104	C	1.555069	0.161671	1.446668
C105	C	0.995174	-0.392427	0.917747
C106	C	1.495174	0.107573	1.417747
C107	C	0.995318	-0.392678	0.832140
C108	C	1.495318	0.107322	1.332140
C109	C	1.055044	-0.338394	0.798288
C110	C	1.555044	0.161606	1.298288
C111	C	1.132167	-0.358491	0.830296
C112	C	1.632167	0.141509	1.330296
C113	C	1.131831	-0.358846	0.915957
C114	C	1.631831	0.141154	1.415957
C115	C	1.038526	-0.264013	0.911754
C116	C	1.538526	0.235987	1.411754
C117	C	1.036771	-0.264443	0.826122
C118	C	1.536771	0.235557	1.326122
C119	C	1.055035	-0.338430	0.714430
C120	C	1.555035	0.161570	1.214430
C121	C	1.055084	-0.338295	1.030526
C122	C	1.555084	0.161705	1.530526
H123	H	0.496816	-0.228932	0.323490
H124	H	0.996816	0.271068	0.823490
H125	H	0.993375	-0.850591	0.433677
H126	H	1.493375	-0.350591	0.933677
O127	O	0.485647	-0.300213	0.236962
O128	O	0.985647	0.199787	0.736962
H129	H	0.532471	-0.310853	0.200092
H130	H	1.032471	0.189147	0.700092
O131	O	1.141821	-0.596130	0.285331
O132	O	1.641821	-0.096130	0.785331
H133	H	1.110196	-0.562752	0.246105
H134	H	1.610196	-0.062752	0.746105
O135	O	0.626875	-0.300537	0.236283
O136	O	1.126875	0.199463	0.736283
H137	H	0.603738	-0.352825	0.221601
H138	H	1.103738	0.147175	0.721601
O139	O	0.481987	-0.433266	0.278719
O140	O	0.981987	0.066734	0.778719
H141	H	0.529871	-0.443588	0.243096
H142	H	1.029871	0.056412	0.743096
H143	H	0.956904	-0.605865	0.469953
H144	H	1.456904	-0.105865	0.969953
O145	O	0.619570	-0.467747	0.409793
O146	O	1.119570	0.032253	0.909793
H147	H	0.680746	-0.469737	0.408495
H148	H	1.180746	0.030263	0.908495
O149	O	1.096358	-0.210617	0.936214
O150	O	1.596358	0.289383	1.436214
H151	H	1.136693	-0.236835	0.973056
H152	H	1.636693	0.263165	1.473056
O153	O	0.965558	-0.239762	0.939253
O154	O	1.465558	0.260238	1.439253
H155	H	0.955170	-0.187260	0.913838
H156	H	1.455170	0.312740	1.413838
H157	H	0.619076	-0.354899	0.495539
H158	H	1.119076	0.145101	0.995539
H159	H	0.622115	-0.263622	0.462821
H160	H	1.122115	0.236378	0.962821
O161	O	0.631671	-0.211434	0.326922
O162	O	1.131671	0.288566	0.826922
H163	H	0.585579	-0.175867	0.334125
H164	H	1.085579	0.324133	0.834125
O165	O	0.937997	-0.748630	0.488894
O166	O	1.437997	-0.248630	0.988894
H167	H	0.943397	-0.805795	0.483518
H168	H	1.443397	-0.305795	0.983518
H169	H	1.077478	-0.221996	0.802832
H170	H	1.577478	0.278004	1.302832
O171	O	0.919430	-0.376016	0.803518
O172	O	1.419430	0.123984	1.303518
H173	H	0.923509	-0.327775	0.767178
H174	H	1.423509	0.172225	1.267178
H175	H	1.153140	-1.070398	0.274285
H176	H	1.653140	-0.570398	0.774285
H177	H	0.615770	-0.428682	0.298133
H178	H	1.115770	0.071318	0.798133
H179	H	0.491559	-0.359441	0.493899
H180	H	0.991559	0.140559	0.993899
O181	O	0.975040	-0.927661	0.452030
O182	O	1.475040	-0.427661	0.952030
H183	H	0.938881	-0.894281	0.417334
H184	H	1.438881	-0.394281	0.917334
O185	O	0.968239	-1.080135	0.458918
O186	O	1.468239	-0.580135	0.958918
H187	H	0.936982	-1.042319	0.490122
H188	H	1.436982	-0.542319	0.990122
H189	H	0.980032	-0.249287	0.805110
H190	H	1.480032	0.250713	1.305110
H191	H	1.116677	-0.825677	0.310566
H192	H	1.616677	-0.325677	0.810566
O193	O	0.919036	-0.375941	0.944262
O194	O	1.419036	0.124059	1.444262
H195	H	0.923068	-0.329016	0.978341
H196	H	1.423068	0.170984	1.478341
O197	O	0.488193	-0.249493	0.472219
O198	O	0.988193	0.250507	0.972219
H199	H	0.426910	-0.251186	0.475507
H200	H	0.926910	0.248814	0.975507
O201	O	1.135003	-0.748597	0.292202
O202	O	1.635003	-0.248597	0.792202
H203	H	1.169635	-0.710763	0.257587
H204	H	1.669635	-0.210763	0.757587
O205	O	1.009097	-0.464945	0.949545
O206	O	1.509097	0.035055	1.449545
H207	H	1.058496	-0.462627	0.985850
H208	H	1.558496	0.037373	1.485850
H209	H	1.159079	-0.937319	0.268278
H210	H	1.659079	-0.437319	0.768278
O211	O	1.009330	-0.465662	0.808276
O212	O	1.509330	0.034338	1.308276
H213	H	1.016053	-0.500910	0.857906
H214	H	1.516053	-0.000910	1.357906
O215	O	1.150911	-0.430807	0.945669
O216	O	1.650911	0.069193	1.445669
H217	H	1.160288	-0.465027	0.898840
H218	H	1.660288	0.034973	1.398840
H219	H	1.177791	-0.321154	0.935005
H220	H	1.677791	0.178846	1.435005
H221	H	1.146898	-0.412240	0.811268
H222	H	1.646898	0.087760	1.311268
O223	O	0.479494	-0.467811	0.408731
O224	O	0.979494	0.032189	0.908731
H225	H	0.526176	-0.494824	0.435517
H226	H	1.026176	0.005176	0.935517
O227	O	1.192685	-0.307953	0.801069
O228	O	1.692685	0.192047	1.301069
H229	H	1.168378	-0.267880	0.763327
H230	H	1.668378	0.232120	1.263327
