data_functionalizedCrystal
_audit_creation_method	'MofGen! by Chris Wilmer'
_symmetry_space_group_name_H-M	'P1'
_symmetry_Int_Tables_number	1
_symmetry_cell_setting	triclinic
loop_
_symmetry_equiv_pos_as_xyz
  x,y,z
_cell_length_a	12.759401
_cell_length_b	12.759400
_cell_length_c	12.759401
_cell_angle_alpha	90.006675
_cell_angle_beta	90.005677
_cell_angle_gamma	90.014455
loop_
_atom_site_label
_atom_site_type_symbol
_atom_site_fract_x
_atom_site_fract_y
_atom_site_fract_z
Zn1	Zn	1.606126	-0.418438	0.593993
Zn2	Zn	1.606062	-0.594084	0.418317
Zn3	Zn	1.430468	-0.418421	0.418332
Zn4	Zn	1.430419	-0.594076	0.593958
O5	O	1.518269	-0.506255	0.506150
O6	O	1.753139	-0.441748	0.570698
O7	O	1.582763	-0.570778	0.271298
O8	O	1.453816	-0.271402	0.441655
O9	O	1.753092	-0.570794	0.441629
O10	O	1.582872	-0.271414	0.570712
O11	O	1.453754	-0.441719	0.271309
O12	O	1.283440	-0.441712	0.441621
O13	O	1.453733	-0.570781	0.740984
O14	O	1.283404	-0.570765	0.570653
O15	O	1.582824	-0.441740	0.741010
O16	O	1.582715	-0.741104	0.441595
O17	O	1.453671	-0.741098	0.570638
C18	C	1.245301	-0.506237	0.506135
C19	C	1.128525	-0.506254	0.506154
C20	C	1.073688	-0.439181	0.573464
C21	C	0.963964	-0.439192	0.573471
C22	C	0.963923	-0.573358	0.438855
C23	C	1.073645	-0.573341	0.438844
C24	C	1.518209	-0.779222	0.506134
C25	C	1.518280	-0.895999	0.506163
C26	C	1.585502	-1.060514	0.573443
C27	C	1.585448	-0.950790	0.573419
C28	C	1.451170	-0.950937	0.438918
C29	C	1.451230	-1.060659	0.438938
C30	C	1.792302	-0.506274	0.506166
C31	C	1.909079	-0.506282	0.506172
C32	C	1.518280	-0.506262	0.780184
C33	C	1.518285	-0.506265	0.896960
C34	C	1.518357	-0.232222	0.506189
C35	C	1.518394	-0.115445	0.506206
C36	C	1.585495	-0.439084	0.951837
C37	C	1.585486	-0.439082	1.061561
C38	C	1.451055	-0.573451	1.061522
C39	C	1.451059	-0.573447	0.951800
C40	C	1.518256	-0.506271	1.233183
C41	C	1.518272	-0.506267	1.116406
H42	H	0.919227	-0.627978	0.384055
O43	O	1.657943	-1.119601	0.645995
H44	H	1.646704	-1.205127	0.634725
H45	H	1.640094	-0.906068	0.628168
H46	H	1.396484	-0.906320	0.384152
H47	H	1.118295	-0.627961	0.384027
O48	O	0.904823	-0.366844	0.646069
H49	H	0.819305	-0.378112	0.634763
O50	O	1.378533	-0.645889	0.892615
H51	H	1.396501	-0.728358	0.913647
O52	O	1.378844	-1.119919	0.366418
H53	H	1.332118	-1.063391	0.319650
H54	H	1.118367	-0.384552	0.628268
O55	O	1.657999	-0.366627	0.892687
H56	H	1.611000	-0.313174	0.842689
H57	H	1.396324	-0.628150	1.106185
O58	O	1.657981	-0.366630	1.120754
H59	H	1.704731	-0.319923	1.064184
