data_functionalizedCrystal
_audit_creation_method	'MofGen! by Chris Wilmer'
_symmetry_space_group_name_H-M	'P1'
_symmetry_Int_Tables_number	1
_symmetry_cell_setting	triclinic
loop_
_symmetry_equiv_pos_as_xyz
  x,y,z
_cell_length_a	16.109301
_cell_length_b	13.596369
_cell_length_c	16.109301
_cell_angle_alpha	90.007411
_cell_angle_beta	83.461481
_cell_angle_gamma	90.002607
loop_
_atom_site_label
_atom_site_type_symbol
_atom_site_fract_x
_atom_site_fract_y
_atom_site_fract_z
O1	O	1.103133	0.081732	0.106869
O2	O	0.861071	0.081748	0.120168
O3	O	0.988751	0.081730	-0.007513
O4	O	0.975452	0.081751	0.234549
O5	O	0.988739	-0.081853	-0.007520
O6	O	0.861058	-0.081835	0.120161
O7	O	1.103120	-0.081851	0.106862
Zn8	Zn	0.982087	-0.107815	0.113510
Zn9	Zn	0.982104	0.107713	0.113519
O10	O	0.975439	-0.081832	0.234542
C11	C	0.830090	-0.000041	0.119626
C12	C	0.737794	-0.000035	0.118011
N13	N	0.982082	-0.254907	0.113504
C14	C	0.515522	-0.000041	0.190018
C15	C	0.428801	-0.000047	0.188494
C16	C	0.448676	-0.000056	0.037006
C17	C	0.535394	-0.000057	0.038530
C18	C	0.568815	-0.000044	0.115039
C19	C	0.395376	-0.000050	0.111990
C20	C	0.301350	-0.000057	0.110337
C21	C	0.662847	-0.000039	0.116693
C22	C	0.982103	-0.656198	0.113520
C23	C	0.982094	-0.544546	0.113518
C24	C	0.982093	-0.455556	0.113513
C25	C	0.982083	-0.343897	0.113510
C26	C	1.134101	-0.000059	0.107404
C27	C	1.226397	-0.000058	0.109019
C28	C	0.988206	-0.000062	-0.038491
C29	C	0.986591	-0.000063	-0.130786
N30	N	0.982116	0.254805	0.113519
C31	C	1.058599	-0.000052	-0.353059
C32	C	1.057075	-0.000044	-0.439779
C33	C	0.905586	-0.000038	-0.419905
C34	C	0.907111	-0.000039	-0.333186
C35	C	0.983620	-0.000051	-0.299766
C36	C	0.980571	-0.000042	-0.473205
C37	C	0.978918	-0.000033	-0.567231
C38	C	0.985273	-0.000058	-0.205734
C39	C	0.975984	-0.000038	0.265521
C40	C	0.977600	-0.000030	0.357816
H41	H	0.542730	-0.000038	0.252317
F42	F	0.372086	-0.000045	0.268298
F43	F	0.413100	-0.000065	-0.044416
F44	F	1.136878	-0.000043	-0.496495
H45	H	0.578788	-0.000062	-0.022530
F46	F	1.140026	-0.000064	-0.317493
F47	F	0.824164	-0.000025	-0.455481
F48	F	0.827304	-0.000031	-0.276464
