data_functionalizedCrystal
_audit_creation_method	'MofGen! by Chris Wilmer'
_symmetry_space_group_name_H-M	'P1'
_symmetry_Int_Tables_number	1
_symmetry_cell_setting	triclinic
loop_
_symmetry_equiv_pos_as_xyz
  x,y,z
_cell_length_a	19.288864
_cell_length_b	17.766277
_cell_length_c	19.288857
_cell_angle_alpha	89.991474
_cell_angle_beta	96.865323
_cell_angle_gamma	90.023209
loop_
_atom_site_label
_atom_site_type_symbol
_atom_site_fract_x
_atom_site_fract_y
_atom_site_fract_z
O1	O	-0.921351	-0.062839	0.086649
O2	O	-0.421351	0.437161	0.586649
O3	O	-0.719090	-0.062788	0.098338
O4	O	-0.219090	0.437212	0.598338
O5	O	-0.826067	-0.062806	-0.008637
O6	O	-0.326067	0.437194	0.491363
O7	O	-0.814373	-0.062821	0.193624
O8	O	-0.314373	0.437179	0.693624
O9	O	-0.826049	0.062382	-0.008643
O10	O	-0.326049	0.562382	0.491357
O11	O	-0.719071	0.062400	0.098332
O12	O	-0.219071	0.562400	0.598332
O13	O	-0.921332	0.062349	0.086644
O14	O	-0.421332	0.562349	0.586644
Cu15	Cu	-0.820200	0.073806	0.092488
Cu16	Cu	-0.320200	0.573806	0.592488
Cu17	Cu	-0.820222	-0.074244	0.092494
Cu18	Cu	-0.320222	0.425756	0.592494
O19	O	-0.814354	0.062367	0.193619
O20	O	-0.314354	0.562367	0.693619
C21	C	-0.693204	-0.000187	0.097959
C22	C	-0.193204	0.499813	0.597959
C23	C	-0.616100	-0.000167	0.096830
C24	C	-0.116100	0.499833	0.596830
C25	C	-0.825683	-0.000211	-0.034516
C26	C	-0.325683	0.499789	0.465484
C27	C	-0.824556	-0.000209	-0.111620
C28	C	-0.324556	0.499791	0.388380
C29	C	-0.947218	-0.000253	0.087022
C30	C	-0.447218	0.499747	0.587022
C31	C	-1.024321	-0.000278	0.088151
C32	C	-0.524321	0.499722	0.588151
N33	N	-0.820189	0.177936	0.092483
N34	N	-0.320189	0.677936	0.592483
C35	C	-0.571402	-0.000184	0.159598
C36	C	-0.071402	0.499816	0.659598
C37	C	-0.498955	-0.000192	0.158537
C38	C	0.001045	0.499808	0.658537
C39	C	-0.471210	-0.000199	0.094705
C40	C	0.028790	0.499801	0.594705
C41	C	-0.515917	-0.000178	0.031929
C42	C	-0.015917	0.499822	0.531929
C43	C	-0.588363	-0.000162	0.032991
C44	C	-0.088363	0.499838	0.532991
C45	C	-0.362955	-0.044080	0.044528
C46	C	0.137045	0.455920	0.544528
C47	C	-0.290511	-0.044100	0.043468
C48	C	0.209489	0.455900	0.543468
C49	C	-0.247764	-0.000244	0.091425
C50	C	0.252236	0.499756	0.591425
C51	C	-0.277469	0.043622	0.140455
C52	C	0.222531	0.543622	0.640455
C53	C	-0.349914	0.043638	0.141517
C54	C	0.150086	0.543638	0.641517
C55	C	-0.392656	-0.000216	0.093546
C56	C	0.107344	0.499784	0.593546
C57	C	-0.124510	-0.000269	0.153048
C58	C	0.375490	0.499731	0.653048
C59	C	-0.052062	-0.000272	0.151984
C60	C	0.447938	0.499728	0.651984
C61	C	-0.069026	-0.000266	0.025374
C62	C	0.430974	0.499734	0.525374
C63	C	-0.141472	-0.000255	0.026439
C64	C	0.358528	0.499745	0.526439
C65	C	-0.169210	-0.000260	0.090278
C66	C	0.330790	0.499740	0.590278
N67	N	-0.820238	-0.178375	0.092493
N68	N	-0.320238	0.321625	0.592493
C69	C	-0.867574	0.217315	0.045137
C70	C	-0.367574	0.717315	0.545137
C71	C	-0.867578	0.296117	0.045134
C72	C	-0.367578	0.796117	0.545134
C73	C	-0.820204	0.335537	0.092488
C74	C	-0.320204	0.835537	0.592488
C75	C	-0.772810	0.296148	0.139837
C76	C	-0.272810	0.796148	0.639837
C77	C	-0.772803	0.217348	0.139834
C78	C	-0.272803	0.717348	0.639834
C79	C	-0.810903	0.460371	0.155776
C80	C	-0.310903	0.960371	0.655776
C81	C	-0.810915	0.539170	0.155780
C82	C	-0.310915	1.039170	0.655780
C83	C	-0.820222	0.578583	0.092496
C84	C	-0.320222	1.078583	0.592496
C85	C	-0.829532	0.539187	0.029207
C86	C	-0.329532	1.039187	0.529207
C87	C	-0.829525	0.460387	0.029204
C88	C	-0.329525	0.960387	0.529204
C89	C	-0.820206	0.420982	0.092496
C90	C	-0.320206	0.920982	0.592496
C91	C	-0.867614	0.703408	0.045144
C92	C	-0.367614	1.203408	0.545144
C93	C	-0.867614	0.782211	0.045139
C94	C	-0.367614	1.282211	0.545139
C95	C	-0.772849	0.782241	0.139849
C96	C	-0.272849	1.282241	0.639849
C97	C	-0.772846	0.703439	0.139847
C98	C	-0.272846	1.203439	0.639847
C99	C	-0.820233	0.664027	0.092495
C100	C	-0.320233	1.164027	0.592495
C101	C	-0.824040	-0.068449	-0.147828
C102	C	-0.324040	0.431551	0.352172
C103	C	-0.822971	-0.068454	-0.220274
C104	C	-0.322971	0.431546	0.279726
C105	C	-0.822432	-0.000215	-0.256511
C106	C	-0.322432	0.499785	0.243489
C107	C	-0.822944	0.068034	-0.220295
C108	C	-0.322944	0.568034	0.279705
C109	C	-0.824006	0.068037	-0.147849
C110	C	-0.324006	0.568037	0.352151
C111	C	-0.861426	0.052050	-0.376745
C112	C	-0.361426	0.552050	0.123255
C113	C	-0.860369	0.052044	-0.449190
C114	C	-0.360369	0.552044	0.050810
C115	C	-0.819155	-0.000223	-0.479957
C116	C	-0.319155	0.499777	0.020043
C117	C	-0.779007	-0.052496	-0.438272
C118	C	-0.279007	0.447504	0.061728
C119	C	-0.780069	-0.052493	-0.365827
C120	C	-0.280069	0.447507	0.134173
C121	C	-0.821281	-0.000211	-0.335066
C122	C	-0.321281	0.499789	0.164934
C123	C	-0.817479	-0.068474	-0.594719
C124	C	-0.317479	0.431526	-0.094719
C125	C	-0.816406	-0.068476	-0.667166
C126	C	-0.316406	0.431524	-0.167166
C127	C	-0.816386	0.068014	-0.667186
C128	C	-0.316386	0.568014	-0.167186
C129	C	-0.817452	0.068014	-0.594740
C130	C	-0.317452	0.568014	-0.094740
C131	C	-0.818002	-0.000232	-0.558511
C132	C	-0.318002	0.499768	-0.058511
C133	C	-0.814739	-0.000229	0.219498
C134	C	-0.314739	0.499771	0.719498
C135	C	-0.815866	-0.000237	0.296602
C136	C	-0.315866	0.499763	0.796602
H137	H	-0.593981	-0.000189	0.211581
H138	H	-0.093981	0.499811	0.711581
H139	H	-0.803340	0.571240	0.207314
H140	H	-0.303340	1.071240	0.707314
H141	H	-0.462555	-0.000204	0.209652
H142	H	0.037445	0.499796	0.709652
F143	F	-0.189045	-0.000241	-0.040368
F144	F	0.310955	0.499759	0.459632
F145	F	-0.824553	0.140671	-0.109313
F146	F	-0.324553	0.640671	0.390687
F147	F	-0.815852	-0.141111	-0.705700
F148	F	-0.315852	0.358889	-0.205700
H149	H	-0.906197	0.671317	0.006585
H150	H	-0.406197	1.171317	0.506585
H151	H	-0.374097	0.079358	0.181436
H152	H	0.125903	0.579358	0.681436
F153	F	-0.839442	0.581126	-0.038149
F154	F	-0.339442	1.081126	0.461851
F155	F	-0.903100	0.107674	-0.493548
F156	F	-0.403100	0.607674	0.006452
H157	H	-0.242665	0.079334	0.179506
H158	H	0.257335	0.579334	0.679506
H159	H	-0.624757	-0.000149	-0.018124
H160	H	-0.124757	0.499851	0.481876
F161	F	-0.258903	-0.090793	-0.008707
F162	F	0.241097	0.409207	0.491293
H163	H	-0.824486	-0.124020	-0.118335
H164	H	-0.324486	0.375980	0.381665
H165	H	-0.745447	-0.095057	-0.463321
H166	H	-0.245447	0.404943	0.036679
H167	H	-0.147095	-0.000262	0.205029
H168	H	0.352905	0.499738	0.705029
H169	H	-0.747378	-0.095054	-0.331889
H170	H	-0.247378	0.404946	0.168111
F171	F	-0.801048	0.418433	0.223137
F172	F	-0.301048	0.918433	0.723137
H173	H	-0.015669	-0.000281	0.203100
H174	H	0.484331	0.499719	0.703100
F175	F	-0.822366	0.140658	-0.258861
F176	F	-0.322366	0.640658	0.241139
F177	F	-0.722416	0.661526	0.190241
F178	F	-0.222416	1.161526	0.690241
H179	H	-0.906157	0.185228	0.006579
H180	H	-0.406157	0.685228	0.506579
F181	F	-0.039502	-0.000266	-0.042562
F182	F	0.460498	0.499734	0.457438
F183	F	-0.722388	0.338102	0.190233
F184	F	-0.222388	0.838102	0.690233
H185	H	-0.734215	0.185285	0.178389
H186	H	-0.234215	0.685285	0.678389
H187	H	-0.906198	0.814274	0.006581
H188	H	-0.406198	1.314274	0.506581
F189	F	-0.408444	-0.090760	-0.006520
F190	F	0.091556	0.409240	0.493480
H191	H	-0.493322	-0.000194	-0.020044
H192	H	0.006678	0.499806	0.479956
H193	H	-0.817878	0.123583	-0.565260
H194	H	-0.317878	0.623583	-0.065260
H195	H	-0.906166	0.328185	0.006578
H196	H	-0.406166	0.828185	0.506578
H197	H	-0.837103	0.428314	-0.022328
H198	H	-0.337103	0.928314	0.477672
F199	F	-0.722425	0.824190	0.190242
F200	F	-0.222425	1.324190	0.690242
F201	F	-0.822422	-0.141088	-0.258817
F202	F	-0.322422	0.358912	0.241183
H203	H	-0.817923	-0.124044	-0.565220
H204	H	-0.317923	0.375956	-0.065220
F205	F	-0.815809	0.140639	-0.705747
F206	F	-0.315809	0.640639	-0.205747
H207	H	-0.894987	0.094617	-0.351701
H208	H	-0.394987	0.594617	0.148299
