data_functionalizedCrystal
_audit_creation_method	'MofGen! by Chris Wilmer'
_symmetry_space_group_name_H-M	'P1'
_symmetry_Int_Tables_number	1
_symmetry_cell_setting	triclinic
loop_
_symmetry_equiv_pos_as_xyz
  x,y,z
_cell_length_a	19.121368
_cell_length_b	21.395362
_cell_length_c	21.395355
_cell_angle_alpha	90.043940
_cell_angle_beta	87.554239
_cell_angle_gamma	87.543950
loop_
_atom_site_label
_atom_site_type_symbol
_atom_site_fract_x
_atom_site_fract_y
_atom_site_fract_z
Zn1	Zn	0.279399	0.947354	0.344002
Zn2	Zn	0.779399	1.447354	0.844002
Zn3	Zn	0.396832	0.942840	0.234777
Zn4	Zn	0.896832	1.442840	0.734777
Zn5	Zn	0.279431	0.842567	0.239202
Zn6	Zn	0.779431	1.342567	0.739202
Zn7	Zn	0.396846	0.838121	0.339481
Zn8	Zn	0.896846	1.338121	0.839481
O9	O	0.338127	0.892721	0.289366
O10	O	0.838127	1.392721	0.789366
O11	O	0.294957	1.034433	0.329553
O12	O	0.794957	1.534433	0.829553
O13	O	0.381266	0.929511	0.147686
O14	O	0.881266	1.429511	0.647686
O15	O	0.181142	0.860217	0.256849
O16	O	0.681142	1.360217	0.756849
O17	O	0.381234	1.031118	0.249306
O18	O	0.881234	1.531118	0.749306
O19	O	0.181118	0.937203	0.333845
O20	O	0.681118	1.437203	0.833845
O21	O	0.295012	0.855840	0.150937
O22	O	0.795012	1.355840	0.650937
O23	O	0.295026	0.754299	0.252464
O24	O	0.795026	1.254299	0.752464
O25	O	0.381259	0.852639	0.427759
O26	O	0.881259	1.352639	0.927759
O27	O	0.381291	0.751032	0.326139
O28	O	0.881291	1.251032	0.826139
O29	O	0.294971	0.932892	0.431081
O30	O	0.794971	1.432892	0.931081
O31	O	0.495119	0.925200	0.244921
O32	O	0.995119	1.425200	0.744921
O33	O	0.495129	0.848263	0.321847
O34	O	0.995129	1.348263	0.821847
C35	C	0.338164	0.729932	0.289291
C36	C	0.838164	1.229932	0.789291
C37	C	0.338197	0.660289	0.289274
C38	C	0.838197	1.160289	0.789274
C39	C	0.154933	0.899709	0.296345
C40	C	0.654933	1.399709	0.796345
C41	C	0.076867	0.902687	0.299319
C42	C	0.576867	1.402687	0.799319
C43	C	0.383174	0.625889	0.327574
C44	C	0.883174	1.125889	0.827574
C45	C	0.383157	0.560454	0.327602
C46	C	0.883157	1.060454	0.827602
C47	C	0.338170	0.529422	0.289320
C48	C	0.838170	1.029422	0.789320
C49	C	0.293184	0.563830	0.251017
C50	C	0.793184	1.063830	0.751017
C51	C	0.293197	0.629263	0.250994
C52	C	0.793197	1.129263	0.750994
C53	C	0.332512	0.425910	0.233129
C54	C	0.832512	0.925910	0.733129
C55	C	0.332503	0.360477	0.233150
C56	C	0.832503	0.860477	0.733150
C57	C	0.338124	0.327603	0.289391
C58	C	0.838124	0.827603	0.789391
C59	C	0.343768	0.360169	0.345610
C60	C	0.843768	0.860169	0.845610
C61	C	0.343782	0.425602	0.345588
C62	C	0.843782	0.925602	0.845588
C63	C	0.338150	0.458470	0.289340
C64	C	0.838150	0.958470	0.789340
C65	C	0.383085	0.222251	0.327725
C66	C	0.883085	0.722251	0.827725
C67	C	0.383063	0.156815	0.327755
C68	C	0.883063	0.656815	0.827755
C69	C	0.293093	0.160192	0.251164
C70	C	0.793093	0.660192	0.751164
C71	C	0.293112	0.225626	0.251140
C72	C	0.793112	0.725626	0.751140
C73	C	0.338112	0.256652	0.289419
C74	C	0.838112	0.756652	0.789419
C75	C	0.040203	0.864006	0.260630
C76	C	0.540203	1.364006	0.760630
C77	C	-0.033149	0.866804	0.263431
C78	C	0.466851	1.366804	0.763431
C79	C	-0.069835	0.908285	0.304918
C80	C	0.430165	1.408285	0.804918
C81	C	-0.033165	0.946968	0.343611
C82	C	0.466835	1.446968	0.843611
C83	C	0.040185	0.944167	0.340813
C84	C	0.540185	1.444167	0.840813
C85	C	-0.291306	0.918744	0.315375
C86	C	0.208694	1.418744	0.815375
C87	C	-0.364661	0.921544	0.318169
C88	C	0.135339	1.421544	0.818169
C89	C	-0.364640	0.841378	0.237989
C90	C	0.135360	1.341378	0.737989
C91	C	-0.291288	0.838584	0.235192
C92	C	0.208712	1.338584	0.735192
C93	C	-0.254625	0.877264	0.273887
C94	C	0.245375	1.377264	0.773887
C95	C	-0.144812	0.911147	0.307781
C96	C	0.355188	1.411147	0.807781
C97	C	-0.179649	0.874399	0.271027
C98	C	0.320351	1.374399	0.771027
C99	C	0.520608	0.885776	0.282427
C100	C	1.020608	1.385776	0.782427
C101	C	0.598675	0.882863	0.279480
C102	C	1.098675	1.382863	0.779480
C103	C	0.338113	0.892773	0.452789
C104	C	0.838113	1.392773	0.952789
C105	C	0.338107	0.892796	0.522431
C106	C	0.838107	1.392796	1.022431
C107	C	0.338090	1.056145	0.289440
C108	C	0.838090	1.556145	0.789440
C109	C	0.338075	1.125787	0.289472
C110	C	0.838075	1.625787	0.789472
C111	C	0.338091	0.892706	0.126579
C112	C	0.838091	1.392706	0.626579
C113	C	0.337899	0.892813	0.056946
C114	C	0.837899	1.392813	0.556946
C115	C	0.293174	0.934581	0.556875
C116	C	0.793174	1.434581	1.056875
C117	C	0.293144	0.934582	0.622312
C118	C	0.793144	1.434582	1.122312
C119	C	0.338059	0.892802	0.653301
C120	C	0.838059	1.392802	1.153301
C121	C	0.382994	0.851009	0.618849
C122	C	0.882994	1.351009	1.118849
C123	C	0.383018	0.851005	0.553414
C124	C	0.883018	1.351005	1.053414
C125	C	0.401301	0.885448	0.754570
C126	C	0.901301	1.385448	1.254570
C127	C	0.401278	0.885456	0.820003
C128	C	0.901278	1.385456	1.320003
C129	C	0.337985	0.892809	0.855125
C130	C	0.837985	1.392809	1.355125
C131	C	0.274712	0.900167	0.824804
C132	C	0.774712	1.400167	1.324804
C133	C	0.274736	0.900164	0.759369
C134	C	0.774736	1.400164	1.259369
C135	C	0.338038	0.892801	0.724254
C136	C	0.838038	1.392801	1.224254
C137	C	0.293016	0.934597	0.960523
C138	C	0.793016	1.434597	1.460523
C139	C	0.292984	0.934593	1.025961
C140	C	0.792984	1.434593	1.525961
C141	C	0.382841	0.851023	1.022497
C142	C	0.882841	1.351023	1.522497
C143	C	0.382866	0.851024	0.957060
C144	C	0.882866	1.351024	1.457060
C145	C	0.337954	0.892815	0.926077
C146	C	0.837954	1.392815	1.426077
H147	H	0.419816	0.651146	0.358745
H148	H	0.919816	1.151146	0.858745
H149	H	0.419688	0.128808	0.358947
H150	H	0.919688	0.628808	0.858947
H151	H	-0.394527	0.955325	0.351954
H152	H	0.105473	1.455325	0.851954
H153	H	0.256554	0.538559	0.219848
H154	H	0.756554	1.038559	0.719848
O155	O	-0.072697	0.825094	0.221693
O156	O	0.427303	1.325094	0.721693
H157	H	-0.034864	0.795788	0.192365
H158	H	0.465136	1.295788	0.692365
O159	O	0.431483	0.805925	0.516269
O160	O	0.931483	1.305925	1.016269
H161	H	0.467226	0.832594	0.485119
H162	H	0.967226	1.332594	0.985119
O163	O	0.079738	0.985884	0.382542
O164	O	0.579738	1.485884	0.882542
H165	H	0.065660	1.035595	0.372354
H166	H	0.565660	1.535595	0.872354
O167	O	0.349826	0.324723	0.406278
O168	O	0.849826	0.824723	0.906278
H169	H	0.348858	0.273753	0.396853
H170	H	0.848858	0.773753	0.896853
O171	O	0.244606	0.262725	0.209817
O172	O	0.744606	0.762725	0.709817
H173	H	0.208916	0.293939	0.239253
H174	H	0.708916	0.793939	0.739253
O175	O	-0.251719	0.793841	0.190447
O176	O	0.248281	1.293841	0.690447
H177	H	-0.289538	0.767409	0.164017
H178	H	0.210462	1.267409	0.664017
O179	O	0.206499	0.908097	0.726663
O180	O	0.706499	1.408097	1.226663
H181	H	0.162480	0.913208	0.762074
H182	H	0.662480	1.413208	1.262074
O183	O	0.206436	0.908098	0.862671
O184	O	0.706436	1.408098	1.362671
H185	H	0.171966	0.869576	0.851376
H186	H	0.671966	1.369576	1.351376
O187	O	0.349853	0.460727	0.406222
O188	O	0.849853	0.960727	0.906222
H189	H	0.399855	0.446270	0.427637
H190	H	0.899855	0.946270	0.927637
H191	H	0.256461	0.134926	0.219996
H192	H	0.756461	0.634926	0.719996
H193	H	-0.149776	0.840622	0.237252
H194	H	0.350224	1.340622	0.737252
H195	H	0.256442	0.968622	0.935295
H196	H	0.756442	1.468622	1.435295
H197	H	-0.174688	0.944923	0.341559
H198	H	0.325312	1.444923	0.841559
H199	H	0.327912	0.333967	0.187373
H200	H	0.827912	0.833967	0.687373
O201	O	0.079761	0.819265	0.215877
O202	O	0.579761	1.319265	0.715877
H203	H	0.113167	0.846024	0.182733
H204	H	0.613167	1.346024	0.682733
O205	O	0.431697	0.523338	0.368887
O206	O	0.931697	1.023338	0.868887
H207	H	0.463001	0.555905	0.395490
H208	H	0.963001	1.055905	0.895490
O209	O	0.326451	0.461366	0.172466
O210	O	0.826451	0.961366	0.672466
H211	H	0.322536	0.427730	0.133377
H212	H	0.822536	0.927730	0.633377
H213	H	0.256569	0.657272	0.219806
H214	H	0.756569	1.157272	0.719806
O215	O	-0.404181	0.799655	0.196259
O216	O	0.095819	1.299655	0.696259
H217	H	-0.461350	0.808566	0.205176
H218	H	0.038650	1.308566	0.705176
O219	O	0.244663	0.979641	0.659470
O220	O	0.744663	1.479641	1.159470
H221	H	0.252184	0.972614	0.710176
H222	H	0.752184	1.472614	1.210176
H223	H	0.452829	0.879293	0.725979
H224	H	0.952829	1.379293	1.225979
H225	H	0.419562	0.816990	0.644085
H226	H	0.919562	1.316990	1.144085
O227	O	0.431608	0.255723	0.369017
O228	O	0.931608	0.755723	0.869017
H229	H	0.462873	0.220806	0.395664
H230	H	0.962873	0.720806	0.895664
O231	O	0.244730	0.979649	0.523459
O232	O	0.744730	1.479649	1.023459
H233	H	0.276170	1.010328	0.492483
H234	H	0.776170	1.510328	0.992483
H235	H	-0.261464	0.950247	0.346877
H236	H	0.238536	1.450247	0.846877
H237	H	0.419459	0.817001	0.929016
H238	H	0.919459	1.317001	1.429016
H239	H	-0.063039	0.980741	0.377394
H240	H	0.436961	1.480741	0.877394
O241	O	0.244521	0.979665	1.063116
O242	O	0.744521	1.479665	1.563116
H243	H	0.213303	1.008726	1.030575
H244	H	0.713303	1.508726	1.530575
H245	H	0.452798	0.879468	0.844685
H246	H	0.952798	1.379468	1.344685
O247	O	0.431286	0.805958	1.055910
O248	O	0.931286	1.305958	1.555910
H249	H	0.423724	0.812982	1.107199
H250	H	0.923724	1.312982	1.607199
