data_functionalizedCrystal
_audit_creation_method	'MofGen! by Chris Wilmer'
_symmetry_space_group_name_H-M	'P1'
_symmetry_Int_Tables_number	1
_symmetry_cell_setting	triclinic
loop_
_symmetry_equiv_pos_as_xyz
  x,y,z
_cell_length_a	19.121112
_cell_length_b	19.121063
_cell_length_c	21.395355
_cell_angle_alpha	87.579260
_cell_angle_beta	92.462121
_cell_angle_gamma	90.126867
loop_
_atom_site_label
_atom_site_type_symbol
_atom_site_fract_x
_atom_site_fract_y
_atom_site_fract_z
Zn1	Zn	1.059885	-0.324994	0.406891
Zn2	Zn	1.309885	-0.074994	0.656891
Zn3	Zn	1.559885	0.175006	0.906891
Zn4	Zn	1.809885	0.425006	1.156891
Zn5	Zn	1.054782	-0.442210	0.306376
Zn6	Zn	1.304782	-0.192210	0.556376
Zn7	Zn	1.554782	0.057790	0.806376
Zn8	Zn	1.804782	0.307790	1.056376
Zn9	Zn	0.942638	-0.319984	0.297482
Zn10	Zn	1.192638	-0.069984	0.547482
Zn11	Zn	1.442638	0.180016	0.797482
Zn12	Zn	1.692638	0.430016	1.047482
Zn13	Zn	0.937610	-0.437185	0.406473
Zn14	Zn	1.187610	-0.187185	0.656473
Zn15	Zn	1.437610	0.062815	0.906473
Zn16	Zn	1.687610	0.312815	1.156473
O17	O	0.998729	-0.381093	0.354306
O18	O	1.248729	-0.131093	0.604306
O19	O	1.498729	0.118907	0.854306
O20	O	1.748729	0.368907	1.104306
O21	O	1.157314	-0.344744	0.397455
O22	O	1.407314	-0.094744	0.647455
O23	O	1.657314	0.155256	0.897455
O24	O	1.907314	0.405256	1.147455
O25	O	1.039875	-0.426003	0.217517
O26	O	1.289875	-0.176003	0.467517
O27	O	1.539875	0.073997	0.717517
O28	O	1.789875	0.323997	0.967517
O29	O	0.962431	-0.222544	0.308448
O30	O	1.212431	0.027456	0.558448
O31	O	1.462431	0.277456	0.808448
O32	O	1.712431	0.527456	1.058448
O33	O	1.153565	-0.430862	0.323607
O34	O	1.403565	-0.180862	0.573607
O35	O	1.653565	0.069138	0.823607
O36	O	1.903565	0.319138	1.073607
O37	O	1.048572	-0.226226	0.388830
O38	O	1.298572	0.023774	0.638830
O39	O	1.548572	0.273774	0.888830
O40	O	1.798572	0.523774	1.138830
O41	O	0.957483	-0.336204	0.210983
O42	O	1.207483	-0.086204	0.460983
O43	O	1.457483	0.163796	0.710983
O44	O	1.707483	0.413796	0.960983
O45	O	0.843866	-0.331330	0.308043
O46	O	1.093866	-0.081330	0.558043
O47	O	1.343866	0.168670	0.808043
O48	O	1.593866	0.418670	1.058043
O49	O	0.953862	-0.422296	0.494207
O50	O	1.203862	-0.172296	0.744207
O51	O	1.453862	0.077704	0.994207
O52	O	1.703862	0.327704	1.244207
O53	O	0.840172	-0.417437	0.388118
O54	O	1.090172	-0.167437	0.638118
O55	O	1.340172	0.082563	0.888118
O56	O	1.590172	0.332563	1.138118
O57	O	1.043697	-0.339870	0.494514
O58	O	1.293697	-0.089870	0.744514
O59	O	1.543697	0.160130	0.994514
O60	O	1.793697	0.410130	1.244514
O61	O	1.035000	-0.539648	0.323201
O62	O	1.285000	-0.289648	0.573201
O63	O	1.535000	-0.039648	0.823201
O64	O	1.785000	0.210352	1.073201
O65	O	0.948914	-0.535956	0.396742
O66	O	1.198914	-0.285956	0.646742
O67	O	1.448914	-0.035956	0.896742
O68	O	1.698914	0.214044	1.146742
C69	C	0.816581	-0.373295	0.347070
C70	C	1.066581	-0.123295	0.597070
C71	C	1.316581	0.126705	0.847070
C72	C	1.566581	0.376705	1.097070
C73	C	0.738657	-0.369976	0.343990
C74	C	0.988657	-0.119976	0.593990
C75	C	1.238657	0.130024	0.843990
C76	C	1.488657	0.380024	1.093990
C77	C	0.298030	-0.348919	0.324482
C78	C	0.548030	-0.098919	0.574482
C79	C	0.798030	0.151081	0.824482
C80	C	1.048030	0.401081	1.074482
C81	C	0.371248	-0.352041	0.327380
C82	C	0.621248	-0.102041	0.577380
C83	C	0.871248	0.147959	0.827380
C84	C	1.121248	0.397959	1.077380
C85	C	0.405946	-0.398508	0.370457
C86	C	0.655946	-0.148508	0.620457
C87	C	0.905946	0.101492	0.870457
C88	C	1.155946	0.351492	1.120457
C89	C	0.367423	-0.441849	0.410644
C90	C	0.617423	-0.191849	0.660644
C91	C	0.867423	0.058151	0.910644
C92	C	1.117423	0.308151	1.160644
C93	C	0.294207	-0.438723	0.407749
C94	C	0.544207	-0.188723	0.657749
C95	C	0.794207	0.061277	0.907749
C96	C	1.044207	0.311277	1.157749
C97	C	0.626918	-0.410191	0.381282
C98	C	0.876918	-0.160191	0.631282
C99	C	1.126918	0.089809	0.881282
C100	C	1.376918	0.339809	1.131282
C101	C	0.700139	-0.413316	0.384173
C102	C	0.950139	-0.163316	0.634173
C103	C	1.200139	0.086684	0.884173
C104	C	1.450139	0.336684	1.134173
C105	C	0.703958	-0.323507	0.300909
C106	C	0.953958	-0.073507	0.550909
C107	C	1.203958	0.176493	0.800909
C108	C	1.453958	0.426493	1.050909
C109	C	0.630740	-0.320387	0.298016
C110	C	0.880740	-0.070387	0.548016
C111	C	1.130740	0.179613	0.798016
C112	C	1.380740	0.429613	1.048016
C113	C	0.592224	-0.363726	0.338205
C114	C	0.842224	-0.113726	0.588205
C115	C	1.092224	0.136274	0.838205
C116	C	1.342224	0.386274	1.088205
C117	C	0.480787	-0.401702	0.373418
C118	C	0.730787	-0.151702	0.623418
C119	C	0.980787	0.098298	0.873418
C120	C	1.230787	0.348298	1.123418
C121	C	0.517385	-0.360528	0.335246
C122	C	0.767385	-0.110528	0.585246
C123	C	1.017385	0.139472	0.835246
C124	C	1.267385	0.389472	1.085246
C125	C	0.990877	-0.563240	0.360906
C126	C	1.240877	-0.313240	0.610906
C127	C	1.490877	-0.063240	0.860906
C128	C	1.740877	0.186760	1.110906
C129	C	0.987581	-0.641166	0.363753
C130	C	1.237581	-0.391166	0.613753
C131	C	1.487581	-0.141166	0.863753
C132	C	1.737581	0.108834	1.113753
C133	C	1.030888	-0.679676	0.326837
C134	C	1.280888	-0.429676	0.576837
C135	C	1.530888	-0.179676	0.826837
C136	C	1.780888	0.070324	1.076837
C137	C	1.027793	-0.752896	0.329518
C138	C	1.277793	-0.502896	0.579518
C139	C	1.527793	-0.252896	0.829518
C140	C	1.777793	-0.002896	1.079518
C141	C	0.981387	-0.787603	0.369113
C142	C	1.231387	-0.537603	0.619113
C143	C	1.481387	-0.287603	0.869113
C144	C	1.731387	-0.037603	1.119113
C145	C	0.938078	-0.749088	0.406034
C146	C	1.188078	-0.499088	0.656034
C147	C	1.438078	-0.249088	0.906034
C148	C	1.688078	0.000912	1.156034
C149	C	0.941178	-0.675870	0.403355
C150	C	1.191178	-0.425870	0.653355
C151	C	1.441178	-0.175870	0.903355
C152	C	1.691178	0.074130	1.153355
C153	C	0.969789	-1.008580	0.379118
C154	C	1.219789	-0.758580	0.629118
C155	C	1.469789	-0.508580	0.879118
C156	C	1.719789	-0.258580	1.129118
C157	C	0.966692	-1.081803	0.381793
C158	C	1.216692	-0.831803	0.631793
C159	C	1.466692	-0.581803	0.881793
C160	C	1.716692	-0.331803	1.131793
C161	C	1.056408	-1.085606	0.305277
C162	C	1.306408	-0.835606	0.555277
C163	C	1.556408	-0.585606	0.805277
C164	C	1.806408	-0.335606	1.055277
C165	C	1.059500	-1.012386	0.302599
C166	C	1.309500	-0.762386	0.552599
C167	C	1.559500	-0.512386	0.802599
C168	C	1.809500	-0.262386	1.052599
C169	C	1.016194	-0.973877	0.339523
C170	C	1.266194	-0.723877	0.589523
C171	C	1.516194	-0.473877	0.839523
C172	C	1.766194	-0.223877	1.089523
C173	C	0.978221	-0.862446	0.371854
C174	C	1.228221	-0.612446	0.621854
C175	C	1.478221	-0.362446	0.871854
C176	C	1.728221	-0.112446	1.121854
C177	C	1.019364	-0.899036	0.336785
C178	C	1.269364	-0.649036	0.586785
C179	C	1.519364	-0.399036	0.836785
C180	C	1.769364	-0.149036	1.086785
C181	C	1.181588	-0.388922	0.361569
C182	C	1.431588	-0.138922	0.611569
C183	C	1.681588	0.111078	0.861569
C184	C	1.931588	0.361078	1.111569
C185	C	1.259512	-0.392258	0.364665
C186	C	1.509512	-0.142258	0.614665
C187	C	1.759512	0.107742	0.864665
C188	C	2.009512	0.357742	1.114665
C189	C	0.998788	-0.381082	0.517731
C190	C	1.248788	-0.131082	0.767731
C191	C	1.498788	0.118918	1.017731
C192	C	1.748788	0.368918	1.267731
C193	C	0.998813	-0.381077	0.587373
C194	C	1.248813	-0.131077	0.837373
C195	C	1.498813	0.118923	1.087373
C196	C	1.748813	0.368923	1.337373
C197	C	1.006632	-0.198236	0.347694
C198	C	1.256632	0.051764	0.597694
C199	C	1.506632	0.301764	0.847694
C200	C	1.756632	0.551764	1.097694
C201	C	1.009999	-0.120314	0.344876
C202	C	1.259999	0.129686	0.594876
C203	C	1.509999	0.379686	0.844876
C204	C	1.759999	0.629686	1.094876
C205	C	0.998713	-0.381056	0.191516
C206	C	1.248713	-0.131056	0.441516
C207	C	1.498713	0.118944	0.691516
C208	C	1.748713	0.368944	0.941516
C209	C	0.998832	-0.380869	0.121872
C210	C	1.248832	-0.130869	0.371872
C211	C	1.498832	0.119131	0.621872
C212	C	1.748832	0.369131	0.871872
C213	C	1.045588	-0.338156	0.620247
C214	C	1.295588	-0.088156	0.870247
C215	C	1.545588	0.161844	1.120247
C216	C	1.795588	0.411844	1.370247
C217	C	1.045589	-0.338125	0.685681
C218	C	1.295589	-0.088125	0.935681
C219	C	1.545589	0.161875	1.185681
C220	C	1.795589	0.411875	1.435681
C221	C	0.998820	-0.381029	0.718240
C222	C	1.248820	-0.131029	0.968240
C223	C	1.498820	0.118971	1.218240
C224	C	1.748820	0.368971	1.468240
C225	C	0.952036	-0.423953	0.685358
C226	C	1.202036	-0.173953	0.935358
C227	C	1.452036	0.076047	1.185358
C228	C	1.702036	0.326047	1.435358
C229	C	0.952033	-0.423977	0.619924
C230	C	1.202033	-0.173977	0.869924
C231	C	1.452033	0.076023	1.119924
C232	C	1.702033	0.326023	1.369924
C233	C	0.990563	-0.443917	0.823982
C234	C	1.240563	-0.193917	1.073982
C235	C	1.490563	0.056083	1.323982
C236	C	1.740563	0.306083	1.573982
C237	C	0.990572	-0.443894	0.889415
C238	C	1.240572	-0.193894	1.139415
C239	C	1.490572	0.056106	1.389415
C240	C	1.740572	0.306106	1.639415
C241	C	0.998828	-0.380955	0.920058
C242	C	1.248828	-0.130955	1.170058
C243	C	1.498828	0.119045	1.420058
C244	C	1.748828	0.369045	1.670058
C245	C	1.007090	-0.318037	0.885261
C246	C	1.257090	-0.068037	1.135261
C247	C	1.507090	0.181963	1.385261
C248	C	1.757090	0.431963	1.635261
C249	C	1.007086	-0.318061	0.819828
C250	C	1.257086	-0.068061	1.069828
C251	C	1.507086	0.181939	1.319828
C252	C	1.757086	0.431939	1.569828
C253	C	0.998819	-0.381008	0.789191
C254	C	1.248819	-0.131008	1.039191
C255	C	1.498819	0.118992	1.289191
C256	C	1.748819	0.368992	1.539191
C257	C	1.045606	-0.337998	1.023883
C258	C	1.295606	-0.087998	1.273883
C259	C	1.545606	0.162002	1.523883
C260	C	1.795606	0.412002	1.773883
C261	C	1.045602	-0.337966	1.089318
C262	C	1.295602	-0.087966	1.339318
C263	C	1.545602	0.162034	1.589318
C264	C	1.795602	0.412034	1.839318
C265	C	0.952053	-0.423800	1.088994
C266	C	1.202053	-0.173800	1.338994
C267	C	1.452053	0.076200	1.588994
C268	C	1.702053	0.326200	1.838994
C269	C	0.952054	-0.423825	1.023560
C270	C	1.202054	-0.173825	1.273560
C271	C	1.452054	0.076175	1.523560
C272	C	1.702054	0.326175	1.773560
C273	C	0.998834	-0.380925	0.991008
C274	C	1.248834	-0.130925	1.241008
C275	C	1.498834	0.119075	1.491008
C276	C	1.748834	0.369075	1.741008
H277	H	0.735326	-0.288222	0.268191
H278	H	0.985326	-0.038222	0.518191
H279	H	1.235326	0.211778	0.768191
H280	H	1.485326	0.461778	1.018191
H281	H	0.983849	-0.495126	0.917742
H282	H	1.233849	-0.245126	1.167742
H283	H	1.483849	0.004874	1.417742
H284	H	1.733849	0.254874	1.667742
H285	H	0.489130	-0.322692	0.300176
H286	H	0.739130	-0.072692	0.550176
H287	H	0.989130	0.177308	0.800176
H288	H	1.239130	0.427308	1.050176
H289	H	0.395681	-0.479680	0.445720
H290	H	0.645681	-0.229680	0.695720
H291	H	0.895681	0.020320	0.945720
H292	H	1.145681	0.270320	1.195720
N293	N	0.888022	-0.786521	0.448736
N294	N	1.138022	-0.536521	0.698736
N295	N	1.388022	-0.286521	0.948736
N296	N	1.638022	-0.036521	1.198736
H297	H	0.861057	-0.751013	0.471717
H298	H	1.111057	-0.501013	0.721717
H299	H	1.361057	-0.251013	0.971717
H300	H	1.611057	-0.001013	1.221717
H301	H	0.915257	-0.818081	0.479995
H302	H	1.165257	-0.568081	0.729995
H303	H	1.415257	-0.318081	0.979995
H304	H	1.665257	-0.068081	1.229995
H305	H	1.013814	-0.266786	0.910209
H306	H	1.263814	-0.016786	1.160209
H307	H	1.513814	0.233214	1.410209
H308	H	1.763814	0.483214	1.660209
H309	H	0.983653	-0.495148	0.799031
H310	H	1.233653	-0.245148	1.049031
H311	H	1.483653	0.004852	1.299031
H312	H	1.733653	0.254852	1.549031
H313	H	0.940436	-0.890713	0.404091
H314	H	1.190436	-0.640713	0.654091
H315	H	1.440436	-0.390713	0.904091
H316	H	1.690436	-0.140713	1.154091
N317	N	1.080938	-0.642244	0.284128
N318	N	1.330938	-0.392244	0.534128
N319	N	1.580938	-0.142244	0.784128
N320	N	1.830938	0.107756	1.034128
H321	H	1.107905	-0.677753	0.261150
H322	H	1.357905	-0.427753	0.511150
H323	H	1.607905	-0.177753	0.761150
H324	H	1.857905	0.072247	1.011150
H325	H	1.114655	-0.613210	0.309832
H326	H	1.364655	-0.363210	0.559832
H327	H	1.614655	-0.113210	0.809832
H328	H	1.864655	0.136790	1.059832
H329	H	1.083677	-0.303170	0.712452
H330	H	1.333677	-0.053170	0.962452
H331	H	1.583677	0.196830	1.212452
H332	H	1.833677	0.446830	1.462452
N333	N	0.252655	-0.485467	0.451085
N334	N	0.502655	-0.235467	0.701085
N335	N	0.752655	0.014533	0.951085
N336	N	1.002655	0.264533	1.201085
H337	H	0.265890	-0.475202	0.495982
H338	H	0.515890	-0.225202	0.745982
H339	H	0.765890	0.024798	0.995982
H340	H	1.015890	0.274798	1.245982
H341	H	0.263247	-0.536067	0.443543
H342	H	0.513247	-0.286067	0.693543
H343	H	0.763247	-0.036067	0.943543
H344	H	1.013247	0.213933	1.193543
H345	H	0.509047	-0.439537	0.408490
H346	H	0.759047	-0.189537	0.658490
H347	H	1.009047	0.060463	0.908490
H348	H	1.259047	0.310463	1.158490
N349	N	1.109563	-0.974956	0.259902
N350	N	1.359563	-0.724956	0.509902
N351	N	1.609563	-0.474956	0.759902
N352	N	1.859563	-0.224956	1.009902
H353	H	1.098168	-0.987267	0.215162
H354	H	1.348168	-0.737267	0.465162
H355	H	1.598168	-0.487267	0.715162
H356	H	1.848168	-0.237267	0.965162
H357	H	1.159088	-0.989813	0.272185
H358	H	1.409088	-0.739813	0.522185
H359	H	1.659088	-0.489813	0.772185
H360	H	1.909088	-0.239813	1.022185
H361	H	1.091666	-1.116968	0.275218
H362	H	1.341666	-0.866968	0.525218
H363	H	1.591666	-0.616968	0.775218
H364	H	1.841666	-0.366968	1.025218
H365	H	0.728389	-0.451155	0.419255
H366	H	0.978389	-0.201155	0.669255
H367	H	1.228389	0.048845	0.919255
H368	H	1.478389	0.298845	1.169255
N369	N	1.096040	-0.291886	0.585138
N370	N	1.346040	-0.041886	0.835138
N371	N	1.596040	0.208114	1.085138
N372	N	1.846040	0.458114	1.335138
H373	H	1.125672	-0.264690	0.615896
H374	H	1.375672	-0.014690	0.865896
H375	H	1.625672	0.235310	1.115896
H376	H	1.875672	0.485310	1.365896
H377	H	1.068905	-0.258228	0.555668
H378	H	1.318905	-0.008228	0.805668
H379	H	1.568905	0.241772	1.055668
H380	H	1.818905	0.491772	1.305668
N381	N	0.585379	-0.456946	0.424615
N382	N	0.835379	-0.206946	0.674615
N383	N	1.085379	0.043054	0.924615
N384	N	1.335379	0.293054	1.174615
H385	H	0.618473	-0.486862	0.452337
H386	H	0.868473	-0.236862	0.702337
H387	H	1.118473	0.013138	0.952337
H388	H	1.368473	0.263138	1.202337
H389	H	0.553596	-0.488044	0.399025
H390	H	0.803596	-0.238044	0.649025
H391	H	1.053596	0.011956	0.899025
H392	H	1.303596	0.261956	1.149025
H393	H	0.402606	-0.316753	0.294656
H394	H	0.652606	-0.066753	0.544656
H395	H	0.902606	0.183247	0.794656
H396	H	1.152606	0.433247	1.044656
H397	H	1.083694	-0.303062	0.997378
H398	H	1.333694	-0.053062	1.247378
H399	H	1.583694	0.196938	1.497378
H400	H	1.833694	0.446938	1.747378
H401	H	0.602493	-0.282554	0.262934
H402	H	0.852493	-0.032554	0.512934
H403	H	1.102493	0.217446	0.762934
H404	H	1.352493	0.467446	1.012934
N405	N	1.015999	-0.250206	0.782296
N406	N	1.265999	-0.000206	1.032296
N407	N	1.515999	0.249794	1.282296
N408	N	1.765999	0.499794	1.532296
H409	H	1.021232	-0.210328	0.811632
H410	H	1.271232	0.039672	1.061632
H411	H	1.521232	0.289672	1.311632
H412	H	1.771232	0.539672	1.561632
H413	H	0.973564	-0.241878	0.753201
H414	H	1.223564	0.008122	1.003201
H415	H	1.473564	0.258122	1.253201
H416	H	1.723564	0.508122	1.503201
H417	H	0.913940	-0.458927	0.593158
H418	H	1.163940	-0.208927	0.843158
H419	H	1.413940	0.041073	1.093158
H420	H	1.663940	0.291073	1.343158
N421	N	1.096058	-0.291665	1.124769
N422	N	1.346058	-0.041665	1.374769
N423	N	1.596058	0.208335	1.624769
N424	N	1.846058	0.458335	1.874769
H425	H	1.127315	-0.321535	1.154256
H426	H	1.377315	-0.071535	1.404256
H427	H	1.627315	0.178465	1.654256
H428	H	1.877315	0.428465	1.904256
H429	H	1.068927	-0.257947	1.149555
H430	H	1.318927	-0.007947	1.399555
H431	H	1.568927	0.242053	1.649555
H432	H	1.818927	0.492053	1.899555
H433	H	1.063058	-0.784248	0.299456
H434	H	1.313058	-0.534248	0.549456
H435	H	1.563058	-0.284248	0.799456
H436	H	1.813058	-0.034248	1.049456
H437	H	0.928911	-1.110060	0.414047
H438	H	1.178911	-0.860060	0.664047
H439	H	1.428911	-0.610060	0.914047
H440	H	1.678911	-0.360060	1.164047
H441	H	0.934526	-0.977231	0.409181
H442	H	1.184526	-0.727231	0.659181
H443	H	1.434526	-0.477231	0.909181
H444	H	1.684526	-0.227231	1.159181
H445	H	0.913956	-0.458883	0.711871
H446	H	1.163956	-0.208883	0.961871
H447	H	1.413956	0.041117	1.211871
H448	H	1.663956	0.291117	1.461871
N449	N	0.901603	-0.470070	1.124101
N450	N	1.151603	-0.220070	1.374101
N451	N	1.401603	0.029930	1.624101
N452	N	1.651603	0.279930	1.874101
H453	H	0.908701	-0.463541	1.170541
H454	H	1.158701	-0.213541	1.420541
H455	H	1.408701	0.036459	1.670541
H456	H	1.658701	0.286459	1.920541
H457	H	0.910349	-0.520611	1.114923
H458	H	1.160349	-0.270611	1.364923
H459	H	1.410349	-0.020611	1.614923
H460	H	1.660349	0.229389	1.864923
N461	N	0.901593	-0.470107	0.988097
N462	N	1.151593	-0.220107	1.238097
N463	N	1.401593	0.029893	1.488097
N464	N	1.651593	0.279893	1.738097
H465	H	0.871960	-0.497278	1.018649
H466	H	1.121960	-0.247278	1.268649
H467	H	1.371960	0.002722	1.518649
H468	H	1.621960	0.252722	1.768649
H469	H	0.928712	-0.503787	0.963262
H470	H	1.178712	-0.253787	1.213262
H471	H	1.428712	-0.003787	1.463262
H472	H	1.678712	0.246213	1.713262
H473	H	0.269783	-0.311082	0.289404
H474	H	0.519783	-0.061082	0.539404
H475	H	0.769783	0.188918	0.789404
H476	H	1.019783	0.438918	1.039404
H477	H	1.057151	-0.870775	0.304549
H478	H	1.307151	-0.620775	0.554549
H479	H	1.557151	-0.370775	0.804549
H480	H	1.807151	-0.120775	1.054549
N481	N	0.894471	-0.634330	0.443174
N482	N	1.144471	-0.384330	0.693174
N483	N	1.394471	-0.134330	0.943174
N484	N	1.644471	0.115670	1.193174
H485	H	0.864601	-0.667426	0.468664
H486	H	1.114601	-0.417426	0.718664
H487	H	1.364601	-0.167426	0.968664
H488	H	1.614601	0.082574	1.218664
H489	H	0.863325	-0.602605	0.415250
H490	H	1.113325	-0.352605	0.665250
H491	H	1.363325	-0.102605	0.915250
H492	H	1.613325	0.147395	1.165250
