data_functionalizedCrystal
_audit_creation_method	'MofGen! by Chris Wilmer'
_symmetry_space_group_name_H-M	'P1'
_symmetry_Int_Tables_number	1
_symmetry_cell_setting	triclinic
loop_
_symmetry_equiv_pos_as_xyz
  x,y,z
_cell_length_a	14.044220
_cell_length_b	14.853567
_cell_length_c	13.930277
_cell_angle_alpha	89.999243
_cell_angle_beta	89.997723
_cell_angle_gamma	88.411904
loop_
_atom_site_label
_atom_site_type_symbol
_atom_site_fract_x
_atom_site_fract_y
_atom_site_fract_z
O1	O	1.257997	0.217372	-0.079714
O2	O	1.757997	0.717372	0.420286
O3	O	0.982017	0.209528	-0.079738
O4	O	1.482017	0.709528	0.420262
O5	O	1.127379	0.082805	-0.079728
O6	O	1.627379	0.582805	0.420272
O7	O	1.112635	0.344096	-0.079724
O8	O	1.612635	0.844096	0.420276
O9	O	1.127359	0.082800	0.079934
O10	O	1.627359	0.582800	0.579934
O11	O	0.981997	0.209524	0.079923
O12	O	1.481997	0.709524	0.579923
O13	O	1.257976	0.217368	0.079948
O14	O	1.757976	0.717368	0.579948
Zn15	Zn	1.119983	0.213445	0.105286
Zn16	Zn	1.619983	0.713445	0.605286
Zn17	Zn	1.120010	0.213451	-0.105076
Zn18	Zn	1.620010	0.713451	0.394924
O19	O	1.112615	0.344091	0.079938
O20	O	1.612615	0.844091	0.579938
C21	C	1.126701	0.049161	0.000100
C22	C	1.626701	0.549161	0.500100
C23	C	1.124699	-0.051082	0.000091
C24	C	1.624699	0.448918	0.500091
C25	C	0.946688	0.206092	0.000089
C26	C	1.446688	0.706092	0.500089
C27	C	0.841449	0.195851	0.000079
C28	C	1.341449	0.695851	0.500079
C29	C	1.029888	-0.471127	0.000101
C30	C	1.529888	0.028873	0.500101
C31	C	1.202581	-0.478726	0.000116
C32	C	1.702581	0.021274	0.500116
C33	C	1.204464	-0.384543	0.000111
C34	C	1.704464	0.115457	0.500111
C35	C	1.119057	-0.333648	0.000102
C36	C	1.619057	0.166352	0.500102
C37	C	1.031768	-0.376935	0.000098
C38	C	1.531768	0.123065	0.500098
C39	C	1.291751	-0.341248	0.000124
C40	C	1.791751	0.158752	0.500124
C41	C	1.293637	-0.247060	0.000120
C42	C	1.793637	0.252940	0.500120
C43	C	1.208229	-0.196163	0.000104
C44	C	1.708229	0.303837	0.500104
C45	C	1.120937	-0.239456	0.000099
C46	C	1.620937	0.260544	0.500099
C47	C	1.035530	-0.188561	0.000090
C48	C	1.535530	0.311439	0.500090
C49	C	0.948237	-0.231852	0.000079
C50	C	1.448237	0.268148	0.500079
C51	C	0.946360	-0.326038	0.000083
C52	C	1.446360	0.173962	0.500083
C53	C	1.210105	-0.101977	0.000100
C54	C	1.710105	0.398023	0.500100
C55	C	1.037410	-0.094369	0.000088
C56	C	1.537410	0.405631	0.500088
C57	C	0.648763	0.177127	0.000098
C58	C	1.148763	0.677127	0.500098
C59	C	0.591225	0.249765	0.000103
C60	C	1.091225	0.749765	0.500103
C61	C	0.484008	0.239347	0.000114
C62	C	0.984008	0.739347	0.500114
C63	C	0.755990	0.187544	0.000088
C64	C	1.255990	0.687544	0.500088
C65	C	1.293306	0.220803	0.000118
C66	C	1.793306	0.720803	0.500118
C67	C	1.398545	0.231045	0.000122
C68	C	1.898545	0.731045	0.500122
C69	C	1.113293	0.377735	0.000108
C70	C	1.613293	0.877735	0.500108
C71	C	1.115295	0.477978	0.000110
C72	C	1.615295	0.977978	0.500110
N73	N	1.119972	0.213441	0.248852
N74	N	1.619972	0.713441	0.748852
N75	N	1.120029	0.213449	-0.248642
N76	N	1.620029	0.713449	0.251358
C77	C	1.055641	0.269540	0.701116
C78	C	1.555641	0.769540	1.201116
C79	C	1.184405	0.157357	0.701095
C80	C	1.684405	0.657357	1.201095
C81	C	1.184394	0.157353	0.600599
C82	C	1.684394	0.657353	1.100599
C83	C	1.120006	0.213445	0.550357
C84	C	1.620006	0.713445	1.050357
C85	C	1.055630	0.269540	0.600611
C86	C	1.555630	0.769540	1.100611
C87	C	1.248775	0.101266	0.550338
C88	C	1.748775	0.601266	1.050338
C89	C	1.248767	0.101260	0.449836
C90	C	1.748767	0.601260	0.949836
C91	C	1.184374	0.157348	0.399592
C92	C	1.684374	0.657348	0.899592
C93	C	1.119995	0.213445	0.449852
C94	C	1.619995	0.713445	0.949852
C95	C	1.055608	0.269536	0.399611
C96	C	1.555608	0.769536	0.899611
C97	C	0.991223	0.325629	0.449869
C98	C	1.491223	0.825629	0.949869
C99	C	0.991237	0.325627	0.550368
C100	C	1.491237	0.825627	1.050368
C101	C	1.184360	0.157349	0.299093
C102	C	1.684360	0.657349	0.799093
C103	C	1.055596	0.269536	0.299106
C104	C	1.555596	0.769536	0.799106
H105	H	0.967860	-0.052936	0.000076
H106	H	1.467860	0.447064	0.500076
H107	H	0.938819	0.371297	0.591294
H108	H	1.438819	0.871297	1.091294
H109	H	1.003160	0.315209	0.258205
H110	H	1.503160	0.815209	0.758205
C111	C	1.296520	-0.534707	0.000129
C112	C	1.796520	-0.034707	0.500129
H113	H	1.282899	-0.597002	0.000126
H114	H	1.782899	-0.097002	0.500126
H115	H	1.332303	-0.520831	0.055806
H116	H	1.832303	-0.020831	0.555806
H117	H	1.332310	-0.520838	-0.055556
H118	H	1.832310	-0.020838	0.444444
H119	H	0.622488	0.319778	0.000100
H120	H	1.122488	0.819778	0.500100
H121	H	1.281178	-0.066733	0.000116
H122	H	1.781178	0.433267	0.500116
H123	H	1.003218	0.315207	0.742039
H124	H	1.503218	0.815207	1.242039
C125	C	0.920403	0.387327	0.394597
C126	C	1.420403	0.887327	0.894597
H127	H	0.929620	0.379288	0.327546
H128	H	1.429620	0.879288	0.827546
H129	H	0.930769	0.448337	0.411064
H130	H	1.430769	0.948337	0.911064
H131	H	0.857122	0.372404	0.411067
H132	H	1.357122	0.872404	0.911067
C133	C	0.606535	0.082552	0.000090
C134	C	1.106535	0.582552	0.500090
H135	H	0.538967	0.087870	0.000087
H136	H	1.038967	0.587870	0.500087
H137	H	0.627285	0.050712	0.055761
H138	H	1.127285	0.550712	0.555761
H139	H	0.627283	0.050733	-0.055601
H140	H	1.127283	0.550733	0.444399
H141	H	1.236832	0.111694	0.742005
H142	H	1.736832	0.611694	1.242005
H143	H	0.875291	-0.361295	0.000074
H144	H	1.375291	0.138705	0.500074
H145	H	1.301191	0.055586	0.408921
H146	H	1.801191	0.555586	0.908921
C147	C	0.854295	-0.175862	0.000067
C148	C	1.354295	0.324138	0.500067
H149	H	0.867923	-0.113569	0.000064
H150	H	1.367923	0.386431	0.500064
H151	H	0.818495	-0.189733	0.055738
H152	H	1.318495	0.310267	0.555738
H153	H	0.818520	-0.189729	-0.055624
H154	H	1.318520	0.310271	0.444376
C155	C	0.933873	-0.518742	0.000092
C156	C	1.433873	-0.018742	0.500092
H157	H	0.944980	-0.582126	0.000100
H158	H	1.444980	-0.082126	0.500100
H159	H	0.898708	-0.501742	-0.055586
H160	H	1.398708	-0.001742	0.444414
H161	H	0.898700	-0.501744	0.055776
H162	H	1.398700	-0.001744	0.555776
C163	C	1.385688	-0.397232	0.000141
C164	C	1.885688	0.102768	0.500141
H165	H	1.372065	-0.459526	0.000131
H166	H	1.872065	0.040474	0.500131
H167	H	1.421465	-0.383361	0.055824
H168	H	1.921465	0.116639	0.555824
H169	H	1.421485	-0.383360	-0.055538
H170	H	1.921485	0.116640	0.444462
H171	H	1.364716	-0.211820	0.000128
H172	H	1.864716	0.288180	0.500128
H173	H	1.301202	0.055602	0.591248
H174	H	1.801202	0.555602	1.091248
H175	H	1.236785	0.111684	0.258178
H176	H	1.736785	0.611684	0.758178
