data_functionalizedCrystal
_audit_creation_method	'MofGen! by Chris Wilmer'
_symmetry_space_group_name_H-M	'P1'
_symmetry_Int_Tables_number	1
_symmetry_cell_setting	triclinic
loop_
_symmetry_equiv_pos_as_xyz
  x,y,z
_cell_length_a	16.120530
_cell_length_b	12.645330
_cell_length_c	16.120297
_cell_angle_alpha	87.125115
_cell_angle_beta	89.871860
_cell_angle_gamma	87.108294
loop_
_atom_site_label
_atom_site_type_symbol
_atom_site_fract_x
_atom_site_fract_y
_atom_site_fract_z
Zn1	Zn	1.247519	-0.537082	0.534581
Zn2	Zn	1.747519	-0.037082	1.034581
Zn3	Zn	1.254495	-0.705845	0.395529
Zn4	Zn	1.754495	-0.205845	0.895529
Zn5	Zn	1.115507	-0.519169	0.388499
Zn6	Zn	1.615507	-0.019169	0.888499
Zn7	Zn	1.108451	-0.704868	0.527498
Zn8	Zn	1.608451	-0.204868	1.027498
O9	O	1.181493	-0.616741	0.461527
O10	O	1.681493	-0.116741	0.961527
O11	O	1.364812	-0.567375	0.522042
O12	O	1.864812	-0.067375	1.022042
O13	O	1.241930	-0.673993	0.278231
O14	O	1.741930	-0.173993	0.778231
O15	O	1.133052	-0.373201	0.407899
O16	O	1.633052	0.126799	0.907899
O17	O	1.369937	-0.691364	0.419881
O18	O	1.869937	-0.191364	0.919881
O19	O	1.230041	-0.386362	0.515225
O20	O	1.730041	0.113638	1.015225
O21	O	1.139816	-0.536843	0.273066
O22	O	1.639816	-0.036843	0.773066
O23	O	0.998204	-0.535896	0.401031
O24	O	1.498204	-0.035896	0.901031
O25	O	1.121027	-0.689700	0.644804
O26	O	1.621027	-0.189700	1.144804
O27	O	0.993020	-0.672329	0.503153
O28	O	1.493020	-0.172329	1.003153
O29	O	1.223200	-0.566428	0.650008
O30	O	1.723200	-0.066428	1.150008
O31	O	1.235089	-0.854059	0.413013
O32	O	1.735089	-0.354059	0.913013
O33	O	1.127791	-0.853342	0.509970
O34	O	1.627791	-0.353342	1.009970
C35	C	0.965439	-0.602064	0.450561
C36	C	1.465439	-0.102064	0.950561
C37	C	0.873009	-0.595812	0.445890
C38	C	1.373009	-0.095812	0.945890
C39	C	0.703778	-0.584372	0.437368
C40	C	1.203778	-0.084372	0.937368
C41	C	0.660046	-0.649192	0.485747
C42	C	1.160046	-0.149192	0.985747
C43	C	0.565880	-0.642827	0.481005
C44	C	1.065880	-0.142827	0.981005
C45	C	0.797952	-0.590736	0.442108
C46	C	1.297952	-0.090736	0.942108
C47	C	1.181453	-0.892167	0.461505
C48	C	1.681453	-0.392167	0.961505
C49	C	1.181510	-1.010002	0.461528
C50	C	1.681510	-0.510002	0.961528
C51	C	1.248914	-1.177958	0.400396
C52	C	1.748914	-0.677958	0.900396
C53	C	1.249115	-1.055422	0.400564
C54	C	1.749115	-0.555422	0.900564
C55	C	1.200830	-1.061367	0.550384
C56	C	1.700830	-0.561367	1.050384
C57	C	1.201356	-1.183979	0.550068
C58	C	1.701356	-0.683979	1.050068
C59	C	1.094716	-1.169992	0.434665
C60	C	1.594716	-0.669992	0.934665
C61	C	1.095237	-1.047295	0.432721
C62	C	1.595237	-0.547295	0.932721
C63	C	1.398391	-0.631476	0.472536
C64	C	1.898391	-0.131476	0.972536
C65	C	1.490820	-0.637756	0.477228
C66	C	1.990820	-0.137756	0.977228
C67	C	1.170548	-0.629953	0.678422
C68	C	1.670548	-0.129953	1.178422
C69	C	1.165884	-0.635584	0.770849
C70	C	1.665884	-0.135584	1.270849
C71	C	1.181556	-0.340242	0.461568
C72	C	1.681556	0.159758	0.961568
C73	C	1.181582	-0.222415	0.461586
C74	C	1.681582	0.277585	0.961586
C75	C	1.192444	-0.603507	0.245479
C76	C	1.692444	-0.103507	0.745479
C77	C	1.197269	-0.597589	0.153060
C78	C	1.697269	-0.097589	0.653060
C79	C	1.157338	-0.645837	0.940074
C80	C	1.657338	-0.145837	1.440074
C81	C	1.205813	-0.587338	0.983840
C82	C	1.705813	-0.087338	1.483840
C83	C	1.201058	-0.593044	1.078003
C84	C	1.701058	-0.093044	1.578003
C85	C	1.162092	-0.640133	0.845903
C86	C	1.662092	-0.140133	1.345903
H87	H	0.693327	-0.709464	0.530727
H88	H	1.193327	-0.209464	1.030727
H89	H	1.076289	-1.195686	0.370767
H90	H	1.576289	-0.695686	0.870767
N91	N	1.025683	-1.005749	0.486957
N92	N	1.525683	-0.505749	0.986957
H93	H	0.996555	-1.067249	0.514220
H94	H	1.496555	-0.567249	1.014220
H95	H	0.984730	-0.960169	0.451785
H96	H	1.484730	-0.460169	0.951785
H97	H	1.112270	-0.700201	0.973321
H98	H	1.612270	-0.200201	1.473321
N99	N	0.659703	-0.504559	0.377770
N100	N	1.159703	-0.004559	0.877770
H101	H	0.597708	-0.511286	0.382782
H102	H	1.097708	-0.011286	0.882782
H103	H	0.677821	-0.518356	0.319113
H104	H	1.177821	-0.018356	0.819113
H105	H	1.237542	-1.020427	0.334818
H106	H	1.737542	-0.520427	0.834818
H107	H	1.263450	-1.036079	0.572950
H108	H	1.763450	-0.536079	1.072950
H109	H	1.237537	-1.202521	0.334469
H110	H	1.737537	-0.702521	0.834469
N111	N	1.285291	-1.229081	0.579569
N112	N	1.785291	-0.729081	1.079569
H113	H	1.321600	-1.169285	0.592656
H114	H	1.821600	-0.669285	1.092656
H115	H	1.312227	-1.271779	0.534589
H116	H	1.812227	-0.771779	1.034589
H117	H	1.154220	-1.213663	0.597471
H118	H	1.654220	-0.713663	1.097471
N119	N	1.333809	-1.225678	0.424196
N120	N	1.833809	-0.725678	0.924196
H121	H	1.328842	-1.275969	0.474443
H122	H	1.828842	-0.775969	0.974443
H123	H	1.371359	-1.167308	0.437654
H124	H	1.871359	-0.667308	0.937654
N125	N	1.334454	-1.023514	0.424622
N126	N	1.834454	-0.523514	0.924622
H127	H	1.376665	-1.050410	0.383285
H128	H	1.876665	-0.550410	0.883285
H129	H	1.348861	-1.055074	0.481886
H130	H	1.848861	-0.555074	0.981886
H131	H	1.153089	-1.032173	0.597388
H132	H	1.653089	-0.532173	1.097388
H133	H	1.080589	-1.013131	0.367308
H134	H	1.580589	-0.513131	0.867308
N135	N	1.028331	-1.207931	0.493621
N136	N	1.528331	-0.707931	0.993621
H137	H	1.054351	-1.258824	0.537556
H138	H	1.554351	-0.758824	1.037556
H139	H	0.985504	-1.245085	0.461741
H140	H	1.485504	-0.745085	0.961741
H141	H	1.250884	-0.532970	0.950591
H142	H	1.750884	-0.032970	1.450591
