data_functionalizedCrystal
_audit_creation_method	'MofGen! by Chris Wilmer'
_symmetry_space_group_name_H-M	'P1'
_symmetry_Int_Tables_number	1
_symmetry_cell_setting	triclinic
loop_
_symmetry_equiv_pos_as_xyz
  x,y,z
_cell_length_a	12.759401
_cell_length_b	18.101397
_cell_length_c	12.759401
_cell_angle_alpha	90.013082
_cell_angle_beta	90.002800
_cell_angle_gamma	90.018881
loop_
_atom_site_label
_atom_site_type_symbol
_atom_site_fract_x
_atom_site_fract_y
_atom_site_fract_z
Zn1	Zn	1.606043	-0.294963	0.593989
Zn2	Zn	1.605974	-0.418778	0.418299
Zn3	Zn	1.430397	-0.294953	0.418325
Zn4	Zn	1.430318	-0.418766	0.593937
O5	O	1.518183	-0.356865	0.506138
O6	O	1.753055	-0.311397	0.570695
O7	O	1.582687	-0.402352	0.271282
O8	O	1.453759	-0.191321	0.441660
O9	O	1.753004	-0.402363	0.441616
O10	O	1.582805	-0.191329	0.570720
O11	O	1.453692	-0.311379	0.271301
O12	O	1.283366	-0.311367	0.441609
O13	O	1.453625	-0.402342	0.740965
O14	O	1.283308	-0.402332	0.570631
O15	O	1.582729	-0.311385	0.741003
O16	O	1.582611	-0.522409	0.441565
O17	O	1.453557	-0.522400	0.570605
C18	C	1.245216	-0.356848	0.506118
C19	C	1.128439	-0.356858	0.506134
C20	C	1.518097	-0.549275	0.506100
C21	C	1.518156	-0.631589	0.506118
C22	C	1.073576	-0.309430	0.439076
C23	C	0.963852	-0.309448	0.439090
C24	C	0.963864	-0.404323	0.573228
C25	C	1.073586	-0.404309	0.573208
C26	C	1.073569	-0.254653	0.361636
C27	C	0.963845	-0.254670	0.361649
C28	C	1.518219	-0.782298	0.506154
C29	C	1.599496	-0.813626	0.425044
C30	C	1.599294	-0.899244	0.424746
C31	C	1.518284	-0.930680	0.506189
C32	C	1.407491	-0.899657	0.476391
C33	C	1.407924	-0.814012	0.475782
C34	C	1.546781	-0.813813	0.617274
C35	C	1.549262	-0.899463	0.616702
C36	C	1.518314	-1.014540	0.506211
C37	C	1.518182	-0.698438	0.506130
C38	C	1.792216	-0.356882	0.506158
C39	C	1.908993	-0.356890	0.506167
C40	C	1.518176	-0.356864	0.780171
C41	C	1.518173	-0.356863	0.896948
C42	C	1.518299	-0.163703	0.506199
C43	C	1.518348	-0.081389	0.506225
C44	C	1.451005	-0.309511	1.061552
C45	C	1.451011	-0.309502	0.951828
C46	C	1.585341	-0.404232	0.951797
C47	C	1.585339	-0.404237	1.061519
C48	C	1.373447	-0.254821	1.061569
C49	C	1.373453	-0.254812	0.951845
C50	C	1.518177	-0.356881	1.233170
C51	C	1.518165	-0.356877	1.116394
H52	H	1.118251	-0.442936	0.627803
N53	N	1.657779	-0.455322	1.120674
H54	H	1.706480	-0.425227	1.166212
H55	H	1.700259	-0.485312	1.069195
N56	N	1.375920	-0.787602	0.368197
H57	H	1.434234	-0.756971	0.336926
H58	H	1.310403	-0.756580	0.374049
H59	H	1.580805	-0.792137	0.343179
N60	N	1.708626	-0.786289	0.449412
H61	H	1.709946	-0.730549	0.446106
H62	H	1.759499	-0.807084	0.396436
H63	H	1.107619	-0.200199	0.390918
H64	H	0.929794	-0.275131	0.284304
H65	H	1.681442	-0.920217	0.443358
N66	N	1.657792	-0.455309	0.892610
H67	H	1.647494	-0.448195	0.814779
H68	H	1.641514	-0.508195	0.911878
N69	N	0.924407	-0.178737	0.390718
H70	H	0.985950	-0.144841	0.403687
H71	H	0.880414	-0.182173	0.456337
H72	H	1.345291	-0.793291	0.532305
H73	H	1.580387	-0.919770	0.342421
N74	N	0.904700	-0.455502	0.645566
H75	H	0.826866	-0.448317	0.635402
H76	H	0.923894	-0.444058	0.720628
N77	N	1.112995	-0.274869	0.253798
H78	H	1.051448	-0.283907	0.205689
H79	H	1.156993	-0.321125	0.258425
N80	N	1.325104	-0.926634	0.552238
H81	H	1.358889	-0.959303	0.606776
H82	H	1.270173	-0.955707	0.512878
N83	N	1.412113	-0.182648	0.906788
H84	H	1.430784	-0.147784	0.965720
H85	H	1.355243	-0.159889	0.862211
H86	H	1.395266	-0.197466	1.091370
N87	N	1.374932	-0.928115	0.370004
H88	H	1.431781	-0.961095	0.340958
H89	H	1.363452	-0.885040	0.321039
H90	H	1.626175	-0.792164	0.644434
N91	N	1.271055	-0.282032	1.106644
H92	H	1.221581	-0.295175	1.047721
H93	H	1.238802	-0.241931	1.151235
N94	N	1.657259	-0.926315	0.646484
H95	H	1.705178	-0.882543	0.657249
H96	H	1.685916	-0.958578	0.588611
N97	N	1.476623	-0.927798	0.701032
H98	H	1.422360	-0.961421	0.668649
H99	H	1.440546	-0.884710	0.736054
N100	N	1.468378	-0.786981	0.697326
H101	H	1.414614	-0.754569	0.661846
H102	H	1.505912	-0.757671	0.753272
N103	N	1.265668	-0.275164	0.912374
H104	H	1.265629	-0.275163	0.833217
H105	H	1.212939	-0.237971	0.938825
