data_functionalizedCrystal
_audit_creation_method	'MofGen! by Chris Wilmer'
_symmetry_space_group_name_H-M	'P1'
_symmetry_Int_Tables_number	1
_symmetry_cell_setting	triclinic
loop_
_symmetry_equiv_pos_as_xyz
  x,y,z
_cell_length_a	14.044220
_cell_length_b	9.065218
_cell_length_c	13.101039
_cell_angle_alpha	93.407648
_cell_angle_beta	93.667477
_cell_angle_gamma	90.897619
loop_
_atom_site_label
_atom_site_type_symbol
_atom_site_fract_x
_atom_site_fract_y
_atom_site_fract_z
O1	O	0.133974	-1.983258	-0.085221
O2	O	0.145387	-1.555238	-0.085222
O3	O	0.001642	-1.762822	-0.085211
O4	O	0.277720	-1.775673	-0.085232
O5	O	0.011972	-1.747931	0.085218
O6	O	0.155718	-1.540346	0.085207
O7	O	0.144305	-1.968366	0.085208
Zn8	Zn	0.151652	-1.751992	0.112267
Zn9	Zn	0.138040	-1.771612	-0.112281
O10	O	0.288051	-1.760782	0.085197
C11	C	-0.028556	-1.749752	0.000004
C12	C	-0.133926	-1.732975	0.000005
C13	C	0.149456	-1.492684	-0.000008
C14	C	0.146176	-1.328478	-0.000008
C15	C	0.140236	-2.030920	-0.000008
C16	C	0.143516	-2.195127	-0.000015
C17	C	-0.326851	-1.702304	-0.000010
C18	C	-0.383463	-1.821294	-0.000013
C19	C	-0.490813	-1.804228	-0.000021
C20	C	-0.219491	-1.719368	-0.000002
C21	C	0.318248	-1.773852	-0.000020
C22	C	0.423617	-1.790630	-0.000028
N23	N	0.160941	-1.738612	0.265515
N24	N	0.128744	-1.785003	-0.265529
C25	C	0.173587	-1.720410	0.474556
C26	C	0.116101	-1.803201	0.525436
C27	C	0.123137	-1.793073	0.641754
C28	C	0.166552	-1.730536	0.358228
H29	H	-0.359005	-1.587627	-0.000013
O30	O	-0.345211	-1.958182	0.000138
C31	C	-0.326652	-2.182654	0.088489
C32	C	-0.370053	-2.027685	0.088429
H33	H	-0.346704	-2.238880	0.159876
H34	H	-0.355398	-2.251572	0.017218
H35	H	-0.245657	-2.172188	0.088449
H36	H	-0.451048	-2.038012	0.088506
H37	H	-0.341232	-1.958825	0.159694
O38	O	0.050990	-1.896520	0.473036
C39	C	-0.015787	-1.991303	0.307640
C40	C	0.058117	-1.885779	0.366860
H41	H	-0.010063	-1.982632	0.221786
H42	H	-0.001509	-2.109643	0.328424
H43	H	-0.090557	-1.959676	0.328879
H44	H	0.132916	-1.917271	0.345652
H45	H	0.043756	-1.767466	0.346070
O46	O	0.238584	-1.626913	0.526955
C47	C	0.304881	-1.531357	0.692360
C48	C	0.231244	-1.637319	0.633131
H49	H	0.298958	-1.539712	0.778213
H50	H	0.379799	-1.562612	0.671411
H51	H	0.290355	-1.413212	0.671294
H52	H	0.245681	-1.755499	0.654164
H53	H	0.156350	-1.605938	0.654085
