data_functionalizedCrystal
_audit_creation_method	'MofGen! by Chris Wilmer'
_symmetry_space_group_name_H-M	'P1'
_symmetry_Int_Tables_number	1
_symmetry_cell_setting	triclinic
loop_
_symmetry_equiv_pos_as_xyz
  x,y,z
_cell_length_a	20.016444
_cell_length_b	23.196402
_cell_length_c	23.196402
_cell_angle_alpha	60.002465
_cell_angle_beta	90.002710
_cell_angle_gamma	60.002980
loop_
_atom_site_label
_atom_site_type_symbol
_atom_site_fract_x
_atom_site_fract_y
_atom_site_fract_z
Zr1	Zr	0.643598	0.631024	-0.075628
O2	O	0.536927	0.751285	-0.167673
O3	O	0.676296	0.510760	-0.047414
O4	O	0.676296	0.631026	-0.167679
O5	O	0.536929	0.631020	0.047462
O6	O	0.786236	0.631030	-0.167679
O7	O	0.536927	0.631020	-0.047409
O8	O	0.786235	0.415898	0.047452
O9	O	0.536930	0.846153	-0.167669
O10	O	0.772291	0.560231	-0.035377
O11	O	0.690246	0.560228	0.035424
O12	O	0.690247	0.701825	-0.106172
O13	O	0.608202	0.701821	-0.035371
Zr14	Zr	0.818944	0.631031	0.075680
Zr15	Zr	0.818939	0.631032	-0.075628
Zr16	Zr	0.643603	0.631024	0.075680
Zr17	Zr	0.643603	0.782327	-0.075621
Zr18	Zr	0.818939	0.479729	0.075674
O19	O	0.786246	0.751295	0.047467
O20	O	0.786240	0.751296	-0.167674
O21	O	0.536933	0.751285	0.047467
O22	O	0.925615	0.510771	0.167726
O23	O	0.925609	0.510771	-0.047414
O24	O	0.676302	0.510760	0.167726
O25	O	0.925613	0.631036	-0.047409
O26	O	0.786246	0.631030	0.167731
O27	O	0.676306	0.631026	0.167731
O28	O	0.925615	0.631036	0.047461
O29	O	0.676303	0.846158	-0.167669
O30	O	0.786239	0.415898	0.167722
O31	O	0.925612	0.415903	0.167722
O32	O	0.925608	0.415903	0.047452
O33	O	0.536934	0.846153	-0.047400
O34	O	0.676307	0.846158	-0.047400
O35	O	0.772295	0.560231	0.106225
O36	O	0.854340	0.560235	0.035424
O37	O	0.772296	0.701828	-0.035371
O38	O	0.690251	0.701825	0.035430
C39	C	0.731265	0.441772	0.000018
C40	C	0.731263	0.377540	0.000015
C41	C	0.511946	0.631019	0.000027
C42	C	0.437509	0.631016	0.000027
C43	C	0.774084	0.347371	-0.036945
C44	C	0.774092	0.287010	-0.036939
C45	C	0.731263	0.256832	0.000017
C46	C	0.688440	0.287004	0.036985
C47	C	0.688440	0.347358	0.036984
C48	C	0.659525	0.194799	-0.005257
C49	C	0.659523	0.134450	-0.005261
C50	C	0.731264	0.070677	0.000024
C51	C	0.803006	0.067268	0.005300
C52	C	0.803007	0.127622	0.005299
C53	C	0.731258	0.191387	0.000023
C54	C	0.774097	-0.024943	-0.036931
C55	C	0.774107	-0.085309	-0.036920
C56	C	0.688448	-0.085308	0.036999
C57	C	0.688445	-0.024949	0.036993
C58	C	0.731268	0.005233	0.000024
C59	C	0.309068	0.557115	0.036982
C60	C	0.239123	0.557118	0.036984
C61	C	0.153476	0.704947	-0.036931
C62	C	0.223420	0.704942	-0.036928
C63	C	0.301216	0.631024	0.000027
C64	C	0.161326	0.631032	0.000026
C65	C	0.085488	0.631036	0.000027
C66	C	0.377059	0.631020	0.000026
C67	C	0.950596	0.631037	0.000026
C68	C	1.025033	0.631040	0.000026
C69	C	0.731265	0.631028	-0.189237
C70	C	0.731264	0.631028	-0.253471
C71	C	0.731277	0.820284	0.000034
C72	C	0.731279	0.884516	0.000037
C73	C	0.670706	0.631035	-0.716311
C74	C	0.670706	0.631029	-0.655953
C75	C	0.731272	0.631033	-0.625772
C76	C	0.791855	0.631021	-0.655942
C77	C	0.791858	0.631018	-0.716295
C78	C	0.750147	0.678539	-0.553904
C79	C	0.750139	0.678546	-0.493555
C80	C	0.731267	0.631037	-0.439623
C81	C	0.712386	0.583530	-0.446052
C82	C	0.712389	0.583528	-0.506405
C83	C	0.731276	0.631035	-0.560329
C84	C	0.670691	0.631037	-0.344010
C85	C	0.670696	0.631026	-0.283649
C86	C	0.791842	0.631026	-0.283643
C87	C	0.791840	0.631028	-0.343999
C88	C	0.731260	0.631038	-0.374181
C89	C	0.731277	0.631028	0.189289
C90	C	0.731278	0.631028	0.253523
C91	C	0.950590	0.441781	0.000018
C92	C	1.025025	0.377552	0.000015
C93	C	0.731270	0.441772	0.189281
C94	C	0.731270	0.377540	0.253513
C95	C	0.950596	0.441781	0.189281
C96	C	1.025033	0.377552	0.253512
C97	C	0.511946	0.820275	-0.189228
C98	C	0.437509	0.884504	-0.253460
C99	C	0.511952	0.820275	0.000035
C100	C	0.437517	0.884504	0.000037
C101	C	0.731272	0.820284	-0.189229
C102	C	0.731272	0.884516	-0.253460
C103	C	1.017152	0.347388	-0.036950
C104	C	1.087085	0.287046	-0.036967
C105	C	1.164890	0.256866	-0.000014
C106	C	1.172762	0.287036	0.036952
C107	C	1.102830	0.347381	0.036964
C108	C	0.774099	0.347377	0.320640
C109	C	0.774096	0.287033	0.380998
C110	C	0.731268	0.256848	0.374227
C111	C	0.688434	0.287016	0.307092
C112	C	0.688433	0.347364	0.246736
C113	C	1.102823	0.347391	0.246718
C114	C	1.172771	0.287050	0.307065
C115	C	1.164927	0.256866	0.374204
C116	C	1.087129	0.287033	0.380997
C117	C	1.017182	0.347377	0.320651
C118	C	0.359719	0.914672	-0.246666
C119	C	0.289771	0.975032	-0.307012
C120	C	0.297615	1.005219	-0.374152
C121	C	0.375413	0.975049	-0.380944
C122	C	0.445360	0.914694	-0.320598
C123	C	0.445390	0.914674	0.036996
C124	C	0.375457	0.975033	0.036996
C125	C	0.297652	1.005215	0.000041
C126	C	0.289780	0.975042	-0.036922
C127	C	0.359712	0.914689	-0.036926
C128	C	0.774108	0.914682	-0.246666
C129	C	0.774124	0.975027	-0.307013
C130	C	0.731299	1.005209	-0.374152
C131	C	0.688461	0.975037	-0.380944
C132	C	0.688451	0.914689	-0.320599
H133	H	0.808955	0.371941	-0.067045
H134	H	1.080754	0.262448	0.435669
Cl135	Cl	1.252869	0.181002	0.450062
H136	H	0.240715	1.054358	0.000050
H137	H	0.809006	0.999586	-0.301469
Cl138	Cl	0.191978	1.012945	-0.298457
H139	H	1.080660	0.262489	-0.067069
H140	H	0.808979	0.262477	0.435656
H141	H	0.508698	0.890131	-0.326138
Cl142	Cl	0.634604	-0.123240	0.083459
H143	H	0.621379	0.631035	-0.631388
H144	H	0.953845	0.371926	0.326192
H145	H	0.353317	0.890097	-0.192003
H146	H	0.226422	0.999625	-0.067009
Cl147	Cl	0.867999	0.631020	-0.617999
H148	H	1.236111	0.262494	0.301522
H149	H	0.765508	0.717232	-0.488328
Cl150	Cl	0.385261	1.013003	-0.465353
H151	H	0.653594	0.999620	-0.435617
H152	H	0.240654	1.054364	-0.423283
H153	H	0.731276	0.207710	0.423379
Cl154	Cl	0.827937	0.012996	-0.083399
H155	H	0.653565	0.262431	0.301590
H156	H	0.653560	0.371914	0.192080
Cl157	Cl	0.349800	0.876762	-0.083388
Cl158	Cl	0.827953	0.876751	-0.162270
H159	H	0.372410	0.496926	0.067081
Cl160	Cl	0.543194	0.876748	0.083456
Cl161	Cl	0.385372	1.012948	0.083472
H162	H	1.109225	0.371958	0.192056
H163	H	0.621365	0.631041	-0.368584
H164	H	0.731314	1.054348	-0.423284
Cl165	Cl	1.270581	0.249083	0.083407
Cl166	Cl	0.248999	0.464199	0.083448
Cl167	Cl	0.634585	0.876781	-0.329152
Cl168	Cl	0.594546	0.631028	-0.245721
H169	H	0.808963	0.262442	-0.067037
Cl170	Cl	1.252798	0.181002	-0.000035
H171	H	0.861422	0.124842	0.009596
Cl172	Cl	0.919348	0.385319	-0.083414
H173	H	0.808982	-0.109876	-0.067015
Cl174	Cl	0.893201	-0.012898	0.011941
H175	H	0.601105	0.137234	-0.009560
H176	H	0.601097	0.246733	-0.009576
H177	H	0.653573	-0.000382	0.067087
Cl178	Cl	0.827948	0.385310	0.329171
Cl179	Cl	0.634605	0.249060	0.083451
H180	H	0.090128	0.765128	-0.067019
Cl181	Cl	0.634603	0.385287	0.083452
Cl182	Cl	0.213548	0.797865	-0.083386
Cl183	Cl	0.594554	0.631041	-0.754251
H184	H	0.697018	0.544845	-0.511635
H185	H	0.697016	0.544845	-0.402141
H186	H	0.841161	0.631027	-0.368564
Cl187	Cl	0.867988	0.631021	-0.245700
H188	H	0.765513	0.717232	-0.597816
H189	H	0.841185	0.631012	-0.740856
Cl190	Cl	1.112742	0.385289	0.083445
