data_functionalizedCrystal
_audit_creation_method	'MofGen! by Chris Wilmer'
_symmetry_space_group_name_H-M	'P1'
_symmetry_Int_Tables_number	1
_symmetry_cell_setting	triclinic
loop_
_symmetry_equiv_pos_as_xyz
  x,y,z
_cell_length_a	19.188929
_cell_length_b	10.723022
_cell_length_c	9.798715
_cell_angle_alpha	89.996609
_cell_angle_beta	90.024927
_cell_angle_gamma	96.193996
loop_
_atom_site_label
_atom_site_type_symbol
_atom_site_fract_x
_atom_site_fract_y
_atom_site_fract_z
O1	O	-0.097917	1.655156	-0.113555
O2	O	0.402083	2.155156	0.386445
O3	O	-0.107291	1.291809	-0.113567
O4	O	0.392709	1.791809	0.386433
O5	O	-0.001016	1.483968	-0.113476
O6	O	0.498984	1.983968	0.386524
O7	O	-0.204191	1.462997	-0.113646
O8	O	0.295809	1.962997	0.386354
O9	O	-0.001016	1.483953	0.113506
O10	O	0.498984	1.983953	0.613506
O11	O	-0.107291	1.291794	0.113415
O12	O	0.392709	1.791794	0.613415
O13	O	-0.097916	1.655142	0.113427
O14	O	0.402084	2.155142	0.613427
Zn15	Zn	-0.102604	1.473466	0.149460
Zn16	Zn	0.397396	1.973466	0.649460
Zn17	Zn	-0.102604	1.473485	-0.149599
Zn18	Zn	0.397396	1.973485	0.350401
O19	O	-0.204191	1.462983	0.113337
O20	O	0.295809	1.962983	0.613337
C21	C	-0.106609	1.245316	-0.000076
C22	C	0.393391	1.745316	0.499924
C23	C	-0.104569	1.106804	-0.000076
C24	C	0.395431	1.606804	0.499924
C25	C	-0.043284	1.059515	-0.000025
C26	C	0.456716	1.559515	0.499975
C27	C	-0.041173	0.916356	-0.000025
C28	C	0.458827	1.416356	0.499975
C29	C	-0.230207	1.463669	-0.000176
C30	C	0.269793	1.963669	0.499824
C31	C	-0.307724	1.465707	-0.000241
C32	C	0.192276	1.965707	0.499759
C33	C	-0.351916	1.352955	-0.000217
C34	C	0.148084	1.852955	0.499783
C35	C	-0.424752	1.354870	-0.000186
C36	C	0.075248	1.854870	0.499814
C37	C	-0.453394	1.469544	-0.000152
C38	C	0.046606	1.969544	0.499848
C39	C	-0.409192	1.582312	-0.000184
C40	C	0.090808	2.082312	0.499816
C41	C	-0.336358	1.580393	-0.000228
C42	C	0.163642	2.080393	0.499772
N43	N	-0.561931	1.557193	0.077184
N44	N	-0.061931	2.057193	0.577184
N45	N	-0.631122	1.559008	0.077229
N46	N	-0.131122	2.059008	0.577229
C47	C	-0.672840	1.475331	-0.000021
C48	C	-0.172840	1.975331	0.499979
N49	N	-0.642755	1.389752	-0.077300
N50	N	-0.142755	1.889752	0.422700
N51	N	-0.573559	1.387934	-0.077339
N52	N	-0.073559	1.887934	0.422661
C53	C	-0.532370	1.471637	-0.000104
C54	C	-0.032370	1.971637	0.499896
C55	C	-0.796009	1.364648	0.000035
C56	C	-0.296009	1.864648	0.500035
C57	C	-0.868847	1.366568	0.000057
C58	C	-0.368847	1.866568	0.500057
C59	C	-0.853285	1.594013	0.000074
C60	C	-0.353285	2.094013	0.500074
C61	C	-0.780449	1.592089	0.000038
C62	C	-0.280449	2.092089	0.500038
C63	C	-0.751816	1.477403	0.000025
C64	C	-0.251816	1.977403	0.500025
C65	C	0.024999	1.483281	0.000034
C66	C	0.524999	1.983281	0.500034
C67	C	0.102517	1.481243	0.000089
C68	C	0.602517	1.981243	0.500089
C69	C	-0.098599	1.701634	-0.000067
C70	C	0.401401	2.201634	0.499933
C71	C	-0.100639	1.840146	-0.000076
C72	C	0.399361	2.340146	0.499924
N73	N	-0.102603	1.473462	0.353559
N74	N	0.397397	1.973462	0.853559
N75	N	-0.102599	1.473498	-0.353699
N76	N	0.397401	1.973498	0.146301
C77	C	-0.057784	1.554149	0.421374
C78	C	0.442216	2.054149	0.921374
C79	C	-0.057782	1.554169	0.578537
C80	C	0.442218	2.054169	1.078537
H81	H	0.007622	1.125014	0.000011
H82	H	0.507622	1.625014	0.500011
H83	H	0.011298	0.875633	-0.000017
H84	H	0.511298	1.375633	0.499983
H85	H	-0.153113	0.880860	-0.000111
H86	H	0.346887	1.380860	0.499889
Cl87	Cl	-0.315924	1.208779	-0.000248
Cl88	Cl	0.184076	1.708779	0.499752
H89	H	-0.155474	1.041305	-0.000124
H90	H	0.344526	1.541305	0.499876
Cl91	Cl	-0.161841	1.366821	0.443548
Cl92	Cl	0.338159	1.866821	0.943548
H93	H	-0.300376	1.672213	-0.000249
H94	H	0.199624	2.172213	0.499751
Cl95	Cl	0.001459	1.660833	0.668570
Cl96	Cl	0.501459	2.160833	1.168570
H97	H	-0.460740	1.263050	-0.000164
H98	H	0.039260	1.763050	0.499836
H99	H	-0.432517	1.675680	-0.000181
H100	H	0.067483	2.175680	0.499819
H101	H	-0.772695	1.271264	0.000032
H102	H	-0.272695	1.771264	0.500032
Cl103	Cl	-0.161849	1.366843	0.556277
Cl104	Cl	0.338151	1.866843	1.056277
H105	H	-0.904827	1.274747	0.000068
H106	H	-0.404827	1.774747	0.500068
H107	H	-0.744467	1.683905	0.000027
H108	H	-0.244467	2.183905	0.500027
Cl109	Cl	-0.889285	1.738176	0.000103
Cl110	Cl	-0.389285	2.238176	0.500103
H111	H	-0.019412	1.623209	0.363084
H112	H	0.480588	2.123209	0.863084
