data_functionalizedCrystal
_audit_creation_method	'MofGen! by Chris Wilmer'
_symmetry_space_group_name_H-M	'P1'
_symmetry_Int_Tables_number	1
_symmetry_cell_setting	triclinic
loop_
_symmetry_equiv_pos_as_xyz
  x,y,z
_cell_length_a	14.971486
_cell_length_b	13.339070
_cell_length_c	14.048226
_cell_angle_alpha	89.996915
_cell_angle_beta	89.998499
_cell_angle_gamma	99.621712
loop_
_atom_site_label
_atom_site_type_symbol
_atom_site_fract_x
_atom_site_fract_y
_atom_site_fract_z
O1	O	1.219550	0.131873	-0.079045
O2	O	1.719550	0.631873	0.420955
O3	O	0.963054	0.147665	-0.079070
O4	O	1.463054	0.647665	0.420930
O5	O	1.061865	-0.007530	-0.079057
O6	O	1.561865	0.492470	0.420943
O7	O	1.120740	0.287068	-0.079057
O8	O	1.620740	0.787068	0.420943
O9	O	1.061846	-0.007539	0.079264
O10	O	1.561846	0.492461	0.579264
O11	O	0.963035	0.147656	0.079251
O12	O	1.463035	0.647656	0.579251
O13	O	1.219531	0.131864	0.079276
O14	O	1.719531	0.631864	0.579276
Zn15	Zn	1.091280	0.139758	0.104401
Zn16	Zn	1.591280	0.639758	0.604401
Zn17	Zn	1.091305	0.139770	-0.104194
Zn18	Zn	1.591305	0.639770	0.395806
O19	O	1.120721	0.287059	0.079264
O20	O	1.620721	0.787059	0.579264
C21	C	0.929545	0.146954	0.000087
C22	C	1.429545	0.646954	0.500087
C23	C	0.829725	0.144838	0.000077
C24	C	1.329725	0.644838	0.500077
C25	C	0.795041	0.236011	0.000079
C26	C	1.295041	0.736011	0.500079
C27	C	0.701248	0.234016	0.000093
C28	C	1.201248	0.734016	0.500093
C29	C	0.642141	0.140847	0.000099
C30	C	1.142141	0.640847	0.500099
C31	C	0.676832	0.049667	0.000101
C32	C	1.176832	0.549667	0.500101
C33	C	0.770623	0.051663	0.000093
C34	C	1.270623	0.551663	0.500093
C35	C	0.481342	0.045514	0.000114
C36	C	0.981342	0.545514	0.500114
C37	C	0.387545	0.043518	0.000119
C38	C	0.887545	0.543518	0.500119
C39	C	0.411968	0.227867	0.000114
C40	C	0.911968	0.727867	0.500114
C41	C	0.505759	0.229863	0.000106
C42	C	1.005759	0.729863	0.500106
C43	C	0.540442	0.138682	0.000106
C44	C	1.040442	0.638682	0.500106
C45	C	1.051910	-0.045236	0.000101
C46	C	1.551910	0.454764	0.500101
C47	C	1.022266	-0.157574	0.000094
C48	C	1.522266	0.342426	0.500094
C49	C	1.252762	-0.522088	0.000117
C50	C	1.752762	-0.022088	0.500117
C51	C	1.280617	-0.416541	0.000129
C52	C	1.780617	0.083459	0.500129
C53	C	1.216032	-0.351794	0.000120
C54	C	1.716032	0.148206	0.500120
C55	C	1.123587	-0.392604	0.000100
C56	C	1.623587	0.107396	0.500100
C57	C	1.095729	-0.498161	0.000096
C58	C	1.595729	0.001839	0.500096
C59	C	1.058999	-0.327867	0.000098
C60	C	1.558999	0.172133	0.500098
C61	C	0.966554	-0.368677	0.000078
C62	C	1.466554	0.131323	0.500078
C63	C	0.938701	-0.474224	0.000073
C64	C	1.438701	0.025776	0.500073
C65	C	1.003286	-0.538970	0.000082
C66	C	1.503286	-0.038970	0.500082
C67	C	1.086856	-0.222311	0.000102
C68	C	1.586856	0.277689	0.500102
C69	C	0.929823	-0.198383	0.000081
C70	C	1.429823	0.301617	0.500081
C71	C	0.901968	-0.303930	0.000069
C72	C	1.401968	0.196070	0.500069
C73	C	1.253040	0.132575	0.000117
C74	C	1.753040	0.632575	0.500117
C75	C	1.352860	0.134691	0.000121
C76	C	1.852860	0.634691	0.500121
C77	C	1.130675	0.324765	0.000103
C78	C	1.630675	0.824765	0.500103
C79	C	1.160319	0.437102	0.000104
C80	C	1.660319	0.937102	0.500104
N81	N	1.091270	0.139749	0.246761
N82	N	1.591270	0.639749	0.746761
N83	N	1.091321	0.139771	-0.246555
N84	N	1.591321	0.639771	0.253445
C85	C	1.135049	0.071057	0.296585
C86	C	1.635049	0.571057	0.796585
C87	C	1.135055	0.071057	0.396243
C88	C	1.635055	0.571057	0.896243
C89	C	1.091287	0.139754	0.446075
C90	C	1.591287	0.639754	0.946075
C91	C	1.047502	0.208449	0.396244
C92	C	1.547502	0.708449	0.896244
C93	C	1.047491	0.208444	0.296589
C94	C	1.547491	0.708444	0.796589
C95	C	1.047529	0.208457	0.603959
C96	C	1.547529	0.708457	1.103959
C97	C	1.047541	0.208463	0.703621
C98	C	1.547541	0.708463	1.203621
C99	C	1.135094	0.071069	0.703613
C100	C	1.635094	0.571069	1.203613
C101	C	1.135083	0.071064	0.603957
C102	C	1.635083	0.571064	1.103957
C103	C	1.091299	0.139761	0.554133
C104	C	1.591299	0.639761	1.054133
H105	H	1.162125	-0.189094	0.000119
H106	H	1.662125	0.310906	0.500119
O107	O	0.613080	-0.050821	0.000113
O108	O	1.113080	0.449179	0.500113
H109	H	0.652959	-0.113885	0.000122
H110	H	1.152959	0.386115	0.500122
H111	H	1.011899	0.264403	0.744190
H112	H	1.511899	0.764403	1.244190
H113	H	1.011872	0.264394	0.563395
H114	H	1.511872	0.764394	1.063395
H115	H	1.011840	0.264379	0.256023
H116	H	1.511840	0.764379	0.756023
H117	H	0.673013	0.308258	0.000093
H118	H	1.173013	0.808258	0.500093
H119	H	1.170703	0.015122	0.436809
H120	H	1.670703	0.515122	0.936809
O121	O	1.182285	-0.003031	0.550203
O122	O	1.682285	0.496969	1.050203
H123	H	1.212724	-0.050807	0.601589
H124	H	1.712724	0.449193	1.101589
H125	H	1.355886	-0.383322	0.000147
H126	H	1.855886	0.116678	0.500147
O127	O	0.323789	-0.056967	0.000138
O128	O	0.823789	0.443033	0.500138
H129	H	0.363661	-0.120036	0.000153
H130	H	0.863661	0.379964	0.500153
H131	H	1.170744	0.015134	0.744185
H132	H	1.670744	0.515134	1.244185
H133	H	1.305338	-0.574813	0.000132
H134	H	1.805338	-0.074813	0.500132
O135	O	0.973250	-0.652816	0.000074
O136	O	1.473250	-0.152816	0.500074
H137	H	0.932028	-0.675477	-0.064465
H138	H	1.432028	-0.175477	0.435535
O139	O	0.802263	-0.347957	0.000054
O140	O	1.302263	0.152043	0.500054
H141	H	0.762027	-0.285210	0.000042
H142	H	1.262027	0.214790	0.500042
O143	O	0.858789	0.336502	0.000070
O144	O	1.358789	0.836502	0.500070
H145	H	0.902111	0.341810	0.064592
H146	H	1.402111	0.841810	0.564592
H147	H	0.509578	-0.028735	0.000115
H148	H	1.009578	0.471265	0.500115
O149	O	0.860150	-0.128566	0.000074
O150	O	1.360150	0.371434	0.500074
H151	H	0.869086	-0.079904	-0.064457
H152	H	1.369086	0.420096	0.435543
H153	H	0.863426	-0.507447	0.000064
H154	H	1.363426	-0.007447	0.500064
O155	O	1.182253	-0.003042	0.242838
O156	O	1.682253	0.496958	0.742838
H157	H	1.212687	-0.050815	0.294231
H158	H	1.712687	0.449185	0.794231
O159	O	1.000301	0.282555	0.449985
O160	O	1.500301	0.782555	0.949985
H161	H	0.946250	0.239887	0.495410
H162	H	1.446250	0.739887	0.995410
O163	O	0.374560	0.326212	0.000123
O164	O	0.874560	0.826212	0.500123
H165	H	0.431417	0.391332	0.000106
H166	H	0.931417	0.891332	0.500106
H167	H	0.798860	-0.022579	0.000091
H168	H	1.298860	0.477421	0.500091
O169	O	1.246067	-0.237953	0.000130
O170	O	1.746067	0.262047	0.500130
H171	H	1.287313	-0.215281	-0.064396
H172	H	1.787313	0.284719	0.435604
O173	O	0.569515	0.330348	0.000112
O174	O	1.069515	0.830348	0.500112
H175	H	0.529642	0.393417	0.000127
H176	H	1.029642	0.893417	0.500127
