data_functionalizedCrystal
_audit_creation_method	'MofGen! by Chris Wilmer'
_symmetry_space_group_name_H-M	'P1'
_symmetry_Int_Tables_number	1
_symmetry_cell_setting	triclinic
loop_
_symmetry_equiv_pos_as_xyz
  x,y,z
_cell_length_a	10.654541
_cell_length_b	17.000383
_cell_length_c	9.730217
_cell_angle_alpha	89.997720
_cell_angle_beta	89.999932
_cell_angle_gamma	80.042116
loop_
_atom_site_label
_atom_site_type_symbol
_atom_site_fract_x
_atom_site_fract_y
_atom_site_fract_z
O1	O	1.653968	0.111714	-0.114245
O2	O	1.287167	0.122361	-0.114256
O3	O	1.493341	0.001297	-0.114245
O4	O	1.447794	0.232778	-0.114257
O5	O	1.493335	0.001296	0.114336
O6	O	1.287161	0.122359	0.114324
O7	O	1.653962	0.111713	0.114335
Zn8	Zn	1.470561	0.117036	0.150622
Zn9	Zn	1.470568	0.117038	-0.150543
O10	O	1.447788	0.232777	0.114323
C11	C	1.240463	0.121579	0.000032
C12	C	1.101310	0.119241	0.000028
C13	C	1.055364	0.264006	0.000003
C14	C	0.967020	0.335286	-0.000015
C15	C	0.836275	0.333085	-0.000016
C16	C	0.793875	0.259595	0.000005
C17	C	0.882219	0.188314	0.000023
C18	C	1.012964	0.190524	0.000020
C19	C	0.928164	0.043552	0.000057
C20	C	1.058909	0.045751	0.000048
C21	C	0.885763	-0.029938	0.000078
C22	C	0.974109	-0.101221	0.000086
C23	C	1.104860	-0.099016	0.000086
C24	C	1.147254	-0.025530	0.000066
C25	C	1.495784	-0.028344	0.000044
C26	C	1.503058	-0.116662	0.000040
C27	C	1.550027	-0.616620	0.000036
C28	C	1.543183	-0.533635	0.000044
C29	C	1.424381	-0.483295	0.000034
C30	C	1.312416	-0.515945	0.000029
C31	C	1.319261	-0.598928	0.000031
C32	C	1.397939	-0.232295	0.000037
C33	C	1.391102	-0.149306	0.000031
C34	C	1.621870	-0.167002	0.000048
C35	C	1.628705	-0.249987	0.000042
C36	C	1.516740	-0.282629	0.000045
C37	C	1.417382	-0.398471	0.000038
C38	C	1.523740	-0.367452	0.000050
C39	C	1.700666	0.112495	0.000044
C40	C	1.839819	0.114832	0.000039
C41	C	1.445345	0.262417	0.000032
C42	C	1.438071	0.350736	0.000027
N43	N	1.470565	0.117035	0.356158
N44	N	1.470575	0.117033	-0.356079
C45	C	1.653198	0.009864	0.356159
C46	C	1.744522	-0.043719	0.428100
C47	C	1.744535	-0.043719	0.571979
C48	C	1.653211	0.009867	0.643922
C49	C	1.561887	0.063450	0.571982
C50	C	1.561886	0.063447	0.428099
C51	C	1.379250	0.170616	0.571980
C52	C	1.379241	0.170621	0.428101
C53	C	1.287926	0.224202	0.643923
C54	C	1.196605	0.277790	0.571983
C55	C	1.196597	0.277789	0.428094
C56	C	1.287916	0.224204	0.356160
H57	H	1.161821	0.265805	-0.000026
C58	C	1.287914	0.224197	0.197888
N59	N	1.287913	0.224186	0.078676
H60	H	1.634350	-0.507061	0.000052
C61	C	0.741940	-0.032357	0.000078
N62	N	0.633611	-0.034181	0.000072
C63	C	1.013671	0.416122	-0.000037
N64	N	1.048806	0.477007	-0.000051
C65	C	1.287928	0.224190	0.802195
N66	N	1.287926	0.224181	0.921407
H67	H	1.215684	-0.474951	0.000029
C68	C	0.927458	-0.182051	0.000112
N69	N	0.892315	-0.242933	0.000128
H70	H	0.764343	0.391128	-0.000021
H71	H	1.122225	0.321420	0.369528
C72	C	1.196100	-0.634836	0.000017
N73	N	1.103331	-0.661880	0.000011
C74	C	1.274773	-0.268191	0.000029
N75	N	1.181999	-0.295229	0.000020
C76	C	0.650050	0.257178	0.000018
N77	N	0.541720	0.255357	0.000028
H78	H	1.818895	-0.087354	0.630554
H79	H	1.653206	0.009866	0.239005
H80	H	1.620468	-0.408442	0.000065
C81	C	1.844956	-0.102674	0.348953
N82	N	1.920595	-0.147084	0.289342
C83	C	1.759397	-0.305355	0.000078
N84	N	1.857836	-0.347059	0.000111
C85	C	1.291073	-0.023098	0.000070
N86	N	1.399399	-0.021263	0.000080
C87	C	1.653210	0.009849	0.802194
N88	N	1.653203	0.009833	0.921406
C89	C	1.096151	0.336723	0.651128
N90	N	1.020486	0.381111	0.710746
H91	H	1.176786	-0.157062	0.000105
H92	H	1.646769	-0.657602	0.000033
H93	H	1.713025	-0.140416	0.000035
H94	H	1.294354	-0.108321	0.000027
H95	H	1.320653	-0.357475	0.000024
