data_functionalizedCrystal
_audit_creation_method	'MofGen! by Chris Wilmer'
_symmetry_space_group_name_H-M	'P1'
_symmetry_Int_Tables_number	1
_symmetry_cell_setting	triclinic
loop_
_symmetry_equiv_pos_as_xyz
  x,y,z
_cell_length_a	10.654550
_cell_length_b	10.540539
_cell_length_c	9.130313
_cell_angle_alpha	90.000859
_cell_angle_beta	89.996220
_cell_angle_gamma	84.505197
loop_
_atom_site_label
_atom_site_type_symbol
_atom_site_fract_x
_atom_site_fract_y
_atom_site_fract_z
O1	O	1.667897	0.178295	-0.121912
O2	O	1.302424	0.195282	-0.121888
O3	O	1.493499	0.002079	-0.121899
O4	O	1.476823	0.371498	-0.121902
O5	O	1.493496	0.002084	0.121700
O6	O	1.302422	0.195287	0.121711
O7	O	1.667894	0.178300	0.121686
Cu8	Cu	1.485158	0.186794	0.143941
Cu9	Cu	1.485161	0.186788	-0.144143
O10	O	1.476820	0.371503	0.121697
C11	C	1.255625	0.194038	-0.000086
C12	C	1.116180	0.190306	-0.000077
C13	C	1.036734	0.304061	-0.000099
C14	C	0.905712	0.300547	-0.000124
C15	C	0.933595	0.069513	-0.000111
C16	C	1.064614	0.073028	-0.000075
C17	C	1.088301	0.421338	-0.000100
C18	C	1.008854	0.535103	-0.000124
C19	C	0.877832	0.531589	-0.000149
C20	C	0.826256	0.414310	-0.000151
C21	C	1.492247	-0.045221	-0.000102
C22	C	1.488505	-0.186168	-0.000110
C23	C	1.345134	-0.369543	-0.000647
C24	C	1.348927	-0.222926	-0.000099
C25	C	1.555675	-0.247846	0.138993
C26	C	1.550912	-0.394389	0.139110
C27	C	1.553753	-0.394914	-0.137907
C28	C	1.555039	-0.247933	-0.139747
C29	C	1.714694	0.179545	-0.000119
C30	C	1.854139	0.183276	-0.000138
C31	C	1.478072	0.418803	-0.000103
C32	C	1.481813	0.559750	-0.000105
N33	N	1.485165	0.186798	0.346564
N34	N	1.485163	0.186774	-0.346765
C35	C	1.569795	0.101277	0.423211
C36	C	1.569791	0.101262	0.576548
C37	C	1.400525	0.272300	0.576577
C38	C	1.400523	0.272308	0.423243
C39	C	1.654437	0.015767	0.346532
C40	C	1.739074	-0.069760	0.423179
C41	C	1.739071	-0.069775	0.576516
C42	C	1.654430	0.015736	0.653206
H43	H	0.719568	0.411458	-0.000148
N44	N	1.488599	-0.429745	0.269536
N45	N	1.389939	-0.484636	0.260897
H46	H	1.345924	-0.509600	0.353011
H47	H	1.290221	-0.399728	0.098554
N48	N	1.314062	0.359630	0.654910
N49	N	1.235752	0.318608	0.740474
H50	H	1.174686	0.380286	0.795797
N51	N	1.275933	-0.405373	-0.125772
N52	N	1.234496	-0.322677	-0.216179
H53	H	1.185617	-0.347986	-0.304552
N54	N	1.825500	-0.157170	0.344903
N55	N	1.941605	-0.154428	0.362024
H56	H	2.002631	-0.216194	0.306763
N57	N	0.880914	-0.050275	-0.000156
N58	N	0.904906	-0.127226	-0.102840
H59	H	0.867702	-0.211830	-0.102878
N60	N	1.314080	0.359651	0.344919
N61	N	1.235772	0.318636	0.259359
H62	H	1.174716	0.380320	0.204039
H63	H	1.651295	-0.442394	0.145414
H64	H	1.654450	0.015774	0.221677
N65	N	1.282155	-0.170526	0.125213
N66	N	1.232613	-0.242255	0.212545
H67	H	1.185455	-0.205250	0.301055
H68	H	1.194984	0.424213	-0.000086
H69	H	1.658178	-0.225529	0.144158
H70	H	1.807977	-0.139423	0.638921
N71	N	1.497145	-0.194421	0.268881
N72	N	1.537161	-0.231232	0.391907
H73	H	1.495818	-0.193504	0.483641
N74	N	1.061551	0.654882	-0.000099
N75	N	1.178533	0.658007	-0.000071
H76	H	1.215751	0.742604	-0.000050
N77	N	0.796696	0.647800	-0.000150
N78	N	0.842759	0.752497	-0.000143
H79	H	0.785460	0.834577	-0.000147
H80	H	1.505891	-0.207059	-0.242651
H81	H	1.129301	-0.019601	-0.000061
N82	N	1.282634	-0.169454	-0.125193
N83	N	1.318346	-0.202306	-0.251174
H84	H	1.271519	-0.164547	-0.339525
N85	N	1.497084	-0.434498	-0.270161
N86	N	1.402976	-0.496612	-0.264454
H87	H	1.362942	-0.524572	-0.357851
N88	N	1.682711	-0.217631	-0.150313
N89	N	1.750058	-0.259077	-0.255186
H90	H	1.840233	-0.237681	-0.262639
H91	H	1.654426	0.015708	0.778063
H92	H	1.654570	-0.442177	-0.138850
