data_functionalizedCrystal
_audit_creation_method	'MofGen! by Chris Wilmer'
_symmetry_space_group_name_H-M	'P1'
_symmetry_Int_Tables_number	1
_symmetry_cell_setting	triclinic
loop_
_symmetry_equiv_pos_as_xyz
  x,y,z
_cell_length_a	10.685741
_cell_length_b	10.685969
_cell_length_c	10.686551
_cell_angle_alpha	90.351934
_cell_angle_beta	89.636396
_cell_angle_gamma	99.045477
loop_
_atom_site_label
_atom_site_type_symbol
_atom_site_fract_x
_atom_site_fract_y
_atom_site_fract_z
Zn1	Zn	-0.610788	-2.022474	-0.605030
Zn2	Zn	-0.110788	-1.522474	-0.105030
Zn3	Zn	-0.836885	-2.024851	-0.411205
Zn4	Zn	-0.336885	-1.524851	0.088795
Zn5	Zn	-0.608406	-1.796405	-0.411224
Zn6	Zn	-0.108406	-1.296405	0.088776
Zn7	Zn	-0.804598	-1.828631	-0.634746
Zn8	Zn	-0.304598	-1.328631	-0.134746
O9	O	-0.715169	-1.918090	-0.515551
O10	O	-0.215169	-1.418090	-0.015551
O11	O	-0.655289	-2.199519	-0.566874
O12	O	-0.155289	-1.699519	-0.066874
O13	O	-0.819092	-1.982055	-0.236546
O14	O	-0.319092	-1.482055	0.263454
O15	O	-0.431993	-1.811913	-0.424505
O16	O	0.068007	-1.311913	0.075495
O17	O	-0.821401	-2.201265	-0.424471
O18	O	-0.321401	-1.701265	0.075529
O19	O	-0.433743	-1.978005	-0.566893
O20	O	0.066257	-1.478005	-0.066893
O21	O	-0.651230	-1.814217	-0.236561
O22	O	-0.151230	-1.314217	0.263439
O23	O	-0.619923	-1.623951	-0.453319
O24	O	-0.119923	-1.123951	0.046681
O25	O	-0.766374	-1.866837	-0.805465
O26	O	-0.266374	-1.366837	-0.305465
O27	O	-0.764064	-1.647627	-0.617540
O28	O	-0.264064	-1.147627	-0.117540
O29	O	-0.623982	-2.009253	-0.783633
O30	O	-0.123982	-1.509253	-0.283633
O31	O	-1.009331	-2.013303	-0.453286
O32	O	-0.509331	-1.513303	0.046714
O33	O	-0.985611	-1.869141	-0.617521
O34	O	-0.485611	-1.369141	-0.117521
C35	C	-0.688233	-1.589965	-0.538657
C36	C	-0.188233	-1.089965	-0.038657
C37	C	-0.676737	-1.449597	-0.548574
C38	C	-0.176737	-0.949597	-0.048574
C39	C	-0.385762	-1.891099	-0.492386
C40	C	0.114238	-1.391099	0.007614
C41	C	-0.245389	-1.879597	-0.482514
C42	C	0.254611	-1.379597	0.017486
C43	C	-1.043296	-1.945013	-0.538651
C44	C	-0.543296	-1.445013	-0.038651
C45	C	-1.183676	-1.956649	-0.548567
C46	C	-0.683676	-1.456649	-0.048567
C47	C	-0.691842	-1.941375	-0.841103
C48	C	-0.191842	-1.441375	-0.341103
C49	C	-0.681902	-1.951297	-0.979833
C50	C	-0.181902	-1.451297	-0.479833
C51	C	-0.742201	-1.247495	-0.492341
C52	C	-0.242201	-0.747495	0.007659
C53	C	-0.753692	-1.387862	-0.482411
C54	C	-0.253692	-0.887862	0.017589
C55	C	-0.738320	-1.894962	-0.191254
C56	C	-0.238320	-1.394962	0.308746
C57	C	-0.747925	-1.885255	-0.052482
C58	C	-0.247925	-1.385255	0.447518
H59	H	-0.828383	-1.442403	-0.418180
H60	H	-0.328383	-0.942403	0.081820
H61	H	-0.617777	-2.015435	-1.023769
H62	H	-0.117777	-1.515435	-0.523769
N63	N	-0.832889	-1.800302	-0.994293
N64	N	-0.332889	-1.300302	-0.494293
H65	H	-0.828190	-1.805015	-0.900112
H66	H	-0.328190	-1.305015	-0.400112
H67	H	-0.804219	-1.710102	-1.021987
H68	H	-0.304219	-1.210102	-0.521987
N69	N	-0.255929	-2.055701	-0.633472
N70	N	0.244071	-1.555701	-0.133472
H71	H	-0.349329	-2.050158	-0.628723
H72	H	0.150671	-1.550158	-0.128723
H73	H	-0.224941	-2.040560	-0.722400
H74	H	0.275059	-1.540560	-0.222400
H75	H	-0.602061	-1.395064	-0.612812
H76	H	-0.102061	-0.895064	-0.112812
H77	H	-0.190829	-1.804827	-0.418403
H78	H	0.309171	-1.304827	0.081597
