data_functionalizedCrystal
_audit_creation_method	'MofGen! by Chris Wilmer'
_symmetry_space_group_name_H-M	'P1'
_symmetry_Int_Tables_number	1
_symmetry_cell_setting	triclinic
loop_
_symmetry_equiv_pos_as_xyz
  x,y,z
_cell_length_a	12.759401
_cell_length_b	14.908178
_cell_length_c	12.759393
_cell_angle_alpha	93.332413
_cell_angle_beta	90.019404
_cell_angle_gamma	93.313938
loop_
_atom_site_label
_atom_site_type_symbol
_atom_site_fract_x
_atom_site_fract_y
_atom_site_fract_z
Zn1	Zn	1.582097	-0.359138	0.569837
Zn2	Zn	1.571841	-0.510038	0.384002
Zn3	Zn	1.406396	-0.359184	0.394171
Zn4	Zn	1.396242	-0.509968	0.559645
O5	O	1.489144	-0.434582	0.476914
O6	O	1.727757	-0.379165	0.545195
O7	O	1.549851	-0.490076	0.238326
O8	O	1.438245	-0.232923	0.425994
O9	O	1.720222	-0.490030	0.408663
O10	O	1.567332	-0.232889	0.555056
O11	O	1.428300	-0.379244	0.245797
O12	O	1.258029	-0.379176	0.416111
O13	O	1.420939	-0.489911	0.708021
O14	O	1.250568	-0.489956	0.537685
O15	O	1.557486	-0.379097	0.715509
O16	O	1.540005	-0.636284	0.398780
O17	O	1.410993	-0.636232	0.527825
C18	C	1.216178	-0.434564	0.476896
C19	C	1.099400	-0.434578	0.476912
C20	C	1.473313	-0.668995	0.461116
C21	C	1.466637	-0.769277	0.454393
C22	C	0.938671	-0.376837	0.413744
C23	C	1.048396	-0.376819	0.413733
C24	C	1.040673	-0.492352	0.540114
C25	C	0.930950	-0.492364	0.540130
C26	C	0.943130	-0.310137	0.340776
C27	C	1.052855	-0.310120	0.340765
C28	C	1.588407	-0.957534	0.576295
C29	C	1.582138	-1.051758	0.569981
C30	C	1.447824	-1.051953	0.435458
C31	C	1.454093	-0.957728	0.441772
C32	C	1.524389	-0.910522	0.512191
C33	C	1.530663	-0.816296	0.518499
C34	C	1.396344	-0.816492	0.383981
C35	C	1.390074	-0.910716	0.377668
C36	C	1.763176	-0.434600	0.476932
C37	C	1.879952	-0.434608	0.476939
C38	C	1.489224	-0.434491	0.750953
C39	C	1.489257	-0.434452	0.867733
C40	C	1.505065	-0.199254	0.492796
C41	C	1.511850	-0.098971	0.499564
C42	C	1.489129	-0.434607	0.203944
C43	C	1.489316	-0.434392	0.087183
C44	C	1.560367	-0.376746	0.926496
C45	C	1.560394	-0.376713	1.036222
C46	C	1.418199	-0.492101	1.028412
C47	C	1.418167	-0.492128	0.918688
C48	C	1.642466	-0.310130	0.931005
C49	C	1.642493	-0.310098	1.040732
H50	H	0.883146	-0.539400	0.591599
Br51	Br	1.321638	-0.570429	0.838941
H52	H	1.332840	-0.949165	0.320337
Br53	Br	1.626067	-0.752230	0.614061
Br54	Br	1.776018	-0.341272	1.088279
Br55	Br	1.309467	-0.752686	0.296967
H56	H	1.082210	-0.539374	0.591564
H57	H	1.645652	-0.919098	0.633626
H58	H	1.718053	-0.335179	0.895285
Br59	Br	0.901358	-0.193716	0.385165
H60	H	1.390588	-1.090404	0.378131
Br61	Br	0.883528	-0.351732	0.209079
Br62	Br	1.321722	-0.570370	1.097572
H63	H	1.617845	-0.243708	1.079247
Br64	Br	1.669019	-1.115558	0.656988
Br65	Br	1.100340	-0.341178	0.202991
Br66	Br	1.117064	-0.199531	0.397002
Br67	Br	1.614020	-0.193676	0.889236
