data_functionalizedCrystal
_audit_creation_method	'MofGen! by Chris Wilmer'
_symmetry_space_group_name_H-M	'P1'
_symmetry_Int_Tables_number	1
_symmetry_cell_setting	triclinic
loop_
_symmetry_equiv_pos_as_xyz
  x,y,z
_cell_length_a	15.944545
_cell_length_b	15.021413
_cell_length_c	19.288865
_cell_angle_alpha	90.001222
_cell_angle_beta	83.316210
_cell_angle_gamma	90.004532
loop_
_atom_site_label
_atom_site_type_symbol
_atom_site_fract_x
_atom_site_fract_y
_atom_site_fract_z
O1	O	1.114187	0.073985	0.089552
O2	O	1.364187	0.323985	0.339552
O3	O	1.614187	0.573985	0.589552
O4	O	1.864187	0.823985	0.839552
O5	O	0.869594	0.074001	0.100601
O6	O	1.119594	0.324001	0.350601
O7	O	1.369594	0.574001	0.600601
O8	O	1.619594	0.824001	0.850601
O9	O	0.998958	0.073975	-0.006035
O10	O	1.248958	0.323975	0.243965
O11	O	1.498958	0.573975	0.493965
O12	O	1.748958	0.823975	0.743965
O13	O	0.984823	0.074011	0.196188
O14	O	1.234823	0.324011	0.446188
O15	O	1.484823	0.574011	0.696188
O16	O	1.734823	0.824011	0.946188
O17	O	0.998938	-0.074090	-0.006020
O18	O	1.248938	0.175910	0.243980
O19	O	1.498938	0.425910	0.493980
O20	O	1.748938	0.675910	0.743980
O21	O	0.869574	-0.074064	0.100616
O22	O	1.119574	0.175936	0.350616
O23	O	1.369574	0.425936	0.600616
O24	O	1.619574	0.675936	0.850616
O25	O	1.114167	-0.074079	0.089567
O26	O	1.364167	0.175921	0.339567
O27	O	1.614167	0.425921	0.589567
O28	O	1.864167	0.675921	0.839567
Zn29	Zn	0.991867	-0.097580	0.095094
Zn30	Zn	1.241867	0.152420	0.345094
Zn31	Zn	1.491867	0.402420	0.595094
Zn32	Zn	1.741867	0.652420	0.845094
Zn33	Zn	0.991894	0.097501	0.095074
Zn34	Zn	1.241894	0.347501	0.345074
Zn35	Zn	1.491894	0.597501	0.595074
Zn36	Zn	1.741894	0.847501	0.845074
O37	O	0.984803	-0.074053	0.196204
O38	O	1.234803	0.175947	0.446204
O39	O	1.484803	0.425947	0.696204
O40	O	1.734803	0.675947	0.946204
C41	C	0.838292	-0.000030	0.100151
C42	C	1.088292	0.249970	0.350151
C43	C	1.338292	0.499970	0.600151
C44	C	1.588292	0.749970	0.850151
C45	C	0.745051	-0.000024	0.098778
C46	C	0.995051	0.249976	0.348778
C47	C	1.245051	0.499976	0.598778
C48	C	1.495051	0.749976	0.848778
C49	C	0.474688	-0.000046	0.028578
C50	C	0.724688	0.249954	0.278578
C51	C	0.974688	0.499954	0.528578
C52	C	1.224688	0.749954	0.778578
C53	C	0.525129	-0.073046	0.062430
C54	C	0.775129	0.176954	0.312430
C55	C	1.025129	0.426954	0.562430
C56	C	1.275129	0.676954	0.812430
C57	C	0.409426	-0.000041	0.093882
C58	C	0.659426	0.249959	0.343882
C59	C	0.909426	0.499959	0.593882
C60	C	1.159426	0.749959	0.843882
C61	C	0.525130	0.072934	0.062433
C62	C	0.775130	0.322934	0.312433
C63	C	1.025130	0.572934	0.562433
C64	C	1.275130	0.822934	0.812433
C65	C	0.574330	-0.000031	0.096284
C66	C	0.824330	0.249969	0.346284
C67	C	1.074330	0.499969	0.596284
C68	C	1.324330	0.749969	0.846284
C69	C	0.458639	-0.073100	0.127717
C70	C	0.708639	0.176900	0.377717
C71	C	0.958639	0.426900	0.627717
C72	C	1.208639	0.676900	0.877717
C73	C	0.458636	0.072945	0.127710
C74	C	0.708636	0.322945	0.377710
C75	C	0.958636	0.572945	0.627710
C76	C	1.208636	0.822945	0.877710
C77	C	0.509044	-0.000072	0.161611
C78	C	0.759044	0.249928	0.411611
C79	C	1.009044	0.499928	0.661611
C80	C	1.259044	0.749928	0.911611
C81	C	0.314429	-0.000047	0.092497
C82	C	0.564429	0.249953	0.342497
C83	C	0.814429	0.499953	0.592497
C84	C	1.064429	0.749953	0.842497
C85	C	0.669324	-0.000031	0.097675
C86	C	0.919324	0.249969	0.347675
C87	C	1.169324	0.499969	0.597675
C88	C	1.419324	0.749969	0.847675
N89	N	0.991855	-0.230717	0.095108
N90	N	1.241855	0.019283	0.345108
N91	N	1.491855	0.269283	0.595108
N92	N	1.741855	0.519283	0.845108
C93	C	0.932028	-0.470389	0.144393
C94	C	1.182028	-0.220389	0.394393
C95	C	1.432028	0.029611	0.644393
C96	C	1.682028	0.279611	0.894393
C97	C	1.007876	-0.529725	0.157876
C98	C	1.257876	-0.279725	0.407876
C99	C	1.507876	-0.029725	0.657876
C100	C	1.757876	0.220275	0.907876
C101	C	0.991876	-0.412324	0.095090
C102	C	1.241876	-0.162324	0.345090
C103	C	1.491876	0.087676	0.595090
C104	C	1.741876	0.337676	0.845090
C105	C	0.916048	-0.529730	0.081622
C106	C	1.166048	-0.279730	0.331622
C107	C	1.416048	-0.029730	0.581622
C108	C	1.666048	0.220270	0.831622
C109	C	0.991890	-0.587748	0.095075
C110	C	1.241890	-0.337748	0.345075
C111	C	1.491890	-0.087748	0.595075
C112	C	1.741890	0.162252	0.845075
C113	C	1.067763	-0.470354	0.108605
C114	C	1.317763	-0.220354	0.358605
C115	C	1.567763	0.029646	0.608605
C116	C	1.817763	0.279646	0.858605
C117	C	0.975885	-0.470354	0.032324
C118	C	1.225885	-0.220354	0.282324
C119	C	1.475885	0.029646	0.532324
C120	C	1.725885	0.279646	0.782324
C121	C	1.051788	-0.529663	0.045780
C122	C	1.301788	-0.279663	0.295780
C123	C	1.551788	-0.029663	0.545780
C124	C	1.801788	0.220337	0.795780
C125	C	0.991867	-0.311267	0.095101
C126	C	1.241867	-0.061267	0.345101
C127	C	1.491867	0.188733	0.595101
C128	C	1.741867	0.438733	0.845101
C129	C	0.991908	-0.688804	0.095064
C130	C	1.241908	-0.438804	0.345064
C131	C	1.491908	-0.188804	0.595064
C132	C	1.741908	0.061196	0.845064
C133	C	1.145469	-0.000047	0.090018
C134	C	1.395469	0.249953	0.340018
C135	C	1.645469	0.499953	0.590018
C136	C	1.895469	0.749953	0.840018
C137	C	1.238710	-0.000046	0.091390
C138	C	1.488710	0.249954	0.341390
C139	C	1.738710	0.499954	0.591390
C140	C	1.988710	0.749954	0.841390
C141	C	0.998493	-0.000060	-0.031905
C142	C	1.248493	0.249940	0.218095
C143	C	1.498493	0.499940	0.468095
C144	C	1.748493	0.749940	0.718095
C145	C	0.997128	-0.000068	-0.109012
C146	C	1.247128	0.249932	0.140988
C147	C	1.497128	0.499932	0.390988
C148	C	1.747128	0.749932	0.640988
N149	N	0.991913	0.230639	0.095055
N150	N	1.241913	0.480639	0.345055
N151	N	1.491913	0.730639	0.595055
N152	N	1.741913	0.980639	0.845055
C153	C	1.073033	-0.000077	-0.153510
C154	C	1.323033	0.249923	0.096490
C155	C	1.573033	0.499923	0.346490
C156	C	1.823033	0.749923	0.596490
C157	C	1.071750	-0.000063	-0.225961
C158	C	1.321750	0.249937	0.024039
C159	C	1.571750	0.499937	0.274039
C160	C	1.821750	0.749937	0.524039
C161	C	0.994558	-0.000057	-0.253910
C162	C	1.244558	0.249943	-0.003910
C163	C	1.494558	0.499943	0.246090
C164	C	1.744558	0.749943	0.496090
C165	C	0.918643	-0.000043	-0.209402
C166	C	1.168643	0.249957	0.040598
C167	C	1.418643	0.499957	0.290598
C168	C	1.668643	0.749957	0.540598
C169	C	0.919928	-0.000048	-0.136954
C170	C	1.169928	0.249952	0.113046
C171	C	1.419928	0.499952	0.363046
C172	C	1.669928	0.749952	0.613046
C173	C	0.933869	-0.051917	-0.362351
C174	C	1.183869	0.198083	-0.112351
C175	C	1.433869	0.448083	0.137649
C176	C	1.683869	0.698083	0.387649
C177	C	0.932587	-0.051917	-0.434799
C178	C	1.182587	0.198083	-0.184799
C179	C	1.432587	0.448083	0.065201
C180	C	1.682587	0.698083	0.315201
C181	C	0.990592	-0.000037	-0.477366
C182	C	1.240592	0.249963	-0.227366
C183	C	1.490592	0.499963	0.022634
C184	C	1.740592	0.749963	0.272634
C185	C	1.049893	0.051832	-0.447478
C186	C	1.299893	0.301832	-0.197478
C187	C	1.549893	0.551832	0.052522
C188	C	1.799893	0.801832	0.302522
C189	C	1.051178	0.051827	-0.375029
C190	C	1.301178	0.301827	-0.125029
C191	C	1.551178	0.551827	0.124971
C192	C	1.801178	0.801827	0.374971
C193	C	0.993156	-0.000051	-0.332468
C194	C	1.243156	0.249949	-0.082468
C195	C	1.493156	0.499949	0.167532
C196	C	1.743156	0.749949	0.417532
C197	C	1.065112	-0.000030	-0.600423
C198	C	1.315112	0.249970	-0.350423
C199	C	1.565112	0.499970	-0.100423
C200	C	1.815112	0.749970	0.149577
C201	C	1.063826	-0.000010	-0.672875
C202	C	1.313826	0.249990	-0.422875
C203	C	1.563826	0.499990	-0.172875
C204	C	1.813826	0.749990	0.077125
C205	C	0.910717	0.000001	-0.656315
C206	C	1.160717	0.250001	-0.406315
C207	C	1.410717	0.500001	-0.156315
C208	C	1.660717	0.750001	0.093685
C209	C	0.912005	-0.000010	-0.583865
C210	C	1.162005	0.249990	-0.333865
C211	C	1.412005	0.499990	-0.083865
C212	C	1.662005	0.749990	0.166135
C213	C	0.989204	-0.000029	-0.555924
C214	C	1.239204	0.249971	-0.305924
C215	C	1.489204	0.499971	-0.055924
C216	C	1.739204	0.749971	0.194076
C217	C	0.985268	-0.000017	0.222074
C218	C	1.235268	0.249983	0.472074
C219	C	1.485268	0.499983	0.722074
C220	C	1.735268	0.749983	0.972074
C221	C	0.986633	-0.000003	0.299181
C222	C	1.236633	0.249997	0.549181
C223	C	1.486633	0.499997	0.799181
C224	C	1.736633	0.749997	1.049181
H225	H	0.429714	-0.134882	0.155283
H226	H	0.679714	0.115118	0.405283
H227	H	0.929714	0.365118	0.655283
H228	H	1.179714	0.615118	0.905283
H229	H	0.524319	-0.000105	0.217895
H230	H	0.774319	0.249895	0.467895
H231	H	1.024319	0.499895	0.717895
H232	H	1.274319	0.749895	0.967895
H233	H	1.099461	0.094062	-0.350698
H234	H	1.349461	0.344062	-0.100698
H235	H	1.599461	0.594062	0.149302
H236	H	1.849461	0.844062	0.399302
F237	F	1.118020	-0.563473	-0.008728
F238	F	1.368020	-0.313473	0.241272
F239	F	1.618020	-0.063473	0.491272
F240	F	1.868020	0.186527	0.741272
F241	F	0.872129	-0.107140	-0.317054
F242	F	1.122129	0.142860	-0.067054
F243	F	1.372129	0.392860	0.182946
F244	F	1.622129	0.642860	0.432946
H245	H	0.855793	-0.000037	-0.232163
H246	H	1.105793	0.249963	0.017837
H247	H	1.355793	0.499963	0.267837
H248	H	1.605793	0.749963	0.517837
F249	F	1.111630	0.107052	-0.492776
F250	F	1.361630	0.357052	-0.242776
F251	F	1.611630	0.607052	0.007224
F252	F	1.861630	0.857052	0.257224
F253	F	0.839136	-0.000038	-0.089594
F254	F	1.089136	0.249962	0.160406
F255	F	1.339136	0.499962	0.410406
F256	F	1.589136	0.749962	0.660406
H257	H	0.847865	0.000010	-0.679070
H258	H	1.097865	0.250010	-0.429070
H259	H	1.347865	0.500010	-0.179070
H260	H	1.597865	0.750010	0.070930
F261	F	0.454509	-0.000150	-0.044932
F262	F	0.704509	0.249850	0.205068
F263	F	0.954509	0.499850	0.455068
F264	F	1.204509	0.749850	0.705068
F265	F	1.147273	-0.000055	-0.570684
F266	F	1.397273	0.249945	-0.320684
F267	F	1.647273	0.499945	-0.070684
F268	F	1.897273	0.749945	0.179316
H269	H	0.429592	0.134672	0.155259
H270	H	0.679592	0.384672	0.405259
H271	H	0.929592	0.634672	0.655259
H272	H	1.179592	0.884672	0.905259
F273	F	0.563079	0.153595	0.026362
F274	F	0.813079	0.403595	0.276362
F275	F	1.063079	0.653595	0.526362
F276	F	1.313079	0.903595	0.776362
H277	H	0.850194	-0.000007	-0.547634
H278	H	1.100194	0.249993	-0.297634
H279	H	1.350194	0.499993	-0.047634
H280	H	1.600194	0.749993	0.202366
F281	F	0.865941	-0.436367	0.198932
F282	F	1.115941	-0.186367	0.448932
F283	F	1.365941	0.063633	0.698932
F284	F	1.615941	0.313633	0.948932
F285	F	1.152542	-0.000071	-0.273327
F286	F	1.402542	0.249929	-0.023327
F287	F	1.652542	0.499929	0.226673
F288	F	1.902542	0.749929	0.476673
F289	F	1.025573	-0.563813	0.227246
F290	F	1.275573	-0.313813	0.477246
F291	F	1.525573	-0.063813	0.727246
F292	F	1.775573	0.186187	0.977246
H293	H	0.884298	-0.094147	-0.459127
H294	H	1.134298	0.155853	-0.209127
H295	H	1.384298	0.405853	0.040873
H296	H	1.634298	0.655853	0.290873
F297	F	1.151608	-0.436411	0.123566
F298	F	1.401608	-0.186411	0.373566
F299	F	1.651608	0.063589	0.623566
F300	F	1.901608	0.313589	0.873566
F301	F	0.958159	-0.436238	-0.037026
F302	F	1.208159	-0.186238	0.212974
F303	F	1.458159	0.063762	0.462974
F304	F	1.708159	0.313762	0.712974
F305	F	0.832223	-0.563822	0.066741
F306	F	1.082223	-0.313822	0.316741
F307	F	1.332223	-0.063822	0.566741
F308	F	1.582223	0.186178	0.816741
F309	F	1.155196	-0.000079	-0.123777
F310	F	1.405196	0.249921	0.126223
F311	F	1.655196	0.499921	0.376223
F312	F	1.905196	0.749921	0.626223
H313	H	1.125639	-0.000013	-0.709105
H314	H	1.375639	0.249987	-0.459105
H315	H	1.625639	0.499987	-0.209105
H316	H	1.875639	0.749987	0.040895
H317	H	0.554158	-0.134771	0.034857
H318	H	0.804158	0.115229	0.284857
H319	H	1.054158	0.365229	0.534857
H320	H	1.304158	0.615229	0.784857
