data_functionalizedCrystal
_audit_creation_method	'MofGen! by Chris Wilmer'
_symmetry_space_group_name_H-M	'P1'
_symmetry_Int_Tables_number	1
_symmetry_cell_setting	triclinic
loop_
_symmetry_equiv_pos_as_xyz
  x,y,z
_cell_length_a	12.759401
_cell_length_b	15.297327
_cell_length_c	15.296721
_cell_angle_alpha	107.319336
_cell_angle_beta	99.664290
_cell_angle_gamma	99.706546
loop_
_atom_site_label
_atom_site_type_symbol
_atom_site_fract_x
_atom_site_fract_y
_atom_site_fract_z
Zn1	Zn	1.394249	-0.461210	-0.589765
Zn2	Zn	1.394129	-0.589832	-0.461159
Zn3	Zn	1.255330	-0.434340	-0.434290
Zn4	Zn	1.181756	-0.616677	-0.616614
O5	O	1.306366	-0.525515	-0.525457
O6	O	1.541250	-0.478283	-0.572714
O7	O	1.406458	-0.546725	-0.327470
O8	O	1.304599	-0.307767	-0.432432
O9	O	1.541162	-0.572781	-0.478228
O10	O	1.406662	-0.327509	-0.546660
O11	O	1.304483	-0.432486	-0.307728
O12	O	1.098553	-0.458516	-0.458467
O13	O	1.179202	-0.618534	-0.743178
O14	O	1.044498	-0.592478	-0.592420
O15	O	1.335320	-0.504314	-0.723452
O16	O	1.335116	-0.723530	-0.504262
O17	O	1.179086	-0.743253	-0.618474
C18	C	1.033406	-0.525495	-0.525441
C19	C	0.916621	-0.525513	-0.525461
C20	C	0.833641	-0.595346	-0.595128
C21	C	0.723912	-0.595359	-0.595140
C22	C	0.780155	-0.455704	-0.455809
C23	C	0.889882	-0.455687	-0.455802
C24	C	0.801169	-0.675977	-0.675568
C25	C	0.691440	-0.675990	-0.675580
C26	C	1.249128	-0.767138	-0.567218
C27	C	1.224731	-0.870511	-0.585114
C28	C	1.481098	-1.120730	-0.397866
C29	C	1.504021	-1.023605	-0.381046
C30	C	1.434201	-0.985327	-0.432062
C31	C	1.341453	-1.044183	-0.499899
C32	C	1.318522	-1.141316	-0.516715
C33	C	1.271625	-1.005913	-0.550912
C34	C	1.178877	-1.064769	-0.618749
C35	C	1.155951	-1.161893	-0.635562
C36	C	1.225772	-1.200171	-0.584547
C37	C	1.294556	-0.908780	-0.534096
C38	C	1.131980	-0.929366	-0.652946
C39	C	1.109056	-1.026491	-0.669765
C40	C	1.580392	-0.525535	-0.525473
C41	C	1.697165	-0.525543	-0.525480
C42	C	1.249068	-0.567416	-0.767999
C43	C	1.224651	-0.585271	-0.871355
C44	C	1.363851	-0.282951	-0.483554
C45	C	1.388347	-0.179585	-0.465697
C46	C	1.131893	-0.653128	-0.930180
C47	C	1.108952	-0.669909	-1.027289
C48	C	1.178761	-0.618831	-1.065583
C49	C	1.271517	-0.550969	-1.006758
C50	C	1.294465	-0.534191	-0.909640
C51	C	1.341334	-0.499894	-1.045043
C52	C	1.434089	-0.432032	-0.986218
C53	C	1.457032	-0.415256	-0.889109
C54	C	1.387223	-0.466334	-0.850815
C55	C	1.318386	-0.516673	-1.142162
C56	C	1.480958	-0.397736	-1.121622
C57	C	1.503899	-0.380954	-1.024512
C58	C	1.363517	-0.483710	-0.283847
C59	C	1.388200	-0.465592	-0.180446
H60	H	0.649197	-0.744639	-0.668618
O61	O	1.594156	-0.966354	-0.315269
C62	C	1.662737	-0.919272	-0.358526
H63	H	1.612414	-0.916894	-0.426450
H64	H	1.701913	-0.844433	-0.308837
H65	H	1.729341	-0.958416	-0.375268
O66	O	1.548798	-1.158068	-0.348399
C67	C	1.508637	-1.256409	-0.377755
H68	H	1.454125	-1.282073	-0.451804
H69	H	1.580103	-1.292202	-0.377842
H70	H	1.459210	-1.274474	-0.327358
O71	O	1.409467	-0.449857	-0.756450
C72	C	1.411308	-0.355104	-0.708641
H73	H	1.361385	-0.326349	-0.757978
H74	H	1.374720	-0.350500	-0.644805
H75	H	1.499307	-0.311846	-0.684479
H76	H	1.033431	-0.725164	-1.075179
H77	H	1.033539	-1.074425	-0.724999
H78	H	1.075124	-0.898201	-0.694485
H79	H	0.825134	-0.739872	-0.661471
O80	O	1.228331	-0.582698	-1.199216
C81	C	1.234946	-0.671289	-1.191513
H82	H	1.291541	-0.661036	-1.121341
H83	H	1.150028	-0.712406	-1.195380
H84	H	1.268615	-0.712063	-1.251587
H85	H	1.075068	-0.694713	-0.898992
O86	O	0.821994	-0.667825	-0.757475
C87	C	0.903932	-0.585661	-0.737605
H88	H	0.954441	-0.564967	-0.662566
H89	H	0.959305	-0.599538	-0.788985
H90	H	0.864311	-0.526040	-0.745196
H91	H	1.370072	-0.860867	-0.478862
O92	O	1.456427	-0.891011	-0.415900
C93	C	1.469976	-0.873906	-0.499406
H94	H	1.426123	-0.939123	-0.562644
H95	H	1.434005	-0.811806	-0.504658
H96	H	1.560751	-0.856955	-0.498442
H97	H	0.758370	-0.398854	-0.399096
O98	O	1.203700	-1.294521	-0.600887
C99	C	1.291064	-1.331021	-0.630470
H100	H	1.368552	-1.272267	-0.604933
H101	H	1.304353	-1.388757	-0.599790
H102	H	1.270932	-1.361554	-0.710606
H103	H	0.957443	-0.398818	-0.399077
O104	O	0.638803	-0.659621	-0.752054
C105	C	0.642151	-0.730249	-0.834703
H106	H	0.654889	-0.795848	-0.817558
H107	H	0.561780	-0.748224	-0.888976
H108	H	0.712489	-0.703788	-0.864408
H109	H	1.080419	-1.209810	-0.690789
O110	O	1.156289	-0.635215	-1.159929
C111	C	1.059467	-0.706079	-1.203641
H112	H	1.008225	-0.709432	-1.149920
H113	H	1.010897	-0.689236	-1.263757
H114	H	1.080984	-0.776868	-1.232594
H115	H	1.532567	-0.360006	-0.841217
O116	O	1.593891	-0.314975	-0.967255
C117	C	1.561581	-0.245190	-0.900716
H118	H	1.477625	-0.275469	-0.891832
H119	H	1.623457	-0.220935	-0.830275
H120	H	1.557533	-0.182735	-0.926234
O121	O	1.548633	-0.348162	-1.158957
C122	C	1.508501	-0.377534	-1.257287
H123	H	1.417072	-0.410278	-1.275801
H124	H	1.523409	-0.314251	-1.282161
H125	H	1.552568	-0.431821	-1.293411
