data_functionalizedCrystal
_audit_creation_method	'MofGen! by Chris Wilmer'
_symmetry_space_group_name_H-M	'P1'
_symmetry_Int_Tables_number	1
_symmetry_cell_setting	triclinic
loop_
_symmetry_equiv_pos_as_xyz
  x,y,z
_cell_length_a	16.109302
_cell_length_b	23.532407
_cell_length_c	14.586319
_cell_angle_alpha	89.991566
_cell_angle_beta	89.994552
_cell_angle_gamma	83.155229
loop_
_atom_site_label
_atom_site_type_symbol
_atom_site_fract_x
_atom_site_fract_y
_atom_site_fract_z
O1	O	1.102555	0.073204	-0.076291
O2	O	1.602555	0.573204	0.423709
O3	O	0.860421	0.082313	-0.076285
O4	O	1.360421	0.582313	0.423715
O5	O	0.988790	-0.005146	-0.076271
O6	O	1.488790	0.494854	0.423729
O7	O	0.974187	0.160663	-0.076305
O8	O	1.474187	0.660663	0.423695
O9	O	0.988781	-0.005147	0.076209
O10	O	1.488781	0.494853	0.576209
O11	O	0.860412	0.082312	0.076196
O12	O	1.360412	0.582312	0.576196
O13	O	1.102546	0.073203	0.076190
O14	O	1.602546	0.573203	0.576190
Cu15	Cu	0.981478	0.077757	0.090116
Cu16	Cu	1.481478	0.577757	0.590116
Cu17	Cu	0.981489	0.077759	-0.090211
Cu18	Cu	1.481489	0.577759	0.409789
O19	O	0.974178	0.160662	0.076176
O20	O	1.474178	0.660662	0.576176
C21	C	0.829445	0.081944	-0.000044
C22	C	1.329445	0.581944	0.499956
C23	C	0.737158	0.080837	-0.000041
C24	C	1.237158	0.580837	0.499959
C25	C	0.524833	0.078278	0.083068
C26	C	1.024833	0.578278	0.583068
C27	C	0.438121	0.077232	0.083065
C28	C	0.938121	0.577232	0.583065
C29	C	0.438141	0.077236	-0.083178
C30	C	0.938141	0.577236	0.416822
C31	C	0.524852	0.078278	-0.083174
C32	C	1.024852	0.578278	0.416826
C33	C	0.568195	0.078802	-0.000048
C34	C	1.068195	0.578802	0.499952
C35	C	0.394772	0.076714	-0.000055
C36	C	0.894772	0.576714	0.499945
C37	C	0.300755	0.075580	-0.000059
C38	C	0.800755	0.575580	0.499941
C39	C	0.662218	0.079935	-0.000044
C40	C	1.162218	0.579935	0.499956
C41	C	0.988413	-0.026364	-0.000029
C42	C	1.488413	0.473636	0.499971
C43	C	0.987295	-0.089585	-0.000022
C44	C	1.487295	0.410415	0.499978
C45	C	1.056248	-0.488434	-0.000074
C46	C	1.556248	0.011566	0.499926
C47	C	1.055210	-0.547838	-0.000080
C48	C	1.555210	-0.047838	0.499920
O49	O	1.119130	-0.584347	-0.000116
O50	O	1.619130	-0.084347	0.499884
N51	N	0.978895	-0.570746	-0.000078
N52	N	1.478895	-0.070746	0.499922
C53	C	0.903614	-0.534246	-0.000078
C54	C	1.403614	-0.034246	0.499922
O55	O	0.838607	-0.559186	-0.000077
O56	O	1.338607	-0.059186	0.499923
C57	C	0.904653	-0.474843	-0.000077
C58	C	1.404653	0.025157	0.499923
C59	C	0.980973	-0.451939	-0.000071
C60	C	1.480973	0.048061	0.499929
C61	C	1.132562	-0.465529	-0.000068
C62	C	1.632562	0.034471	0.499932
C63	C	1.133600	-0.406129	-0.000059
C64	C	1.633600	0.093871	0.499941
C65	C	1.058325	-0.369634	-0.000056
C66	C	1.558325	0.130366	0.499944
C67	C	0.982011	-0.392539	-0.000062
C68	C	1.482011	0.107461	0.499938
C69	C	0.829373	-0.438345	-0.000084
C70	C	1.329373	0.061655	0.499916
C71	C	0.830419	-0.378938	-0.000084
C72	C	1.330419	0.121062	0.499916
C73	C	0.906739	-0.356034	-0.000077
C74	C	1.406739	0.143966	0.499923
C75	C	0.907774	-0.296644	-0.000050
C76	C	1.407774	0.203356	0.499950
N77	N	0.984089	-0.273736	-0.000053
N78	N	1.484089	0.226264	0.499947
C79	C	1.059364	-0.310231	-0.000056
C80	C	1.559364	0.189769	0.499944
C81	C	0.901436	-0.658997	-0.000080
C82	C	1.401436	-0.158997	0.499920
C83	C	0.900396	-0.718398	-0.000074
C84	C	1.400396	-0.218398	0.499926
C85	C	1.051993	-0.731986	-0.000078
C86	C	1.551993	-0.231986	0.499922
C87	C	1.053032	-0.672583	-0.000078
C88	C	1.553032	-0.172583	0.499922
C89	C	0.977751	-0.636089	-0.000083
C90	C	1.477751	-0.136089	0.499917
C91	C	1.061539	-0.185486	-0.000037
C92	C	1.561539	0.314514	0.499963
C93	C	1.062571	-0.126080	-0.000024
C94	C	1.562571	0.373920	0.499976
C95	C	0.910975	-0.112498	-0.000025
C96	C	1.410975	0.387502	0.499975
C97	C	0.909943	-0.171898	-0.000032
C98	C	1.409943	0.328102	0.499968
C99	C	0.985232	-0.208392	-0.000042
C100	C	1.485232	0.291608	0.499958
O101	O	0.843887	-0.260100	-0.000019
O102	O	1.343887	0.239900	0.499981
O103	O	1.124361	-0.285283	-0.000069
O104	O	1.624361	0.214717	0.499931
C105	C	1.133522	0.073572	-0.000054
C106	C	1.633522	0.573572	0.499946
C107	C	1.225809	0.074679	-0.000063
C108	C	1.725809	0.574679	0.499937
C109	C	0.974554	0.181880	-0.000069
C110	C	1.474554	0.681880	0.499931
C111	C	0.975672	0.245101	-0.000082
C112	C	1.475672	0.745101	0.499918
N113	N	0.981477	0.077756	0.216947
N114	N	1.481477	0.577756	0.716947
N115	N	0.981497	0.077756	-0.217042
N116	N	1.481497	0.577756	0.282958
C117	C	1.038337	0.039042	0.451960
C118	C	1.538337	0.539042	0.951960
C119	C	1.038340	0.039040	0.547941
C120	C	1.538340	0.539040	1.047941
C121	C	0.924631	0.116472	0.547938
C122	C	1.424631	0.616472	1.047938
C123	C	0.924625	0.116470	0.451959
C124	C	1.424625	0.616470	0.951959
C125	C	0.981483	0.077756	0.403972
C126	C	1.481483	0.577756	0.903972
C127	C	0.981491	0.077756	0.595933
C128	C	1.481491	0.577756	1.095933
C129	C	0.981493	0.077755	0.700000
C130	C	1.481493	0.577755	1.200000
C131	C	0.981480	0.077756	0.299898
C132	C	1.481480	0.577756	0.799898
H133	H	0.402819	0.076806	0.150747
H134	H	0.902819	0.576806	0.650747
H135	H	0.847797	-0.190548	-0.000012
H136	H	1.347797	0.309452	0.499988
H137	H	0.560120	0.078704	0.150754
H138	H	1.060120	0.578704	0.650754
C139	C	1.142157	-0.613678	0.078305
C140	C	1.642157	-0.113678	0.578305
C141	C	1.136925	-0.647411	-0.000078
C142	C	1.636925	-0.147411	0.499922
H143	H	1.193954	-0.598144	0.078303
H144	H	1.693954	-0.098144	0.578303
H145	H	1.097486	-0.583439	0.078297
H146	H	1.597486	-0.083439	0.578297
H147	H	1.138592	-0.636578	0.131473
H148	H	1.638592	-0.136578	0.631473
H149	H	1.140484	-0.624510	-0.053247
H150	H	1.640484	-0.124510	0.446753
H151	H	1.181609	-0.677654	-0.000079
H152	H	1.681609	-0.177654	0.499921
C153	C	1.087943	-0.059545	0.422480
C154	C	1.587943	0.440455	0.922480
C155	C	1.100826	-0.003530	0.399234
C156	C	1.600826	0.496470	0.899234
H157	H	1.126518	-0.085832	0.389934
H158	H	1.626518	0.414168	0.889934
H159	H	1.096071	-0.065067	0.486507
H160	H	1.596071	0.434933	0.986507
H161	H	1.032506	-0.065728	0.406749
H162	H	1.532506	0.434272	0.906749
H163	H	1.156262	0.002653	0.414972
H164	H	1.656262	0.502653	0.914972
H165	H	1.092705	0.001993	0.335193
H166	H	1.592705	0.501993	0.835193
C167	C	0.874984	0.215053	0.577460
C168	C	1.374984	0.715053	1.077460
C169	C	0.862135	0.159028	0.600683
C170	C	1.362135	0.659028	1.100683
H171	H	0.836397	0.241326	0.610017
H172	H	1.336397	0.741326	1.110017
H173	H	0.930411	0.221247	0.593185
H174	H	1.430411	0.721247	1.093185
H175	H	0.866846	0.220583	0.513427
H176	H	1.366846	0.720583	1.013427
H177	H	0.870280	0.153497	0.664715
H178	H	1.370280	0.653497	1.164715
H179	H	0.806696	0.152832	0.584964
H180	H	1.306696	0.652832	1.084964
H181	H	0.769115	-0.349227	-0.000089
H182	H	1.269115	0.150773	0.499911
H183	H	1.124722	-0.107435	-0.000017
H184	H	1.624722	0.392565	0.499983
H185	H	0.878323	0.147996	0.412885
H186	H	1.378323	0.647996	0.912885
H187	H	0.560159	0.078703	-0.150861
H188	H	1.060159	0.578703	0.349139
H189	H	0.838249	-0.737041	-0.000064
H190	H	1.338249	-0.237041	0.499936
H191	H	1.122847	-0.215193	-0.000048
H192	H	1.622847	0.284807	0.499952
C193	C	0.421206	0.027996	-0.224873
C194	C	0.921206	0.527996	0.275127
C195	C	0.390495	0.076669	-0.174547
C196	C	0.890495	0.576669	0.325453
H197	H	0.391789	0.027648	-0.281280
H198	H	0.891789	0.527648	0.218720
H199	H	0.479047	0.028694	-0.236762
H200	H	0.979047	0.528694	0.263238
H201	H	0.413597	-0.005363	-0.190712
H202	H	0.913597	0.494637	0.309288
H203	H	0.398110	0.110029	-0.208706
H204	H	0.898110	0.610029	0.291294
H205	H	0.332640	0.075977	-0.162661
H206	H	0.832640	0.575977	0.337339
C207	C	1.117701	-0.829085	-0.000109
C208	C	1.617701	-0.329085	0.499891
C209	C	1.134739	-0.772110	-0.000098
C210	C	1.634739	-0.272110	0.499902
H211	H	1.168783	-0.853855	-0.000128
H212	H	1.668783	-0.353855	0.499872
H213	H	1.086395	-0.836031	0.053065
H214	H	1.586395	-0.336031	0.553065
H215	H	1.086381	-0.836009	-0.053283
H216	H	1.586381	-0.336009	0.446717
H217	H	1.166054	-0.765184	0.053080
H218	H	1.666054	-0.265184	0.553080
H219	H	1.166058	-0.765161	-0.053277
H220	H	1.666058	-0.265161	0.446723
H221	H	1.195748	-0.387486	-0.000057
H222	H	1.695748	0.112514	0.499943
C223	C	0.761022	-0.105019	-0.000035
C224	C	1.261022	0.394981	0.499965
C225	C	0.828234	-0.072375	-0.000028
C226	C	1.328234	0.427625	0.499972
H227	H	0.709942	-0.080247	-0.000037
H228	H	1.209942	0.419753	0.499963
H229	H	0.763775	-0.128465	-0.053205
H230	H	1.263775	0.371535	0.446795
H231	H	0.763760	-0.128476	0.053143
H232	H	1.263760	0.371524	0.553143
H233	H	0.825499	-0.048921	-0.053209
H234	H	1.325499	0.451079	0.446791
H235	H	0.825479	-0.048919	0.053147
H236	H	1.325479	0.451081	0.553147
C237	C	1.282506	-0.472977	-0.000056
C238	C	1.782506	0.027023	0.499944
C239	C	1.215315	-0.505638	-0.000063
C240	C	1.715315	-0.005638	0.499937
H241	H	1.333597	-0.497737	-0.000041
H242	H	1.833597	0.002263	0.499959
H243	H	1.279761	-0.449524	-0.053228
H244	H	1.779761	0.050476	0.446772
H245	H	1.279736	-0.449525	0.053119
H246	H	1.779736	0.050475	0.553119
H247	H	1.218082	-0.529087	-0.053241
H248	H	1.718082	-0.029087	0.446759
H249	H	1.218062	-0.529101	0.053115
H250	H	1.718062	-0.029101	0.553115
C251	C	1.057033	-0.038466	0.655886
C252	C	1.557033	0.461534	1.155886
C253	C	1.100837	-0.003515	0.600688
C254	C	1.600837	0.496485	1.100688
H255	H	1.095619	-0.064741	0.688444
H256	H	1.595619	0.435259	1.188444
H257	H	1.023185	-0.015410	0.698200
H258	H	1.523185	0.484590	1.198200
H259	H	1.022599	-0.058956	0.618442
H260	H	1.522599	0.441044	1.118442
H261	H	1.135267	0.016979	0.638132
H262	H	1.635267	0.516979	1.138132
H263	H	1.134700	-0.026573	0.558369
H264	H	1.634700	0.473427	1.058369
H265	H	0.840130	-0.629285	-0.000076
H266	H	1.340130	-0.129285	0.499924
C267	C	0.679637	-0.418922	-0.000107
C268	C	1.179637	0.081078	0.499893
C269	C	0.745478	-0.463510	-0.000099
C270	C	1.245478	0.036490	0.499901
H271	H	0.627842	-0.434458	-0.000123
H272	H	1.127842	0.065542	0.499877
H273	H	0.683192	-0.396045	0.053067
H274	H	1.183192	0.103955	0.553067
H275	H	0.683220	-0.396029	-0.053280
H276	H	1.183220	0.103971	0.446720
H277	H	0.741899	-0.486401	0.053078
H278	H	1.241899	0.013599	0.553078
H279	H	0.741922	-0.486397	-0.053279
H280	H	1.241922	0.013603	0.446721
