data_functionalizedCrystal
_audit_creation_method	'MofGen! by Chris Wilmer'
_symmetry_space_group_name_H-M	'P1'
_symmetry_Int_Tables_number	1
_symmetry_cell_setting	triclinic
loop_
_symmetry_equiv_pos_as_xyz
  x,y,z
_cell_length_a	12.594516
_cell_length_b	12.594517
_cell_length_c	12.594509
_cell_angle_alpha	90.021327
_cell_angle_beta	89.973452
_cell_angle_gamma	89.973469
loop_
_atom_site_label
_atom_site_type_symbol
_atom_site_fract_x
_atom_site_fract_y
_atom_site_fract_z
Zn1	Zn	0.423716	1.627188	0.601872
Zn2	Zn	0.601726	1.627046	0.423899
Zn3	Zn	0.423761	1.449192	0.423901
Zn4	Zn	0.601652	1.449141	0.601829
O5	O	0.512714	1.538142	0.512876
O6	O	0.447341	1.776115	0.578281
O7	O	0.578169	1.603415	0.274954
O8	O	0.274809	1.472884	0.447529
O9	O	0.578124	1.776010	0.447525
O10	O	0.274776	1.603657	0.578283
O11	O	0.447419	1.472746	0.274955
O12	O	0.447347	1.300239	0.447487
O13	O	0.577998	1.472797	0.750781
O14	O	0.578043	1.300202	0.578209
O15	O	0.447269	1.603608	0.750813
O16	O	0.750662	1.603365	0.447483
O17	O	0.750608	1.472659	0.578207
C18	C	0.512692	1.261601	0.512844
C19	C	0.512709	1.143295	0.512856
C20	C	0.441527	1.074032	0.441891
C21	C	0.538615	1.003202	0.415714
C22	C	0.415668	1.003325	0.539051
C23	C	0.609849	1.074024	0.486628
C24	C	0.486836	1.074153	0.610010
C25	C	0.583991	1.003356	0.583870
C26	C	0.789255	1.538020	0.512863
C27	C	0.907560	1.538066	0.512894
C28	C	0.976822	1.466955	0.583944
C29	C	1.047688	1.441008	0.486821
C30	C	1.047494	1.564070	0.610033
C31	C	0.976867	1.512068	0.415719
C32	C	0.976667	1.635175	0.538996
C33	C	1.047500	1.609265	0.441806
C34	C	1.235093	1.538246	0.512909
C35	C	1.116787	1.538170	0.512920
C36	C	0.512621	1.538213	0.790497
C37	C	0.512581	1.538243	0.908802
C38	C	0.512736	1.815762	0.512908
C39	C	0.512745	1.934068	0.512921
C40	C	0.512730	1.538132	0.236335
C41	C	0.512470	1.538308	0.118030
C42	C	0.583644	1.467118	0.978038
C43	C	0.609650	1.564234	1.048829
C44	C	0.486510	1.441203	1.048810
C45	C	0.538638	1.635410	0.978035
C46	C	0.415453	1.512314	0.978010
C47	C	0.441422	1.609497	1.048769
H48	H	0.464899	1.105342	0.692119
H49	H	1.078907	1.358935	0.464765
C50	C	0.934885	1.385593	0.664994
N51	N	0.903293	1.324308	0.726035
H52	H	1.078518	1.586023	0.692172
H53	H	0.560522	0.972039	0.333581
C54	C	0.934473	1.746018	0.568865
N55	N	0.902685	1.829503	0.591377
C56	C	0.720551	1.593907	1.090860
N57	N	0.804083	1.616249	1.122515
H58	H	0.381389	1.105064	0.381805
H59	H	0.333597	0.972214	0.561143
H60	H	1.078339	1.669446	0.381662
C61	C	0.568502	1.746344	0.936215
N62	N	0.591000	1.829896	0.904714
H63	H	0.381279	1.669742	1.079629
H64	H	0.945972	1.490020	0.333558
C65	C	0.664958	1.385939	0.936056
N66	N	0.726207	1.324805	0.904427
H67	H	0.691955	1.104951	0.464408
H68	H	0.333385	1.490319	0.946879
C69	C	0.456778	1.330300	1.090805
N70	N	0.434391	1.246765	1.122430
H71	H	0.644273	0.972519	0.643910
