data_functionalizedCrystal
_audit_creation_method	'MofGen! by Chris Wilmer'
_symmetry_space_group_name_H-M	'P1'
_symmetry_Int_Tables_number	1
_symmetry_cell_setting	triclinic
loop_
_symmetry_equiv_pos_as_xyz
  x,y,z
_cell_length_a	15.995350
_cell_length_b	10.654541
_cell_length_c	9.730217
_cell_angle_alpha	90.003041
_cell_angle_beta	89.997763
_cell_angle_gamma	83.988152
loop_
_atom_site_label
_atom_site_type_symbol
_atom_site_fract_x
_atom_site_fract_y
_atom_site_fract_z
O1	O	-1.111921	-0.161871	-0.114173
O2	O	-0.868262	-0.181860	-0.114201
O3	O	-0.995695	0.010947	-0.114178
O4	O	-0.984488	-0.354679	-0.114196
O5	O	-0.995691	0.010949	0.114402
O6	O	-0.868258	-0.181859	0.114379
O7	O	-1.111917	-0.161869	0.114407
Zn8	Zn	-0.990087	-0.171864	0.150685
Zn9	Zn	-0.990092	-0.171866	-0.150479
O10	O	-0.984484	-0.354677	0.114384
C11	C	-0.994870	0.057735	0.000111
C12	C	-0.992410	0.197146	0.000109
C13	C	-0.837060	-0.181033	0.000085
C14	C	-0.744095	-0.178556	0.000075
C15	C	-1.143119	-0.162697	0.000118
C16	C	-1.236083	-0.165174	0.000119
C17	C	-0.406296	-0.169658	0.000104
C18	C	-0.452934	-0.032344	0.000621
C19	C	-0.549638	-0.034822	0.000096
C20	C	-0.573882	-0.174072	0.000090
C21	C	-0.533190	-0.241800	-0.130438
C22	C	-0.436535	-0.238351	-0.130538
C23	C	-0.436208	-0.241186	0.129401
C24	C	-0.533153	-0.241153	0.131116
C25	C	-0.668594	-0.176573	0.000078
C26	C	-0.311584	-0.167161	0.000107
C27	C	-0.985309	-0.401465	0.000092
C28	C	-0.987769	-0.540876	0.000086
N29	N	-0.990089	-0.171861	0.356222
C30	C	-1.144790	0.227108	0.000144
C31	C	-1.219821	0.307582	0.000164
C32	C	-1.217504	0.438570	0.000159
C33	C	-1.140148	0.489085	0.000130
C34	C	-1.065117	0.408610	0.000110
C35	C	-1.067442	0.277621	0.000119
C36	C	-0.912738	0.378649	0.000065
C37	C	-0.915053	0.247661	0.000080
C38	C	-0.835382	0.429164	0.000036
C39	C	-0.760349	0.348689	0.000026
C40	C	-0.762670	0.217694	0.000032
C41	C	-0.840023	0.167187	0.000060
N42	N	-0.990096	-0.171858	-0.356015
C43	C	-1.102978	-0.001180	0.356233
C44	C	-1.159427	0.084158	0.428178
C45	C	-1.159436	0.084158	0.572058
C46	C	-1.102987	-0.001185	0.643996
C47	C	-1.046537	-0.086522	0.572050
C48	C	-1.046536	-0.086516	0.428167
C49	C	-0.933646	-0.257196	0.572039
C50	C	-0.933640	-0.257205	0.428159
C51	C	-0.877197	-0.342539	0.643977
C52	C	-0.820750	-0.427884	0.572031
C53	C	-0.820744	-0.427882	0.428143
C54	C	-0.877191	-0.342542	0.356214
H55	H	-0.577757	0.018416	0.093664
H56	H	-0.697372	0.389830	-0.000006
Br57	Br	-0.744141	-0.543685	0.669663
H58	H	-0.549107	-0.342698	0.138996
H59	H	-0.561294	-0.194760	-0.227576
H60	H	-1.278601	0.504094	0.000165
H61	H	-0.547909	-0.344103	-0.135296
H62	H	-1.282803	0.266439	0.000199
Br63	Br	-1.147940	0.049339	0.000189
Br64	Br	-0.660836	0.108488	-0.000011
Br65	Br	-0.843177	-0.010582	0.000083
H66	H	-0.833501	0.535822	0.000024
H67	H	-0.877203	-0.342529	0.761131
Br68	Br	-0.419746	0.058730	-0.154516
Br69	Br	-1.137005	0.666856	0.000017
H70	H	-0.560181	-0.191712	0.227681
Br71	Br	-0.401549	-0.166360	0.294305
H72	H	-0.417941	-0.188962	-0.228107
Br73	Br	-1.102985	-0.001193	0.160966
Br74	Br	-1.236029	0.199984	0.330549
Br75	Br	-1.236040	0.199984	0.669702
Br76	Br	-1.102984	-0.001164	0.839263
Br77	Br	-0.744122	-0.543694	0.330515
Br78	Br	-0.595529	0.054110	-0.156395
H79	H	-0.877194	-0.342537	0.239059
H80	H	-0.404871	-0.339164	-0.136465
H81	H	-0.405034	-0.342426	0.130279
H82	H	-0.434092	0.022544	0.094228
