data_functionalizedCrystal
_audit_creation_method	'MofGen! by Chris Wilmer'
_symmetry_space_group_name_H-M	'P1'
_symmetry_Int_Tables_number	1
_symmetry_cell_setting	triclinic
loop_
_symmetry_equiv_pos_as_xyz
  x,y,z
_cell_length_a	16.625547
_cell_length_b	16.625545
_cell_length_c	11.169409
_cell_angle_alpha	90.036260
_cell_angle_beta	89.972593
_cell_angle_gamma	89.976026
loop_
_atom_site_label
_atom_site_type_symbol
_atom_site_fract_x
_atom_site_fract_y
_atom_site_fract_z
Zn1	Zn	1.232692	0.320938	-0.678753
Zn2	Zn	1.566026	0.654271	-0.345419
Zn3	Zn	1.899359	0.987604	-0.012086
Zn4	Zn	1.232586	0.455800	-0.478056
Zn5	Zn	1.565919	0.789133	-0.144723
Zn6	Zn	1.899252	1.122466	0.188611
Zn7	Zn	1.097848	0.320985	-0.478061
Zn8	Zn	1.431181	0.654318	-0.144727
Zn9	Zn	1.764515	0.987651	0.188606
Zn10	Zn	1.097821	0.455732	-0.678674
Zn11	Zn	1.431154	0.789065	-0.345341
Zn12	Zn	1.764488	1.122398	-0.012008
O13	O	1.165237	0.388363	-0.578386
O14	O	1.498570	0.721697	-0.245053
O15	O	1.831903	1.055030	0.088281
O16	O	1.345511	0.338836	-0.652161
O17	O	1.678844	0.672169	-0.318828
O18	O	2.012177	1.005503	0.014506
O19	O	1.214679	0.437964	-0.310107
O20	O	1.548013	0.771297	0.023227
O21	O	1.881346	1.104631	0.356560
O22	O	1.115791	0.208146	-0.504718
O23	O	1.449125	0.541479	-0.171384
O24	O	1.782458	0.874813	0.161949
O25	O	1.345432	0.437919	-0.504710
O26	O	1.678766	0.771252	-0.171376
O27	O	2.012099	1.104585	0.161957
O28	O	1.214861	0.208111	-0.652165
O29	O	1.548194	0.541445	-0.318832
O30	O	1.881528	0.874778	0.014501
O31	O	1.115688	0.338916	-0.310110
O32	O	1.449021	0.672249	0.023223
O33	O	1.782355	1.005583	0.356557
O34	O	0.985012	0.338850	-0.504642
O35	O	1.318345	0.672184	-0.171308
O36	O	1.651679	1.005517	0.162025
O37	O	1.115745	0.437803	-0.846635
O38	O	1.449078	0.771136	-0.513301
O39	O	1.782412	1.104470	-0.179968
O40	O	0.984992	0.437849	-0.652032
O41	O	1.318325	0.771182	-0.318698
O42	O	1.651659	1.104515	0.014635
O43	O	1.214835	0.338770	-0.846692
O44	O	1.548168	0.672104	-0.513359
O45	O	1.881501	1.005437	-0.180026
O46	O	1.214653	0.568623	-0.504634
O47	O	1.547986	0.901956	-0.171300
O48	O	1.881320	1.235290	0.162033
O49	O	1.115642	0.568573	-0.652027
O50	O	1.448975	0.901907	-0.318694
O51	O	1.782308	1.235240	0.014640
C52	C	0.955746	0.388348	-0.578329
C53	C	1.289079	0.721681	-0.244996
C54	C	1.622413	1.055014	0.088337
C55	C	0.866125	0.388360	-0.578333
C56	C	1.199458	0.721694	-0.245000
C57	C	1.532791	1.055027	0.088333
C58	C	0.793342	0.388362	-0.578348
C59	C	1.126676	0.721695	-0.245015
C60	C	1.460009	1.055029	0.088318
C61	C	0.702034	0.388366	-0.578378
C62	C	1.035367	0.721700	-0.245045
C63	C	1.368701	1.055033	0.088288
C64	C	0.629257	0.388374	-0.578409
C65	C	0.962591	0.721707	-0.245075
C66	C	1.295924	1.055040	0.088258
C67	C	0.537943	0.388379	-0.578438
C68	C	0.871276	0.721713	-0.245104
C69	C	1.204610	1.055046	0.088229
C70	C	1.165155	0.597854	-0.578347
C71	C	1.498488	0.931188	-0.245014
C72	C	1.831821	1.264521	0.088319
C73	C	1.165193	0.687475	-0.578371
C74	C	1.498527	1.020809	-0.245038
C75	C	1.831860	1.354142	0.088296
C76	C	1.165325	1.015651	-0.578515
C77	C	1.498658	1.348984	-0.245181
C78	C	1.831992	1.682318	0.088152
C79	C	1.165286	0.924342	-0.578478
C80	C	1.498619	1.257676	-0.245145
C81	C	1.831952	1.591009	0.088189
C82	C	1.165259	0.851566	-0.578442
C83	C	1.498592	1.184899	-0.245109
C84	C	1.831925	1.518233	0.088224
C85	C	1.165221	0.760252	-0.578407
C86	C	1.498554	1.093585	-0.245074
C87	C	1.831887	1.426918	0.088260
C88	C	1.375546	0.388380	-0.578444
C89	C	1.708879	0.721713	-0.245110
C90	C	2.042212	1.055046	0.088223
C91	C	1.465167	0.388387	-0.578468
C92	C	1.798500	0.721720	-0.245135
C93	C	2.131833	1.055053	0.088199
C94	C	1.165299	0.388274	-0.891429
C95	C	1.498632	0.721607	-0.558095
C96	C	1.831965	1.054941	-0.224762
C97	C	1.165325	0.388236	-1.024829
C98	C	1.498658	0.721569	-0.691495
C99	C	1.831992	1.054902	-0.358162
C100	C	1.165334	1.178054	-0.578465
C101	C	1.498668	1.511388	-0.245132
C102	C	1.832001	1.844721	0.088202
C103	C	1.165358	1.088433	-0.578535
C104	C	1.498691	1.421767	-0.245201
C105	C	1.832025	1.755100	0.088132
C106	C	1.165221	0.388394	-0.266561
C107	C	1.498555	0.721728	0.066772
C108	C	1.831888	1.055061	0.400106
C109	C	1.165351	0.388205	-0.133162
C110	C	1.498685	0.721539	0.200172
C111	C	1.832018	1.054872	0.533505
