data_functionalizedCrystal
_audit_creation_method	'MofGen! by Chris Wilmer'
_symmetry_space_group_name_H-M	'P1'
_symmetry_Int_Tables_number	1
_symmetry_cell_setting	triclinic
loop_
_symmetry_equiv_pos_as_xyz
  x,y,z
_cell_length_a	17.640112
_cell_length_b	25.639239
_cell_length_c	25.639233
_cell_angle_alpha	90.018747
_cell_angle_beta	78.820175
_cell_angle_gamma	101.263838
loop_
_atom_site_label
_atom_site_type_symbol
_atom_site_fract_x
_atom_site_fract_y
_atom_site_fract_z
Zn1	Zn	1.208290	-0.046428	0.134303
Zn2	Zn	1.208174	-0.133862	0.046882
Zn3	Zn	1.076121	-0.064124	0.064526
Zn4	Zn	1.076038	-0.151542	0.151927
O5	O	1.142156	-0.098989	0.099409
O6	O	1.318888	-0.043221	0.107946
O7	O	1.190644	-0.124618	-0.023941
O8	O	1.093736	0.011400	0.073790
O9	O	1.318803	-0.107458	0.043719
O10	O	1.190841	0.024401	0.125054
O11	O	1.093624	-0.073382	-0.010978
O12	O	0.965497	-0.090525	0.090880
O13	O	1.093595	-0.137592	0.222752
O14	O	0.965436	-0.154751	0.155093
O15	O	1.190760	-0.060365	0.209804
O16	O	1.190563	-0.209384	0.060809
O17	O	1.093483	-0.222373	0.137985
C18	C	0.936785	-0.126478	0.126814
C19	C	0.848927	-0.138250	0.138550
C20	C	0.560021	-0.009547	0.010257
C21	C	0.477465	-0.020619	0.021291
C22	C	0.477455	-0.087590	0.088041
C23	C	0.560013	-0.076521	0.077014
C24	C	0.601290	-0.037500	0.038121
C25	C	0.601282	-0.104474	0.104878
C26	C	0.683833	-0.093408	0.093849
C27	C	0.725115	-0.054389	0.054957
C28	C	0.683840	-0.026434	0.027092
C29	C	0.560004	-0.143498	0.143769
C30	C	0.601273	-0.171450	0.171633
C31	C	0.683825	-0.160382	0.160607
C32	C	0.725107	-0.121363	0.121714
C33	C	0.725100	-0.188337	0.188472
C34	C	0.807651	-0.177271	0.177443
C35	C	0.807658	-0.110297	0.110685
C36	C	1.142023	-0.234849	0.099403
C37	C	1.142038	-0.292961	0.099408
C38	C	1.192837	-0.646515	0.059263
C39	C	1.192868	-0.701115	0.059266
O40	O	1.235921	-0.723580	0.025126
N41	N	1.142295	-0.735209	0.099426
C42	C	1.091693	-0.714701	0.139588
O43	O	1.048680	-0.748714	0.173747
C44	C	1.091667	-0.660101	0.139586
C45	C	1.142238	-0.626009	0.099421
C46	C	1.243405	-0.612424	0.019102
C47	C	1.243373	-0.557828	0.019099
C48	C	1.192774	-0.537322	0.059257
C49	C	1.142206	-0.571413	0.099418
C50	C	1.041070	-0.639592	0.179750
C51	C	1.041049	-0.584988	0.179745
C52	C	1.091620	-0.550897	0.139580
C53	C	1.091575	-0.496312	0.139573
N54	N	1.142148	-0.462217	0.099413
C55	C	1.192748	-0.482722	0.059255
C56	C	1.091753	-0.829363	0.139588
C57	C	1.091774	-0.883963	0.139587
C58	C	1.192950	-0.870373	0.059266
C59	C	1.192924	-0.815773	0.059265
C60	C	1.142326	-0.795269	0.099428
C61	C	1.192676	-0.368067	0.059251
C62	C	1.192638	-0.313467	0.059250
C63	C	1.091465	-0.327061	0.139573
C64	C	1.091500	-0.381656	0.139572
C65	C	1.142112	-0.402157	0.099409
O66	O	1.048546	-0.473808	0.173697
O67	O	1.235761	-0.448702	0.025106
C68	C	1.348328	-0.071394	0.071899
C69	C	1.436186	-0.059634	0.060175
C70	C	1.142181	-0.098976	0.235779
C71	C	1.142192	-0.098971	0.293892
C72	C	1.142311	0.037405	0.099424
C73	C	1.142377	0.095528	0.099430
C74	C	1.142176	-0.098958	-0.036436
C75	C	1.142318	-0.098795	-0.094569
C76	C	1.192850	-0.058651	0.647510
C77	C	1.192860	-0.058635	0.702113
O78	O	1.235868	-0.024424	0.724623
N79	N	1.142279	-0.098837	0.736163
C80	C	1.091680	-0.139054	0.715608
O81	O	1.048657	-0.173247	0.749584
C82	C	1.091667	-0.139067	0.661007
C83	C	1.142256	-0.098866	0.626958
C84	C	1.243435	-0.018453	0.613462
C85	C	1.243426	-0.018469	0.558862
C86	C	1.192832	-0.058684	0.538311
C87	C	1.142247	-0.098882	0.572359
C88	C	1.041064	-0.179281	0.640453
C89	C	1.041054	-0.179291	0.585848
C90	C	1.091644	-0.139090	0.551799
C91	C	1.091645	-0.139113	0.497208
N92	N	1.142225	-0.098912	0.463158
C93	C	1.192819	-0.058697	0.483709
C94	C	1.091710	-0.139023	0.830275
C95	C	1.091727	-0.139012	0.884875
C96	C	1.192906	-0.058593	0.871376
C97	C	1.192893	-0.058606	0.816774
C98	C	1.142291	-0.098821	0.796225
C99	C	1.192797	-0.058735	0.369047
C100	C	1.192786	-0.058756	0.314443
C101	C	1.091604	-0.139174	0.327947
C102	C	1.091618	-0.139154	0.382546
C103	C	1.142217	-0.098930	0.403094
O104	O	1.048657	-0.173306	0.474660
O105	O	1.235827	-0.024506	0.449728
H106	H	0.443867	0.002150	-0.001398
O107	O	0.991883	-0.218415	0.565970
C108	C	0.891508	-0.298167	0.585129
C109	C	0.947159	-0.253895	0.607709
H110	H	0.855322	-0.326858	0.618866
H111	H	0.927732	-0.320699	0.554749
H112	H	0.850229	-0.279694	0.565056
H113	H	0.988448	-0.272325	0.627809
H114	H	0.910885	-0.231369	0.638063
O115	O	1.241862	-0.387893	0.020183
C116	C	1.342235	-0.368634	-0.059471
C117	C	1.286565	-0.346112	-0.015263
H118	H	1.378404	-0.334864	-0.088134
H119	H	1.306026	-0.399068	-0.082031
H120	H	1.383529	-0.388644	-0.040948
H121	H	1.245261	-0.326075	-0.033742
H122	H	1.322823	-0.315704	0.007292
H123	H	0.999846	-0.568297	0.212453
H124	H	1.050431	-0.171893	0.410269
O125	O	0.600155	0.028421	-0.027454
C126	C	0.693439	0.111504	-0.046824
C127	C	0.648025	0.068554	-0.004064
H128	H	0.732166	0.143956	-0.027931
H129	H	0.649797	0.129626	-0.064838
H130	H	0.732019	0.092701	-0.079371
H131	H	0.609444	0.087317	0.028516
H132	H	0.691710	0.050436	0.013908
H133	H	0.691480	-0.220112	0.220135
O134	O	0.847622	-0.204454	0.204577
C135	C	0.838910	-0.272069	0.271935
C136	C	0.793544	-0.241315	0.241255
H137	H	0.795208	-0.301886	0.301588
H138	H	0.877568	-0.242946	0.294185
H139	H	0.877549	-0.294171	0.242711
H140	H	0.754863	-0.219212	0.270442
H141	H	0.754937	-0.270464	0.218997
H142	H	0.999868	-0.212018	0.668167
O143	O	1.042483	-0.178183	0.307894
C144	C	0.997662	-0.213850	0.229747
C145	C	1.053324	-0.169637	0.252390
H146	H	1.006419	-0.206962	0.184868
H147	H	0.933920	-0.213193	0.248949
H148	H	1.011479	-0.254154	0.238663
H149	H	1.039577	-0.129311	0.243481
H150	H	1.117049	-0.170341	0.233188
H151	H	1.234154	-0.887078	0.026569
H152	H	0.492786	-0.152506	0.152747
O153	O	1.241955	-0.019649	0.281446
C154	C	1.342345	0.060099	0.273826
C155	C	1.286693	0.015851	0.311252
H156	H	1.378542	0.088807	0.297907
H157	H	1.306121	0.082619	0.253111
H158	H	1.383613	0.041605	0.242740
H159	H	1.245413	0.034302	0.342367
H160	H	1.322966	-0.006663	0.331927
H161	H	1.284620	0.014268	0.531144
O162	O	0.437318	-0.125421	0.125883
C163	C	0.344108	-0.145044	0.208889
C164	C	0.389528	-0.102147	0.166078
H165	H	0.305446	-0.126245	0.241392
H166	H	0.387747	-0.163117	0.226957
H167	H	0.305463	-0.177539	0.189989
H168	H	0.428174	-0.069620	0.184937
H169	H	0.345846	-0.084116	0.148014
O170	O	1.042618	-0.916999	0.178653
C171	C	0.942230	-0.924705	0.258302
C172	C	0.997869	-0.887233	0.214095
H173	H	0.906025	-0.900655	0.286962
H174	H	0.978465	-0.945364	0.280866
H175	H	0.900969	-0.955847	0.239778
H176	H	1.039141	-0.856061	0.232576
H177	H	0.961586	-0.866613	0.191536
O178	O	1.292542	-0.524650	-0.019847
C179	C	1.399282	-0.448674	-0.041070
C180	C	1.343630	-0.486197	0.003090
H181	H	1.440611	-0.417582	-0.022543
H182	H	1.363058	-0.427961	-0.063593
H183	H	1.435413	-0.472730	-0.069774
H184	H	1.307486	-0.462180	0.031830
H185	H	1.379899	-0.506912	0.025572
H186	H	1.284613	-0.629112	-0.013600
O187	O	1.242125	-0.782730	0.020224
C188	C	1.342441	-0.775034	-0.059463
C189	C	1.286771	-0.812510	-0.015273
H190	H	1.378540	-0.799098	-0.088180
H191	H	1.383793	-0.743911	-0.040985
H192	H	1.306156	-0.754349	-0.081960
H193	H	1.322992	-0.833232	0.007240
H194	H	1.245416	-0.843600	-0.033784
H195	H	0.841268	-0.078514	0.079022
H196	H	1.050543	-0.812673	0.172293
O197	O	0.991922	-0.672622	0.218821
C198	C	0.891548	-0.680317	0.298477
C199	C	0.947183	-0.642851	0.254264
H200	H	0.855351	-0.656264	0.327137
H201	H	0.927786	-0.700976	0.321039
H202	H	0.850280	-0.711460	0.279959
H203	H	0.988463	-0.611678	0.272738
H204	H	0.910896	-0.622231	0.231707
O205	O	1.241838	-0.019623	0.389040
C206	C	1.252586	0.052408	0.449274
C207	C	1.196954	0.008146	0.426668
H208	H	1.216321	0.074864	0.479708
H209	H	1.288721	0.081168	0.415578
H210	H	1.293913	0.033932	0.469297
H211	H	1.155579	0.026575	0.406650
H212	H	1.160874	-0.020609	0.460385
O213	O	0.724065	0.011474	-0.010654
C214	C	0.851248	0.058180	-0.057247
C215	C	0.805792	0.015248	-0.014480
H216	H	0.917332	0.061237	-0.060362
H217	H	0.835113	0.098174	-0.045830
H218	H	0.834942	0.046884	-0.097239
H219	H	0.822073	0.026493	0.025528
H220	H	0.821931	-0.024735	-0.025942
O221	O	1.292623	0.020548	0.633474
C222	C	1.399411	0.041892	0.680837
C223	C	1.343735	-0.002330	0.658216
H224	H	1.440759	0.023412	0.700837
H225	H	1.363207	0.064386	0.711271
H226	H	1.435520	0.070624	0.647112
H227	H	1.307614	-0.031099	0.691905
H228	H	1.379984	-0.024784	0.627768
O229	O	1.042349	-0.414699	0.178639
C230	C	0.941968	-0.422412	0.258292
C231	C	0.997596	-0.384937	0.214083
H232	H	0.905758	-0.398366	0.286954
H233	H	0.978212	-0.443066	0.280854
H234	H	0.900710	-0.453559	0.239770
H235	H	1.038864	-0.353760	0.232561
H236	H	0.961303	-0.364323	0.191526
H237	H	0.567655	-0.203223	0.203298
H238	H	1.050265	-0.310357	0.172268
O239	O	1.241653	-0.280342	0.020192
C240	C	1.252333	-0.217270	-0.051808
C241	C	1.196735	-0.254768	-0.007607
H242	H	1.216040	-0.196574	-0.074288
H243	H	1.288490	-0.241286	-0.080544
H244	H	1.293642	-0.186158	-0.033287
H245	H	1.155378	-0.285887	-0.026081
H246	H	1.160634	-0.230716	0.021123
H247	H	1.234086	-0.025870	0.789055
H248	H	1.234101	-0.025846	0.888119
O249	O	1.042516	-0.178094	0.917875
C250	C	0.942193	-0.257877	0.925481
C251	C	0.997877	-0.213643	0.888053
H252	H	0.906100	-0.286637	0.901384
H253	H	0.900836	-0.239429	0.956550
H254	H	0.978467	-0.280333	0.946218
H255	H	0.961667	-0.191171	0.867280
H256	H	1.039236	-0.232123	0.857017
H257	H	1.050503	-0.171773	0.813548
H258	H	0.792333	-0.045381	0.045977
