data_functionalizedCrystal
_audit_creation_method	'MofGen! by Chris Wilmer'
_symmetry_space_group_name_H-M	'P1'
_symmetry_Int_Tables_number	1
_symmetry_cell_setting	triclinic
loop_
_symmetry_equiv_pos_as_xyz
  x,y,z
_cell_length_a	17.038272
_cell_length_b	19.288865
_cell_length_c	18.366186
_cell_angle_alpha	90.011479
_cell_angle_beta	90.003276
_cell_angle_gamma	87.123902
loop_
_atom_site_label
_atom_site_type_symbol
_atom_site_fract_x
_atom_site_fract_y
_atom_site_fract_z
O1	O	-1.036885	-0.150802	-0.060473
O2	O	-0.703552	0.182532	0.272860
O3	O	-0.370219	0.515865	0.606193
O4	O	-0.809262	-0.148407	-0.060494
O5	O	-0.475929	0.184926	0.272839
O6	O	-0.142596	0.518259	0.606172
O7	O	-0.929651	-0.048881	-0.060469
O8	O	-0.596318	0.284452	0.272865
O9	O	-0.262984	0.617786	0.606198
O10	O	-0.916497	-0.250328	-0.060499
O11	O	-0.583163	0.083005	0.272834
O12	O	-0.249830	0.416339	0.606168
O13	O	-0.929631	-0.048875	0.060631
O14	O	-0.596297	0.284459	0.393964
O15	O	-0.262964	0.617792	0.727297
O16	O	-0.809242	-0.148401	0.060605
O17	O	-0.475909	0.184933	0.393938
O18	O	-0.142575	0.518266	0.727272
O19	O	-1.036865	-0.150795	0.060626
O20	O	-0.703532	0.182538	0.393959
O21	O	-0.370198	0.515871	0.727293
Zn22	Zn	-0.923050	-0.149597	0.079843
Zn23	Zn	-0.589717	0.183736	0.413176
Zn24	Zn	-0.256383	0.517070	0.746509
Zn25	Zn	-0.923077	-0.149605	-0.079711
Zn26	Zn	-0.589744	0.183728	0.253622
Zn27	Zn	-0.256410	0.517061	0.586956
O28	O	-0.916476	-0.250321	0.060600
O29	O	-0.583143	0.083012	0.393934
O30	O	-0.249809	0.416345	0.727267
C31	C	-0.780131	-0.146226	0.000053
C32	C	-0.446797	0.187107	0.333386
C33	C	-0.113464	0.520441	0.666719
C34	C	-0.693359	-0.139728	0.000045
C35	C	-0.360026	0.193605	0.333379
C36	C	-0.026692	0.526938	0.666712
C37	C	-0.929218	-0.022975	0.000083
C38	C	-0.595884	0.310358	0.333416
C39	C	-0.262551	0.643691	0.666750
C40	C	-0.927947	0.054207	0.000089
C41	C	-0.594614	0.387540	0.333423
C42	C	-0.261280	0.720874	0.666756
C43	C	-1.065996	-0.152976	0.000077
C44	C	-0.732663	0.180357	0.333411
C45	C	-0.399330	0.513690	0.666744
C46	C	-1.152768	-0.159474	0.000080
C47	C	-0.819435	0.173859	0.333413
C48	C	-0.486102	0.507193	0.666747
C49	C	-0.643052	-0.199384	0.000037
C50	C	-0.309719	0.133949	0.333370
C51	C	0.023614	0.467282	0.666704
C52	C	-0.561521	-0.193275	0.000048
C53	C	-0.228188	0.140058	0.333381
C54	C	0.105145	0.473392	0.666715
C55	C	-0.530299	-0.127509	0.000062
C56	C	-0.196965	0.205824	0.333395
C57	C	0.136368	0.539158	0.666729
C58	C	-0.580612	-0.067849	0.000073
C59	C	-0.247279	0.265485	0.333406
C60	C	0.086055	0.598818	0.666739
C61	C	-0.662141	-0.073959	0.000067
C62	C	-0.328808	0.259375	0.333400
C63	C	0.004526	0.592708	0.666733
C64	C	-0.284611	-0.105924	0.000085
C65	C	0.048723	0.227410	0.333418
C66	C	0.382056	0.560743	0.666751
C67	C	-0.203075	-0.099818	0.000088
C68	C	0.130258	0.233515	0.333422
C69	C	0.463592	0.566849	0.666755
C70	C	-0.183990	-0.225245	0.000065
C71	C	0.149343	0.108088	0.333398
C72	C	0.482677	0.441422	0.666732
C73	C	-0.265522	-0.231349	0.000055
C74	C	0.067812	0.101984	0.333388
C75	C	0.401145	0.435317	0.666722
C76	C	-0.315828	-0.171689	0.000069
C77	C	0.017506	0.161644	0.333403
C78	C	0.350839	0.494978	0.666736
C79	C	-0.446961	-0.121263	0.000071
C80	C	-0.113628	0.212071	0.333404
C81	C	0.219705	0.545404	0.666738
C82	C	-0.399163	-0.177936	0.000066
C83	C	-0.065830	0.155398	0.333399
C84	C	0.267503	0.488731	0.666732
C85	C	-0.916910	-0.276227	0.000047
C86	C	-0.583576	0.057106	0.333380
C87	C	-0.250243	0.390439	0.666714
C88	C	-0.918180	-0.353409	0.000036
C89	C	-0.584847	-0.020076	0.333369
C90	C	-0.251513	0.313257	0.666703
N91	N	-0.923037	-0.149591	0.188734
N92	N	-0.589704	0.183742	0.522067
N93	N	-0.256371	0.517076	0.855400
C94	C	-0.998586	0.094533	0.000099
C95	C	-0.665252	0.427866	0.333433
C96	C	-0.331919	0.761199	0.666766
C97	C	-0.997392	0.167054	0.000088
C98	C	-0.664059	0.500387	0.333421
C99	C	-0.330725	0.833720	0.666754
C100	C	-0.925556	0.199246	0.000081
C101	C	-0.592222	0.532579	0.333414
C102	C	-0.258889	0.865913	0.666747
C103	C	-0.854908	0.158911	0.000066
C104	C	-0.521574	0.492244	0.333400
C105	C	-0.188241	0.825577	0.666733
C106	C	-0.856103	0.086391	0.000071
C107	C	-0.522770	0.419725	0.333404
C108	C	-0.189437	0.753058	0.666737
C109	C	-0.869077	0.311029	0.042494
C110	C	-0.535743	0.644363	0.375827
C111	C	-0.202410	0.977696	0.709161
C112	C	-0.867884	0.383548	0.042494
C113	C	-0.534551	0.716881	0.375827
C114	C	-0.201217	1.050214	0.709161
C115	C	-0.921865	0.422920	0.000064
C116	C	-0.588531	0.756253	0.333397
C117	C	-0.255198	1.089586	0.666731
C118	C	-0.977051	0.389765	-0.042357
C119	C	-0.643718	0.723099	0.290977
C120	C	-0.310385	1.056432	0.624310
C121	C	-0.978247	0.317246	-0.042352
C122	C	-0.644914	0.650579	0.290981
C123	C	-0.311580	0.983913	0.624314
C124	C	-0.924251	0.277881	0.000075
C125	C	-0.590918	0.611214	0.333409
C126	C	-0.257584	0.944547	0.666742
C127	C	-0.991214	0.541881	0.000060
C128	C	-0.657881	0.875215	0.333394
C129	C	-0.324547	1.208548	0.666727
C130	C	-0.990017	0.614403	0.000044
C131	C	-0.656684	0.947737	0.333378
C132	C	-0.323350	1.281070	0.666711
C133	C	-0.847531	0.606259	0.000030
C134	C	-0.514198	0.939592	0.333364
C135	C	-0.180864	1.272926	0.666697
C136	C	-0.848730	0.533738	0.000039
C137	C	-0.515396	0.867072	0.333372
C138	C	-0.182063	1.200405	0.666706
C139	C	-0.920573	0.501554	0.000058
C140	C	-0.587240	0.834887	0.333391
C141	C	-0.253907	1.168221	0.666724
N142	N	-0.923096	-0.149606	-0.188602
N143	N	-0.589762	0.183727	0.144731
N144	N	-0.256429	0.517060	0.478065
C145	C	-0.976363	-0.105545	0.226846
C146	C	-0.643030	0.227788	0.560179
C147	C	-0.309696	0.561122	0.893512
C148	C	-0.976368	-0.105542	0.303073
C149	C	-0.643035	0.227791	0.636407
C150	C	-0.309701	0.561124	0.969740
C151	C	-0.923055	-0.149598	0.341187
C152	C	-0.589721	0.183735	0.674520
C153	C	-0.256388	0.517069	1.007853
C154	C	-0.869719	-0.193647	0.303066
C155	C	-0.536386	0.139687	0.636399
C156	C	-0.203053	0.473020	0.969732
C157	C	-0.869711	-0.193643	0.226839
C158	C	-0.536377	0.139690	0.560173
C159	C	-0.203044	0.473023	0.893506
C160	C	-0.912591	-0.212238	0.461937
C161	C	-0.579257	0.121095	0.795270
C162	C	-0.245924	0.454428	1.128604
C163	C	-0.912605	-0.212243	0.538162
C164	C	-0.579271	0.121090	0.871495
C165	C	-0.245938	0.454424	1.204828
C166	C	-0.923077	-0.149608	0.576294
C167	C	-0.589744	0.183725	0.909627
C168	C	-0.256410	0.517059	1.242961
C169	C	-0.933552	-0.086967	0.538192
C170	C	-0.600218	0.246367	0.871525
C171	C	-0.266885	0.579700	1.204859
C172	C	-0.933543	-0.086963	0.461966
C173	C	-0.600210	0.246370	0.795299
C174	C	-0.266876	0.579704	1.128632
C175	C	-0.923058	-0.149606	0.423841
C176	C	-0.589725	0.183727	0.757175
C177	C	-0.256391	0.517061	1.090508
C178	C	-0.976411	-0.105555	0.697061
C179	C	-0.643077	0.227778	1.030394
C180	C	-0.309744	0.561111	1.363727
C181	C	-0.976410	-0.105551	0.773290
C182	C	-0.643077	0.227782	1.106623
C183	C	-0.309744	0.561116	1.439957
C184	C	-0.869765	-0.193662	0.773281
C185	C	-0.536432	0.139672	1.106614
C186	C	-0.203099	0.473005	1.439947
C187	C	-0.869762	-0.193660	0.697053
C188	C	-0.536429	0.139674	1.030386
C189	C	-0.203096	0.473007	1.363720
C190	C	-0.923089	-0.149607	0.658948
C191	C	-0.589756	0.183726	0.992281
C192	C	-0.256422	0.517059	1.325614
H193	H	-0.668467	-0.252938	0.000025
H194	H	-0.335133	0.080395	0.333358
H195	H	-0.001800	0.413729	0.666692
F196	F	-0.715681	-0.010464	0.000078
F197	F	-0.382348	0.322869	0.333412
F198	F	-0.049015	0.656202	0.666745
F199	F	-0.813009	-0.240543	0.656488
F200	F	-0.479676	0.092791	0.989822
F201	F	-0.146343	0.426124	1.323155
H202	H	-1.047542	0.647236	0.000049
H203	H	-0.714209	0.980569	0.333382
H204	H	-0.380875	1.313903	0.666715
H205	H	-1.023181	0.290255	-0.076894
H206	H	-0.689847	0.623588	0.256439
H207	H	-0.356514	0.956921	0.589772
H208	H	-0.143023	-0.273817	0.000055
H209	H	0.190311	0.059516	0.333388
H210	H	0.523644	0.392850	0.666721
H211	H	-0.942070	-0.035958	0.430946
H212	H	-0.608736	0.297375	0.764279
H213	H	-0.275403	0.630708	1.097613
H214	H	-0.942079	-0.035963	0.569237
H215	H	-0.608746	0.297370	0.902571
H216	H	-0.275412	0.630704	1.235904
H217	H	-0.798579	0.053558	0.000063
H218	H	-0.465246	0.386891	0.333396
H219	H	-0.131912	0.720225	0.666729
F220	F	-1.033114	-0.058659	0.186293
F221	F	-0.699781	0.274674	0.519626
F222	F	-0.366448	0.608008	0.852959
F223	F	-0.338140	-0.042427	0.000100
F224	F	-0.004806	0.290907	0.333433
F225	F	0.328527	0.624240	0.666767
H226	H	-1.019831	-0.069683	0.666034
H227	H	-0.686497	0.263651	0.999367
H228	H	-0.353164	0.596984	1.332701
H229	H	-1.054916	0.199893	0.000093
H230	H	-0.721583	0.533227	0.333426
H231	H	-0.388249	0.866560	0.666760
H232	H	-1.021008	0.421821	-0.076908
H233	H	-0.687674	0.755154	0.256426
H234	H	-0.354341	1.088487	0.589759
H235	H	-1.019793	-0.069673	0.334110
H236	H	-0.686460	0.263660	0.667443
H237	H	-0.353127	0.596993	1.000776
H238	H	-1.049713	0.515676	0.000072
H239	H	-0.716380	0.849009	0.333406
H240	H	-0.383047	1.182342	0.666739
H241	H	-0.177657	-0.046261	0.000099
H242	H	0.155676	0.287073	0.333432
H243	H	0.489009	0.620406	0.666766
F244	F	-0.771077	0.640515	0.000019
F245	F	-0.437743	0.973849	0.333352
F246	F	-0.104410	1.307182	0.666686
F247	F	-0.507984	-0.256770	0.000036
F248	F	-0.174651	0.076564	0.333369
F249	F	0.158682	0.409897	0.666703
H250	H	-1.019832	-0.069680	0.804321
H251	H	-0.686499	0.263654	1.137654
H252	H	-0.353165	0.596987	1.470988
H253	H	-0.826354	-0.229530	0.804312
H254	H	-0.493021	0.103804	1.137645
H255	H	-0.159687	0.437137	1.470979
H256	H	-0.904081	-0.263249	0.569179
H257	H	-0.570747	0.070084	0.902512
H258	H	-0.237414	0.403417	1.235845
H259	H	-0.796418	0.185126	0.000059
H260	H	-0.463085	0.518460	0.333392
H261	H	-0.129751	0.851793	0.666726
F262	F	-0.901501	-0.278913	0.421361
F263	F	-0.568168	0.054421	0.754694
F264	F	-0.234834	0.387754	1.088028
F265	F	-0.547380	0.002145	0.000092
F266	F	-0.214047	0.335478	0.333426
F267	F	0.119286	0.668812	0.666759
H268	H	-0.424588	-0.231482	0.000058
H269	H	-0.091255	0.101851	0.333391
H270	H	0.242078	0.435184	0.666725
F271	F	-0.413725	-0.051271	0.000083
F272	F	-0.080391	0.282062	0.333417
F273	F	0.252942	0.615395	0.666750
H274	H	-1.057086	0.068333	0.000112
H275	H	-0.723753	0.401666	0.333445
H276	H	-0.390420	0.735000	0.666779
F277	F	-0.773545	0.490819	0.000031
F278	F	-0.440212	0.824152	0.333365
F279	F	-0.106878	1.157486	0.666698
H280	H	-0.826310	-0.229516	0.334101
H281	H	-0.492976	0.103817	0.667434
H282	H	-0.159643	0.437150	1.000768
F283	F	-0.812952	-0.240525	0.186276
F284	F	-0.479619	0.092808	0.519609
F285	F	-0.146286	0.426142	0.852943
H286	H	-0.822944	0.410536	0.077031
H287	H	-0.489611	0.743869	0.410365
H288	H	-0.156277	1.077203	0.743698
F289	F	-0.811620	0.269134	0.087658
F290	F	-0.478287	0.602467	0.420991
F291	F	-0.144953	0.935800	0.754325
F292	F	-0.298744	-0.301346	0.000036
F293	F	0.034589	0.031987	0.333369
F294	F	0.367922	0.365320	0.666703
