data_functionalizedCrystal
_audit_creation_method	'MofGen! by Chris Wilmer'
_symmetry_space_group_name_H-M	'P1'
_symmetry_Int_Tables_number	1
_symmetry_cell_setting	triclinic
loop_
_symmetry_equiv_pos_as_xyz
  x,y,z
_cell_length_a	14.519709
_cell_length_b	10.654551
_cell_length_c	9.730223
_cell_angle_alpha	89.997362
_cell_angle_beta	90.002325
_cell_angle_gamma	84.082787
loop_
_atom_site_label
_atom_site_type_symbol
_atom_site_fract_x
_atom_site_fract_y
_atom_site_fract_z
O1	O	1.224720	0.164623	-0.114105
O2	O	0.956344	0.184009	-0.114147
O3	O	1.096702	-0.008483	-0.114122
O4	O	1.084362	0.357114	-0.114130
O5	O	1.096693	-0.008488	0.114458
O6	O	0.956335	0.184004	0.114433
O7	O	1.224711	0.164617	0.114475
Zn8	Zn	1.090521	0.174310	0.150746
Zn9	Zn	1.090533	0.174317	-0.150418
O10	O	1.084353	0.357109	0.114450
C11	C	0.921975	0.183103	0.000138
C12	C	0.819579	0.180396	0.000122
C13	C	1.095791	-0.055275	0.000166
C14	C	1.093079	-0.194692	0.000159
C15	C	1.091812	-0.260180	-0.124442
C16	C	1.089256	-0.391176	-0.124443
C17	C	1.089240	-0.391184	0.124767
C18	C	1.091789	-0.260189	0.124767
C19	C	0.444632	0.170428	0.000185
C20	C	0.548954	0.173196	0.000167
C21	C	0.632102	0.175412	0.000152
C22	C	0.736431	0.178180	0.000137
C23	C	1.259080	0.165523	0.000187
C24	C	1.361475	0.168231	0.000194
C25	C	1.085264	0.403901	0.000159
C26	C	1.087975	0.543318	0.000157
N27	N	1.090520	0.174304	0.356282
N28	N	1.090542	0.174312	-0.355954
C29	C	1.152692	0.089105	0.428219
C30	C	1.152701	0.089105	0.572102
C31	C	1.028363	0.259516	0.572099
C32	C	1.028350	0.259508	0.428218
H33	H	1.088222	-0.444491	-0.225905
O34	O	0.967920	0.342399	0.358543
C35	C	0.913040	0.417590	0.452885
H36	H	0.950865	0.419137	0.555443
H37	H	0.844277	0.376600	0.468202
C38	C	0.848428	0.551104	0.270743
C39	C	0.894889	0.553013	0.396704
H40	H	0.837227	0.634638	0.236087
H41	H	0.885398	0.500444	0.207182
H42	H	0.791130	0.516940	0.283525
H43	H	0.952189	0.587162	0.383918
H44	H	0.857927	0.603682	0.460262
H45	H	1.203313	0.019725	0.369652
H46	H	1.088191	-0.444528	0.226219
O47	O	1.093012	-0.196740	-0.245604
C48	C	1.091367	-0.282643	-0.355578
H49	H	1.060403	-0.370887	-0.319051
H50	H	1.164953	-0.309584	-0.393880
C51	C	1.070023	-0.112500	-0.518174
C52	C	1.031985	-0.220879	-0.473313
H53	H	1.033397	-0.074401	-0.590802
H54	H	1.071135	-0.054625	-0.444083
H55	H	1.131344	-0.134966	-0.550083
H56	H	0.970670	-0.198410	-0.441389
H57	H	1.030862	-0.278749	-0.547401
H58	H	1.092816	-0.206866	0.226238
O59	O	1.212969	0.006220	0.642042
C60	C	1.163101	-0.071392	0.725306
H61	H	1.090357	-0.073742	0.681956
H62	H	1.158525	-0.032102	0.834348
C63	C	1.302419	-0.203189	0.780763
C64	C	1.213076	-0.206082	0.727513
H65	H	1.333247	-0.286271	0.782131
H66	H	1.336018	-0.150897	0.724671
H67	H	1.298593	-0.170441	0.871627
H68	H	1.216903	-0.238814	0.636646
H69	H	1.179479	-0.258383	0.783590
O70	O	0.968070	0.342239	0.642193
C71	C	0.981398	0.323961	0.784612
H72	H	1.054420	0.277248	0.804258
H73	H	0.928804	0.260816	0.825462
C74	C	0.878675	0.509767	0.834336
C75	C	0.968364	0.452403	0.858465
H76	H	0.870631	0.588995	0.879894
H77	H	0.869692	0.522080	0.738385
H78	H	0.834857	0.457134	0.868377
H79	H	1.012180	0.505028	0.824408
H80	H	0.977354	0.440102	0.954412
