data_functionalizedCrystal
_audit_creation_method	'MofGen! by Chris Wilmer'
_symmetry_space_group_name_H-M	'P1'
_symmetry_Int_Tables_number	1
_symmetry_cell_setting	triclinic
loop_
_symmetry_equiv_pos_as_xyz
  x,y,z
_cell_length_a	17.699104
_cell_length_b	27.731996
_cell_length_c	16.176319
_cell_angle_alpha	89.987220
_cell_angle_beta	89.991696
_cell_angle_gamma	82.956452
loop_
_atom_site_label
_atom_site_type_symbol
_atom_site_fract_x
_atom_site_fract_y
_atom_site_fract_z
O1	O	1.003512	0.061176	-0.068774
O2	O	0.783063	0.069119	-0.068774
O3	O	0.900154	-0.005226	-0.068756
O4	O	0.886420	0.135521	-0.068792
O5	O	0.900139	-0.005231	0.068737
O6	O	0.783047	0.069114	0.068720
O7	O	1.003496	0.061172	0.068719
Cu8	Cu	0.893270	0.065142	0.081274
Cu9	Cu	0.893289	0.065148	-0.081328
O10	O	0.886404	0.135516	0.068702
C11	C	0.754861	0.068830	-0.000027
C12	C	0.670852	0.067971	-0.000026
C13	C	0.145627	0.106766	-0.000044
C14	C	0.224564	0.107570	-0.000047
C15	C	0.273579	0.063927	-0.000035
C16	C	0.243654	0.019477	-0.000030
C17	C	0.164719	0.018673	-0.000033
C18	C	0.561990	0.022717	-0.000018
C19	C	0.640930	0.023524	-0.000012
C20	C	0.621835	0.111614	-0.000031
C21	C	0.542900	0.110810	-0.000034
C22	C	0.512982	0.066360	-0.000033
C23	C	0.427390	0.065489	-0.000032
C24	C	0.359169	0.064798	-0.000031
C25	C	0.899864	-0.023237	-0.000007
C26	C	0.899015	-0.076896	0.000002
C27	C	0.893677	-0.409629	-0.074986
C28	C	0.890450	-0.611299	-0.075001
O29	O	0.890007	-0.637369	-0.138741
N30	N	0.890040	-0.636520	-0.000054
C31	C	0.890432	-0.611321	0.074902
O32	O	0.890002	-0.637399	0.138649
C33	C	0.893654	-0.409651	0.074916
C34	C	0.894071	-0.384433	-0.000036
C35	C	0.894093	-0.384411	-0.149932
C36	C	0.894904	-0.333997	-0.149927
C37	C	0.895298	-0.308801	-0.074977
C38	C	0.894882	-0.334019	-0.000032
C39	C	0.894041	-0.384452	0.149871
C40	C	0.894844	-0.334031	0.149867
C41	C	0.895262	-0.308813	0.074916
C42	C	0.896087	-0.258409	0.074923
N43	N	0.896497	-0.233188	-0.000024
C44	C	0.896102	-0.258384	-0.074974
C45	C	0.888743	-0.717200	0.074890
C46	C	0.887939	-0.767617	0.074886
C47	C	0.887954	-0.767592	-0.075017
C48	C	0.888764	-0.717175	-0.075012
C49	C	0.889152	-0.691979	-0.000057
C50	C	0.897806	-0.152510	-0.074959
C51	C	0.898620	-0.102092	-0.074948
C52	C	0.898600	-0.102121	0.074954
C53	C	0.897790	-0.152535	0.074944
C54	C	0.897391	-0.177729	-0.000020
O55	O	0.896522	-0.232307	0.138630
O56	O	0.896516	-0.232295	-0.138711
C57	C	0.892866	-0.460043	-0.074990
C58	C	0.892450	-0.485261	-0.000045
C59	C	0.892844	-0.460065	0.074905
C60	C	0.891645	-0.535679	-0.000048
C61	C	0.891251	-0.560875	-0.074998
C62	C	0.891660	-0.535654	-0.149945
C63	C	0.892471	-0.485239	-0.149940
C64	C	0.892435	-0.485286	0.149852
C65	C	0.891625	-0.535701	0.149842
C66	C	0.891230	-0.560897	0.074892
C67	C	1.031698	0.061460	-0.000030
C68	C	1.115707	0.062319	-0.000036
C69	C	0.886694	0.153527	-0.000050
C70	C	0.887544	0.207187	-0.000064
N71	N	0.893262	0.065138	0.195639
N72	N	0.893303	0.065148	-0.195693
C73	C	0.945126	0.032232	0.238911
C74	C	0.945129	0.032231	0.325458
C75	C	0.893273	0.065140	0.368731
C76	C	0.841404	0.098048	0.325453
C77	C	0.841397	0.098046	0.238908
C78	C	0.841430	0.098057	0.674482
C79	C	0.841442	0.098058	0.761033
C80	C	0.945162	0.032243	0.761032
C81	C	0.945155	0.032240	0.674486
C82	C	0.893284	0.065146	0.631216
C83	C	0.893280	0.065146	0.537371
C84	C	0.893280	0.065143	0.462574
H85	H	0.248920	0.143763	-0.000061
H86	H	0.537641	-0.013477	-0.000014
N87	N	1.001075	-0.003251	0.372140
H88	H	1.034350	0.015208	0.408029
H89	H	0.972366	-0.024624	0.408021
H90	H	0.799177	0.124841	0.360692
N91	N	0.892867	-0.458113	0.230693
H92	H	0.845790	-0.462919	0.263464
H93	H	0.939692	-0.470886	0.263385
N94	N	1.001062	-0.003260	0.192240
H95	H	1.033916	-0.024106	0.232789
H96	H	0.972344	-0.024610	0.156348
N97	N	0.891175	-0.562893	0.230692
H98	H	0.843901	-0.579834	0.234031
H99	H	0.937803	-0.587763	0.233994
N100	N	1.001089	-0.003251	0.627812
H101	H	1.033945	-0.024099	0.668358
H102	H	0.972369	-0.024600	0.591922
H103	H	0.646203	0.147807	-0.000035
N104	N	0.785488	0.133554	0.627830
H105	H	0.814144	0.154936	0.591904
H106	H	0.752205	0.115076	0.591989
N107	N	0.296516	-0.027597	-0.000021
H108	H	0.351062	-0.020344	-0.000017
H109	H	0.286875	-0.046972	0.050953
N110	N	1.001106	-0.003254	0.807701
H111	H	1.054750	0.002278	0.792623
H112	H	0.993177	0.001756	0.869079
H113	H	0.799211	0.124857	0.796265
N114	N	0.092764	0.153839	-0.000030
H115	H	0.123699	0.182117	-0.000031
H116	H	0.059595	0.155435	-0.050995
H117	H	0.680838	-0.012018	-0.000005
N118	N	0.132444	-0.029266	-0.000029
H119	H	0.175471	-0.056792	-0.000020
H120	H	0.100099	-0.031521	0.050939
H121	H	0.898961	-0.081562	-0.135985
H122	H	0.897477	-0.173017	-0.136002
H123	H	0.895241	-0.313469	-0.210961
H124	H	0.799164	0.124841	0.203677
H125	H	0.893769	-0.404920	-0.210968
N126	N	0.490034	0.157882	0.000004
H127	H	0.520966	0.186162	0.000013
H128	H	0.456855	0.159487	-0.050953
H129	H	0.889102	-0.696646	-0.136045
H130	H	0.887634	-0.788116	-0.136044
N131	N	0.887505	-0.794815	0.155727
H132	H	0.887876	-0.771199	0.203203
H133	H	0.840234	-0.811761	0.158995
N134	N	0.889167	-0.690028	0.155739
H135	H	0.888789	-0.713661	0.203210
H136	H	0.936439	-0.673086	0.159006
N137	N	0.893592	-0.411643	0.230712
H138	H	0.893960	-0.388023	0.278186
H139	H	0.846319	-0.428586	0.233977
N140	N	0.895266	-0.306853	0.230711
H141	H	0.848185	-0.311657	0.263475
H142	H	0.942086	-0.319621	0.263413
N143	N	0.897353	-0.179740	0.155781
H144	H	0.897730	-0.156126	0.203262
H145	H	0.850077	-0.196680	0.159046
N146	N	0.899033	-0.074941	0.155790
H147	H	0.899607	-0.039176	0.144413
H148	H	0.851949	-0.079781	0.188519
N149	N	0.892922	-0.458044	-0.230781
H150	H	0.892548	-0.481662	-0.278256
H151	H	0.846320	-0.433151	-0.234052
N152	N	0.891240	-0.562835	-0.230785
H153	H	0.890664	-0.598599	-0.219406
H154	H	0.844448	-0.550045	-0.263516
