data_functionalizedCrystal
_audit_creation_method	'MofGen! by Chris Wilmer'
_symmetry_space_group_name_H-M	'P1'
_symmetry_Int_Tables_number	1
_symmetry_cell_setting	triclinic
loop_
_symmetry_equiv_pos_as_xyz
  x,y,z
_cell_length_a	12.784890
_cell_length_b	14.853559
_cell_length_c	11.892095
_cell_angle_alpha	93.896703
_cell_angle_beta	86.513306
_cell_angle_gamma	78.369006
loop_
_atom_site_label
_atom_site_type_symbol
_atom_site_fract_x
_atom_site_fract_y
_atom_site_fract_z
O1	O	1.417111	-0.000654	-0.093968
O2	O	1.107711	0.037952	-0.093977
O3	O	1.270680	-0.113238	-0.093971
O4	O	1.254142	0.150536	-0.093974
O5	O	1.257092	-0.100650	0.094036
O6	O	1.094123	0.050540	0.094031
O7	O	1.403523	0.011934	0.094039
Zn8	Zn	1.246666	0.033236	0.123885
Zn9	Zn	1.264569	0.016651	-0.123823
O10	O	1.240554	0.163125	0.094033
C11	C	1.061322	0.046757	0.000026
C12	C	0.943339	0.054228	0.000023
C13	C	0.764497	0.147861	0.000020
C14	C	0.875352	0.140847	0.000020
C15	C	0.900464	-0.025384	0.000022
C16	C	0.789609	-0.018370	0.000022
C17	C	0.721629	0.068256	0.000022
C18	C	0.610771	0.075269	0.000030
C19	C	0.635885	-0.090961	0.000024
C20	C	0.746740	-0.097975	0.000024
C21	C	1.263139	-0.140474	0.000030
C22	C	1.260899	-0.240380	0.000024
C23	C	1.258799	-0.669662	-0.102459
C24	C	1.243985	-0.655932	0.102513
C25	C	1.246099	-0.562067	0.102514
C26	C	1.254562	-0.521994	0.000027
C27	C	1.260911	-0.575787	-0.102461
C28	C	1.239740	-0.508265	0.205001
C29	C	1.241853	-0.414393	0.205006
C30	C	1.250323	-0.374321	0.102517
C31	C	1.256673	-0.428120	0.000025
C32	C	1.265136	-0.388047	-0.102462
C33	C	1.271494	-0.441846	-0.204956
C34	C	1.269381	-0.535714	-0.204950
C35	C	1.252436	-0.280453	0.102511
C36	C	1.267247	-0.294173	-0.102464
C37	C	1.449913	0.003129	0.000034
C38	C	1.567897	-0.004342	0.000029
C39	C	1.248096	0.190360	0.000029
C40	C	1.250337	0.290266	0.000028
N41	N	1.234455	0.044554	0.292938
N42	N	1.276787	0.005325	-0.292876
C43	C	1.361753	-0.073483	0.529590
C44	C	1.353226	-0.065566	0.647932
C45	C	1.208869	0.068301	0.647965
C46	C	1.217396	0.060384	0.529624
C47	C	1.293842	-0.010510	0.470440
C48	C	1.302374	-0.018422	0.352097
C49	C	1.158012	0.115440	0.352132
C50	C	1.149485	0.123357	0.470474
H51	H	1.278376	-0.409206	-0.288401
H52	H	1.424006	-0.131201	0.481403
H53	H	1.408525	-0.116845	0.696089
O54	O	0.917057	0.218137	-0.000184
C55	C	1.034720	0.300146	-0.097563
C56	C	0.987554	0.212575	-0.097480
H57	H	1.091743	0.295670	-0.176206
H58	H	0.967132	0.363287	-0.097639
H59	H	1.080260	0.306286	-0.018849
H60	H	0.942025	0.206347	-0.176181
H61	H	1.055188	0.149479	-0.097345
H62	H	0.955832	-0.095910	0.000012
H63	H	1.146622	0.126015	0.696168
O64	O	1.376516	-0.087414	0.294679
C65	C	1.441169	-0.251448	0.258592
C66	C	1.357126	-0.173391	0.323646
H67	H	1.425535	-0.320978	0.282006
H68	H	1.435628	-0.246400	0.163828
H69	H	1.524620	-0.244744	0.281842
H70	H	1.273636	-0.180044	0.300491
H71	H	1.362761	-0.178463	0.418394
O72	O	1.075322	0.192190	0.528144
C73	C	0.998165	0.263684	0.710470
C74	C	1.082216	0.185697	0.645303
H75	H	1.003695	0.258449	0.805204
H76	H	1.013794	0.333273	0.687286
H77	H	0.914719	0.257026	0.687150
H78	H	1.165695	0.192267	0.668588
H79	H	1.066493	0.116138	0.668493
H80	H	0.600978	-0.155788	-0.000064
O81	O	1.275342	-0.587987	-0.304463
C82	C	1.189538	-0.684560	-0.423322
C83	C	1.182653	-0.625361	-0.310606
H84	H	1.114620	-0.714810	-0.428315
H85	H	1.195880	-0.639848	-0.496641
H86	H	1.263261	-0.742905	-0.428423
H87	H	1.108935	-0.567010	-0.305395
H88	H	1.176369	-0.670136	-0.237341
O89	O	1.091984	0.176718	0.294848
C90	C	0.947861	0.310299	0.307375
C91	C	1.022579	0.240978	0.372389
H92	H	0.891713	0.362259	0.370038
H93	H	0.997746	0.348119	0.251997
H94	H	0.898757	0.271792	0.251946
H95	H	1.071698	0.279414	0.427879
H96	H	0.972632	0.203159	0.427695
O97	O	0.544889	0.159481	-0.000023
C98	C	0.531684	0.323622	0.000029
C99	C	0.606414	0.228307	0.000069
H100	H	0.581395	0.379295	0.000127
H101	H	0.484864	0.325850	-0.078671
H102	H	0.473450	0.336285	0.078691
H103	H	0.664711	0.215583	-0.078539
H104	H	0.653158	0.226125	0.078821
H105	H	0.709146	0.218396	0.000034
O106	O	0.812927	-0.182043	0.000076
C107	C	0.994839	-0.266526	0.000011
C108	C	0.920006	-0.171259	-0.000026
H109	H	1.081429	-0.257841	-0.000096
H110	H	0.973630	-0.300877	0.078714
H111	H	0.984853	-0.311399	-0.078647
H112	H	0.929952	-0.126313	0.078578
H113	H	0.941235	-0.136981	-0.078782
H114	H	1.263980	-0.713469	-0.185907
O115	O	1.235905	-0.694774	0.202139
C116	C	1.314640	-0.729240	0.377299
C117	C	1.323905	-0.685198	0.264519
H118	H	1.385789	-0.721530	0.427755
H119	H	1.237133	-0.693303	0.427918
H120	H	1.314168	-0.805559	0.359675
H121	H	1.324422	-0.608881	0.282040
H122	H	1.401401	-0.721206	0.213935
H123	H	1.274144	-0.261554	-0.185923
O124	O	1.231335	-0.547123	0.304572
C125	C	1.126072	-0.546694	0.479787
C126	C	1.135437	-0.502605	0.367053
H127	H	1.048555	-0.510707	0.530346
H128	H	1.125592	-0.623019	0.462229
H129	H	1.197189	-0.538956	0.530282
H130	H	1.064339	-0.510274	0.316502
H131	H	1.135966	-0.426298	0.384691
H132	H	1.247235	-0.236649	0.185960
O133	O	1.235501	-0.362068	0.304535
C134	C	1.137341	-0.230659	0.423472
C135	C	1.144385	-0.289851	0.310727
H136	H	1.063691	-0.172247	0.428505
H137	H	1.130858	-0.275371	0.496763
H138	H	1.212315	-0.200502	0.428580
H139	H	1.069431	-0.320019	0.305509
H140	H	1.150920	-0.245097	0.237490
