data_functionalizedCrystal
_audit_creation_method	'MofGen! by Chris Wilmer'
_symmetry_space_group_name_H-M	'P1'
_symmetry_Int_Tables_number	1
_symmetry_cell_setting	triclinic
loop_
_symmetry_equiv_pos_as_xyz
  x,y,z
_cell_length_a	23.532407
_cell_length_b	17.699083
_cell_length_c	16.176319
_cell_angle_alpha	90.001389
_cell_angle_beta	89.988536
_cell_angle_gamma	96.934153
loop_
_atom_site_label
_atom_site_type_symbol
_atom_site_fract_x
_atom_site_fract_y
_atom_site_fract_z
O1	O	0.072020	-1.003713	-0.068639
O2	O	0.572020	-0.503713	0.431361
O3	O	0.081390	-0.783287	-0.068667
O4	O	0.581390	-0.283287	0.431333
O5	O	-0.006208	-0.900147	-0.068637
O6	O	0.493792	-0.400147	0.431363
O7	O	0.159618	-0.886853	-0.068669
O8	O	0.659618	-0.386853	0.431331
O9	O	-0.006213	-0.900131	0.068856
O10	O	0.493787	-0.400131	0.568856
O11	O	0.081384	-0.783271	0.068826
O12	O	0.581384	-0.283271	0.568826
O13	O	0.072014	-1.003697	0.068854
O14	O	0.572014	-0.503697	0.568854
Cu15	Cu	0.076699	-0.893483	0.081394
Cu16	Cu	0.576699	-0.393483	0.581394
Cu17	Cu	0.076705	-0.893502	-0.081207
Cu18	Cu	0.576705	-0.393502	0.418793
O19	O	0.159612	-0.886837	0.068824
O20	O	0.659612	-0.386837	0.568824
C21	C	0.081051	-0.755084	0.000076
C22	C	0.581051	-0.255084	0.500076
C23	C	0.080044	-0.671071	0.000066
C24	C	0.580044	-0.171071	0.500066
C25	C	-0.027427	-0.899801	0.000111
C26	C	0.472573	-0.399801	0.500111
C27	C	-0.090647	-0.898783	0.000118
C28	C	0.409353	-0.398783	0.500118
N29	N	0.076694	-0.893475	0.195759
N30	N	0.576694	-0.393475	0.695759
C31	C	-0.489570	-0.961554	0.000080
C32	C	0.010430	-0.461554	0.500080
C33	C	-0.548973	-0.960609	0.000074
C34	C	-0.048973	-0.460609	0.500074
O35	O	-0.585550	-1.018799	0.000051
O36	O	-0.085550	-0.518799	0.500051
N37	N	-0.571799	-0.891136	0.000066
N38	N	-0.071799	-0.391136	0.500066
C39	C	-0.535218	-0.822604	0.000055
C40	C	-0.035218	-0.322604	0.500055
O41	O	-0.560088	-0.763424	0.000047
O42	O	-0.060088	-0.263424	0.500047
C43	C	-0.475816	-0.823550	0.000056
C44	C	0.024184	-0.323550	0.500056
C45	C	-0.452994	-0.893028	0.000073
C46	C	0.047006	-0.393028	0.500073
C47	C	-0.466747	-1.031026	0.000096
C48	C	0.033253	-0.531026	0.500096
C49	C	-0.407348	-1.031972	0.000104
C50	C	0.092652	-0.531972	0.500104
C51	C	-0.370772	-0.963445	0.000096
C52	C	0.129228	-0.463445	0.500096
C53	C	-0.393595	-0.893973	0.000080
C54	C	0.106405	-0.393973	0.500080
C55	C	-0.439237	-0.755019	0.000040
C56	C	0.060763	-0.255019	0.500040
C57	C	-0.379832	-0.755971	0.000039
C58	C	0.120168	-0.255971	0.500039
C59	C	-0.357009	-0.825448	0.000056
C60	C	0.142991	-0.325448	0.500056
C61	C	-0.297620	-0.826391	0.000081
C62	C	0.202380	-0.326391	0.500081
N63	N	-0.274795	-0.895864	0.000089
N64	N	0.225205	-0.395864	0.500089
C65	C	-0.311371	-0.964391	0.000097
C66	C	0.188629	-0.464391	0.500097
C67	C	-0.659966	-0.820622	0.000053
C68	C	-0.159966	-0.320622	0.500053
C69	C	-0.719367	-0.819674	0.000058
C70	C	-0.219367	-0.319674	0.500058
C71	C	-0.733118	-0.957680	0.000075
C72	C	-0.233118	-0.457680	0.500075
C73	C	-0.673716	-0.958626	0.000076
C74	C	-0.173716	-0.458626	0.500076
C75	C	-0.637141	-0.890095	0.000061
C76	C	-0.137141	-0.390095	0.500061
C77	C	-0.186628	-0.966371	0.000114
C78	C	0.313372	-0.466371	0.500114
C79	C	-0.127223	-0.967310	0.000125
C80	C	0.372777	-0.467310	0.500125
C81	C	-0.113478	-0.829305	0.000104
C82	C	0.386522	-0.329305	0.500104
C83	C	-0.172877	-0.828365	0.000097
C84	C	0.327123	-0.328365	0.500097
C85	C	-0.209452	-0.896904	0.000099
C86	C	0.290548	-0.396904	0.500099
O87	O	-0.261008	-0.768232	0.000100
O88	O	0.238992	-0.268232	0.500100
O89	O	-0.286493	-1.023560	0.000094
O90	O	0.213507	-0.523560	0.500094
C91	C	0.180832	-0.887184	0.000073
C92	C	0.680832	-0.387184	0.500073
C93	C	0.244052	-0.888202	0.000062
C94	C	0.744052	-0.388202	0.500062
C95	C	0.072353	-1.031901	0.000109
C96	C	0.572353	-0.531901	0.500109
C97	C	0.073360	-1.115914	0.000114
C98	C	0.573360	-0.615914	0.500114
C99	C	0.131462	-0.622189	0.000056
C100	C	0.631462	-0.122189	0.500056
C101	C	0.130512	-0.543251	0.000067
C102	C	0.630512	-0.043251	0.500067
C103	C	0.078144	-0.513196	0.000082
C104	C	0.578144	-0.013196	0.500082
C105	C	0.026722	-0.562084	0.000094
C106	C	0.526722	-0.062084	0.500094
C107	C	0.027672	-0.641021	0.000089
C108	C	0.527672	-0.141021	0.500089
C109	C	0.022888	-0.243740	0.000115
C110	C	0.522888	0.256260	0.500115
C111	C	0.021942	-0.164797	0.000117
C112	C	0.521942	0.335203	0.500117
C113	C	0.125728	-0.145970	0.000093
C114	C	0.625728	0.354030	0.500093
C115	C	0.126678	-0.224907	0.000088
C116	C	0.626678	0.275093	0.500088
C117	C	0.075257	-0.273788	0.000105
C118	C	0.575257	0.226212	0.500105
C119	C	0.076287	-0.359382	0.000094
C120	C	0.576287	0.140618	0.500094
C121	C	0.077113	-0.427603	0.000086
C122	C	0.577113	0.072397	0.500086
N123	N	0.076706	-0.893516	-0.195573
N124	N	0.576706	-0.393516	0.304427
C125	C	0.037921	-0.945236	0.239037
C126	C	0.537921	-0.445236	0.739037
C127	C	0.037921	-0.945240	0.325584
C128	C	0.537921	-0.445240	0.825584
C129	C	0.076696	-0.893486	0.368852
C130	C	0.576696	-0.393486	0.868852
C131	C	0.115470	-0.841719	0.325568
C132	C	0.615470	-0.341719	0.825568
C133	C	0.115467	-0.841713	0.239023
C134	C	0.615467	-0.341713	0.739023
C135	C	0.115481	-0.841745	0.674597
C136	C	0.615481	-0.341745	1.174597
C137	C	0.115481	-0.841758	0.761148
C138	C	0.615481	-0.341758	1.261148
C139	C	0.037934	-0.945273	0.761158
C140	C	0.537934	-0.445273	1.261158
C141	C	0.037932	-0.945266	0.674612
C142	C	0.537932	-0.445266	1.174612
C143	C	0.076704	-0.893497	0.631336
C144	C	0.576704	-0.393497	1.131336
C145	C	0.076703	-0.893493	0.537492
C146	C	0.576703	-0.393493	1.037492
C147	C	0.076700	-0.893493	0.462695
C148	C	0.576700	-0.393493	0.962695
H149	H	-0.108645	-1.023889	0.000141
H150	H	0.391355	-0.523889	0.500141
O151	O	-0.772572	-1.031597	0.000081
O152	O	-0.272572	-0.531597	0.500081
H153	H	-0.799952	-1.034471	-0.055965
H154	H	-0.299952	-0.534471	0.444035
H155	H	0.006349	-0.987387	0.360820
H156	H	0.506349	-0.487387	0.860820
O157	O	-0.003892	-1.001081	0.627942
O158	O	0.496108	-0.501081	1.127942
H159	H	-0.030859	-1.037070	0.672577
H160	H	0.469141	-0.537070	1.172577
H161	H	-0.083687	-0.773512	0.000101
H162	H	0.416313	-0.273512	0.500101
H163	H	0.169322	-0.249373	0.000072
H164	H	0.669322	0.250627	0.500072
H165	H	0.147051	-0.799595	0.639368
H166	H	0.647051	-0.299595	1.139368
H167	H	-0.018983	-0.283530	0.000129
H168	H	0.481017	0.216470	0.500129
O169	O	-0.027786	-0.693747	0.000106
O170	O	0.472214	-0.193747	0.500106
H171	H	-0.029834	-0.730168	-0.055930
H172	H	0.470166	-0.230168	0.444070
H173	H	-0.015917	-0.537607	0.000117
H174	H	0.484083	-0.037607	0.500117
O175	O	-0.034545	-0.132380	0.000149
O176	O	0.465455	0.367620	0.500149
H177	H	-0.059255	-0.152048	-0.055877
H178	H	0.440745	0.347952	0.444123
O179	O	-0.649105	-1.033564	0.000077
O180	O	-0.149105	-0.533564	0.500077
H181	H	-0.663815	-1.066468	0.056117
H182	H	-0.163815	-0.566468	0.556117
H183	H	0.147040	-0.799576	0.360802
H184	H	0.647040	-0.299576	0.860802
H185	H	0.174106	-0.646653	0.000044
H186	H	0.674106	-0.146653	0.500044
O187	O	0.157315	-0.785941	0.807812
O188	O	0.657315	-0.285941	1.307812
H189	H	0.150116	-0.726992	0.791226
H190	H	0.650116	-0.226992	1.291226
H191	H	0.006362	-0.987424	0.796402
H192	H	0.506362	-0.487424	1.296402
H193	H	0.172382	-0.503454	0.000058
H194	H	0.672382	-0.003454	0.500058
O195	O	0.157288	-0.785889	0.192338
O196	O	0.657288	-0.285889	0.692338
H197	H	0.184256	-0.749907	0.236963
H198	H	0.684256	-0.249907	0.736963
H199	H	0.006349	-0.987383	0.203814
H200	H	0.506349	-0.487383	0.703814
O201	O	-0.226072	-1.040293	0.000129
O202	O	0.273928	-0.540293	0.500129
H203	H	-0.200214	-1.088754	0.000151
H204	H	0.299786	-0.588754	0.500151
H205	H	0.167598	-0.106161	0.000084
H206	H	0.667598	0.393839	0.500084
H207	H	-0.496522	-1.086833	0.000099
H208	H	0.003478	-0.586833	0.500099
O209	O	-0.382741	-1.106912	0.000098
O210	O	0.117259	-0.606912	0.500098
H211	H	-0.397455	-1.139821	0.056133
H212	H	0.102545	-0.639821	0.556133
O213	O	-0.743981	-0.744739	0.000056
O214	O	-0.243981	-0.244739	0.500056
H215	H	-0.729274	-0.711841	-0.055989
H216	H	-0.229274	-0.211841	0.444011
O217	O	-0.620520	-0.746698	0.000060
O218	O	-0.120520	-0.246698	0.500060
H219	H	-0.628620	-0.713428	-0.055977
H220	H	-0.128620	-0.213428	0.444023
O221	O	-0.463843	-0.680080	0.000022
O222	O	0.036157	-0.180080	0.500022
H223	H	-0.449134	-0.647192	-0.056028
H224	H	0.050866	-0.147192	0.443972
O225	O	-0.340381	-0.682053	0.000034
O226	O	0.159619	-0.182053	0.500034
H227	H	-0.366235	-0.633588	0.000030
H228	H	0.133765	-0.133588	0.500030
H229	H	-0.191460	-0.771791	0.000106
H230	H	0.308540	-0.271791	0.500106
