data_functionalizedCrystal
_audit_creation_method	'MofGen! by Chris Wilmer'
_symmetry_space_group_name_H-M	'P1'
_symmetry_Int_Tables_number	1
_symmetry_cell_setting	triclinic
loop_
_symmetry_equiv_pos_as_xyz
  x,y,z
_cell_length_a	16.992694
_cell_length_b	11.804365
_cell_length_c	16.992695
_cell_angle_alpha	77.349196
_cell_angle_beta	90.668223
_cell_angle_gamma	102.662526
loop_
_atom_site_label
_atom_site_type_symbol
_atom_site_fract_x
_atom_site_fract_y
_atom_site_fract_z
O1	O	1.065735	0.098876	0.152042
O2	O	1.565735	0.598876	0.652042
O3	O	0.837340	0.098911	0.150205
O4	O	1.337340	0.598911	0.650205
O5	O	0.950621	0.098884	0.036925
O6	O	1.450621	0.598884	0.536925
O7	O	0.952455	0.098903	0.265322
O8	O	1.452455	0.598903	0.765322
O9	O	0.920796	-0.099164	0.066715
O10	O	1.420796	0.400836	0.566715
O11	O	0.807516	-0.099138	0.179995
O12	O	1.307516	0.400862	0.679995
O13	O	1.035911	-0.099173	0.181832
O14	O	1.535911	0.400827	0.681832
Cu15	Cu	0.918990	-0.117239	0.183634
Cu16	Cu	1.418990	0.382761	0.683634
Cu17	Cu	0.954261	0.116977	0.148403
Cu18	Cu	1.454261	0.616977	0.648403
O19	O	0.922630	-0.099146	0.295112
O20	O	1.422630	0.400854	0.795112
C21	C	0.793069	-0.000109	0.162744
C22	C	1.293069	0.499891	0.662744
C23	C	0.705586	-0.000096	0.155713
C24	C	1.205586	0.499904	0.655713
N25	N	0.894188	-0.281973	0.208413
N26	N	1.394188	0.218027	0.708413
C27	C	0.659596	-0.000091	0.223530
C28	C	1.159596	0.499909	0.723530
C29	C	0.577393	-0.000108	0.216924
C30	C	1.077393	0.499892	0.716924
C31	C	0.541182	-0.000121	0.142498
C32	C	1.041182	0.499879	0.642498
C33	C	0.587178	-0.000129	0.074676
C34	C	1.087178	0.499871	0.574676
C35	C	0.669379	-0.000121	0.081285
C36	C	1.169379	0.499879	0.581285
C37	C	0.295863	-0.000155	0.115109
C38	C	0.795863	0.499845	0.615109
C39	C	0.213657	-0.000160	0.108505
C40	C	0.713657	0.499840	0.608505
C41	C	0.203877	-0.000141	0.250754
C42	C	0.703877	0.499859	0.750754
C43	C	0.286080	-0.000125	0.257354
C44	C	0.786080	0.499875	0.757354
C45	C	0.332068	-0.000140	0.189533
C46	C	0.832068	0.499860	0.689533
N47	N	0.457158	-0.000135	0.135743
N48	N	0.957158	0.499865	0.635743
N49	N	0.416089	-0.000135	0.196291
N50	N	0.916089	0.499865	0.696291
C51	C	1.038626	-0.655956	0.064099
C52	C	1.538626	-0.155956	0.564099
C53	C	1.057388	-0.531299	0.045351
C54	C	1.557388	-0.031299	0.545351
C55	C	1.016589	-0.468961	0.086114
C56	C	1.516589	0.031039	0.586114
C57	C	0.957026	-0.531293	0.145630
C58	C	1.457026	-0.031293	0.645630
C59	C	0.938268	-0.655963	0.164386
C60	C	1.438268	-0.155963	0.664386
C61	C	0.916231	-0.468968	0.186401
C62	C	1.416231	0.031032	0.686401
C63	C	0.856668	-0.531300	0.245917
C64	C	1.356668	-0.031300	0.745917
C65	C	0.837912	-0.655957	0.264668
C66	C	1.337912	-0.155957	0.764668
C67	C	0.878710	-0.718295	0.223904
C68	C	1.378710	-0.218295	0.723904
C69	C	0.934989	-0.344299	0.167645
C70	C	1.434989	0.155701	0.667645
C71	C	0.834631	-0.344305	0.267932
C72	C	1.334631	0.155695	0.767932
C73	C	0.815869	-0.468962	0.286681
C74	C	1.315869	0.031038	0.786681
C75	C	1.080183	-0.000150	0.169293
C76	C	1.580183	0.499850	0.669293
C77	C	1.167667	-0.000155	0.176322
C78	C	1.667667	0.499845	0.676322
C79	C	0.933353	-0.000139	0.022460
C80	C	1.433353	0.499861	0.522460
C81	C	0.926324	-0.000138	-0.065025
C82	C	1.426324	0.499862	0.434975
N83	N	0.979069	0.281712	0.123618
N84	N	1.479069	0.781712	0.623618
C85	C	0.994141	-0.000150	-0.111014
C86	C	1.494141	0.499850	0.388986
C87	C	0.987533	-0.000137	-0.193217
C88	C	1.487533	0.499863	0.306783
C89	C	0.913108	-0.000122	-0.229428
C90	C	1.413108	0.499878	0.270572
C91	C	0.845287	-0.000107	-0.183433
C92	C	1.345287	0.499893	0.316567
C93	C	0.851897	-0.000111	-0.101233
C94	C	1.351897	0.499889	0.398767
C95	C	0.885717	-0.000101	-0.474745
C96	C	1.385717	0.499899	0.025255
C97	C	0.879112	-0.000101	-0.556950
C98	C	1.379112	0.499899	-0.056950
C99	C	1.021359	-0.000130	-0.566729
C100	C	1.521359	0.499870	-0.066729
C101	C	1.027961	-0.000141	-0.484526
C102	C	1.527961	0.499859	0.015474
C103	C	0.960141	-0.000119	-0.438540
C104	C	1.460141	0.499881	0.061460
N105	N	0.906352	-0.000113	-0.313451
N106	N	1.406352	0.499887	0.186549
N107	N	0.966899	-0.000119	-0.354519
N108	N	1.466899	0.499881	0.145481
C109	C	0.939899	-0.000119	0.309577
C110	C	1.439899	0.499881	0.809577
C111	C	0.946928	-0.000113	0.397061
C112	C	1.446928	0.499887	0.897061
H113	H	0.689072	-0.000079	0.284136
H114	H	1.189072	0.499921	0.784136
H115	H	0.863433	-0.819801	0.239167
H116	H	1.363433	-0.319801	0.739167
Cl117	Cl	1.106613	-0.000153	-0.624545
Cl118	Cl	1.606613	0.499847	-0.124545
Cl119	Cl	0.766639	-0.000091	-0.043418
Cl120	Cl	1.266639	0.499909	0.456582
Cl121	Cl	0.541655	-0.000153	-0.018887
Cl122	Cl	1.041655	0.499847	0.481113
Cl123	Cl	0.519581	-0.000095	0.302183
Cl124	Cl	1.019581	0.499905	0.802183
Cl125	Cl	1.009864	-0.265954	0.092828
Cl126	Cl	1.509864	0.234046	0.592828
Cl127	Cl	1.040173	-0.312247	0.062541
Cl128	Cl	1.540173	0.187753	0.562541
Cl129	Cl	0.353665	-0.000172	0.029847
Cl130	Cl	0.853665	0.499828	0.529847
H131	H	1.088566	-0.000153	-0.455050
H132	H	1.588566	0.499847	0.044950
H133	H	0.706823	-0.000124	0.026060
H134	H	1.206823	0.499876	0.526060
H135	H	0.784690	-0.000087	-0.212923
H136	H	1.284690	0.499913	0.287077
H137	H	0.315559	-0.000101	0.317957
H138	H	0.815559	0.499899	0.817957
H139	H	1.105883	-0.480553	-0.003106
H140	H	1.605883	0.019447	0.496894
H141	H	1.054744	-0.000170	-0.081537
H142	H	1.554744	0.499830	0.418463
Cl143	Cl	1.089917	-0.734324	0.012866
Cl144	Cl	1.589917	-0.234324	0.512866
Cl145	Cl	0.168133	-0.000203	0.014938
Cl146	Cl	0.668133	0.499797	0.514938
H147	H	0.830493	-0.000084	-0.437312
H148	H	1.330493	0.499916	0.062688
Cl149	Cl	0.785541	-0.000089	-0.602470
Cl150	Cl	1.285541	0.499911	-0.102470
Cl151	Cl	0.763043	-0.734319	0.339497
Cl152	Cl	1.263043	-0.234319	0.839497
H153	H	0.801410	-0.293551	0.301127
H154	H	1.301410	0.206449	0.801127
Cl155	Cl	1.072792	-0.000156	-0.251028
Cl156	Cl	1.572792	0.499844	0.248972
Cl157	Cl	0.740993	-0.547335	0.361500
Cl158	Cl	1.240993	-0.047335	0.861500
H159	H	0.166425	-0.000132	0.305970
H160	H	0.666425	0.499868	0.805970
