data_functionalizedCrystal
_audit_creation_method	'MofGen! by Chris Wilmer'
_symmetry_space_group_name_H-M	'P1'
_symmetry_Int_Tables_number	1
_symmetry_cell_setting	triclinic
loop_
_symmetry_equiv_pos_as_xyz
  x,y,z
_cell_length_a	10.654545
_cell_length_b	13.262508
_cell_length_c	9.130313
_cell_angle_alpha	105.913806
_cell_angle_beta	89.996934
_cell_angle_gamma	84.458219
loop_
_atom_site_label
_atom_site_type_symbol
_atom_site_fract_x
_atom_site_fract_y
_atom_site_fract_z
O1	O	1.667075	0.147399	-0.063062
O2	O	1.301522	0.161450	-0.057470
O3	O	1.493497	0.001704	-0.121099
O4	O	1.475100	0.307146	0.000567
O5	O	1.493484	0.001699	0.122498
O6	O	1.301509	0.161445	0.186127
O7	O	1.667062	0.147395	0.180535
Cu8	Cu	1.484284	0.154419	0.205573
Cu9	Cu	1.484300	0.154425	-0.082508
O10	O	1.475086	0.307141	0.244164
C11	C	1.254723	0.160417	0.063917
C12	C	1.115296	0.157333	0.062686
C13	C	1.049791	0.155879	0.194894
C14	C	0.918787	0.152964	0.193733
C15	C	0.918802	0.152962	-0.071853
C16	C	1.049805	0.155870	-0.070694
C17	C	1.492461	-0.037409	-0.014883
C18	C	1.489376	-0.153946	-0.061313
C19	C	1.480645	-0.482469	0.338965
C20	C	1.483534	-0.372975	0.382590
C21	C	1.484995	-0.318213	0.271618
C22	C	1.483566	-0.372954	0.117014
C23	C	1.480668	-0.482457	0.073385
C24	C	1.485017	-0.318201	0.006038
C25	C	1.483589	-0.372943	-0.148566
C26	C	1.480692	-0.482435	-0.192187
C27	C	1.479230	-0.537198	-0.081216
C28	C	1.487916	-0.208698	0.049667
C29	C	1.487938	-0.208687	-0.215913
C30	C	1.485050	-0.318180	-0.259538
C31	C	1.713861	0.148428	0.059145
C32	C	1.853288	0.151511	0.060366
C33	C	1.476123	0.346254	0.137945
C34	C	1.479208	0.462791	0.184365
N35	N	1.484282	0.154415	0.408194
N36	N	1.484311	0.154421	-0.285133
C37	C	1.569318	0.083709	0.456683
C38	C	1.569330	0.083710	0.610020
C39	C	1.399267	0.225130	0.666369
C40	C	1.399250	0.225124	0.513033
H41	H	1.489068	-0.164137	0.175547
H42	H	0.865459	0.151781	0.301389
C43	C	1.489261	-0.149112	-0.336275
C44	C	1.382993	-0.075238	-0.314543
C45	C	1.384141	-0.020332	-0.425382
H46	H	1.487902	-0.197289	-0.434650
H47	H	1.563483	-0.113782	-0.327808
H48	H	1.308790	-0.110567	-0.323024
H49	H	1.384330	-0.027039	-0.216190
H50	H	1.458363	0.014998	-0.416915
H51	H	1.382785	-0.068517	-0.523750
H52	H	1.312046	0.029804	-0.410644
C53	C	1.306865	0.302013	0.460690
C54	C	1.232431	0.363964	0.585328
C55	C	1.147326	0.434808	0.537169
H56	H	1.254273	0.263965	0.385731
H57	H	1.352227	0.346112	0.418454
H58	H	1.187073	0.319871	0.627542
H59	H	1.284988	0.402035	0.660300
H60	H	1.192687	0.478906	0.494933
H61	H	1.094743	0.396750	0.462209
H62	H	1.096820	0.476856	0.621730
H63	H	1.476885	-0.626357	-0.116728
C64	C	1.488337	-0.199354	0.318753
C65	C	1.597208	-0.174147	0.256421
C66	C	1.600328	-0.064661	0.299798
H67	H	1.489049	-0.174465	0.426688
H68	H	1.415891	-0.167073	0.282494
H69	H	1.669635	-0.206416	0.292688
H70	H	1.596520	-0.199010	0.148489
H71	H	1.527882	-0.032379	0.263540
H72	H	1.601036	-0.039782	0.407733
H73	H	1.674189	-0.047543	0.257502
H74	H	0.865464	0.151772	-0.180446
C75	C	1.120681	0.157396	0.339825
C76	C	1.035273	0.155468	0.455344
C77	C	1.100529	0.156845	0.588872
H78	H	1.162529	0.219612	0.370343
H79	H	1.181024	0.097404	0.321527
H80	H	0.974952	0.215454	0.473644
H81	H	0.993421	0.093256	0.424877
H82	H	1.160872	0.096854	0.570573
H83	H	1.142375	0.219062	0.619375
H84	H	1.042592	0.155527	0.667264
H85	H	1.479517	-0.527002	-0.318076
C86	C	1.661798	0.006899	0.662382
C87	C	1.736277	-0.055005	0.537752
C88	C	1.821486	-0.125769	0.585931
H89	H	1.616556	-0.037246	0.704632
H90	H	1.714341	0.045040	0.737346
H91	H	1.683741	-0.093143	0.462815
H92	H	1.781547	-0.010888	0.495488
H93	H	1.874029	-0.087627	0.660894
H94	H	1.776233	-0.169907	0.628180
H95	H	1.872038	-0.167772	0.501380
H96	H	1.103140	0.157051	-0.178360
H97	H	1.484710	-0.328414	0.508468
H98	H	1.479447	-0.527065	0.429302
H99	H	1.483886	-0.362766	-0.385419
H100	H	1.638554	0.026132	0.371325
H101	H	1.330037	0.282702	0.751744
