data_functionalizedCrystal
_audit_creation_method	'MofGen! by Chris Wilmer'
_symmetry_space_group_name_H-M	'P1'
_symmetry_Int_Tables_number	1
_symmetry_cell_setting	triclinic
loop_
_symmetry_equiv_pos_as_xyz
  x,y,z
_cell_length_a	23.532407
_cell_length_b	23.532407
_cell_length_c	7.088929
_cell_angle_alpha	83.810936
_cell_angle_beta	96.169690
_cell_angle_gamma	82.848678
loop_
_atom_site_label
_atom_site_type_symbol
_atom_site_fract_x
_atom_site_fract_y
_atom_site_fract_z
O1	O	0.749388	0.075014	-0.158773
O2	O	0.583522	0.085020	-0.158831
O3	O	0.671458	-0.002916	-0.158765
O4	O	0.661452	0.162950	-0.158839
O5	O	0.683210	-0.014694	0.159219
O6	O	0.595274	0.073242	0.159153
O7	O	0.761140	0.063236	0.159211
Cu8	Cu	0.679280	0.067164	0.188217
Cu9	Cu	0.665382	0.081093	-0.187836
O10	O	0.673204	0.151172	0.159145
C11	C	0.568182	0.078876	0.000154
C12	C	0.504964	0.078111	0.000133
C13	C	0.677079	-0.030021	0.000232
C14	C	0.676314	-0.093239	0.000246
C15	C	0.105864	0.125342	0.000198
C16	C	0.046464	0.124630	0.000210
O17	O	0.009721	0.168414	0.000260
N18	N	0.023838	0.072353	0.000230
C19	C	0.060617	0.020784	0.000258
O20	O	0.035918	-0.023747	0.000278
C21	C	0.120016	0.021496	0.000259
C22	C	0.142637	0.073777	0.000220
C23	C	0.128485	0.177619	0.000161
C24	C	0.187881	0.178331	0.000145
C25	C	0.224655	0.126766	0.000167
C26	C	0.202033	0.074489	0.000204
C27	C	0.156794	-0.030073	0.000301
C28	C	0.216197	-0.029357	0.000304
C29	C	0.238818	0.022924	0.000264
C30	C	0.298202	0.023636	0.000211
N31	N	0.320828	0.075913	0.000191
C32	C	0.284054	0.127478	0.000169
C33	C	-0.064126	0.019293	0.000258
C34	C	-0.123524	0.018580	0.000242
C35	C	-0.137673	0.122427	0.000198
C36	C	-0.078274	0.123139	0.000200
C37	C	-0.041500	0.071570	0.000238
C38	C	0.408789	0.128969	0.000134
C39	C	0.468190	0.129676	0.000111
C40	C	0.482335	0.025830	0.000165
C41	C	0.422938	0.025122	0.000178
C42	C	0.386167	0.076696	0.000170
O43	O	0.334980	-0.020126	0.000168
O44	O	0.308762	0.172001	0.000174
C45	C	0.723544	-0.492339	0.000158
C46	C	0.722832	-0.551738	0.000143
O47	O	0.766616	-0.588481	0.000088
N48	N	0.670555	-0.574364	0.000126
C49	C	0.618986	-0.537585	0.000104
O50	O	0.574455	-0.562284	0.000086
C51	C	0.619698	-0.478186	0.000105
C52	C	0.671980	-0.455565	0.000142
C53	C	0.775821	-0.469717	0.000192
C54	C	0.776533	-0.410321	0.000211
C55	C	0.724968	-0.373548	0.000195
C56	C	0.672691	-0.396170	0.000160
C57	C	0.568130	-0.441409	0.000070
C58	C	0.568846	-0.382006	0.000069
C59	C	0.621127	-0.359385	0.000106
C60	C	0.621838	-0.300001	0.000162
N61	N	0.674115	-0.277375	0.000180
C62	C	0.725680	-0.314149	0.000196
C63	C	0.617495	-0.662328	0.000099
C64	C	0.616783	-0.721726	0.000111
C65	C	0.720629	-0.735875	0.000147
C66	C	0.721341	-0.676476	0.000148
C67	C	0.669772	-0.639702	0.000116
C68	C	0.727171	-0.189413	0.000236
C69	C	0.727879	-0.130012	0.000262
C70	C	0.624033	-0.115868	0.000217
C71	C	0.623325	-0.175265	0.000200
C72	C	0.674899	-0.212036	0.000204
O73	O	0.578077	-0.263223	0.000210
O74	O	0.770203	-0.289440	0.000188
C75	C	0.776480	0.069380	0.000222
C76	C	0.839697	0.070145	0.000231
C77	C	0.667582	0.178277	0.000144
C78	C	0.668347	0.241495	0.000117
N79	N	0.689059	0.057366	0.452712
N80	N	0.655607	0.090885	-0.452332
H81	H	0.378856	0.170965	0.000133
C82	C	0.780593	-0.258347	-0.163223
C83	C	0.783862	-0.229826	0.000248
H84	H	0.815593	-0.283293	-0.163209
H85	H	0.749366	-0.280327	-0.163233
H86	H	0.774612	-0.230762	-0.274094
H87	H	0.789839	-0.257412	0.111119
H88	H	0.815098	-0.207846	0.000275
H89	H	0.574211	-0.740140	0.000115
H90	H	0.770454	-0.111598	0.000297
H91	H	0.819105	-0.391909	0.000233
H92	H	0.620938	0.125621	0.465996
H93	H	0.817814	-0.499652	0.000199
H94	H	0.512286	-0.016153	0.000175
H95	H	0.723735	0.022632	0.534394
C96	C	0.104262	-0.097175	0.163819
C97	C	0.131936	-0.087541	0.000351
H98	H	0.088914	-0.132654	0.163842
H99	H	0.131242	-0.098841	0.274680
H100	H	0.073856	-0.066567	0.163778
H101	H	0.162345	-0.118148	0.000400
H102	H	0.104954	-0.085880	-0.110538
C103	C	0.814967	-0.772305	0.163622
C104	C	0.777310	-0.776306	0.000148
H105	H	0.849955	-0.797270	0.163624
H106	H	0.822879	-0.733699	0.163619
H107	H	0.797609	-0.783245	0.274490
H108	H	0.794666	-0.765362	-0.110722
H109	H	0.769399	-0.814921	0.000133
H110	H	0.486605	0.172252	0.000078
H111	H	0.206293	0.220903	0.000113
C112	C	0.520749	-0.155309	0.000147
C113	C	0.565858	-0.200133	0.000158
H114	H	0.485270	-0.170659	0.000091
H115	H	0.527281	-0.136556	0.111048
H116	H	0.519098	-0.128317	-0.110729
H117	H	0.567512	-0.227124	0.111041
H118	H	0.559324	-0.218895	-0.110755
H119	H	0.098550	0.219612	0.000150
C120	C	0.776348	-0.611830	-0.163295
C121	C	0.778807	-0.651610	0.000169
H122	H	0.811826	-0.596479	-0.163275
H123	H	0.769815	-0.630599	-0.274159
H124	H	0.745739	-0.581427	-0.163288
H125	H	0.809413	-0.682016	0.000155
H126	H	0.785347	-0.632841	0.111062
H127	H	0.575499	-0.632390	0.000089
H128	H	-0.059860	0.165710	0.000179
C129	C	-0.218737	0.187922	-0.163266
C130	C	-0.178103	0.179109	0.000189
H131	H	-0.243699	0.222911	-0.163264
H132	H	-0.199373	0.190155	-0.274136
H133	H	-0.240704	0.156679	-0.163231
H134	H	-0.156133	0.210351	0.000146
H135	H	-0.197468	0.176881	0.111087
C136	C	0.240496	-0.111599	-0.163119
C137	C	0.256619	-0.086043	0.000328
H138	H	0.265453	-0.146591	-0.163111
H139	H	0.201888	-0.119502	-0.163088
H140	H	0.243223	-0.086036	-0.274006
H141	H	0.253888	-0.111605	0.111216
H142	H	0.295237	-0.078142	0.000315
C143	C	-0.103557	-0.083994	0.000287
C144	C	-0.148386	-0.038888	0.000268
H145	H	-0.118905	-0.119473	0.000323
H146	H	-0.084790	-0.077447	-0.110602
H147	H	-0.076580	-0.085656	0.111175
H148	H	-0.175361	-0.037223	-0.110628
H149	H	-0.167162	-0.045436	0.111168
C150	C	0.465556	-0.421430	-0.000022
C151	C	0.510659	-0.466262	0.000012
H152	H	0.430074	-0.436773	-0.000072
H153	H	0.472091	-0.402673	0.110868
H154	H	0.463910	-0.394443	-0.110909
H155	H	0.512308	-0.493247	0.110907
H156	H	0.504122	-0.485028	-0.110890
H157	H	0.526851	-0.352067	0.000041
H158	H	0.582050	-0.085917	0.000210
C159	C	0.358295	-0.029872	-0.163240
C160	C	0.398068	-0.032344	0.000204
H161	H	0.342947	-0.065352	-0.163212
H162	H	0.327896	0.000732	-0.163228
H163	H	0.377072	-0.023329	-0.274129
H164	H	0.379289	-0.038882	0.111094
H165	H	0.428472	-0.062957	0.000209
C166	C	0.004833	-0.034102	-0.163200
C167	C	-0.023706	-0.037396	0.000263
H168	H	0.029787	-0.069098	-0.163185
H169	H	-0.022736	-0.028112	-0.274064
H170	H	0.026811	-0.002868	-0.163188
H171	H	-0.045687	-0.068628	0.000244
H172	H	0.003867	-0.043393	0.111157
