data_functionalizedCrystal
_audit_creation_method	'MofGen! by Chris Wilmer'
_symmetry_space_group_name_H-M	'P1'
_symmetry_Int_Tables_number	1
_symmetry_cell_setting	triclinic
loop_
_symmetry_equiv_pos_as_xyz
  x,y,z
_cell_length_a	15.297621
_cell_length_b	13.897448
_cell_length_c	15.296720
_cell_angle_alpha	80.351680
_cell_angle_beta	88.384271
_cell_angle_gamma	80.321275
loop_
_atom_site_label
_atom_site_type_symbol
_atom_site_fract_x
_atom_site_fract_y
_atom_site_fract_z
Zn1	Zn	-1.253421	0.750768	-0.726672
Zn2	Zn	-1.278689	0.889665	-0.580195
Zn3	Zn	-1.132298	0.696574	-0.554907
Zn4	Zn	-1.106915	0.880178	-0.701318
O5	O	-1.192831	0.804296	-0.640773
O6	O	-1.379351	0.795844	-0.728436
O7	O	-1.280467	0.845342	-0.454266
O8	O	-1.148413	0.568796	-0.577719
O9	O	-1.397915	0.897891	-0.620820
O10	O	-1.237402	0.608611	-0.703914
O11	O	-1.172914	0.703479	-0.435686
O12	O	-1.006352	0.694279	-0.553134
O13	O	-1.105153	0.881721	-0.827256
O14	O	-0.987704	0.829171	-0.660702
O15	O	-1.212790	0.786644	-0.845884
O16	O	-1.255855	1.023374	-0.596235
O17	O	-1.129653	1.016404	-0.685224
C18	C	-0.965245	0.754816	-0.601423
C19	C	-0.867879	0.733674	-0.584610
C20	C	-0.554743	0.955360	-0.760902
C21	C	-0.646223	0.975230	-0.776696
C22	C	-0.701641	0.914843	-0.728677
C23	C	-0.665571	0.834582	-0.664859
C24	C	-0.574082	0.814714	-0.649058
C25	C	-0.720981	0.774197	-0.616833
C26	C	-0.684910	0.693936	-0.553015
C27	C	-0.593430	0.674072	-0.537218
C28	C	-0.538012	0.734459	-0.585238
C29	C	-0.812469	0.794065	-0.632634
C30	C	-0.831809	0.653419	-0.520790
C31	C	-0.740329	0.633549	-0.504995
C32	C	-1.192762	1.054893	-0.640746
C33	C	-1.192808	1.162121	-0.640777
C34	C	-1.153321	0.839169	-0.869241
C35	C	-1.136485	0.854030	-0.966600
C36	C	-0.421306	0.853962	-0.680269
C37	C	-0.518672	0.875105	-0.697082
C38	C	-1.192883	1.358444	-0.640855
C39	C	-1.192838	1.249196	-0.640814
C40	C	-1.192911	1.552729	-0.640833
C41	C	-1.192922	1.445526	-0.640881
C42	C	-1.313197	0.697923	-1.279835
C43	C	-1.329021	0.683963	-1.188362
C44	C	-1.280888	0.726478	-1.132917
C45	C	-1.216929	0.782956	-1.168954
C46	C	-1.201108	0.796923	-1.260437
C47	C	-1.168799	0.825479	-1.113519
C48	C	-1.104840	0.881957	-1.149556
C49	C	-1.089021	0.895921	-1.241030
C50	C	-1.137154	0.853406	-1.296475
C51	C	-1.184620	0.811511	-1.022036
C52	C	-1.072531	0.910512	-1.002638
C53	C	-1.056707	0.924472	-1.094112
C54	C	-1.232237	0.769501	-0.413203
C55	C	-1.249243	0.754405	-0.315873
H56	H	-0.841829	0.859413	-0.684595
H57	H	-1.124273	0.864769	-1.370961
C58	C	-1.399367	0.621841	-1.148726
H59	H	-1.425762	0.598513	-1.194845
H60	H	-1.443690	0.661587	-1.119632
H61	H	-1.372043	0.567078	-1.107256
C62	C	-1.366132	0.651161	-1.340822
H63	H	-1.347543	0.667564	-1.400462
H64	H	-1.427574	0.675780	-1.336006
H65	H	-1.355921	0.581277	-1.323630
C66	C	-0.802266	0.936690	-0.746059
H67	H	-0.815810	0.993132	-0.790950
H68	H	-0.832735	0.949126	-0.693083
H69	H	-0.820330	0.881289	-0.764891
H70	H	-0.675585	1.040580	-0.828655
C71	C	-0.493784	1.021775	-0.813714
H72	H	-0.434135	0.998443	-0.795165
H73	H	-0.510995	1.087844	-0.803382
H74	H	-0.498605	1.020001	-0.875185
C75	C	-1.254965	0.749387	-0.982400
H76	H	-1.257501	0.747161	-0.919980
H77	H	-1.239578	0.684087	-0.995193
H78	H	-1.311224	0.778598	-1.007567
H79	H	-1.033339	0.945134	-0.957495
H80	H	-0.710947	0.568200	-0.453034
H81	H	-0.876931	0.604248	-0.481687
H82	H	-1.036948	0.941918	-1.270370
C83	C	-0.986363	0.986603	-1.133760
H84	H	-0.983842	0.988835	-1.196182
H85	H	-0.930104	0.957406	-1.108598
H86	H	-1.001758	1.051910	-1.120974
H87	H	-0.463520	0.718283	-0.572383
H88	H	-0.564066	0.608726	-0.485244
H89	H	-1.293776	0.715109	-1.058436
