data_functionalizedCrystal
_audit_creation_method	'MofGen! by Chris Wilmer'
_symmetry_space_group_name_H-M	'P1'
_symmetry_Int_Tables_number	1
_symmetry_cell_setting	triclinic
loop_
_symmetry_equiv_pos_as_xyz
  x,y,z
_cell_length_a	10.685980
_cell_length_b	25.639240
_cell_length_c	10.686551
_cell_angle_alpha	94.417087
_cell_angle_beta	98.408259
_cell_angle_gamma	94.398495
loop_
_atom_site_label
_atom_site_type_symbol
_atom_site_fract_x
_atom_site_fract_y
_atom_site_fract_z
Zn1	Zn	1.995695	-0.117195	0.866634
Zn2	Zn	1.979197	-0.211917	0.654315
Zn3	Zn	1.767110	-0.131747	0.638090
Zn4	Zn	1.783320	-0.211866	0.850225
O5	O	1.881331	-0.168181	0.752316
O6	O	2.171145	-0.123691	0.852127
O7	O	1.937374	-0.207394	0.474527
O8	O	1.797553	-0.056645	0.668484
O9	O	2.159024	-0.193283	0.696137
O10	O	1.965493	-0.045954	0.836395
O11	O	1.781555	-0.148494	0.462607
O12	O	1.591622	-0.148444	0.652573
O13	O	1.825181	-0.193196	1.030037
O14	O	1.603532	-0.207307	0.808428
O15	O	1.981211	-0.123641	1.042093
O16	O	1.953093	-0.285082	0.680225
O17	O	1.809183	-0.285044	0.824160
C18	C	1.551517	-0.179450	0.726960
C19	C	1.410424	-0.184282	0.716142
C20	C	1.881144	-0.304033	0.752203
C21	C	1.881183	-0.362146	0.752206
C22	C	1.968829	-0.716889	0.839897
C23	C	1.968868	-0.771491	0.839925
O24	O	2.043166	-0.794960	0.914365
N25	N	1.881516	-0.804410	0.752452
C26	C	1.794111	-0.782724	0.664953
O27	O	1.719814	-0.815739	0.590554
C28	C	1.794066	-0.728123	0.664932
C29	C	1.881432	-0.695207	0.752402
C30	C	2.056186	-0.683973	0.927361
C31	C	2.056148	-0.629374	0.927330
C32	C	1.968752	-0.607692	0.839835
C33	C	1.881394	-0.640608	0.752371
C34	C	1.706656	-0.706439	0.577440
C35	C	1.706619	-0.651833	0.577426
C36	C	1.793985	-0.618917	0.664896
C37	C	1.793960	-0.564328	0.664846
N38	N	1.881312	-0.531409	0.752319
C39	C	1.968708	-0.553091	0.839814
C40	C	1.794209	-0.897390	0.665007
C41	C	1.794258	-0.951991	0.665022
C42	C	1.969014	-0.940753	0.839996
C43	C	1.968970	-0.886152	0.839974
C44	C	1.881561	-0.864471	0.752480
C45	C	1.968622	-0.438431	0.839742
C46	C	1.968579	-0.383828	0.839700
C47	C	1.793819	-0.395070	0.664732
C48	C	1.793866	-0.449668	0.664768
C49	C	1.881272	-0.471347	0.752284
O50	O	1.719696	-0.540822	0.590448
O51	O	2.042981	-0.520071	0.914211
C52	C	2.212432	-0.156869	0.777772
C53	C	2.353527	-0.152049	0.788620
C54	C	1.906845	-0.156790	1.083412
C55	C	1.917717	-0.151935	1.224506
C56	C	1.881555	-0.031796	0.752460
C57	C	1.881651	0.026323	0.752522
C58	C	1.855989	-0.179488	0.422514
C59	C	1.845362	-0.184187	0.281440
H60	H	1.412755	-0.120752	0.858945
H61	H	1.351189	-0.215577	0.645805
H62	H	2.039727	-0.357028	0.910929
H63	H	2.039788	-0.456074	0.911014
C64	C	1.627244	-0.218407	1.223845
C65	C	1.750507	-0.226481	1.201544
H66	H	1.568688	-0.244522	1.174522
H67	H	1.607074	-0.184653	1.200774
H68	H	1.622371	-0.220580	1.311365
H69	H	1.755383	-0.224304	1.114026
H70	H	1.770683	-0.260244	1.224607
C71	C	2.228878	-0.623768	1.100288
C72	C	2.152175	-0.593197	1.023491
H73	H	2.288156	-0.601435	1.159663
H74	H	2.273232	-0.645297	1.048763
H75	H	2.177262	-0.645300	1.144538
H76	H	2.203790	-0.571668	0.979234
H77	H	2.107817	-0.571659	1.075024
H78	H	1.987991	-0.120610	1.283710
C79	C	2.133881	-0.762677	1.005116
C80	C	2.152265	-0.707799	1.023544
H81	H	2.193202	-0.777382	1.064502
H82	H	2.145966	-0.773932	0.921290
H83	H	2.050011	-0.773933	1.017082
H84	H	2.236133	-0.696543	1.011569
H85	H	2.140191	-0.696539	1.107390
C86	C	2.141702	-0.880542	1.012933
C87	C	2.064991	-0.849973	0.936137
H88	H	2.200975	-0.858207	1.072309
H89	H	2.186063	-0.902067	0.961407
H90	H	2.090091	-0.902076	1.057181
H91	H	2.116601	-0.828441	0.891881
H92	H	2.020627	-0.828438	0.987669
C93	C	2.046646	-1.019469	0.917730
C94	C	2.065074	-0.964593	0.936185
H95	H	2.105941	-1.034187	0.977116
H96	H	2.058738	-1.030721	0.833904
H97	H	1.962763	-1.030715	0.929675
H98	H	2.148954	-0.953347	0.924230
H99	H	2.052992	-0.953336	1.020031
C100	C	1.574592	-0.978365	0.586498
C101	C	1.698229	-0.988169	0.568866
H102	H	1.515304	-1.000701	0.527141
H103	H	1.562081	-0.942746	0.573964
H104	H	1.562538	-0.985008	0.670347
H105	H	1.710286	-0.981522	0.485020
H106	H	1.710745	-1.023796	0.581390
C107	C	1.622029	-0.842512	0.634045
C108	C	1.698131	-0.873562	0.568812
H109	H	1.562711	-0.827807	0.574658
H110	H	1.674039	-0.815092	0.686118
H111	H	1.577710	-0.863584	0.685584
H112	H	1.742457	-0.852490	0.517280
H113	H	1.646115	-0.900986	0.516718
H114	H	1.635514	-0.733231	0.506211
H115	H	1.635436	-0.634184	0.506179
H116	H	1.722734	-0.476471	0.593534
H117	H	1.722666	-0.377408	0.593491
