data_functionalizedCrystal
_audit_creation_method	'MofGen! by Chris Wilmer'
_symmetry_space_group_name_H-M	'P1'
_symmetry_Int_Tables_number	1
_symmetry_cell_setting	triclinic
loop_
_symmetry_equiv_pos_as_xyz
  x,y,z
_cell_length_a	16.109301
_cell_length_b	9.616153
_cell_length_c	16.109295
_cell_angle_alpha	90.000855
_cell_angle_beta	96.539666
_cell_angle_gamma	90.004145
loop_
_atom_site_label
_atom_site_type_symbol
_atom_site_fract_x
_atom_site_fract_y
_atom_site_fract_z
O1	O	1.103133	0.115548	-0.106864
O2	O	0.861071	0.115569	-0.120163
O3	O	0.988754	0.115560	0.007518
O4	O	0.975450	0.115557	-0.234545
O5	O	0.988736	-0.115732	0.007515
O6	O	0.861053	-0.115723	-0.120166
O7	O	1.103115	-0.115743	-0.106867
Zn8	Zn	0.982082	-0.152456	-0.113517
Zn9	Zn	0.982105	0.152281	-0.113513
O10	O	0.975432	-0.115734	-0.234548
C11	C	0.830087	-0.000074	-0.119626
C12	C	0.737792	-0.000066	-0.118011
C13	C	0.515518	-0.000083	-0.190019
C14	C	0.428798	-0.000091	-0.188495
C15	C	0.448675	-0.000084	-0.037006
C16	C	0.535394	-0.000085	-0.038531
C17	C	0.568813	-0.000077	-0.115040
C18	C	0.395374	-0.000085	-0.111991
C19	C	0.301348	-0.000095	-0.110338
C20	C	0.662845	-0.000070	-0.116693
N21	N	0.982072	-0.360430	-0.113519
C22	C	0.913565	-0.580795	-0.181595
C23	C	0.913712	-0.419628	-0.181846
C24	C	1.068819	-0.418887	-0.132444
C25	C	1.068445	-0.580105	-0.132925
C26	C	0.964699	-0.580339	-0.026289
C27	C	0.962699	-0.419112	-0.026874
C28	C	1.134099	-0.000097	-0.107404
C29	C	1.226394	-0.000097	-0.109019
C30	C	0.988207	-0.000083	0.038491
C31	C	0.986594	-0.000072	0.130787
N32	N	0.982121	0.360255	-0.113505
C33	C	1.058606	-0.000027	0.353060
C34	C	1.057084	-0.000004	0.439780
C35	C	0.905595	0.000002	0.419906
C36	C	0.907118	-0.000011	0.333187
C37	C	0.983626	-0.000033	0.299766
C38	C	0.980580	0.000003	0.473206
C39	C	0.978929	0.000028	0.567232
C40	C	0.985277	-0.000055	0.205734
C41	C	0.975984	-0.000056	0.734479
C42	C	0.977612	0.000042	0.642186
H43	H	0.848881	-0.619600	-0.170506
H44	H	1.120904	-0.000042	0.325852
N45	N	0.549669	-0.000106	-0.268160
N46	N	0.627097	-0.000111	-0.269515
H47	H	0.651216	-0.000133	-0.324704
N48	N	0.414536	-0.000107	0.041142
N49	N	0.368359	-0.097601	0.058895
H50	H	0.344250	-0.097617	0.114089
N51	N	1.087704	-0.627302	-0.212710
N52	N	1.150534	-0.701766	-0.217726
H53	H	1.164133	-0.735098	-0.274077
H54	H	0.902824	-0.621070	-0.008083
H55	H	0.578789	-0.000085	0.022530
N56	N	1.134353	-0.370784	-0.071903
N57	N	1.208164	-0.406840	-0.076911
H58	H	1.254448	-0.372867	-0.034154
N59	N	1.027407	-0.628142	0.037289
N60	N	1.072570	-0.542516	0.079788
H61	H	1.116859	-0.576282	0.124685
H62	H	0.849231	-0.380107	-0.170573
N63	N	1.133666	0.000006	0.494231
N64	N	1.149723	0.097509	0.544834
H65	H	1.203812	0.097519	0.583292
H66	H	1.084536	-0.378499	-0.195326
N67	N	0.827455	0.000026	0.454060
N68	N	0.826103	0.000038	0.531488
H69	H	0.770916	0.000053	0.555610
H70	H	0.846056	-0.000012	0.289793
N71	N	0.374371	-0.000107	-0.265092
N72	N	0.404224	-0.000109	-0.333394
H73	H	0.365785	-0.000123	-0.387495
H74	H	0.924829	-0.381050	-0.246569
H75	H	0.924534	-0.621296	-0.245952
H76	H	1.121050	-0.619097	-0.085286
N77	N	0.882645	-0.371183	-0.008864
N78	N	0.839975	-0.294089	-0.059609
H79	H	0.783436	-0.260231	-0.046892
H80	H	1.009385	-0.378820	0.026166
