data_functionalizedCrystal
_audit_creation_method	'MofGen! by Chris Wilmer'
_symmetry_space_group_name_H-M	'P1'
_symmetry_Int_Tables_number	1
_symmetry_cell_setting	triclinic
loop_
_symmetry_equiv_pos_as_xyz
  x,y,z
_cell_length_a	14.044220
_cell_length_b	16.109301
_cell_length_c	15.186229
_cell_angle_alpha	90.005167
_cell_angle_beta	90.001537
_cell_angle_gamma	91.674821
loop_
_atom_site_label
_atom_site_type_symbol
_atom_site_fract_x
_atom_site_fract_y
_atom_site_fract_z
O1	O	1.257643	-0.200436	-0.073140
O2	O	0.981676	-0.193203	-0.073163
O3	O	1.127241	-0.076352	-0.073142
O4	O	1.112079	-0.317286	-0.073161
O5	O	1.127231	-0.076350	0.073315
O6	O	0.981667	-0.193200	0.073295
O7	O	1.257634	-0.200433	0.073317
Zn8	Zn	1.119649	-0.196816	0.096559
Zn9	Zn	1.119661	-0.196820	-0.096405
O10	O	1.112069	-0.317284	0.073296
C11	C	0.946358	-0.190036	0.000063
C12	C	0.841135	-0.180592	0.000055
N13	N	1.119647	-0.196814	0.228252
C14	C	1.126622	-0.045330	0.000087
C15	C	1.124781	0.047102	0.000088
C16	C	0.648479	-0.163326	0.000074
C17	C	0.590825	-0.230306	0.000072
C18	C	0.483625	-0.220699	0.000083
C19	C	0.755690	-0.172932	0.000064
C20	C	1.292952	-0.203600	0.000089
C21	C	1.398175	-0.213044	0.000091
C22	C	1.112688	-0.348306	0.000065
C23	C	1.114529	-0.440738	0.000058
C24	C	1.206874	0.263266	0.000081
C25	C	1.205137	0.350116	0.000073
C26	C	1.032429	0.343091	0.000063
C27	C	1.034168	0.256243	0.000064
C28	C	1.121393	0.216333	0.000078
C29	C	1.117917	0.390031	0.000069
C30	C	1.116032	0.484197	0.000061
C31	C	1.123278	0.122161	0.000084
N32	N	1.119671	-0.196816	-0.228097
C33	C	1.184125	-0.145093	0.453984
C34	C	1.184128	-0.145092	0.546173
C35	C	1.055186	-0.248539	0.546164
C36	C	1.055179	-0.248536	0.453976
C37	C	1.119654	-0.196814	0.407888
C38	C	1.119664	-0.196816	0.592266
C39	C	1.119666	-0.196814	0.692222
C40	C	1.119650	-0.196814	0.307926
H41	H	0.617330	-0.098774	0.000084
H42	H	1.277898	0.230774	0.000090
H43	H	1.274744	0.388326	0.000074
H44	H	0.961413	0.375597	0.000054
O45	O	1.246597	-0.094769	0.409136
C46	C	1.266731	0.017370	0.305175
C47	C	1.195890	-0.039607	0.355877
H48	H	1.225761	0.061994	0.262117
H49	H	1.314086	-0.021963	0.261928
H50	H	1.312799	0.054297	0.354000
H51	H	1.149759	-0.076546	0.307116
H52	H	1.148600	-0.000229	0.399137
O53	O	0.951038	0.210772	0.000101
C54	C	0.779552	0.212961	0.000035
C55	C	0.873618	0.264558	0.000019
H56	H	0.716934	0.256426	-0.000050
H57	H	0.775982	0.172150	0.061340
H58	H	0.776108	0.172101	-0.061244
H59	H	0.877126	0.305466	0.061257
H60	H	0.877150	0.305316	-0.061327
O61	O	1.246848	-0.094827	0.590814
C62	C	1.374704	0.007812	0.581088
C63	C	1.303738	-0.049089	0.530424
H64	H	1.420704	0.044820	0.532285
H65	H	1.422108	-0.031579	0.624219
H66	H	1.333782	0.052366	0.624276
H67	H	1.344582	-0.093652	0.487188
H68	H	1.256335	-0.009645	0.487348
H69	H	1.002675	-0.290653	0.416443
O70	O	0.628137	-0.307264	-0.000000
C71	C	0.770561	-0.387128	-0.000018
C72	C	0.728426	-0.299929	0.000058
H73	H	0.851649	-0.381227	0.000048
H74	H	0.745653	-0.422348	-0.061337
H75	H	0.745561	-0.422368	0.061247
H76	H	0.753407	-0.264620	-0.061166
H77	H	0.753329	-0.264772	0.061417
O78	O	0.992656	-0.298760	0.591072
C79	C	0.935487	-0.344581	0.733088
C80	C	1.006366	-0.287675	0.682343
H81	H	0.946533	-0.335626	0.806889
H82	H	0.947816	-0.412110	0.715016
H83	H	0.859583	-0.328090	0.714916
H84	H	1.082297	-0.304091	0.700487
H85	H	0.993954	-0.220161	0.700419
