data_functionalizedCrystal
_audit_creation_method	'MofGen! by Chris Wilmer'
_symmetry_space_group_name_H-M	'P1'
_symmetry_Int_Tables_number	1
_symmetry_cell_setting	triclinic
loop_
_symmetry_equiv_pos_as_xyz
  x,y,z
_cell_length_a	15.297476
_cell_length_b	13.032721
_cell_length_c	13.037736
_cell_angle_alpha	76.682730
_cell_angle_beta	88.600332
_cell_angle_gamma	91.316822
loop_
_atom_site_label
_atom_site_type_symbol
_atom_site_fract_x
_atom_site_fract_y
_atom_site_fract_z
Zn1	Zn	1.193742	0.773745	-0.927462
Zn2	Zn	1.193475	0.928725	-0.772430
Zn3	Zn	1.070771	0.722916	-0.721790
Zn4	Zn	1.029177	0.913470	-0.912223
O5	O	1.121791	0.834714	-0.833476
O6	O	1.313930	0.821960	-0.934468
O7	O	1.194493	0.886536	-0.621134
O8	O	1.104603	0.585051	-0.734258
O9	O	1.313733	0.935823	-0.820566
O10	O	1.194949	0.622395	-0.885365
O11	O	1.104343	0.735328	-0.583929
O12	O	0.945030	0.720537	-0.719481
O13	O	1.033711	0.909824	-1.058822
O14	O	0.914471	0.860536	-0.859391
O15	O	1.154617	0.807168	-1.070019
O16	O	1.154161	1.071309	-0.805789
O17	O	1.033452	1.060101	-0.908494
C18	C	0.898578	0.783366	-0.782287
C19	C	0.803081	0.761427	-0.760416
C20	C	0.774106	0.678126	-0.677386
C21	C	0.684382	0.657510	-0.656833
C22	C	0.623624	0.720188	-0.719315
C23	C	0.652599	0.803486	-0.802351
C24	C	0.742331	0.824109	-0.822900
C25	C	0.591849	0.866171	-0.864829
C26	C	0.620824	0.949469	-0.947866
C27	C	0.710548	0.970088	-0.968412
C28	C	0.771306	0.907410	-0.905930
C29	C	0.502117	0.845548	-0.844280
C30	C	0.470342	0.991531	-0.989795
C31	C	0.560066	1.012147	-1.010347
C32	C	1.089284	1.103208	-0.861010
C33	C	1.075452	1.218092	-0.872842
C34	C	1.089554	0.862464	-1.102957
C35	C	1.075817	0.874290	-1.217793
C36	C	1.345876	0.886263	-0.884866
C37	C	1.441367	0.908230	-0.906765
C38	C	1.154446	0.565180	-0.805863
C39	C	1.168361	0.450320	-0.794095
C40	C	1.129050	1.274838	-0.827358
C41	C	1.114756	1.393577	-0.839586
C42	C	1.153961	0.807009	-0.565048
C43	C	1.167900	0.794930	-0.450221
C44	C	1.129062	0.828371	-0.274668
C45	C	1.114648	0.840856	-0.393347
H46	H	0.823582	0.627108	-0.626517
H47	H	1.058284	1.432898	-0.887587
C48	C	0.470255	0.753916	-0.752948
N49	N	0.446259	0.684890	-0.684153
H50	H	0.844368	0.924190	-0.922661
C51	C	0.652516	0.565877	-0.565504
N52	N	0.628516	0.496850	-0.496714
H53	H	0.550568	0.703397	-0.702576
C54	C	0.999813	0.939884	-0.270701
N55	N	0.942565	0.989291	-0.310550
H56	H	1.185315	0.779811	-0.235499
C57	C	0.591951	1.103780	-1.101679
N58	N	0.615967	1.172799	-1.170468
H59	H	0.734136	1.037923	-1.036018
C60	C	1.038640	0.906453	-0.446251
N61	N	0.981392	0.955860	-0.486100
H62	H	1.224156	0.746364	-0.411056
C63	C	0.403511	1.060480	-1.058531
N64	N	0.353170	1.112409	-1.110297
C65	C	1.205341	1.221717	-0.762519
N66	N	1.262803	1.181708	-0.713679
H67	H	1.224838	1.411002	-0.746104
C68	C	0.999160	1.271212	-0.937678
N69	N	0.941694	1.311220	-0.986513
