data_functionalizedCrystal
_audit_creation_method	'MofGen! by Chris Wilmer'
_symmetry_space_group_name_H-M	'P1'
_symmetry_Int_Tables_number	1
_symmetry_cell_setting	triclinic
loop_
_symmetry_equiv_pos_as_xyz
  x,y,z
_cell_length_a	15.297327
_cell_length_b	13.897449
_cell_length_c	15.298259
_cell_angle_alpha	80.342199
_cell_angle_beta	88.343348
_cell_angle_gamma	80.293069
loop_
_atom_site_label
_atom_site_type_symbol
_atom_site_fract_x
_atom_site_fract_y
_atom_site_fract_z
Zn1	Zn	-0.262970	-1.323191	-0.555612
Zn2	Zn	0.237030	-0.823191	-0.055612
Zn3	Zn	-0.434819	-1.313676	-0.434472
Zn4	Zn	0.065181	-0.813676	0.065528
Zn5	Zn	-0.288359	-1.184279	-0.409154
Zn6	Zn	0.211641	-0.684279	0.090846
Zn7	Zn	-0.409413	-1.130064	-0.580889
Zn8	Zn	0.090587	-0.630064	-0.080889
O9	O	-0.348890	-1.237802	-0.495032
O10	O	0.151110	-0.737802	0.004968
O11	O	-0.285773	-1.456905	-0.539560
O12	O	0.214227	-0.956905	-0.039560
O13	O	-0.436648	-1.315218	-0.308545
O14	O	0.063352	-0.815218	0.191455
O15	O	-0.162410	-1.229377	-0.407407
O16	O	0.337590	-0.729377	0.092593
O17	O	-0.412030	-1.449915	-0.450559
O18	O	0.087970	-0.949915	0.049441
O19	O	-0.143757	-1.331435	-0.515010
O20	O	0.356243	-0.831435	-0.015010
O21	O	-0.329044	-1.220151	-0.289943
O22	O	0.170956	-0.720151	0.210057
O23	O	-0.304410	-1.042110	-0.431918
O24	O	0.195590	-0.542110	0.068082
O25	O	-0.368730	-1.136975	-0.700105
O26	O	0.131270	-0.636975	-0.200105
O27	O	-0.393348	-1.002279	-0.558091
O28	O	0.106652	-0.502279	-0.058091
O29	O	-0.261139	-1.278865	-0.681534
O30	O	0.238861	-0.778865	-0.181534
O31	O	-0.554029	-1.262648	-0.475069
O32	O	-0.054029	-0.762648	0.024931
O33	O	-0.535364	-1.127749	-0.582641
O34	O	-0.035364	-0.627749	-0.082641
C35	C	-0.576477	-1.188306	-0.534364
C36	C	-0.076477	-0.688306	-0.034364
C37	C	-0.673835	-1.167216	-0.551220
C38	C	-0.173835	-0.667216	-0.051220
C39	C	-0.348878	-0.987196	-0.495000
C40	C	0.151122	-0.487196	0.005000
C41	C	-0.348890	-0.879978	-0.495011
C42	C	0.151110	-0.379978	0.004989
C43	C	-0.986991	-1.388893	-0.374858
C44	C	-0.486991	-0.888893	0.125142
C45	C	-0.895519	-1.408709	-0.359017
C46	C	-0.395519	-0.908709	0.140983
C47	C	-0.840094	-1.348338	-0.407067
C48	C	-0.340094	-0.848338	0.092933
C49	C	-0.876149	-1.268146	-0.470960
C50	C	-0.376149	-0.768146	0.029040
C51	C	-0.967630	-1.248324	-0.486798
C52	C	-0.467630	-0.748324	0.013202
C53	C	-0.820733	-1.207768	-0.519006
C54	C	-0.320733	-0.707768	-0.019006
C55	C	-0.856788	-1.127577	-0.582900
C56	C	-0.356788	-0.627577	-0.082900
C57	C	-0.948261	-1.107759	-0.598736
C58	C	-0.448261	-0.607759	-0.098736
C59	C	-1.003686	-1.168130	-0.550686
C60	C	-0.503686	-0.668130	-0.050686
C61	C	-0.729252	-1.227591	-0.503168
C62	C	-0.229252	-0.727591	-0.003168
C63	C	-0.709891	-1.087022	-0.615108
C64	C	-0.209891	-0.587022	-0.115108
C65	C	-0.801363	-1.067206	-0.630950
C66	C	-0.301363	-0.567206	-0.130950
C67	C	-0.348886	-0.683681	-0.495027
C68	C	0.151114	-0.183681	0.004973
C69	C	-0.348886	-0.792915	-0.495016
C70	C	0.151114	-0.292915	0.004984
C71	C	-0.120411	-1.287515	-0.455565
C72	C	0.379589	-0.787515	0.044435
C73	C	-0.023047	-1.308699	-0.438746
C74	C	0.476953	-0.808699	0.061254
C75	C	-0.309268	-1.202934	-0.723489
C76	C	0.190732	-0.702934	-0.223489
C77	C	-0.292384	-1.188075	-0.820844
C78	C	0.207616	-0.688075	-0.320844
C79	C	-0.348899	-0.489389	-0.495055
C80	C	0.151101	0.010611	0.004945
C81	C	-0.348892	-0.596607	-0.495040
C82	C	0.151108	-0.096607	0.004960
C83	C	-0.468891	-1.344179	-1.134004
C84	C	0.031109	-0.844179	-0.634004
C85	C	-0.484761	-1.358133	-1.042535
C86	C	0.015239	-0.858133	-0.542535
C87	C	-0.436668	-1.315620	-0.987108
C88	C	0.063332	-0.815620	-0.487108
C89	C	-0.372703	-1.259150	-1.023158
C90	C	0.127297	-0.759150	-0.523158
C91	C	-0.356837	-1.245187	-1.114637
C92	C	0.143163	-0.745187	-0.614637
C93	C	-0.324613	-1.216629	-0.967741
C94	C	0.175387	-0.716629	-0.467741
C95	C	-0.260648	-1.160158	-1.003791
C96	C	0.239352	-0.660158	-0.503791
C97	C	-0.244785	-1.146199	-1.095261
C98	C	0.255215	-0.646199	-0.595261
C99	C	-0.292878	-1.188712	-1.150688
C100	C	0.207122	-0.688712	-0.650688
C101	C	-0.340479	-1.230591	-0.876262
C102	C	0.159521	-0.730591	-0.376262
C103	C	-0.228425	-1.131600	-0.856895
C104	C	0.271575	-0.631600	-0.356895
C105	C	-0.212555	-1.117646	-0.948364
C106	C	0.287445	-0.617646	-0.448364
C107	C	-0.388295	-1.272604	-0.267452
C108	C	0.111705	-0.772604	0.232548
C109	C	-0.404932	-1.287703	-0.170055
C110	C	0.095068	-0.787703	0.329945
H111	H	-0.699904	-1.292883	-0.451145
H112	H	-0.199904	-0.792883	0.048855
Br113	Br	-0.634680	-1.005076	-0.680314
Br114	Br	-0.134680	-0.505076	-0.180314
H115	H	-0.536849	-1.404100	-1.013191
H116	H	-0.036849	-0.904100	-0.513191
H117	H	-0.830732	-1.001913	-0.682972
H118	H	-0.330732	-0.501913	-0.182972
Br119	Br	-0.846591	-1.517542	-0.272316
Br120	Br	-0.346591	-1.017542	0.227684
H121	H	-0.508048	-1.378778	-1.179141
H122	H	-0.008048	-0.878778	-0.679141
Br123	Br	-0.271338	-1.169782	-1.274830
Br124	Br	0.228662	-0.669782	-0.774830
H125	H	-1.032126	-1.438034	-0.335738
H126	H	-0.532126	-0.938034	0.164262
H127	H	-0.392555	-1.276577	-0.846918
H128	H	0.107445	-0.776577	-0.346918
H129	H	-0.192709	-1.100207	-1.124611
H130	H	0.307291	-0.600207	-0.624611
Br131	Br	-0.715906	-1.375483	-0.385832
Br132	Br	-0.215906	-0.875483	0.114168
Br133	Br	-1.127899	-1.140867	-0.571790
Br134	Br	-0.627899	-0.640867	-0.071790
H135	H	-0.977615	-1.042452	-0.650752
H136	H	-0.477615	-0.542452	-0.150752
Br137	Br	-0.125748	-1.041011	-0.997300
Br138	Br	0.374252	-0.541011	-0.497300
Br139	Br	-0.458203	-1.334562	-0.862969
Br140	Br	0.041797	-0.834562	-0.362969
Br141	Br	-0.163166	-1.073880	-0.781683
Br142	Br	0.336834	-0.573880	-0.281683
