data_functionalizedCrystal
_audit_creation_method	'MofGen! by Chris Wilmer'
_symmetry_space_group_name_H-M	'P1'
_symmetry_Int_Tables_number	1
_symmetry_cell_setting	triclinic
loop_
_symmetry_equiv_pos_as_xyz
  x,y,z
_cell_length_a	14.519709
_cell_length_b	9.065218
_cell_length_c	7.540329
_cell_angle_alpha	90.001757
_cell_angle_beta	90.002655
_cell_angle_gamma	95.651985
loop_
_atom_site_label
_atom_site_type_symbol
_atom_site_fract_x
_atom_site_fract_y
_atom_site_fract_z
O1	O	1.225282	-0.193392	-0.147244
O2	O	0.956971	-0.216167	-0.147297
O3	O	1.096672	0.009967	-0.147266
O4	O	1.085581	-0.419526	-0.147275
O5	O	1.096664	0.009970	0.147699
O6	O	0.956963	-0.216164	0.147668
O7	O	1.225273	-0.193389	0.147721
Cu8	Cu	1.091117	-0.204776	0.174627
Cu9	Cu	1.091127	-0.204780	-0.174203
O10	O	1.085572	-0.419523	0.147690
C11	C	0.922600	-0.215104	0.000178
C12	C	0.820195	-0.211923	0.000158
N13	N	1.091117	-0.204773	0.419976
C14	C	1.095602	0.064935	0.000214
C15	C	1.092415	0.228718	0.000204
C16	C	0.445214	-0.200214	0.000239
C17	C	0.549545	-0.203466	0.000216
C18	C	0.632701	-0.206068	0.000197
C19	C	0.737039	-0.209321	0.000177
C20	C	1.259645	-0.194452	0.000242
C21	C	1.362049	-0.197633	0.000251
C22	C	1.086642	-0.474491	0.000206
C23	C	1.089830	-0.638274	0.000204
N24	N	1.091135	-0.204771	-0.419552
