data_functionalizedCrystal
_audit_creation_method	'MofGen! by Chris Wilmer'
_symmetry_space_group_name_H-M	'P1'
_symmetry_Int_Tables_number	1
_symmetry_cell_setting	triclinic
loop_
_symmetry_equiv_pos_as_xyz
  x,y,z
_cell_length_a	11.169417
_cell_length_b	29.839133
_cell_length_c	11.169409
_cell_angle_alpha	90.030123
_cell_angle_beta	90.019824
_cell_angle_gamma	90.034392
loop_
_atom_site_label
_atom_site_type_symbol
_atom_site_fract_x
_atom_site_fract_y
_atom_site_fract_z
Zn1	Zn	-1.834769	0.178806	-0.678561
Zn2	Zn	-1.334769	0.678806	-0.178561
Zn3	Zn	-1.834577	0.253948	-0.477886
Zn4	Zn	-1.334577	0.753948	0.022114
Zn5	Zn	-1.634055	0.178834	-0.477896
Zn6	Zn	-1.134055	0.678834	0.022104
Zn7	Zn	-1.633981	0.253911	-0.678531
Zn8	Zn	-1.133981	0.753911	-0.178531
O9	O	-1.734346	0.216375	-0.578218
O10	O	-1.234346	0.716375	-0.078218
O11	O	-2.002693	0.188778	-0.651950
O12	O	-1.502693	0.688778	-0.151950
O13	O	-1.807928	0.244011	-0.309937
O14	O	-1.307928	0.744011	0.190063
O15	O	-1.660791	0.115963	-0.504531
O16	O	-1.160791	0.615963	-0.004531
O17	O	-2.002552	0.243984	-0.504515
O18	O	-1.502552	0.743984	-0.004515
O19	O	-1.808255	0.115943	-0.651959
O20	O	-1.308255	0.615943	-0.151959
O21	O	-1.660605	0.188825	-0.309944
O22	O	-1.160605	0.688825	0.190056
O23	O	-1.466096	0.188789	-0.504502
O24	O	-0.966096	0.688789	-0.004502
O25	O	-1.660666	0.243922	-0.846485
O26	O	-1.160666	0.743922	-0.346485
O27	O	-1.466041	0.243948	-0.651907
O28	O	-0.966041	0.743948	-0.151907
O29	O	-1.808184	0.188742	-0.846507
O30	O	-1.308184	0.688742	-0.346507
O31	O	-1.807857	0.316810	-0.504485
O32	O	-1.307857	0.816810	-0.004485
O33	O	-1.660480	0.316783	-0.651898
O34	O	-1.160480	0.816783	-0.151898
C35	C	-1.422521	0.216368	-0.578203
C36	C	-0.922521	0.716368	-0.078203
C37	C	-1.289121	0.216376	-0.578225
C38	C	-0.789121	0.716376	-0.078225
C39	C	-1.734172	0.333097	-0.578213
C40	C	-1.234172	0.833097	-0.078213
C41	C	-1.734208	0.383032	-0.578251
C42	C	-1.234208	0.883032	-0.078251
C43	C	-1.734438	0.216325	-0.891261
C44	C	-1.234438	0.716325	-0.391261
C45	C	-1.734477	0.216304	-1.024661
C46	C	-1.234477	0.716304	-0.524661
C47	C	-2.047388	0.216382	-0.578234
C48	C	-1.547388	0.716382	-0.078234
C49	C	-2.180788	0.216385	-0.578241
C50	C	-1.680788	0.716385	-0.078241
C51	C	-1.811079	0.739574	-0.655065
C52	C	-1.311079	1.239574	-0.155065
C53	C	-1.810999	0.551900	-0.655066
C54	C	-1.310999	1.051900	-0.155066
O55	O	-1.876262	0.527597	-0.720363
O56	O	-1.376262	1.027597	-0.220363
N57	N	-1.734276	0.528477	-0.578246
N58	N	-1.234276	1.028477	-0.078246
C59	C	-1.657572	0.551975	-0.501415
C60	C	-1.157572	1.051975	-0.001415
O61	O	-1.592321	0.527745	-0.436067
O62	O	-1.092321	1.027745	0.063933
C63	C	-1.657658	0.739647	-0.501409
C64	C	-1.157658	1.239647	-0.001409
C65	C	-1.734378	0.763068	-0.578242
C66	C	-1.234378	1.263068	-0.078242
C67	C	-1.887793	0.762995	-0.731891
C68	C	-1.387793	1.262995	-0.231891
C69	C	-1.887808	0.809910	-0.731895
C70	C	-1.387808	1.309910	-0.231895
C71	C	-1.811108	0.833404	-0.655072
C72	C	-1.311108	1.333404	-0.155072
C73	C	-1.734393	0.809983	-0.578246
C74	C	-1.234393	1.309983	-0.078246
C75	C	-1.580962	0.763144	-0.424573
C76	C	-1.080962	1.263144	0.075427
C77	C	-1.580992	0.810065	-0.424576
C78	C	-1.080992	1.310065	0.075424
C79	C	-1.657712	0.833486	-0.501409
C80	C	-1.157712	1.333486	-0.001409
C81	C	-1.657707	0.880393	-0.501427
C82	C	-1.157707	1.380393	-0.001427
N83	N	-1.734431	0.903817	-0.578246
N84	N	-1.234431	1.403817	-0.078246
C85	C	-1.811131	0.880322	-0.655069
C86	C	-1.311131	1.380322	-0.155069
C87	C	-1.657531	0.453444	-0.501426
C88	C	-1.157531	0.953444	-0.001426
C89	C	-1.657507	0.406526	-0.501429
C90	C	-1.157507	0.906526	-0.001429
C91	C	-1.810936	0.406455	-0.655078
C92	C	-1.310936	0.906455	-0.155078
C93	C	-1.810953	0.453374	-0.655080
C94	C	-1.310953	0.953374	-0.155080
C95	C	-1.734254	0.476867	-0.578245
C96	C	-1.234254	0.976867	-0.078245
C97	C	-1.811155	0.978848	-0.655071
C98	C	-1.311155	1.478848	-0.155071
C99	C	-1.811159	1.025768	-0.655072
C100	C	-1.311159	1.525768	-0.155072
C101	C	-1.657735	1.025834	-0.501418
C102	C	-1.157735	1.525834	-0.001418
C103	C	-1.657726	0.978919	-0.501422
C104	C	-1.157726	1.478919	-0.001422
C105	C	-1.734445	0.955427	-0.578252
C106	C	-1.234445	1.455427	-0.078252
O107	O	-1.592488	0.904725	-0.436155
O108	O	-1.092488	1.404725	0.063845
O109	O	-1.876391	0.904560	-0.720389
O110	O	-1.376391	1.404560	-0.220389
C111	C	-1.811064	0.692658	-0.655061
C112	C	-1.311064	1.192658	-0.155061
C113	C	-1.734350	0.669237	-0.578235
C114	C	-1.234350	1.169237	-0.078235
C115	C	-1.657649	0.692731	-0.501413
C116	C	-1.157649	1.192731	-0.001413
C117	C	-1.734326	0.622319	-0.578238
C118	C	-1.234326	1.122319	-0.078238
C119	C	-1.811027	0.598825	-0.655061
C120	C	-1.311027	1.098825	-0.155061
C121	C	-1.887750	0.622248	-0.731880
C122	C	-1.387750	1.122248	-0.231880
C123	C	-1.887765	0.669164	-0.731884
C124	C	-1.387765	1.169164	-0.231884
C125	C	-1.580926	0.669308	-0.424593
C126	C	-1.080926	1.169308	0.075407
C127	C	-1.580917	0.622392	-0.424596
C128	C	-1.080917	1.122392	0.075404
C129	C	-1.657617	0.598898	-0.501419
C130	C	-1.157617	1.098898	-0.001419
C131	C	-1.734507	1.099196	-0.578246
C132	C	-1.234507	1.599196	-0.078246
C133	C	-1.734459	1.049262	-0.578249
C134	C	-1.234459	1.549262	-0.078249
C135	C	-1.734323	0.216392	-0.266394
C136	C	-1.234323	0.716392	0.233606
C137	C	-1.734516	0.216287	-0.132994
C138	C	-1.234516	0.716287	0.367006
H139	H	-1.873632	1.044835	-0.717646
H140	H	-1.373632	1.544835	-0.217646
H141	H	-1.518490	0.744081	-0.362008
H142	H	-1.018490	1.244081	0.137992
N143	N	-1.893704	0.478638	-0.737935
N144	N	-1.393704	0.978638	-0.237935
H145	H	-1.844907	0.498109	-0.793506
H146	H	-1.344907	0.998109	-0.293506
H147	H	-1.942272	0.456606	-0.786525
H148	H	-1.442272	0.956606	-0.286525
N149	N	-1.498166	0.597132	-0.341721
N150	N	-0.998166	1.097132	0.158279
H151	H	-1.412404	0.605316	-0.360274
H152	H	-0.912404	1.105316	0.139726
H153	H	-1.516973	0.605323	-0.256025
H154	H	-1.016973	1.105323	0.243975
H155	H	-1.950290	0.828975	-0.794451
H156	H	-1.450290	1.328975	-0.294451
H157	H	-1.950258	0.743870	-0.794449
H158	H	-1.450258	1.243870	-0.294449
H159	H	-1.873387	0.387318	-0.717632
H160	H	-1.373387	0.887318	-0.217632
H161	H	-1.518535	0.829191	-0.362005
H162	H	-1.018535	1.329191	0.137995
N163	N	-1.970526	0.694412	-0.814762
N164	N	-1.470526	1.194412	-0.314762
H165	H	-2.026194	0.713873	-0.766056
H166	H	-1.526194	1.213873	-0.266056
H167	H	-1.921655	0.713854	-0.870335
H168	H	-1.421655	1.213854	-0.370335
N169	N	-1.574746	0.381267	-0.418572
N170	N	-1.074746	0.881267	0.081428
H171	H	-1.526168	0.403275	-0.369907
H172	H	-1.026168	0.903275	0.130093
H173	H	-1.623622	0.361798	-0.363073
H174	H	-1.123622	0.861798	0.136927
N175	N	-1.893900	0.953514	-0.737936
N176	N	-1.393900	1.453514	-0.237936
H177	H	-1.942493	0.975476	-0.786601
H178	H	-1.442493	1.475476	-0.286601
H179	H	-1.845010	0.934051	-0.793436
H180	H	-1.345010	1.434051	-0.293436
N181	N	-1.574802	0.478780	-0.418548
N182	N	-1.074802	0.978780	0.081452
H183	H	-1.526199	0.456818	-0.369892
H184	H	-1.026199	0.956818	0.130108
H185	H	-1.519237	0.498254	-0.467345
H186	H	-1.019237	0.998254	0.032655
N187	N	-1.574964	0.953654	-0.418572
N188	N	-1.074964	1.453654	0.081428
H189	H	-1.526373	0.975659	-0.369911
H190	H	-1.026373	1.475659	0.130089
H191	H	-1.623841	0.934188	-0.363068
H192	H	-1.123841	1.434188	0.136932
N193	N	-1.575018	1.051179	-0.418555
N194	N	-1.075018	1.551179	0.081445
H195	H	-1.586684	1.084455	-0.430215
H196	H	-1.086684	1.584455	0.069785
H197	H	-1.593761	1.042989	-0.332860
H198	H	-1.093761	1.542989	0.167140
H199	H	-1.950198	0.603112	-0.794437
H200	H	-1.450198	1.103112	-0.294437
H201	H	-1.518468	0.688432	-0.362031
H202	H	-1.018468	1.188432	0.137969
