data_functionalizedCrystal
_audit_creation_method	'MofGen! by Chris Wilmer'
_symmetry_space_group_name_H-M	'P1'
_symmetry_Int_Tables_number	1
_symmetry_cell_setting	triclinic
loop_
_symmetry_equiv_pos_as_xyz
  x,y,z
_cell_length_a	35.277628
_cell_length_b	35.288095
_cell_length_c	35.277682
_cell_angle_alpha	59.997929
_cell_angle_beta	89.998958
_cell_angle_gamma	60.000166
loop_
_atom_site_label
_atom_site_type_symbol
_atom_site_fract_x
_atom_site_fract_y
_atom_site_fract_z
O1	O	-0.323087	-0.271234	0.011271
O2	O	-0.267964	-0.193634	-0.011228
O3	O	-0.267962	-0.271233	0.066395
O4	O	-0.323089	-0.193635	-0.066351
O5	O	-0.204915	-0.334261	0.066394
O6	O	-0.204918	-0.256661	-0.011228
O7	O	-0.260040	-0.334261	0.011271
Zn8	Zn	-0.222469	-0.305468	0.000022
Zn9	Zn	-0.305535	-0.222427	0.000022
O10	O	-0.260043	-0.256662	-0.066351
C11	C	-0.163481	-0.071298	-0.023519
C12	C	-0.186872	-0.024531	-0.020298
C13	C	-0.117860	-0.093995	-0.023838
C14	C	-0.163483	-0.139918	-0.023524
C15	C	-0.186875	-0.166518	-0.020308
C16	C	-0.117862	-0.162510	-0.023843
C17	C	-0.094838	-0.139921	-0.023519
C18	C	-0.044836	-0.166525	-0.020298
C19	C	-0.186401	-0.093991	-0.023843
C20	C	-0.004439	-0.188019	-0.017694
C21	C	-0.205769	0.013252	-0.017695
C22	C	-0.205774	-0.188010	-0.017709
C23	C	0.046241	-0.214983	-0.014429
C24	C	-0.229477	0.060653	-0.014430
C25	C	-0.229483	-0.214971	-0.014450
C26	C	-0.500364	-0.466062	0.034181
C27	C	-0.477341	-0.511990	0.034503
C28	C	-0.431722	-0.466060	0.034178
C29	C	-0.408804	-0.511988	0.034500
C30	C	-0.431721	-0.534685	0.034181
C31	C	-0.477342	-0.443470	0.034500
C32	C	-0.665895	-0.342485	0.021756
C33	C	-0.712772	-0.317221	0.018243
C34	C	-0.736287	-0.338907	0.016481
C35	C	-0.787116	-0.311512	0.012664
C36	C	-0.712921	-0.385861	0.018236
C37	C	-0.666047	-0.411125	0.021755
C38	C	-0.642533	-0.389434	0.023515
C39	C	-0.389805	-0.687746	0.021758
C40	C	-0.368199	-0.731097	0.018245
C41	C	-0.322995	-0.752841	0.016478
C42	C	-0.299567	-0.799839	0.012662
C43	C	-0.299393	-0.731235	0.018230
C44	C	-0.320995	-0.687892	0.021751
C45	C	-0.366205	-0.666148	0.023512
C46	C	-0.389808	-0.342477	0.021744
C47	C	-0.368205	-0.317208	0.018222
C48	C	-0.322998	-0.338892	0.016457
C49	C	-0.299573	-0.311495	0.012637
C50	C	-0.299398	-0.385842	0.018210
C51	C	-0.321003	-0.411107	0.021730
C52	C	-0.366208	-0.389423	0.023501
C53	C	-0.591706	-0.416830	0.027326
C54	C	-0.551191	-0.438667	0.030366
C55	C	-0.408299	-0.438663	0.030360
C56	C	-0.389629	-0.416824	0.027317
C57	C	-0.408298	-0.581682	0.030365
C58	C	-0.389627	-0.619146	0.027325
C59	C	-0.432024	-0.061845	-0.438511
C60	C	-0.477645	-0.015917	-0.461431
C61	C	-0.432025	-0.061844	-0.369869
C62	C	-0.477645	-0.015916	-0.392892
C63	C	-0.500668	0.006779	-0.438513
C64	C	-0.409106	-0.084435	-0.392891
C65	C	-0.320834	-0.185425	-0.480424
C66	C	-0.299076	-0.210690	-0.502029
C67	C	-0.322531	-0.189005	-0.547237
C68	C	-0.298945	-0.216401	-0.570661
C69	C	-0.367745	-0.142051	-0.570839
C70	C	-0.389497	-0.116787	-0.549237
C71	C	-0.366040	-0.138476	-0.504027
C72	C	-0.666200	0.159838	-0.549704
C73	C	-0.713077	0.203188	-0.571462
C74	C	-0.736595	0.224934	-0.548009
C75	C	-0.787423	0.271931	-0.571594
C76	C	-0.713230	0.203329	-0.502796
C77	C	-0.666353	0.159987	-0.481041
C78	C	-0.642841	0.138241	-0.504500
C79	C	-0.320836	-0.185423	-0.204335
C80	C	-0.299080	-0.210691	-0.157455
C81	C	-0.322536	-0.189006	-0.133940
C82	C	-0.298950	-0.216402	-0.083110
C83	C	-0.367748	-0.142056	-0.157305
C84	C	-0.389502	-0.116792	-0.204182
C85	C	-0.366040	-0.138478	-0.227695
C86	C	-0.389632	-0.111079	-0.480604
C87	C	-0.408436	-0.089241	-0.461934
C88	C	-0.408437	-0.089240	-0.319041
C89	C	-0.389634	-0.111078	-0.278525
C90	C	-0.551496	0.053776	-0.462102
C91	C	-0.592011	0.091239	-0.480906
O92	O	0.196122	-0.334274	0.011291
O93	O	0.063378	-0.256674	-0.011208
O94	O	0.140994	-0.334276	0.066414
O95	O	0.118506	-0.256671	-0.066331
O96	O	0.140996	-0.271251	0.066419
O97	O	0.063380	-0.193649	-0.011203
O98	O	0.196124	-0.271249	0.011296
Zn99	Zn	0.129752	-0.222442	0.000047
Zn100	Zn	0.129750	-0.305480	0.000041
O101	O	0.118508	-0.193647	-0.066327
O102	O	-0.260036	0.184774	0.011294
O103	O	-0.204910	0.074561	-0.011204
O104	O	-0.204913	0.074554	0.066418
O105	O	-0.260033	0.184781	-0.066328
O106	O	-0.267961	0.074557	0.066413
O107	O	-0.267958	0.074564	-0.011209
O108	O	-0.323083	0.184777	0.011289
Zn109	Zn	-0.305531	0.129671	0.000039
Zn110	Zn	-0.222463	0.129667	0.000046
O111	O	-0.323081	0.184784	-0.066333
O112	O	-0.936929	0.397535	-0.602582
O113	O	-0.804185	0.287317	-0.547454
O114	O	-0.881802	0.287315	-0.547452
O115	O	-0.859312	0.397537	-0.602584
O116	O	-0.881801	0.287314	-0.610498
O117	O	-0.804183	0.287316	-0.610500
O118	O	-0.936927	0.397533	-0.665628
Zn119	Zn	-0.870555	0.342425	-0.648073
Zn120	Zn	-0.870557	0.342426	-0.565008
O121	O	-0.859310	0.397536	-0.665629
O122	O	-0.267961	-0.271234	-0.665316
O123	O	-0.323086	-0.193638	-0.610192
O124	O	-0.323085	-0.271236	-0.610189
O125	O	-0.267962	-0.193636	-0.665319
O126	O	-0.260038	-0.334264	-0.547142
O127	O	-0.260039	-0.256666	-0.547145
O128	O	-0.204914	-0.334262	-0.602269
Zn129	Zn	-0.222466	-0.305471	-0.564697
Zn130	Zn	-0.305534	-0.222429	-0.647764
O131	O	-0.204915	-0.256664	-0.602272
C132	C	-0.094840	-0.456607	0.293255
C133	C	-0.044837	-0.503376	0.316647
C134	C	-0.117862	-0.433912	0.316174
C135	C	-0.163483	-0.387984	0.224612
C136	C	-0.186875	-0.361381	0.174609
C137	C	-0.186401	-0.365393	0.247634
C138	C	-0.163483	-0.387984	0.293255
C139	C	-0.186874	-0.361382	0.316646
C140	C	-0.117862	-0.433912	0.247635
C141	C	-0.205772	-0.339889	0.335543
C142	C	-0.004440	-0.541160	0.335545
C143	C	-0.205773	-0.339888	0.134212
C144	C	-0.229480	-0.312925	0.359250
C145	C	0.046239	-0.588562	0.359254
C146	C	-0.229481	-0.312924	0.083532
C147	C	0.153295	-0.388013	0.293279
C148	C	0.150076	-0.361413	0.316673
C149	C	0.153614	-0.433940	0.316196
C150	C	0.153297	-0.388008	0.224634
C151	C	0.150079	-0.361403	0.174632
C152	C	0.153616	-0.433935	0.247655
C153	C	0.153293	-0.456633	0.293275
C154	C	0.150072	-0.503401	0.316665
C155	C	0.153617	-0.365420	0.247659
C156	C	0.147469	-0.541185	0.335561
C157	C	0.147474	-0.339922	0.335572
C158	C	0.147479	-0.339908	0.134234
C159	C	0.144204	-0.588587	0.359267
C160	C	0.144211	-0.312962	0.359282
C161	C	0.144218	-0.312942	0.083555
C162	C	-0.163482	-0.139963	0.293267
C163	C	-0.186875	-0.166567	0.316654
C164	C	-0.117861	-0.162559	0.316187
C165	C	-0.163482	-0.071333	0.224628
C166	C	-0.186873	-0.024557	0.174627
C167	C	-0.117860	-0.094033	0.247653
C168	C	-0.094838	-0.139967	0.293272
C169	C	-0.044835	-0.166574	0.316665
C170	C	-0.186401	-0.094030	0.247648
C171	C	-0.004438	-0.188070	0.335563
C172	C	-0.205773	-0.188061	0.335549
C173	C	-0.205771	0.013233	0.134231
C174	C	0.046242	-0.215038	0.359273
C175	C	-0.229482	-0.215026	0.359253
C176	C	-0.229479	0.060643	0.083553
C177	C	0.095627	0.006487	-0.438489
C178	C	0.095306	-0.016206	-0.461409
C179	C	0.095623	-0.062137	-0.369847
C180	C	0.095303	-0.084726	-0.392871
C181	C	0.095625	-0.062133	-0.438492
C182	C	0.095305	-0.016210	-0.392868
C183	C	0.108059	0.159543	-0.480399
C184	C	0.111575	0.202893	-0.502003
C185	C	0.113340	0.224640	-0.547210
C186	C	0.117161	0.271637	-0.570634
C187	C	0.111587	0.203038	-0.570814
C188	C	0.108065	0.159695	-0.549212
C189	C	0.106302	0.137948	-0.504002
C190	C	0.108054	-0.116452	-0.549685
C191	C	0.111568	-0.141562	-0.571444
C192	C	0.113332	-0.188519	-0.547992
C193	C	0.117148	-0.215753	-0.571578
C194	C	0.111577	-0.210363	-0.502779
C195	C	0.108055	-0.185249	-0.481023
C196	C	0.106297	-0.138292	-0.504481
C197	C	0.108046	-0.116473	-0.204312
C198	C	0.111564	-0.141591	-0.157432
C199	C	0.113326	-0.188548	-0.133918
C200	C	0.117142	-0.215786	-0.083088
C201	C	0.111574	-0.210388	-0.157283
C202	C	0.108058	-0.185270	-0.204161
C203	C	0.106290	-0.138308	-0.227673
C204	C	0.102487	0.090947	-0.480580
C205	C	0.099445	0.053484	-0.461911
C206	C	0.099438	-0.089371	-0.319019
C207	C	0.102477	-0.111078	-0.278503
C208	C	0.099442	-0.089362	-0.462081
C209	C	0.102482	-0.111066	-0.480886
O210	O	0.118477	-0.256700	0.452885
O211	O	0.140984	-0.334299	0.397762
O212	O	0.063360	-0.256699	0.397752
O213	O	0.196101	-0.334300	0.452895
O214	O	0.063367	-0.193672	0.334708
O215	O	0.140992	-0.271271	0.334718
O216	O	0.118484	-0.193673	0.389842
Zn217	Zn	0.129739	-0.222465	0.352270
Zn218	Zn	0.129729	-0.305506	0.435333
O219	O	0.196108	-0.271272	0.389852
C220	C	-0.500364	0.533998	-0.438484
C221	C	-0.477341	0.556591	-0.461399
C222	C	-0.431721	0.465364	-0.369840
C223	C	-0.408802	0.488061	-0.392859
C224	C	-0.431720	0.533995	-0.438478
C225	C	-0.477342	0.488064	-0.392865
C226	C	-0.665898	0.588334	-0.480407
C227	C	-0.712776	0.613450	-0.502014
C228	C	-0.736291	0.660414	-0.547220
C229	C	-0.787122	0.687654	-0.570647
C230	C	-0.712926	0.682257	-0.570819
C231	C	-0.666050	0.657138	-0.549214
C232	C	-0.642536	0.610174	-0.504006
C233	C	-0.389802	0.657585	-0.549654
C234	C	-0.368196	0.682850	-0.571408
C235	C	-0.322990	0.661164	-0.547952
C236	C	-0.299561	0.688558	-0.571532
C237	C	-0.299388	0.614205	-0.502740
C238	C	-0.320990	0.588935	-0.480990
C239	C	-0.366202	0.610633	-0.504452
C240	C	-0.389804	0.312282	-0.204314
C241	C	-0.368201	0.268929	-0.157436
C242	C	-0.322993	0.247179	-0.133918
C243	C	-0.299567	0.200174	-0.083089
C244	C	-0.299392	0.268786	-0.157278
C245	C	-0.320998	0.312139	-0.204154
C246	C	-0.366204	0.333881	-0.227670
C247	C	-0.591708	0.582942	-0.480581
C248	C	-0.551193	0.561234	-0.461909
C249	C	-0.408297	0.418359	-0.319013
C250	C	-0.389626	0.380890	-0.278499
C251	C	-0.408296	0.561393	-0.462062
C252	C	-0.389624	0.583232	-0.480862
H253	H	-0.099379	-0.074998	-0.024355
O254	O	-0.231126	-0.071248	-0.024486
C255	C	-0.246503	-0.025773	-0.024681
H256	H	-0.224665	-0.010110	-0.038923
H257	H	-0.284493	0.006725	-0.047528
H258	H	-0.242788	-0.037162	0.012249
H259	H	-0.495826	0.593550	-0.498882
O260	O	-0.643276	-0.456748	0.023485
C261	C	-0.596864	-0.474386	0.026953
H262	H	-0.586535	-0.457561	0.042018
H263	H	-0.573172	-0.520042	0.050646
H264	H	-0.593356	-0.459818	-0.008998
H265	H	0.154133	-0.328462	0.229178
H266	H	-0.371321	-0.530978	0.035012
O267	O	-0.391061	-0.271638	0.016577
C268	C	-0.365966	-0.280196	0.054434
H269	H	-0.327972	-0.314613	0.067197
H270	H	-0.368632	-0.242233	0.042992
H271	H	-0.381001	-0.290661	0.083726
O272	O	0.154141	-0.456530	0.360885
C273	C	0.114367	-0.419069	0.363425
H274	H	0.086058	-0.387774	0.327921
H275	H	0.101364	-0.440617	0.389904
H276	H	0.123516	-0.398527	0.374504
H277	H	-0.099376	-0.075038	0.229168
O278	O	-0.298065	-0.666940	0.023529
C279	C	-0.293855	-0.671160	0.065440
H280	H	-0.296610	-0.704676	0.092271
H281	H	-0.258756	-0.680555	0.078855
H282	H	-0.322793	-0.631664	0.059086
O283	O	-0.095884	-0.206585	-0.024478
C284	C	-0.125995	-0.221762	-0.024673
H285	H	-0.163501	-0.185689	-0.038926
H286	H	-0.120505	-0.236912	-0.047512
H287	H	-0.118328	-0.254958	0.012258
O288	O	-0.095871	-0.206665	0.360897
C289	C	-0.125992	-0.221825	0.376280
H290	H	-0.153570	-0.205594	0.345059
H291	H	-0.105281	-0.267404	0.399880
H292	H	-0.143481	-0.204737	0.396339
H293	H	0.094791	0.002793	-0.498893
O294	O	-0.433739	0.678746	-0.572470
C295	C	-0.464050	0.731009	-0.584000
H296	H	-0.443469	0.748000	-0.585140
H297	H	-0.491486	0.757599	-0.619451
H298	H	-0.481708	0.729688	-0.556732
H299	H	-0.495827	-0.530983	0.035020
O300	O	-0.231125	-0.071417	0.225668
C301	C	-0.246503	-0.101328	0.255776
H302	H	-0.224668	-0.124587	0.293284
H303	H	-0.284494	-0.073009	0.250291
H304	H	-0.242782	-0.130575	0.248101
H305	H	-0.301784	-0.449335	0.023157
O306	O	-0.499459	-0.399337	0.035049
C307	C	-0.539458	-0.357025	-0.004738
H308	H	-0.550974	-0.374128	-0.018433
H309	H	-0.568487	-0.332758	0.004673
H310	H	-0.531257	-0.329975	-0.032625
H311	H	-0.262587	-0.403497	0.016771
H312	H	0.094785	-0.121682	-0.374387
O313	O	0.094664	0.006530	-0.370890
C314	C	0.094469	0.052006	-0.401001
H315	H	0.080226	0.067673	-0.438508
H316	H	0.071625	0.084502	-0.395516
H317	H	0.131399	0.040618	-0.393327
O318	O	-0.255133	-0.256243	-0.134803
C319	C	-0.224907	-0.245725	-0.156879
H320	H	-0.240733	-0.201073	-0.177108
H321	H	-0.190108	-0.269438	-0.129633
H322	H	-0.219439	-0.258160	-0.181747
O323	O	0.113238	-0.120292	-0.134812
C324	C	0.110936	-0.073466	-0.165615
H325	H	0.093853	-0.056428	-0.202872
H326	H	0.089585	-0.042528	-0.158048
H327	H	0.147506	-0.083576	-0.160833
H328	H	0.106608	-0.078237	-0.223453
O329	O	-0.255481	0.247738	-0.134500
C330	C	-0.239281	0.276096	-0.165174
H331	H	-0.270127	0.317734	-0.194746
H332	H	-0.217192	0.279947	-0.145650
H333	H	-0.217425	0.253540	-0.179931
H334	H	-0.099372	-0.452898	0.229148
O335	O	-0.433732	-0.321324	0.023430
C336	C	-0.449928	-0.274472	0.021133
H337	H	-0.429799	-0.257305	0.004045
H338	H	-0.488448	-0.243633	-0.000210
H339	H	-0.444634	-0.284589	0.057707
H340	H	0.113009	-0.248624	-0.138135
O341	O	0.154252	-0.456541	0.225544
C342	C	0.154448	-0.426631	0.180250
H343	H	0.168698	-0.403381	0.178828
H344	H	0.177289	-0.454949	0.170586
H345	H	0.117519	-0.397376	0.154711
H346	H	-0.387422	0.251343	-0.138417
H347	H	0.106623	0.141841	-0.443588
H348	H	-0.732378	0.221040	-0.483702
O349	O	-0.390563	-0.120897	-0.134531
C350	C	-0.402099	-0.068631	-0.156503
H351	H	-0.403240	-0.051639	-0.194082
H352	H	-0.437551	-0.042045	-0.155665
H353	H	-0.374836	-0.069943	-0.137529
O354	O	-0.643115	-0.321368	0.023501
C355	C	-0.673787	-0.274512	0.021198
H356	H	-0.703369	-0.275778	0.033256
H357	H	-0.654267	-0.271965	0.044593
H358	H	-0.688528	-0.237904	-0.016118
O359	O	-0.735533	-0.271569	0.016468
C360	C	-0.773202	-0.229685	-0.025460
H361	H	-0.783811	-0.247294	-0.039284
H362	H	-0.803759	-0.203063	-0.018966
H363	H	-0.762498	-0.204829	-0.052035
H364	H	0.113004	0.220477	-0.482781
O365	O	0.113387	0.224117	-0.614694
C366	C	0.155305	0.219891	-0.614587
H367	H	0.182117	0.186300	-0.578305
H368	H	0.168741	0.210604	-0.640338
H369	H	0.148955	0.259349	-0.625033
O370	O	-0.735795	-0.406915	0.016584
C371	C	-0.752337	-0.419586	0.054442
H372	H	-0.755772	-0.394412	0.067216
H373	H	-0.787709	-0.410674	0.042997
H374	H	-0.726909	-0.463917	0.083727
O375	O	-0.433712	-0.666708	0.023490
C376	C	-0.449912	-0.695064	0.021181
H377	H	-0.419066	-0.736698	0.033253
H378	H	-0.471996	-0.698923	0.044563
H379	H	-0.471774	-0.672502	-0.016138
H380	H	-0.387419	-0.748683	0.016816
H381	H	0.106637	0.142110	-0.568432
O382	O	-0.095773	-0.456532	0.360866
C383	C	-0.055758	-0.456777	0.363420
H384	H	-0.059950	-0.424276	0.327921
H385	H	-0.050837	-0.448708	0.389904
H386	H	-0.024132	-0.497542	0.374500
O387	O	0.106325	-0.070827	-0.572546
C388	C	0.108638	-0.056940	-0.617111
H389	H	0.096565	-0.075706	-0.627914
H390	H	0.085259	-0.011487	-0.643055
H391	H	0.145957	-0.072395	-0.616401
O392	O	-0.391097	0.728508	-0.615296
C393	C	-0.395319	0.770384	-0.615253
H394	H	-0.367097	0.752765	-0.583810
H395	H	-0.391389	0.797009	-0.648374
H396	H	-0.430886	0.795238	-0.613541
H397	H	0.112999	-0.123775	-0.608256
O398	O	0.113227	-0.255936	-0.480067
C399	C	0.075369	-0.247292	-0.505256
H400	H	0.062597	-0.212778	-0.543211
H401	H	0.086814	-0.285181	-0.502730
H402	H	0.046085	-0.236929	-0.490197
H403	H	0.106623	-0.203035	-0.444212
O404	O	0.106343	-0.206544	-0.226792
C405	C	0.108667	-0.253383	-0.195983
H406	H	0.096586	-0.251982	-0.166455
H407	H	0.085300	-0.256049	-0.215401
H408	H	0.145991	-0.289991	-0.181182
O409	O	-0.364078	0.465320	-0.370747
C410	C	-0.348702	0.419841	-0.325454
H411	H	-0.370534	0.404172	-0.324035
H412	H	-0.310710	0.387348	-0.315790
H413	H	-0.352428	0.431226	-0.299914
H414	H	-0.495832	0.469078	-0.374381
H415	H	-0.426614	0.329984	-0.223458
H416	H	-0.646757	0.550094	-0.443598
H417	H	-0.731797	0.595663	-0.482796
O418	O	-0.735808	0.727929	-0.614696
C419	C	-0.773497	0.769726	-0.614586
H420	H	-0.766710	0.760250	-0.578301
H421	H	-0.777640	0.808900	-0.640330
H422	H	-0.806617	0.773825	-0.625037
H423	H	-0.262584	-0.748943	0.016794
O424	O	-0.643430	0.678439	-0.572193
C425	C	-0.674231	0.725268	-0.616729
H426	H	-0.711487	0.742305	-0.616688
H427	H	-0.666663	0.756205	-0.626323
H428	H	-0.669451	0.715162	-0.643189
O429	O	-0.499778	0.006790	-0.370900
C430	C	-0.545062	0.052281	-0.401027
H431	H	-0.556394	0.048649	-0.428617
H432	H	-0.569950	0.055159	-0.380323
H433	H	-0.545460	0.089819	-0.418501
H434	H	-0.496124	0.003081	-0.498917
O435	O	-0.255505	0.593206	-0.479943
C436	C	-0.255605	0.630984	-0.475814
H437	H	-0.291884	0.660468	-0.478491
H438	H	-0.229851	0.609377	-0.440772
H439	H	-0.245160	0.653654	-0.504837
O440	O	-0.298007	0.543340	-0.437066
C441	C	-0.253469	0.529605	-0.421029
H442	H	-0.253510	0.566892	-0.441237
H443	H	-0.243869	0.512436	-0.382512
H444	H	-0.227015	0.498381	-0.426367
O445	O	-0.364382	-0.128510	-0.370912
C446	C	-0.349005	-0.143688	-0.401023
H447	H	-0.370839	-0.107616	-0.438530
H448	H	-0.311013	-0.158835	-0.395536
H449	H	-0.352727	-0.176887	-0.393351
H450	H	-0.301729	-0.203089	-0.443614
O451	O	-0.298040	-0.206412	-0.227221
C452	C	-0.293923	-0.168623	-0.264914
H453	H	-0.296599	-0.139141	-0.258124
H454	H	-0.258886	-0.190218	-0.269066
H455	H	-0.322952	-0.145951	-0.298031
O456	O	-0.255163	-0.256301	-0.479032
C457	C	-0.239119	-0.270014	-0.434505
H458	H	-0.270049	-0.251172	-0.423826
H459	H	-0.217030	-0.315452	-0.408468
H460	H	-0.217306	-0.254506	-0.435216
H461	H	-0.386837	-0.124397	-0.607648
H462	H	-0.301778	0.329728	-0.223172
O463	O	-0.231094	-0.321252	0.225518
C464	C	-0.233619	-0.278945	0.185523
H465	H	-0.202819	-0.296055	0.174005
H466	H	-0.267308	-0.254662	0.156492
H467	H	-0.232774	-0.251909	0.193732
O468	O	-0.433421	-0.071194	-0.572222
C469	C	-0.449455	-0.057461	-0.616760
H470	H	-0.429245	-0.094749	-0.616717
H471	H	-0.487971	-0.040294	-0.626363
H472	H	-0.444115	-0.026237	-0.643215
H473	H	-0.732097	0.220775	-0.608274
O474	O	-0.643424	0.138799	-0.572566
C475	C	-0.674098	0.167154	-0.617130
H476	H	-0.703673	0.208788	-0.627932
H477	H	-0.654577	0.171012	-0.643075
H478	H	-0.688848	0.144591	-0.616421
O479	O	-0.643732	0.139053	-0.437117
C480	C	-0.674533	0.167549	-0.421084
H481	H	-0.711789	0.187711	-0.441294
H482	H	-0.666963	0.138643	-0.382567
H483	H	-0.669754	0.199334	-0.426425
H484	H	-0.426314	-0.078564	-0.223203
