data_functionalizedCrystal
_audit_creation_method	'MofGen! by Chris Wilmer'
_symmetry_space_group_name_H-M	'P1'
_symmetry_Int_Tables_number	1
_symmetry_cell_setting	triclinic
loop_
_symmetry_equiv_pos_as_xyz
  x,y,z
_cell_length_a	12.759401
_cell_length_b	18.101395
_cell_length_c	12.759393
_cell_angle_alpha	90.032926
_cell_angle_beta	90.020473
_cell_angle_gamma	90.032629
loop_
_atom_site_label
_atom_site_type_symbol
_atom_site_fract_x
_atom_site_fract_y
_atom_site_fract_z
Zn1	Zn	1.606142	-0.294760	0.594006
Zn2	Zn	1.605984	-0.418620	0.418321
Zn3	Zn	1.430442	-0.294800	0.418342
Zn4	Zn	1.430382	-0.418567	0.593958
O5	O	1.518237	-0.356687	0.506157
O6	O	1.753142	-0.311195	0.570713
O7	O	1.582657	-0.402234	0.271302
O8	O	1.453840	-0.191162	0.441673
O9	O	1.753026	-0.402195	0.441637
O10	O	1.582926	-0.191132	0.570733
O11	O	1.453687	-0.311264	0.271318
O12	O	1.283413	-0.311213	0.441626
O13	O	1.453738	-0.402105	0.740986
O14	O	1.283369	-0.402144	0.570651
O15	O	1.582868	-0.311144	0.741021
O16	O	1.582599	-0.522246	0.441590
O17	O	1.453585	-0.522207	0.570630
C18	C	1.245270	-0.356678	0.506136
C19	C	1.128493	-0.356692	0.506152
C20	C	1.518097	-0.549097	0.506126
C21	C	1.518133	-0.631411	0.506148
C22	C	1.073636	-0.404111	0.573229
C23	C	0.963912	-0.404114	0.573250
C24	C	0.963912	-0.309275	0.439107
C25	C	1.073634	-0.309269	0.439092
C26	C	1.518363	-0.930502	0.506204
C27	C	1.437380	-0.899183	0.587594
C28	C	1.436995	-0.813566	0.587340
C29	C	1.518249	-0.782120	0.506177
C30	C	1.488267	-0.813279	0.395451
C31	C	1.487745	-0.898925	0.395938
C32	C	1.629506	-0.898842	0.534565
C33	C	1.628853	-0.813191	0.536994
C34	C	1.518186	-0.698260	0.506155
C35	C	1.518424	-1.014362	0.506219
C36	C	1.792271	-0.356696	0.506178
C37	C	1.909047	-0.356700	0.506187
C38	C	1.518314	-0.356614	0.780190
C39	C	1.518346	-0.356583	0.896967
C40	C	1.518407	-0.163525	0.506211
C41	C	1.518480	-0.081211	0.506234
C42	C	1.518222	-0.356706	0.233189
C43	C	1.518393	-0.356528	0.116413
C44	C	1.585611	-0.309184	1.061580
C45	C	1.585591	-0.309213	0.951856
C46	C	1.451125	-0.403933	0.951807
C47	C	1.451152	-0.403907	1.061530
H48	H	0.919252	-0.442727	0.627873
C49	C	1.377170	-0.456047	0.891424
C50	C	1.294697	-0.423979	0.815987
C51	C	1.220745	-0.476095	0.755602
C52	C	1.229265	-0.560280	0.770655
C53	C	1.311741	-0.592353	0.846096
C54	C	1.385693	-0.540236	0.906480
H55	H	1.288387	-0.361656	0.804841
H56	H	1.159690	-0.452352	0.699756
H57	H	1.174520	-0.598860	0.725954
H58	H	1.318051	-0.654676	0.857242
H59	H	1.446747	-0.563979	0.962327
C60	C	1.659582	-0.257075	1.121953
C61	C	1.659615	-0.257041	1.242644
C62	C	1.733591	-0.204932	1.303013
C63	C	1.807535	-0.152857	1.242693
C64	C	1.807504	-0.152889	1.121996
C65	C	1.733528	-0.204998	1.061626
H66	H	1.604876	-0.295591	1.287302
H67	H	1.733613	-0.204909	1.392361
H68	H	1.862296	-0.114283	1.287382
H69	H	1.862244	-0.114338	1.077337
H70	H	1.733506	-0.205021	0.972278
H71	H	1.118299	-0.442724	0.627836
H72	H	1.640328	-0.270661	0.907216
H73	H	1.355499	-0.920773	0.569045
H74	H	1.354613	-0.793145	0.568554
H75	H	1.689842	-0.919095	0.475286
H76	H	1.396413	-0.442465	1.106176
C77	C	1.133984	-0.257106	0.365297
C78	C	1.118962	-0.172925	0.374078
C79	C	1.179310	-0.120763	0.300288
C80	C	1.254680	-0.152783	0.217717
C81	C	1.269706	-0.236968	0.208932
C82	C	1.209357	-0.289130	0.282722
H83	H	1.063165	-0.149219	0.435205
H84	H	1.168187	-0.058444	0.306791
H85	H	1.299354	-0.114169	0.163093
H86	H	1.325502	-0.260674	0.147805
H87	H	1.220480	-0.351450	0.276219
H88	H	0.919233	-0.270667	0.384508
H89	H	1.455952	-0.919725	0.669962
C90	C	1.462268	-0.785095	0.698267
C91	C	1.482948	-0.840289	0.787702
C92	C	1.508188	-0.811822	0.898643
C93	C	1.512747	-0.728162	0.920148
C94	C	1.492066	-0.672963	0.830710
C95	C	1.466827	-0.701429	0.719770
H96	H	1.479574	-0.902224	0.771785
H97	H	1.523497	-0.852685	0.964850
H98	H	1.531431	-0.707090	1.002273
H99	H	1.495441	-0.611028	0.846628
H100	H	1.451518	-0.660567	0.653563
H101	H	1.406500	-0.918971	0.371913
C102	C	1.563954	-0.926929	0.311215
C103	C	1.523231	-0.975731	0.221063
C104	C	1.599429	-1.003734	0.136335
C105	C	1.716350	-0.982935	0.141759
C106	C	1.757079	-0.934130	0.231914
C107	C	1.680881	-0.906127	0.316642
H108	H	1.436674	-0.991130	0.217045
H109	H	1.569278	-1.039863	0.069597
H110	H	1.772757	-1.003664	0.079039
H111	H	1.843636	-0.918730	0.235933
H112	H	1.711031	-0.869998	0.383381
H113	H	1.545396	-0.792912	0.333156
C114	C	1.379668	-0.784406	0.362410
C115	C	1.318101	-0.732596	0.435697
C116	C	1.209499	-0.703724	0.402663
C117	C	1.162465	-0.726662	0.296342
C118	C	1.224032	-0.778475	0.223048
C119	C	1.332634	-0.807346	0.256082
H120	H	1.352918	-0.715613	0.514408
H121	H	1.163923	-0.665369	0.456920
H122	H	1.082071	-0.705289	0.271888
H123	H	1.189215	-0.795457	0.144337
H124	H	1.378210	-0.845702	0.201825
H125	H	1.656840	-0.920384	0.613930
H126	H	1.651462	-0.792822	0.618482
H127	H	1.692382	-0.791781	0.482034
