data_functionalizedCrystal
_audit_creation_method	'MofGen! by Chris Wilmer'
_symmetry_space_group_name_H-M	'P1'
_symmetry_Int_Tables_number	1
_symmetry_cell_setting	triclinic
loop_
_symmetry_equiv_pos_as_xyz
  x,y,z
_cell_length_a	13.262390
_cell_length_b	13.339070
_cell_length_c	9.730223
_cell_angle_alpha	90.000235
_cell_angle_beta	74.082492
_cell_angle_gamma	99.429367
loop_
_atom_site_label
_atom_site_type_symbol
_atom_site_fract_x
_atom_site_fract_y
_atom_site_fract_z
O1	O	1.432392	0.136405	-0.649720
O2	O	1.131129	0.151242	-0.537109
O3	O	1.247185	-0.003585	-0.580486
O4	O	1.316336	0.291232	-0.606343
O5	O	1.247185	-0.003581	-0.351906
O6	O	1.131128	0.151246	-0.308529
O7	O	1.432392	0.136409	-0.421140
Zn8	Zn	1.281760	0.143828	-0.328542
Zn9	Zn	1.281761	0.143823	-0.629707
O10	O	1.316335	0.291236	-0.377763
C11	C	1.091783	0.150413	-0.408111
C12	C	0.974540	0.147925	-0.364287
C13	C	0.644060	0.140890	-0.739168
C14	C	0.754214	0.143223	-0.780345
C15	C	0.809301	0.144399	-0.676334
C16	C	0.754223	0.143241	-0.531138
C17	C	0.644057	0.140901	-0.489956
C18	C	0.809298	0.144409	-0.427123
C19	C	0.754220	0.143252	-0.281927
C20	C	0.644064	0.140912	-0.240752
C21	C	0.588977	0.139736	-0.344763
C22	C	0.919464	0.146750	-0.468305
C23	C	0.919461	0.146761	-0.219093
C24	C	0.809307	0.144428	-0.177916
C25	C	1.235504	-0.041322	-0.461832
C26	C	1.200686	-0.153770	-0.448823
C27	C	1.471412	-0.517426	-0.550019
C28	C	1.504129	-0.411776	-0.562235
C29	C	1.428271	-0.347269	-0.533883
C30	C	1.319691	-0.388423	-0.493312
C31	C	1.286971	-0.494083	-0.481084
C32	C	1.243830	-0.323926	-0.464949
C33	C	1.135250	-0.365080	-0.424378
C34	C	1.102536	-0.470730	-0.412152
C35	C	1.178394	-0.535237	-0.440504
C36	C	1.276550	-0.218266	-0.477177
C37	C	1.092109	-0.194923	-0.408243
C38	C	1.059392	-0.300573	-0.396026
C39	C	1.471738	0.137238	-0.550141
C40	C	1.588980	0.139725	-0.593975
C41	C	1.328017	0.328972	-0.496420
C42	C	1.362835	0.441420	-0.509439
N43	N	1.281767	0.143831	-0.123009
N44	N	1.281760	0.143812	-0.835243
C45	C	1.333181	0.075297	-0.070299
C46	C	1.333175	0.075284	0.073586
C47	C	1.230339	0.212350	0.112040
C48	C	1.230339	0.212356	-0.031840
C49	C	1.392557	-0.003834	-0.092501
C50	C	1.392551	-0.003847	0.051384
H51	H	0.499281	0.137840	-0.311244
C52	C	1.338689	-0.108905	-0.125129
N53	N	1.298113	-0.188041	-0.149704
C54	C	0.583482	0.139644	-0.081033
N55	N	0.537854	0.138694	0.039268
H56	H	0.964313	0.147717	-0.134398
C57	C	0.748706	0.143148	-0.018203
N58	N	0.703059	0.142182	0.102093
H59	H	1.151761	-0.621267	-0.430564
H60	H	0.898994	0.146299	-0.709870
C61	C	1.504792	0.029054	-0.194750
N62	N	1.589328	0.053825	-0.271765
H63	H	1.188462	0.268153	-0.074749
H64	H	1.188467	0.268140	0.186285
C65	C	1.330082	-0.103085	0.135018
N66	N	1.283026	-0.177828	0.198015
H67	H	1.478013	0.013169	0.058489
H68	H	1.014123	-0.504234	-0.379107
C69	C	0.980038	0.148028	-0.628017
N70	N	1.025662	0.148993	-0.748321
H71	H	1.454915	-0.261245	-0.543832
C72	C	1.395985	-0.173010	-0.521814
N73	N	1.485950	-0.138924	-0.555441
C74	C	1.623562	-0.366515	-0.606863
N75	N	1.713526	-0.332424	-0.640481
H76	H	0.599196	0.139923	-0.823837
H77	H	1.533163	-0.569956	-0.573087
C78	C	0.939956	-0.345857	-0.351379
N79	N	0.849997	-0.379965	-0.317746
H80	H	1.030339	-0.142402	-0.385150
H81	H	0.799050	0.144160	-0.898563
