data_functionalizedCrystal
_audit_creation_method	'MofGen! by Chris Wilmer'
_symmetry_space_group_name_H-M	'P1'
_symmetry_Int_Tables_number	1
_symmetry_cell_setting	triclinic
loop_
_symmetry_equiv_pos_as_xyz
  x,y,z
_cell_length_a	16.120530
_cell_length_b	16.120297
_cell_length_c	11.169416
_cell_angle_alpha	87.121464
_cell_angle_beta	92.893829
_cell_angle_gamma	90.128140
loop_
_atom_site_label
_atom_site_type_symbol
_atom_site_fract_x
_atom_site_fract_y
_atom_site_fract_z
Zn1	Zn	1.247535	-0.534608	0.608055
Zn2	Zn	1.497535	-0.284608	0.858055
Zn3	Zn	1.747535	-0.034608	1.108055
Zn4	Zn	1.997535	0.215392	1.358055
Zn5	Zn	1.254516	-0.395564	0.799118
Zn6	Zn	1.504516	-0.145564	1.049118
Zn7	Zn	1.754516	0.104436	1.299118
Zn8	Zn	2.004516	0.354436	1.549118
Zn9	Zn	1.115522	-0.388525	0.587774
Zn10	Zn	1.365522	-0.138525	0.837774
Zn11	Zn	1.615522	0.111475	1.087774
Zn12	Zn	1.865522	0.361475	1.337774
Zn13	Zn	1.108472	-0.527534	0.798013
Zn14	Zn	1.358472	-0.277534	1.048013
Zn15	Zn	1.608472	-0.027534	1.298013
Zn16	Zn	1.858472	0.222466	1.548013
O17	O	1.181511	-0.461558	0.698240
O18	O	1.431511	-0.211558	0.948240
O19	O	1.681511	0.038442	1.198240
O20	O	1.931511	0.288442	1.448240
O21	O	1.364829	-0.522071	0.642350
O22	O	1.614829	-0.272071	0.892350
O23	O	1.864829	-0.022071	1.142350
O24	O	2.114829	0.227929	1.392350
O25	O	1.241950	-0.278265	0.763058
O26	O	1.491950	-0.028265	1.013058
O27	O	1.741950	0.221735	1.263058
O28	O	1.991950	0.471735	1.513058
O29	O	1.133063	-0.407918	0.422518
O30	O	1.383063	-0.157918	0.672518
O31	O	1.633063	0.092082	0.922518
O32	O	1.883063	0.342082	1.172518
O33	O	1.369957	-0.419916	0.782724
O34	O	1.619957	-0.169916	1.032724
O35	O	1.869957	0.080084	1.282724
O36	O	2.119957	0.330084	1.532724
O37	O	1.230053	-0.515245	0.437418
O38	O	1.480053	-0.265245	0.687418
O39	O	1.730053	-0.015245	0.937418
O40	O	1.980053	0.234755	1.187418
O41	O	1.139832	-0.273093	0.607784
O42	O	1.389832	-0.023093	0.857784
O43	O	1.639832	0.226907	1.107784
O44	O	1.889832	0.476907	1.357784
O45	O	0.998219	-0.401058	0.606712
O46	O	1.248219	-0.151058	0.856712
O47	O	1.498219	0.098942	1.106712
O48	O	1.748219	0.348942	1.356712
O49	O	1.121047	-0.644838	0.780840
O50	O	1.371047	-0.394838	1.030840
O51	O	1.621047	-0.144838	1.280840
O52	O	1.871047	0.105162	1.530840
O53	O	0.993039	-0.503187	0.761174
O54	O	1.243039	-0.253187	1.011174
O55	O	1.493039	-0.003187	1.261174
O56	O	1.743039	0.246813	1.511174
O57	O	1.223216	-0.650036	0.641279
O58	O	1.473216	-0.400036	0.891279
O59	O	1.723216	-0.150036	1.141279
O60	O	1.973216	0.099964	1.391279
O61	O	1.235113	-0.413056	0.966918
O62	O	1.485113	-0.163056	1.216918
O63	O	1.735113	0.086944	1.466918
O64	O	1.985113	0.336944	1.716918
O65	O	1.127816	-0.510013	0.966106
O66	O	1.377816	-0.260013	1.216106
O67	O	1.627816	-0.010013	1.466106
O68	O	1.877816	0.239987	1.716106
C69	C	0.965457	-0.450591	0.681623
C70	C	1.215457	-0.200591	0.931623
C71	C	1.465457	0.049409	1.181623
C72	C	1.715457	0.299409	1.431623
C73	C	0.873026	-0.445920	0.674545
C74	C	1.123026	-0.195920	0.924545
C75	C	1.373026	0.054080	1.174545
C76	C	1.623026	0.304080	1.424545
C77	C	0.703795	-0.437397	0.661594
C78	C	0.953795	-0.187397	0.911594
C79	C	1.203795	0.062603	1.161594
C80	C	1.453795	0.312603	1.411594
C81	C	0.660065	-0.485779	0.734979
C82	C	0.910065	-0.235779	0.984979
C83	C	1.160065	0.014221	1.234979
C84	C	1.410065	0.264221	1.484979
C85	C	0.565899	-0.481037	0.727773
C86	C	0.815899	-0.231037	0.977773
C87	C	1.065899	0.018963	1.227773
C88	C	1.315899	0.268963	1.477773
C89	C	0.797970	-0.442138	0.668798
C90	C	1.047970	-0.192138	0.918798
C91	C	1.297970	0.057862	1.168798
C92	C	1.547970	0.307862	1.418798
C93	C	1.170566	-0.678453	0.713198
C94	C	1.420566	-0.428453	0.963198
C95	C	1.670566	-0.178453	1.213198
C96	C	1.920566	0.071547	1.463198
C97	C	1.165902	-0.770881	0.719573
C98	C	1.415902	-0.520881	0.969573
C99	C	1.665902	-0.270881	1.219573
C100	C	1.915902	-0.020881	1.469573
C101	C	1.157356	-0.940106	0.731181
C102	C	1.407356	-0.690106	0.981181
C103	C	1.657356	-0.440106	1.231181
C104	C	1.907356	-0.190106	1.481181
C105	C	1.205830	-0.983869	0.664952
C106	C	1.455830	-0.733869	0.914952
C107	C	1.705830	-0.483869	1.164952
C108	C	1.955830	-0.233869	1.414952
C109	C	1.201075	-1.078032	0.671411
C110	C	1.451075	-0.828032	0.921411
C111	C	1.701075	-0.578032	1.171411
C112	C	1.951075	-0.328032	1.421411
C113	C	1.162110	-0.845935	0.724724
C114	C	1.412110	-0.595935	0.974724
C115	C	1.662110	-0.345935	1.224724
C116	C	1.912110	-0.095935	1.474724
C117	C	1.398410	-0.472568	0.714923
C118	C	1.648410	-0.222568	0.964923
C119	C	1.898410	0.027432	1.214923
C120	C	2.148410	0.277432	1.464923
C121	C	1.490839	-0.477259	0.722032
C122	C	1.740839	-0.227259	0.972032
C123	C	1.990839	0.022741	1.222032
C124	C	2.240839	0.272741	1.472032
C125	C	1.181479	-0.461550	1.010062
C126	C	1.431479	-0.211550	1.260062
C127	C	1.681479	0.038450	1.510062
C128	C	1.931479	0.288450	1.760062
C129	C	1.181539	-0.461578	1.143468
C130	C	1.431539	-0.211578	1.393468
C131	C	1.681539	0.038422	1.643468
C132	C	1.931539	0.288422	1.893468
C133	C	1.192461	-0.245509	0.683257
C134	C	1.442461	0.004491	0.933257
C135	C	1.692461	0.254491	1.183257
C136	C	1.942461	0.504491	1.433257
C137	C	1.197286	-0.153090	0.676557
C138	C	1.447286	0.096910	0.926557
C139	C	1.697286	0.346910	1.176557
C140	C	1.947286	0.596910	1.426557
C141	C	1.181566	-0.461585	0.385204
C142	C	1.431566	-0.211585	0.635204
C143	C	1.681566	0.038415	0.885204
C144	C	1.931566	0.288415	1.135204
C145	C	1.181589	-0.461597	0.251806
C146	C	1.431589	-0.211597	0.501806
C147	C	1.681589	0.038403	0.751806
C148	C	1.931589	0.288403	1.001806
H149	H	0.670514	-0.392418	0.593362
H150	H	0.920514	-0.142418	0.843362
H151	H	1.170514	0.107582	1.093362
H152	H	1.420514	0.357582	1.343362
H153	H	0.693348	-0.530763	0.803216
H154	H	0.943348	-0.280763	1.053216
H155	H	1.193348	-0.030763	1.303216
H156	H	1.443348	0.219237	1.553216
Cl157	Cl	1.275435	-0.932536	0.569948
Cl158	Cl	1.525435	-0.682536	0.819948
Cl159	Cl	1.775435	-0.432536	1.069948
Cl160	Cl	2.025435	-0.182536	1.319948
Cl161	Cl	1.087779	-0.991442	0.826213
Cl162	Cl	1.337779	-0.741442	1.076213
Cl163	Cl	1.587779	-0.491442	1.326213
Cl164	Cl	1.837779	-0.241442	1.576213
