data_functionalizedCrystal
_audit_creation_method	'MofGen! by Chris Wilmer'
_symmetry_space_group_name_H-M	'P1'
_symmetry_Int_Tables_number	1
_symmetry_cell_setting	triclinic
loop_
_symmetry_equiv_pos_as_xyz
  x,y,z
_cell_length_a	8.497365
_cell_length_b	19.077212
_cell_length_c	19.077068
_cell_angle_alpha	85.291979
_cell_angle_beta	87.757695
_cell_angle_gamma	87.662768
loop_
_atom_site_label
_atom_site_type_symbol
_atom_site_fract_x
_atom_site_fract_y
_atom_site_fract_z
Zn1	Zn	-1.009644	1.066586	0.237253
Zn2	Zn	-0.755998	1.061725	0.355202
Zn3	Zn	-0.735646	0.948660	0.242058
Zn4	Zn	-1.009501	0.943922	0.359831
O5	O	-0.877697	1.005223	0.298586
O6	O	-0.984574	1.164595	0.248951
O7	O	-0.532538	1.046676	0.340267
O8	O	-0.763534	0.968321	0.142770
O9	O	-0.798222	1.161023	0.335608
O10	O	-0.964839	1.054960	0.139240
O11	O	-0.517585	0.963607	0.257141
O12	O	-0.763396	0.849378	0.261629
O13	O	-1.230281	0.960245	0.343497
O14	O	-0.964596	0.845897	0.348156
O15	O	-1.230385	1.050366	0.253440
O16	O	-0.798084	1.042081	0.454466
O17	O	-0.984331	0.955532	0.457867
C18	C	-0.861773	0.822058	0.305917
C19	C	-0.854999	0.743698	0.309070
C20	C	-0.893437	0.997784	0.481745
C21	C	-0.900229	0.994666	0.560099
C22	C	-0.806489	0.302417	0.331655
C23	C	-0.812841	0.376044	0.328688
C24	C	-0.913211	0.414716	0.282161
C25	C	-1.007224	0.379757	0.238593
C26	C	-1.000862	0.306132	0.241556
C27	C	-0.942651	0.635114	0.268465
C28	C	-0.949008	0.708745	0.265507
C29	C	-0.754622	0.705026	0.355601
C30	C	-0.748277	0.631399	0.358563
C31	C	-0.842283	0.596447	0.314993
N32	N	-0.919710	0.489975	0.279130
N33	N	-0.835775	0.521189	0.318021
C34	C	-0.467819	1.005169	0.298665
C35	C	-0.289172	1.005276	0.298516
C36	C	-0.893685	1.189104	0.291227
C37	C	-0.900498	1.267463	0.288091
C38	C	-0.861932	1.012711	0.114711
C39	C	-0.855214	1.015902	0.036355
C40	C	-0.806537	1.038298	0.595114
C41	C	-0.812935	1.035369	0.668735
C42	C	-0.913017	0.988805	0.707340
C43	C	-1.006719	0.945171	0.672320
C44	C	-1.000328	0.948104	0.598700
C45	C	-0.942526	0.975201	0.927714
C46	C	-0.948906	0.972270	1.001339
C47	C	-0.755123	1.062470	0.997750
C48	C	-0.748735	1.065395	0.924128
C49	C	-0.842443	1.021764	0.889114
N50	N	-0.919555	0.985808	0.782593
N51	N	-0.835912	1.024764	0.813862
H52	H	-0.736286	0.404500	0.364161
H53	H	-0.666543	0.599917	0.396450
N54	N	-0.654070	1.109536	1.035509
H55	H	-0.539277	1.099111	1.023200
H56	H	-0.673427	1.100597	1.087993
N57	N	-0.653227	0.742724	0.402590
H58	H	-0.672480	0.795234	0.393654
H59	H	-0.538540	0.730262	0.392089
H60	H	-0.724764	0.270935	0.369546
N61	N	-1.115495	0.421470	0.188419
H62	H	-1.085761	0.410698	0.138553
H63	H	-1.105213	0.473399	0.193221
N64	N	-1.101365	0.901035	0.560933
H65	H	-1.082133	0.909959	0.508437
H66	H	-1.216119	0.911480	0.573294
N67	N	-1.102245	0.268428	0.194566
H68	H	-1.166795	0.304097	0.164641
H69	H	-1.174977	0.236737	0.224514
N70	N	-0.698585	1.088519	0.553478
H71	H	-0.640208	1.115716	0.586834
H72	H	-0.763042	1.122353	0.521565
H73	H	-1.019205	0.606665	0.232990
N74	N	-1.057274	0.750458	0.215324
H75	H	-1.115861	0.717145	0.188170
H76	H	-0.993009	0.782311	0.181451
H77	H	-0.736640	1.070898	0.697241
N78	N	-0.640814	1.115628	0.882491
H79	H	-0.582439	1.142830	0.915844
H80	H	-0.705295	1.149458	0.850583
H81	H	-1.030433	0.934360	1.032769
H82	H	-1.018823	0.939674	0.899212
N83	N	-1.114672	0.894949	0.713954
H84	H	-1.104500	0.899709	0.765906
H85	H	-1.084535	0.845115	0.703156
