data_functionalizedCrystal
_audit_creation_method	'MofGen! by Chris Wilmer'
_symmetry_space_group_name_H-M	'P1'
_symmetry_Int_Tables_number	1
_symmetry_cell_setting	triclinic
loop_
_symmetry_equiv_pos_as_xyz
  x,y,z
_cell_length_a	15.995363
_cell_length_b	15.072220
_cell_length_c	10.540514
_cell_angle_alpha	90.006225
_cell_angle_beta	95.993722
_cell_angle_gamma	89.999192
loop_
_atom_site_label
_atom_site_type_symbol
_atom_site_fract_x
_atom_site_fract_y
_atom_site_fract_z
O1	O	-1.111947	0.073711	0.163703
O2	O	-0.868293	0.073727	0.183891
O3	O	-0.995690	0.073720	-0.010988
O4	O	-0.984550	0.073718	0.358582
O5	O	-0.995681	-0.073845	-0.011011
O6	O	-0.868284	-0.073839	0.183868
O7	O	-1.111938	-0.073854	0.163679
Zn8	Zn	-0.990110	-0.097275	0.173770
Zn9	Zn	-0.990121	0.097148	0.173801
O10	O	-0.984541	-0.073847	0.358558
C11	C	-0.837089	-0.000054	0.183042
C12	C	-0.744124	-0.000048	0.180532
N13	N	-0.990108	-0.229964	0.173748
C14	C	-0.990122	-0.589166	0.173791
C15	C	-1.058514	-0.551535	0.069863
C16	C	-1.058332	-0.448709	0.069480
C17	C	-0.990116	-0.410962	0.173770
C18	C	-0.902588	-0.448299	0.144837
C19	C	-0.902992	-0.551156	0.144103
C20	C	-1.008471	-0.551244	0.306958
C21	C	-1.010449	-0.448380	0.306066
C22	C	-0.990107	-0.310248	0.173760
C23	C	-0.990125	-0.689879	0.173798
C24	C	-0.406325	-0.000069	0.171516
C25	C	-0.452937	-0.000398	0.032724
C26	C	-0.549642	-0.000058	0.035235
C27	C	-0.573911	-0.000059	0.175988
C28	C	-0.533234	0.084203	0.244457
C29	C	-0.436579	0.084267	0.240964
C30	C	-0.436247	-0.083542	0.243805
C31	C	-0.533191	-0.084649	0.243778
C32	C	-0.668623	-0.000051	0.178523
C33	C	-0.311613	-0.000072	0.168985
C34	C	-0.143143	-0.000074	0.164512
C35	C	-0.236112	-0.000081	0.166972
C36	C	-0.994854	-0.000061	-0.058292
C37	C	-0.992368	-0.000054	-0.199207
N38	N	-0.990129	0.229837	0.173813
C39	C	-1.083481	-0.000062	-0.271159
C40	C	-1.080926	-0.000402	-0.417737
C41	C	-0.942812	-0.084161	-0.390878
C42	C	-0.946013	-0.084226	-0.244383
C43	C	-0.944675	0.083590	-0.243939
C44	C	-0.943796	0.084689	-0.390906
C45	C	-0.985377	-0.000065	0.405862
C46	C	-0.987862	-0.000066	0.546778
H47	H	-1.123370	-0.423464	0.086709
Br48	Br	-0.925361	-0.591808	0.435865
H49	H	-1.070975	-0.577183	0.334765
H50	H	-0.975006	0.147352	-0.212848
H51	H	-1.046527	-0.424110	-0.029345
Br52	Br	-1.167283	-0.592748	0.098119
Br53	Br	-0.405572	0.189253	0.157772
Br54	Br	-0.828884	-0.088975	-0.426503
Br55	Br	-0.401571	-0.189997	0.168154
H56	H	-0.405091	-0.084113	0.346136
Br57	Br	-0.580059	0.188731	0.165232
H58	H	-0.978909	-0.147333	-0.216617
Br59	Br	-0.383830	0.090638	0.410798
H60	H	-1.046876	-0.577392	-0.028400
Br61	Br	-0.596493	-0.100734	-0.054469
Br62	Br	-0.421509	-0.101118	-0.059768
Br63	Br	-0.419736	0.099757	-0.059321
H64	H	-0.879084	-0.087808	-0.195462
Br65	Br	-0.595520	0.100972	-0.054639
Br66	Br	-0.875204	-0.405379	-0.015189
H67	H	-0.850435	-0.423849	0.218517
H68	H	-1.074842	-0.423978	0.328020
Br69	Br	-0.578103	-0.188549	0.160329
Br70	Br	-0.559805	-0.093135	0.414861
Br71	Br	-0.932904	-0.405553	0.441013
Br72	Br	-0.557821	0.089449	0.416799
H73	H	-1.116360	0.059866	-0.460878
Br74	Br	-0.815553	-0.592654	0.265463
Br75	Br	-0.876236	-0.591161	-0.017765
Br76	Br	-1.145096	0.100442	-0.224434
Br77	Br	-0.830770	0.093651	-0.429820
Br78	Br	-1.144184	-0.100431	-0.221624
Br79	Br	-1.139719	-0.101478	-0.488122
Br80	Br	-0.994308	-0.188881	-0.462535
H81	H	-0.976719	0.146904	-0.432343
H82	H	-0.877465	0.084398	-0.195779
