data_functionalizedCrystal
_audit_creation_method	'MofGen! by Chris Wilmer'
_symmetry_space_group_name_H-M	'P1'
_symmetry_Int_Tables_number	1
_symmetry_cell_setting	triclinic
loop_
_symmetry_equiv_pos_as_xyz
  x,y,z
_cell_length_a	10.654550
_cell_length_b	14.519731
_cell_length_c	9.130313
_cell_angle_alpha	89.994496
_cell_angle_beta	89.999724
_cell_angle_gamma	84.086892
loop_
_atom_site_label
_atom_site_type_symbol
_atom_site_fract_x
_atom_site_fract_y
_atom_site_fract_z
O1	O	1.666607	0.129531	-0.121694
O2	O	1.301012	0.141872	-0.121721
O3	O	1.493489	0.001515	-0.121693
O4	O	1.474130	0.269888	-0.121721
O5	O	1.493476	0.001510	0.121906
O6	O	1.300998	0.141868	0.121878
O7	O	1.666594	0.129527	0.121905
Cu8	Cu	1.483795	0.135697	0.144134
Cu9	Cu	1.483811	0.135702	-0.143950
O10	O	1.474117	0.269884	0.121877
C11	C	1.254216	0.140964	0.000075
C12	C	1.114798	0.138253	0.000065
C13	C	1.034527	0.220893	0.000061
C14	C	0.903530	0.218340	0.000086
C15	C	0.933090	0.050500	0.000115
C16	C	1.064084	0.053053	0.000100
C17	C	1.492575	-0.032852	0.000106
C18	C	1.489857	-0.135246	0.000107
C19	C	1.487648	-0.218402	0.000104
C20	C	1.484889	-0.322725	0.000092
C21	C	1.482698	-0.405875	0.000083
C22	C	1.479939	-0.510205	0.000074
C23	C	1.713390	0.130435	0.000106
C24	C	1.852808	0.133146	0.000106
C25	C	1.475031	0.304251	0.000075
C26	C	1.477749	0.406645	0.000064
N27	N	1.483793	0.135693	0.346757
N28	N	1.483822	0.135699	-0.346572
C29	C	1.569051	0.073569	0.423421
C30	C	1.569063	0.073569	0.576758
C31	C	1.398556	0.197825	0.576753
C32	C	1.398539	0.197820	0.423419
H33	H	1.129445	-0.014246	0.000108
H34	H	1.075814	0.290268	0.000044
C35	C	0.815236	0.309251	0.000089
N36	N	0.748733	0.377730	0.000094
H37	H	1.638486	0.022981	0.639173
H38	H	0.891781	-0.018867	0.000152
C39	C	1.662823	0.005220	0.339098
N40	N	1.733452	-0.046265	0.275590
H41	H	1.329145	0.248409	0.639186
C42	C	1.304801	0.266207	0.339083
N43	N	1.234220	0.317728	0.275562
