data_functionalizedCrystal
_audit_creation_method	'MofGen! by Chris Wilmer'
_symmetry_space_group_name_H-M	'P1'
_symmetry_Int_Tables_number	1
_symmetry_cell_setting	triclinic
loop_
_symmetry_equiv_pos_as_xyz
  x,y,z
_cell_length_a	19.188930
_cell_length_b	19.188924
_cell_length_c	17.666332
_cell_angle_alpha	90.008552
_cell_angle_beta	90.023234
_cell_angle_gamma	83.143372
loop_
_atom_site_label
_atom_site_type_symbol
_atom_site_fract_x
_atom_site_fract_y
_atom_site_fract_z
O1	O	-0.926147	-0.087169	-0.063195
O2	O	-0.426147	0.412831	0.436805
O3	O	-0.722836	-0.098903	-0.063144
O4	O	-0.222836	0.401097	0.436856
O5	O	-0.830361	0.008620	-0.063162
O6	O	-0.330361	0.508620	0.436838
O7	O	-0.818622	-0.194692	-0.063177
O8	O	-0.318622	0.305308	0.436823
O9	O	-0.830343	0.008625	0.062735
O10	O	-0.330343	0.508625	0.562735
O11	O	-0.722817	-0.098898	0.062753
O12	O	-0.222817	0.401102	0.562753
O13	O	-0.926129	-0.087163	0.062702
O14	O	-0.426129	0.412837	0.562702
Cu15	Cu	-0.824471	-0.093030	0.074223
Cu16	Cu	-0.324471	0.406970	0.574223
Cu17	Cu	-0.824493	-0.093037	-0.074665
Cu18	Cu	-0.324493	0.406963	0.425335
O19	O	-0.818603	-0.194687	0.062720
O20	O	-0.318603	0.305313	0.562720
C21	C	-0.696815	-0.098521	-0.000189
C22	C	-0.196815	0.401479	0.499811
C23	C	-0.619311	-0.097380	-0.000169
C24	C	-0.119311	0.402620	0.499831
C25	C	-0.952149	-0.087546	-0.000255
C26	C	-0.452149	0.412454	0.499745
C27	C	-1.029654	-0.088687	-0.000280
C28	C	-0.529654	0.411313	0.499720
C29	C	-0.829973	0.034634	-0.000213
C30	C	-0.329973	0.534634	0.499787
C31	C	-0.828834	0.112138	-0.000210
C32	C	-0.328834	0.612138	0.499790
C33	C	-0.574386	-0.160471	-0.000185
C34	C	-0.074386	0.339529	0.499815
C35	C	-0.501562	-0.159399	-0.000193
C36	C	-0.001562	0.340601	0.499807
C37	C	-0.473667	-0.095233	-0.000200
C38	C	0.026333	0.404767	0.499800
C39	C	-0.518602	-0.032134	-0.000180
C40	C	-0.018602	0.467866	0.499820
C41	C	-0.591424	-0.033207	-0.000164
C42	C	-0.091424	0.466793	0.499836
N43	N	-0.365694	-0.046188	-0.043075
N44	N	0.134306	0.453812	0.456925
N45	N	-0.296516	-0.045172	-0.043092
N46	N	0.203484	0.454828	0.456908
C47	C	-0.254258	-0.091995	-0.000246
C48	C	0.245742	0.408005	0.499754
N49	N	-0.283791	-0.139882	0.042607
N50	N	0.216209	0.360118	0.542607
N51	N	-0.352976	-0.140899	0.042620
N52	N	0.147024	0.359101	0.542620
C53	C	-0.394704	-0.094062	-0.000217
C54	C	0.105296	0.405938	0.499783
C55	C	-0.130368	-0.153928	-0.000271
C56	C	0.369632	0.346072	0.499729
C57	C	-0.057543	-0.152854	-0.000274
C58	C	0.442457	0.347146	0.499726
C59	C	-0.074585	-0.025586	-0.000268
C60	C	0.425415	0.474414	0.499732
C61	C	-0.147409	-0.026663	-0.000257
C62	C	0.352591	0.473337	0.499743
C63	C	-0.175295	-0.090835	-0.000262
C64	C	0.324705	0.409165	0.499738
C65	C	-0.818992	-0.220700	-0.000231
C66	C	-0.318992	0.279300	0.499769
C67	C	-0.820131	-0.298205	-0.000238
C68	C	-0.320131	0.201795	0.499762
C69	C	-0.828313	0.148534	-0.068837
C70	C	-0.328313	0.648534	0.431163
C71	C	-0.827233	0.221357	-0.068842
C72	C	-0.327233	0.721357	0.431158
C73	C	-0.826688	0.257783	-0.000217
C74	C	-0.326688	0.757783	0.499783
C75	C	-0.827205	0.221378	0.068418
C76	C	-0.327205	0.721378	0.568418
C77	C	-0.828278	0.148556	0.068421
C78	C	-0.328278	0.648556	0.568421
N79	N	-0.864728	0.377448	0.050849
N80	N	-0.364728	0.877448	0.550849
N81	N	-0.863710	0.446627	0.050841
N82	N	-0.363710	0.946627	0.550841
C83	C	-0.823454	0.477192	-0.000224
C84	C	-0.323454	0.977192	0.499776
N85	N	-0.784262	0.435967	-0.051292
N86	N	-0.284262	0.935967	0.448708
N87	N	-0.785283	0.366783	-0.051286
N88	N	-0.285283	0.866783	0.448714
C89	C	-0.825524	0.336746	-0.000214
C90	C	-0.325524	0.836746	0.499786
C91	C	-0.821761	0.592550	-0.068861
C92	C	-0.321761	1.092550	0.431139
C93	C	-0.820676	0.665374	-0.068864
C94	C	-0.320676	1.165374	0.431136
C95	C	-0.820656	0.665394	0.068399
C96	C	-0.320656	1.165394	0.568399
C97	C	-0.821734	0.592571	0.068399
C98	C	-0.321734	1.092571	0.568399
C99	C	-0.822289	0.556154	-0.000233
C100	C	-0.322289	1.056154	0.499767
N101	N	-0.824461	-0.093025	0.178942
N102	N	-0.324461	0.406975	0.678942
N103	N	-0.824509	-0.093036	-0.179384
N104	N	-0.324509	0.406964	0.320616
C105	C	-0.872088	-0.045437	0.218544
C106	C	-0.372088	0.454563	0.718544
C107	C	-0.872092	-0.045433	0.297791
C108	C	-0.372092	0.454567	0.797791
C109	C	-0.824475	-0.093030	0.337434
C110	C	-0.324475	0.406970	0.837434
C111	C	-0.776839	-0.140622	0.297823
C112	C	-0.276839	0.359378	0.797823
C113	C	-0.776831	-0.140619	0.218577
C114	C	-0.276831	0.359381	0.718577
N115	N	-0.815398	-0.154838	0.461850
N116	N	-0.315398	0.345162	0.961850
N117	N	-0.815409	-0.154838	0.537130
N118	N	-0.315409	0.345162	1.037130
C119	C	-0.824494	-0.093040	0.576198
C120	C	-0.324494	0.406960	1.076198
N121	N	-0.833581	-0.031239	0.537142
N122	N	-0.333581	0.468761	1.037142
N123	N	-0.833573	-0.031240	0.461855
N124	N	-0.333573	0.468760	0.961855
C125	C	-0.824478	-0.093038	0.423363
C126	C	-0.324478	0.406962	0.923363
C127	C	-0.872128	-0.045444	0.701729
C128	C	-0.372128	0.454556	1.201729
C129	C	-0.872128	-0.045440	0.780978
C130	C	-0.372128	0.454560	1.280978
C131	C	-0.776878	-0.140634	0.781009
C132	C	-0.276878	0.359366	1.281009
C133	C	-0.776875	-0.140633	0.701761
C134	C	-0.276875	0.359367	1.201761
C135	C	-0.824504	-0.093038	0.662126
C136	C	-0.324504	0.406962	1.162126
H137	H	-0.464976	-0.210777	-0.000205
H138	H	0.035024	0.289223	0.499795
H139	H	-0.822209	0.562898	-0.124745
H140	H	-0.322209	1.062898	0.375255
H141	H	-0.828763	0.118888	-0.124722
H142	H	-0.328763	0.618888	0.375278
O143	O	-0.828816	0.113309	0.135156
O144	O	-0.328816	0.613309	0.635156
C145	C	-0.828081	0.161068	0.195728
C146	C	-0.328081	0.661068	0.695728
H147	H	-0.849418	0.215935	0.175604
H148	H	-0.349418	0.715935	0.675604
H149	H	-0.862271	0.144572	0.243721
H150	H	-0.362271	0.644572	0.743721
H151	H	-0.771961	0.161316	0.216840
H152	H	-0.271961	0.661316	0.716840
O153	O	-0.047381	0.036684	-0.000310
O154	O	0.452619	0.536684	0.499690
C155	C	0.026528	0.024105	-0.000306
C156	C	0.526528	0.524105	0.499694
H157	H	0.043784	-0.030436	-0.024144
H158	H	0.543784	0.469564	0.475856
H159	H	0.048743	0.065148	-0.036862
H160	H	0.548743	0.565148	0.463138
H161	H	0.046822	0.027431	0.060089
H162	H	0.546822	0.527431	0.560089
H163	H	-0.910869	-0.006681	0.186275
H164	H	-0.410869	0.493319	0.686275
O165	O	-0.157498	-0.216243	-0.000397
O166	O	0.342502	0.283757	0.499603
C167	C	-0.199160	-0.220673	-0.065582
C168	C	0.300840	0.279327	0.434418
H169	H	-0.182071	-0.184248	-0.111162
H170	H	0.317929	0.315752	0.388838
H171	H	-0.192466	-0.276966	-0.087465
H172	H	0.307534	0.223034	0.412535
H173	H	-0.256632	-0.204386	-0.050831
H174	H	0.243368	0.295614	0.449169
O175	O	-0.918424	0.000825	0.336154
O176	O	-0.418424	0.500825	0.836154
C177	C	-0.960444	0.042849	0.284178
C178	C	-0.460444	0.542849	0.784178
H179	H	-0.961143	0.014228	0.227682
H180	H	-0.461143	0.514228	0.727682
H181	H	-1.016234	0.053639	0.307051
H182	H	-0.516234	0.553639	0.807051
H183	H	-0.937935	0.094661	0.275772
H184	H	-0.437935	0.594661	0.775772
O185	O	-0.491475	0.030180	-0.000323
O186	O	0.008525	0.530180	0.499677
C187	C	-0.449886	0.034598	-0.065527
C188	C	0.050114	0.534598	0.434473
H189	H	-0.467024	-0.001836	-0.111097
H190	H	0.032976	0.498164	0.388903
H191	H	-0.456607	0.090888	-0.087410
H192	H	0.043393	0.590888	0.412590
H193	H	-0.392398	0.018317	-0.050801
H194	H	0.107602	0.518317	0.449199
O195	O	-0.826581	0.256822	0.135033
O196	O	-0.326581	0.756822	0.635033
C197	C	-0.765497	0.290838	0.139158
C198	C	-0.265497	0.790838	0.639158
H199	H	-0.745193	0.299042	0.079576
H200	H	-0.245193	0.799042	0.579576
H201	H	-0.778334	0.343871	0.168200
H202	H	-0.278334	0.843871	0.668200
H203	H	-0.723569	0.257110	0.173033
H204	H	-0.223569	0.757110	0.673033
O205	O	-0.820210	0.700628	-0.135599
O206	O	-0.320210	1.200628	0.364401
C207	C	-0.820918	0.652864	-0.196169
C208	C	-0.320918	1.152864	0.303831
H209	H	-0.843773	0.603915	-0.176047
H210	H	-0.343773	1.103915	0.323953
H211	H	-0.854516	0.678435	-0.244168
H212	H	-0.354516	1.178435	0.255832
H213	H	-0.765038	0.637621	-0.217272
H214	H	-0.265038	1.137621	0.282728
O215	O	-0.730712	-0.186898	0.663206
O216	O	-0.230712	0.313102	1.163206
C217	C	-0.767966	-0.229891	0.617355
C218	C	-0.267966	0.270109	1.117355
H219	H	-0.822683	-0.201943	0.605458
H220	H	-0.322683	0.298057	1.105458
H221	H	-0.738787	-0.241012	0.561643
H222	H	-0.238787	0.258988	1.061643
H223	H	-0.772555	-0.281480	0.647886
H224	H	-0.272555	0.218520	1.147886
H225	H	-0.820208	0.695051	0.124274
H226	H	-0.320208	1.195051	0.624274
H227	H	-0.020965	-0.204232	-0.000283
H228	H	0.479035	0.295768	0.499717
O229	O	-0.730556	-0.186762	0.336413
O230	O	-0.230556	0.313238	0.836413
C231	C	-0.687597	-0.149476	0.382272
C232	C	-0.187597	0.350524	0.882272
H233	H	-0.715578	-0.094772	0.394139
H234	H	-0.215578	0.405228	0.894139
H235	H	-0.676468	-0.178648	0.437998
H236	H	-0.176468	0.321352	0.937998
H237	H	-0.636009	-0.144856	0.351763
H238	H	-0.136009	0.355144	0.851763
O239	O	-0.918319	0.000867	0.663231
O240	O	-0.418319	0.500867	1.163231
C241	C	-0.907223	0.069972	0.682591
C242	C	-0.407223	0.569972	1.182591
H243	H	-0.851337	0.070202	0.704420
H244	H	-0.351337	0.570202	1.204420
H245	H	-0.915354	0.105005	0.630455
H246	H	-0.415354	0.605005	1.130455
H247	H	-0.946006	0.090590	0.728550
H248	H	-0.446006	0.590590	1.228550
O249	O	-0.601500	-0.222792	-0.000330
O250	O	-0.101500	0.277208	0.499670
C251	C	-0.643157	-0.227211	-0.065521
C252	C	-0.143157	0.272789	0.434479
H253	H	-0.626076	-0.190765	-0.111084
H254	H	-0.126076	0.309235	0.388916
H255	H	-0.636447	-0.283497	-0.087425
H256	H	-0.136447	0.216503	0.412575
H257	H	-0.700631	-0.210944	-0.050768
H258	H	-0.200631	0.289056	0.449232
O259	O	-0.190954	0.034689	-0.000283
O260	O	0.309046	0.534689	0.499717
C261	C	-0.150721	0.091556	-0.000271
C262	C	0.349279	0.591556	0.499729
H263	H	-0.096326	0.073666	-0.024118
H264	H	0.403674	0.573666	0.475882
H265	H	-0.177740	0.135747	-0.036816
H266	H	0.322260	0.635747	0.463184
H267	H	-0.145563	0.111238	0.060127
H268	H	0.354437	0.611238	0.560127
O269	O	-0.634969	0.028147	-0.000186
O270	O	-0.134969	0.528147	0.499814
C271	C	-0.594737	0.085014	-0.000171
C272	C	-0.094737	0.585014	0.499829
H273	H	-0.540341	0.067126	-0.024015
H274	H	-0.040341	0.567126	0.475985
H275	H	-0.621756	0.129205	-0.036717
H276	H	-0.121756	0.629205	0.463283
H277	H	-0.589583	0.104697	0.060228
H278	H	-0.089583	0.604697	0.560228
H279	H	-0.826804	0.250996	-0.124728
H280	H	-0.326804	0.750996	0.375272
H281	H	-0.822164	0.562938	0.124282
H282	H	-0.322164	1.062938	0.624282
O283	O	-0.730650	-0.186965	0.819425
O284	O	-0.230650	0.313035	1.319425
C285	C	-0.741792	-0.256055	0.800057
C286	C	-0.241792	0.243945	1.300057
H287	H	-0.768699	-0.255903	0.742505
H288	H	-0.268699	0.244097	1.242505
H289	H	-0.689204	-0.290569	0.797368
H290	H	-0.189204	0.209431	1.297368
H291	H	-0.776480	-0.277562	0.844636
H292	H	-0.276480	0.222438	1.344636
O293	O	-0.730540	-0.186919	0.180222
O294	O	-0.230540	0.313081	0.680222
C295	C	-0.688497	-0.228916	0.232200
C296	C	-0.188497	0.271084	0.732200
H297	H	-0.717120	-0.229636	0.288676
H298	H	-0.217120	0.270364	0.788676
H299	H	-0.677670	-0.284702	0.209298
H300	H	-0.177670	0.215298	0.709298
H301	H	-0.636704	-0.206372	0.240657
H302	H	-0.136704	0.293628	0.740657
O303	O	-0.918423	0.000694	0.819535
O304	O	-0.418423	0.500694	1.319535
C305	C	-0.961387	-0.036598	0.865332
C306	C	-0.461387	0.463402	1.365332
H307	H	-0.933404	-0.091301	0.877207
H308	H	-0.433404	0.408699	1.377207
H309	H	-0.972528	-0.007429	0.921058
H310	H	-0.472528	0.492571	1.421058
H311	H	-1.012969	-0.041219	0.834765
H312	H	-0.512969	0.458781	1.334765
