data_functionalizedCrystal
_audit_creation_method	'MofGen! by Chris Wilmer'
_symmetry_space_group_name_H-M	'P1'
_symmetry_Int_Tables_number	1
_symmetry_cell_setting	triclinic
loop_
_symmetry_equiv_pos_as_xyz
  x,y,z
_cell_length_a	10.489741
_cell_length_b	9.065218
_cell_length_c	8.140239
_cell_angle_alpha	90.002802
_cell_angle_beta	89.996756
_cell_angle_gamma	95.222470
loop_
_atom_site_label
_atom_site_type_symbol
_atom_site_fract_x
_atom_site_fract_y
_atom_site_fract_z
O1	O	0.187043	-1.959494	-0.136617
O2	O	0.202385	-1.530135	-0.136619
O3	O	0.009151	-1.754585	-0.136608
O4	O	0.380276	-1.735045	-0.136628
O5	O	0.009149	-1.754572	0.136619
O6	O	0.202383	-1.530123	0.136608
O7	O	0.187040	-1.959482	0.136610
Zn8	Zn	0.194711	-1.744800	0.179990
Zn9	Zn	0.194714	-1.744817	-0.179999
O10	O	0.380274	-1.735032	0.136599
C11	C	-0.038387	-1.753102	0.000004
C12	C	-0.180032	-1.748687	0.000001
C13	C	0.200909	-1.475149	-0.000006
C14	C	0.196501	-1.311328	-0.000006
C15	C	0.188516	-2.014467	-0.000007
C16	C	0.192925	-2.178289	-0.000017
C17	C	-0.248688	-1.605877	-0.000011
C18	C	-0.340568	-1.673333	0.134704
C19	C	-0.340540	-1.673379	-0.134676
C20	C	-0.270047	-1.816202	0.134828
C21	C	-0.270009	-1.816228	-0.134673
C22	C	-0.361862	-1.883788	0.000075
C23	C	0.427812	-1.736514	-0.000017
C24	C	0.569458	-1.740930	-0.000025
N25	N	0.194708	-1.744800	0.425672
N26	N	0.194707	-1.744829	-0.425681
H27	H	-0.371799	-1.612901	0.248596
O28	O	-0.377718	-1.601496	-0.270723
C29	C	-0.340006	-1.675548	-0.412533
H30	H	-0.327038	-1.795770	-0.380903
H31	H	-0.416767	-1.671857	-0.511206
H32	H	-0.245723	-1.618900	-0.460163
H33	H	-0.238998	-1.876571	0.248847
H34	H	-0.199461	-1.488459	0.000124
O35	O	-0.420273	-2.024013	0.000448
C36	C	-0.384290	-2.098735	0.142650
H37	H	-0.351998	-2.014375	0.241477
H38	H	-0.469509	-2.173958	0.189667
H39	H	-0.302268	-2.168296	0.111798
O40	O	-0.232525	-1.888066	-0.270590
C41	C	-0.146928	-1.791938	-0.362912
H42	H	-0.100503	-1.701434	-0.279408
H43	H	-0.069676	-1.857265	-0.418525
H44	H	-0.201385	-1.739385	-0.465456
