data_functionalizedCrystal
_audit_creation_method	'MofGen! by Chris Wilmer'
_symmetry_space_group_name_H-M	'P1'
_symmetry_Int_Tables_number	1
_symmetry_cell_setting	triclinic
loop_
_symmetry_equiv_pos_as_xyz
  x,y,z
_cell_length_a	10.723024
_cell_length_b	10.723024
_cell_length_c	9.798715
_cell_angle_alpha	90.002605
_cell_angle_beta	89.997513
_cell_angle_gamma	95.532131
loop_
_atom_site_label
_atom_site_type_symbol
_atom_site_fract_x
_atom_site_fract_y
_atom_site_fract_z
O1	O	1.657187	-0.175024	-0.113452
O2	O	1.294035	-0.191778	-0.113463
O3	O	1.483988	-0.001825	-0.113450
O4	O	1.467234	-0.364977	-0.113465
O5	O	1.483974	-0.001824	0.113532
O6	O	1.294021	-0.191777	0.113519
O7	O	1.657173	-0.175024	0.113530
Zn8	Zn	1.475595	-0.183401	0.149563
Zn9	Zn	1.475613	-0.183401	-0.149496
O10	O	1.467220	-0.364977	0.113517
C11	C	1.247528	-0.190558	0.000027
C12	C	1.108974	-0.186911	0.000023
C13	C	1.482762	0.044675	0.000040
C14	C	1.479114	0.183229	0.000037
N15	N	1.475591	-0.183399	0.353663
C16	C	1.703680	-0.176243	0.000038
C17	C	1.842234	-0.179891	0.000033
C18	C	1.917217	-0.073603	0.000035
C19	C	2.060420	-0.077371	0.000030
C20	C	1.585401	0.258212	0.000039
C21	C	1.581634	0.401415	0.000036
C22	C	1.468447	0.588523	0.000027
C23	C	1.472094	0.449969	0.000031
N24	N	1.475627	-0.183393	-0.353595
C25	C	1.555347	-0.103292	0.421445
C26	C	1.555367	-0.103288	0.578608
H27	H	1.875395	0.020182	0.000062
H28	H	1.385328	0.225051	0.000026
Br29	Br	1.361790	-0.297701	0.450854
Br30	Br	1.668819	0.011335	0.324254
Br31	Br	1.911926	-0.336217	0.000039
H32	H	1.623654	-0.034709	0.636898
Br33	Br	2.167804	0.074296	0.000017
H34	H	2.044549	-0.277906	0.000015
Br35	Br	1.733301	0.508799	0.000055
H36	H	1.679187	0.216390	0.000050
Br37	Br	1.320422	0.342592	0.000044
H38	H	1.407345	-0.251984	0.588124
