data_functionalizedCrystal
_audit_creation_method	'MofGen! by Chris Wilmer'
_symmetry_space_group_name_H-M	'P1'
_symmetry_Int_Tables_number	1
_symmetry_cell_setting	triclinic
loop_
_symmetry_equiv_pos_as_xyz
  x,y,z
_cell_length_a	16.959455
_cell_length_b	16.959454
_cell_length_c	16.959447
_cell_angle_alpha	89.973182
_cell_angle_beta	89.983056
_cell_angle_gamma	90.017022
loop_
_atom_site_label
_atom_site_type_symbol
_atom_site_fract_x
_atom_site_fract_y
_atom_site_fract_z
Zn1	Zn	1.208404	-0.314730	-0.446928
Zn2	Zn	1.708404	0.185270	0.053072
Zn3	Zn	1.208321	-0.446922	-0.314758
Zn4	Zn	1.708321	0.053078	0.185242
Zn5	Zn	1.076227	-0.314755	-0.314766
Zn6	Zn	1.576227	0.185245	0.185234
Zn7	Zn	1.076197	-0.446863	-0.446897
Zn8	Zn	1.576197	0.053137	0.053103
O9	O	1.142287	-0.380817	-0.380837
O10	O	1.642287	0.119183	0.119163
O11	O	1.319004	-0.332280	-0.429406
O12	O	1.819004	0.167720	0.070594
O13	O	1.190775	-0.429425	-0.204148
O14	O	1.690775	0.070575	0.295852
O15	O	1.093807	-0.204140	-0.332314
O16	O	1.593807	0.295860	0.167686
O17	O	1.318943	-0.429401	-0.332301
O18	O	1.818943	0.070599	0.167699
O19	O	1.190918	-0.204122	-0.429413
O20	O	1.690918	0.295878	0.070587
O21	O	1.093726	-0.332322	-0.204154
O22	O	1.593726	0.167678	0.295846
O23	O	0.965612	-0.332265	-0.332283
O24	O	1.465612	0.167735	0.167717
O25	O	1.093758	-0.429300	-0.557512
O26	O	1.593758	0.070700	-0.057512
O27	O	0.965590	-0.429324	-0.429359
O28	O	1.465590	0.070676	0.070641
O29	O	1.190889	-0.332222	-0.557535
O30	O	1.690889	0.167778	-0.057535
O31	O	1.190747	-0.557525	-0.332270
O32	O	1.690747	-0.057525	0.167730
O33	O	1.093677	-0.557482	-0.429352
O34	O	1.593677	-0.057482	0.070648
C35	C	0.936921	-0.380791	-0.380819
C36	C	1.436921	0.119209	0.119181
C37	C	0.849064	-0.380799	-0.380830
C38	C	1.349064	0.119201	0.119170
C39	C	0.477576	-0.330237	-0.330395
C40	C	0.977576	0.169763	0.169605
C41	C	0.477602	-0.431463	-0.431324
C42	C	0.977602	0.068537	0.068676
C43	C	0.560148	-0.431451	-0.431320
C44	C	1.060148	0.068549	0.068680
C45	C	0.601411	-0.380833	-0.380851
C46	C	1.101411	0.119167	0.119149
C47	C	0.560129	-0.330226	-0.330387
C48	C	1.060129	0.169774	0.169613
C49	C	0.601436	-0.482063	-0.481777
C50	C	1.101436	0.017937	0.018223
C51	C	0.683987	-0.482055	-0.481773
C52	C	1.183987	0.017945	0.018227
C53	C	0.725252	-0.431432	-0.431308
C54	C	1.225252	0.068568	0.068692
C55	C	0.683965	-0.380822	-0.380843
C56	C	1.183965	0.119178	0.119157
C57	C	0.725228	-0.330203	-0.330374
C58	C	1.225228	0.169797	0.169626
C59	C	0.683943	-0.279589	-0.279913
C60	C	1.183943	0.220411	0.220087
C61	C	0.601394	-0.279603	-0.279922
C62	C	1.101394	0.220397	0.220078
C63	C	0.807801	-0.431418	-0.431299
C64	C	1.307801	0.068582	0.068701
C65	C	0.807782	-0.330192	-0.330366
C66	C	1.307782	0.169808	0.169634
C67	C	1.142221	-0.586184	-0.380824
C68	C	1.642221	-0.086184	0.119176
C69	C	1.142265	-0.674040	-0.380844
C70	C	1.642265	-0.174040	0.119156
C71	C	1.091816	-1.045523	-0.431382
C72	C	1.591816	-0.545523	0.068618
C73	C	1.192979	-1.045509	-0.330373
C74	C	1.692979	-0.545509	0.169627
C75	C	1.192951	-0.962963	-0.330365
C76	C	1.692951	-0.462963	0.169635
C77	C	1.142354	-0.921693	-0.380867
C78	C	1.642354	-0.421693	0.119133
C79	C	1.091785	-0.962970	-0.431375
C80	C	1.591785	-0.462970	0.068625
C81	C	1.243514	-0.921680	-0.279852
C82	C	1.743514	-0.421680	0.220148
C83	C	1.243487	-0.839129	-0.279842
C84	C	1.743487	-0.339129	0.220158
C85	C	1.192894	-0.797858	-0.330348
C86	C	1.692894	-0.297858	0.169652
C87	C	1.142323	-0.839140	-0.380859
C88	C	1.642323	-0.339140	0.119141
C89	C	1.091727	-0.797870	-0.431360
C90	C	1.591727	-0.297870	0.068640
C91	C	1.041160	-0.839150	-0.481876
C92	C	1.541160	-0.339150	0.018124
C93	C	1.041192	-0.921699	-0.481881
C94	C	1.541192	-0.421699	0.018119
C95	C	1.192862	-0.715310	-0.330343
C96	C	1.692862	-0.215310	0.169657
C97	C	1.091696	-0.715317	-0.431353
C98	C	1.591696	-0.215317	0.068647
C99	C	1.348455	-0.380844	-0.380856
C100	C	1.848455	0.119156	0.119144
C101	C	1.436312	-0.380856	-0.380864
C102	C	1.936312	0.119144	0.119136
C103	C	1.142330	-0.380752	-0.587006
C104	C	1.642330	0.119248	-0.087006
C105	C	1.142348	-0.380724	-0.674862
C106	C	1.642348	0.119276	-0.174862
C107	C	1.142375	-0.174649	-0.380868
C108	C	1.642375	0.325351	0.119132
C109	C	1.142413	-0.086793	-0.380881
C110	C	1.642413	0.413207	0.119119
C111	C	1.091888	-0.330083	-1.046347
C112	C	1.591888	0.169917	-0.546347
C113	C	1.192946	-0.431198	-1.046329
C114	C	1.692946	0.068802	-0.546329
C115	C	1.192932	-0.431216	-0.963783
C116	C	1.692932	0.068784	-0.463783
C117	C	1.142395	-0.380668	-0.922515
C118	C	1.642395	0.119332	-0.422515
C119	C	1.091871	-0.330102	-0.963794
C120	C	1.591871	0.169898	-0.463794
C121	C	1.243449	-0.481787	-0.922498
C122	C	1.743449	0.018213	-0.422498
C123	C	1.243437	-0.481808	-0.839947
C124	C	1.743437	0.018192	-0.339947
C125	C	1.192903	-0.431256	-0.798678
C126	C	1.692903	0.068744	-0.298678
C127	C	1.142378	-0.380687	-0.839962
C128	C	1.642378	0.119313	-0.339962
C129	C	1.091841	-0.330139	-0.798694
C130	C	1.591841	0.169861	-0.298694
C131	C	1.041319	-0.279565	-0.839976
C132	C	1.541319	0.220435	-0.339976
C133	C	1.041337	-0.279549	-0.922525
C134	C	1.541337	0.220451	-0.422525
C135	C	1.192885	-0.431272	-0.716130
C136	C	1.692885	0.068728	-0.216130
C137	C	1.091824	-0.330157	-0.716141
C138	C	1.591824	0.169843	-0.216141
C139	C	1.142291	-0.380826	-0.175471
C140	C	1.642291	0.119174	0.324529
C141	C	1.142426	-0.380631	-0.087615
C142	C	1.642426	0.119369	0.412385
H143	H	0.567834	-0.523280	-0.522860
H144	H	1.067834	-0.023280	-0.022860
C145	C	0.985769	-0.223927	-0.967935
C146	C	1.485769	0.276073	-0.467935
H147	H	0.993012	-0.231163	-1.023008
H148	H	1.493012	0.268837	-0.523008
H149	H	0.997356	-0.170823	-0.954424
H150	H	1.497356	0.329177	-0.454424
H151	H	0.932649	-0.235495	-0.954400
H152	H	1.432649	0.264505	-0.454400
C153	C	0.985732	-0.223966	-0.794577
C154	C	1.485732	0.276034	-0.294577
H155	H	0.992963	-0.231222	-0.739502
H156	H	1.492963	0.268778	-0.239502
H157	H	0.932620	-0.235518	-0.808097
H158	H	1.432620	0.264482	-0.308097
H159	H	0.997333	-0.170852	-0.808112
H160	H	1.497333	0.329148	-0.308112
C161	C	0.853216	-0.487085	-0.486796
C162	C	1.353216	0.012915	0.013204
H163	H	0.908288	-0.479832	-0.479562
H164	H	1.408288	0.020168	0.020438
H165	H	0.839708	-0.475592	-0.539926
H166	H	1.339708	0.024408	-0.039926
H167	H	0.839675	-0.540184	-0.475128
H168	H	1.339675	-0.040184	0.024872
C169	C	1.248629	-1.090899	-0.274822
C170	C	1.748629	-0.590899	0.225178
H171	H	1.278737	-1.054492	-0.244737
H172	H	1.778737	-0.554492	0.255263
H173	H	1.283060	-1.123066	-0.305090
H174	H	1.783060	-0.623066	0.194910
H175	H	1.218417	-1.123136	-0.240353
H176	H	1.718417	-0.623136	0.259647
C177	C	1.248475	-0.669902	-0.274784
C178	C	1.748475	-0.169902	0.225216
H179	H	1.241209	-0.614828	-0.282009
H180	H	1.741209	-0.114828	0.217991
H181	H	1.301583	-0.683389	-0.286395
H182	H	1.801583	-0.183389	0.213605
H183	H	1.236934	-0.683466	-0.221664
H184	H	1.736934	-0.183466	0.278336
H185	H	0.717595	-0.523267	-0.522863
H186	H	1.217595	-0.023267	-0.022863
C187	C	1.036316	-0.274459	-1.091752
C188	C	1.536316	0.225541	-0.591752
H189	H	1.043559	-0.281687	-1.146826
H190	H	1.543559	0.218313	-0.646826
H191	H	1.047902	-0.221356	-1.078234
H192	H	1.547902	0.278644	-0.578234
H193	H	0.983198	-0.286031	-1.078216
H194	H	1.483198	0.213969	-0.578216
C195	C	1.299162	-0.967072	-0.224302
C196	C	1.799162	-0.467072	0.275698
H197	H	1.329267	-0.930667	-0.194211
H198	H	1.829267	-0.430667	0.305789
H199	H	1.333597	-0.999234	-0.254571
H200	H	1.833597	-0.499234	0.245429
H201	H	1.268950	-0.999314	-0.189839
H202	H	1.768950	-0.499314	0.310161
C203	C	1.036234	-0.274554	-0.670749
C204	C	1.536234	0.225446	-0.170749
H205	H	1.043460	-0.281804	-0.615673
H206	H	1.543460	0.218196	-0.115673
H207	H	0.983123	-0.286107	-0.684272
H208	H	1.483123	0.213893	-0.184272
H209	H	1.047837	-0.221441	-0.684290
H210	H	1.547837	0.278559	-0.184290
C211	C	1.036196	-1.090922	-0.486948
C212	C	1.536196	-0.590922	0.013052
H213	H	1.006064	-1.054518	-0.517026
H214	H	1.506064	-0.554518	-0.017026
H215	H	1.001786	-1.123169	-0.456689
H216	H	1.501786	-0.623169	0.043311
H217	H	1.066432	-1.123079	-0.521423
H218	H	1.566432	-0.623079	-0.021423
H219	H	1.284662	-0.805524	-0.238711
H220	H	1.784662	-0.305524	0.261289
H221	H	0.717550	-0.238379	-0.238818
H222	H	1.217550	0.261621	0.261182
C223	C	1.248532	-0.486795	-1.091721
C224	C	1.748532	0.013205	-0.591721
H225	H	1.241309	-0.479539	-1.146796
H226	H	1.741309	0.020461	-0.646796
H227	H	1.236943	-0.539906	-1.078177
H228	H	1.736943	-0.039906	-0.578177
H229	H	1.301646	-0.475229	-1.078202
H230	H	1.801646	0.024771	-0.578202
C231	C	0.985570	-0.967104	-0.537440
C232	C	1.485570	-0.467104	-0.037440
H233	H	0.955437	-0.930705	-0.567522
H234	H	1.455437	-0.430705	-0.067522
H235	H	0.951161	-0.999345	-0.507174
H236	H	1.451161	-0.499345	-0.007174
H237	H	1.015804	-0.999267	-0.571911
H238	H	1.515804	-0.499267	-0.071911
H239	H	1.284585	-0.522949	-0.956104
H240	H	1.784585	-0.022949	-0.456104
H241	H	1.234024	-0.472442	-0.682522
H242	H	1.734024	0.027558	-0.182522
C243	C	0.853166	-0.274510	-0.274851
C244	C	1.353166	0.225490	0.225149
H245	H	0.816753	-0.244374	-0.244799
H246	H	1.316753	0.255626	0.255201
H247	H	0.885389	-0.240105	-0.305142
H248	H	1.385389	0.259895	0.194858
H249	H	0.885346	-0.304703	-0.240350
H250	H	1.385346	0.195297	0.259650
C251	C	0.555983	-0.223936	-0.224416
C252	C	1.055983	0.276064	0.275584
H253	H	0.592378	-0.193782	-0.194362
H254	H	1.092378	0.306218	0.305638
H255	H	0.523763	-0.254137	-0.189928
H256	H	1.023763	0.245863	0.310072
H257	H	0.523797	-0.189537	-0.254719
H258	H	1.023797	0.310463	0.245281
C259	C	0.432166	-0.274568	-0.274889
C260	C	0.932166	0.225432	0.225111
H261	H	0.377093	-0.281824	-0.282117
H262	H	0.877093	0.218176	0.217883
H263	H	0.445711	-0.221473	-0.286544
H264	H	0.945711	0.278527	0.213456
H265	H	0.445672	-0.286077	-0.221757
H266	H	0.945672	0.213923	0.278243
C267	C	0.432215	-0.487138	-0.486835
C268	C	0.932215	0.012862	0.013165
H269	H	0.377139	-0.479893	-0.479615
H270	H	0.877139	0.020107	0.020385
H271	H	0.445731	-0.540231	-0.475181
H272	H	0.945731	-0.040231	0.024819
H273	H	0.445763	-0.475625	-0.539965
H274	H	0.945763	0.024375	-0.039965
H275	H	1.050497	-0.681720	-0.472480
H276	H	1.550497	-0.181720	0.027520
C277	C	0.985507	-0.793748	-0.537424
C278	C	1.485507	-0.293748	-0.037424
H279	H	0.992737	-0.738674	-0.530183
H280	H	1.492737	-0.238674	-0.030183
H281	H	0.932409	-0.807318	-0.525816
H282	H	1.432409	-0.307318	-0.025816
H283	H	0.997056	-0.807233	-0.590548
H284	H	1.497056	-0.307233	-0.090548
H285	H	1.284574	-0.522989	-0.806343
H286	H	1.784574	-0.022989	-0.306343
