data_functionalizedCrystal
_audit_creation_method	'MofGen! by Chris Wilmer'
_symmetry_space_group_name_H-M	'P1'
_symmetry_Int_Tables_number	1
_symmetry_cell_setting	triclinic
loop_
_symmetry_equiv_pos_as_xyz
  x,y,z
_cell_length_a	18.426585
_cell_length_b	12.477989
_cell_length_c	18.426585
_cell_angle_alpha	64.368976
_cell_angle_beta	90.001513
_cell_angle_gamma	55.726983
loop_
_atom_site_label
_atom_site_type_symbol
_atom_site_fract_x
_atom_site_fract_y
_atom_site_fract_z
Zr1	Zr	0.647020	1.178132	-0.043163
O2	O	0.521211	1.402669	-0.149113
O3	O	0.692471	0.953595	-0.017568
O4	O	0.682536	1.178142	-0.159045
O5	O	0.531152	1.178115	0.111794
O6	O	0.801961	1.178149	-0.159047
O7	O	0.531146	1.178122	-0.007637
O8	O	0.819734	0.776476	0.094028
O9	O	0.513380	1.579788	-0.141281
O10	O	0.792664	1.045956	0.001663
O11	O	0.703543	1.045945	0.090795
O12	O	0.691846	1.310319	-0.075775
O13	O	0.602725	1.310308	0.013357
Zr14	Zr	0.837500	1.178132	0.147311
Zr15	Zr	0.837490	1.178144	-0.043167
Zr16	Zr	0.647030	1.178120	0.147315
Zr17	Zr	0.634531	1.460616	-0.030672
Zr18	Zr	0.849989	0.895648	0.134820
O19	O	0.792049	1.402669	0.121716
O20	O	0.792034	1.402686	-0.149119
O21	O	0.521225	1.402652	0.121723
O22	O	0.963310	0.953595	0.253261
O23	O	0.963295	0.953612	-0.017575
O24	O	0.692486	0.953578	0.253267
O25	O	0.953368	1.178149	-0.007646
O26	O	0.801984	1.178122	0.263193
O27	O	0.682559	1.178115	0.263195
O28	O	0.953374	1.178142	0.111785
O29	O	0.664778	1.579797	-0.141284
O30	O	0.819742	0.776467	0.245432
O31	O	0.971140	0.776476	0.245429
O32	O	0.971132	0.776486	0.094024
O33	O	0.513388	1.579778	0.010124
O34	O	0.664787	1.579788	0.010120
O35	O	0.792674	1.045945	0.179923
O36	O	0.881795	1.045956	0.090791
O37	O	0.780977	1.310319	0.013353
O38	O	0.691856	1.310308	0.102485
C39	C	0.757882	0.824788	0.036450
C40	C	0.763183	0.704866	0.031147
C41	C	0.504011	1.178117	0.052079
C42	C	0.423152	1.178112	0.052081
C43	C	0.127035	1.178158	0.052068
C44	C	0.209421	1.178151	0.052069
C45	C	0.275091	1.178135	0.052074
C46	C	0.357482	1.178128	0.052077
C47	C	0.980509	1.178147	0.052069
C48	C	1.061368	1.178152	0.052067
C49	C	0.742247	1.178147	-0.186185
C50	C	0.742243	1.178152	-0.267048
C51	C	0.726639	1.531476	0.067698
C52	C	0.721337	1.651398	0.073001
C53	C	0.742278	1.178106	-0.563134
C54	C	0.742271	1.178113	-0.480752
C55	C	0.742260	1.178129	-0.415093
C56	C	0.742253	1.178136	-0.332706
C57	C	0.742273	1.178117	0.290333
C58	C	0.742278	1.178112	0.371196
C59	C	0.996131	0.824803	0.036445
C60	C	1.082292	0.704886	0.031140
C61	C	0.757895	0.824773	0.274709
C62	C	0.763201	0.704846	0.350269
C63	C	0.996144	0.824788	0.274704
C64	C	1.082309	0.704866	0.350262
C65	C	0.488377	1.531476	-0.170556
C66	C	0.402211	1.651398	-0.246114
C67	C	0.488390	1.531461	0.067703
C68	C	0.402228	1.651378	0.073008
C69	C	0.726626	1.531491	-0.170561
C70	C	0.721319	1.651418	-0.246121
C71	C	1.076229	0.648572	-0.017883
C72	C	1.157178	0.535913	-0.022884
C73	C	1.244191	0.479563	0.021143
C74	C	1.250252	0.535888	0.070168
C75	C	1.169302	0.648552	0.075163
C76	C	0.812218	0.648527	0.432285
C77	C	0.817200	0.535859	0.503290
C78	C	0.773169	0.479504	0.492277
C79	C	0.724146	0.535834	0.410253
C80	C	0.719159	0.648508	0.339250
C81	C	1.169302	0.648555	0.339219
C82	C	1.250270	0.535892	0.410208
C83	C	1.244244	0.479533	0.492238
C84	C	1.157242	0.535855	0.503280
C85	C	1.076276	0.648524	0.432292
C86	C	0.315218	1.707722	-0.235071
C87	C	0.234248	1.820421	-0.306058
C88	C	0.240273	1.876785	-0.388088
C89	C	0.327276	1.820456	-0.399130
C90	C	0.408243	1.707768	-0.328143
C91	C	0.408291	1.707704	0.122023
C92	C	0.327340	1.820394	0.127005
C93	C	0.240327	1.876748	0.082975
C94	C	0.234267	1.820418	0.033954
C95	C	0.315217	1.707737	0.028968
C96	C	0.765361	1.707737	-0.235081
C97	C	0.760393	1.820406	-0.306072
C98	C	0.711378	1.876762	-0.388101
C99	C	0.667336	1.820431	-0.399139
C100	C	0.672309	1.707757	-0.328150
H101	H	0.803067	0.658898	-0.008747
Br102	Br	1.149080	0.459353	0.614613
Br103	Br	0.335587	1.896815	0.193539
Br104	Br	0.958151	0.725026	-0.077645
Br105	Br	0.958218	0.724926	0.447294
H106	H	0.707335	1.968509	-0.445897
Br107	Br	0.306972	1.631302	-0.037554
H108	H	0.796257	1.866259	-0.297067
Br109	Br	0.600809	1.896943	-0.510470
H110	H	0.688298	0.489933	0.401298
Br111	Br	0.612523	1.631349	-0.343148
H112	H	0.679247	0.694348	0.272471
H113	H	1.174226	0.694426	0.272432
Br114	Br	0.831887	1.631281	-0.123765
H115	H	1.310097	0.387823	0.017069
Br116	Br	1.368332	0.459476	0.395203
H117	H	0.163410	1.866319	-0.001893
Br118	Br	0.526368	1.631253	0.181784
H119	H	0.681448	0.697374	0.112885
H120	H	1.152226	0.490067	-0.062805
Br121	Br	0.779946	0.326588	0.588648
Br122	Br	1.354138	0.326623	0.588571
H123	H	0.174420	1.968500	0.087042
Br124	Br	1.368348	0.459392	0.129917
H125	H	0.310294	1.661837	-0.168284
Br126	Br	0.116186	1.896841	-0.291052
H127	H	0.857123	0.490008	0.570070
Br128	Br	0.871988	0.724976	0.447254
Br129	Br	1.177548	0.724957	0.141705
Br130	Br	0.130378	2.029723	-0.484419
H131	H	0.332171	1.866363	-0.465927
Br132	Br	0.526303	1.631333	-0.343146
