data_functionalizedCrystal
_audit_creation_method	'MofGen! by Chris Wilmer'
_symmetry_space_group_name_H-M	'P1'
_symmetry_Int_Tables_number	1
_symmetry_cell_setting	triclinic
loop_
_symmetry_equiv_pos_as_xyz
  x,y,z
_cell_length_a	17.077404
_cell_length_b	21.295417
_cell_length_c	17.077396
_cell_angle_alpha	90.033192
_cell_angle_beta	90.018362
_cell_angle_gamma	90.028477
loop_
_atom_site_label
_atom_site_type_symbol
_atom_site_fract_x
_atom_site_fract_y
_atom_site_fract_z
Zn1	Zn	1.200013	-0.250643	0.443793
Zn2	Zn	1.700013	0.249357	0.943793
Zn3	Zn	1.199903	-0.355916	0.312516
Zn4	Zn	1.699903	0.144084	0.812516
Zn5	Zn	1.068745	-0.250661	0.312544
Zn6	Zn	1.568745	0.249339	0.812544
Zn7	Zn	1.068695	-0.355875	0.443743
Zn8	Zn	1.568695	0.144125	0.943743
O9	O	1.134339	-0.303274	0.378149
O10	O	1.634339	0.196726	0.878149
O11	O	1.309845	-0.264618	0.426389
O12	O	1.809845	0.235382	0.926389
O13	O	1.182479	-0.341979	0.202673
O14	O	1.682479	0.158021	0.702673
O15	O	1.086225	-0.162569	0.329987
O16	O	1.586225	0.337431	0.829987
O17	O	1.309764	-0.341962	0.329940
O18	O	1.809764	0.158038	0.829940
O19	O	1.182667	-0.162556	0.426415
O20	O	1.682667	0.337444	0.926415
O21	O	1.086118	-0.264648	0.202693
O22	O	1.586118	0.235352	0.702693
O23	O	0.958891	-0.264608	0.329938
O24	O	1.458891	0.235392	0.829938
O25	O	1.086140	-0.341891	0.553596
O26	O	1.586140	0.158109	1.053596
O27	O	0.958855	-0.341908	0.426329
O28	O	1.458855	0.158092	0.926329
O29	O	1.182619	-0.264578	0.553633
O30	O	1.682619	0.235422	1.053633
O31	O	1.182431	-0.444000	0.329891
O32	O	1.682431	0.056000	0.829891
O33	O	1.086033	-0.443970	0.426302
O34	O	1.586033	0.056030	0.926302
C35	C	0.930391	-0.303256	0.378131
C36	C	1.430391	0.196744	0.878131
C37	C	0.843141	-0.303264	0.378142
C38	C	1.343141	0.196736	0.878142
C39	C	0.802194	-0.263062	0.428440
C40	C	1.302194	0.236938	0.928440
C41	C	0.720214	-0.263066	0.428443
C42	C	1.220214	0.236934	0.928443
C43	C	0.679182	-0.303275	0.378153
C44	C	1.179182	0.196725	0.878153
C45	C	0.720135	-0.343478	0.327850
C46	C	1.220135	0.156522	0.827850
C47	C	0.802114	-0.343471	0.327843
C48	C	1.302114	0.156529	0.827843
C49	C	0.549265	-0.343493	0.327870
C50	C	1.049265	0.156507	0.827870
C51	C	0.467280	-0.343501	0.327877
C52	C	0.967280	0.156499	0.827877
C53	C	0.467365	-0.263088	0.428470
C54	C	0.967365	0.236912	0.928470
C55	C	0.549344	-0.263081	0.428463
C56	C	1.049344	0.236919	0.928463
C57	C	0.590291	-0.303285	0.378161
C58	C	1.090291	0.196715	0.878161
C59	C	1.134236	-0.466826	0.378105
C60	C	1.634236	0.033174	0.878105
C61	C	1.134264	-0.536794	0.378113
C62	C	1.634264	-0.036794	0.878113
C63	C	1.184503	-0.569655	0.327963
C64	C	1.684503	-0.069655	0.827963
C65	C	1.184539	-0.635398	0.327981
C66	C	1.684539	-0.135398	0.827981
C67	C	1.134323	-0.668276	0.378140
C68	C	1.634323	-0.168276	0.878140
C69	C	1.084081	-0.635407	0.428300
C70	C	1.584081	-0.135407	0.928300
C71	C	1.084051	-0.569665	0.428286
C72	C	1.584051	-0.069665	0.928286
N73	N	1.065655	-0.771540	0.384118
N74	N	1.565655	-0.271540	0.884118
N75	N	1.065685	-0.833991	0.384127
N76	N	1.565685	-0.333991	0.884127
C77	C	1.134411	-0.866351	0.378185
C78	C	1.634411	-0.366351	0.878185
N79	N	1.203107	-0.833900	0.372220
N80	N	1.703107	-0.333900	0.872220
N81	N	1.203076	-0.771443	0.372207
N82	N	1.703076	-0.271443	0.872207
C83	C	1.134350	-0.739562	0.378161
C84	C	1.634350	-0.239562	0.878161
C85	C	1.184694	-0.970498	0.328052
C86	C	1.684694	-0.470498	0.828052
C87	C	1.184732	-1.036242	0.328075
C88	C	1.684732	-0.536242	0.828075
C89	C	1.084267	-1.036249	0.428390
C90	C	1.584267	-0.536249	0.928390
C91	C	1.084236	-0.970507	0.428371
C92	C	1.584236	-0.470507	0.928371
C93	C	1.134448	-0.937635	0.378198
C94	C	1.634448	-0.437635	0.878198
C95	C	1.339083	-0.303292	0.378167
C96	C	1.839083	0.196708	0.878167
C97	C	1.426333	-0.303300	0.378175
C98	C	1.926333	0.196700	0.878175
C99	C	1.134386	-0.303228	0.582893
C100	C	1.634386	0.196772	1.082893
C101	C	1.134407	-0.303208	0.670143
C102	C	1.634407	0.196792	1.170143
C103	C	1.134464	-0.139084	0.378210
C104	C	1.634464	0.360916	0.878210
C105	C	1.134517	-0.069116	0.378236
C106	C	1.634517	0.430884	0.878236
C107	C	1.134337	-0.303275	0.174201
C108	C	1.634337	0.196725	0.674201
C109	C	1.134469	-0.303117	0.086952
C110	C	1.634469	0.196883	0.586952
C111	C	1.184645	-0.262948	0.711154
C112	C	1.684645	0.237052	1.211154
C113	C	1.184654	-0.262927	0.793134
C114	C	1.684654	0.237073	1.293134
C115	C	1.134429	-0.303170	0.834103
C116	C	1.634429	0.196830	1.334103
C117	C	1.084185	-0.343432	0.793086
C118	C	1.584185	0.156568	1.293086
C119	C	1.084172	-0.343449	0.711107
C120	C	1.584172	0.156551	1.211107
C121	C	1.084217	-0.343394	0.963956
C122	C	1.584217	0.156606	1.463956
C123	C	1.084231	-0.343377	1.045941
C124	C	1.584231	0.156623	1.545941
C125	C	1.184699	-0.262871	1.045984
C126	C	1.684699	0.237129	1.545984
C127	C	1.184686	-0.262889	0.964005
C128	C	1.684686	0.237111	1.464005
C129	C	1.134443	-0.303152	0.922994
C130	C	1.634443	0.196848	1.422994
H131	H	0.433874	-0.376243	0.286927
H132	H	0.933874	0.123757	0.786927
O133	O	1.029846	-0.534222	0.482368
O134	O	1.529846	-0.034222	0.982368
H135	H	1.043268	-0.546793	0.543993
H136	H	1.543268	-0.046793	1.043993
H137	H	0.582750	-0.230343	0.469418
H138	H	1.082750	0.269657	0.969418
H139	H	0.582602	-0.376229	0.286906
H140	H	1.082602	0.123771	0.786906
H141	H	1.043288	-0.376196	0.826449
H142	H	1.543288	0.123804	1.326449
O143	O	0.423203	-0.219722	0.482722
O144	O	0.923203	0.280278	0.982722
H145	H	0.438965	-0.170303	0.469376
H146	H	0.938965	0.329697	0.969376
H147	H	1.225583	-0.943733	0.287200
H148	H	1.725583	-0.443733	0.787200
H149	H	1.225648	-1.062997	0.287238
H150	H	1.725648	-0.562997	0.787238
O151	O	0.676046	-0.219706	0.482691
O152	O	1.176046	0.280294	0.982691
H153	H	0.718351	-0.191751	0.517666
H154	H	1.218351	0.308249	1.017666
O155	O	1.238724	-0.670863	0.273895
O156	O	1.738724	-0.170863	0.773895
H157	H	1.225286	-0.658303	0.212269
H158	H	1.725286	-0.158303	0.712269
O159	O	1.030099	-1.071700	0.482490
O160	O	1.530099	-0.571700	0.982490
H161	H	1.038555	-1.122936	0.474071
H162	H	1.538555	-0.622936	0.974071
H163	H	0.686720	-0.376214	0.286899
H164	H	1.186720	0.123786	0.786899
H165	H	0.835452	-0.376206	0.286885
H166	H	1.335452	0.123794	0.786885
H167	H	1.043291	-0.376170	0.930568
H168	H	1.543291	0.123830	1.430568
O169	O	1.238824	-0.219546	0.666970
O170	O	1.738824	0.280454	1.166970
H171	H	1.203712	-0.187527	0.629620
H172	H	1.703712	0.312473	1.129620
O173	O	1.238664	-0.534204	0.273852
O174	O	1.738664	-0.034204	0.773852
H175	H	1.230201	-0.482969	0.282261
H176	H	1.730201	0.017031	0.782261
H177	H	1.043255	-0.376227	0.677717
H178	H	1.543255	0.123773	1.177717
O179	O	1.030030	-0.935056	0.482441
O180	O	1.530030	-0.435056	0.982441
H181	H	0.995107	-0.968961	0.517315
H182	H	1.495107	-0.468961	1.017315
O183	O	1.029921	-0.670868	0.482400
O184	O	1.529921	-0.170868	0.982400
H185	H	0.994984	-0.636969	0.517276
H186	H	1.494984	-0.136969	1.017276
O187	O	1.238864	-0.219489	0.919817
O188	O	1.738864	0.280511	1.419817
H189	H	1.203751	-0.187470	0.882467
H190	H	1.703751	0.312530	1.382467
H191	H	1.225565	-0.230144	0.826522
H192	H	1.725565	0.269856	1.326522
O193	O	1.238885	-0.219437	1.090209
O194	O	1.738885	0.280563	1.590209
H195	H	1.230449	-0.226177	1.154097
H196	H	1.730449	0.273823	1.654097
H197	H	0.835596	-0.230321	0.469394
H198	H	1.335596	0.269679	0.969394
H199	H	1.043331	-0.376145	1.079295
H200	H	1.543331	0.123855	1.579295
