data_functionalizedCrystal
_audit_creation_method	'MofGen! by Chris Wilmer'
_symmetry_space_group_name_H-M	'P1'
_symmetry_Int_Tables_number	1
_symmetry_cell_setting	triclinic
loop_
_symmetry_equiv_pos_as_xyz
  x,y,z
_cell_length_a	16.109301
_cell_length_b	9.482944
_cell_length_c	16.109301
_cell_angle_alpha	79.569783
_cell_angle_beta	96.538519
_cell_angle_gamma	100.473153
loop_
_atom_site_label
_atom_site_type_symbol
_atom_site_fract_x
_atom_site_fract_y
_atom_site_fract_z
O1	O	1.114742	0.120809	-0.118412
O2	O	1.364742	0.370809	0.131588
O3	O	1.614742	0.620809	0.381588
O4	O	1.864742	0.870809	0.631588
O5	O	0.872682	0.120833	-0.131714
O6	O	1.122682	0.370833	0.118286
O7	O	1.372682	0.620833	0.368286
O8	O	1.622682	0.870833	0.618286
O9	O	1.000360	0.120805	-0.004031
O10	O	1.250360	0.370805	0.245969
O11	O	1.500360	0.620805	0.495969
O12	O	1.750360	0.870805	0.745969
O13	O	0.987064	0.120836	-0.246096
O14	O	1.237064	0.370836	0.003904
O15	O	1.487064	0.620836	0.253904
O16	O	1.737064	0.870836	0.503904
O17	O	0.977112	-0.120987	0.019080
O18	O	1.227112	0.129013	0.269080
O19	O	1.477112	0.379013	0.519080
O20	O	1.727112	0.629013	0.769080
O21	O	0.849434	-0.120960	-0.108603
O22	O	1.099434	0.129040	0.141397
O23	O	1.349434	0.379040	0.391397
O24	O	1.599434	0.629040	0.641397
O25	O	1.091494	-0.120984	-0.095301
O26	O	1.341494	0.129016	0.154699
O27	O	1.591494	0.379016	0.404699
O28	O	1.841494	0.629016	0.654699
Cu29	Cu	0.968341	-0.143050	-0.099842
Cu30	Cu	1.218341	0.106950	0.150158
Cu31	Cu	1.468341	0.356950	0.400158
Cu32	Cu	1.718341	0.606950	0.650158
Cu33	Cu	0.995835	0.142898	-0.127173
Cu34	Cu	1.245835	0.392898	0.122827
Cu35	Cu	1.495835	0.642898	0.372827
Cu36	Cu	1.745835	0.892898	0.622827
O37	O	0.963816	-0.120956	-0.222985
O38	O	1.213816	0.129044	0.027015
O39	O	1.463816	0.379044	0.277015
O40	O	1.713816	0.629044	0.527015
C41	C	0.830084	-0.000061	-0.119620
C42	C	1.080084	0.249939	0.130380
C43	C	1.330084	0.499939	0.380380
C44	C	1.580084	0.749939	0.630380
C45	C	0.737789	-0.000052	-0.118006
C46	C	0.987789	0.249948	0.131994
C47	C	1.237789	0.499948	0.381994
C48	C	1.487789	0.749948	0.631994
C49	C	0.515516	-0.000060	-0.190013
C50	C	0.765516	0.249940	0.059987
C51	C	1.015516	0.499940	0.309987
C52	C	1.265516	0.749940	0.559987
C53	C	0.428795	-0.000069	-0.188488
C54	C	0.678795	0.249931	0.061512
C55	C	0.928795	0.499931	0.311512
C56	C	1.178795	0.749931	0.561512
C57	C	0.448668	-0.000083	-0.036998
C58	C	0.698668	0.249917	0.213002
C59	C	0.948668	0.499917	0.463002
C60	C	1.198668	0.749917	0.713002
C61	C	0.535386	-0.000084	-0.038522
C62	C	0.785386	0.249916	0.211478
C63	C	1.035386	0.499916	0.461478
C64	C	1.285386	0.749916	0.711478
C65	C	0.568809	-0.000065	-0.115033
C66	C	0.818809	0.249935	0.134967
C67	C	1.068809	0.499935	0.384967
C68	C	1.318809	0.749935	0.634967
C69	C	0.395369	-0.000073	-0.111983
C70	C	0.645369	0.249927	0.138017
C71	C	0.895369	0.499927	0.388017
C72	C	1.145369	0.749927	0.638017
C73	C	0.301342	-0.000084	-0.110329
C74	C	0.551342	0.249916	0.139671
C75	C	0.801342	0.499916	0.389671
C76	C	1.051342	0.749916	0.639671
C77	C	0.662841	-0.000057	-0.116687
C78	C	0.912841	0.249943	0.133313
C79	C	1.162841	0.499943	0.383313
C80	C	1.412841	0.749943	0.633313
N81	N	0.949010	-0.344170	-0.080618
N82	N	1.199010	-0.094170	0.169382
N83	N	1.449010	0.155830	0.419382
N84	N	1.699010	0.405830	0.669382
C85	C	0.990127	-0.416369	-0.121503
C86	C	1.240127	-0.166369	0.128497
C87	C	1.490127	0.083631	0.378497
C88	C	1.740127	0.333631	0.628497
C89	C	0.974050	-0.583786	-0.105500
C90	C	1.224050	-0.333786	0.144500
C91	C	1.474050	-0.083786	0.394500
C92	C	1.724050	0.166214	0.644500
C93	C	1.134093	-0.000087	-0.107396
C94	C	1.384093	0.249913	0.142604
C95	C	1.634093	0.499913	0.392604
C96	C	1.884093	0.749913	0.642604
C97	C	1.226388	-0.000086	-0.109011
C98	C	1.476388	0.249914	0.140989
C99	C	1.726388	0.499914	0.390989
C100	C	1.976388	0.749914	0.640989
C101	C	0.988198	-0.000092	0.038500
C102	C	1.238198	0.249908	0.288500
C103	C	1.488198	0.499908	0.538500
C104	C	1.738198	0.749908	0.788500
C105	C	0.986582	-0.000094	0.130795
C106	C	1.236582	0.249906	0.380795
C107	C	1.486582	0.499906	0.630795
C108	C	1.736582	0.749906	0.880795
N109	N	1.015173	0.344019	-0.146391
N110	N	1.265173	0.594019	0.103609
N111	N	1.515173	0.844019	0.353609
N112	N	1.765173	1.094019	0.603609
C113	C	0.975979	-0.000056	-0.265515
C114	C	1.225979	0.249944	-0.015515
C115	C	1.475979	0.499944	0.234485
C116	C	1.725979	0.749944	0.484485
C117	C	0.977595	-0.000045	-0.357812
C118	C	1.227595	0.249955	-0.107812
C119	C	1.477595	0.499955	0.142188
C120	C	1.727595	0.749955	0.392188
C121	C	1.058591	-0.000078	0.353066
C122	C	1.308591	0.249922	0.603066
C123	C	1.558591	0.499922	0.853066
C124	C	1.808591	0.749922	1.103066
C125	C	1.057069	-0.000065	0.439785
C126	C	1.307069	0.249935	0.689785
C127	C	1.557069	0.499935	0.939785
C128	C	1.807069	0.749935	1.189785
C129	C	0.905581	-0.000056	0.419910
C130	C	1.155581	0.249944	0.669910
C131	C	1.405581	0.499944	0.919910
C132	C	1.655581	0.749944	1.169910
C133	C	0.907105	-0.000058	0.333192
C134	C	1.157105	0.249942	0.583192
C135	C	1.407105	0.499942	0.833192
C136	C	1.657105	0.749942	1.083192
C137	C	0.983613	-0.000076	0.299773
C138	C	1.233613	0.249924	0.549773
C139	C	1.483613	0.499924	0.799773
C140	C	1.733613	0.749924	1.049773
C141	C	0.980565	-0.000062	0.473211
C142	C	1.230565	0.249938	0.723211
C143	C	1.480565	0.499938	0.973211
C144	C	1.730565	0.749938	1.223211
C145	C	0.978913	-0.000049	0.567235
C146	C	1.228913	0.249951	0.817235
C147	C	1.478913	0.499951	1.067235
C148	C	1.728913	0.749951	1.317235
C149	C	0.985265	-0.000086	0.205742
C150	C	1.235265	0.249914	0.455742
C151	C	1.485265	0.499914	0.705742
C152	C	1.735265	0.749914	0.955742
H153	H	0.421444	-0.000107	0.025296
H154	H	0.671444	0.249893	0.275296
H155	H	0.921444	0.499893	0.525296
H156	H	1.171444	0.749893	0.775296
H157	H	0.926944	-0.645913	-0.058645
H158	H	1.176944	-0.395913	0.191355
H159	H	1.426944	-0.145913	0.441355
H160	H	1.676944	0.104087	0.691355
H161	H	0.901907	-0.406302	-0.033766
H162	H	1.151907	-0.156302	0.216234
H163	H	1.401907	0.093698	0.466234
H164	H	1.651907	0.343698	0.716234
H165	H	1.120889	-0.000089	0.325860
H166	H	1.370889	0.249911	0.575860
H167	H	1.620889	0.499911	0.825860
H168	H	1.870889	0.749911	1.075860
Cl169	Cl	0.602387	-0.000102	0.055747
Cl170	Cl	0.852387	0.249898	0.305747
Cl171	Cl	1.102387	0.499898	0.555747
Cl172	Cl	1.352387	0.749898	0.805747
H173	H	1.062283	-0.593857	-0.193242
H174	H	1.312283	-0.343857	0.056758
H175	H	1.562283	-0.093857	0.306758
H176	H	1.812283	0.156143	0.556758
H177	H	0.843291	-0.000045	0.447131
H178	H	1.093291	0.249955	0.697131
H179	H	1.343291	0.499955	0.947131
H180	H	1.593291	0.749955	1.197131
H181	H	1.118124	-0.000064	0.483174
H182	H	1.368124	0.249936	0.733174
H183	H	1.618124	0.499936	0.983174
H184	H	1.868124	0.749936	1.233174
H185	H	1.037235	-0.354237	-0.168349
H186	H	1.287235	-0.104237	0.081651
H187	H	1.537235	0.145763	0.331651
H188	H	1.787235	0.395763	0.581651
H189	H	0.846045	-0.000052	0.289797
H190	H	1.096045	0.249948	0.539797
H191	H	1.346045	0.499948	0.789797
H192	H	1.596045	0.749948	1.039797
H193	H	0.385406	-0.000068	-0.249543
H194	H	0.635406	0.249932	0.000457
H195	H	0.885406	0.499932	0.250457
H196	H	1.135406	0.749932	0.500457
Cl197	Cl	0.557529	-0.000045	-0.286196
Cl198	Cl	0.807529	0.249955	-0.036196
Cl199	Cl	1.057529	0.499955	0.213804
Cl200	Cl	1.307529	0.749955	0.463804
