data_functionalizedCrystal
_audit_creation_method	'MofGen! by Chris Wilmer'
_symmetry_space_group_name_H-M	'P1'
_symmetry_Int_Tables_number	1
_symmetry_cell_setting	triclinic
loop_
_symmetry_equiv_pos_as_xyz
  x,y,z
_cell_length_a	17.019282
_cell_length_b	19.188930
_cell_length_c	15.500369
_cell_angle_alpha	92.832382
_cell_angle_beta	83.300600
_cell_angle_gamma	83.267516
loop_
_atom_site_label
_atom_site_type_symbol
_atom_site_fract_x
_atom_site_fract_y
_atom_site_fract_z
O1	O	1.046683	0.088629	-0.006053
O2	O	1.380016	0.421962	0.327280
O3	O	1.713350	0.755296	0.660613
O4	O	0.816101	0.100757	0.011134
O5	O	1.149435	0.434091	0.344468
O6	O	1.482768	0.767424	0.677801
O7	O	0.938047	-0.006975	0.002027
O8	O	1.271380	0.326359	0.335361
O9	O	1.604714	0.659692	0.668694
O10	O	0.924737	0.196361	0.003053
O11	O	1.258071	0.529694	0.336387
O12	O	1.591404	0.863028	0.669720
O13	O	0.945408	-0.013490	-0.142408
O14	O	1.278741	0.319844	0.190926
O15	O	1.612075	0.653177	0.524259
O16	O	0.823462	0.094242	-0.133301
O17	O	1.156796	0.427576	0.200032
O18	O	1.490129	0.760909	0.533366
O19	O	1.054044	0.082114	-0.150489
O20	O	1.387377	0.415447	0.182845
O21	O	1.720711	0.748781	0.516178
Cu22	Cu	0.939425	0.087583	-0.155083
Cu23	Cu	1.272758	0.420917	0.178250
Cu24	Cu	1.606092	0.754250	0.511584
Cu25	Cu	0.930720	0.095288	0.015728
Cu26	Cu	1.264053	0.428621	0.349062
Cu27	Cu	1.597387	0.761955	0.682395
O28	O	0.932098	0.189846	-0.141382
O29	O	1.265431	0.523179	0.191951
O30	O	1.598765	0.856513	0.525285
C31	C	0.790282	0.097170	-0.058885
C32	C	1.123615	0.430504	0.274449
C33	C	1.456949	0.763837	0.607782
C34	C	0.702382	0.096180	-0.052333
C35	C	1.035715	0.429513	0.281000
C36	C	1.369048	0.762847	0.614333
C37	C	0.665103	0.092161	-0.127989
C38	C	0.998436	0.425495	0.205344
C39	C	1.331770	0.758828	0.538678
C40	C	0.582513	0.091219	-0.121836
C41	C	0.915847	0.424553	0.211497
C42	C	1.249180	0.757886	0.544831
C43	C	0.537203	0.094301	-0.040026
C44	C	0.870536	0.427634	0.293307
C45	C	1.203869	0.760968	0.626641
C46	C	0.574487	0.098318	0.035635
C47	C	0.907820	0.431651	0.368969
C48	C	1.241153	0.764984	0.702302
C49	C	0.657076	0.099255	0.029481
C50	C	0.990409	0.432588	0.362815
C51	C	1.323743	0.765921	0.696148
C52	C	0.287637	0.091645	-0.017506
C53	C	0.620970	0.424979	0.315827
C54	C	0.954303	0.758312	0.649161
C55	C	0.205042	0.090710	-0.011358
C56	C	0.538375	0.424044	0.321976
C57	C	0.871708	0.757377	0.655309
C58	C	0.213074	0.083611	-0.168830
C59	C	0.546407	0.416944	0.164504
C60	C	0.879741	0.750277	0.497837
C61	C	0.295664	0.084552	-0.174976
C62	C	0.628997	0.417885	0.158357
C63	C	0.962330	0.751219	0.491690
C64	C	0.332941	0.088565	-0.099315
C65	C	0.666275	0.421898	0.234018
C66	C	0.999608	0.755232	0.567352
C67	C	0.452782	0.093341	-0.033735
C68	C	0.786115	0.426674	0.299599
C69	C	1.119449	0.760007	0.632932
C70	C	0.417361	0.089520	-0.105608
C71	C	0.750694	0.422854	0.227726
C72	C	1.084028	0.756187	0.561059
C73	C	0.941297	-0.036242	-0.070161
C74	C	1.274630	0.297091	0.263173
C75	C	1.607963	0.630424	0.596506
C76	C	0.940003	-0.113745	-0.070072
C77	C	1.273337	0.219588	0.263262
C78	C	1.606670	0.552922	0.596595
C79	C	1.011557	-0.158792	-0.075409
C80	C	1.344890	0.174542	0.257924
C81	C	1.678224	0.507875	0.591257
C82	C	1.010341	-0.231613	-0.075305
C83	C	1.343674	0.101721	0.258029
C84	C	1.677007	0.435054	0.591362
C85	C	0.937568	-0.259385	-0.069880
C86	C	1.270901	0.073948	0.263454
C87	C	1.604235	0.407282	0.596787
C88	C	0.866005	-0.214328	-0.064536
C89	C	1.199338	0.119005	0.268797
C90	C	1.532671	0.452338	0.602130
C91	C	0.867223	-0.141508	-0.064632
C92	C	1.200556	0.191825	0.268701
C93	C	1.533889	0.525158	0.602034
N94	N	0.884447	-0.369512	-0.114887
N95	N	1.217780	-0.036179	0.218446
N96	N	1.551114	0.297155	0.551779
N97	N	0.883295	-0.438688	-0.114798
N98	N	1.216628	-0.105355	0.218535
N99	N	1.549962	0.227978	0.551868
C100	C	0.933895	-0.478786	-0.069588
C101	C	1.267228	-0.145453	0.263745
C102	C	1.600561	0.187880	0.597078
N103	N	0.985702	-0.447097	-0.024482
N104	N	1.319035	-0.113763	0.308851
N105	N	1.652369	0.219570	0.642184
N106	N	0.986856	-0.377914	-0.024575
N107	N	1.320190	-0.044581	0.308758
N108	N	1.653523	0.288753	0.642091
C109	C	0.936239	-0.338345	-0.069774
C110	C	1.269573	-0.005011	0.263559
C111	C	1.602906	0.328322	0.596892
C112	C	1.004134	-0.602794	-0.074812
C113	C	1.337468	-0.269461	0.258521
C114	C	1.670801	0.063872	0.591855
C115	C	1.002915	-0.675616	-0.074702
C116	C	1.336248	-0.342283	0.258631
C117	C	1.669582	-0.008949	0.591965
C118	C	0.858577	-0.658331	-0.063942
C119	C	1.191911	-0.324997	0.269391
C120	C	1.525244	0.008336	0.602725
C121	C	0.859798	-0.585510	-0.064043
C122	C	1.193132	-0.252177	0.269290
C123	C	1.526465	0.081157	0.602623
C124	C	0.932579	-0.557747	-0.069483
C125	C	1.265913	-0.224413	0.263851
C126	C	1.599246	0.108920	0.597184
C127	C	1.079863	0.085701	-0.080468
C128	C	1.413197	0.419034	0.252866
C129	C	1.746530	0.752368	0.586199
C130	C	1.167763	0.086692	-0.087013
C131	C	1.501097	0.420025	0.246320
C132	C	1.834430	0.753359	0.579653
C133	C	0.928848	0.219114	-0.069192
C134	C	1.262182	0.552447	0.264141
C135	C	1.595515	0.885781	0.597475
C136	C	0.930141	0.296617	-0.069275
C137	C	1.263475	0.629950	0.264058
C138	C	1.596808	0.963284	0.597391
N139	N	0.945554	0.082164	-0.275223
N140	N	1.278887	0.415497	0.058111
N141	N	1.612220	0.748830	0.391444
C142	C	0.976280	0.055070	-0.822692
C143	C	1.309613	0.388403	-0.489359
C144	C	1.642946	0.721737	-0.156026
C145	C	0.971627	0.059178	-0.731774
C146	C	1.304960	0.392511	-0.398441
C147	C	1.638293	0.725844	-0.065108
C148	C	0.915288	0.108914	-0.682297
C149	C	1.248621	0.442247	-0.348963
C150	C	1.581954	0.775581	-0.015630
C151	C	0.863603	0.154551	-0.723743
C152	C	1.196937	0.487884	-0.390409
C153	C	1.530270	0.821218	-0.057076
C154	C	0.868261	0.150446	-0.814660
C155	C	1.201594	0.483780	-0.481326
C156	C	1.534927	0.817113	-0.147993
C157	C	0.898527	0.123696	-0.407586
C158	C	1.231860	0.457029	-0.074252
C159	C	1.565193	0.790363	0.259081
C160	C	0.893872	0.127796	-0.316662
C161	C	1.227205	0.461129	0.016671
C162	C	1.560538	0.794462	0.350004
C163	C	1.001897	0.032423	-0.324700
C164	C	1.335230	0.365756	0.008633
C165	C	1.668563	0.699089	0.341966
C166	C	1.006546	0.028320	-0.415618
C167	C	1.339879	0.361653	-0.082285
C168	C	1.673213	0.694986	0.251048
C169	C	0.954864	0.073959	-0.457057
C170	C	1.288198	0.407292	-0.123723
C171	C	1.621531	0.740626	0.209610
C172	C	0.910528	0.113112	-0.589363
C173	C	1.243862	0.446446	-0.256030
C174	C	1.577195	0.779779	0.077303
C175	C	0.959628	0.069764	-0.549989
C176	C	1.292961	0.403097	-0.216655
C177	C	1.626295	0.736430	0.116678
N178	N	0.924598	0.100702	0.135868
N179	N	1.257931	0.434035	0.469201
N180	N	1.591265	0.767369	0.802535
H181	H	0.701989	0.089658	-0.194608
H182	H	1.035322	0.422991	0.138726
H183	H	1.368655	0.756324	0.472059
F184	F	0.803646	0.207489	-0.671085
F185	F	1.136979	0.540822	-0.337751
F186	F	1.470312	0.874155	-0.004418
H187	H	0.552167	0.087936	-0.183443
H188	H	0.885500	0.421269	0.149890
H189	H	1.218834	0.754602	0.483223
H190	H	1.070821	-0.136192	-0.079835
H191	H	1.404154	0.197142	0.253498
H192	H	1.737487	0.530475	0.586831
F193	F	0.343881	0.081276	-0.262050
F194	F	0.677214	0.414609	0.071284
F195	F	1.010547	0.747943	0.404617
H196	H	0.415881	0.095849	0.032875
H197	H	0.749214	0.429183	0.366209
H198	H	1.082548	0.762516	0.699542
H199	H	1.068610	-0.268296	-0.079648
H200	H	1.401943	0.065037	0.253685
H201	H	1.735277	0.398370	0.587019
F202	F	1.066507	-0.024616	-0.468275
F203	F	1.399840	0.308718	-0.134941
F204	F	1.733174	0.642051	0.198392
H205	H	0.801532	-0.548832	-0.059702
H206	H	1.134865	-0.215499	0.273632
H207	H	1.468198	0.117835	0.606965
F208	F	0.788555	-0.243886	-0.058757
F209	F	1.121888	0.089447	0.274576
F210	F	1.455221	0.422781	0.607910
F211	F	0.843522	0.172266	-0.451680
F212	F	1.176855	0.505600	-0.118347
F213	F	1.510189	0.838933	0.214987
F214	F	0.526265	0.101576	0.122704
F215	F	0.859598	0.434909	0.456037
F216	F	1.192931	0.768243	0.789370
F217	F	1.079076	-0.723559	-0.080378
F218	F	1.412409	-0.390225	0.252956
F219	F	1.745743	-0.056892	0.586289
F220	F	0.813255	0.199017	-0.858761
F221	F	1.146589	0.532350	-0.525428
F222	F	1.479922	0.865683	-0.192095
F223	F	1.026633	0.010612	-0.687671
F224	F	1.359966	0.343945	-0.354338
F225	F	1.693300	0.677278	-0.021004
H226	H	1.043974	-0.004734	-0.290953
H227	H	1.377307	0.328599	0.042380
H228	H	1.710641	0.661933	0.375714
H229	H	0.799324	-0.680942	-0.059520
H230	H	1.132657	-0.347608	0.273813
H231	H	1.465991	-0.014275	0.607146
H232	H	0.454257	0.087008	-0.172217
H233	H	0.787590	0.420341	0.161117
H234	H	1.120924	0.753675	0.494450
F235	F	1.019589	0.016834	-0.602647
F236	F	1.352923	0.350168	-0.269314
F237	F	1.686256	0.683501	0.064020
H238	H	0.808953	-0.104831	-0.060286
H239	H	1.142286	0.228503	0.273048
H240	H	1.475620	0.561836	0.606381
H241	H	1.063397	-0.580188	-0.079237
H242	H	1.396730	-0.246855	0.254096
H243	H	1.730063	0.086478	0.587430
F244	F	0.833903	0.180735	-0.264010
F245	F	1.167236	0.514068	0.069323
F246	F	1.500569	0.847401	0.402657
H247	H	0.864654	0.153608	-0.549071
H248	H	1.197988	0.486941	-0.215738
H249	H	1.531321	0.820274	0.117595
H250	H	1.022154	0.014567	-0.862971
H251	H	1.355487	0.347900	-0.529638
H252	H	1.688820	0.681233	-0.196305
H253	H	0.182714	0.080342	-0.230429
H254	H	0.516047	0.413676	0.102905
H255	H	0.849380	0.747009	0.436238
F256	F	0.156819	0.093992	0.075720
F257	F	0.490153	0.427326	0.409053
F258	F	0.823486	0.760659	0.742386
H259	H	0.317978	0.094911	0.044103
H260	H	0.651311	0.428244	0.377436
H261	H	0.984645	0.761577	0.710770
H262	H	0.687426	0.102528	0.091088
H263	H	1.020760	0.435862	0.424422
H264	H	1.354093	0.769195	0.757755
