data_functionalizedCrystal
_audit_creation_method	'MofGen! by Chris Wilmer'
_symmetry_space_group_name_H-M	'P1'
_symmetry_Int_Tables_number	1
_symmetry_cell_setting	triclinic
loop_
_symmetry_equiv_pos_as_xyz
  x,y,z
_cell_length_a	29.839135
_cell_length_b	29.839132
_cell_length_c	16.625539
_cell_angle_alpha	90.034308
_cell_angle_beta	89.976179
_cell_angle_gamma	89.952207
loop_
_atom_site_label
_atom_site_type_symbol
_atom_site_fract_x
_atom_site_fract_y
_atom_site_fract_z
Zn1	Zn	0.686745	0.178822	-0.455946
Zn2	Zn	1.020078	0.512156	-0.122612
Zn3	Zn	1.353411	0.845489	0.210721
Zn4	Zn	0.686661	0.253953	-0.321099
Zn5	Zn	1.019994	0.587286	0.012235
Zn6	Zn	1.353327	0.920620	0.345568
Zn7	Zn	0.611616	0.178841	-0.321119
Zn8	Zn	0.944950	0.512175	0.012215
Zn9	Zn	1.278283	0.845508	0.345548
Zn10	Zn	0.611570	0.253929	-0.455881
Zn11	Zn	0.944903	0.587263	-0.122548
Zn12	Zn	1.278237	0.920596	0.210786
O13	O	0.649148	0.216386	-0.388511
O14	O	0.982481	0.549720	-0.055178
O15	O	1.315815	0.883053	0.278156
O16	O	0.749601	0.188791	-0.438077
O17	O	1.082934	0.522124	-0.104743
O18	O	1.416267	0.855457	0.228590
O19	O	0.676690	0.244007	-0.208269
O20	O	1.010024	0.577341	0.125064
O21	O	1.343357	0.910674	0.458398
O22	O	0.621637	0.115972	-0.339039
O23	O	0.954970	0.449305	-0.005706
O24	O	1.288304	0.782638	0.327628
O25	O	0.749539	0.243989	-0.339005
O26	O	1.082872	0.577322	-0.005672
O27	O	1.416206	0.910656	0.327661
O28	O	0.676833	0.115958	-0.438096
O29	O	1.010167	0.449291	-0.104763
O30	O	1.343500	0.782624	0.228571
O31	O	0.621556	0.188823	-0.208283
O32	O	0.954889	0.522156	0.125050
O33	O	1.288222	0.855490	0.458383
O34	O	0.548743	0.188800	-0.338976
O35	O	0.882077	0.522133	-0.005643
O36	O	1.215410	0.855466	0.327690
O37	O	0.621558	0.243948	-0.568722
O38	O	0.954891	0.577282	-0.235389
O39	O	1.288225	0.910615	0.097945
O40	O	0.548709	0.243967	-0.437986
O41	O	0.882042	0.577300	-0.104652
O42	O	1.215376	0.910633	0.228681
O43	O	0.676788	0.188767	-0.568770
O44	O	1.010122	0.522101	-0.235436
O45	O	1.343455	0.855434	0.097897
O46	O	0.676645	0.316817	-0.338943
O47	O	1.009979	0.650150	-0.005609
O48	O	1.343312	0.983484	0.327724
O49	O	0.621477	0.316800	-0.437966
O50	O	0.954810	0.650133	-0.104633
O51	O	1.288143	0.983466	0.228700
C52	C	0.532425	0.216383	-0.388477
C53	C	0.865759	0.549716	-0.055143
C54	C	1.199092	0.883050	0.278190
C55	C	0.482491	0.216392	-0.388481
C56	C	0.815824	0.549726	-0.055148
C57	C	1.149158	0.883059	0.278186
C58	C	0.172877	0.187688	-0.440173
C59	C	0.506210	0.521022	-0.106840
C60	C	0.839543	0.854355	0.226493
C61	C	-0.014796	0.187691	-0.440196
C62	C	0.318537	0.521025	-0.106863
C63	C	0.651870	0.854358	0.226470
O64	O	-0.039036	0.163276	-0.484109
O65	O	0.294297	0.496609	-0.150776
O66	O	0.627630	0.829942	0.182558
N67	N	-0.038294	0.216387	-0.388541
N68	N	0.295039	0.549720	-0.055207
N69	N	0.628373	0.883054	0.278126
C70	C	-0.014871	0.245082	-0.336872
C71	C	0.318463	0.578415	-0.003538
C72	C	0.651796	0.911748	0.329795
O73	O	-0.039163	0.269486	-0.292930
O74	O	0.294170	0.602819	0.040404
O75	O	0.627503	0.936153	0.373737
C76	C	0.172802	0.245076	-0.336845
C77	C	0.506135	0.578409	-0.003512
C78	C	0.839468	0.911743	0.329822
C79	C	0.196297	0.216382	-0.388510
C80	C	0.529630	0.549715	-0.055177
C81	C	0.862963	0.883048	0.278157
C82	C	0.196372	0.158996	-0.491834
C83	C	0.529705	0.492329	-0.158500
C84	C	0.863039	0.825663	0.174833
C85	C	0.243288	0.158997	-0.491830
C86	C	0.576621	0.492330	-0.158497
C87	C	0.909954	0.825664	0.174836
C88	C	0.266708	0.187691	-0.440167
C89	C	0.600041	0.521024	-0.106834
C90	C	0.933374	0.854357	0.226500
C91	C	0.243212	0.216383	-0.388507
C92	C	0.576546	0.549716	-0.055174
C93	C	0.909879	0.883050	0.278160
C94	C	0.196224	0.273768	-0.285173
C95	C	0.529557	0.607102	0.048161
C96	C	0.862891	0.940435	0.381494
C97	C	0.243145	0.273763	-0.285169
C98	C	0.576478	0.607097	0.048164
C99	C	0.909812	0.940430	0.381497
C100	C	0.266640	0.245069	-0.336834
C101	C	0.599974	0.578403	-0.003501
C102	C	0.933307	0.911736	0.329832
C103	C	0.313548	0.245078	-0.336841
C104	C	0.646881	0.578411	-0.003507
C105	C	0.980215	0.911744	0.329826
N106	N	0.337046	0.216382	-0.388496
N107	N	0.670379	0.549716	-0.055163
N108	N	1.003712	0.883049	0.278170
C109	C	0.313625	0.187689	-0.440160
C110	C	0.646959	0.521022	-0.106826
C111	C	0.980292	0.854355	0.226507
C112	C	-0.113401	0.245083	-0.336890
C113	C	0.219932	0.578417	-0.003557
C114	C	0.553265	0.911750	0.329776
C115	C	-0.160319	0.245085	-0.336898
C116	C	0.173014	0.578419	-0.003564
C117	C	0.506348	0.911752	0.329769
C118	C	-0.160242	0.187694	-0.440222
C119	C	0.173092	0.521028	-0.106888
C120	C	0.506425	0.854361	0.226445
C121	C	-0.113323	0.187695	-0.440218
C122	C	0.220010	0.521028	-0.106884
C123	C	0.553344	0.854361	0.226449
C124	C	-0.089904	0.216388	-0.388546
C125	C	0.243430	0.549721	-0.055213
C126	C	0.576763	0.883054	0.278121
C127	C	0.412151	0.187694	-0.440150
C128	C	0.745485	0.521027	-0.106816
C129	C	1.078818	0.854360	0.226517
C130	C	0.459071	0.187699	-0.440144
C131	C	0.792404	0.521032	-0.106811
C132	C	1.125738	0.854365	0.226522
C133	C	0.458989	0.245088	-0.336818
C134	C	0.792323	0.578421	-0.003484
C135	C	1.125656	0.911755	0.329849
C136	C	0.412074	0.245085	-0.336826
C137	C	0.745407	0.578418	-0.003492
C138	C	1.078740	0.911752	0.329841
C139	C	0.388656	0.216384	-0.388494
C140	C	0.721989	0.549717	-0.055161
C141	C	1.055323	0.883051	0.278172
O142	O	0.337817	0.269477	-0.292945
O143	O	0.671150	0.602810	0.040389
O144	O	1.004484	0.936144	0.373722
O145	O	0.337926	0.163281	-0.484082
O146	O	0.671259	0.496614	-0.150749
O147	O	1.004593	0.829948	0.182584
C148	C	0.125961	0.187687	-0.440177
C149	C	0.459295	0.521020	-0.106843
C150	C	0.792628	0.854354	0.226490
C151	C	0.102466	0.216379	-0.388516
C152	C	0.435799	0.549713	-0.055183
C153	C	0.769133	0.883046	0.278150
C154	C	0.125886	0.245073	-0.336853
C155	C	0.459219	0.578406	-0.003520
C156	C	0.792553	0.911739	0.329813
C157	C	0.055548	0.216381	-0.388524
C158	C	0.388881	0.549715	-0.055191
C159	C	0.722215	0.883048	0.278143
C160	C	0.032128	0.187688	-0.440187
C161	C	0.365461	0.521021	-0.106854
C162	C	0.698795	0.854354	0.226479
C163	C	0.055626	0.158992	-0.491843
C164	C	0.388959	0.492325	-0.158510
C165	C	0.722292	0.825659	0.174824
C166	C	0.102541	0.158993	-0.491840
C167	C	0.435874	0.492327	-0.158507
C168	C	0.769208	0.825660	0.174827
C169	C	0.102388	0.273768	-0.285197
C170	C	0.435722	0.607102	0.048136
C171	C	0.769055	0.940435	0.381469
C172	C	0.055473	0.273765	-0.285205
C173	C	0.388806	0.607099	0.048128
C174	C	0.722139	0.940432	0.381461
C175	C	0.032053	0.245072	-0.336869
C176	C	0.365386	0.578405	-0.003535
C177	C	0.698719	0.911738	0.329798
C178	C	0.649059	0.333109	-0.388463
C179	C	0.982392	0.666442	-0.055130
C180	C	1.315726	0.999776	0.278204
C181	C	0.649062	0.383043	-0.388469
C182	C	0.982395	0.716377	-0.055136
C183	C	1.315729	1.049710	0.278197
C184	C	0.677895	0.692683	-0.336992
C185	C	1.011228	1.026017	-0.003658
C186	C	1.344561	1.359350	0.329675
C187	C	0.677938	0.880356	-0.337010
C188	C	1.011271	1.213690	-0.003676
C189	C	1.344604	1.547023	0.329657
O190	O	0.702404	0.904618	-0.293227
O191	O	1.035737	1.237952	0.040106
O192	O	1.369070	1.571285	0.373439
N193	N	0.649195	0.903828	-0.388524
N194	N	0.982528	1.237162	-0.055191
N195	N	1.315862	1.570495	0.278143
C196	C	0.620442	0.880380	-0.440041
C197	C	0.953775	1.213713	-0.106708
C198	C	1.287109	1.547046	0.226625
O199	O	0.595999	0.904650	-0.483864
O200	O	0.929332	1.237984	-0.150530
O201	O	1.262665	1.571317	0.182803
C202	C	0.620402	0.692707	-0.440026
C203	C	0.953735	1.026041	-0.106693
C204	C	1.287068	1.359374	0.226640
C205	C	0.649143	0.669238	-0.388503
C206	C	0.982476	1.002571	-0.055170
C207	C	1.315809	1.335904	0.278164
C208	C	0.706634	0.669214	-0.285473
C209	C	1.039967	1.002547	0.047860
C210	C	1.373301	1.335880	0.381194
C211	C	0.706621	0.622298	-0.285466
C212	C	1.039954	0.955631	0.047868
C213	C	1.373288	1.288965	0.381201
C214	C	0.677869	0.598852	-0.336977
C215	C	1.011203	0.932186	-0.003644
C216	C	1.344536	1.265519	0.329689
C217	C	0.649130	0.622322	-0.388496
C218	C	0.982463	0.955656	-0.055162
C219	C	1.315797	1.288989	0.278171
C220	C	0.591651	0.669259	-0.491547
C221	C	0.924984	1.002593	-0.158214
C222	C	1.258318	1.335926	0.175120
C223	C	0.591644	0.622338	-0.491540
C224	C	0.924978	0.955671	-0.158207
C225	C	1.258311	1.289005	0.175127
C226	C	0.620385	0.598868	-0.440017
C227	C	0.953719	0.932202	-0.106683
C228	C	1.287052	1.265535	0.226650
C229	C	0.620365	0.551961	-0.440000
C230	C	0.953699	0.885294	-0.106667
C231	C	1.287032	1.218628	0.226667
N232	N	0.649108	0.528489	-0.388486
N233	N	0.982441	0.861822	-0.055152
N234	N	1.315775	1.195156	0.278181
C235	C	0.677860	0.551935	-0.336974
C236	C	1.011193	0.885268	-0.003641
C237	C	1.344526	1.218601	0.329692
C238	C	0.620464	0.978910	-0.440044
C239	C	0.953798	1.312243	-0.106711
C240	C	1.287131	1.645577	0.226622
C241	C	0.620474	1.025828	-0.440047
C242	C	0.953807	1.359161	-0.106714
C243	C	1.287140	1.692495	0.226620
C244	C	0.677970	1.025802	-0.337016
C245	C	1.011304	1.359135	-0.003683
C246	C	1.344637	1.692468	0.329650
C247	C	0.677958	0.978883	-0.337010
C248	C	1.011292	1.312216	-0.003677
C249	C	1.344625	1.645550	0.329656
C250	C	0.649207	0.955438	-0.388530
C251	C	0.982540	1.288771	-0.055197
C252	C	1.315874	1.622105	0.278137
C253	C	0.677831	0.453409	-0.336963
C254	C	1.011164	0.786742	-0.003629
C255	C	1.344497	1.120075	0.329704
C256	C	0.677814	0.406489	-0.336958
C257	C	1.011147	0.739823	-0.003624
C258	C	1.344481	1.073156	0.329709
C259	C	0.620319	0.406520	-0.439991
C260	C	0.953653	0.739853	-0.106658
C261	C	1.286986	1.073186	0.226676
C262	C	0.620334	0.453435	-0.439993
C263	C	0.953668	0.786768	-0.106660
C264	C	1.287001	1.120102	0.226673
C265	C	0.649093	0.476879	-0.388477
C266	C	0.982427	0.810212	-0.055143
C267	C	1.315760	1.143545	0.278190
O268	O	0.595916	0.527670	-0.483766
O269	O	0.929249	0.861004	-0.150433
O270	O	1.262582	1.194337	0.182901
O271	O	0.702306	0.527656	-0.293171
O272	O	1.035640	0.860989	0.040162
O273	O	1.368973	1.194322	0.373495
C274	C	0.677907	0.739599	-0.336999
C275	C	1.011241	1.072932	-0.003665
C276	C	1.344574	1.406265	0.329668
C277	C	0.649168	0.763069	-0.388517
C278	C	0.982502	1.096402	-0.055184
C279	C	1.315835	1.429735	0.278149
C280	C	0.620416	0.739623	-0.440029
C281	C	0.953750	1.072956	-0.106695
C282	C	1.287083	1.406289	0.226638
C283	C	0.649178	0.809986	-0.388520
C284	C	0.982511	1.143320	-0.055187
C285	C	1.315844	1.476653	0.278147
C286	C	0.677930	0.833432	-0.337009
C287	C	1.011263	1.166765	-0.003675
C288	C	1.344596	1.500099	0.329658
C289	C	0.706672	0.809960	-0.285494
C290	C	1.040005	1.143293	0.047839
C291	C	1.373339	1.476627	0.381172
C292	C	0.706659	0.763044	-0.285487
C293	C	1.039993	1.096378	0.047846
C294	C	1.373326	1.429711	0.381179
C295	C	0.591674	0.763095	-0.491543
C296	C	0.925007	1.096428	-0.158210
C297	C	1.258340	1.429762	0.175124
C298	C	0.591689	0.810010	-0.491545
C299	C	0.925022	1.143344	-0.158212
C300	C	1.258355	1.476677	0.175121
C301	C	0.620440	0.833456	-0.440034
C302	C	0.953774	1.166789	-0.106701
C303	C	1.287107	1.500123	0.226633
C304	C	0.766326	0.216390	-0.388546
C305	C	1.099660	0.549724	-0.055213
C306	C	1.432993	0.883057	0.278121
C307	C	0.816261	0.216392	-0.388561
C308	C	1.149594	0.549725	-0.055228
C309	C	1.482927	0.883058	0.278106
C310	C	0.649177	0.216353	-0.598820
C311	C	0.982511	0.549686	-0.265487
C312	C	1.315844	0.883020	0.067847
C313	C	0.649190	0.216339	-0.688441
C314	C	0.982523	0.549672	-0.355108
C315	C	1.315856	0.883005	-0.021774
C316	C	0.649233	1.099208	-0.388559
C317	C	0.982566	1.432541	-0.055226
C318	C	1.315899	1.765875	0.278107
C319	C	0.649226	1.049274	-0.388536
C320	C	0.982559	1.382607	-0.055202
C321	C	1.315892	1.715940	0.278131
C322	C	0.649210	0.216288	-1.016617
C323	C	0.982544	0.549622	-0.683284
C324	C	1.315877	0.882955	-0.349950
C325	C	0.649203	0.216304	-0.925308
C326	C	0.982537	0.549637	-0.591975
C327	C	1.315870	0.882971	-0.258642
C328	C	0.649200	0.216314	-0.852532
C329	C	0.982534	0.549647	-0.519199
C330	C	1.315867	0.882981	-0.185865
C331	C	0.649193	0.216329	-0.761218
C332	C	0.982526	0.549662	-0.427884
C333	C	1.315859	0.882995	-0.094551
C334	C	0.649145	0.216387	-0.179020
C335	C	0.982478	0.549721	0.154313
C336	C	1.315811	0.883054	0.487647
C337	C	0.649219	0.216275	-0.089400
C338	C	0.982553	0.549608	0.243934
C339	C	1.315886	0.882942	0.577267
H340	H	0.393090	0.164321	-0.482221
H341	H	0.726423	0.497655	-0.148887
H342	H	1.059757	0.830988	0.184446
H343	H	0.730050	0.688298	-0.243526
H344	H	1.063383	1.021631	0.089807
H345	H	1.396716	1.354965	0.423141
H346	H	0.121667	0.135627	-0.533910
H347	H	0.455000	0.468961	-0.200577
H348	H	0.788334	0.802294	0.132756
H349	H	0.596909	0.387423	-0.481929
H350	H	0.930242	0.720756	-0.148595
H351	H	1.263575	1.054090	0.184738
H352	H	0.177102	0.297134	-0.243101
H353	H	0.510436	0.630467	0.090233
H354	H	0.843769	0.963800	0.423566
H355	H	0.036549	0.135630	-0.533912
H356	H	0.369882	0.468964	-0.200578
H357	H	0.703215	0.802297	0.132755
Br358	Br	0.275167	0.120052	-0.561949
Br359	Br	0.608500	0.453385	-0.228616
Br360	Br	0.941833	0.786718	0.104717
Br361	Br	0.274926	0.312706	-0.215040
Br362	Br	0.608259	0.646040	0.118294
Br363	Br	0.941592	0.979373	0.451627
Br364	Br	0.581317	0.485288	-0.509899
Br365	Br	0.914651	0.818621	-0.176565
Br366	Br	1.247984	1.151955	0.156768
H367	H	0.177308	0.135628	-0.533904
H368	H	0.510642	0.468961	-0.200571
H369	H	0.843975	0.802294	0.132762
H370	H	0.730082	0.829058	-0.243550
H371	H	1.063415	1.162391	0.089784
H372	H	1.396748	1.495724	0.423117
H373	H	0.568261	0.744009	-0.533491
H374	H	0.901594	1.077342	-0.200158
H375	H	1.234928	1.410676	0.133176
Br376	Br	-0.192200	0.284035	-0.266788
Br377	Br	0.141134	0.617368	0.066545
Br378	Br	0.474467	0.950701	0.399879
H379	H	0.121452	0.297134	-0.243125
H380	H	0.454786	0.630467	0.090209
H381	H	0.788119	0.963801	0.423542
H382	H	-0.094338	0.268450	-0.294811
H383	H	0.238996	0.601783	0.038523
H384	H	0.572329	0.935117	0.371856
H385	H	0.730063	0.743939	-0.243532
H386	H	1.063396	1.077272	0.089801
H387	H	1.396730	1.410605	0.423134
Br388	Br	0.581441	0.947099	-0.509971
Br389	Br	0.914774	1.280432	-0.176637
Br390	Br	1.248107	1.613765	0.156696
H391	H	0.392943	0.268455	-0.294765
H392	H	0.726276	0.601789	0.038568
H393	H	1.059610	0.935122	0.371902
Br394	Br	0.716965	0.947036	-0.267083
Br395	Br	1.050298	1.280369	0.066251
Br396	Br	1.383632	1.613703	0.399584
H397	H	0.478066	0.268451	-0.294756
H398	H	0.811400	0.601784	0.038577
H399	H	1.144733	0.935117	0.371910
Br400	Br	0.552677	0.841856	-0.561475
Br401	Br	0.886011	1.175190	-0.228141
Br402	Br	1.219344	1.508523	0.105192
Br403	Br	0.023592	0.312711	-0.215081
Br404	Br	0.356926	0.646044	0.118252
Br405	Br	0.690259	0.979378	0.451585
Br406	Br	-0.081441	0.148751	-0.510336
Br407	Br	0.251892	0.482084	-0.177003
Br408	Br	0.585225	0.815418	0.156330
H409	H	-0.179318	0.164331	-0.482288
H410	H	0.154015	0.497664	-0.148955
H411	H	0.487348	0.830998	0.184378
H412	H	0.701218	0.387382	-0.294998
H413	H	1.034552	0.720715	0.038335
H414	H	1.367885	1.054048	0.371668
H415	H	0.701250	0.472491	-0.295015
H416	H	1.034583	0.805824	0.038319
H417	H	1.367917	1.139158	0.371652
H418	H	0.730026	0.603192	-0.243513
H419	H	1.063359	0.936525	0.089820
H420	H	1.396693	1.269858	0.423153
H421	H	0.568245	0.688360	-0.533499
H422	H	0.901578	1.021694	-0.200166
H423	H	1.234911	1.355027	0.133168
Br424	Br	0.716989	1.057630	-0.267105
Br425	Br	1.050322	1.390963	0.066228
Br426	Br	1.383656	1.724296	0.399561
H427	H	0.568232	0.603252	-0.533496
H428	H	0.901565	0.936585	-0.200163
H429	H	1.234899	1.269918	0.133170
Br430	Br	0.490955	0.148756	-0.510270
Br431	Br	0.824288	0.482089	-0.176936
Br432	Br	1.157621	0.815423	0.156397
H433	H	0.597066	1.044933	-0.481995
H434	H	0.930399	1.378266	-0.148662
H435	H	1.263732	1.711600	0.184672
