data_functionalizedCrystal
_audit_creation_method	'MofGen! by Chris Wilmer'
_symmetry_space_group_name_H-M	'P1'
_symmetry_Int_Tables_number	1
_symmetry_cell_setting	triclinic
loop_
_symmetry_equiv_pos_as_xyz
  x,y,z
_cell_length_a	18.215407
_cell_length_b	16.120444
_cell_length_c	18.215399
_cell_angle_alpha	92.867973
_cell_angle_beta	89.985195
_cell_angle_gamma	92.921021
loop_
_atom_site_label
_atom_site_type_symbol
_atom_site_fract_x
_atom_site_fract_y
_atom_site_fract_z
Zn1	Zn	1.110180	-0.332018	-0.430929
Zn2	Zn	1.103850	-0.471445	-0.314101
Zn3	Zn	0.987118	-0.332036	-0.307882
Zn4	Zn	0.980836	-0.471378	-0.437127
O5	O	1.045496	-0.401719	-0.372510
O6	O	1.212323	-0.350533	-0.415441
O7	O	1.088345	-0.452987	-0.210293
O8	O	1.008720	-0.215368	-0.319008
O9	O	1.207673	-0.452969	-0.329607
O10	O	1.099133	-0.215355	-0.409411
O11	O	1.002582	-0.350565	-0.205724
O12	O	0.883301	-0.350500	-0.325018
O13	O	0.998014	-0.452856	-0.539287
O14	O	0.878686	-0.452874	-0.419973
O15	O	1.093042	-0.350468	-0.534734
O16	O	1.082254	-0.588101	-0.335616
O17	O	0.991877	-0.588052	-0.426003
C18	C	0.854291	-0.401682	-0.372494
C19	C	0.772492	-0.401687	-0.372505
C20	C	0.509844	-0.348483	-0.417283
C21	C	0.586704	-0.348470	-0.417280
C22	C	0.581887	-0.454982	-0.327754
C23	C	0.505029	-0.454999	-0.327761
C24	C	0.469010	-0.401745	-0.372524
C25	C	0.622727	-0.401714	-0.372514
C26	C	0.706062	-0.401700	-0.372511
C27	C	0.385670	-0.401760	-0.372529
C28	C	1.035717	-0.618327	-0.382173
C29	C	1.031601	-0.710993	-0.386332
C30	C	1.067029	-0.921938	-0.351095
C31	C	1.024099	-0.880649	-0.393932
C32	C	1.028274	-0.786243	-0.389702
C33	C	1.062855	-1.016352	-0.355324
C34	C	1.237447	-0.401757	-0.372526
C35	C	1.319245	-0.401772	-0.372533
C36	C	1.045534	-0.401652	-0.564460
C37	C	1.045550	-0.401624	-0.646257
C38	C	1.055333	-0.184265	-0.362825
C39	C	1.059525	-0.091600	-0.358697
C40	C	1.000935	-0.348257	-0.832072
C41	C	1.000948	-0.348240	-0.908930
C42	C	1.090257	-0.454892	-0.913677
C43	C	1.090239	-0.454913	-0.836820
C44	C	1.045579	-0.401590	-0.796019
C45	C	1.045611	-0.401553	-0.949734
C46	C	1.045626	-0.401535	-1.033067
C47	C	1.045563	-0.401609	-0.712681
C48	C	1.045503	-0.401725	-0.181304
C49	C	1.045640	-0.401519	-0.099496
H50	H	0.619948	-0.305099	-0.453728
H51	H	1.126619	-0.498305	-0.946906
C52	C	1.139369	-0.513571	-0.797160
N53	N	1.176376	-0.557747	-0.767287
C54	C	0.470226	-0.289909	-0.466530
N55	N	0.440387	-0.245792	-0.503627
C56	C	0.460109	-0.513591	-0.278517
N57	N	0.426275	-0.557720	-0.241429
C58	C	0.970204	-0.928675	-0.447766
N59	N	0.929610	-0.964852	-0.488309
H60	H	0.611224	-0.498338	-0.291308
C61	C	0.951840	-0.289564	-0.948583
N62	N	0.914850	-0.245366	-0.978450
C63	C	1.120909	-0.873912	-0.297254
N64	N	1.161487	-0.837729	-0.256699
C65	C	0.951801	-0.289607	-0.787194
N66	N	0.914790	-0.245433	-0.753394
