data_functionalizedCrystal
_audit_creation_method	'MofGen! by Chris Wilmer'
_symmetry_space_group_name_H-M	'P1'
_symmetry_Int_Tables_number	1
_symmetry_cell_setting	triclinic
loop_
_symmetry_equiv_pos_as_xyz
  x,y,z
_cell_length_a	17.000371
_cell_length_b	17.019294
_cell_length_c	17.766277
_cell_angle_alpha	86.114664
_cell_angle_beta	89.990110
_cell_angle_gamma	79.505866
loop_
_atom_site_label
_atom_site_type_symbol
_atom_site_fract_x
_atom_site_fract_y
_atom_site_fract_z
O1	O	1.056076	0.028428	-0.064440
O2	O	0.824311	0.057060	-0.066296
O3	O	0.946658	-0.072537	-0.057892
O4	O	0.933729	0.158025	-0.072844
O5	O	0.946637	-0.072542	0.067297
O6	O	0.824289	0.057055	0.058893
O7	O	1.056054	0.028423	0.060749
Cu8	Cu	0.940170	0.042739	0.071252
Cu9	Cu	0.940195	0.042744	-0.076799
O10	O	0.933707	0.158021	0.052345
C11	C	0.794645	0.058596	-0.003801
C12	C	0.706281	0.063169	-0.004098
C13	C	0.674335	-0.007205	0.000467
C14	C	0.591307	-0.002903	0.000183
C15	C	0.540227	0.071773	-0.004661
C16	C	0.572178	0.142152	-0.009229
C17	C	0.655204	0.137849	-0.008950
C18	C	0.289062	0.088391	-0.005744
C19	C	0.206031	0.092688	-0.006020
C20	C	0.225165	-0.052367	0.003390
C21	C	0.308193	-0.056663	0.003673
C22	C	0.340137	0.013716	-0.000899
C23	C	0.455359	0.076171	-0.004950
C24	C	0.425003	0.009316	-0.000616
C25	C	0.946157	-0.101895	0.006604
C26	C	0.944685	-0.189363	0.012272
C27	C	0.944008	-0.230449	-0.053306
C28	C	0.942620	-0.312634	-0.047978
C29	C	0.941916	-0.353733	0.022927
C30	C	0.942591	-0.312641	0.088510
C31	C	0.943973	-0.230456	0.083181
C32	C	0.937737	-0.601877	0.042429
C33	C	0.936358	-0.684067	0.047752
C34	C	0.936385	-0.684055	-0.088736
C35	C	0.937772	-0.601870	-0.094058
C36	C	0.938443	-0.560784	-0.028476
C37	C	0.940500	-0.437740	0.028375
C38	C	0.939853	-0.476778	-0.033924
C39	C	1.085721	0.026888	-0.001747
C40	C	1.174084	0.022315	-0.001456
C41	C	0.934209	0.187378	-0.012153
C42	C	0.935680	0.274847	-0.017825
N43	N	0.940158	0.042734	0.175382
N44	N	0.940214	0.042743	-0.180929
C45	C	0.994351	-0.014627	0.218489
C46	C	0.994355	-0.014631	0.297291
C47	C	0.940175	0.042739	0.332983
C48	C	0.885972	0.100105	0.289866
C49	C	0.885963	0.100102	0.211066
C50	C	0.929664	0.115311	0.453114
C51	C	0.929678	0.115314	0.531913
C52	C	0.940196	0.042747	0.576028
C53	C	0.950717	-0.029827	0.541336
C54	C	0.950709	-0.029830	0.462536
C55	C	0.940177	0.042748	0.418428
C56	C	0.994397	-0.014622	0.704582
C57	C	0.994396	-0.014627	0.783385
C58	C	0.886016	0.100115	0.775958
C59	C	0.886013	0.100113	0.697157
C60	C	0.940208	0.042745	0.661473
H61	H	0.565301	-0.060209	0.003899
Cl62	Cl	0.941696	-0.364306	0.177649
H63	H	0.841898	0.146824	0.805018
H64	H	1.038523	-0.061337	0.675527
H65	H	0.164442	0.153502	-0.009962
H66	H	0.349778	-0.117472	0.007621
H67	H	0.530582	0.202955	-0.013178
H68	H	0.942071	-0.346084	-0.101378
H69	H	0.199147	-0.109666	0.007103
Cl70	Cl	0.935540	-0.735710	-0.171177
Cl71	Cl	0.940743	-0.425110	-0.123059
H72	H	1.038487	-0.061342	0.332395
H73	H	0.938300	-0.568437	0.095831
Cl74	Cl	0.391137	0.170047	-0.011040
H75	H	0.921085	0.174409	0.417201
Cl76	Cl	0.939611	-0.489412	0.117510
H77	H	0.938346	-0.568413	-0.151797
H78	H	0.959273	-0.088922	0.434292
Cl79	Cl	0.695365	0.226323	-0.014692
H80	H	0.959281	-0.088918	0.577253
H81	H	0.315060	0.145699	-0.009471
H82	H	0.466596	-0.051485	0.003324
H83	H	0.715920	-0.068015	0.004415
H84	H	0.944585	-0.196994	-0.111045
Cl85	Cl	0.935477	-0.735734	0.136898
H86	H	0.944514	-0.197003	0.136582
Cl87	Cl	1.062475	-0.086748	0.173630
H88	H	1.038524	-0.061341	0.818484
H89	H	0.841887	0.146824	0.662057
Cl90	Cl	0.916457	0.206549	0.575519
H91	H	0.841856	0.146815	0.318930
Cl92	Cl	0.817830	0.172219	0.156871
