data_functionalizedCrystal
_audit_creation_method	'MofGen! by Chris Wilmer'
_symmetry_space_group_name_H-M	'P1'
_symmetry_Int_Tables_number	1
_symmetry_cell_setting	triclinic
loop_
_symmetry_equiv_pos_as_xyz
  x,y,z
_cell_length_a	16.625548
_cell_length_b	16.959454
_cell_length_c	16.959447
_cell_angle_alpha	89.973264
_cell_angle_beta	90.015428
_cell_angle_gamma	89.978857
loop_
_atom_site_label
_atom_site_type_symbol
_atom_site_fract_x
_atom_site_fract_y
_atom_site_fract_z
Zn1	Zn	1.232653	0.314643	0.446952
Zn2	Zn	1.732653	0.814643	0.946952
Zn3	Zn	1.232574	0.446836	0.314781
Zn4	Zn	1.732574	0.946836	0.814781
Zn5	Zn	1.097827	0.314678	0.314787
Zn6	Zn	1.597827	0.814678	0.814787
Zn7	Zn	1.097791	0.446786	0.446917
Zn8	Zn	1.597791	0.946786	0.946917
O9	O	1.165211	0.380736	0.380859
O10	O	1.665211	0.880736	0.880859
O11	O	1.345475	0.332185	0.429431
O12	O	1.845475	0.832185	0.929431
O13	O	1.214681	0.429340	0.204171
O14	O	1.714681	0.929340	0.704171
O15	O	1.115760	0.204062	0.332335
O16	O	1.615760	0.704062	0.832335
O17	O	1.345417	0.429307	0.332326
O18	O	1.845417	0.929307	0.832326
O19	O	1.214816	0.204037	0.429436
O20	O	1.714816	0.704037	0.929436
O21	O	1.115683	0.332244	0.204175
O22	O	1.615683	0.832244	0.704175
O23	O	0.984990	0.332196	0.332302
O24	O	1.484990	0.832196	0.832302
O25	O	1.115699	0.429222	0.557533
O26	O	1.615699	0.929222	1.057533
O27	O	0.984963	0.429255	0.429378
O28	O	1.484963	0.929255	0.929378
O29	O	1.214781	0.332137	0.557558
O30	O	1.714781	0.832137	1.057558
O31	O	1.214646	0.557440	0.332293
O32	O	1.714646	1.057440	0.832293
O33	O	1.115622	0.557404	0.429373
O34	O	1.615622	1.057404	0.929373
C35	C	0.955720	0.380725	0.380837
C36	C	1.455720	0.880725	0.880837
C37	C	0.866099	0.380739	0.380847
C38	C	1.366099	0.880739	0.880847
C39	C	1.165144	0.586102	0.380846
C40	C	1.665144	1.086102	0.880846
C41	C	1.165188	0.673959	0.380867
C42	C	1.665188	1.173959	0.880867
C43	C	1.165245	0.380670	0.587028
C44	C	1.665245	0.880670	1.087028
C45	C	1.165259	0.380643	0.674884
C46	C	1.665259	0.880643	1.174884
C47	C	0.537924	0.380744	0.380880
C48	C	1.037924	0.880744	0.880880
C49	C	0.629232	0.380740	0.380868
C50	C	1.129232	0.880740	0.880868
C51	C	0.702008	0.380742	0.380863
C52	C	1.202008	0.880742	0.880863
C53	C	0.793323	0.380737	0.380852
C54	C	1.293323	0.880737	0.880852
C55	C	1.375520	0.380748	0.380882
C56	C	1.875520	0.880748	0.880882
C57	C	1.465141	0.380753	0.380892
C58	C	1.965141	0.880753	0.880892
C59	C	1.165301	0.174568	0.380890
C60	C	1.665301	0.674568	0.880890
C61	C	1.165339	0.086711	0.380903
C62	C	1.665339	0.586711	0.880903
C63	C	1.113724	1.045445	0.431403
C64	C	1.613724	1.545445	0.931403
C65	C	1.216923	1.045423	0.330396
C66	C	1.716923	1.545423	0.830396
C67	C	1.216895	0.962877	0.330389
C68	C	1.716895	1.462877	0.830389
C69	C	1.165280	0.921612	0.380889
C70	C	1.665280	1.421612	0.880889
C71	C	1.113692	0.962892	0.431396
C72	C	1.613692	1.462892	0.931396
C73	C	1.268475	0.921591	0.279876
C74	C	1.768475	1.421591	0.779876
C75	C	1.268449	0.839040	0.279867
C76	C	1.768449	1.339040	0.779867
C77	C	1.216837	0.797773	0.330371
C78	C	1.716837	1.297773	0.830371
C79	C	1.165248	0.839058	0.380881
C80	C	1.665248	1.339058	0.880881
C81	C	1.113633	0.797792	0.431381
C82	C	1.613633	1.297792	0.931381
C83	C	1.062048	0.839076	0.481896
C84	C	1.562048	1.339076	0.981896
C85	C	1.062081	0.921624	0.481901
C86	C	1.562081	1.421624	0.981901
C87	C	1.216804	0.715224	0.330367
C88	C	1.716804	1.215224	0.830367
C89	C	1.113601	0.715239	0.431374
C90	C	1.613601	1.215239	0.931374
C91	C	1.165224	0.380744	0.175493
C92	C	1.665224	0.880744	0.675493
C93	C	1.165366	0.380549	0.087637
C94	C	1.665366	0.880549	0.587637
C95	C	1.113768	0.431107	1.046349
C96	C	1.613768	0.931107	1.546349
C97	C	1.216943	0.330012	1.046371
C98	C	1.716943	0.830012	1.546371
C99	C	1.216922	0.330028	0.963825
C100	C	1.716922	0.830028	1.463825
C101	C	1.165323	0.380586	0.922537
C102	C	1.665323	0.880586	1.422537
C103	C	1.113746	0.431127	0.963796
C104	C	1.613746	0.931127	1.463796
C105	C	1.268504	0.279494	0.922560
C106	C	1.768504	0.779494	1.422560
C107	C	1.268485	0.279509	0.840009
C108	C	1.768485	0.779509	1.340009
C109	C	1.216882	0.330064	0.798720
C110	C	1.716882	0.830064	1.298720
C111	C	1.165302	0.380606	0.839984
C112	C	1.665302	0.880606	1.339984
C113	C	1.113703	0.431163	0.798696
C114	C	1.613703	0.931163	1.298696
C115	C	1.062119	0.481702	0.839958
C116	C	1.562119	0.981702	1.339958
C117	C	1.062143	0.481681	0.922507
C118	C	1.562143	0.981681	1.422507
C119	C	1.216858	0.330085	0.716172
C120	C	1.716858	0.830085	1.216172
C121	C	1.113682	0.431183	0.716143
C122	C	1.613682	0.931183	1.216143
H123	H	1.071573	0.681645	0.472500
H124	H	1.571573	1.181645	0.972500
H125	H	1.071727	1.079062	0.472533
H126	H	1.571727	1.579062	0.972533
O127	O	1.324158	0.224959	0.967075
O128	O	1.824158	0.724959	1.467075
H129	H	1.310350	0.162932	0.951224
H130	H	1.810350	0.662932	1.451224
O131	O	1.272452	0.670701	0.275903
O132	O	1.772452	1.170701	0.775903
H133	H	1.263763	0.606366	0.284385
H134	H	1.763763	1.106366	0.784385
H135	H	1.258941	1.079027	0.289276
H136	H	1.758941	1.579027	0.789276
H137	H	1.020111	0.522870	0.806331
H138	H	1.520111	1.022870	1.306331
H139	H	1.071656	0.472347	0.682532
H140	H	1.571656	0.972347	1.182532
H141	H	1.020018	0.805468	0.523010
H142	H	1.520018	1.305468	1.023010
O143	O	1.324095	0.794516	0.225397
O144	O	1.824095	1.294516	0.725397
H145	H	1.310324	0.810403	0.163348
H146	H	1.810324	1.310403	0.663348
H147	H	1.310492	0.955196	0.238756
H148	H	1.810492	1.455196	0.738756
H149	H	1.020082	0.955245	0.523026
H150	H	1.520082	1.455245	1.023026
H151	H	1.071767	0.472252	1.079949
H152	H	1.571767	0.972252	1.579949
H153	H	1.020148	0.522829	0.956110
H154	H	1.520148	1.022829	1.456110
H155	H	1.258957	0.288854	1.079992
H156	H	1.758957	0.788854	1.579992
H157	H	1.310488	0.238357	0.806421
H158	H	1.810488	0.738357	1.306421
H159	H	1.258859	0.288939	0.682580
H160	H	1.758859	0.788939	1.182580
