data_functionalizedCrystal
_audit_creation_method	'MofGen! by Chris Wilmer'
_symmetry_space_group_name_H-M	'P1'
_symmetry_Int_Tables_number	1
_symmetry_cell_setting	triclinic
loop_
_symmetry_equiv_pos_as_xyz
  x,y,z
_cell_length_a	12.811438
_cell_length_b	12.837942
_cell_length_c	7.540329
_cell_angle_alpha	90.002841
_cell_angle_beta	95.433066
_cell_angle_gamma	89.411773
loop_
_atom_site_label
_atom_site_type_symbol
_atom_site_fract_x
_atom_site_fract_y
_atom_site_fract_z
O1	O	1.406638	0.139684	0.373703
O2	O	1.102574	0.154872	0.324806
O3	O	1.247864	-0.003654	0.348159
O4	O	1.261348	0.298210	0.350350
O5	O	1.247858	-0.003655	0.053193
O6	O	1.102568	0.154871	0.029840
O7	O	1.406633	0.139682	0.078737
Cu8	Cu	1.254600	0.147277	0.027356
Cu9	Cu	1.254607	0.147278	0.376187
O10	O	1.261343	0.298209	0.055384
C11	C	1.063382	0.154020	0.171020
C12	C	0.946609	0.151472	0.152242
C13	C	0.782021	0.147879	-0.035002
C14	C	0.891739	0.150274	-0.017366
C15	C	0.891754	0.150277	0.304224
C16	C	0.782035	0.147881	0.286588
C17	C	0.727173	0.146681	0.116969
C18	C	0.617453	0.144278	0.099334
C19	C	0.617469	0.144288	0.420922
C20	C	0.727187	0.146683	0.438559
C21	C	1.243306	-0.042295	0.199945
C22	C	1.229720	-0.157431	0.197763
C23	C	1.393049	-0.397684	0.224065
C24	C	1.380289	-0.505865	0.222016
C25	C	1.191439	-0.481975	0.191628
C26	C	1.204200	-0.373794	0.193677
C27	C	1.305008	-0.331653	0.209894
C28	C	1.317767	-0.223470	0.211930
C29	C	1.128919	-0.199582	0.181555
C30	C	1.116158	-0.307763	0.179506
C31	C	1.445825	0.140534	0.232526
C32	C	1.562597	0.143083	0.251317
C33	C	1.265901	0.336849	0.203602
C34	C	1.279487	0.451985	0.205796
N35	N	1.254603	0.147275	-0.217992
N36	N	1.254611	0.147271	0.621536
H37	H	0.572785	0.143308	-0.038778
Cl38	Cl	0.960687	0.151784	-0.208424
H39	H	0.572800	0.143315	0.544668
Cl40	Cl	0.713048	0.146347	-0.248229
H41	H	0.936441	0.151263	0.442319
H42	H	0.771871	0.147664	0.576657
H43	H	1.034083	-0.342090	0.166310
Cl44	Cl	1.444495	-0.170494	0.232304
H45	H	1.109366	-0.516306	0.178445
H46	H	1.475131	-0.363373	0.237252
H47	H	1.451981	-0.559625	0.233562
H48	H	1.057229	-0.145807	0.170001
