data_functionalizedCrystal
_audit_creation_method	'MofGen! by Chris Wilmer'
_symmetry_space_group_name_H-M	'P1'
_symmetry_Int_Tables_number	1
_symmetry_cell_setting	triclinic
loop_
_symmetry_equiv_pos_as_xyz
  x,y,z
_cell_length_a	13.033293
_cell_length_b	18.101397
_cell_length_c	13.033109
_cell_angle_alpha	97.149218
_cell_angle_beta	74.800007
_cell_angle_gamma	97.189579
loop_
_atom_site_label
_atom_site_type_symbol
_atom_site_fract_x
_atom_site_fract_y
_atom_site_fract_z
Zn1	Zn	1.700266	-0.214578	-0.807151
Zn2	Zn	1.677586	-0.324484	-0.629510
Zn3	Zn	1.500070	-0.214592	-0.606954
Zn4	Zn	1.522583	-0.352318	-0.784480
O5	O	1.600126	-0.276493	-0.707024
O6	O	1.845909	-0.217503	-0.802515
O7	O	1.635125	-0.298263	-0.477879
O8	O	1.526696	-0.110955	-0.633559
O9	O	1.829247	-0.298250	-0.672002
O10	O	1.673779	-0.110945	-0.780643
O11	O	1.504704	-0.217526	-0.461307
O12	O	1.354404	-0.244516	-0.611575
O13	O	1.565066	-0.345689	-0.936126
O14	O	1.370945	-0.345702	-0.742003
O15	O	1.695609	-0.244492	-0.952783
O16	O	1.656955	-0.431811	-0.650019
O17	O	1.543075	-0.452260	-0.763874
C18	C	1.324131	-0.298131	-0.671882
C19	C	1.206062	-0.307408	-0.656873
C20	C	1.161680	-0.271670	-0.714857
C21	C	1.039650	-0.281257	-0.699346
C22	C	1.600029	-0.468906	-0.706961
C23	C	1.600089	-0.551217	-0.706982
C24	C	1.600237	-0.850305	-0.707096
C25	C	1.671630	-0.806083	-0.635212
C26	C	1.671941	-0.720459	-0.635461
C27	C	1.600163	-0.701924	-0.707038
C28	C	1.644731	-0.739342	-0.822857
C29	C	1.645307	-0.824902	-0.822489
C30	C	1.484181	-0.825381	-0.664102
C31	C	1.484418	-0.739491	-0.661674
C32	C	1.600121	-0.618066	-0.707012
C33	C	1.600283	-0.934163	-0.707130
C34	C	1.877199	-0.254770	-0.742304
C35	C	1.995271	-0.245513	-0.757338
C36	C	1.635379	-0.298194	-0.984073
C37	C	1.650402	-0.307442	-1.102134
C38	C	1.600256	-0.083327	-0.707114
C39	C	1.600311	-0.001012	-0.707152
C40	C	1.592570	-0.271617	-1.146570
C41	C	1.608095	-0.281175	-1.268593
C42	C	1.565072	-0.254818	-0.431061
C43	C	1.550255	-0.245345	-0.313026
H44	H	1.047611	-0.207812	-0.818462
H45	H	1.427212	-0.727511	-0.709050
Cl46	Cl	1.456032	-0.187084	-1.232300
Cl47	Cl	1.804223	-0.680951	-0.681134
Cl48	Cl	0.958844	-0.339455	-0.604960
Cl49	Cl	1.242488	-0.213467	-0.809230
Cl50	Cl	1.744587	-0.365725	-1.182862
H51	H	1.153716	-0.345101	-0.595746
H52	H	1.642411	-0.694468	-0.550031
Cl53	Cl	1.626353	-0.830134	-0.502972
H54	H	1.756827	-0.822527	-0.664513
H55	H	1.730562	-0.840283	-0.857247
H56	H	1.594938	-0.728463	-0.878471
Cl57	Cl	1.569690	-0.871503	-0.909175
H58	H	1.669104	-0.318924	-1.320883
H59	H	1.729118	-0.713401	-0.857908
H60	H	1.446383	-0.842907	-0.580366
H61	H	1.430812	-0.855139	-0.716284
H62	H	1.531560	-0.233875	-1.094277
H63	H	1.451071	-0.714558	-0.576371
