data_functionalizedCrystal
_audit_creation_method	'MofGen! by Chris Wilmer'
_symmetry_space_group_name_H-M	'P1'
_symmetry_Int_Tables_number	1
_symmetry_cell_setting	triclinic
loop_
_symmetry_equiv_pos_as_xyz
  x,y,z
_cell_length_a	16.109301
_cell_length_b	10.654551
_cell_length_c	15.186229
_cell_angle_alpha	89.998019
_cell_angle_beta	89.999362
_cell_angle_gamma	83.973455
loop_
_atom_site_label
_atom_site_type_symbol
_atom_site_fract_x
_atom_site_fract_y
_atom_site_fract_z
O1	O	1.104091	0.161419	-0.073169
O2	O	0.862148	0.181507	-0.073183
O3	O	0.988682	-0.011352	-0.073174
O4	O	0.977557	0.354278	-0.073178
O5	O	0.988673	-0.011354	0.073283
O6	O	0.862140	0.181504	0.073274
O7	O	1.104082	0.161416	0.073288
Zn8	Zn	0.983110	0.171460	0.096534
Zn9	Zn	0.983121	0.171463	-0.096429
O10	O	0.977549	0.354275	0.073279
C11	C	0.831164	0.180692	0.000044
C12	C	0.738855	0.178252	0.000039
C13	C	0.987860	-0.058140	0.000053
C14	C	0.985416	-0.197550	0.000049
C15	C	0.517229	0.287018	0.000047
C16	C	0.430495	0.284716	0.000053
C17	C	0.449008	0.055896	0.000052
C18	C	0.535741	0.058199	0.000053
C19	C	0.569849	0.173764	0.000046
C20	C	0.396382	0.169159	0.000051
C21	C	0.302341	0.166662	0.000057
C22	C	0.663895	0.176262	0.000042
C23	C	0.984273	-0.263037	-0.079786
C24	C	0.981970	-0.394026	-0.079787
C25	C	0.981955	-0.394030	0.079889
C26	C	0.984253	-0.263043	0.079889
C27	C	0.930213	-0.563394	-0.175705
C28	C	0.929085	-0.628888	-0.255544
C29	C	0.978469	-0.596016	-0.326028
C30	C	1.029002	-0.497656	-0.316677
C31	C	1.030137	-0.432171	-0.236836
C32	C	0.980734	-0.465037	-0.166355
C33	C	1.036016	-0.093673	0.175802
C34	C	1.037157	-0.028186	0.255643
C35	C	0.987779	-0.061057	0.326135
C36	C	0.937259	-0.159423	0.316792
C37	C	0.936117	-0.224910	0.236950
C38	C	0.985494	-0.192030	0.166459
C39	C	1.135066	0.162231	0.000059
C40	C	1.227376	0.164671	0.000059
C41	C	0.978370	0.401063	0.000050
C42	C	0.980815	0.540473	0.000048
N43	N	0.983108	0.171457	0.228227
N44	N	0.983129	0.171457	-0.228122
C45	C	1.039156	0.086087	0.453954
C46	C	1.039159	0.086084	0.546143
C47	C	0.927075	0.256830	0.546145
C48	C	0.927069	0.256826	0.453957
C49	C	0.983114	0.171456	0.407864
C50	C	0.983123	0.171457	0.592241
C51	C	0.983125	0.171455	0.692197
C52	C	0.983111	0.171457	0.307901
H53	H	0.387655	0.376940	0.000056
O54	O	1.093485	0.003036	0.590955
C55	C	1.110207	-0.168420	0.695079
C56	C	1.048589	-0.074452	0.644371
H57	H	1.073933	-0.231075	0.738292
H58	H	1.150248	-0.229524	0.646336
H59	H	1.152066	-0.114155	0.738196
H60	H	1.006676	-0.128615	0.601252
H61	H	1.008606	-0.013349	0.693161
H62	H	0.897032	-0.186163	0.374183
H63	H	0.544997	0.381119	0.000049
O64	O	1.093641	0.003302	0.409119
C65	C	1.206933	-0.023492	0.304926
C66	C	1.145313	0.070423	0.355671
H67	H	1.248713	0.030737	0.261687
H68	H	1.247049	-0.084531	0.353645
H69	H	1.170607	-0.086225	0.261831
H70	H	1.181571	0.133237	0.398767
H71	H	1.105196	0.131373	0.306904
H72	H	0.988719	-0.007733	0.391148
O73	O	1.086264	0.067358	0.264566
C74	C	1.185287	0.190551	0.195519
C75	C	1.129696	0.082351	0.185285
H76	H	1.220430	0.202690	0.131436
H77	H	1.144715	0.281846	0.211626
H78	H	1.231919	0.167158	0.251103
H79	H	1.083056	0.105624	0.129695
H80	H	1.170321	-0.008912	0.169224
O81	O	0.586946	-0.051740	-0.000068
C82	C	0.695583	-0.181959	-0.075970
C83	C	0.637656	-0.057402	-0.075936
H84	H	0.736585	-0.186589	-0.137312
H85	H	0.736708	-0.186620	-0.014719
H86	H	0.656291	-0.264930	-0.075930
H87	H	0.676883	0.025640	-0.076007
H88	H	0.596528	-0.052851	-0.137182
O89	O	0.872660	0.339643	0.409042
C90	C	0.823021	0.415358	0.267018
C91	C	0.884666	0.321489	0.317773
H92	H	0.832718	0.400731	0.193218
H93	H	0.756319	0.398972	0.285081
H94	H	0.834428	0.515936	0.285189
H95	H	0.873335	0.220875	0.299629
H96	H	0.951347	0.337985	0.299706
H97	H	0.421227	-0.038193	0.000063
H98	H	0.985218	-0.209716	-0.144797
O99	O	1.079333	-0.336763	-0.227811
C100	C	1.219101	-0.275512	-0.231168
C101	C	1.163485	-0.383677	-0.241430
H102	H	1.287150	-0.313407	-0.242156
H103	H	1.199947	-0.198728	-0.281672
H104	H	1.211377	-0.234333	-0.162007
H105	H	1.171180	-0.424958	-0.310560
H106	H	1.182653	-0.460381	-0.190875
H107	H	0.881445	0.326338	0.583683
O108	O	1.076854	-0.465635	-0.385221
C109	C	1.079542	-0.392551	-0.535255
C110	C	1.025251	-0.428754	-0.457691
H111	H	1.037845	-0.362749	-0.593873
H112	H	1.115832	-0.310952	-0.514924
H113	H	1.125156	-0.477246	-0.554408
H114	H	0.979590	-0.344138	-0.438500
H115	H	0.989019	-0.510395	-0.478065
O116	O	0.879920	-0.724356	-0.264496
C117	C	0.780961	-0.847644	-0.195428
C118	C	0.836579	-0.739480	-0.185175
H119	H	0.745919	-0.859923	-0.131302
H120	H	0.734254	-0.824295	-0.250952
H121	H	0.821588	-0.938857	-0.211611
H122	H	0.796019	-0.648223	-0.168961
H123	H	0.883291	-0.762936	-0.129672
H124	H	0.977549	-0.649351	-0.391035
H125	H	0.889989	-0.590157	-0.118320
H126	H	0.981009	-0.447371	0.144892
H127	H	1.076219	-0.066890	0.118401
O128	O	0.886914	-0.320305	0.227861
C129	C	0.747158	-0.381592	0.231352
C130	C	0.802779	-0.273440	0.241650
H131	H	0.679126	-0.343746	0.242513
H132	H	0.754753	-0.422744	0.162172
H133	H	0.766433	-0.458384	0.281810
H134	H	0.783540	-0.196569	0.191242
H135	H	0.795178	-0.232390	0.310858
