data_functionalizedCrystal
_audit_creation_method	'MofGen! by Chris Wilmer'
_symmetry_space_group_name_H-M	'P1'
_symmetry_Int_Tables_number	1
_symmetry_cell_setting	triclinic
loop_
_symmetry_equiv_pos_as_xyz
  x,y,z
_cell_length_a	17.699077
_cell_length_b	8.597275
_cell_length_c	16.176319
_cell_angle_alpha	97.696990
_cell_angle_beta	89.993140
_cell_angle_gamma	84.313046
loop_
_atom_site_label
_atom_site_type_symbol
_atom_site_fract_x
_atom_site_fract_y
_atom_site_fract_z
O1	O	1.005724	0.198420	-0.054599
O2	O	0.785559	0.224250	-0.052763
O3	O	0.899976	-0.017146	-0.069954
O4	O	0.891306	0.439816	-0.037409
O5	O	0.899960	-0.017162	0.067538
O6	O	0.785543	0.224235	0.084729
O7	O	1.005708	0.198404	0.082893
Cu8	Cu	0.895624	0.211318	0.096365
Cu9	Cu	0.895643	0.211336	-0.066235
O10	O	0.891290	0.439801	0.100083
C11	C	0.757346	0.223319	0.015917
C12	C	0.673305	0.220547	0.015718
C13	C	0.899038	-0.075621	-0.005373
C14	C	0.896258	-0.249836	-0.017786
C15	C	0.633818	0.219232	0.090572
C16	C	0.554853	0.216603	0.090386
C17	C	0.515377	0.215299	0.015345
C18	C	0.554870	0.216609	-0.059516
C19	C	0.633833	0.219227	-0.059330
C20	C	0.236419	0.206047	-0.060270
C21	C	0.157450	0.203434	-0.060450
C22	C	0.157439	0.203423	0.089446
C23	C	0.236403	0.206041	0.089632
C24	C	0.275889	0.207343	0.014771
C25	C	0.361511	0.210191	0.014974
C26	C	0.429755	0.212462	0.015142
C27	C	1.033921	0.199336	0.014211
C28	C	1.117962	0.202108	0.014405
C29	C	0.892228	0.498276	0.035501
C30	C	0.895009	0.672490	0.047909
N31	N	0.895616	0.211304	0.210729
N32	N	0.895657	0.211338	-0.180601
C33	C	0.946296	0.104458	0.246385
C34	C	0.946300	0.104456	0.332932
C35	C	0.895627	0.211310	0.383822
C36	C	0.844941	0.318162	0.348161
C37	C	0.844934	0.318155	0.261615
C38	C	0.844967	0.318191	0.697191
C39	C	0.844980	0.318193	0.783743
C40	C	0.946333	0.104493	0.768508
C41	C	0.946326	0.104485	0.681962
C42	C	0.895638	0.211331	0.646308
C43	C	0.895633	0.211330	0.552464
C44	C	0.895634	0.211320	0.477665
H45	H	0.665953	0.220307	0.151681
F46	F	0.791024	0.431907	0.659253
H47	H	0.896073	-0.260724	0.113650
F48	F	1.000278	-0.009229	0.806459
H49	H	0.803664	0.405158	0.232586
F50	F	0.894878	-0.337118	-0.103712
H51	H	0.987563	0.017452	0.204955
H52	H	0.987567	0.017452	0.361961
F53	F	0.791006	0.431878	0.402323
H54	H	0.522708	0.215506	0.151339
H55	H	0.522722	0.215536	-0.120617
H56	H	0.803713	0.405209	0.825178
F57	F	0.278412	0.207438	0.169502
F58	F	0.115409	0.202031	0.169120
F59	F	1.000261	-0.009236	0.627804
H60	H	0.268559	0.207102	-0.121227
H61	H	0.125310	0.202371	-0.121562
H62	H	0.665982	0.220300	-0.120284
