data_functionalizedCrystal
_audit_creation_method	'MofGen! by Chris Wilmer'
_symmetry_space_group_name_H-M	'P1'
_symmetry_Int_Tables_number	1
_symmetry_cell_setting	triclinic
loop_
_symmetry_equiv_pos_as_xyz
  x,y,z
_cell_length_a	12.827893
_cell_length_b	12.827893
_cell_length_c	12.827885
_cell_angle_alpha	89.975139
_cell_angle_beta	90.021189
_cell_angle_gamma	89.998281
loop_
_atom_site_label
_atom_site_type_symbol
_atom_site_fract_x
_atom_site_fract_y
_atom_site_fract_z
Zn1	Zn	-1.597756	-0.416032	-0.590938
Zn2	Zn	-1.097756	0.083968	-0.090938
Zn3	Zn	-1.597686	-0.590810	-0.416213
Zn4	Zn	-1.097686	-0.090810	0.083787
Zn5	Zn	-1.422997	-0.416078	-0.416206
Zn6	Zn	-0.922997	0.083922	0.083794
Zn7	Zn	-1.423019	-0.590726	-0.590907
Zn8	Zn	-0.923019	-0.090726	-0.090907
O9	O	-1.510365	-0.503412	-0.503566
O10	O	-1.010365	-0.003412	-0.003566
O11	O	-1.743983	-0.439233	-0.567776
O12	O	-1.243983	0.060767	-0.067776
O13	O	-1.574475	-0.567685	-0.269976
O14	O	-1.074475	-0.067685	0.230024
O15	O	-1.446200	-0.269836	-0.439394
O16	O	-0.946200	0.230164	0.060606
O17	O	-1.743932	-0.567641	-0.439407
O18	O	-1.243932	-0.067641	0.060593
O19	O	-1.574594	-0.269802	-0.567769
O20	O	-1.074594	0.230198	-0.067769
O21	O	-1.446132	-0.439310	-0.269971
O22	O	-0.946132	0.060690	0.230029
O23	O	-1.276764	-0.439230	-0.439364
O24	O	-0.776764	0.060770	0.060636
O25	O	-1.446236	-0.567499	-0.737148
O26	O	-0.946236	-0.067499	-0.237148
O27	O	-1.276780	-0.567543	-0.567717
O28	O	-0.776780	-0.067543	-0.067717
O29	O	-1.574615	-0.439152	-0.737170
O30	O	-1.074615	0.060848	-0.237170
O31	O	-1.574496	-0.737035	-0.439377
O32	O	-1.074496	-0.237035	0.060623
O33	O	-1.446169	-0.736974	-0.567724
O34	O	-0.946169	-0.236974	-0.067724
C35	C	-1.238855	-0.503383	-0.503537
C36	C	-0.738855	-0.003383	-0.003537
C37	C	-1.122702	-0.503396	-0.503549
C38	C	-0.622702	-0.003396	-0.003549
C39	C	-0.950847	-0.566849	-0.439956
C40	C	-0.450847	-0.066849	0.060044
C41	C	-1.070898	-0.566837	-0.439942
C42	C	-0.570898	-0.066837	0.060058
C43	C	-1.510356	-0.774921	-0.503571
C44	C	-1.010356	-0.274921	-0.003571
C45	C	-1.510447	-0.891075	-0.503608
C46	C	-1.010447	-0.391075	-0.003608
C47	C	-0.782935	-0.503432	-0.503587
C48	C	-0.282935	-0.003432	-0.003587
C49	C	-0.899088	-0.503419	-0.503575
C50	C	-0.399088	-0.003419	-0.003575
C51	C	-1.510436	-0.503311	-0.776136
C52	C	-1.010436	-0.003311	-0.276136
C53	C	-1.510466	-0.503268	-0.892290
C54	C	-1.010466	-0.003268	-0.392290
C55	C	-1.510402	-0.230841	-0.503584
C56	C	-1.010402	0.269159	-0.003584
C57	C	-1.510418	-0.114688	-0.503592
C58	C	-1.010418	0.385312	-0.003592
C59	C	-1.446931	-0.062873	-0.567099
C60	C	-0.946931	0.437127	-0.067099
C61	C	-1.446946	0.057177	-0.567108
C62	C	-0.946946	0.557177	-0.067108
C63	C	-1.573999	-0.439746	-0.944085
C64	C	-1.073999	0.060254	-0.444085
C65	C	-1.574031	-0.439700	-1.064136
C66	C	-1.074031	0.060300	-0.564136
C67	C	-1.510354	-0.503436	-0.232056
C68	C	-1.010354	-0.003436	0.267944
C69	C	-1.510526	-0.503184	-0.115904
C70	C	-1.010526	-0.003184	0.384096
H71	H	-1.115410	-0.621147	-0.385482
H72	H	-0.615410	-0.121147	0.114518
H73	H	-1.628363	-0.385392	-0.899553
H74	H	-1.128363	0.114608	-0.399553
O75	O	-1.638824	-0.374847	-1.117428
O76	O	-1.138824	0.125153	-0.617428
C77	C	-1.624444	-0.389250	-1.225427
C78	C	-1.124444	0.110750	-0.725427
H79	H	-1.543785	-0.423479	-1.240219
H80	H	-1.043785	0.076521	-0.740219
H81	H	-1.631511	-0.310996	-1.266987
H82	H	-1.131511	0.189004	-0.766987
H83	H	-1.686405	-0.444919	-1.256407
H84	H	-1.186405	0.055081	-0.756407
O85	O	-1.445777	-0.568123	-1.062662
O86	O	-0.945777	-0.068123	-0.562662
C87	C	-1.505310	-0.635607	-0.999550
C88	C	-1.005310	-0.135607	-0.499550
H89	H	-1.584521	-0.598749	-0.983321
H90	H	-1.084521	-0.098749	-0.483321
H91	H	-1.462796	-0.649566	-0.922746
H92	H	-0.962796	-0.149566	-0.422746
H93	H	-1.516753	-0.713073	-1.041548
H94	H	-1.016753	-0.213073	-0.541548
H95	H	-1.078196	-0.449092	-0.558022
H96	H	-0.578196	0.050908	-0.058022
O97	O	-0.897855	-0.631684	-0.374891
O98	O	-0.397855	-0.131684	0.125109
C99	C	-0.969290	-0.690680	-0.315757
C100	C	-0.469290	-0.190680	0.184243
H101	H	-1.047117	-0.647935	-0.312125
H102	H	-0.547117	-0.147935	0.187875
H103	H	-0.937632	-0.701709	-0.233437
H104	H	-0.437632	-0.201709	0.266563
H105	H	-0.980884	-0.770099	-0.353890
H106	H	-0.480884	-0.270099	0.146110
O107	O	-1.575187	0.055812	-0.438603
O108	O	-1.075187	0.555812	0.061397
C109	C	-1.552388	0.082368	-0.334416
C110	C	-1.052388	0.582368	0.165584
H111	H	-1.468940	0.112458	-0.329084
H112	H	-0.968940	0.612458	0.170916
H113	H	-1.561299	0.010507	-0.282869
H114	H	-1.061299	0.510507	0.217131
H115	H	-1.608488	0.145610	-0.307047
H116	H	-1.108488	0.645610	0.192953
H117	H	-1.564787	-0.070173	-0.449232
H118	H	-1.064787	0.429827	0.050768
H119	H	-0.943651	-0.449102	-0.558026
H120	H	-0.443651	0.050898	-0.058026
O121	O	-1.382040	-0.115809	-0.632059
O122	O	-0.882040	0.384191	-0.132059
C123	C	-1.322994	-0.044323	-0.691090
C124	C	-0.822994	0.455677	-0.191090
H125	H	-1.365734	0.033507	-0.694787
H126	H	-0.865734	0.533507	-0.194787
H127	H	-1.311895	-0.075908	-0.773395
H128	H	-0.811895	0.424092	-0.273395
H129	H	-1.243607	-0.032763	-0.652826
H130	H	-0.743607	0.467237	-0.152826
O131	O	-1.382250	0.110375	-0.632087
O132	O	-0.882250	0.610375	-0.132087
C133	C	-1.441830	0.173550	-0.699516
C134	C	-0.941830	0.673550	-0.199516
H135	H	-1.524103	0.140587	-0.706007
H136	H	-1.024103	0.640587	-0.206007
H137	H	-1.404058	0.174930	-0.779934
H138	H	-0.904058	0.674930	-0.279934
H139	H	-1.445506	0.256217	-0.667135
H140	H	-0.945506	0.756217	-0.167135
O141	O	-1.445503	-0.568146	-0.945245
O142	O	-0.945503	-0.068146	-0.445245
C143	C	-1.386444	-0.627239	-0.873776
C144	C	-0.886444	-0.127239	-0.373776
H145	H	-1.382740	-0.584536	-0.795946
H146	H	-0.882740	-0.084536	-0.295946
H147	H	-1.304144	-0.638338	-0.905385
H148	H	-0.804144	-0.138338	-0.405385
H149	H	-1.424690	-0.706624	-0.862208
H150	H	-0.924690	-0.206624	-0.362208
