data_functionalizedCrystal
_audit_creation_method	'MofGen! by Chris Wilmer'
_symmetry_space_group_name_H-M	'P1'
_symmetry_Int_Tables_number	1
_symmetry_cell_setting	triclinic
loop_
_symmetry_equiv_pos_as_xyz
  x,y,z
_cell_length_a	23.096457
_cell_length_b	20.919319
_cell_length_c	20.919309
_cell_angle_alpha	60.112213
_cell_angle_beta	89.999561
_cell_angle_gamma	62.599386
loop_
_atom_site_label
_atom_site_type_symbol
_atom_site_fract_x
_atom_site_fract_y
_atom_site_fract_z
Zr1	Zr	0.586121	0.692227	-0.106634
O2	O	0.501758	0.817721	-0.209693
O3	O	0.608582	0.561434	-0.071606
O4	O	0.617646	0.684582	-0.204741
O5	O	0.489413	0.702452	0.024555
O6	O	0.712928	0.684579	-0.204743
O7	O	0.492694	0.694573	-0.076557
O8	O	0.696715	0.464291	0.033412
O9	O	0.505626	0.922741	-0.213600
O10	O	0.693378	0.617192	-0.060819
O11	O	0.619821	0.623074	0.014642
O12	O	0.630492	0.768064	-0.142108
O13	O	0.556935	0.773946	-0.066648
Zr14	Zr	0.732851	0.704789	0.054625
Zr15	Zr	0.738085	0.692223	-0.106637
Zr16	Zr	0.580887	0.704793	0.054628
Zr17	Zr	0.592290	0.859722	-0.112866
Zr18	Zr	0.726682	0.537294	0.060857
O19	O	0.710390	0.835582	0.019597
O20	O	0.717832	0.817715	-0.209697
O21	O	0.494316	0.835588	0.019601
O22	O	0.817214	0.579295	0.157683
O23	O	0.824656	0.561428	-0.071611
O24	O	0.601140	0.579301	0.157688
O25	O	0.829559	0.694564	-0.076564
O26	O	0.701326	0.712434	0.152732
O27	O	0.606044	0.712437	0.152734
O28	O	0.826278	0.702443	0.024548
O29	O	0.626418	0.922737	-0.213603
O30	O	0.692554	0.474279	0.161593
O31	O	0.813346	0.474275	0.161591
O32	O	0.817506	0.464287	0.033409
O33	O	0.501466	0.932729	-0.085418
O34	O	0.622257	0.932726	-0.085421
O35	O	0.688480	0.628952	0.090099
O36	O	0.762037	0.623070	0.014639
O37	O	0.699151	0.773942	-0.066651
O38	O	0.625594	0.779824	0.008809
C39	C	0.651769	0.488998	-0.018209
C40	C	0.649150	0.417892	-0.015563
C41	C	0.469402	0.698513	-0.026001
C42	C	0.404889	0.698515	-0.025999
C43	C	0.632639	0.015622	0.001677
C44	C	0.635066	0.082474	-0.000856
C45	C	0.674672	0.112831	-0.041518
C46	C	0.711859	0.076326	-0.079642
C47	C	0.709435	0.009471	-0.077104
C48	C	0.683914	0.314532	-0.051149
C49	C	0.686333	0.381394	-0.053687
C50	C	0.609540	0.387536	0.025101
C51	C	0.607117	0.320683	0.027632
C52	C	0.644307	0.284181	-0.010489
C53	C	0.677152	0.181166	-0.044111
C54	C	0.641830	0.215843	-0.007891
C55	C	0.376394	0.694181	-0.081706
C56	C	0.315782	0.694173	-0.081706
C57	C	0.283659	0.698516	-0.026005
C58	C	0.312163	0.702846	0.029713
C59	C	0.372778	0.702846	0.029715
N60	N	0.166641	0.750925	-0.011042
N61	N	0.109059	0.750927	-0.011050
C62	C	0.101030	0.698517	-0.026008
N63	N	0.152754	0.646114	-0.040975
N64	N	0.210340	0.646116	-0.040971
C65	C	0.217932	0.698517	-0.026001
C66	C	0.006813	0.694172	-0.081718
C67	C	-0.053799	0.694159	-0.081713
C68	C	-0.057421	0.702841	0.029703
C69	C	0.003193	0.702846	0.029700
C70	C	0.035305	0.698515	-0.026014
C71	C	0.849570	0.698503	-0.026009
C72	C	0.914083	0.698501	-0.026010
C73	C	0.666033	0.682790	-0.227719
C74	C	0.668255	0.677456	-0.296179
C75	C	0.667203	0.908018	-0.033800
C76	C	0.669821	0.979124	-0.036446
C77	C	0.636474	0.753701	-0.370774
C78	C	0.638571	0.748684	-0.435096
C79	C	0.672444	0.667420	-0.424822
C80	C	0.704229	0.591168	-0.350220
C81	C	0.702136	0.596187	-0.285899
C82	C	0.680409	0.648328	-0.616907
C83	C	0.682498	0.643315	-0.681236
C84	C	0.616840	0.800831	-0.766108
C85	C	0.614747	0.805842	-0.701782
C86	C	0.646535	0.729591	-0.627185
C87	C	0.674586	0.662289	-0.490569
C88	C	0.644397	0.734722	-0.561440
C89	C	0.652939	0.714226	0.175710
C90	C	0.650717	0.719561	0.244169
C91	C	0.841853	0.488993	-0.018213
C92	C	0.903747	0.417885	-0.015569
C93	C	0.645222	0.504716	0.183505
C94	C	0.640382	0.438945	0.254611
C95	C	0.835307	0.504711	0.183501
C96	C	0.894979	0.438938	0.254605
C97	C	0.483665	0.892305	-0.235510
C98	C	0.423993	0.958079	-0.306614
C99	C	0.477118	0.908023	-0.033796
C100	C	0.415225	0.979131	-0.036440
C101	C	0.673749	0.892300	-0.235514
C102	C	0.678590	0.958071	-0.306620
C103	C	0.896974	0.381423	-0.053722
C104	C	0.955125	0.314618	-0.051252
C105	C	1.020048	0.284272	-0.010625
C106	C	1.026820	0.320740	0.027528
C107	C	0.968670	0.387548	0.025054
C108	C	0.673947	0.411127	0.327397
C109	C	0.669396	0.349337	0.394214
C110	C	0.631283	0.315363	0.388243
C111	C	0.597713	0.343187	0.315449
C112	C	0.602261	0.404980	0.248633
C113	C	0.961404	0.404980	0.248607
C114	C	1.017478	0.343188	0.315411
C115	C	1.007126	0.315350	0.388212
C116	C	0.940694	0.349315	0.394208
C117	C	0.884621	0.411110	0.327405
C118	C	0.357569	0.992045	-0.300617
C119	C	0.301495	1.053857	-0.367421
C120	C	0.311847	1.081698	-0.440222
C121	C	0.378279	1.047729	-0.446218
C122	C	0.434351	0.985922	-0.379415
C123	C	0.421998	1.015599	0.001705
C124	C	0.363848	1.082421	-0.000782
C125	C	0.298926	1.112770	-0.041412
C126	C	0.292154	1.076299	-0.079562
C127	C	0.350303	1.009482	-0.077079
C128	C	0.716709	0.992027	-0.300624
C129	C	0.721271	1.053817	-0.367429
C130	C	0.687709	1.081656	-0.440229
C131	C	0.649589	1.047694	-0.446223
C132	C	0.645032	0.985900	-0.379419
H133	H	0.600383	-0.009085	0.034784
H134	H	0.474856	0.990895	0.034795
H135	H	0.830536	0.438751	0.332300
Cl136	Cl	0.742099	0.500331	-0.192120
Cl137	Cl	0.769191	1.096505	-0.359876
Cl138	Cl	0.416765	0.688730	-0.151742
H139	H	0.488436	0.958267	-0.384308
Cl140	Cl	0.588326	0.128348	0.047080
Cl141	Cl	0.344536	0.957058	-0.209103
Cl142	Cl	0.746814	0.489007	-0.337303
H143	H	0.344778	0.979791	-0.108140
H144	H	0.386700	1.070406	-0.505501
H145	H	1.067392	0.229871	-0.008616
H146	H	0.616820	0.800887	-0.569802
Cl147	Cl	1.108443	0.282577	0.078603
Cl148	Cl	0.721867	0.453823	0.334924
Cl149	Cl	0.372377	1.128253	0.047187
Cl150	Cl	0.560063	0.439938	0.157133
Cl151	Cl	0.549804	0.300465	0.307956
Cl152	Cl	0.758908	0.957042	-0.209112
Cl153	Cl	0.946596	0.268783	-0.099218
Cl154	Cl	-0.097796	0.708292	0.099733
Cl155	Cl	0.977196	0.433372	0.073030
H156	H	0.026393	0.706380	0.075060
H157	H	0.696736	0.326690	0.453480
Cl158	Cl	0.761652	0.114488	-0.130758
Cl159	Cl	0.593887	0.855867	-0.383699
Cl160	Cl	0.607394	1.082710	-0.537750
Cl161	Cl	0.225829	1.196768	-0.044524
H162	H	0.239286	1.101019	-0.112642
H163	H	0.612693	0.810771	-0.495833
Cl164	Cl	0.625575	0.237678	0.472249
H165	H	0.844116	0.406130	-0.086814
H166	H	0.969846	0.427635	0.189335
H167	H	0.587166	0.872016	-0.710156
H168	H	0.590961	0.862910	-0.826850
H169	H	1.052790	0.265032	0.442601
H170	H	0.691426	1.131974	-0.494619
Cl171	Cl	0.241348	1.159398	-0.524197
Cl172	Cl	1.100984	0.300498	0.307854
Cl173	Cl	0.725086	0.541147	-0.668315
H174	H	0.613989	0.958261	-0.384312
Cl175	Cl	0.720341	0.552468	-0.523136
H176	H	0.702166	0.596124	-0.482212
H177	H	0.574866	0.295970	0.060744
H178	H	0.609585	0.191121	0.025218
H179	H	0.579263	0.417262	0.056137
Cl180	Cl	0.217988	1.096545	-0.359865
H181	H	0.932275	0.326640	0.453492
H182	H	0.032960	0.690642	-0.127083
Cl183	Cl	0.730647	0.268675	-0.099097
Cl184	Cl	0.756187	-0.036419	-0.125025
Cl185	Cl	0.726936	0.219341	-0.095233
Cl186	Cl	0.279953	0.688725	-0.151745
Cl187	Cl	0.736129	0.419555	-0.104807
H188	H	0.395978	0.706375	0.075080
Cl189	Cl	0.271783	0.708302	0.099741
H190	H	-0.076997	0.690624	-0.127074
