data_functionalizedCrystal
_audit_creation_method	'MofGen! by Chris Wilmer'
_symmetry_space_group_name_H-M	'P1'
_symmetry_Int_Tables_number	1
_symmetry_cell_setting	triclinic
loop_
_symmetry_equiv_pos_as_xyz
  x,y,z
_cell_length_a	11.792241
_cell_length_b	19.288864
_cell_length_c	17.766277
_cell_angle_alpha	90.023209
_cell_angle_beta	89.993523
_cell_angle_gamma	96.335169
loop_
_atom_site_label
_atom_site_type_symbol
_atom_site_fract_x
_atom_site_fract_y
_atom_site_fract_z
O1	O	0.141582	-0.922157	-0.062836
O2	O	0.641582	-0.422157	0.437164
O3	O	0.160681	-0.720005	-0.062785
O4	O	0.660681	-0.220005	0.437215
O5	O	-0.014113	-0.825987	-0.062806
O6	O	0.485887	-0.325987	0.437194
O7	O	0.316377	-0.816176	-0.062814
O8	O	0.816377	-0.316176	0.437186
O9	O	-0.014122	-0.825968	0.062382
O10	O	0.485878	-0.325968	0.562382
O11	O	0.160673	-0.719986	0.062404
O12	O	0.660673	-0.219986	0.562404
O13	O	0.141573	-0.922139	0.062352
O14	O	0.641573	-0.422139	0.562352
Cu15	Cu	0.151122	-0.821061	0.073809
Cu16	Cu	0.651122	-0.321061	0.573809
Cu17	Cu	0.151133	-0.821083	-0.074241
Cu18	Cu	0.651133	-0.321083	0.425759
O19	O	0.316368	-0.816157	0.062374
O20	O	0.816368	-0.316157	0.562374
C21	C	-0.056399	-0.825361	-0.000212
C22	C	0.443601	-0.325361	0.499788
C23	C	-0.182385	-0.823517	-0.000212
C24	C	0.317615	-0.323517	0.499788
C25	C	0.160063	-0.694116	-0.000184
C26	C	0.660063	-0.194116	0.499816
C27	C	0.158218	-0.617002	-0.000164
C28	C	0.658218	-0.117002	0.499836
C29	C	0.142192	-0.948028	-0.000250
C30	C	0.642192	-0.448028	0.499750
C31	C	0.144037	-1.025142	-0.000275
C32	C	0.644037	-0.525142	0.499725
C33	C	-0.413045	-0.820125	-0.000224
C34	C	0.086955	-0.320125	0.499776
C35	C	-0.284689	-0.822009	-0.000218
C36	C	0.215311	-0.322009	0.499782
C37	C	0.358654	-0.816783	-0.000222
C38	C	0.858654	-0.316783	0.499778
C39	C	0.484640	-0.818627	-0.000226
C40	C	0.984640	-0.318627	0.499774
N41	N	0.151114	-0.821050	0.177939
N42	N	0.651114	-0.321050	0.677939
C43	C	0.260779	-0.572888	-0.000178
C44	C	0.760779	-0.072888	0.499822
C45	C	0.259046	-0.500431	-0.000187
C46	C	0.759046	-0.000431	0.499813
C47	C	0.154746	-0.472091	-0.000196
C48	C	0.654746	0.027909	0.499804
C49	C	0.052171	-0.516215	-0.000177
C50	C	0.552171	-0.016215	0.499823
C51	C	0.053907	-0.588670	-0.000161
C52	C	0.553907	-0.088670	0.499839
C53	C	0.072757	-0.363370	-0.044078
C54	C	0.572757	0.136630	0.455922
C55	C	0.071025	-0.290916	-0.044099
C56	C	0.571025	0.209084	0.455901
C57	C	0.149387	-0.248615	-0.000241
C58	C	0.649387	0.251385	0.499759
C59	C	0.229499	-0.278776	0.043627
C60	C	0.729499	0.221224	0.543627
C61	C	0.231235	-0.351232	0.043643
C62	C	0.731235	0.148768	0.543643
C63	C	0.152852	-0.393526	-0.000212
C64	C	0.652852	0.106474	0.499788
C65	C	0.250076	-0.125935	-0.000263
C66	C	0.750076	0.374065	0.499737
C67	C	0.248339	-0.053477	-0.000267
C68	C	0.748339	0.446523	0.499733
C69	C	0.041460	-0.069262	-0.000265
C70	C	0.541460	0.430738	0.499735
C71	C	0.043201	-0.141718	-0.000254
C72	C	0.543201	0.358282	0.499746
C73	C	0.147512	-0.170050	-0.000257
C74	C	0.647512	0.329950	0.499743
N75	N	0.151132	-0.821099	-0.178371
N76	N	0.651132	-0.321099	0.321629
C77	C	0.073753	-0.867994	0.217316
C78	C	0.573753	-0.367994	0.717316
C79	C	0.073748	-0.867998	0.296118
C80	C	0.573748	-0.367998	0.796118
C81	C	0.151123	-0.821065	0.335540
C82	C	0.651123	-0.321065	0.835540
C83	C	0.228490	-0.774112	0.296153
C84	C	0.728490	-0.274112	0.796153
C85	C	0.228486	-0.774105	0.217353
C86	C	0.728486	-0.274105	0.717353
C87	C	0.254534	-0.812354	0.460377
C88	C	0.754534	-0.312354	0.960377
C89	C	0.254540	-0.812366	0.539175
C90	C	0.754540	-0.312366	1.039175
C91	C	0.151137	-0.821084	0.578586
C92	C	0.651137	-0.321084	1.078586
C93	C	0.047723	-0.829804	0.539188
C94	C	0.547723	-0.329804	1.039188
C95	C	0.047719	-0.829797	0.460388
C96	C	0.547719	-0.329797	0.960388
C97	C	0.151136	-0.821067	0.420985
C98	C	0.651136	-0.321067	0.920985
C99	C	0.073764	-0.868035	0.703409
C100	C	0.573764	-0.368035	1.203409
C101	C	0.073757	-0.868034	0.782213
C102	C	0.573757	-0.368034	1.282213
C103	C	0.228509	-0.774151	0.782246
C104	C	0.728509	-0.274151	1.282246
C105	C	0.228506	-0.774148	0.703444
C106	C	0.728506	-0.274148	1.203444
C107	C	0.151135	-0.821094	0.664030
C108	C	0.651135	-0.321094	1.164030
H109	H	0.345717	-0.595951	-0.000182
H110	H	0.845717	-0.095951	0.499818
H111	H	0.342567	-0.464507	-0.000196
H112	H	0.842567	0.035493	0.499804
F113	F	0.316491	-0.383329	0.090331
F114	F	0.816491	0.116671	0.590331
F115	F	0.364601	-0.803090	0.581098
F116	F	0.864601	-0.303090	1.081098
H117	H	0.008943	-0.397806	-0.079797
H118	H	0.508943	0.102194	0.420203
F119	F	-0.008595	-0.917955	0.175371
F120	F	0.491405	-0.417955	0.675371
F121	F	0.310851	-0.724196	0.824197
F122	F	0.810851	-0.224196	1.324197
H123	H	0.293308	-0.244336	0.079341
H124	H	0.793308	0.255664	0.579341
H125	H	0.010749	-0.906227	0.328185
H126	H	0.510749	-0.406227	0.828185
F127	F	-0.062338	-0.839071	0.418461
F128	F	0.437662	-0.339071	0.918461
F129	F	0.361091	-0.156090	-0.000261
F130	F	0.861091	0.343910	0.499739
F131	F	-0.058833	-0.486052	-0.000183
F132	F	0.441167	0.013948	0.499817
F133	F	0.357505	-0.006527	-0.000278
F134	F	0.857505	0.493473	0.499722
H135	H	-0.029614	-0.624588	-0.000150
H136	H	0.470386	-0.124588	0.499850
F137	F	0.310828	-0.724138	0.175443
F138	F	0.810828	-0.224138	0.675443
F139	F	-0.062335	-0.839087	0.581125
F140	F	0.437665	-0.339087	1.081125
H141	H	0.010759	-0.906259	0.671318
H142	H	0.510759	-0.406259	1.171318
F143	F	-0.014227	-0.258822	-0.090793
F144	F	0.485773	0.241178	0.409207
F145	F	0.310850	-0.724187	0.661532
F146	F	0.810850	-0.224187	1.161532
H147	H	0.010754	-0.906259	0.814274
H148	H	0.510754	-0.406259	1.314274
H149	H	0.338743	-0.805242	0.428295
H150	H	0.838743	-0.305242	0.928295
H151	H	-0.040316	-0.177637	-0.000246
H152	H	0.459684	0.322363	0.499754
F153	F	-0.069545	-0.039105	-0.000267
F154	F	0.430455	0.460895	0.499733
F155	F	0.310835	-0.724159	0.338108
F156	F	0.810835	-0.224159	0.838108
