data_functionalizedCrystal
_audit_creation_method	'MofGen! by Chris Wilmer'
_symmetry_space_group_name_H-M	'P1'
_symmetry_Int_Tables_number	1
_symmetry_cell_setting	triclinic
loop_
_symmetry_equiv_pos_as_xyz
  x,y,z
_cell_length_a	15.995292
_cell_length_b	19.188930
_cell_length_c	15.072220
_cell_angle_alpha	89.993728
_cell_angle_beta	89.986330
_cell_angle_gamma	83.306699
loop_
_atom_site_label
_atom_site_type_symbol
_atom_site_fract_x
_atom_site_fract_y
_atom_site_fract_z
O1	O	1.110697	0.089798	-0.073817
O2	O	0.866875	0.100954	-0.073814
O3	O	0.995822	-0.006263	-0.073798
O4	O	0.981750	0.197015	-0.073833
O5	O	0.995790	-0.006257	0.073767
O6	O	0.866843	0.100960	0.073751
O7	O	1.110666	0.089804	0.073748
Zn8	Zn	0.988749	0.095383	0.097179
Zn9	Zn	0.988791	0.095375	-0.097245
O10	O	0.981718	0.197021	0.073732
C11	C	0.835665	0.100503	-0.000031
C12	C	0.742717	0.099142	-0.000030
C13	C	0.404997	0.094138	-0.000039
C14	C	0.428026	0.171524	-0.000382
C15	C	0.524696	0.172995	-0.000045
C16	C	0.572543	0.096621	-0.000035
C17	C	0.543565	0.057935	0.084236
C18	C	0.446778	0.057003	0.084303
C19	C	0.446965	0.055416	-0.083506
C20	C	0.543447	0.058284	-0.084617
C21	C	0.667234	0.098020	-0.000030
C22	C	0.310306	0.092736	-0.000038
C23	C	0.995351	-0.032272	-0.000013
C24	C	0.993983	-0.109780	-0.000006
C25	C	1.069645	-0.154524	-0.000002
C26	C	1.068360	-0.227351	-0.000016
C27	C	0.991408	-0.255430	-0.000016
C28	C	0.915736	-0.210676	-0.000025
C29	C	0.917023	-0.137851	-0.000019
N30	N	0.932577	-0.363573	0.050204
N31	N	0.931359	-0.432754	0.050200
C32	C	0.987524	-0.474848	-0.000034
N33	N	1.044967	-0.445148	-0.050254
N34	N	1.046187	-0.375961	-0.050247
C35	C	0.990003	-0.334396	-0.000022
C36	C	1.061798	-0.598560	-0.000047
C37	C	1.060510	-0.671388	-0.000067
C38	C	0.907884	-0.654711	-0.000066
C39	C	0.909174	-0.581885	-0.000056
C40	C	0.986134	-0.553814	-0.000042
C41	C	1.141875	0.090255	-0.000037
C42	C	1.234823	0.091616	-0.000044
C43	C	0.982190	0.223030	-0.000055
C44	C	0.983558	0.300538	-0.000068
N45	N	0.988727	0.095388	0.229867
N46	N	0.988820	0.095365	-0.229934
C47	C	0.988789	0.095372	0.589069
C48	C	0.919562	0.152550	0.551453
C49	C	0.919719	0.152758	0.448628
C50	C	0.988757	0.095380	0.410865
C51	C	1.076067	0.111276	0.448152
C52	C	1.075678	0.111683	0.551010
C53	C	0.971488	0.022129	0.551182
C54	C	0.969481	0.022618	0.448319
C55	C	0.988745	0.095383	0.310152
C56	C	0.988808	0.095371	0.689782
H57	H	0.543624	0.203288	-0.060456
H58	H	0.909219	0.006840	0.577176
C59	C	0.570502	0.094239	0.168951
N60	N	0.590787	0.121589	0.232756
H61	H	0.905257	0.010554	0.423950
H62	H	0.930740	0.207111	0.424004
C63	C	1.096314	0.183849	0.583397
N64	N	1.111851	0.238209	0.607787
C65	C	0.588256	-0.017031	-0.091477
N66	N	0.622004	-0.073761	-0.096636
C67	C	1.039689	-0.035354	0.584050
N68	N	1.091060	-0.078645	0.608812
H69	H	0.399933	0.201349	-0.060816
C70	C	0.831088	-0.241564	-0.000018
N71	N	0.767330	-0.264829	-0.000014
C72	C	0.934240	0.225566	0.586346
N73	N	0.945299	0.280561	0.612627
H74	H	1.128787	0.071679	0.575891
H75	H	1.129975	-0.263789	-0.000017
C76	C	0.388664	0.211601	0.080793
N77	N	0.359017	0.241785	0.141936
C78	C	0.833785	-0.088630	-0.000021
N79	N	0.771088	-0.051555	-0.000020
C80	C	1.146455	-0.567680	-0.000045
N81	N	1.210218	-0.544423	-0.000047
C82	C	1.033215	-0.037555	0.413616
N83	N	1.081232	-0.082875	0.387486
H84	H	0.854444	0.143237	0.576218
C85	C	0.408698	0.088169	-0.169797
N86	N	0.379876	0.112847	-0.234787
H87	H	1.122126	-0.707819	-0.000069
H88	H	0.561927	0.086451	-0.146959
C89	C	1.154303	-0.123651	0.000006
N90	N	1.218068	-0.100396	0.000009
H91	H	1.128800	0.070739	0.423689
C92	C	0.825939	-0.532664	-0.000055
N93	N	0.763242	-0.495590	-0.000057
C94	C	0.832028	0.139979	0.414570
N95	N	0.765974	0.130358	0.388923
H96	H	0.542974	0.203480	0.060456
C97	C	0.823236	-0.685594	-0.000069
N98	N	0.759476	-0.708858	-0.000074
H99	H	0.433180	-0.001546	-0.084068
H100	H	0.419849	0.083800	0.147289
C101	C	0.586923	-0.017981	0.088503
N102	N	0.619591	-0.075158	0.091723
C103	C	0.427398	-0.019648	0.089489
N104	N	0.412805	-0.077381	0.093400
H105	H	1.091726	0.164083	0.422374
