data_functionalizedCrystal
_audit_creation_method	'MofGen! by Chris Wilmer'
_symmetry_space_group_name_H-M	'P1'
_symmetry_Int_Tables_number	1
_symmetry_cell_setting	triclinic
loop_
_symmetry_equiv_pos_as_xyz
  x,y,z
_cell_length_a	19.188925
_cell_length_b	19.188930
_cell_length_c	9.198806
_cell_angle_alpha	89.991701
_cell_angle_beta	89.995113
_cell_angle_gamma	83.143665
loop_
_atom_site_label
_atom_site_type_symbol
_atom_site_fract_x
_atom_site_fract_y
_atom_site_fract_z
O1	O	0.926147	0.087148	-0.120940
O2	O	0.722835	0.098886	-0.120938
O3	O	0.830358	-0.008639	-0.120911
O4	O	0.818624	0.194673	-0.120967
O5	O	0.830350	-0.008639	0.120874
O6	O	0.722827	0.098886	0.120847
O7	O	0.926138	0.087148	0.120845
Cu8	Cu	0.824482	0.093017	0.142923
Cu9	Cu	0.824492	0.093017	-0.143016
O10	O	0.818615	0.194673	0.120818
C11	C	0.696820	0.098507	-0.000045
C12	C	0.619315	0.097367	-0.000043
C13	C	0.057545	0.152831	-0.000062
C14	C	0.130368	0.153908	-0.000070
C15	C	0.175302	0.090816	-0.000050
C16	C	0.147408	0.026642	-0.000059
C17	C	0.074586	0.025568	-0.000065
N18	N	0.295977	0.045139	0.082268
N19	N	0.365154	0.046165	0.082277
C20	C	0.394712	0.094050	-0.000034
N21	N	0.352477	0.140882	-0.082336
N22	N	0.283293	0.139858	-0.082339
C23	C	0.254267	0.091974	-0.000044
C24	C	0.501561	0.159386	-0.000044
C25	C	0.574385	0.160460	-0.000061
C26	C	0.591425	0.033193	-0.000035
C27	C	0.518601	0.032121	-0.000033
C28	C	0.473673	0.095220	-0.000030
C29	C	0.829974	-0.034650	-0.000014
C30	C	0.828833	-0.112154	-0.000002
C31	C	0.891924	-0.157079	0.000005
C32	C	0.890852	-0.229903	-0.000018
C33	C	0.826686	-0.257799	-0.000019
C34	C	0.763587	-0.212864	-0.000033
C35	C	0.764660	-0.140041	-0.000025
N36	N	0.777636	-0.365803	0.082266
N37	N	0.776620	-0.434981	0.082260
C38	C	0.823448	-0.477207	-0.000048
N39	N	0.871340	-0.447643	-0.082333
N40	N	0.872358	-0.378458	-0.082322
C41	C	0.825515	-0.336761	-0.000029
C42	C	0.885381	-0.601097	-0.000069
C43	C	0.884307	-0.673922	-0.000101
C44	C	0.757040	-0.656880	-0.000102
C45	C	0.758116	-0.584057	-0.000084
C46	C	0.822289	-0.556170	-0.000061
C47	C	0.952154	0.087527	-0.000051
C48	C	1.029658	0.088666	-0.000063
C49	C	0.819000	0.220684	-0.000082
C50	C	0.820140	0.298188	-0.000104
N51	N	0.824480	0.093016	0.344037
N52	N	0.824499	0.093012	-0.344130
C53	C	0.869628	0.047673	0.416245
C54	C	0.869639	0.047670	0.583658
H55	H	0.020968	0.204211	-0.000067
Cl56	Cl	0.764808	0.152948	0.439932
H57	H	0.942230	-0.266488	-0.000019
Cl58	Cl	0.963629	-0.730401	-0.000103
H59	H	0.944179	-0.134379	0.000019
Cl60	Cl	0.039528	-0.055104	-0.000070
Cl61	Cl	0.445077	0.238709	-0.000046
H62	H	0.704794	-0.679592	-0.000110
H63	H	0.153078	0.206160	-0.000056
Cl64	Cl	0.203896	-0.052674	-0.000040
H65	H	0.711342	-0.235581	-0.000037
H66	H	0.706740	-0.547478	-0.000081
Cl67	Cl	0.647907	-0.046124	-0.000032
H68	H	0.908271	0.008851	0.354129
H69	H	0.937635	-0.578390	-0.000057
Cl70	Cl	0.929323	-0.012265	0.679523
H71	H	0.785846	0.131837	0.593783
H72	H	0.597088	0.212713	-0.000072
H73	H	0.495896	-0.020129	-0.000024
H74	H	0.713282	-0.103462	-0.000030
