data_functionalizedCrystal
_audit_creation_method	'MofGen! by Chris Wilmer'
_symmetry_space_group_name_H-M	'P1'
_symmetry_Int_Tables_number	1
_symmetry_cell_setting	triclinic
loop_
_symmetry_equiv_pos_as_xyz
  x,y,z
_cell_length_a	11.792241
_cell_length_b	10.654556
_cell_length_c	9.730223
_cell_angle_alpha	89.998368
_cell_angle_beta	89.995449
_cell_angle_gamma	84.340476
loop_
_atom_site_label
_atom_site_type_symbol
_atom_site_fract_x
_atom_site_fract_y
_atom_site_fract_z
O1	O	0.159454	1.667383	-0.114239
O2	O	0.659454	2.167383	0.385761
O3	O	0.174635	1.301863	-0.114253
O4	O	0.674635	1.801863	0.385747
O5	O	0.001895	1.493493	-0.114236
O6	O	0.501895	1.993493	0.385764
O7	O	0.332194	1.475753	-0.114256
O8	O	0.832194	1.975753	0.385744
O9	O	0.001890	1.493481	0.114344
O10	O	0.501890	1.993481	0.614344
O11	O	0.174630	1.301851	0.114327
O12	O	0.674630	1.801851	0.614327
O13	O	0.159449	1.667371	0.114341
O14	O	0.659449	2.167371	0.614341
Zn15	Zn	0.167039	1.484609	0.150626
Zn16	Zn	0.667039	1.984609	0.650626
Zn17	Zn	0.167045	1.484625	-0.150538
Zn18	Zn	0.667045	1.984625	0.349462
O19	O	0.332190	1.475741	0.114324
O20	O	0.832190	1.975741	0.614324
C21	C	0.173516	1.255062	0.000035
C22	C	0.673516	1.755062	0.500035
C23	C	0.170177	1.115629	0.000030
C24	C	0.670177	1.615629	0.500030
C25	C	0.165478	0.919103	-0.124558
C26	C	0.665478	1.419103	0.375442
C27	C	0.168608	1.050117	-0.124566
C28	C	0.668608	1.550117	0.375434
C29	C	0.168603	1.050122	0.124644
C30	C	0.668603	1.550122	0.624644
C31	C	0.165464	0.919112	0.124651
C32	C	0.665464	1.419112	0.624651
C33	C	-0.040401	1.492373	0.000054
C34	C	0.459599	1.992373	0.500054
C35	C	-0.166423	1.489037	0.000052
C36	C	0.333577	1.989037	0.500052
C37	C	-0.397149	1.482904	0.000029
C38	C	0.102851	1.982904	0.500029
C39	C	-0.268756	1.486312	0.000042
C40	C	0.231244	1.986312	0.500042
C41	C	0.374486	1.476861	0.000032
C42	C	0.874486	1.976861	0.500032
C43	C	0.500507	1.480197	0.000024
C44	C	1.000507	1.980197	0.500024
C45	C	0.160568	1.714172	0.000050
C46	C	0.660568	2.214172	0.500050
C47	C	0.163907	1.853605	0.000046
C48	C	0.663907	2.353605	0.500046
N49	N	0.167034	1.484607	0.356163
N50	N	0.667034	1.984607	0.856163
N51	N	0.167041	1.484637	-0.356074
N52	N	0.667041	1.984637	0.143926
C53	C	0.090577	1.569490	0.428096
C54	C	0.590577	2.069490	0.928096
C55	C	0.090578	1.569502	0.571979
C56	C	0.590578	2.069502	1.071979
C57	C	0.243502	1.399745	0.571982
C58	C	0.743502	1.899745	1.071982
C59	C	0.243495	1.399727	0.428102
C60	C	0.743495	1.899727	0.928102
H61	H	0.169873	1.103473	0.226093
H62	H	0.669873	1.603473	0.726093
H63	H	0.305756	1.330640	0.630570
H64	H	0.805756	1.830640	1.130570
H65	H	0.028318	1.638620	0.630543
H66	H	0.528318	2.138620	1.130543
H67	H	0.305756	1.330599	0.369530
H68	H	0.805756	1.830599	0.869530
H69	H	0.164209	0.865772	-0.226019
H70	H	0.664209	1.365772	0.273981
H71	H	0.164184	0.865782	0.226125
H72	H	0.664184	1.365782	0.726125
H73	H	0.028317	1.638602	0.369526
H74	H	0.528317	2.138602	0.869526
H75	H	0.169886	1.103440	-0.226032
H76	H	0.669886	1.603440	0.273968
