data_functionalizedCrystal
_audit_creation_method	'MofGen! by Chris Wilmer'
_symmetry_space_group_name_H-M	'P1'
_symmetry_Int_Tables_number	1
_symmetry_cell_setting	triclinic
loop_
_symmetry_equiv_pos_as_xyz
  x,y,z
_cell_length_a	15.944551
_cell_length_b	15.500227
_cell_length_c	15.944551
_cell_angle_alpha	87.172611
_cell_angle_beta	83.498738
_cell_angle_gamma	92.840207
loop_
_atom_site_label
_atom_site_type_symbol
_atom_site_fract_x
_atom_site_fract_y
_atom_site_fract_z
O1	O	1.118426	0.071855	0.104438
O2	O	0.873878	0.071877	0.117793
O3	O	1.002830	0.071858	-0.011159
O4	O	0.989474	0.071875	0.233390
O5	O	0.995005	-0.072030	-0.003365
O6	O	0.866053	-0.072010	0.125587
O7	O	1.110601	-0.072032	0.112232
Cu8	Cu	0.987612	-0.085159	0.119621
Cu9	Cu	0.996867	0.085004	0.110403
O10	O	0.981649	-0.072013	0.241184
C11	C	0.838672	-0.000064	0.121135
C12	C	0.745426	-0.000056	0.119473
N13	N	0.981110	-0.204843	0.126104
C14	C	0.530568	-0.000078	0.035569
C15	C	0.473406	0.070868	0.070689
C16	C	0.574699	-0.000066	0.116466
C17	C	0.465713	-0.070993	0.078392
C18	C	0.409786	-0.000080	0.113556
C19	C	0.518769	0.070939	0.151604
C20	C	0.511079	-0.070986	0.159300
C21	C	0.453936	-0.000022	0.194477
C22	C	0.669702	-0.000058	0.118140
C23	C	0.314785	-0.000083	0.111888
C24	C	1.035770	-0.250128	0.071483
C25	C	1.030860	-0.340700	0.076393
C26	C	0.971293	-0.385986	0.135930
C27	C	0.916627	-0.340695	0.190554
C28	C	0.921533	-0.250124	0.185638
C29	C	0.953617	-0.659450	0.153623
C30	C	0.948716	-0.750027	0.158535
C31	C	1.062948	-0.750026	0.044373
C32	C	1.067853	-0.659454	0.039467
C33	C	1.013184	-0.614171	0.094088
C34	C	0.966274	-0.478565	0.140952
C35	C	1.018199	-0.521593	0.089060
C36	C	1.145808	-0.000089	0.108889
C37	C	1.239054	-0.000092	0.110552
C38	C	0.998363	-0.000086	-0.038556
C39	C	0.996700	-0.000086	-0.131802
N40	N	1.003376	0.204688	0.103914
C41	C	0.912797	-0.000067	-0.346660
C42	C	0.947901	-0.071016	-0.403834
C43	C	0.993694	-0.000079	-0.302528
C44	C	0.955635	0.070846	-0.411502
C45	C	0.990783	-0.000069	-0.467441
C46	C	1.028817	-0.071087	-0.358471
C47	C	1.036543	0.070839	-0.366136
C48	C	1.071705	-0.000127	-0.423291
C49	C	0.995368	-0.000086	-0.207526
C50	C	0.989115	-0.000068	-0.562443
C51	C	0.986116	-0.000067	0.268581
C52	C	0.987779	-0.000061	0.361826
H53	H	0.456558	0.130844	0.033223
H54	H	0.910423	-0.130991	-0.420693
H55	H	1.059738	-0.131134	-0.335228
O56	O	1.151882	-0.000331	-0.462809
C57	C	1.190140	-0.075221	-0.435621
H58	H	1.139087	-0.127261	-0.410897
H59	H	1.230134	-0.058976	-0.383014
C60	C	1.309574	-0.044759	-0.540752
C61	C	1.246869	-0.108678	-0.510392
H62	H	1.344570	-0.065396	-0.586872
H63	H	1.283800	0.005697	-0.559067
H64	H	1.342893	-0.031227	-0.496905
H65	H	1.213545	-0.122201	-0.554235
H66	H	1.272638	-0.159138	-0.492086
H67	H	0.542022	0.130985	0.182542
H68	H	1.084279	-0.213262	0.023005
O69	O	0.570212	-0.000115	-0.044572
C70	C	0.542106	-0.074219	-0.083507
H71	H	0.477405	-0.098693	-0.050836
H72	H	0.588997	-0.126838	-0.078108
C73	C	0.614932	-0.020966	-0.217593
C74	C	0.535461	-0.051021	-0.177470
H75	H	0.610836	-0.006659	-0.275555
H76	H	0.633870	0.028958	-0.191361
H77	H	0.653999	-0.064821	-0.213085
H78	H	0.496398	-0.007163	-0.181970
H79	H	0.516516	-0.100938	-0.203705
O80	O	1.076158	-0.477686	0.031268
C81	C	1.158119	-0.499755	0.046174
H82	H	1.154483	-0.565516	0.082103
H83	H	1.186837	-0.448768	0.085247
C84	C	1.218232	-0.423135	-0.082986
C85	C	1.213767	-0.503908	-0.038863
H86	H	1.252560	-0.425693	-0.135440
H87	H	1.163014	-0.408263	-0.093027
H88	H	1.242161	-0.380654	-0.050416
H89	H	1.189828	-0.546384	-0.071428
H90	H	1.268982	-0.518787	-0.028829
O91	O	0.908377	-0.522656	0.198678
C92	C	0.853711	-0.575044	0.156498
H93	H	0.886427	-0.588607	0.091523
H94	H	0.793521	-0.540154	0.148867
C95	C	0.790929	-0.644421	0.288305
C96	C	0.831114	-0.661085	0.208505
H97	H	0.776987	-0.697494	0.320386
H98	H	0.827756	-0.609124	0.316724
H99	H	0.740775	-0.615345	0.281935
H100	H	0.881272	-0.690151	0.214876
H101	H	0.794295	-0.696389	0.180088
O102	O	1.116011	-0.793922	-0.008809
C103	C	1.103532	-0.771821	-0.093165
H104	H	1.074721	-0.706064	-0.096645
H105	H	1.058955	-0.822804	-0.116397
C106	C	1.224420	-0.848402	-0.144953
C107	C	1.189041	-0.767634	-0.149229
H108	H	1.277165	-0.845823	-0.179538
H109	H	1.232826	-0.863295	-0.088122
H110	H	1.187264	-0.890879	-0.164312
H111	H	1.226192	-0.725162	-0.129861
H112	H	1.180643	-0.752734	-0.206059
O113	O	1.081332	0.142365	-0.346102
C114	C	1.164661	0.142963	-0.386704
H115	H	1.165860	0.102031	-0.444253
H116	H	1.207638	0.115099	-0.340952
C117	C	1.194542	0.286822	-0.344433
C118	C	1.196012	0.236555	-0.415121
H119	H	1.213883	0.344554	-0.361960
H120	H	1.138402	0.286419	-0.317076
H121	H	1.230355	0.263592	-0.306314
H122	H	1.160191	0.259779	-0.453234
H123	H	1.252147	0.236965	-0.442486
H124	H	0.420780	0.000022	0.261682
H125	H	0.845645	-0.000132	-0.313349
H126	H	0.527949	-0.130965	0.196737
H127	H	0.900206	-0.786894	0.207021
O128	O	0.900598	-0.615513	0.206806
C129	C	0.913046	-0.637651	0.291163
H130	H	0.978949	-0.662530	0.292960
H131	H	0.863651	-0.690234	0.318653
C132	C	0.823403	-0.526637	0.341538
C133	C	0.904348	-0.557187	0.343746
H134	H	0.818034	-0.477005	0.373976
H135	H	0.815014	-0.511724	0.284706
H136	H	0.782250	-0.570464	0.364445
H137	H	0.945500	-0.513364	0.320829
H138	H	0.912745	-0.572091	0.400576
O139	O	0.437836	-0.142460	0.041313
C140	C	0.398464	-0.116997	-0.030086
H141	H	0.422975	-0.048763	-0.053703
H142	H	0.327135	-0.118047	-0.012124
C143	C	0.388594	-0.263744	-0.071433
C144	C	0.418705	-0.179940	-0.100444
H145	H	0.401076	-0.302571	-0.114832
H146	H	0.415117	-0.280899	-0.023329
H147	H	0.329155	-0.264606	-0.056465
H148	H	0.478143	-0.179076	-0.115401
H149	H	0.392192	-0.162785	-0.148552
H150	H	0.868121	-0.377572	0.239027
O151	O	0.918581	0.142379	-0.439226
C152	C	0.834814	0.142102	-0.399816
H153	H	0.828529	0.100569	-0.338168
H154	H	0.789744	0.114418	-0.443568
C155	C	0.820401	0.286315	-0.456660
C156	C	0.812683	0.235309	-0.380939
H157	H	0.806747	0.343809	-0.445018
H158	H	0.876836	0.286501	-0.483214
H159	H	0.782842	0.263234	-0.493112
H160	H	0.850249	0.258383	-0.344492
H161	H	0.756254	0.235129	-0.354378
O162	O	0.868400	-0.206266	0.238788
C163	C	0.814758	-0.265655	0.292378
H164	H	0.845697	-0.330211	0.296854
H165	H	0.751842	-0.275303	0.265586
C166	C	0.761360	-0.151002	0.375564
C167	C	0.799363	-0.230289	0.381067
H168	H	0.751860	-0.129186	0.430271
H169	H	0.797497	-0.110989	0.339458
H170	H	0.708934	-0.159053	0.353233
H171	H	0.851793	-0.222235	0.403387
H172	H	0.763235	-0.270299	0.417179
H173	H	1.116358	-0.622584	-0.009012
H174	H	1.075368	-0.377571	0.031916
