data_functionalizedCrystal
_audit_creation_method	'MofGen! by Chris Wilmer'
_symmetry_space_group_name_H-M	'P1'
_symmetry_Int_Tables_number	1
_symmetry_cell_setting	triclinic
loop_
_symmetry_equiv_pos_as_xyz
  x,y,z
_cell_length_a	14.908571
_cell_length_b	14.908178
_cell_length_c	14.908694
_cell_angle_alpha	90.159098
_cell_angle_beta	83.592472
_cell_angle_gamma	89.820760
loop_
_atom_site_label
_atom_site_type_symbol
_atom_site_fract_x
_atom_site_fract_y
_atom_site_fract_z
Zn1	Zn	1.384477	-0.471655	-0.562603
Zn2	Zn	1.367038	-0.612303	-0.402618
Zn3	Zn	1.225501	-0.453331	-0.403661
Zn4	Zn	1.224474	-0.612234	-0.545221
O5	O	1.300373	-0.537381	-0.478526
O6	O	1.508360	-0.498010	-0.548219
O7	O	1.341394	-0.583576	-0.276559
O8	O	1.254317	-0.330398	-0.432456
O9	O	1.495547	-0.601344	-0.430679
O10	O	1.371117	-0.343861	-0.549230
O11	O	1.237407	-0.466779	-0.277325
O12	O	1.099169	-0.466712	-0.415601
O13	O	1.252568	-0.601225	-0.673724
O14	O	1.098415	-0.583457	-0.519605
O15	O	1.370121	-0.497943	-0.686494
O16	O	1.340399	-0.737657	-0.413824
O17	O	1.235658	-0.737606	-0.518594
C18	C	1.066071	-0.523089	-0.465830
C19	C	0.965835	-0.516998	-0.460419
C20	C	0.776725	-0.627287	-0.558384
C21	C	0.682545	-0.621567	-0.553303
C22	C	0.683293	-0.499834	-0.445181
C23	C	0.777473	-0.505554	-0.450262
C24	C	0.824186	-0.569284	-0.506865
C25	C	0.918367	-0.575008	-0.511941
C26	C	0.919114	-0.453270	-0.403824
C27	C	0.824934	-0.447550	-0.398743
C28	C	1.286050	-0.770140	-0.464231
C29	C	1.280007	-0.869722	-0.458150
C30	C	1.390194	-1.070718	-0.568439
C31	C	1.384519	-1.164285	-0.562728
C32	C	1.262979	-1.150424	-0.441024
C33	C	1.268654	-1.056857	-0.446734
C34	C	1.332264	-1.017008	-0.510443
C35	C	1.337943	-0.923440	-0.516148
C36	C	1.216399	-0.909580	-0.394449
C37	C	1.210724	-1.003147	-0.388738
C38	C	1.535590	-0.551729	-0.491271
C39	C	1.635825	-0.557843	-0.496703
C40	C	1.313175	-0.551620	-0.713746
C41	C	1.318631	-0.557689	-0.813982
C42	C	1.314777	-0.303716	-0.492898
C43	C	1.320915	-0.204141	-0.499022
C44	C	1.220580	-0.447472	-1.003136
C45	C	1.225703	-0.453171	-1.097317
C46	C	1.333995	-0.574787	-1.096528
C47	C	1.328872	-0.569089	-1.002346
C48	C	1.272164	-0.505428	-0.955654
C49	C	1.267046	-0.499726	-0.861471
C50	C	1.375332	-0.621347	-0.860683
C51	C	1.380456	-0.627045	-0.954864
C52	C	1.287676	-0.523135	-0.244228
C53	C	1.282410	-0.516825	-0.144016
H54	H	0.786887	-0.395661	-0.352661
C55	C	1.406971	-0.880002	-0.585227
C56	C	1.399561	-0.786564	-0.577802
C57	C	1.463142	-0.746523	-0.641418
H58	H	1.396150	-0.898081	-0.644200
H59	H	1.465955	-0.898135	-0.574431
H60	H	1.340591	-0.768438	-0.588604
H61	H	1.410391	-0.768459	-0.518843
H62	H	1.522126	-0.764656	-0.630622
H63	H	1.452316	-0.764608	-0.700386
H64	H	1.458129	-0.683121	-0.636383
C65	C	1.141575	-1.046246	-0.319541
C66	C	1.092045	-0.979178	-0.269986
C67	C	1.028329	-1.018845	-0.206239
H68	H	1.171653	-1.082454	-0.279839
H69	H	1.101862	-1.082432	-0.349622
H70	H	1.131752	-0.943008	-0.239906
H71	H	1.061948	-0.942966	-0.309662
H72	H	0.988616	-1.055031	-0.236319
H73	H	1.058414	-1.055052	-0.166544
H74	H	0.994710	-0.973346	-0.172613
H75	H	0.957766	-0.406041	-0.361871
C76	C	0.827479	-0.696584	-0.619677
C77	C	0.875212	-0.754125	-0.567911
C78	C	0.921965	-0.817981	-0.624341
H79	H	0.868539	-0.667100	-0.663125
H80	H	0.785747	-0.730366	-0.649612
H81	H	0.916941	-0.720347	-0.537991
H82	H	0.834174	-0.783631	-0.524464
H83	H	0.880233	-0.851763	-0.654276
H84	H	0.963020	-0.788489	-0.667787
H85	H	0.954351	-0.857035	-0.589225
C86	C	1.153547	-0.851110	-0.331587
C87	C	1.172115	-0.760638	-0.350234
C88	C	1.114230	-0.706751	-0.292352
H89	H	1.162516	-0.863487	-0.270755
H90	H	1.092709	-0.863542	-0.340521
H91	H	1.232938	-0.748212	-0.341292
H92	H	1.163140	-0.748234	-0.411055
H93	H	1.053393	-0.719182	-0.301286
H94	H	1.123204	-0.719135	-0.231523
H95	H	1.126815	-0.645360	-0.305001
C96	C	1.159106	-0.378385	-0.952276
C97	C	1.165677	-0.385785	-0.859635
C98	C	1.109070	-0.322148	-0.812757
H99	H	1.098506	-0.388665	-0.963511
H100	H	1.176864	-0.319910	-0.972076
H101	H	1.147915	-0.444247	-0.839842
H102	H	1.226265	-0.375497	-0.848373
H103	H	1.126828	-0.263673	-0.832557
H104	H	1.048474	-0.332433	-0.824000
H105	H	1.113527	-0.327155	-0.749896
H106	H	1.441994	-1.038273	-0.620307
C107	C	1.169663	-0.390134	-1.148712
C108	C	1.118923	-0.333152	-1.087660
C109	C	1.067295	-0.275062	-1.134972
H110	H	1.130185	-0.424127	-1.181221
H111	H	1.208545	-0.355374	-1.189704
H112	H	1.080045	-0.367908	-1.046684
H113	H	1.158379	-0.299140	-1.055149
H114	H	1.106176	-0.240302	-1.175964
H115	H	1.027822	-0.309062	-1.167479
H116	H	1.032868	-0.236388	-1.093557
C117	C	1.447523	-1.222447	-0.625748
C118	C	1.504453	-1.167517	-0.682747
C119	C	1.562511	-1.221064	-0.740810
H120	H	1.413014	-1.259247	-0.660995
H121	H	1.482811	-1.259223	-0.591218
H122	H	1.469169	-1.130756	-0.717274
H123	H	1.538981	-1.130718	-0.647526
H124	H	1.597799	-1.257841	-0.706280
H125	H	1.527995	-1.257862	-0.776050
H126	H	1.601151	-1.183803	-0.779485
C127	C	0.631174	-0.684652	-0.609277
C128	C	0.692244	-0.741698	-0.659916
C129	C	0.644953	-0.799831	-0.711485
H130	H	0.598681	-0.650694	-0.648816
H131	H	0.590168	-0.719364	-0.570362
H132	H	0.733233	-0.706990	-0.698828
H133	H	0.724738	-0.775676	-0.620400
H134	H	0.603947	-0.834543	-0.672570
H135	H	0.612462	-0.765866	-0.751019
H136	H	0.686381	-0.838549	-0.745844
H137	H	1.220875	-0.447887	-0.823456
H138	H	1.211187	-1.182886	-0.389159
C139	C	0.632404	-0.430702	-0.383791
C140	C	0.539768	-0.438109	-0.390375
C141	C	0.492862	-0.374433	-0.333842
H142	H	0.652170	-0.372239	-0.401583
H143	H	0.643648	-0.440959	-0.323174
H144	H	0.528530	-0.427845	-0.450979
H145	H	0.519975	-0.496557	-0.372575
H146	H	0.504105	-0.384690	-0.273226
H147	H	0.512635	-0.315974	-0.351640
H148	H	0.430003	-0.379455	-0.338296
C149	C	1.395523	-0.643825	-1.147397
C150	C	1.388971	-0.636401	-1.240040
C151	C	1.445639	-0.699982	-1.286928
H152	H	1.377827	-0.702320	-1.127647
H153	H	1.456112	-0.633484	-1.136121
H154	H	1.328394	-0.646749	-1.251310
H155	H	1.406674	-0.577921	-1.259816
H156	H	1.506228	-0.689641	-1.275652
H157	H	1.427938	-0.758472	-1.267171
H158	H	1.441207	-0.694948	-1.349792
H159	H	1.417339	-0.668536	-0.822014
C160	C	0.969215	-0.644060	-0.573463
C161	C	1.029573	-0.600206	-0.637355
C162	C	1.076435	-0.663787	-0.694040
H163	H	0.927564	-0.677815	-0.603511
H164	H	1.001726	-0.683175	-0.538523
H165	H	0.997064	-0.561107	-0.672291
H166	H	1.071242	-0.566456	-0.607333
H167	H	1.108946	-0.702903	-0.659100
H168	H	1.034778	-0.697539	-0.724082
H169	H	1.117399	-0.634043	-0.737393
C170	C	1.442167	-0.696107	-1.005461
C171	C	1.531345	-0.680660	-0.988573
C172	C	1.588219	-0.744268	-1.035155
H173	H	1.437950	-0.691267	-1.068369
H174	H	1.424478	-0.754579	-0.985592
H175	H	1.549028	-0.622203	-1.008446
H176	H	1.535591	-0.685508	-0.925674
H177	H	1.570531	-0.802740	-1.015287
H178	H	1.583994	-0.739423	-1.098061
H179	H	1.648731	-0.733801	-1.023697
