data_functionalizedCrystal
_audit_creation_method	'MofGen! by Chris Wilmer'
_symmetry_space_group_name_H-M	'P1'
_symmetry_Int_Tables_number	1
_symmetry_cell_setting	triclinic
loop_
_symmetry_equiv_pos_as_xyz
  x,y,z
_cell_length_a	16.959455
_cell_length_b	17.637651
_cell_length_c	16.959447
_cell_angle_alpha	101.247502
_cell_angle_beta	90.014701
_cell_angle_gamma	101.218339
loop_
_atom_site_label
_atom_site_type_symbol
_atom_site_fract_x
_atom_site_fract_y
_atom_site_fract_z
Zn1	Zn	1.144790	-0.314761	0.383218
Zn2	Zn	1.644790	0.185239	0.883218
Zn3	Zn	1.117997	-0.446988	0.224281
Zn4	Zn	1.617997	0.053012	0.724281
Zn5	Zn	1.012612	-0.314791	0.251049
Zn6	Zn	1.512612	0.185209	0.751049
Zn7	Zn	0.985878	-0.446935	0.356430
Zn8	Zn	1.485878	0.053065	0.856430
O9	O	1.065319	-0.380869	0.303744
O10	O	1.565319	0.119131	0.803744
O11	O	1.251844	-0.332311	0.362144
O12	O	1.751844	0.167689	0.862144
O13	O	1.103993	-0.429487	0.117214
O14	O	1.603993	0.070513	0.617214
O15	O	1.052546	-0.204147	0.290995
O16	O	1.552546	0.295853	0.790995
O17	O	1.232160	-0.429457	0.245373
O18	O	1.732160	0.070543	0.745373
O19	O	1.149657	-0.204125	0.388100
O20	O	1.649657	0.295875	0.888100
O21	O	1.026567	-0.332363	0.136880
O22	O	1.526567	0.167637	0.636880
O23	O	0.898457	-0.332311	0.265019
O24	O	1.398457	0.167689	0.765019
O25	O	1.006983	-0.429367	0.470601
O26	O	1.506983	0.070633	0.970601
O27	O	0.878816	-0.429396	0.342442
O28	O	1.378816	0.070604	0.842442
O29	O	1.123734	-0.332259	0.490283
O30	O	1.623734	0.167741	0.990283
O31	O	1.078070	-0.557621	0.219397
O32	O	1.578070	-0.057621	0.719397
O33	O	0.981003	-0.557582	0.316486
O34	O	1.481003	-0.057582	0.816486
C35	C	0.859956	-0.380852	0.303728
C36	C	1.359956	0.119148	0.803728
C37	C	0.772097	-0.380863	0.303737
C38	C	1.272097	0.119137	0.803737
C39	C	0.720587	-0.431371	0.242882
C40	C	1.220587	0.068629	0.742882
C41	C	0.741053	-0.330362	0.364596
C42	C	1.241053	0.169638	0.864596
C43	C	0.658506	-0.330368	0.364604
C44	C	1.158506	0.169632	0.864604
C45	C	0.606995	-0.380876	0.303750
C46	C	1.106995	0.119124	0.803750
C47	C	0.638033	-0.431377	0.242887
C48	C	1.138033	0.068623	0.742887
C49	C	0.627463	-0.279862	0.425461
C50	C	1.127463	0.220138	0.925461
C51	C	0.544912	-0.279865	0.425471
C52	C	1.044912	0.220135	0.925471
C53	C	0.493399	-0.330378	0.364619
C54	C	0.993399	0.169622	0.864619
C55	C	0.524441	-0.380882	0.303755
C56	C	1.024441	0.119118	0.803755
C57	C	0.472931	-0.431390	0.242900
C58	C	0.972931	0.068610	0.742900
C59	C	0.503970	-0.481898	0.182038
C60	C	1.003970	0.018102	0.682038
C61	C	0.586520	-0.481890	0.182035
C62	C	1.086520	0.018110	0.682035
C63	C	0.410849	-0.330386	0.364622
C64	C	0.910849	0.169614	0.864622
C65	C	0.390376	-0.431396	0.242905
C66	C	0.890376	0.068604	0.742905
C67	C	1.023750	-0.586289	0.262147
C68	C	1.523750	-0.086289	0.762147
C69	C	1.006039	-0.674169	0.244378
C70	C	1.506039	-0.174169	0.744378
C71	C	1.200383	-0.962841	0.438983
C72	C	1.700383	-0.462841	0.938983
C73	C	1.183715	-1.045418	0.422273
C74	C	1.683715	-0.545418	0.922273
C75	C	1.082662	-1.045548	0.321060
C76	C	1.582662	-0.545548	0.821060
C77	C	1.099323	-0.962970	0.337759
C78	C	1.599323	-0.462970	0.837759
C79	C	1.158184	-0.921623	0.396722
C80	C	1.658184	-0.421623	0.896722
C81	C	1.057125	-0.921752	0.295499
C82	C	1.557125	-0.421752	0.795499
C83	C	1.073783	-0.839182	0.312200
C84	C	1.573783	-0.339182	0.812200
C85	C	1.132639	-0.797829	0.371162
C86	C	1.632639	-0.297829	0.871162
C87	C	1.174842	-0.839053	0.413423
C88	C	1.674842	-0.339053	0.913423
C89	C	0.998260	-0.963101	0.236540
C90	C	1.498260	-0.463101	0.736540
C91	C	0.956062	-0.921883	0.194279
C92	C	1.456062	-0.421883	0.694279
C93	C	0.972723	-0.839311	0.210976
C94	C	1.472723	-0.339311	0.710976
C95	C	1.031579	-0.797958	0.269938
C96	C	1.531579	-0.297958	0.769938
C97	C	0.930520	-0.798087	0.168714
C98	C	1.430520	-0.298087	0.668714
C99	C	0.947178	-0.715516	0.185415
C100	C	1.447178	-0.215516	0.685415
C101	C	1.048237	-0.715387	0.286639
C102	C	1.548237	-0.215387	0.786639
C103	C	1.271484	-0.380887	0.303761
C104	C	1.771484	0.119113	0.803761
C105	C	1.359339	-0.380894	0.303768
C106	C	1.859339	0.119106	0.803768
C107	C	1.065365	-0.380803	0.509926
C108	C	1.565365	0.119197	1.009926
C109	C	1.065385	-0.380775	0.597788
C110	C	1.565385	0.119225	1.097788
C111	C	1.107072	-0.174646	0.345521
C112	C	1.607072	0.325354	0.845521
C113	C	1.124865	-0.086767	0.363324
C114	C	1.624865	0.413233	0.863324
C115	C	1.065330	-0.380877	0.098377
C116	C	1.565330	0.119123	0.598377
C117	C	1.065509	-0.380682	0.010560
C118	C	1.565509	0.119318	0.510560
C119	C	1.004709	-0.431252	0.959036
C120	C	1.504709	0.068748	1.459036
C121	C	1.126283	-0.330133	0.979526
C122	C	1.626283	0.169867	1.479526
C123	C	1.126259	-0.330149	0.896977
C124	C	1.626259	0.169851	1.396977
C125	C	1.065459	-0.380719	0.845453
C126	C	1.565459	0.119281	1.345453
C127	C	1.004684	-0.431271	0.876479
C128	C	1.504684	0.068729	1.376479
C129	C	1.187038	-0.279603	0.865943
C130	C	1.687038	0.220397	1.365943
C131	C	1.187016	-0.279619	0.783389
C132	C	1.687016	0.220381	1.283389
C133	C	1.126212	-0.330185	0.731865
C134	C	1.626212	0.169815	1.231865
C135	C	1.065434	-0.380739	0.762895
C136	C	1.565434	0.119261	1.262895
C137	C	1.004635	-0.431308	0.711372
C138	C	1.504635	0.068692	1.211372
C139	C	0.943853	-0.481859	0.742401
C140	C	1.443853	0.018141	1.242401
C141	C	0.943880	-0.481838	0.824954
C142	C	1.443880	0.018162	1.324954
C143	C	1.126185	-0.330206	0.649312
C144	C	1.626185	0.169794	1.149312
C145	C	1.004610	-0.431328	0.628814
C146	C	1.504610	0.068672	1.128814
H147	H	0.519647	-0.238739	0.475030
H148	H	1.019647	0.261261	0.975030
F149	F	1.150172	-0.709949	0.389132
F150	F	1.650172	-0.209949	0.889132
H151	H	1.175674	-0.289051	0.624051
H152	H	1.675674	0.210949	1.124051
H153	H	0.912814	-0.681956	0.151003
H154	H	1.412814	-0.181956	0.651003
H155	H	0.955220	-0.472406	0.984305
H156	H	1.455220	0.027594	1.484305
F157	F	1.190991	-0.276322	1.034361
F158	F	1.690991	0.223678	1.534361
H159	H	0.894397	-0.522996	0.850226
H160	H	1.394397	-0.022996	1.350226
F161	F	0.377819	-0.276630	0.429387
F162	F	0.877819	0.223370	0.929387
F163	F	1.251744	-0.225793	0.920780
F164	F	1.751744	0.274207	1.420780
F165	F	1.110893	-0.671378	0.349386
F166	F	1.610893	-0.171378	0.849386
F167	F	0.753621	-0.485126	0.178114
F168	F	1.253621	0.014874	0.678114
F169	F	0.335560	-0.485158	0.178137
F170	F	0.835560	0.014842	0.678137
F171	F	1.237497	-0.795043	0.476170
F172	F	1.737497	-0.295043	0.976170
H173	H	0.782997	-0.289237	0.414138
H174	H	1.282997	0.210763	0.914138
F175	F	0.449141	-0.535646	0.117271
F176	F	0.949141	-0.035646	0.617271
F177	F	0.939894	-0.485148	0.573985
F178	F	1.439894	0.014852	1.073985
F179	F	1.251703	-0.225817	0.750373
F180	F	1.751703	0.274183	1.250373
F181	F	0.879151	-0.535681	0.687556
F182	F	1.379151	-0.035681	1.187556
H183	H	0.611800	-0.523009	0.132483
H184	H	1.111800	-0.023009	0.632483
H185	H	1.218072	-1.078974	0.456702
H186	H	1.718072	-0.578974	0.956702
F187	F	1.263038	-0.918832	0.501730
F188	F	1.763038	-0.418832	1.001730
F189	F	0.682287	-0.226111	0.490221
F190	F	1.182287	0.273889	0.990221
F191	F	1.020015	-1.089561	0.258315
F192	F	1.520015	-0.589561	0.758315
H193	H	0.984692	-1.030335	0.222951
H194	H	1.484692	-0.530335	0.722951
F195	F	0.893414	-0.965896	0.131534
F196	F	1.393414	-0.465896	0.631534
H197	H	0.882590	-0.831764	0.120712
H198	H	1.382590	-0.331764	0.620712
