data_functionalizedCrystal
_audit_creation_method	'MofGen! by Chris Wilmer'
_symmetry_space_group_name_H-M	'P1'
_symmetry_Int_Tables_number	1
_symmetry_cell_setting	triclinic
loop_
_symmetry_equiv_pos_as_xyz
  x,y,z
_cell_length_a	10.654544
_cell_length_b	13.330367
_cell_length_c	10.654541
_cell_angle_alpha	90.001405
_cell_angle_beta	84.484390
_cell_angle_gamma	90.006111
loop_
_atom_site_label
_atom_site_type_symbol
_atom_site_fract_x
_atom_site_fract_y
_atom_site_fract_z
O1	O	1.667842	0.083448	0.176392
O2	O	1.302363	0.083445	0.193199
O3	O	1.493508	0.083440	0.002056
O4	O	1.476698	0.083453	0.367535
O5	O	1.493488	-0.083407	0.002062
O6	O	1.302344	-0.083402	0.193204
O7	O	1.667822	-0.083399	0.176398
Cu8	Cu	1.485081	-0.098635	0.184802
Cu9	Cu	1.485105	0.098681	0.184795
O10	O	1.476678	-0.083395	0.367541
C11	C	1.255556	0.000021	0.191968
C12	C	1.116112	0.000019	0.188276
N13	N	1.485074	-0.237417	0.184805
C14	C	1.116066	-0.181883	0.188296
C15	C	1.050533	-0.272830	0.186576
C16	C	0.919514	-0.272826	0.183105
C17	C	0.854026	-0.181864	0.181351
C18	C	0.919559	-0.090917	0.183071
C19	C	1.050580	-0.090931	0.186546
C20	C	0.919607	0.090983	0.183042
C21	C	1.050624	0.090981	0.186521
C22	C	0.854119	0.181945	0.181287
C23	C	0.919651	0.272895	0.183017
C24	C	1.050677	0.272887	0.186490
C25	C	1.116157	0.181929	0.188242
C26	C	1.400423	-0.289940	0.269417
C27	C	1.569732	-0.289921	0.100189
C28	C	1.569745	-0.394940	0.100184
C29	C	1.485094	-0.447463	0.184796
C30	C	1.400431	-0.394968	0.269413
C31	C	1.654398	-0.447442	0.015560
C32	C	1.654413	-0.552467	0.015551
C33	C	1.569767	-0.604992	0.100170
C34	C	1.485102	-0.552491	0.184791
C35	C	1.400451	-0.605015	0.269403
C36	C	1.315790	-0.552515	0.354031
C37	C	1.315785	-0.447493	0.354031
C38	C	1.569772	-0.710014	0.100169
C39	C	1.400459	-0.710043	0.269398
C40	C	1.714630	0.000027	0.177629
C41	C	1.854074	0.000035	0.181321
C42	C	1.492264	0.000017	-0.044739
C43	C	1.488573	0.000019	-0.184183
N44	N	1.485122	0.237462	0.184781
C45	C	1.717138	0.000009	-0.212154
C46	C	1.829681	0.000001	-0.291648
C47	C	1.826206	0.000004	-0.422666
C48	C	1.710174	0.000018	-0.474191
C49	C	1.597631	0.000025	-0.394697
C50	C	1.601119	0.000019	-0.263677
C51	C	1.369069	0.000043	-0.366726
C52	C	1.372542	0.000033	-0.235708
C53	C	1.253038	0.000056	-0.418251
C54	C	1.140492	0.000056	-0.338757
C55	C	1.143973	0.000052	-0.207731
C56	C	1.259999	0.000040	-0.156214
C57	C	1.477922	0.000031	0.414336
C58	C	1.481613	0.000036	0.553779
H59	H	1.222746	-0.181895	0.191140
H60	H	1.707355	0.000033	-0.580874
O61	O	0.712717	-0.181875	0.177576
H62	H	0.688652	-0.142628	0.091191
H63	H	1.331497	-0.247192	0.338324
H64	H	1.719979	-0.000007	-0.105473
O65	O	1.745657	-0.390768	-0.075703
H66	H	1.843717	-0.410894	-0.058838
O67	O	1.745741	-0.609091	-0.075697
H68	H	1.804612	-0.554923	-0.134520
H69	H	1.638696	-0.752754	0.031261
O70	O	1.309163	-0.766696	0.360664
H71	H	1.362581	-0.814531	0.422184
O72	O	1.224477	-0.390865	0.445295
H73	H	1.165623	-0.445028	0.504141
O74	O	1.661025	-0.233290	0.008913
H75	H	1.644149	-0.253463	-0.089132
O76	O	1.947588	-0.000014	-0.508415
H77	H	2.003086	0.067980	-0.489975
H78	H	1.924152	-0.000018	-0.249682
O79	O	1.249278	0.000050	-0.559563
H80	H	1.347027	0.000028	-0.606187
O81	O	1.015361	0.000066	-0.394339
H82	H	0.961242	0.068074	-0.362490
H83	H	1.052326	0.000062	-0.143013
H84	H	1.222838	0.181913	0.191077
H85	H	1.246862	-0.595292	0.422917
H86	H	1.104027	0.346948	0.187887
O87	O	1.121160	-0.370938	0.188479
H88	H	1.223273	-0.355668	0.191197
O89	O	0.848558	-0.370804	0.181417
H90	H	0.883900	-0.414598	0.096701
O91	O	0.712807	0.181969	0.177535
H92	H	0.667788	0.142733	0.262081
O93	O	0.849024	0.370996	0.181129
H94	H	0.746909	0.355720	0.178426
H95	H	1.262844	0.000030	-0.049534
