data_functionalizedCrystal
_audit_creation_method	'MofGen! by Chris Wilmer'
_symmetry_space_group_name_H-M	'P1'
_symmetry_Int_Tables_number	1
_symmetry_cell_setting	triclinic
loop_
_symmetry_equiv_pos_as_xyz
  x,y,z
_cell_length_a	23.532407
_cell_length_b	23.532357
_cell_length_c	22.010155
_cell_angle_alpha	90.001303
_cell_angle_beta	90.003069
_cell_angle_gamma	82.838485
loop_
_atom_site_label
_atom_site_type_symbol
_atom_site_fract_x
_atom_site_fract_y
_atom_site_fract_z
O1	O	0.755251	0.069129	0.050457
O2	O	0.589386	0.079132	0.050475
O3	O	0.677335	-0.008803	0.050453
O4	O	0.667302	0.157064	0.050479
O5	O	0.677319	-0.008790	-0.050597
O6	O	0.589370	0.079145	-0.050575
O7	O	0.755235	0.069142	-0.050594
Cu8	Cu	0.672301	0.074145	-0.059811
Cu9	Cu	0.672320	0.074129	0.059693
O10	O	0.667286	0.157077	-0.050571
C11	C	0.568162	0.078884	-0.000048
C12	C	0.504945	0.078118	-0.000041
C13	C	0.677076	-0.030013	-0.000074
C14	C	0.676322	-0.093232	-0.000080
C15	C	0.105834	0.125353	-0.000061
C16	C	0.046434	0.124641	-0.000065
O17	O	0.009681	0.168428	-0.000080
N18	N	0.023817	0.072364	-0.000072
C19	C	0.060604	0.020794	-0.000082
O20	O	0.035912	-0.023737	-0.000089
C21	C	0.120003	0.021506	-0.000082
C22	C	0.142616	0.073787	-0.000069
C23	C	0.128448	0.177629	-0.000048
C24	C	0.187844	0.178341	-0.000043
C25	C	0.224626	0.126775	-0.000051
C26	C	0.202012	0.074498	-0.000064
C27	C	0.156788	-0.030063	-0.000096
C28	C	0.216191	-0.029346	-0.000097
C29	C	0.238804	0.022935	-0.000084
C30	C	0.298190	0.023644	-0.000067
N31	N	0.320807	0.075922	-0.000059
C32	C	0.284025	0.127487	-0.000052
C33	C	-0.064139	0.019303	-0.000082
C34	C	-0.123536	0.018590	-0.000077
C35	C	-0.137702	0.122437	-0.000061
C36	C	-0.078303	0.123149	-0.000062
C37	C	-0.041522	0.071580	-0.000074
C38	C	0.408761	0.128977	-0.000041
C39	C	0.468163	0.129684	-0.000033
C40	C	0.482324	0.025837	-0.000052
C41	C	0.422927	0.025130	-0.000056
C42	C	0.386147	0.076704	-0.000053
O43	O	0.334977	-0.020120	-0.000054
O44	O	0.308725	0.172011	-0.000052
C45	C	0.671594	-0.485250	0.055036
C46	C	0.670877	-0.544650	0.055040
O47	O	0.670494	-0.575372	0.101885
N48	N	0.670512	-0.574354	-0.000042
C49	C	0.670859	-0.544655	-0.055131
O50	O	0.670483	-0.575374	-0.101982
C51	C	0.671572	-0.485256	-0.055134
C52	C	0.671943	-0.455556	-0.000048
C53	C	0.671963	-0.455550	0.110117
C54	C	0.672682	-0.396155	0.110113
C55	C	0.673030	-0.366460	0.055029
C56	C	0.672661	-0.396160	-0.000052
C57	C	0.671915	-0.455557	-0.110222
C58	C	0.672628	-0.396154	-0.110220
C59	C	0.672998	-0.366454	-0.055135
C60	C	0.673728	-0.307070	-0.055141
N61	N	0.674092	-0.277366	-0.000059
C62	C	0.673743	-0.307061	0.055026
C63	C	0.669361	-0.669396	-0.055121
C64	C	0.668652	-0.728795	-0.055118
C65	C	0.668668	-0.728786	0.055053
C66	C	0.669381	-0.669387	0.055050
C67	C	0.669725	-0.639692	-0.000039
C68	C	0.675252	-0.182327	0.055014
C69	C	0.675973	-0.122927	0.055005
C70	C	0.675954	-0.122941	-0.055166
C71	C	0.675236	-0.182336	-0.055157
C72	C	0.674883	-0.212027	-0.000063
O73	O	0.674109	-0.276310	-0.101962
O74	O	0.674112	-0.276333	0.101869
C75	C	0.776459	0.069390	-0.000070
C76	C	0.839676	0.070156	-0.000072
C77	C	0.667545	0.178287	-0.000043
C78	C	0.668300	0.241506	-0.000033
N79	N	0.672292	0.074155	-0.143864
C80	C	0.711266	0.035197	-0.563653
C81	C	0.711269	0.035193	-0.627260
O82	O	0.744383	0.002076	-0.660160
N83	N	0.672320	0.074117	-0.659071
C84	C	0.633362	0.113044	-0.627270
O85	O	0.600233	0.146152	-0.660168
C86	C	0.633357	0.113045	-0.563663
C87	C	0.672312	0.074122	-0.531857
C88	C	0.750218	-0.003724	-0.531846
C89	C	0.750216	-0.003719	-0.468243
C90	C	0.711262	0.035206	-0.436446
C91	C	0.672310	0.074127	-0.468253
C92	C	0.594397	0.151969	-0.531864
C93	C	0.594395	0.151966	-0.468253
C94	C	0.633350	0.113043	-0.436446
C95	C	0.633354	0.113056	-0.372854
N96	N	0.672303	0.074132	-0.341044
C97	C	0.711257	0.035207	-0.372840
C98	C	0.633374	0.113039	-0.760848
C99	C	0.633382	0.113041	-0.824453
C100	C	0.711288	0.035189	-0.824439
C101	C	0.711283	0.035190	-0.760833
C102	C	0.672323	0.074115	-0.729038
C103	C	0.711250	0.035220	-0.239269
C104	C	0.711246	0.035230	-0.175660
C105	C	0.633338	0.113080	-0.175679
C106	C	0.633344	0.113073	-0.239282
C107	C	0.672302	0.074138	-0.271076
O108	O	0.600255	0.146155	-0.339914
O109	O	0.744376	0.002100	-0.339935
N110	N	0.672334	0.074114	0.143745
H111	H	0.486571	0.172259	-0.000022
Br112	Br	-0.154218	-0.052366	-0.000076
Br113	Br	-0.014226	-0.050691	-0.000093
Br114	Br	0.671489	-0.495839	0.184885
H115	H	0.562667	0.183662	-0.442369
H116	H	0.378821	0.170974	-0.000040
H117	H	0.669642	-0.645223	-0.099983
Br118	Br	0.126115	-0.101020	-0.000101
H119	H	0.674940	-0.206520	-0.100012
Br120	Br	0.673180	-0.355856	0.184876
H121	H	0.676240	-0.098753	-0.100014
H122	H	0.512282	-0.016147	-0.000056
Br123	Br	0.671411	-0.495849	-0.184986
H124	H	0.676276	-0.098748	0.099864
Br125	Br	0.674773	-0.222613	0.129785
H126	H	0.742973	0.003516	-0.265148
Br127	Br	0.218523	0.249297	-0.000028
H128	H	0.668382	-0.752974	0.099906
Br129	Br	0.580482	0.165906	-0.282447
H130	H	0.601624	0.144774	-0.149781
H131	H	0.668359	-0.752973	-0.099974
Br132	Br	0.266106	-0.099337	-0.000117
H133	H	0.098505	0.219623	-0.000044
Br134	Br	0.669883	-0.629086	0.129811
Br135	Br	0.673094	-0.355857	-0.184988
H136	H	-0.059896	0.165721	-0.000054
Br137	Br	0.764120	-0.017595	-0.132496
Br138	Br	0.392236	-0.045824	-0.000076
H139	H	0.743004	0.003495	-0.734939
Br140	Br	0.803083	-0.056547	-0.425083
Br141	Br	-0.187633	0.192420	-0.000052
Br142	Br	0.764154	-0.017638	-0.867605
Br143	Br	0.803090	-0.056558	-0.574987
Br144	Br	0.580521	0.165877	-0.867612
H145	H	0.601650	0.144741	-0.734963
Br146	Br	0.541526	0.204795	-0.575017
