data_functionalizedCrystal
_audit_creation_method	'MofGen! by Chris Wilmer'
_symmetry_space_group_name_H-M	'P1'
_symmetry_Int_Tables_number	1
_symmetry_cell_setting	triclinic
loop_
_symmetry_equiv_pos_as_xyz
  x,y,z
_cell_length_a	10.967874
_cell_length_b	11.792254
_cell_length_c	9.482900
_cell_angle_alpha	99.398945
_cell_angle_beta	68.707142
_cell_angle_gamma	84.459369
loop_
_atom_site_label
_atom_site_type_symbol
_atom_site_fract_x
_atom_site_fract_y
_atom_site_fract_z
O1	O	1.746063	0.077825	-0.558321
O2	O	2.079396	0.411158	-0.224988
O3	O	2.412730	0.744491	0.108346
O4	O	1.367712	0.106876	-0.463539
O5	O	1.701046	0.440209	-0.130206
O6	O	2.034379	0.773542	0.203127
O7	O	1.566059	-0.073133	-0.513217
O8	O	1.899392	0.260200	-0.179884
O9	O	2.232725	0.593533	0.153449
O10	O	1.547716	0.257834	-0.508643
O11	O	1.881050	0.591167	-0.175310
O12	O	2.214383	0.924500	0.158024
O13	O	1.525771	-0.036428	-0.261334
O14	O	1.859104	0.296906	0.071999
O15	O	2.192438	0.630239	0.405332
O16	O	1.327424	0.143582	-0.211656
O17	O	1.660758	0.476915	0.121677
O18	O	1.994091	0.810248	0.455010
O19	O	1.705775	0.114531	-0.306438
O20	O	2.039109	0.447864	0.026895
O21	O	2.372442	0.781197	0.360229
Cu22	Cu	1.512921	0.132408	-0.236048
Cu23	Cu	1.846255	0.465741	0.097285
Cu24	Cu	2.179588	0.799074	0.430618
Cu25	Cu	1.560566	0.088999	-0.533929
Cu26	Cu	1.893899	0.422332	-0.200596
Cu27	Cu	2.227233	0.755665	0.132738
O28	O	1.507429	0.294540	-0.256760
O29	O	1.840762	0.627873	0.076573
O30	O	2.174095	0.961206	0.409907
C31	C	1.299131	0.125888	-0.325463
C32	C	1.632464	0.459221	0.007870
C33	C	1.965798	0.792555	0.341203
C34	C	1.154803	0.127840	-0.289307
C35	C	1.488136	0.461173	0.044026
C36	C	1.821469	0.794506	0.377360
C37	C	1.111327	0.109695	-0.403670
C38	C	1.444660	0.443028	-0.070337
C39	C	1.777994	0.776362	0.262996
C40	C	0.962157	0.111712	-0.366304
C41	C	1.295490	0.445045	-0.032970
C42	C	1.628823	0.778378	0.300363
C43	C	1.544759	-0.097032	-0.386987
C44	C	1.878093	0.236302	-0.053653
C45	C	2.211426	0.569635	0.279680
C46	C	1.541300	-0.222926	-0.386122
C47	C	1.874634	0.110408	-0.052788
C48	C	2.207967	0.443741	0.280545
C49	C	1.538491	-0.325166	-0.385423
C50	C	1.871824	0.008167	-0.052090
C51	C	2.205158	0.341500	0.281244
C52	C	1.534979	-0.453434	-0.384556
C53	C	1.868312	-0.120101	-0.051223
C54	C	2.201645	0.213233	0.282110
C55	C	1.774357	0.095518	-0.444517
C56	C	2.107690	0.428851	-0.111184
C57	C	2.441024	0.762184	0.222150
C58	C	1.918687	0.093565	-0.480683
C59	C	2.252020	0.426898	-0.147350
C60	C	2.585354	0.760231	0.185983
C61	C	1.528729	0.318437	-0.382994
C62	C	1.862062	0.651771	-0.049660
C63	C	2.195395	0.985104	0.283673
C64	C	1.532189	0.444330	-0.383869
C65	C	1.865522	0.777663	-0.050536
C66	C	2.198856	1.110997	0.282798
N67	N	1.479420	0.162938	-0.026537
N68	N	1.812753	0.496272	0.306796
N69	N	2.146087	0.829605	0.640129
N70	N	1.594078	0.058459	-0.743442
N71	N	1.927411	0.391792	-0.410109
N72	N	2.260744	0.725125	-0.076776
C73	C	1.550676	0.097998	0.027815
C74	C	1.884009	0.431331	0.361149
C75	C	2.217342	0.764665	0.694482
C76	C	1.522812	0.123409	0.202211
C77	C	1.856145	0.456742	0.535545
C78	C	2.189478	0.790075	0.868878
H79	H	1.081588	0.144873	-0.163733
H80	H	1.414921	0.478207	0.169600
H81	H	1.748254	0.811540	0.502934
Cl82	Cl	1.396760	0.238294	0.329691
Cl83	Cl	1.730093	0.571627	0.663024
Cl84	Cl	2.063427	0.904961	0.996357
H85	H	1.632305	0.023584	-0.054758
H86	H	1.965638	0.356917	0.278576
H87	H	2.298971	0.690250	0.611909
Cl88	Cl	1.353374	0.277819	0.100946
Cl89	Cl	1.686707	0.611152	0.434280
Cl90	Cl	2.020041	0.944486	0.767613
H91	H	1.675712	-0.015960	0.173987
H92	H	2.009045	0.317373	0.507320
H93	H	2.342378	0.650707	0.840654
Cl94	Cl	1.031705	0.067289	-0.674576
Cl95	Cl	1.365039	0.400623	-0.341243
Cl96	Cl	1.698372	0.733956	-0.007909
H97	H	1.184540	0.092674	-0.529244
H98	H	1.517873	0.426007	-0.195911
H99	H	1.851207	0.759340	0.137423
H100	H	0.888945	0.128747	-0.240721
H101	H	1.222279	0.462080	0.092612
H102	H	1.555612	0.795413	0.425945
