data_functionalizedCrystal
_audit_creation_method	'MofGen! by Chris Wilmer'
_symmetry_space_group_name_H-M	'P1'
_symmetry_Int_Tables_number	1
_symmetry_cell_setting	triclinic
loop_
_symmetry_equiv_pos_as_xyz
  x,y,z
_cell_length_a	16.625547
_cell_length_b	16.625545
_cell_length_c	16.625539
_cell_angle_alpha	89.973630
_cell_angle_beta	90.021309
_cell_angle_gamma	89.976026
loop_
_atom_site_label
_atom_site_type_symbol
_atom_site_fract_x
_atom_site_fract_y
_atom_site_fract_z
Zn1	Zn	1.232644	0.321016	0.456001
Zn2	Zn	1.565977	0.654350	0.789335
Zn3	Zn	1.899310	0.987683	1.122668
Zn4	Zn	1.232552	0.455855	0.321169
Zn5	Zn	1.565885	0.789188	0.654502
Zn6	Zn	1.899218	1.122522	0.987835
Zn7	Zn	1.097814	0.321040	0.321172
Zn8	Zn	1.431147	0.654373	0.654505
Zn9	Zn	1.764480	0.987707	0.987838
Zn10	Zn	1.097772	0.455811	0.455948
Zn11	Zn	1.431106	0.789144	0.789282
Zn12	Zn	1.764439	1.122477	1.122615
O13	O	1.165195	0.388430	0.388573
O14	O	1.498529	0.721764	0.721906
O15	O	1.831862	1.055097	1.055239
O16	O	1.345464	0.338912	0.438136
O17	O	1.678797	0.672245	0.771470
O18	O	2.012131	1.005578	1.104803
O19	O	1.214657	0.438000	0.208337
O20	O	1.547990	0.771333	0.541670
O21	O	1.881324	1.104667	0.875003
O22	O	1.115755	0.208204	0.339081
O23	O	1.449089	0.541538	0.672414
O24	O	1.782422	0.874871	1.005747
O25	O	1.345396	0.437977	0.339075
O26	O	1.678729	0.771310	0.672409
O27	O	2.012063	1.104644	1.005742
O28	O	1.214814	0.208187	0.438139
O29	O	1.548148	0.541520	0.771473
O30	O	1.881481	0.874854	1.104806
O31	O	1.115666	0.338952	0.208339
O32	O	1.448999	0.672285	0.541672
O33	O	1.782333	1.005619	0.875006
O34	O	0.984976	0.338909	0.339029
O35	O	1.318309	0.672242	0.672363
O36	O	1.651643	1.005576	1.005696
O37	O	1.115684	0.437901	0.568788
O38	O	1.449018	0.771235	0.902121
O39	O	1.782351	1.104568	1.235455
O40	O	0.984945	0.437924	0.438049
O41	O	1.318279	0.771257	0.771383
O42	O	1.651612	1.104591	1.104716
O43	O	1.214774	0.338869	0.568827
O44	O	1.548107	0.672202	0.902160
O45	O	1.881441	1.005535	1.235493
O46	O	1.214617	0.568682	0.339024
O47	O	1.547950	0.902015	0.672357
O48	O	1.881283	1.235348	1.005691
O49	O	1.115595	0.568649	0.438046
O50	O	1.448928	0.901982	0.771380
O51	O	1.782262	1.235315	1.104713
C52	C	0.955705	0.388415	0.388534
C53	C	1.289038	0.721748	0.721868
C54	C	1.622371	1.055081	1.055201
C55	C	0.866083	0.388428	0.388537
C56	C	1.199417	0.721761	0.721871
C57	C	1.532750	1.055094	1.055204
C58	C	0.793301	0.388429	0.388547
C59	C	1.126634	0.721762	0.721881
C60	C	1.459968	1.055096	1.055214
C61	C	0.701993	0.388433	0.388567
C62	C	1.035326	0.721767	0.721901
C63	C	1.368659	1.055100	1.055234
C64	C	0.629216	0.388441	0.388588
C65	C	0.962549	0.721774	0.721921
C66	C	1.295883	1.055107	1.055255
C67	C	0.537902	0.388446	0.388607
C68	C	0.871235	0.721780	0.721941
C69	C	1.204568	1.055113	1.055274
C70	C	1.165113	0.597921	0.388547
C71	C	1.498447	0.931255	0.721880
C72	C	1.831780	1.264588	1.055213
C73	C	1.165152	0.687542	0.388563
C74	C	1.498485	1.020876	0.721896
C75	C	1.831819	1.354209	1.055229
C76	C	1.165284	1.015718	0.388659
C77	C	1.498617	1.349051	0.721992
C78	C	1.831950	1.682385	1.055326
C79	C	1.165244	0.924410	0.388634
C80	C	1.498578	1.257743	0.721968
C81	C	1.831911	1.591076	1.055301
C82	C	1.165217	0.851633	0.388610
C83	C	1.498551	1.184966	0.721944
C84	C	1.831884	1.518300	1.055277
C85	C	1.165179	0.760319	0.388587
C86	C	1.498513	1.093652	0.721920
C87	C	1.831846	1.426986	1.055253
C88	C	1.375504	0.388447	0.388611
C89	C	1.708838	0.721780	0.721945
C90	C	2.042171	1.055113	1.055278
C91	C	1.465125	0.388454	0.388628
C92	C	1.798459	0.721787	0.721961
C93	C	2.131792	1.055120	1.055294
C94	C	1.165235	0.388377	0.598882
C95	C	1.498568	0.721711	0.932215
C96	C	1.831902	1.055044	1.265548
C97	C	1.165252	0.388355	0.688503
C98	C	1.498585	0.721688	1.021836
C99	C	1.831918	1.055021	1.355169
C100	C	1.165293	1.178122	0.388626
C101	C	1.498626	1.511455	0.721959
C102	C	1.831959	1.844788	1.055292
C103	C	1.165317	1.088500	0.388672
C104	C	1.498650	1.421834	0.722006
C105	C	1.831983	1.755167	1.055339
C106	C	1.165202	0.388425	0.179082
C107	C	1.498536	0.721759	0.512415
C108	C	1.831869	1.055092	0.845748
C109	C	1.165342	0.388221	0.089461
C110	C	1.498675	0.721554	0.422794
C111	C	1.832008	1.054888	0.756128
C112	C	1.165265	0.388337	0.761285
C113	C	1.498598	0.721670	1.094619
C114	C	1.831932	1.055003	1.427952
C115	C	1.165284	0.388307	0.852594
C116	C	1.498617	0.721640	1.185927
C117	C	1.831950	1.054973	1.519260
C118	C	1.165303	0.388278	0.925370
C119	C	1.498636	0.721612	1.258704
C120	C	1.831969	1.054945	1.592037
C121	C	1.165323	0.388249	1.016685
C122	C	1.498656	0.721583	1.350018
C123	C	1.831989	1.054916	1.683351
