data_functionalizedCrystal
_audit_creation_method	'MofGen! by Chris Wilmer'
_symmetry_space_group_name_H-M	'P1'
_symmetry_Int_Tables_number	1
_symmetry_cell_setting	triclinic
loop_
_symmetry_equiv_pos_as_xyz
  x,y,z
_cell_length_a	18.215407
_cell_length_b	19.077068
_cell_length_c	18.215399
_cell_angle_alpha	92.268164
_cell_angle_beta	89.980167
_cell_angle_gamma	92.327501
loop_
_atom_site_label
_atom_site_type_symbol
_atom_site_fract_x
_atom_site_fract_y
_atom_site_fract_z
Zn1	Zn	1.113288	-0.280200	-0.427869
Zn2	Zn	1.446621	0.053133	-0.094535
Zn3	Zn	1.779955	0.386466	0.238798
Zn4	Zn	1.108246	-0.397902	-0.309739
Zn5	Zn	1.441580	-0.064569	0.023594
Zn6	Zn	1.774913	0.268765	0.356927
Zn7	Zn	0.990220	-0.280223	-0.304817
Zn8	Zn	1.323553	0.053110	0.028516
Zn9	Zn	1.656886	0.386443	0.361850
Zn10	Zn	0.985238	-0.397863	-0.432763
Zn11	Zn	1.318571	-0.064530	-0.099429
Zn12	Zn	1.651905	0.268804	0.233904
O13	O	1.049248	-0.339047	-0.368797
O14	O	1.382581	-0.005714	-0.035464
O15	O	1.715915	0.327619	0.297870
O16	O	1.215603	-0.295821	-0.412210
O17	O	1.548936	0.037513	-0.078877
O18	O	1.882270	0.370846	0.254456
O19	O	1.092565	-0.382318	-0.206103
O20	O	1.425898	-0.048984	0.127230
O21	O	1.759231	0.284349	0.460564
O22	O	1.010740	-0.181729	-0.317032
O23	O	1.344073	0.151604	0.016301
O24	O	1.677406	0.484937	0.349635
O25	O	1.211899	-0.382295	-0.325421
O26	O	1.545232	-0.048962	0.007912
O27	O	1.878566	0.284371	0.341245
O28	O	1.101157	-0.181712	-0.407437
O29	O	1.434491	0.151621	-0.074104
O30	O	1.767824	0.484954	0.259229
O31	O	1.005851	-0.295860	-0.202487
O32	O	1.339184	0.037474	0.130847
O33	O	1.672518	0.370807	0.464180
O34	O	0.886575	-0.295822	-0.321777
O35	O	1.219908	0.037512	0.011556
O36	O	1.553241	0.370845	0.344889
O37	O	1.002249	-0.382229	-0.535097
O38	O	1.335583	-0.048895	-0.201763
O39	O	1.668916	0.284438	0.131570
O40	O	0.882915	-0.382251	-0.415778
O41	O	1.216248	-0.048918	-0.082445
O42	O	1.549582	0.284416	0.250888
O43	O	1.096327	-0.295783	-0.531501
O44	O	1.429660	0.037551	-0.198168
O45	O	1.762994	0.370884	0.135166
O46	O	1.087734	-0.496388	-0.330167
O47	O	1.421068	-0.163055	0.003167
O48	O	1.754401	0.170279	0.336500
O49	O	0.997361	-0.496359	-0.420551
O50	O	1.330694	-0.163026	-0.087218
O51	O	1.664027	0.170307	0.246115
C52	C	0.858042	-0.339035	-0.368775
C53	C	1.191376	-0.005702	-0.035442
C54	C	1.524709	0.327632	0.297891
C55	C	0.776243	-0.339047	-0.368784
C56	C	1.109576	-0.005714	-0.035451
C57	C	1.442909	0.327620	0.297883
C58	C	0.586159	-0.384121	-0.417674
C59	C	0.919493	-0.050788	-0.084341
C60	C	1.252826	0.282545	0.248992
C61	C	0.509301	-0.384124	-0.417684
C62	C	0.842634	-0.050790	-0.084350
C63	C	1.175967	0.282543	0.248983
C64	C	0.513088	-0.293986	-0.319936
C65	C	0.846421	0.039348	0.013397
C66	C	1.179755	0.372681	0.346731
C67	C	0.589945	-0.293980	-0.319931
C68	C	0.923279	0.039353	0.013403
C69	C	1.256612	0.372686	0.346736
C70	C	0.626479	-0.339052	-0.368799
C71	C	0.959812	-0.005719	-0.035466
C72	C	1.293146	0.327614	0.297868
C73	C	0.472763	-0.339060	-0.368814
C74	C	0.806096	-0.005726	-0.035480
C75	C	1.139429	0.327607	0.297853
C76	C	0.389429	-0.339062	-0.368823
C77	C	0.722762	-0.005728	-0.035490
C78	C	1.056096	0.327605	0.297843
C79	C	0.709818	-0.339050	-0.368791
C80	C	1.043152	-0.005716	-0.035457
C81	C	1.376485	0.327617	0.297876
C82	C	1.041480	-0.521911	-0.376440
C83	C	1.374813	-0.188578	-0.043107
C84	C	1.708146	0.144755	0.290226
C85	C	1.038224	-0.600141	-0.379735
C86	C	1.371557	-0.266808	-0.046401
C87	C	1.704891	0.066525	0.286932
C88	C	1.083783	-0.636886	-0.334263
C89	C	1.417117	-0.303552	-0.000930
C90	C	1.750450	0.029781	0.332404
C91	C	1.080725	-0.710391	-0.337366
C92	C	1.414059	-0.377058	-0.004033
C93	C	1.747392	-0.043724	0.329301
C94	C	1.032104	-0.747151	-0.385937
C95	C	1.365437	-0.413818	-0.052604
C96	C	1.698770	-0.080484	0.280729
C97	C	0.986542	-0.710401	-0.431414
C98	C	1.319875	-0.377068	-0.098081
C99	C	1.653209	-0.043735	0.235253
C100	C	0.989604	-0.636897	-0.428314
C101	C	1.322938	-0.303564	-0.094981
C102	C	1.656271	0.029769	0.238352
C103	C	1.017899	-0.966985	-0.400254
C104	C	1.351232	-0.633652	-0.066920
C105	C	1.684566	-0.300319	0.266413
C106	C	1.014839	-1.040495	-0.403348
C107	C	1.348172	-0.707161	-0.070015
C108	C	1.681505	-0.373828	0.263318
C109	C	1.109023	-1.040479	-0.309301
C110	C	1.442357	-0.707146	0.024032
C111	C	1.775690	-0.373813	0.357366
C112	C	1.112078	-0.966974	-0.306202
C113	C	1.445412	-0.633640	0.027131
C114	C	1.778745	-0.300307	0.360464
C115	C	1.066520	-0.930231	-0.351682
C116	C	1.399853	-0.596897	-0.018348
C117	C	1.733186	-0.263564	0.314985
N118	N	1.028975	-0.822285	-0.389109
N119	N	1.362308	-0.488952	-0.055775
N120	N	1.695642	-0.155619	0.277558
N121	N	1.069652	-0.855098	-0.348514
N122	N	1.402986	-0.521764	-0.015180
N123	N	1.736319	-0.188431	0.318153
C124	C	1.241200	-0.339060	-0.368819
C125	C	1.574534	-0.005726	-0.035486
C126	C	1.907867	0.327607	0.297848
C127	C	1.322999	-0.339065	-0.368828
C128	C	1.656332	-0.005732	-0.035495
C129	C	1.989666	0.327602	0.297838
C130	C	1.049295	-0.338999	-0.560748
C131	C	1.382628	-0.005665	-0.227415
C132	C	1.715962	0.327668	0.105919
C133	C	1.049315	-0.338978	-0.642546
C134	C	1.382648	-0.005645	-0.309213
C135	C	1.715981	0.327689	0.024121
C136	C	1.057067	-0.155469	-0.361140
C137	C	1.390400	0.177864	-0.027806
C138	C	1.723733	0.511198	0.305527
C139	C	1.060398	-0.077239	-0.357877
C140	C	1.393732	0.256094	-0.024543
C141	C	1.727065	0.589428	0.308790
C142	C	1.098320	-0.293923	-0.828867
C143	C	1.431653	0.039410	-0.495534
C144	C	1.764986	0.372743	-0.162201
C145	C	1.098329	-0.293903	-0.905725
C146	C	1.431663	0.039430	-0.572392
C147	C	1.764996	0.372764	-0.239058
C148	C	1.000366	-0.383924	-0.909458
C149	C	1.333700	-0.050590	-0.576125
C150	C	1.667033	0.282743	-0.242791
C151	C	1.000354	-0.383940	-0.832601
C152	C	1.333687	-0.050607	-0.499268
C153	C	1.667021	0.282726	-0.165935
C154	C	1.049335	-0.338941	-0.792308
C155	C	1.382668	-0.005608	-0.458975
C156	C	1.716001	0.327726	-0.125641
C157	C	1.049357	-0.338904	-0.946023
C158	C	1.382690	-0.005571	-0.612689
C159	C	1.716024	0.327763	-0.279356
C160	C	1.049367	-0.338882	-1.029355
C161	C	1.382700	-0.005549	-0.696022
C162	C	1.716034	0.327784	-0.362689
C163	C	1.049324	-0.338962	-0.708970
C164	C	1.382657	-0.005628	-0.375636
C165	C	1.715990	0.327705	-0.042303
C166	C	1.049246	-0.339045	-0.177591
C167	C	1.382579	-0.005711	0.155743
C168	C	1.715912	0.327622	0.489076
C169	C	1.049377	-0.338867	-0.095785
C170	C	1.382710	-0.005534	0.237549
C171	C	1.716043	0.327800	0.570882
H172	H	0.483333	-0.257291	-0.280148
H173	H	0.816666	0.076042	0.053185
H174	H	1.149999	0.409376	0.386519
H175	H	0.476476	-0.420822	-0.457484
H176	H	0.809809	-0.087489	-0.124151
H177	H	1.143142	0.245844	0.209183
O178	O	0.629004	-0.250176	-0.272379
O179	O	0.962337	0.083157	0.060954
O180	O	1.295671	0.416491	0.394288
C181	C	0.580280	-0.210387	-0.229256
C182	C	0.913613	0.122946	0.104077
C183	C	1.246947	0.456279	0.437411
H184	H	0.524268	-0.239215	-0.227864
H185	H	0.857601	0.094119	0.105469
H186	H	1.190935	0.427452	0.438802
H187	H	0.602788	-0.202809	-0.170968
H188	H	0.936121	0.130525	0.162365
H189	H	1.269455	0.463858	0.495698
H190	H	0.574385	-0.156966	-0.254063
H191	H	0.907718	0.176367	0.079270
H192	H	1.241051	0.509700	0.412604
O193	O	1.131078	-0.601289	-0.287059
O194	O	1.464412	-0.267956	0.046274
O195	O	1.797745	0.065378	0.379607
C196	C	1.170621	-0.649486	-0.247578
C197	C	1.503954	-0.316153	0.085755
C198	C	1.837288	0.017180	0.419089
H199	H	1.170971	-0.701859	-0.279934
H200	H	1.504304	-0.368526	0.053399
H201	H	1.837637	-0.035193	0.386732
H202	H	1.229495	-0.628209	-0.238882
H203	H	1.562829	-0.294875	0.094452
H204	H	1.896162	0.038458	0.427785
H205	H	1.143374	-0.657365	-0.191994
H206	H	1.476707	-0.324031	0.141340
H207	H	1.810041	0.009302	0.474673
H208	H	0.952506	-0.606981	-0.465343
H209	H	1.285839	-0.273647	-0.132010
H210	H	1.619173	0.059686	0.201324
O211	O	1.125159	-0.746062	-0.293352
O212	O	1.458492	-0.412729	0.039981
O213	O	1.791826	-0.079396	0.373314
C214	C	1.170889	-0.788450	-0.337168
C215	C	1.504222	-0.455117	-0.003835
C216	C	1.837555	-0.121783	0.329499
H217	H	1.176171	-0.766256	-0.394210
H218	H	1.509505	-0.432922	-0.060876
H219	H	1.842838	-0.099589	0.272457
H220	H	1.227563	-0.789156	-0.310743
H221	H	1.560896	-0.455822	0.022591
H222	H	1.894230	-0.122489	0.355924
H223	H	1.145911	-0.844213	-0.341982
H224	H	1.479244	-0.510880	-0.008649
H225	H	1.812578	-0.177547	0.324684
O226	O	1.145919	-0.250142	-0.789836
O227	O	1.479253	0.083191	-0.456503
O228	O	1.812586	0.416524	-0.123170
C229	C	1.189168	-0.210416	-0.838590
C230	C	1.522501	0.122917	-0.505257
C231	C	1.855834	0.456251	-0.171924
H232	H	1.159136	-0.207969	-0.893269
H233	H	1.492469	0.125365	-0.559935
H234	H	1.825802	0.458698	-0.226602
H235	H	1.199372	-0.154967	-0.814076
H236	H	1.532706	0.178367	-0.480742
H237	H	1.866039	0.511700	-0.147409
H238	H	1.243966	-0.236188	-0.847849
H239	H	1.577299	0.097145	-0.514516
H240	H	1.910633	0.430479	-0.181183
O241	O	1.145812	-0.250096	-0.941266
O242	O	1.479145	0.083237	-0.607933
O243	O	1.812478	0.416571	-0.274599
C244	C	1.105854	-0.204635	-0.983830
C245	C	1.439187	0.128699	-0.650496
C246	C	1.772520	0.462032	-0.317163
H247	H	1.048073	-0.200294	-0.960475
H248	H	1.381406	0.133039	-0.627142
H249	H	1.714740	0.466373	-0.293809
H250	H	1.134774	-0.150470	-0.982444
H251	H	1.468108	0.182864	-0.649110
H252	H	1.801441	0.516197	-0.315777
H253	H	1.102403	-0.226377	-1.042986
H254	H	1.435736	0.106956	-0.709653
H255	H	1.769070	0.440289	-0.376320
H256	H	1.151670	-0.937045	-0.266652
H257	H	1.485003	-0.603712	0.066682
H258	H	1.818337	-0.270379	0.400015
H259	H	1.146116	-1.070403	-0.272275
H260	H	1.479449	-0.737070	0.061058
H261	H	1.812782	-0.403737	0.394391
O262	O	0.621620	-0.427822	-0.465251
O263	O	0.954953	-0.094489	-0.131917
O264	O	1.288286	0.238845	0.201416
C265	C	0.603503	-0.412536	-0.537984
C266	C	0.936836	-0.079203	-0.204651
C267	C	1.270169	0.254130	0.128683
H268	H	0.584763	-0.356315	-0.539441
H269	H	0.918096	-0.022981	-0.206108
H270	H	1.251430	0.310352	0.127225
H271	H	0.653802	-0.418637	-0.574585
H272	H	0.987136	-0.085304	-0.241252
H273	H	1.320469	0.248029	0.092081
H274	H	0.557295	-0.450295	-0.558740
H275	H	0.890628	-0.116962	-0.225407
H276	H	1.223961	0.216371	0.107926
O277	O	0.967591	-1.076096	-0.450603
O278	O	1.300924	-0.742762	-0.117270
O279	O	1.634257	-0.409429	0.216063
C280	C	0.928024	-1.027905	-0.490070
C281	C	1.261358	-0.694571	-0.156736
C282	C	1.594691	-0.361238	0.176597
H283	H	0.960348	-0.975482	-0.490435
H284	H	1.293681	-0.642148	-0.157102
H285	H	1.627015	-0.308815	0.176232
H286	H	0.919266	-1.049114	-0.548940
H287	H	1.252599	-0.715781	-0.215606
H288	H	1.585932	-0.382447	0.117727
H289	H	0.872466	-1.020150	-0.462749
H290	H	1.205800	-0.686817	-0.129416
H291	H	1.539133	-0.353483	0.203917
O292	O	0.973744	-0.931272	-0.444503
O293	O	1.307077	-0.597938	-0.111170
O294	O	1.640411	-0.264605	0.222163
C295	C	1.017381	-0.888677	-0.490274
C296	C	1.350715	-0.555343	-0.156941
C297	C	1.684048	-0.222010	0.176392
H298	H	1.074422	-0.910773	-0.495806
H299	H	1.407756	-0.577440	-0.162473
H300	H	1.741089	-0.244107	0.170860
H301	H	0.990763	-0.887835	-0.546848
H302	H	1.324096	-0.554502	-0.213515
H303	H	1.657430	-0.221169	0.119818
H304	H	1.022244	-0.832980	-0.465181
H305	H	1.355578	-0.499646	-0.131848
H306	H	1.688911	-0.166313	0.201486
O307	O	0.939329	-0.746216	-0.478532
O308	O	1.272663	-0.412883	-0.145199
O309	O	1.605996	-0.079550	0.188135
C310	C	0.946406	-0.818973	-0.471530
C311	C	1.279739	-0.485640	-0.138197
C312	C	1.613073	-0.152306	0.195137
H313	H	0.970122	-0.829031	-0.415182
H314	H	1.303456	-0.495698	-0.081849
H315	H	1.636789	-0.162364	0.251485
H316	H	0.890112	-0.846947	-0.477649
H317	H	1.223446	-0.513613	-0.144316
H318	H	1.556779	-0.180280	0.189017
H319	H	0.984704	-0.839774	-0.516095
H320	H	1.318037	-0.506440	-0.182762
H321	H	1.651370	-0.173107	0.150571
H322	H	0.960490	-0.420562	-0.942274
H323	H	1.293823	-0.087229	-0.608941
H324	H	1.627156	0.246105	-0.275608
H325	H	0.960459	-0.420598	-0.802834
H326	H	1.293792	-0.087265	-0.469501
H327	H	1.627126	0.246068	-0.136167
