data_functionalizedCrystal
_audit_creation_method	'MofGen! by Chris Wilmer'
_symmetry_space_group_name_H-M	'P1'
_symmetry_Int_Tables_number	1
_symmetry_cell_setting	triclinic
loop_
_symmetry_equiv_pos_as_xyz
  x,y,z
_cell_length_a	25.639239
_cell_length_b	25.639242
_cell_length_c	16.625539
_cell_angle_alpha	90.030785
_cell_angle_beta	89.968745
_cell_angle_gamma	89.966288
loop_
_atom_site_label
_atom_site_type_symbol
_atom_site_fract_x
_atom_site_fract_y
_atom_site_fract_z
Zn1	Zn	-0.208219	-0.799262	-0.456113
Zn2	Zn	0.291781	-0.299262	0.043887
Zn3	Zn	-0.295657	-0.799175	-0.321273
Zn4	Zn	0.204343	-0.299175	0.178727
Zn5	Zn	-0.208230	-0.711828	-0.321269
Zn6	Zn	0.291770	-0.211828	0.178731
Zn7	Zn	-0.295618	-0.711784	-0.456039
Zn8	Zn	0.204382	-0.211784	0.043961
O9	O	-0.251931	-0.755512	-0.388673
O10	O	0.248069	-0.255512	0.111327
O11	O	-0.219830	-0.872416	-0.438258
O12	O	0.280170	-0.372416	0.061742
O13	O	-0.284081	-0.787570	-0.208440
O14	O	0.215919	-0.287570	0.291560
O15	O	-0.135063	-0.723481	-0.339186
O16	O	0.364937	-0.223481	0.160814
O17	O	-0.284070	-0.872351	-0.339192
O18	O	0.215930	-0.372351	0.160808
O19	O	-0.135055	-0.787719	-0.438255
O20	O	0.364945	-0.287719	0.061745
O21	O	-0.219848	-0.723396	-0.208437
O22	O	0.280152	-0.223396	0.291563
O23	O	-0.219810	-0.638657	-0.339114
O24	O	0.280190	-0.138657	0.160886
O25	O	-0.284003	-0.723406	-0.568881
O26	O	0.215997	-0.223406	-0.068881
O27	O	-0.284014	-0.638624	-0.438129
O28	O	0.215986	-0.138624	0.061871
O29	O	-0.219792	-0.787676	-0.568935
O30	O	0.280208	-0.287676	-0.068935
O31	O	-0.368817	-0.787527	-0.339120
O32	O	0.131183	-0.287527	0.160880
O33	O	-0.368788	-0.723321	-0.438132
O34	O	0.131212	-0.223321	0.061868
C35	C	-0.251909	-0.619669	-0.388613
C36	C	0.248091	-0.119669	0.111387
C37	C	-0.251912	-0.561555	-0.388607
C38	C	0.248088	-0.061555	0.111393
C39	C	-0.285413	-0.201184	-0.440160
C40	C	0.214587	0.298816	0.059840
C41	C	-0.285416	-0.146580	-0.440171
C42	C	0.214584	0.353420	0.059829
O43	O	-0.313876	-0.118337	-0.483967
O44	O	0.186124	0.381663	0.016033
N45	N	-0.251940	-0.119273	-0.388701
N46	N	0.248060	0.380727	0.111299
C47	C	-0.218455	-0.146573	-0.337224
C48	C	0.281545	0.353427	0.162776
O49	O	-0.189982	-0.118332	-0.293447
O50	O	0.310018	0.381668	0.206553
C51	C	-0.218450	-0.201176	-0.337218
C52	C	0.281550	0.298824	0.162782
C53	C	-0.251932	-0.228481	-0.388685
C54	C	0.248068	0.271519	0.111315
C55	C	-0.318891	-0.228489	-0.491623
C56	C	0.181109	0.271511	0.008377
C57	C	-0.318889	-0.283089	-0.491611
C58	C	0.181111	0.216911	0.008389
C59	C	-0.285408	-0.310386	-0.440136
C60	C	0.214592	0.189614	0.059864
C61	C	-0.251930	-0.283081	-0.388673
C62	C	0.248070	0.216919	0.111327
C63	C	-0.184964	-0.228475	-0.285745
C64	C	0.315036	0.271525	0.214255
C65	C	-0.184962	-0.283082	-0.285744
C66	C	0.315038	0.216918	0.214256
C67	C	-0.218443	-0.310387	-0.337211
C68	C	0.281557	0.189613	0.162789
C69	C	-0.218447	-0.364978	-0.337186
C70	C	0.281553	0.135022	0.162814
N71	N	-0.251923	-0.392285	-0.388655
N72	N	0.248077	0.107715	0.111345
C73	C	-0.285404	-0.364989	-0.440130
C74	C	0.214596	0.135011	0.059870
C75	C	-0.218468	-0.031902	-0.337241
C76	C	0.281532	0.468098	0.162759
C77	C	-0.218475	0.022700	-0.337243
C78	C	0.281525	0.522700	0.162757
C79	C	-0.285435	0.022689	-0.440191
C80	C	0.214565	0.522689	0.059809
C81	C	-0.285430	-0.031914	-0.440185
C82	C	0.214570	0.468086	0.059815
C83	C	-0.251944	-0.059209	-0.388711
C84	C	0.248056	0.440791	0.111289
C85	C	-0.285397	-0.479654	-0.440101
C86	C	0.214603	0.020346	0.059899
C87	C	-0.285393	-0.534259	-0.440082
C88	C	0.214607	-0.034259	0.059918
C89	C	-0.218432	-0.534244	-0.337137
C90	C	0.281568	-0.034244	0.162863
C91	C	-0.218437	-0.479643	-0.337153
C92	C	0.281563	0.020357	0.162847
C93	C	-0.251921	-0.452349	-0.388641
C94	C	0.248079	0.047651	0.111359
O95	O	-0.190000	-0.393256	-0.293414
O96	O	0.310000	0.106744	0.206586
O97	O	-0.313868	-0.393236	-0.483907
O98	O	0.186132	0.106764	0.016093
C99	C	-0.387774	-0.755424	-0.388636
C100	C	0.112226	-0.255424	0.111364
C101	C	-0.445888	-0.755434	-0.388647
C102	C	0.054112	-0.255434	0.111353
C103	C	-0.806253	-0.789031	-0.337206
C104	C	-0.306253	-0.289031	0.162794
C105	C	-0.860857	-0.789051	-0.337216
C106	C	-0.360857	-0.289051	0.162784
O107	O	-0.889096	-0.817526	-0.293438
O108	O	-0.389096	-0.317526	0.206562
N109	N	-0.888170	-0.755604	-0.388727
N110	N	-0.388170	-0.255604	0.111273
C111	C	-0.860876	-0.722138	-0.440235
C112	C	-0.360876	-0.222138	0.059765
O113	O	-0.889121	-0.693690	-0.484050
O114	O	-0.389121	-0.193690	0.015950
C115	C	-0.806272	-0.722120	-0.440228
C116	C	-0.306272	-0.222120	0.059772
C117	C	-0.778962	-0.755566	-0.388709
C118	C	-0.278962	-0.255566	0.111291
C119	C	-0.778943	-0.822475	-0.285691
C120	C	-0.278943	-0.322475	0.214309
C121	C	-0.724343	-0.822454	-0.285679
C122	C	-0.224343	-0.322454	0.214321
C123	C	-0.697052	-0.788989	-0.337182
C124	C	-0.197052	-0.288989	0.162818
C125	C	-0.724362	-0.755545	-0.388697
C126	C	-0.224362	-0.255545	0.111303
C127	C	-0.778979	-0.688657	-0.491740
C128	C	-0.278979	-0.188657	0.008260
C129	C	-0.724372	-0.688643	-0.491729
C130	C	-0.224372	-0.188643	0.008271
C131	C	-0.697062	-0.722089	-0.440209
C132	C	-0.197062	-0.222089	0.059791
C133	C	-0.642471	-0.722059	-0.440188
C134	C	-0.142471	-0.222059	0.059812
N135	N	-0.615158	-0.755507	-0.388678
N136	N	-0.115158	-0.255507	0.111322
C137	C	-0.642449	-0.788972	-0.337175
C138	C	-0.142449	-0.288972	0.162825
C139	C	-0.975546	-0.722177	-0.440248
C140	C	-0.475546	-0.222177	0.059752
C141	C	-1.030148	-0.722191	-0.440252
C142	C	-0.530148	-0.222191	0.059748
C143	C	-1.030127	-0.789106	-0.337234
C144	C	-0.530127	-0.289106	0.162766
C145	C	-0.975523	-0.789089	-0.337226
C146	C	-0.475523	-0.289089	0.162774
C147	C	-0.948233	-0.755625	-0.388737
C148	C	-0.448233	-0.255625	0.111263
C149	C	-0.527784	-0.788925	-0.337154
C150	C	-0.027784	-0.288925	0.162846
C151	C	-0.473178	-0.788899	-0.337145
C152	C	0.026822	-0.288899	0.162855
C153	C	-0.473205	-0.721987	-0.440165
C154	C	0.026795	-0.221987	0.059835
C155	C	-0.527806	-0.722010	-0.440172
C156	C	-0.027806	-0.222010	0.059828
C157	C	-0.555094	-0.755483	-0.388664
C158	C	-0.055094	-0.255483	0.111336
O159	O	-0.614197	-0.693601	-0.483946
O160	O	-0.114197	-0.193601	0.016054
O161	O	-0.614196	-0.817419	-0.293375
O162	O	-0.114196	-0.317419	0.206625
C163	C	-0.115558	-0.755615	-0.388728
C164	C	0.384442	-0.255615	0.111272
C165	C	-0.057444	-0.755658	-0.388751
C166	C	0.442556	-0.255658	0.111249
C167	C	-0.251892	-0.755546	-0.598982
C168	C	0.248108	-0.255546	-0.098982
C169	C	-0.251875	-0.755561	-0.688603
C170	C	0.248125	-0.255561	-0.188603
C171	C	-0.251951	0.108115	-0.388724
C172	C	0.248049	0.608115	0.111276
C173	C	-0.251954	0.050001	-0.388721
C174	C	0.248046	0.550001	0.111279
C175	C	-0.251817	-0.755585	-1.016779
C176	C	0.248183	-0.255585	-0.516779
C177	C	-0.251835	-0.755576	-0.925471
C178	C	0.248165	-0.255576	-0.425471
C179	C	-0.251847	-0.755573	-0.852694
C180	C	0.248153	-0.255573	-0.352694
C181	C	-0.251864	-0.755564	-0.761380
C182	C	0.248136	-0.255564	-0.261380
C183	C	-0.251932	-0.755508	-0.179182
C184	C	0.248068	-0.255508	0.320818
C185	C	-0.251801	-0.755595	-0.089562
C186	C	0.248199	-0.255595	0.410438
H187	H	-0.157701	-0.206253	-0.243833
H188	H	0.342299	0.293747	0.256167
C189	C	-1.060186	-0.685398	-0.496916
C190	C	-0.560186	-0.185398	0.003084
H191	H	-1.096615	-0.690197	-0.489549
H192	H	-0.596615	-0.190197	0.010451
H193	H	-1.051203	-0.693027	-0.551101
H194	H	-0.551203	-0.193027	-0.051101
H195	H	-1.051274	-0.650268	-0.485048
H196	H	-0.551274	-0.150268	0.014952
C197	C	-0.694354	-0.651832	-0.548390
C198	C	-0.194354	-0.151832	-0.048390
H199	H	-0.657922	-0.656610	-0.541014
H200	H	-0.157922	-0.156610	-0.041014
H201	H	-0.703342	-0.616710	-0.536537
H202	H	-0.203342	-0.116710	-0.036537
H203	H	-0.703273	-0.659474	-0.602581
H204	H	-0.203273	-0.159474	-0.102581
C205	C	-0.181637	-0.061922	-0.280607
C206	C	0.318363	0.438078	0.219393
H207	H	-0.161706	-0.037835	-0.249953
H208	H	0.338294	0.462165	0.250047
H209	H	-0.158877	-0.083248	-0.311504
H210	H	0.341123	0.416752	0.188496
H211	H	-0.201610	-0.083197	-0.245411
H212	H	0.298390	0.416803	0.254589
H213	H	-0.157689	-0.305303	-0.243832
H214	H	0.342311	0.194697	0.256168
H215	H	-0.312695	0.044924	-0.482107
H216	H	0.187305	0.544924	0.017893
C217	C	-0.181649	0.052729	-0.280624
C218	C	0.318351	0.552729	0.219376
H219	H	-0.161708	0.028647	-0.249973
H220	H	0.338292	0.528647	0.250027
H221	H	-0.201618	0.074057	-0.245438
H222	H	0.298382	0.574057	0.254562
H223	H	-0.158890	0.074002	-0.311540
H224	H	0.341110	0.574002	0.188460
H225	H	-0.702110	-0.849690	-0.243730
H226	H	-0.202110	-0.349690	0.256270
C227	C	-0.181610	-0.449607	-0.280539
C228	C	0.318390	0.050393	0.219461
H229	H	-0.161669	-0.473686	-0.249883
H230	H	0.338331	0.026314	0.250117
H231	H	-0.201578	-0.428276	-0.245356
H232	H	0.298422	0.071724	0.254644
H233	H	-0.158852	-0.428337	-0.311460
H234	H	0.341148	0.071663	0.188540
C235	C	-0.443181	-0.685182	-0.496824
C236	C	0.056819	-0.185182	0.003176
H237	H	-0.467263	-0.665264	-0.527508
H238	H	0.032737	-0.165264	-0.027508
H239	H	-0.421848	-0.705171	-0.531977
H240	H	0.078152	-0.205171	-0.031977
H241	H	-0.421913	-0.662402	-0.465939
H242	H	0.078087	-0.162402	0.034061
C243	C	-0.355727	-0.313120	-0.548210
C244	C	0.144273	0.186880	-0.048210
H245	H	-0.350941	-0.349550	-0.540831
H246	H	0.149059	0.150450	-0.040831
H247	H	-0.348130	-0.304200	-0.602412
H248	H	0.151870	0.195800	-0.102412
H249	H	-0.390844	-0.304139	-0.536290
H250	H	0.109156	0.195861	-0.036290
C251	C	-0.808955	-0.859286	-0.229028
C252	C	-0.308955	-0.359286	0.270972
H253	H	-0.784862	-0.879196	-0.198348
H254	H	-0.284862	-0.379196	0.301652
H255	H	-0.830224	-0.882067	-0.259901
H256	H	-0.330224	-0.382067	0.240099
H257	H	-0.830284	-0.839302	-0.193859
H258	H	-0.330284	-0.339302	0.306141
C259	C	-0.945532	-0.685358	-0.496904
C260	C	-0.445532	-0.185358	0.003096
H261	H	-0.969622	-0.665439	-0.527574
H262	H	-0.469622	-0.165439	-0.027574
H263	H	-0.924197	-0.705334	-0.532071
H264	H	-0.424197	-0.205334	-0.032071
H265	H	-0.924267	-0.662578	-0.466014
H266	H	-0.424267	-0.162578	0.033986
H267	H	-0.346155	-0.206270	-0.533545
H268	H	0.153845	0.293730	-0.033545
H269	H	-0.191174	-0.556478	-0.295225
H270	H	0.308826	-0.056478	0.204775
C271	C	-0.443140	-0.825694	-0.280475
C272	C	0.056860	-0.325694	0.219525
H273	H	-0.467217	-0.845630	-0.249811
H274	H	0.032783	-0.345630	0.250189
H275	H	-0.421874	-0.805701	-0.245302
H276	H	0.078126	-0.305701	0.254698
H277	H	-0.421806	-0.848458	-0.311358
H278	H	0.078194	-0.348458	0.188642
H279	H	-0.549995	-0.816183	-0.295213
H280	H	-0.049995	-0.316183	0.204787
C281	C	-0.945487	-0.825883	-0.280562
C282	C	-0.445487	-0.325883	0.219438
H283	H	-0.969566	-0.845816	-0.249896
H284	H	-0.469566	-0.345816	0.250104
H285	H	-0.924217	-0.805893	-0.245392
H286	H	-0.424217	-0.305893	0.254608
H287	H	-0.924156	-0.848650	-0.311447
H288	H	-0.424156	-0.348650	0.188553
H289	H	-0.801205	-0.661419	-0.533689
H290	H	-0.301205	-0.161419	-0.033689
C291	C	-1.060153	-0.825916	-0.280578
C292	C	-0.560153	-0.325916	0.219422
H293	H	-1.096584	-0.821135	-0.287969
H294	H	-0.596584	-0.321135	0.212031
H295	H	-1.051236	-0.818280	-0.226389
H296	H	-0.551236	-0.318280	0.273611
H297	H	-1.051171	-0.861041	-0.292438
H298	H	-0.551171	-0.361041	0.207562
H299	H	-0.550042	-0.694777	-0.482126
H300	H	-0.050042	-0.194777	0.017874
H301	H	-0.312662	-0.457438	-0.482029
H302	H	0.187338	0.042562	0.017971
C303	C	-0.322229	-0.564294	-0.496688
C304	C	0.177771	-0.064294	0.003312
H305	H	-0.317440	-0.600723	-0.489304
H306	H	0.182560	-0.100723	0.010696
H307	H	-0.314629	-0.555375	-0.550889
H308	H	0.185371	-0.055375	-0.050889
H309	H	-0.357348	-0.555315	-0.484775
H310	H	0.142652	-0.055315	0.015225
C311	C	-0.322255	-0.061944	-0.496804
C312	C	0.177745	0.438056	0.003196
H313	H	-0.342191	-0.037862	-0.527462
H314	H	0.157809	0.462138	-0.027462
H315	H	-0.345009	-0.083224	-0.465900
H316	H	0.154991	0.416776	0.034100
H317	H	-0.302278	-0.083266	-0.531996
H318	H	0.197722	0.416734	-0.031996
