data_functionalizedCrystal
_audit_creation_method	'MofGen! by Chris Wilmer'
_symmetry_space_group_name_H-M	'P1'
_symmetry_Int_Tables_number	1
_symmetry_cell_setting	triclinic
loop_
_symmetry_equiv_pos_as_xyz
  x,y,z
_cell_length_a	18.215407
_cell_length_b	19.077068
_cell_length_c	18.215399
_cell_angle_alpha	92.268164
_cell_angle_beta	89.980167
_cell_angle_gamma	92.327501
loop_
_atom_site_label
_atom_site_type_symbol
_atom_site_fract_x
_atom_site_fract_y
_atom_site_fract_z
Zn1	Zn	1.113288	-0.280200	-0.427869
Zn2	Zn	1.108246	-0.397902	-0.309739
Zn3	Zn	0.990220	-0.280223	-0.304817
Zn4	Zn	0.985238	-0.397863	-0.432763
O5	O	1.049248	-0.339047	-0.368797
O6	O	1.215603	-0.295821	-0.412210
O7	O	1.092565	-0.382318	-0.206103
O8	O	1.010740	-0.181729	-0.317032
O9	O	1.211899	-0.382295	-0.325421
O10	O	1.101157	-0.181712	-0.407437
O11	O	1.005851	-0.295860	-0.202487
O12	O	0.886575	-0.295822	-0.321777
O13	O	1.002249	-0.382229	-0.535097
O14	O	0.882915	-0.382251	-0.415778
O15	O	1.096327	-0.295783	-0.531501
O16	O	1.087734	-0.496388	-0.330167
O17	O	0.997361	-0.496359	-0.420551
C18	C	0.858042	-0.339035	-0.368775
C19	C	0.776243	-0.339047	-0.368784
C20	C	0.586159	-0.384121	-0.417674
C21	C	0.509301	-0.384124	-0.417684
C22	C	0.513088	-0.293986	-0.319936
C23	C	0.589945	-0.293980	-0.319931
C24	C	0.626479	-0.339052	-0.368799
C25	C	0.472763	-0.339060	-0.368814
C26	C	0.389429	-0.339062	-0.368823
C27	C	0.709818	-0.339050	-0.368791
C28	C	1.041480	-0.521911	-0.376440
C29	C	1.038224	-0.600141	-0.379735
C30	C	1.083783	-0.636886	-0.334263
C31	C	1.080725	-0.710391	-0.337366
C32	C	1.032104	-0.747151	-0.385937
C33	C	0.986542	-0.710401	-0.431414
C34	C	0.989604	-0.636897	-0.428314
C35	C	1.017899	-0.966985	-0.400254
C36	C	1.014839	-1.040495	-0.403348
C37	C	1.109023	-1.040479	-0.309301
C38	C	1.112078	-0.966974	-0.306202
C39	C	1.066520	-0.930231	-0.351682
N40	N	1.028975	-0.822285	-0.389109
N41	N	1.069652	-0.855098	-0.348514
C42	C	1.241200	-0.339060	-0.368819
C43	C	1.322999	-0.339065	-0.368828
C44	C	1.049295	-0.338999	-0.560748
C45	C	1.049315	-0.338978	-0.642546
C46	C	1.057067	-0.155469	-0.361140
C47	C	1.060398	-0.077239	-0.357877
C48	C	1.098320	-0.293923	-0.828867
C49	C	1.098329	-0.293903	-0.905725
C50	C	1.000366	-0.383924	-0.909458
C51	C	1.000354	-0.383940	-0.832601
C52	C	1.049335	-0.338941	-0.792308
C53	C	1.049357	-0.338904	-0.946023
C54	C	1.049367	-0.338882	-1.029355
C55	C	1.049324	-0.338962	-0.708970
C56	C	1.049246	-0.339045	-0.177591
C57	C	1.049377	-0.338867	-0.095785
H58	H	0.483333	-0.257291	-0.280148
H59	H	0.476476	-0.420822	-0.457484
O60	O	0.629004	-0.250176	-0.272379
C61	C	0.580280	-0.210387	-0.229256
H62	H	0.524268	-0.239215	-0.227864
H63	H	0.602788	-0.202809	-0.170968
H64	H	0.574385	-0.156966	-0.254063
O65	O	1.131078	-0.601289	-0.287059
C66	C	1.170621	-0.649486	-0.247578
H67	H	1.170971	-0.701859	-0.279934
H68	H	1.229495	-0.628209	-0.238882
H69	H	1.143374	-0.657365	-0.191994
H70	H	0.952506	-0.606981	-0.465343
O71	O	1.125159	-0.746062	-0.293352
C72	C	1.170889	-0.788450	-0.337168
H73	H	1.176171	-0.766256	-0.394210
H74	H	1.227563	-0.789156	-0.310743
H75	H	1.145911	-0.844213	-0.341982
O76	O	1.145919	-0.250142	-0.789836
C77	C	1.189168	-0.210416	-0.838590
H78	H	1.159136	-0.207969	-0.893269
H79	H	1.199372	-0.154967	-0.814076
H80	H	1.243966	-0.236188	-0.847849
O81	O	1.145812	-0.250096	-0.941266
C82	C	1.105854	-0.204635	-0.983830
H83	H	1.048073	-0.200294	-0.960475
H84	H	1.134774	-0.150470	-0.982444
H85	H	1.102403	-0.226377	-1.042986
H86	H	1.151670	-0.937045	-0.266652
H87	H	1.146116	-1.070403	-0.272275
O88	O	0.621620	-0.427822	-0.465251
C89	C	0.603503	-0.412536	-0.537984
H90	H	0.584763	-0.356315	-0.539441
H91	H	0.653802	-0.418637	-0.574585
H92	H	0.557295	-0.450295	-0.558740
O93	O	0.967591	-1.076096	-0.450603
C94	C	0.928024	-1.027905	-0.490070
H95	H	0.960348	-0.975482	-0.490435
H96	H	0.919266	-1.049114	-0.548940
H97	H	0.872466	-1.020150	-0.462749
O98	O	0.973744	-0.931272	-0.444503
C99	C	1.017381	-0.888677	-0.490274
H100	H	1.074422	-0.910773	-0.495806
H101	H	0.990763	-0.887835	-0.546848
H102	H	1.022244	-0.832980	-0.465181
O103	O	0.939329	-0.746216	-0.478532
C104	C	0.946406	-0.818973	-0.471530
H105	H	0.970122	-0.829031	-0.415182
H106	H	0.890112	-0.846947	-0.477649
H107	H	0.984704	-0.839774	-0.516095
H108	H	0.960490	-0.420562	-0.942274
H109	H	0.960459	-0.420598	-0.802834
