data_functionalizedCrystal
_audit_creation_method	'MofGen! by Chris Wilmer'
_symmetry_space_group_name_H-M	'P1'
_symmetry_Int_Tables_number	1
_symmetry_cell_setting	triclinic
loop_
_symmetry_equiv_pos_as_xyz
  x,y,z
_cell_length_a	27.731994
_cell_length_b	10.967953
_cell_length_c	10.065875
_cell_angle_alpha	110.815185
_cell_angle_beta	81.334547
_cell_angle_gamma	83.686932
loop_
_atom_site_label
_atom_site_type_symbol
_atom_site_fract_x
_atom_site_fract_y
_atom_site_fract_z
O1	O	0.646902	0.134856	-0.081578
O2	O	0.505906	0.158395	-0.076086
O3	O	0.582396	-0.042318	-0.123263
O4	O	0.570413	0.335569	-0.034401
O5	O	0.567808	-0.003892	0.112757
O6	O	0.491319	0.196820	0.159934
O7	O	0.632315	0.173282	0.154443
Zn8	Zn	0.559501	0.191152	0.194662
Zn9	Zn	0.578720	0.140525	-0.116305
O10	O	0.555826	0.373995	0.201620
C11	C	0.575333	-0.071435	-0.016621
C12	C	0.576014	-0.215444	-0.050495
C13	C	0.480610	0.177123	0.041804
C14	C	0.426967	0.175665	0.041444
C15	C	0.569462	-0.408579	0.021677
C16	C	0.568759	-0.259740	0.056683
C17	C	0.086372	0.187452	0.167998
C18	C	-0.115239	0.181921	0.166713
O19	O	-0.148068	0.198963	0.275947
N20	N	-0.132497	0.160288	0.037896
C21	C	-0.099347	0.140028	-0.090610
O22	O	-0.118651	0.121487	-0.200208
C23	C	0.102264	0.145549	-0.089325
C24	C	0.119518	0.167197	0.039502
C25	C	0.103627	0.209096	0.296815
C26	C	0.154026	0.210486	0.297136
C27	C	0.187171	0.190231	0.168641
C28	C	0.169917	0.168586	0.039824
C29	C	0.135413	0.125280	-0.217832
C30	C	0.185819	0.126659	-0.217500
C31	C	0.203072	0.148307	-0.088673
C32	C	0.253462	0.149721	-0.088350
N33	N	0.270719	0.171354	0.040467
C34	C	0.237574	0.191609	0.168962
C35	C	-0.205197	0.137133	-0.091274
C36	C	-0.255600	0.135755	-0.091595
C37	C	-0.271488	0.177646	0.165727
C38	C	-0.221085	0.179033	0.166049
C39	C	-0.187939	0.158766	0.037542
C40	C	0.343417	0.194526	0.169628
C41	C	0.393822	0.195920	0.169939
C42	C	0.409706	0.154022	-0.087384
C43	C	0.359306	0.152635	-0.087694
C44	C	0.326162	0.172885	0.040822
O45	O	0.286319	0.132674	-0.197530
O46	O	0.256889	0.210118	0.278538
C47	C	0.035973	0.186062	0.167676
C48	C	0.018718	0.164418	0.038859
C49	C	0.051864	0.144163	-0.089636
C50	C	-0.031684	0.163040	0.038538
C51	C	-0.064830	0.183295	0.167034
C52	C	-0.047572	0.204928	0.295850
C53	C	0.002827	0.206317	0.296172
C54	C	0.034606	0.122530	-0.218452
C55	C	-0.015794	0.121144	-0.218763
C56	C	-0.048939	0.141399	-0.090268
C57	C	0.657612	0.154553	0.036549
C58	C	0.711255	0.156010	0.036900
C59	C	0.562889	0.403111	0.094975
C60	C	0.562208	0.547118	0.128840
N61	N	0.546388	0.225703	0.406889
N62	N	0.591837	0.105963	-0.328534
C63	C	0.574155	0.152538	0.457470
C64	C	0.564066	0.179139	0.620890
H65	H	0.562031	-0.187484	0.174353
N66	N	0.171652	0.232549	0.428717
N67	N	0.203497	0.146493	0.436080
H68	H	0.215944	0.162066	0.529012
N69	N	0.553761	-0.362223	0.276443
N70	N	0.517442	-0.269370	0.325768
H71	H	0.511475	-0.205341	0.430016
N72	N	0.524864	0.282414	0.718317
N73	N	0.490175	0.255480	0.791745
H74	H	0.462488	0.328415	0.860554
N75	N	0.411446	0.218002	0.301534
N76	N	0.443294	0.131960	0.308913
H77	H	0.455740	0.147551	0.401849
N78	N	0.613342	0.049244	0.360013
N79	N	0.621481	0.027777	0.227399
H80	H	0.649157	-0.045178	0.158569
H81	H	-0.269644	0.118148	-0.196495
H82	H	-0.207041	0.196662	0.270952
N83	N	0.309574	0.215208	0.300913
N84	N	0.324995	0.234530	0.415909
H85	H	0.301093	0.249143	0.508633
N86	N	0.577910	-0.499202	-0.125942
N87	N	0.617359	-0.510873	-0.211545
H88	H	0.623326	-0.574873	-0.315806
H89	H	0.582746	-0.287700	-0.168166
H90	H	-0.029837	0.103525	-0.323676
H91	H	0.623079	0.023620	0.593790
H92	H	0.515145	0.308032	0.484566
N93	N	0.069781	0.229812	0.428102
N94	N	0.064606	0.335484	0.535781
H95	H	0.040705	0.350128	0.628517
N96	N	-0.305358	0.198348	0.296975
N97	N	-0.350358	0.197116	0.296654
H98	H	-0.374281	0.211732	0.389341
H99	H	-0.178213	0.120627	-0.195926
H100	H	0.121375	0.107651	-0.322738
H101	H	0.212804	0.110155	-0.322149
H102	H	0.345256	0.135029	-0.192592
N103	N	0.443577	0.133325	-0.218619
N104	N	0.478974	0.037940	-0.268633
H105	H	0.502899	0.023316	-0.361320
N106	N	0.020439	0.228437	0.427781
N107	N	-0.009168	0.246520	0.542490
H108	H	0.003266	0.262143	0.635447
N109	N	-0.081442	0.225631	0.427097
N110	N	-0.126442	0.224390	0.426773
H111	H	-0.150365	0.239007	0.519459
N112	N	0.068453	0.101830	-0.349729
N113	N	0.053032	0.082514	-0.464725
H114	H	0.076935	0.067899	-0.557448
