data_functionalizedCrystal
_audit_creation_method	'MofGen! by Chris Wilmer'
_symmetry_space_group_name_H-M	'P1'
_symmetry_Int_Tables_number	1
_symmetry_cell_setting	triclinic
loop_
_symmetry_equiv_pos_as_xyz
  x,y,z
_cell_length_a	14.044220
_cell_length_b	10.654550
_cell_length_c	9.130313
_cell_angle_alpha	90.000276
_cell_angle_beta	89.994483
_cell_angle_gamma	91.163096
loop_
_atom_site_label
_atom_site_type_symbol
_atom_site_fract_x
_atom_site_fract_y
_atom_site_fract_z
O1	O	0.133232	-1.681228	-0.121694
O2	O	0.633232	-1.181228	0.378306
O3	O	0.145925	-1.317025	-0.121721
O4	O	0.645925	-0.817025	0.378279
O5	O	0.001558	-1.493660	-0.121693
O6	O	0.501558	-0.993660	0.378307
O7	O	0.277599	-1.504593	-0.121721
O8	O	0.777599	-1.004593	0.378279
O9	O	0.001554	-1.493646	0.121906
O10	O	0.501554	-0.993646	0.621906
O11	O	0.145921	-1.317011	0.121878
O12	O	0.645921	-0.817011	0.621878
O13	O	0.133227	-1.681214	0.121905
O14	O	0.633227	-1.181214	0.621905
Cu15	Cu	0.139574	-1.499112	0.144134
Cu16	Cu	0.639574	-0.999112	0.644134
Cu17	Cu	0.139579	-1.499128	-0.143950
Cu18	Cu	0.639579	-0.999128	0.356050
O19	O	0.277595	-1.504580	0.121877
O20	O	0.777595	-1.004580	0.621877
C21	C	0.144991	-1.270127	0.000075
C22	C	0.644991	-0.770127	0.500075
C23	C	0.142202	-1.130403	0.000065
C24	C	0.642202	-0.630403	0.500065
C25	C	-0.033790	-1.488867	0.000106
C26	C	0.466210	-0.988867	0.500106
C27	C	-0.139110	-1.474592	0.000107
C28	C	0.360890	-0.974592	0.500107
C29	C	0.134162	-1.728113	0.000106
C30	C	0.634162	-1.228113	0.500106
C31	C	0.136950	-1.867836	0.000106
C32	C	0.636950	-1.367836	0.500106
C33	C	-0.331943	-1.448493	0.000084
C34	C	0.168057	-0.948493	0.500084
C35	C	-0.388910	-1.549741	0.000087
C36	C	0.111090	-1.049741	0.500087
C37	C	-0.496209	-1.535219	0.000074
C38	C	0.003791	-1.035219	0.500074
C39	C	-0.224634	-1.463013	0.000097
C40	C	0.275366	-0.963013	0.500097
C41	C	0.312943	-1.509372	0.000075
C42	C	0.812943	-1.009372	0.500075
C43	C	0.418262	-1.523648	0.000064
C44	C	0.918262	-1.023648	0.500064
N45	N	0.139570	-1.499109	0.346757
N46	N	0.639570	-0.999109	0.846757
C47	C	0.227204	-1.059459	0.000061
C48	C	0.727204	-0.559459	0.500061
C49	C	0.224578	-0.928175	0.000086
C50	C	0.724578	-0.428175	0.500086
C51	C	0.051942	-0.938790	0.000115
C52	C	0.551942	-0.438790	0.500115
C53	C	0.054569	-1.070072	0.000100
C54	C	0.554569	-0.570072	0.500100
N55	N	0.139575	-1.499139	-0.346572
N56	N	0.639575	-0.999139	0.153428
C57	C	0.075671	-1.577355	0.423421
C58	C	0.575671	-1.077355	0.923421
C59	C	0.075671	-1.577367	0.576758
C60	C	0.575671	-1.077367	1.076758
C61	C	0.203477	-1.420885	0.576753
C62	C	0.703477	-0.920885	1.076753
C63	C	0.203472	-1.420867	0.423419
C64	C	0.703472	-0.920867	0.923419
H65	H	-0.357098	-1.647328	-0.000004
H66	H	0.142902	-1.147328	0.499996
H67	H	-0.363754	-1.350913	0.000073
H68	H	0.136246	-0.850913	0.500073
Cl69	Cl	0.337371	-1.135300	0.000026
Cl70	Cl	0.837371	-0.635300	0.500026
Cl71	Cl	0.331442	-0.838993	0.000083
Cl72	Cl	0.831442	-0.338993	0.500083
H73	H	-0.019406	-0.889652	0.000152
H74	H	0.480594	-0.389652	0.500152
H75	H	-0.014653	-1.127837	0.000108
H76	H	0.485347	-0.627837	0.500108
H77	H	0.023637	-1.641063	0.361006
H78	H	0.523637	-1.141063	0.861006
Cl79	Cl	-0.004664	-1.675734	0.673131
Cl80	Cl	0.495336	-1.175734	1.173131
Cl81	Cl	0.283811	-1.322533	0.673134
Cl82	Cl	0.783811	-0.822533	1.173134
H83	H	0.255506	-1.357144	0.360995
H84	H	0.755506	-0.857144	0.860995
