data_functionalizedCrystal
_audit_creation_method	'MofGen! by Chris Wilmer'
_symmetry_space_group_name_H-M	'P1'
_symmetry_Int_Tables_number	1
_symmetry_cell_setting	triclinic
loop_
_symmetry_equiv_pos_as_xyz
  x,y,z
_cell_length_a	19.121102
_cell_length_b	25.639239
_cell_length_c	19.121175
_cell_angle_alpha	92.412705
_cell_angle_beta	85.212968
_cell_angle_gamma	87.592882
loop_
_atom_site_label
_atom_site_type_symbol
_atom_site_fract_x
_atom_site_fract_y
_atom_site_fract_z
Zn1	Zn	1.092540	-0.257000	-0.443656
Zn2	Zn	1.592540	0.243000	0.056344
Zn3	Zn	1.087414	-0.340536	-0.325985
Zn4	Zn	1.587414	0.159464	0.174015
Zn5	Zn	0.969867	-0.249219	-0.320995
Zn6	Zn	1.469867	0.250781	0.179005
Zn7	Zn	0.974814	-0.340501	-0.438597
Zn8	Zn	1.474814	0.159499	0.061403
O9	O	1.031158	-0.296814	-0.382308
O10	O	1.531158	0.203186	0.117692
O11	O	1.190322	-0.271353	-0.432253
O12	O	1.690322	0.228647	0.067747
O13	O	1.067605	-0.325180	-0.226860
O14	O	1.567605	0.174820	0.273140
O15	O	0.986215	-0.177089	-0.337295
O16	O	1.486215	0.322911	0.162705
O17	O	1.186556	-0.332726	-0.345800
O18	O	1.686556	0.167274	0.154200
O19	O	1.076342	-0.182806	-0.427414
O20	O	1.576342	0.317194	0.072586
O21	O	0.981244	-0.258090	-0.223194
O22	O	1.481244	0.241910	0.276806
O23	O	0.872061	-0.258056	-0.332389
O24	O	1.372061	0.241944	0.167611
O25	O	0.994646	-0.332667	-0.537731
O26	O	1.494646	0.167333	-0.037731
O27	O	0.875695	-0.325121	-0.418791
O28	O	1.375695	0.174879	0.081209
O29	O	1.081138	-0.271319	-0.541448
O30	O	1.581138	0.228681	-0.041448
O31	O	1.072402	-0.413693	-0.340895
O32	O	1.572402	0.086307	0.159105
O33	O	0.989675	-0.413668	-0.423630
O34	O	1.489675	0.086332	0.076370
C35	C	0.848348	-0.290741	-0.374500
C36	C	1.348348	0.209259	0.125500
C37	C	0.770141	-0.288156	-0.371176
C38	C	1.270141	0.211844	0.128824
C39	C	0.735307	-0.321907	-0.414529
C40	C	1.235307	0.178093	0.085471
C41	C	0.661824	-0.319471	-0.411409
C42	C	1.161824	0.180529	0.088591
C43	C	0.623176	-0.283287	-0.364933
C44	C	1.123176	0.216713	0.135067
C45	C	0.658015	-0.249533	-0.321578
C46	C	1.158015	0.250467	0.178422
C47	C	0.731497	-0.251966	-0.324702
C48	C	1.231497	0.248034	0.175298
C49	C	0.401212	-0.274188	-0.353257
C50	C	0.901212	0.225812	0.146743
C51	C	0.327725	-0.271758	-0.350136
C52	C	0.827725	0.228242	0.149864
C53	C	0.331539	-0.341697	-0.439968
C54	C	0.831539	0.158303	0.060032
C55	C	0.405022	-0.344129	-0.443084
C56	C	0.905022	0.155871	0.056916
C57	C	0.439855	-0.310373	-0.399733
C58	C	0.939855	0.189627	0.100267
C59	C	0.548064	-0.280798	-0.361741
C60	C	1.048064	0.219202	0.138259
C61	C	0.514965	-0.312860	-0.402928
C62	C	1.014965	0.187140	0.097072
C63	C	1.031039	-0.432652	-0.382271
C64	C	1.531039	0.067348	0.117729
C65	C	1.031053	-0.490766	-0.382281
C66	C	1.531053	0.009234	0.117719
C67	C	1.074355	-0.851141	-0.339310
C68	C	1.574355	-0.351141	0.160690
C69	C	1.074383	-0.905746	-0.339320
C70	C	1.574383	-0.405746	0.160680
O71	O	1.111075	-0.933987	-0.302743
O72	O	1.611075	-0.433987	0.197257
N73	N	1.031284	-0.933059	-0.382360
N74	N	1.531284	-0.433059	0.117640
C75	C	0.988160	-0.905763	-0.425398
C76	C	1.488160	-0.405763	0.074602
O77	O	0.951505	-0.934009	-0.462008
O78	O	1.451505	-0.434009	0.037992
C79	C	0.988137	-0.851159	-0.425390
C80	C	1.488137	-0.351159	0.074610
C81	C	1.031233	-0.823849	-0.382342
C82	C	1.531233	-0.323849	0.117658
C83	C	1.117448	-0.823831	-0.296265
C84	C	1.617448	-0.323831	0.203735
C85	C	1.117419	-0.769229	-0.296254
C86	C	1.617419	-0.269229	0.203746
C87	C	1.074297	-0.741937	-0.339287
C88	C	1.574297	-0.241937	0.160713
C89	C	1.031204	-0.769247	-0.382331
C90	C	1.531204	-0.269247	0.117669
C91	C	0.945017	-0.823865	-0.468431
C92	C	1.445017	-0.323865	0.031569
C93	C	0.944998	-0.769257	-0.468420
C94	C	1.444998	-0.269257	0.031580
C95	C	0.988094	-0.741947	-0.425372
C96	C	1.488094	-0.241947	0.074628
C97	C	0.988053	-0.687353	-0.425352
C98	C	1.488053	-0.187353	0.074648
N99	N	1.031152	-0.660041	-0.382312
N100	N	1.531152	-0.160041	0.117688
C101	C	1.074274	-0.687333	-0.339279
C102	C	1.574274	-0.187333	0.160721
C103	C	0.988214	-1.020436	-0.425411
C104	C	1.488214	-0.520436	0.074589
C105	C	0.988233	-1.075039	-0.425415
C106	C	1.488233	-0.575039	0.074585
C107	C	1.074457	-1.075018	-0.339338
C108	C	1.574457	-0.575018	0.160662
C109	C	1.074433	-1.020414	-0.339331
C110	C	1.574433	-0.520414	0.160669
C111	C	1.031312	-0.993123	-0.382371
C112	C	1.531312	-0.493123	0.117629
C113	C	1.074210	-0.572665	-0.339258
C114	C	1.574210	-0.072665	0.160742
C115	C	1.074175	-0.518058	-0.339249
C116	C	1.574175	-0.018058	0.160751
C117	C	0.987954	-0.518084	-0.425328
C118	C	1.487954	-0.018084	0.074672
C119	C	0.987986	-0.572686	-0.425335
C120	C	1.487986	-0.072686	0.074665
C121	C	1.031119	-0.599975	-0.382298
C122	C	1.531119	-0.099975	0.117702
O123	O	0.951381	-0.659078	-0.461912
O124	O	1.451381	-0.159078	0.038088
O125	O	1.110930	-0.659081	-0.302682
O126	O	1.610930	-0.159081	0.197318
C127	C	1.214683	-0.302911	-0.390148
C128	C	1.714683	0.197089	0.109852
C129	C	1.292891	-0.305509	-0.393488
C130	C	1.792891	0.194491	0.106512
C131	C	1.039016	-0.302857	-0.565834
C132	C	1.539016	0.197143	-0.065834
C133	C	1.042364	-0.305433	-0.644042
C134	C	1.542364	0.194567	-0.144042
C135	C	1.031298	-0.160447	-0.382362
C136	C	1.531298	0.339553	0.117638
C137	C	1.031358	-0.102336	-0.382385
C138	C	1.531358	0.397664	0.117615
C139	C	0.998975	-0.271713	-0.678874
C140	C	1.498975	0.228287	-0.178874
C141	C	1.002119	-0.274137	-0.752359
C142	C	1.502119	0.225863	-0.252359
C143	C	1.048654	-0.310279	-0.791009
C144	C	1.548654	0.189721	-0.291009
C145	C	1.092045	-0.344002	-0.756171
C146	C	1.592045	0.155998	-0.256171
C147	C	1.088897	-0.341580	-0.682688
C148	C	1.588897	0.158420	-0.182688
C149	C	1.060404	-0.319341	-1.012976
C150	C	1.560404	0.180659	-0.512976
C151	C	1.063549	-0.321759	-1.086464
C152	C	1.563549	0.178241	-0.586464
C153	C	0.973622	-0.251895	-1.082646
C154	C	1.473622	0.248105	-0.582646
C155	C	0.970481	-0.249474	-1.009162
C156	C	1.470481	0.250526	-0.509162
C157	C	1.013869	-0.283199	-0.974331
C158	C	1.513869	0.216801	-0.474331
C159	C	1.051870	-0.312756	-0.866122
C160	C	1.551870	0.187244	-0.366122
C161	C	1.010649	-0.280724	-0.899219
C162	C	1.510649	0.219276	-0.399219
C163	C	1.023372	-0.290758	-0.199498
C164	C	1.523372	0.209242	0.300502
C165	C	1.020161	-0.288040	-0.121297
C166	C	1.520161	0.211960	0.378703
H167	H	0.633465	-0.346955	-0.446711
H168	H	1.133465	0.153045	0.053289
C169	C	0.948332	-0.232536	-0.636945
C170	C	1.448332	0.267464	-0.136945
C171	C	0.879469	-0.242207	-0.651830
C172	C	1.379469	0.257793	-0.151830
C173	C	0.832794	-0.206133	-0.613213
C174	C	1.332794	0.293867	-0.113213
H175	H	0.959084	-0.198123	-0.649409
H176	H	1.459084	0.301877	-0.149409
H177	H	0.952623	-0.235924	-0.588184
H178	H	1.452623	0.264076	-0.088184
H179	H	0.875180	-0.238814	-0.700581
H180	H	1.375180	0.261186	-0.200581
H181	H	0.868694	-0.276613	-0.639364
H182	H	1.368694	0.223387	-0.139364
H183	H	0.837085	-0.209522	-0.564451
H184	H	1.337085	0.290478	-0.064451
H185	H	0.843552	-0.171723	-0.625680
H186	H	1.343552	0.328277	-0.125680
H187	H	0.786064	-0.212694	-0.623302
H188	H	1.286064	0.287306	-0.123302
H189	H	1.095725	-0.346808	-0.984625
H190	H	1.595725	0.153192	-0.484625
H191	H	1.152514	-0.746996	-0.261203
H192	H	1.652514	-0.246996	0.238797
C193	C	0.777356	-0.361113	-0.465036
C194	C	1.277356	0.138887	0.034964
C195	C	0.821523	-0.334447	-0.511989
C196	C	1.321523	0.165553	-0.011989
C197	C	0.860273	-0.370546	-0.558523
C198	C	1.360273	0.129454	-0.058523
H199	H	0.746167	-0.380881	-0.490480
H200	H	1.246167	0.119119	0.009520
H201	H	0.804884	-0.383918	-0.439304
H202	H	1.304884	0.116082	0.060696
H203	H	0.793997	-0.311651	-0.537718
H204	H	1.293997	0.188349	-0.037718
H205	H	0.852726	-0.314681	-0.486565
H206	H	1.352726	0.185319	0.013435
H207	H	0.887801	-0.393350	-0.532791
H208	H	1.387801	0.106650	-0.032791
H209	H	0.829079	-0.390311	-0.583962
H210	H	1.329079	0.109689	-0.083962
H211	H	0.890249	-0.352458	-0.590382
H212	H	1.390249	0.147542	-0.090382
C213	C	0.954914	-0.237614	-0.790202
C214	C	1.454914	0.262386	-0.290202
C215	C	0.911574	-0.267113	-0.830425
C216	C	1.411574	0.232887	-0.330425
C217	C	0.868065	-0.233487	-0.865285
C218	C	1.368065	0.266513	-0.365285
H219	H	0.982990	-0.216659	-0.820087
H220	H	1.482990	0.283341	-0.320087
H221	H	0.926711	-0.215754	-0.756674
H222	H	1.426711	0.284246	-0.256674
H223	H	0.939773	-0.288963	-0.863950
H224	H	1.439773	0.211037	-0.363950
H225	H	0.883483	-0.288067	-0.800557
H226	H	1.383483	0.211933	-0.300557
H227	H	0.839863	-0.211627	-0.831756
H228	H	1.339863	0.288373	-0.331756
H229	H	0.896147	-0.212533	-0.895166
H230	H	1.396147	0.287467	-0.395166
H231	H	0.838649	-0.253496	-0.892575
H232	H	1.338649	0.246504	-0.392575
C233	C	0.926544	-0.215347	-1.120592
C234	C	1.426544	0.284653	-0.620592
C235	C	0.939244	-0.225211	-1.193217
C236	C	1.439244	0.274789	-0.693217
C237	C	0.895877	-0.191558	-1.228194
C238	C	1.395877	0.308442	-0.728194
H239	H	0.936318	-0.180144	-1.109088
H240	H	1.436318	0.319856	-0.609088
H241	H	0.878732	-0.221039	-1.106565
H242	H	1.378732	0.278961	-0.606565
H243	H	0.987045	-0.219514	-1.207239
H244	H	1.487045	0.280486	-0.707239
H245	H	0.929465	-0.260407	-1.204743
H246	H	1.429465	0.239593	-0.704743
H247	H	0.848065	-0.197250	-1.214167
H248	H	1.348065	0.302750	-0.714167
H249	H	0.905655	-0.156357	-1.216684
H250	H	1.405655	0.343643	-0.716684
H251	H	0.904484	-0.198249	-1.277473
H252	H	1.404484	0.301751	-0.777473
H253	H	0.909885	-0.747039	-0.503471
H254	H	1.409885	-0.247039	-0.003471
H255	H	1.152567	-0.846046	-0.261223
H256	H	1.652567	-0.346046	0.238777
H257	H	0.436484	-0.373595	-0.480929
H258	H	0.936484	0.126405	0.019071
C259	C	1.114097	-0.361056	-1.128304
C260	C	1.614097	0.138944	-0.628304
C261	C	1.151408	-0.390083	-1.082072
C262	C	1.651408	0.109917	-0.582072
C263	C	1.197970	-0.426289	-1.120589
C264	C	1.697970	0.073711	-0.620589
H265	H	1.146066	-0.343079	-1.158290
H266	H	1.646066	0.156921	-0.658290
H267	H	1.088398	-0.383911	-1.155798
H268	H	1.588398	0.116089	-0.655798
H269	H	1.177105	-0.367231	-1.054590
H270	H	1.677105	0.132769	-0.554590
H271	H	1.119457	-0.408071	-1.052085
H272	H	1.619457	0.091929	-0.552085
H273	H	1.172271	-0.449144	-1.148084
H274	H	1.672271	0.050856	-0.648084
H275	H	1.229934	-0.408308	-1.150574
H276	H	1.729934	0.091692	-0.650574
H277	H	1.223286	-0.445991	-1.089227
H278	H	1.723286	0.054009	-0.589227
H279	H	1.089759	-0.342183	-0.897599
H280	H	1.589759	0.157817	-0.397599
C281	C	0.293591	-0.378279	-0.487006
C282	C	0.793591	0.121721	0.012994
C283	C	0.220967	-0.368396	-0.474340
C284	C	0.720967	0.131604	0.025660
C285	C	0.185989	-0.402080	-0.517669
C286	C	0.685989	0.097920	-0.017669
H287	H	0.305075	-0.413472	-0.477177
H288	H	0.805075	0.086528	0.022823
H289	H	0.307637	-0.372630	-0.534826
H290	H	0.807637	0.127370	-0.034826
H291	H	0.206928	-0.374049	-0.426531
H292	H	0.706928	0.125951	0.073469
H293	H	0.209463	-0.333209	-0.484173
H294	H	0.709463	0.166791	0.015827
H295	H	0.200035	-0.396432	-0.565489
H296	H	0.700035	0.103568	-0.065489
H297	H	0.197479	-0.437272	-0.507836
H298	H	0.697479	0.062728	-0.007836
H299	H	0.136711	-0.395376	-0.509086
H300	H	0.636711	0.104624	-0.009086
C301	C	0.898347	-0.853576	-0.515224
C302	C	1.398347	-0.353576	-0.015224
C303	C	0.940100	-0.887694	-0.562051
C304	C	1.440100	-0.387694	-0.062051
C305	C	0.897131	-0.915076	-0.605167
C306	C	1.397131	-0.415076	-0.105167
H307	H	0.872658	-0.829555	-0.540917
H308	H	1.372658	-0.329555	-0.040917
H309	H	0.866572	-0.873038	-0.487011
H310	H	1.366572	-0.373038	0.012989
H311	H	0.971863	-0.868233	-0.590261
H312	H	1.471863	-0.368233	-0.090261
H313	H	0.965789	-0.911725	-0.536378
H314	H	1.465789	-0.411725	-0.036378
H315	H	0.865355	-0.934538	-0.576953
H316	H	1.365355	-0.434538	-0.076953
H317	H	0.871444	-0.891051	-0.630854
H318	H	1.371444	-0.391051	-0.130854
H319	H	0.925453	-0.938231	-0.636939
H320	H	1.425453	-0.438231	-0.136939
H321	H	1.129932	-0.373432	-0.787646
H322	H	1.629932	0.126568	-0.287646
C323	C	0.941346	-1.104707	-0.472028
C324	C	1.441346	-0.604707	0.027972
C325	C	0.894573	-1.133285	-0.430236
C326	C	1.394573	-0.633285	0.069764
C327	C	0.851367	-1.160614	-0.473155
C328	C	1.351367	-0.660614	0.026845
H329	H	0.969478	-1.127920	-0.503873
H330	H	1.469478	-0.627920	-0.003873
H331	H	0.915620	-1.080643	-0.497639
H332	H	1.415620	-0.580643	0.002361
H333	H	0.920296	-1.157347	-0.404637
H334	H	1.420296	-0.657347	0.095363
H335	H	0.866425	-1.110084	-0.398392
H336	H	1.366425	-0.610084	0.101608
H337	H	0.825641	-1.136550	-0.498766
H338	H	1.325641	-0.636550	0.001234
H339	H	0.879505	-1.183824	-0.504998
H340	H	1.379505	-0.683824	-0.004998
H341	H	0.819622	-1.180003	-0.444806
H342	H	1.319622	-0.680003	0.055194
C343	C	1.136086	-0.378218	-0.644997
C344	C	1.636086	0.121782	-0.144997
C345	C	1.177527	-0.410380	-0.694572
C346	C	1.677527	0.089620	-0.194572
C347	C	1.221009	-0.444136	-0.659878
C348	C	1.721009	0.055864	-0.159878
H349	H	1.107993	-0.399207	-0.615175
H350	H	1.607993	0.100793	-0.115175
H351	H	1.165576	-0.358309	-0.617663
H352	H	1.665576	0.141691	-0.117663
H353	H	1.148040	-0.430288	-0.721894
H354	H	1.648040	0.069712	-0.221894
H355	H	1.205634	-0.389406	-0.724396
H356	H	1.705634	0.110594	-0.224396
H357	H	1.250499	-0.424227	-0.632544
H358	H	1.750499	0.075773	-0.132544
H359	H	1.192910	-0.465121	-0.630057
H360	H	1.692910	0.034879	-0.130057
H361	H	1.249136	-0.465959	-0.693509
H362	H	1.749136	0.034041	-0.193509
C363	C	0.941310	-0.990901	-0.472160
C364	C	1.441310	-0.490901	0.027840
C365	C	0.903562	-1.026511	-0.509836
C366	C	1.403562	-0.526511	-0.009836
C367	C	0.860343	-0.999326	-0.552901
C368	C	1.360343	-0.499326	-0.052901
H369	H	0.969424	-0.971471	-0.504048
H370	H	1.469424	-0.471471	-0.004048
H371	H	0.909472	-0.967737	-0.443922
H372	H	1.409472	-0.467737	0.056078
H373	H	0.935396	-1.049665	-0.538071
H374	H	1.435396	-0.549665	-0.038071
H375	H	0.875434	-1.045942	-0.477966
H376	H	1.375434	-0.545942	0.022034
H377	H	0.828505	-0.976162	-0.524664
H378	H	1.328505	-0.476162	-0.024664
H379	H	0.888462	-0.979897	-0.584784
H380	H	1.388462	-0.479897	-0.084784
H381	H	0.834721	-1.023483	-0.578464
H382	H	1.334721	-0.523483	-0.078464
C383	C	0.557015	-0.352065	-0.453431
C384	C	1.057015	0.147935	0.046569
C385	C	0.601182	-0.325399	-0.500385
C386	C	1.101182	0.174601	-0.000385
C387	C	0.639941	-0.361498	-0.546911
C388	C	1.139941	0.138502	-0.046911
H389	H	0.525832	-0.371838	-0.478876
H390	H	1.025832	0.128162	0.021124
H391	H	0.584543	-0.374865	-0.427693
H392	H	1.084543	0.125135	0.072307
H393	H	0.573656	-0.302608	-0.526121
H394	H	1.073656	0.197392	-0.026121
H395	H	0.632379	-0.305628	-0.474961
H396	H	1.132379	0.194372	0.025039
H397	H	0.667470	-0.384298	-0.521173
H398	H	1.167470	0.115702	-0.021173
H399	H	0.608753	-0.381269	-0.572350
H400	H	1.108753	0.118731	-0.072350
H401	H	0.669917	-0.343411	-0.578770
H402	H	1.169917	0.156589	-0.078770
H403	H	0.296260	-0.242287	-0.312293
H404	H	0.796260	0.257713	0.187707
H405	H	0.932585	-0.220045	-0.977698
H406	H	1.432585	0.279955	-0.477698
H407	H	0.972758	-0.251299	-0.867747
H408	H	1.472758	0.248701	-0.367747
H409	H	1.109526	-0.998181	-0.304278
H410	H	1.609526	-0.498181	0.195722
C411	C	0.941172	-0.602247	-0.472146
C412	C	1.441172	-0.102247	0.027854
C413	C	0.903413	-0.566656	-0.509841
C414	C	1.403413	-0.066656	-0.009841
C415	C	0.860294	-0.593866	-0.552984
C416	C	1.360294	-0.093866	-0.052984
H417	H	0.909335	-0.621684	-0.443983
H418	H	1.409335	-0.121684	0.056017
H419	H	0.969378	-0.625406	-0.504018
H420	H	1.469378	-0.125406	-0.004018
H421	H	0.875209	-0.543507	-0.477973
H422	H	1.375209	-0.043507	0.022027
H423	H	0.935232	-0.547218	-0.538018
H424	H	1.435232	-0.047218	-0.038018
H425	H	0.888500	-0.617024	-0.584856
H426	H	1.388500	-0.117024	-0.084856
H427	H	0.828461	-0.613301	-0.524816
H428	H	1.328461	-0.113301	-0.024816
H429	H	0.834674	-0.569722	-0.578570
H430	H	1.334674	-0.069722	-0.078570
H431	H	0.429564	-0.246705	-0.317952
H432	H	0.929564	0.253295	0.182048
H433	H	0.626542	-0.220069	-0.283739
H434	H	1.126542	0.279931	0.216261
H435	H	0.759858	-0.224480	-0.289403
H436	H	1.259858	0.275520	0.210597
C437	C	0.506054	-0.241595	-0.311199
C438	C	1.006054	0.258405	0.188801
C439	C	0.461905	-0.268260	-0.264228
C440	C	0.961905	0.231740	0.235772
C441	C	0.423197	-0.232161	-0.217659
C442	C	0.923197	0.267839	0.282341
H443	H	0.478512	-0.218774	-0.336880
H444	H	0.978512	0.281226	0.163120
H445	H	0.537292	-0.221844	-0.285778
H446	H	1.037292	0.278156	0.214222
H447	H	0.430670	-0.288001	-0.289646
H448	H	0.930670	0.211999	0.210354
H449	H	0.489428	-0.291078	-0.238531
H450	H	0.989428	0.208922	0.261469
H451	H	0.454435	-0.212411	-0.192239
H452	H	0.954435	0.287589	0.307761
H453	H	0.395660	-0.209343	-0.243347
H454	H	0.895660	0.290657	0.256653
H455	H	0.393242	-0.250248	-0.185780
H456	H	0.893242	0.249752	0.314220
H457	H	0.952843	-0.495854	-0.460363
H458	H	1.452843	0.004146	0.039637
H459	H	1.109571	-1.097249	-0.304301
H460	H	1.609571	-0.597249	0.195699
C461	C	1.121014	-0.488346	-0.292625
C462	C	1.621014	0.011654	0.207375
C463	C	1.167761	-0.459747	-0.334417
C464	C	1.667761	0.040253	0.165583
C465	C	1.210912	-0.432367	-0.291494
C466	C	1.710912	0.067633	0.208506
H467	H	1.146767	-0.512365	-0.266987
H468	H	1.646767	-0.012365	0.233013
H469	H	1.092820	-0.465144	-0.260803
H470	H	1.592820	0.034856	0.239197
H471	H	1.195952	-0.482947	-0.366227
H472	H	1.695952	0.017053	0.133773
H473	H	1.142027	-0.435719	-0.360054
H474	H	1.642027	0.064281	0.139946
H475	H	1.182717	-0.409165	-0.259672
H476	H	1.682717	0.090835	0.240328
H477	H	1.236660	-0.456390	-0.265858
H478	H	1.736660	0.043610	0.234142
H479	H	1.242630	-0.412956	-0.319842
H480	H	1.742630	0.087044	0.180158
C481	C	1.121059	-0.602192	-0.292454
C482	C	1.621059	-0.102192	0.207546
C483	C	1.158773	-0.566578	-0.254746
C484	C	1.658773	-0.066578	0.245254
C485	C	1.201926	-0.593758	-0.211612
C486	C	1.701926	-0.093758	0.288388
H487	H	1.152923	-0.625367	-0.320625
H488	H	1.652923	-0.125367	0.179375
H489	H	1.092880	-0.621607	-0.260590
H490	H	1.592880	-0.121607	0.239410
H491	H	1.186950	-0.547171	-0.286605
H492	H	1.686950	-0.047171	0.213395
H493	H	1.126927	-0.543402	-0.226561
H494	H	1.626927	-0.043402	0.273439
H495	H	1.173747	-0.613173	-0.179749
H496	H	1.673747	-0.113173	0.320251
H497	H	1.233786	-0.616932	-0.239789
H498	H	1.733786	-0.116932	0.260211
H499	H	1.227515	-0.569597	-0.186017
H500	H	1.727515	-0.069597	0.313983
