data_functionalizedCrystal
_audit_creation_method	'MofGen! by Chris Wilmer'
_symmetry_space_group_name_H-M	'P1'
_symmetry_Int_Tables_number	1
_symmetry_cell_setting	triclinic
loop_
_symmetry_equiv_pos_as_xyz
  x,y,z
_cell_length_a	17.077404
_cell_length_b	15.297327
_cell_length_c	17.077396
_cell_angle_alpha	99.646061
_cell_angle_beta	89.982756
_cell_angle_gamma	99.707136
loop_
_atom_site_label
_atom_site_type_symbol
_atom_site_fract_x
_atom_site_fract_y
_atom_site_fract_z
Zn1	Zn	1.145934	-0.359152	-0.497893
Zn2	Zn	1.645934	0.140848	0.002107
Zn3	Zn	1.123118	-0.510028	-0.389334
Zn4	Zn	1.623118	-0.010028	0.110666
Zn5	Zn	1.014666	-0.359186	-0.366647
Zn6	Zn	1.514666	0.140814	0.133353
Zn7	Zn	0.991914	-0.509973	-0.520549
Zn8	Zn	1.491914	-0.009973	-0.020549
O9	O	1.068908	-0.434585	-0.443606
O10	O	1.568908	0.065415	0.056394
O11	O	1.252753	-0.379176	-0.483506
O12	O	1.752753	0.120824	0.016494
O13	O	1.108705	-0.490056	-0.276483
O14	O	1.608705	0.009944	0.223517
O15	O	1.051149	-0.232935	-0.365081
O16	O	1.551149	0.267065	0.134919
O17	O	1.235991	-0.490024	-0.403748
O18	O	1.735991	0.009976	0.096252
O19	O	1.147591	-0.232910	-0.461507
O20	O	1.647591	0.267090	0.038493
O21	O	1.029026	-0.379233	-0.259815
O22	O	1.529026	0.120767	0.240185
O23	O	0.901803	-0.379179	-0.387049
O24	O	1.401803	0.120821	0.112951
O25	O	1.012372	-0.489929	-0.627385
O26	O	1.512372	0.010071	-0.127385
O27	O	0.885087	-0.489961	-0.500120
O28	O	1.385087	0.010039	-0.000120
O29	O	1.125530	-0.379121	-0.610740
O30	O	1.625530	0.120879	-0.110740
O31	O	1.086644	-0.636268	-0.425716
O32	O	1.586644	-0.136268	0.074284
O33	O	0.990249	-0.636227	-0.522119
O34	O	1.490249	-0.136227	-0.022119
C35	C	0.864963	-0.434569	-0.443581
C36	C	1.364963	0.065431	0.056419
C37	C	0.777711	-0.434583	-0.443593
C38	C	1.277711	0.065417	0.056407
C39	C	1.033523	-0.668982	-0.478855
C40	C	1.533523	-0.168982	0.021145
C41	C	1.018457	-0.769258	-0.493961
C42	C	1.518457	-0.269258	0.006039
C43	C	0.728024	-0.492355	-0.502402
C44	C	1.228024	0.007645	-0.002402
C45	C	0.646044	-0.492357	-0.502415
C46	C	1.146044	0.007643	-0.002415
C47	C	0.613750	-0.434591	-0.443615
C48	C	1.113750	0.065409	0.056385
C49	C	0.663444	-0.376813	-0.384803
C50	C	1.163444	0.123187	0.115197
C51	C	0.745423	-0.376808	-0.384794
C52	C	1.245423	0.123192	0.115206
C53	C	0.492571	-0.376831	-0.384824
C54	C	0.992571	0.123169	0.115176
C55	C	0.410585	-0.376838	-0.384832
C56	C	0.910585	0.123162	0.115168
C57	C	0.393191	-0.492380	-0.502445
C58	C	0.893191	0.007620	-0.002445
C59	C	0.475171	-0.492374	-0.502436
C60	C	0.975171	0.007626	-0.002436
C61	C	0.524858	-0.434598	-0.443623
C62	C	1.024858	0.065402	0.056377
C63	C	1.176913	-1.051879	-0.335909
C64	C	1.676913	-0.551879	0.164091
C65	C	1.191068	-0.957665	-0.321712
C66	C	1.691068	-0.457665	0.178288
C67	C	1.147916	-0.910559	-0.364773
C68	C	1.647916	-0.410559	0.135227
C69	C	1.090607	-0.957676	-0.422033
C70	C	1.590607	-0.457676	0.077967
C71	C	1.076446	-1.051899	-0.436227
C72	C	1.576446	-0.551899	0.063773
C73	C	1.047450	-0.910579	-0.465091
C74	C	1.547450	-0.410579	0.034909
C75	C	0.990141	-0.957696	-0.522351
C76	C	1.490141	-0.457696	-0.022351
C77	C	0.975983	-1.051910	-0.536543
C78	C	1.475983	-0.551910	-0.036543
C79	C	1.019134	-1.099017	-0.493482
C80	C	1.519134	-0.599017	0.006518
C81	C	1.061611	-0.816355	-0.450897
C82	C	1.561611	-0.316355	0.049103
C83	C	0.961145	-0.816375	-0.551215
C84	C	1.461145	-0.316375	-0.051215
C85	C	0.946990	-0.910589	-0.565412
C86	C	1.446990	-0.410589	-0.065412
C87	C	1.273650	-0.434602	-0.443630
C88	C	1.773650	0.065398	0.056370
C89	C	1.360899	-0.434609	-0.443641
C90	C	1.860899	0.065391	0.056359
C91	C	1.068958	-0.434515	-0.648339
C92	C	1.568958	0.065485	-0.148339
C93	C	1.068980	-0.434485	-0.735585
C94	C	1.568980	0.065515	-0.235585
C95	C	1.104453	-0.199273	-0.408236
C96	C	1.604453	0.300727	0.091764
C97	C	1.119601	-0.098997	-0.393164
C98	C	1.619601	0.401003	0.106836
C99	C	1.027507	-0.376773	-0.767894
C100	C	1.527507	0.123227	-0.267894
C101	C	1.027523	-0.376752	-0.849872
C102	C	1.527523	0.123248	-0.349872
C103	C	1.069016	-0.434440	-0.899538
C104	C	1.569016	0.065560	-0.399538
C105	C	1.110490	-0.492159	-0.867223
C106	C	1.610490	0.007841	-0.367223
C107	C	1.110469	-0.492184	-0.785248
C108	C	1.610469	0.007816	-0.285248
C109	C	1.110533	-0.492103	-1.038085
C110	C	1.610533	0.007897	-0.538085
C111	C	1.110555	-0.492078	-1.120066
C112	C	1.610555	0.007922	-0.620066
C113	C	1.027586	-0.376671	-1.102709
C114	C	1.527586	0.123329	-0.602709
C115	C	1.027565	-0.376696	-1.020733
C116	C	1.527565	0.123304	-0.520733
C117	C	1.069041	-0.434414	-0.988425
C118	C	1.569041	0.065586	-0.488425
C119	C	1.068914	-0.434589	-0.239658
C120	C	1.568914	0.065411	0.260342
C121	C	1.069083	-0.434365	-0.152375
C122	C	1.569083	0.065635	0.347625
H123	H	0.605591	-0.539401	-0.550302
H124	H	1.105591	-0.039401	-0.050302
O125	O	1.150815	-0.548120	-0.753756
O126	O	1.650815	-0.048120	-0.253756
C127	C	1.209275	-0.496780	-0.698638
C128	C	1.709275	0.003220	-0.198638
H129	H	1.191918	-0.428411	-0.676077
H130	H	1.691918	0.071589	-0.176077
H131	H	1.214226	-0.533549	-0.646518
H132	H	1.714226	-0.033549	-0.146518
H133	H	1.268952	-0.486865	-0.728746
H134	H	1.768952	0.013135	-0.228746
H135	H	1.144271	-0.539135	-0.907669
H136	H	1.644271	-0.039135	-0.407669
H137	H	1.159444	-0.833845	-0.353210
H138	H	1.659444	-0.333845	0.146790
H139	H	0.754310	-0.539397	-0.550282
H140	H	1.254310	-0.039397	-0.050282
H141	H	0.501460	-0.539417	-0.550313
H142	H	1.001460	-0.039417	-0.050313
H143	H	0.352732	-0.539422	-0.550335
H144	H	0.852732	-0.039422	-0.050335
O145	O	0.987227	-0.320602	-0.881122
O146	O	1.487227	0.179398	-0.381122
C147	C	0.950589	-0.269701	-0.819709
C148	C	1.450589	0.230299	-0.319709
H149	H	0.983199	-0.266601	-0.760810
H150	H	1.483199	0.233399	-0.260810
H151	H	0.952963	-0.198612	-0.832712
H152	H	1.452963	0.301388	-0.332712
H153	H	0.885978	-0.302730	-0.815946
H154	H	1.385978	0.197270	-0.315946
O155	O	0.987180	-0.320741	-1.134139
O156	O	1.487180	0.179259	-0.634139
C157	C	0.928741	-0.372091	-1.189276
C158	C	1.428741	0.127909	-0.689276
H159	H	0.913164	-0.443153	-1.175249
H160	H	1.413164	0.056847	-0.675249
H161	H	0.873257	-0.339463	-1.185285
H162	H	1.373257	0.160537	-0.685285
H163	H	0.952546	-0.375179	-1.251877
H164	H	1.452546	0.124821	-0.751877
H165	H	0.993723	-0.329791	-0.727460
H166	H	1.493723	0.170209	-0.227460
H167	H	0.929309	-1.090270	-0.583158
H168	H	1.429309	-0.590270	-0.083158
O169	O	0.987192	-0.320627	-0.972603
O170	O	1.487192	0.179373	-0.472603
C171	C	0.950605	-0.269663	-1.018693
C172	C	1.450605	0.230337	-0.518693
H173	H	0.942315	-0.306594	-1.082682
H174	H	1.442315	0.193406	-0.582682
H175	H	0.890208	-0.260040	-0.993551
H176	H	1.390208	0.239960	-0.493551
H177	H	0.989704	-0.201146	-1.017117
H178	H	1.489704	0.298854	-0.517117
O179	O	1.150968	-0.548075	-1.168226
O180	O	1.650968	-0.048075	-0.668226
C181	C	1.232182	-0.528377	-1.145265
C182	C	1.732182	-0.028377	-0.645265
H183	H	1.239046	-0.493724	-1.080531
H184	H	1.739046	0.006276	-0.580531
H185	H	1.257533	-0.593499	-1.152264
H186	H	1.757533	-0.093499	-0.652264
H187	H	1.265640	-0.481980	-1.184432
H188	H	1.765640	0.018020	-0.684432
O189	O	0.379349	-0.320636	-0.327681
O190	O	0.879349	0.179364	0.172319
C191	C	0.440780	-0.269649	-0.275761
C192	C	0.940780	0.230351	0.224239
H193	H	0.499696	-0.266566	-0.307447
H194	H	0.999696	0.233434	0.192553
H195	H	0.427815	-0.198559	-0.256809
H196	H	0.927815	0.301441	0.243191
H197	H	0.444502	-0.302591	-0.221046
H198	H	0.944502	0.197409	0.278954
O199	O	1.150761	-0.548296	-1.006802
O200	O	1.650761	-0.048296	-0.506802
C201	C	1.120015	-0.638206	-1.040328
C202	C	1.620015	-0.138206	-0.540328
H203	H	1.089576	-0.640057	-1.100128
H204	H	1.589576	-0.140057	-0.600128
H205	H	1.170556	-0.678665	-1.049214
H206	H	1.670556	-0.178665	-0.549214
H207	H	1.075054	-0.668600	-0.998755
H208	H	1.575054	-0.168600	-0.498755
H209	H	0.533026	-0.329775	-0.336938
H210	H	1.033026	0.170225	0.163062
O211	O	1.246791	-0.912038	-0.266096
O212	O	1.746791	-0.412038	0.233904
C213	C	1.281830	-0.973815	-0.231121
C214	C	1.781830	-0.473815	0.268879
H215	H	1.274437	-1.040950	-0.273388
H216	H	1.774437	-0.540950	0.226612
H217	H	1.347782	-0.946541	-0.218698
H218	H	1.847782	-0.446541	0.281302
H219	H	1.251606	-0.983907	-0.172997
H220	H	1.751606	-0.483907	0.327003
O221	O	0.793739	-0.320595	-0.327762
O222	O	1.293739	0.179405	0.172238
C223	C	0.849974	-0.262400	-0.363778
C224	C	1.349974	0.237600	0.136222
H225	H	0.826122	-0.256919	-0.424789
H226	H	1.326122	0.243081	0.075211
H227	H	0.861377	-0.192930	-0.325039
H228	H	1.361377	0.307070	0.174961
H229	H	0.907897	-0.290291	-0.370629
H230	H	1.407897	0.209709	0.129371
O231	O	1.218753	-1.097777	-0.294156
O232	O	1.718753	-0.597777	0.205844
C233	C	1.193934	-1.191038	-0.318934
C234	C	1.693934	-0.691038	0.181066
H235	H	1.166291	-1.203889	-0.381439
H236	H	1.666291	-0.703889	0.118561
H237	H	1.247345	-1.226816	-0.319010
H238	H	1.747345	-0.726816	0.180990
H239	H	1.148099	-1.217824	-0.276391
H240	H	1.648099	-0.717824	0.223609
H241	H	1.108272	-0.778001	-0.404276
H242	H	1.608272	-0.278001	0.095724
O243	O	0.632211	-0.320615	-0.327646
O244	O	1.132211	0.179385	0.172354
C245	C	0.693646	-0.269638	-0.275726
C246	C	1.193646	0.230362	0.224274
H247	H	0.752560	-0.266554	-0.307415
H248	H	1.252560	0.233446	0.192585
H249	H	0.680685	-0.198547	-0.256764
H250	H	1.180685	0.301453	0.243236
H251	H	0.697369	-0.302589	-0.221017
H252	H	1.197369	0.197411	0.278983
O253	O	1.005531	-1.190539	-0.507274
O254	O	1.505531	-0.690539	-0.007274
C255	C	1.076032	-1.221919	-0.532249
C256	C	1.576032	-0.721919	-0.032249
H257	H	1.129415	-1.167585	-0.510696
H258	H	1.629415	-0.667585	-0.010696
H259	H	1.080540	-1.284964	-0.506352
H260	H	1.580540	-0.784964	-0.006352
H261	H	1.075152	-1.238585	-0.599893
H262	H	1.575152	-0.738585	-0.099893
H263	H	0.900327	-0.948966	-0.612033
H264	H	1.400327	-0.448966	-0.112033
H265	H	0.926005	-0.778022	-0.586278
H266	H	1.426005	-0.278022	-0.086278
