data_functionalizedCrystal
_audit_creation_method	'MofGen! by Chris Wilmer'
_symmetry_space_group_name_H-M	'P1'
_symmetry_Int_Tables_number	1
_symmetry_cell_setting	triclinic
loop_
_symmetry_equiv_pos_as_xyz
  x,y,z
_cell_length_a	12.759401
_cell_length_b	14.908178
_cell_length_c	12.759393
_cell_angle_alpha	93.332413
_cell_angle_beta	90.018567
_cell_angle_gamma	93.313111
loop_
_atom_site_label
_atom_site_type_symbol
_atom_site_fract_x
_atom_site_fract_y
_atom_site_fract_z
Zn1	Zn	1.582096	-0.359159	0.569812
Zn2	Zn	1.571839	-0.510058	0.383977
Zn3	Zn	1.406395	-0.359203	0.394149
Zn4	Zn	1.396240	-0.509986	0.559623
O5	O	1.489143	-0.434601	0.476890
O6	O	1.727755	-0.379188	0.545168
O7	O	1.549850	-0.490096	0.238302
O8	O	1.438244	-0.232942	0.425972
O9	O	1.720220	-0.490053	0.408636
O10	O	1.567330	-0.232909	0.555031
O11	O	1.428298	-0.379263	0.245775
O12	O	1.258027	-0.379193	0.416092
O13	O	1.420937	-0.489930	0.707999
O14	O	1.250567	-0.489973	0.537665
O15	O	1.557484	-0.379117	0.715485
O16	O	1.540004	-0.636304	0.398756
O17	O	1.410992	-0.636251	0.527803
C18	C	1.216177	-0.434580	0.476877
C19	C	1.099399	-0.434593	0.476895
C20	C	1.048446	-0.376974	0.548084
C21	C	0.938721	-0.376992	0.548090
C22	C	0.930910	-0.492254	0.405713
C23	C	1.040634	-0.492231	0.405704
C24	C	1.052955	-0.310431	0.630287
C25	C	0.943230	-0.310448	0.630293
C26	C	1.473312	-0.669014	0.461093
C27	C	1.466635	-0.769297	0.454370
C28	C	1.588406	-0.957555	0.576270
C29	C	1.582137	-1.051779	0.569957
C30	C	1.447823	-1.051972	0.435436
C31	C	1.454092	-0.957747	0.441749
C32	C	1.524387	-0.910542	0.512168
C33	C	1.530661	-0.816316	0.518475
C34	C	1.396343	-0.816510	0.383960
C35	C	1.390073	-0.910735	0.377646
C36	C	1.763174	-0.434623	0.476904
C37	C	1.879950	-0.434633	0.476910
C38	C	1.489222	-0.434510	0.750930
C39	C	1.489256	-0.434472	0.867709
C40	C	1.505064	-0.199274	0.492773
C41	C	1.511848	-0.098991	0.499541
C42	C	1.489128	-0.434627	0.203921
C43	C	1.489315	-0.434412	0.087160
C44	C	1.560366	-0.376766	0.926471
C45	C	1.560393	-0.376734	1.036198
C46	C	1.418197	-0.492120	1.028390
C47	C	1.418166	-0.492147	0.918666
C48	C	1.642464	-0.310152	0.930980
C49	C	1.642492	-0.310119	1.040706
H50	H	1.087424	-0.240526	0.613338
H51	H	1.617844	-0.243729	1.079222
C52	C	1.589599	-1.157630	0.704200
C53	C	1.652507	-1.103458	0.640419
H54	H	1.633046	-1.189530	0.747707
H55	H	1.546852	-1.199226	0.661358
H56	H	1.546250	-1.120868	0.746803
H57	H	1.695852	-1.140221	0.597810
H58	H	1.695273	-1.061857	0.683266
C59	C	0.799348	-0.613625	0.382711
C60	C	0.866314	-0.555615	0.327468
H61	H	0.759477	-0.652746	0.334403
H62	H	0.753301	-0.579311	0.425097
H63	H	0.839857	-0.648171	0.426085
H64	H	0.825804	-0.521064	0.284100
H65	H	0.912366	-0.589933	0.285064
C66	C	1.066551	-0.288610	0.817833
C67	C	1.096671	-0.344309	0.732277
H68	H	1.093546	-0.309524	0.880796
H69	H	0.992130	-0.289786	0.821303
H70	H	1.093569	-0.228747	0.809430
H71	H	1.069647	-0.404171	0.740677
H72	H	1.171108	-0.343142	0.728808
C73	C	0.988976	-0.161917	0.575425
C74	C	0.903293	-0.220808	0.597179
H75	H	0.964317	-0.106578	0.554987
H76	H	1.029096	-0.187963	0.520119
H77	H	1.031616	-0.151259	0.636426
H78	H	0.860658	-0.231471	0.536176
H79	H	0.863157	-0.194756	0.652490
H80	H	1.344217	-0.778222	0.331760
C81	C	0.845073	-0.265286	0.782976
C82	C	0.901271	-0.335786	0.738364
H83	H	0.819151	-0.280913	0.849690
H84	H	0.787919	-0.254852	0.738432
H85	H	0.890046	-0.212283	0.791077
H86	H	0.856296	-0.388788	0.730256
H87	H	0.958433	-0.346231	0.782918
C88	C	1.205362	-0.543370	0.342464
C89	C	1.096644	-0.555561	0.327445
H90	H	1.239938	-0.582465	0.294143
H91	H	1.222475	-0.556650	0.412122
H92	H	1.227406	-0.482726	0.331295
H93	H	1.074599	-0.616203	0.338622
H94	H	1.079524	-0.542287	0.257770
H95	H	1.587902	-0.777882	0.575810
C96	C	1.720538	-0.966824	0.708608
C97	C	1.665668	-0.905660	0.653674
H98	H	1.768229	-0.934786	0.756400
H99	H	1.758310	-1.003571	0.660408
H100	H	1.672283	-1.003587	0.746285
H101	H	1.713922	-0.868902	0.615990
H102	H	1.627893	-0.868898	0.701881
H103	H	1.360316	-0.539075	1.069892
C104	C	1.378588	-1.196502	0.366030
C105	C	1.370566	-1.103871	0.358031
H106	H	1.330898	-1.228540	0.318236
H107	H	1.362136	-1.211898	0.435566
H108	H	1.448170	-1.211889	0.349696
H109	H	1.300985	-1.088482	0.374373
H110	H	1.387011	-1.088468	0.288480
H111	H	1.332838	-0.949182	0.320316
C112	C	1.277596	-0.606177	0.921976
C113	C	1.339985	-0.555564	0.854075
H114	H	1.229330	-0.645330	0.882097
H115	H	1.240099	-0.566846	0.967431
H116	H	1.321050	-0.640693	0.962437
H117	H	1.296531	-0.521043	0.813619
H118	H	1.377484	-0.594900	0.808601
C119	C	1.605453	-0.158600	0.986375
C120	C	1.619411	-0.215834	0.897147
H121	H	1.591214	-0.100377	0.965485
H122	H	1.667462	-0.154794	1.027987
H123	H	1.548204	-0.181810	1.026156
H124	H	1.676666	-0.192627	0.857369
H125	H	1.557395	-0.219636	0.855518
C126	C	1.816188	-0.350763	0.992824
C127	C	1.750630	-0.335395	1.079216
H128	H	1.882941	-0.366374	1.016600
H129	H	1.824196	-0.297757	0.955052
H130	H	1.785891	-0.398595	0.948238
H131	H	1.780923	-0.287558	1.123798
H132	H	1.742624	-0.388408	1.117004
H133	H	1.718051	-0.335202	0.895258
