data_functionalizedCrystal
_audit_creation_method	'MofGen! by Chris Wilmer'
_symmetry_space_group_name_H-M	'P1'
_symmetry_Int_Tables_number	1
_symmetry_cell_setting	triclinic
loop_
_symmetry_equiv_pos_as_xyz
  x,y,z
_cell_length_a	17.640112
_cell_length_b	21.295417
_cell_length_c	17.640968
_cell_angle_alpha	101.233941
_cell_angle_beta	87.860920
_cell_angle_gamma	101.255243
loop_
_atom_site_label
_atom_site_type_symbol
_atom_site_fract_x
_atom_site_fract_y
_atom_site_fract_z
Zn1	Zn	1.247775	-0.018088	0.195079
Zn2	Zn	1.747775	0.481912	0.695079
Zn3	Zn	1.221984	-0.147965	0.068090
Zn4	Zn	1.721984	0.352035	0.568090
Zn5	Zn	1.095101	-0.059037	0.093723
Zn6	Zn	1.595101	0.440963	0.593723
Zn7	Zn	1.120726	-0.139679	0.220672
Zn8	Zn	1.620726	0.360321	0.720672
O9	O	1.171397	-0.091192	0.144391
O10	O	1.671397	0.408808	0.644391
O11	O	1.350626	-0.021647	0.156795
O12	O	1.850626	0.478353	0.656795
O13	O	1.183635	-0.156774	-0.034784
O14	O	1.683635	0.343226	0.465216
O15	O	1.115422	0.034498	0.107185
O16	O	1.615422	0.534498	0.607185
O17	O	1.331677	-0.117067	0.063497
O18	O	1.831677	0.382933	0.563497
O19	O	1.227592	0.064584	0.181651
O20	O	1.727592	0.564584	0.681651
O21	O	1.090414	-0.091439	-0.015952
O22	O	1.590414	0.408561	0.484048
O23	O	0.992228	-0.083404	0.132001
O24	O	1.492228	0.416596	0.632001
O25	O	1.159098	-0.102944	0.323551
O26	O	1.659098	0.397056	0.823551
O27	O	1.011055	-0.142651	0.225270
O28	O	1.511055	0.357349	0.725270
O29	O	1.252440	-0.013611	0.304748
O30	O	1.752440	0.486389	0.804748
O31	O	1.208483	-0.234969	0.088313
O32	O	1.708483	0.265031	0.588313
O33	O	1.134089	-0.228881	0.200415
O34	O	1.634089	0.271119	0.700415
C35	C	0.974087	-0.116572	0.184195
C36	C	1.474087	0.383428	0.684195
C37	C	0.889681	-0.127442	0.201241
C38	C	1.389681	0.372558	0.701241
C39	C	0.563038	-0.008607	0.014898
C40	C	1.063038	0.491393	0.514898
C41	C	0.483727	-0.018831	0.030926
C42	C	0.983727	0.481169	0.530926
C43	C	0.503352	-0.080668	0.127879
C44	C	1.003352	0.419332	0.627879
C45	C	0.582667	-0.070447	0.111862
C46	C	1.082667	0.429553	0.611862
C47	C	0.612502	-0.034416	0.055370
C48	C	1.112502	0.465584	0.555370
C49	C	0.632131	-0.096256	0.152334
C50	C	1.132131	0.403744	0.652334
C51	C	0.711438	-0.086038	0.136315
C52	C	1.211438	0.413962	0.636315
C53	C	0.741280	-0.050010	0.079824
C54	C	1.241280	0.449990	0.579824
C55	C	0.691809	-0.024198	0.039351
C56	C	1.191809	0.475802	0.539351
C57	C	0.602293	-0.132290	0.208822
C58	C	1.102293	0.367710	0.708822
C59	C	0.651758	-0.158100	0.249294
C60	C	1.151758	0.341900	0.749294
C61	C	0.731067	-0.147878	0.233279
C62	C	1.231067	0.352122	0.733279
C63	C	0.760909	-0.111850	0.176788
C64	C	1.260909	0.388150	0.676788
C65	C	0.780538	-0.173690	0.273752
C66	C	1.280538	0.326310	0.773752
C67	C	0.859845	-0.163472	0.257733
C68	C	1.359845	0.336528	0.757733
C69	C	0.840216	-0.101632	0.160769
C70	C	1.340216	0.398368	0.660769
C71	C	1.171292	-0.254764	0.144372
C72	C	1.671292	0.245236	0.644372
C73	C	1.171322	-0.324726	0.144375
C74	C	1.671322	0.175274	0.644375
C75	C	1.229708	-0.341867	0.183190
C76	C	1.729708	0.158133	0.683190
C77	C	1.229738	-0.407603	0.183203
C78	C	1.729738	0.092397	0.683203
C79	C	1.171388	-0.456196	0.144387
C80	C	1.671388	0.043804	0.644387
C81	C	1.112992	-0.439049	0.105570
C82	C	1.612992	0.060951	0.605570
C83	C	1.112959	-0.373314	0.105565
C84	C	1.612959	0.126686	0.605565
N85	N	1.152210	-0.573067	0.079078
N86	N	1.652210	-0.073067	0.579078
N87	N	1.152247	-0.635511	0.079084
N88	N	1.652247	-0.135511	0.579084
C89	C	1.171484	-0.654253	0.144403
C90	C	1.671484	-0.154253	0.644403
N91	N	1.190699	-0.608189	0.209713
N92	N	1.690699	-0.108189	0.709713
N93	N	1.190666	-0.545738	0.209705
N94	N	1.690666	-0.045738	0.709705
C95	C	1.171418	-0.527477	0.144389
C96	C	1.671418	-0.027477	0.644389
C97	C	1.229906	-0.742671	0.183236
C98	C	1.729906	-0.242671	0.683236
C99	C	1.229932	-0.808408	0.183252
C100	C	1.729932	-0.308408	0.683252
C101	C	1.113189	-0.839854	0.105611
C102	C	1.613189	-0.339854	0.605611
C103	C	1.113160	-0.774117	0.105603
C104	C	1.613160	-0.274117	0.605603
C105	C	1.171523	-0.725529	0.144414
C106	C	1.671523	-0.225529	0.644414
C107	C	1.369477	-0.065713	0.104432
C108	C	1.869477	0.434287	0.604432
C109	C	1.453887	-0.054856	0.087404
C110	C	1.953887	0.445144	0.587404
C111	C	1.211504	-0.052786	0.342476
C112	C	1.711504	0.447214	0.842476
C113	C	1.228596	-0.036419	0.426888
C114	C	1.728596	0.463581	0.926888
C115	C	1.171526	0.073024	0.144422
C116	C	1.671526	0.573024	0.644422
C117	C	1.171581	0.143003	0.144436
C118	C	1.671581	0.643003	0.644436
C119	C	1.131488	-0.129398	-0.052932
C120	C	1.631488	0.370602	0.447068
C121	C	1.114544	-0.145568	-0.137374
C122	C	1.614544	0.354432	0.362626
C123	C	1.041845	-0.215147	0.753451
C124	C	1.541845	0.284853	1.253451
C125	C	1.057921	-0.199758	0.832766
C126	C	1.557921	0.300242	1.332766
C127	C	1.155110	-0.106744	0.813178
C128	C	1.655110	0.393256	1.313178
C129	C	1.139040	-0.122123	0.733860
C130	C	1.639040	0.377877	1.233860
C131	C	1.082407	-0.176326	0.704003
C132	C	1.582407	0.323674	1.204003
C133	C	1.179602	-0.083302	0.684412
C134	C	1.679602	0.416698	1.184412
C135	C	1.163535	-0.098682	0.605101
C136	C	1.663535	0.401318	1.105101
C137	C	1.106906	-0.152884	0.575238
C138	C	1.606906	0.347116	1.075238
C139	C	1.066340	-0.191706	0.624692
C140	C	1.566340	0.308294	1.124692
C141	C	1.236238	-0.029102	0.714270
C142	C	1.736238	0.470898	1.214270
C143	C	1.276800	0.009719	0.664822
C144	C	1.776800	0.509719	1.164822
C145	C	1.260729	-0.005659	0.585510
C146	C	1.760729	0.494341	1.085510
C147	C	1.204101	-0.059860	0.555647
C148	C	1.704101	0.440140	1.055647
C149	C	1.301296	0.033164	0.536056
C150	C	1.801296	0.533164	1.036056
C151	C	1.285229	0.017784	0.456745
C152	C	1.785229	0.517784	0.956745
C153	C	1.188034	-0.075240	0.476336
C154	C	1.688034	0.424760	0.976336
H155	H	0.443455	0.002194	-0.002031
H156	H	0.943455	0.502194	0.497969
N157	N	0.980763	-0.273610	0.721242
N158	N	1.480763	0.226390	1.221242
H159	H	0.976743	-0.277460	0.663496
H160	H	1.476743	0.222540	1.163496
H161	H	0.929342	-0.268097	0.746050
H162	H	1.429342	0.231903	1.246050
H163	H	1.141900	-0.119365	0.452029
H164	H	1.641900	0.380635	0.952029
H165	H	0.479048	-0.110007	0.173873
H166	H	0.979048	0.389993	0.673873
H167	H	0.864512	-0.072281	0.114779
H168	H	1.364512	0.427719	0.614779
H169	H	0.627454	-0.187438	0.295288
H170	H	1.127454	0.312562	0.795288
H171	H	0.537716	-0.140609	0.221862
H172	H	1.037716	0.359391	0.721862
N173	N	0.826817	-0.038993	0.062542
N174	N	1.326817	0.461007	0.562542
H175	H	0.856494	-0.014918	0.110801
H176	H	1.356494	0.485082	0.610801
H177	H	0.838144	-0.012273	0.020592
H178	H	1.338144	0.487727	0.520592
N179	N	0.595228	0.030262	-0.046027
N180	N	1.095228	0.530262	0.453973
H181	H	0.551860	0.045066	-0.069235
H182	H	1.051860	0.545066	0.430765
H183	H	0.620988	0.002094	-0.087871
H184	H	1.120988	0.502094	0.412129
H185	H	1.249319	-0.016583	0.778850
H186	H	1.749319	0.483417	1.278850
H187	H	1.318257	0.049396	0.416483
H188	H	1.818257	0.549396	0.916483
H189	H	1.065675	-0.879418	0.074012
H190	H	1.565675	-0.379418	0.574012
N191	N	1.292646	-0.289461	0.225056
N192	N	1.792646	0.210539	0.725056
H193	H	1.344543	-0.296157	0.202360
H194	H	1.844543	0.203843	0.702360
H195	H	1.291727	-0.291924	0.281689
H196	H	1.791727	0.208076	0.781689
N197	N	1.292846	-0.690266	0.225109
N198	N	1.792846	-0.190266	0.725109
H199	H	1.269060	-0.660159	0.266504
H200	H	1.769060	-0.160159	0.766504
H201	H	1.321793	-0.664471	0.187120
H202	H	1.821793	-0.164471	0.687120
H203	H	1.277278	-0.421561	0.214821
H204	H	1.777278	0.078439	0.714821
N205	N	0.748357	-0.212551	0.334681
N206	N	1.248357	0.287449	0.834681
H207	H	0.759736	-0.258042	0.320002
H208	H	1.259736	0.241958	0.820002
H209	H	0.690619	-0.215061	0.338660
H210	H	1.190619	0.284939	0.838660
N211	N	1.005253	-0.250166	0.592485
N212	N	1.505253	0.249834	1.092485
H213	H	1.019807	-0.290957	0.603898
H214	H	1.519807	0.209043	1.103898
H215	H	1.001261	-0.253957	0.534747
H216	H	1.501261	0.246043	1.034747
H217	H	1.347411	0.077292	0.560376
H218	H	1.847411	0.577292	1.060376
H219	H	0.900121	-0.184488	0.290691
H220	H	1.400121	0.315512	0.790691
H221	H	0.716105	0.005154	-0.006639
H222	H	1.216105	0.505154	0.493361
H223	H	1.065482	-0.478619	0.073968
H224	H	1.565482	0.021381	0.573968
H225	H	1.065413	-0.359360	0.073957
H226	H	1.565413	0.140640	0.573957
N227	N	1.292885	-0.826896	0.225152
N228	N	1.792885	-0.326896	0.725152
H229	H	1.329844	-0.786139	0.249744
H230	H	1.829844	-0.286139	0.749744
H231	H	1.321824	-0.855626	0.187197
H232	H	1.821824	-0.355626	0.687197
H233	H	1.065620	-0.760161	0.073993
H234	H	1.565620	-0.260161	0.573993
H235	H	1.093829	-0.165407	0.510657
H236	H	1.593829	0.334593	1.010657
H237	H	1.024887	-0.231375	0.873025
H238	H	1.524887	0.268625	1.373025
N239	N	1.216190	-0.048283	0.845378
N240	N	1.716190	0.451717	1.345378
H241	H	1.258032	-0.062958	0.871176
H242	H	1.758032	0.437042	1.371176
H243	H	1.191953	-0.016720	0.884486
H244	H	1.691953	0.483280	1.384486
H245	H	1.322912	0.053849	0.689142
H246	H	1.822912	0.553849	1.189142
