data_functionalizedCrystal
_audit_creation_method	'MofGen! by Chris Wilmer'
_symmetry_space_group_name_H-M	'P1'
_symmetry_Int_Tables_number	1
_symmetry_cell_setting	triclinic
loop_
_symmetry_equiv_pos_as_xyz
  x,y,z
_cell_length_a	16.120530
_cell_length_b	19.805399
_cell_length_c	19.805405
_cell_angle_alpha	90.030709
_cell_angle_beta	92.878235
_cell_angle_gamma	87.087090
loop_
_atom_site_label
_atom_site_type_symbol
_atom_site_fract_x
_atom_site_fract_y
_atom_site_fract_z
Zn1	Zn	1.274491	-0.435095	0.322008
Zn2	Zn	1.274393	-0.321900	0.435195
Zn3	Zn	1.135084	-0.316190	0.316283
Zn4	Zn	1.135033	-0.429318	0.429412
O5	O	1.204750	-0.375626	0.375725
O6	O	1.391143	-0.424887	0.341839
O7	O	1.255893	-0.226425	0.419446
O8	O	1.153639	-0.331991	0.222328
O9	O	1.391071	-0.341722	0.424997
O10	O	1.256061	-0.419350	0.226535
O11	O	1.153544	-0.222230	0.332081
O12	O	1.018412	-0.326390	0.326473
O13	O	1.153552	-0.524802	0.415140
O14	O	1.018374	-0.409505	0.409588
O15	O	1.256011	-0.529046	0.336231
O16	O	1.255844	-0.336121	0.529142
O17	O	1.153456	-0.415041	0.524893
C18	C	0.988143	-0.366701	0.366782
C19	C	0.895478	-0.362899	0.362973
C20	C	1.204787	-0.552170	0.375679
C21	C	1.204802	-0.627403	0.375660
C22	C	1.151524	-0.660563	0.330166
C23	C	1.151535	-0.731252	0.330153
C24	C	1.204830	-0.768780	0.375632
C25	C	1.258111	-0.735615	0.421131
C26	C	1.258094	-0.664927	0.421146
C27	C	1.258177	-1.020691	0.421070
C28	C	1.258191	-1.091384	0.421050
C29	C	1.151618	-1.087016	0.330077
C30	C	1.151602	-1.016328	0.330092
C31	C	1.204879	-0.983169	0.375593
C32	C	1.204864	-0.906520	0.375607
C33	C	1.204849	-0.845428	0.375615
C34	C	0.725817	-0.355963	0.356003
C35	C	0.684523	-0.395338	0.395496
C36	C	0.590118	-0.391479	0.391618
C37	C	0.820231	-0.359822	0.359880
C38	C	1.422203	-0.384586	0.384702
C39	C	1.514868	-0.388404	0.388528
C40	C	1.204656	-0.375589	0.551577
C41	C	1.204692	-0.375599	0.626810
C42	C	1.204762	-0.199770	0.375723
C43	C	1.204908	-0.124545	0.375558
C44	C	1.204867	-0.375678	0.199187
C45	C	1.204917	-0.375701	0.123957
C46	C	1.258057	-0.334553	0.664347
C47	C	1.258093	-0.334570	0.735036
C48	C	1.204758	-0.375629	0.768188
C49	C	1.151391	-0.416680	0.730647
C50	C	1.151361	-0.416667	0.659959
C51	C	1.151514	-0.416735	1.015725
C52	C	1.151547	-0.416744	1.086419
C53	C	1.258246	-0.334638	1.090803
C54	C	1.258216	-0.334625	1.020115
C55	C	1.204852	-0.375678	0.982580
C56	C	1.204815	-0.375661	0.905930
C57	C	1.204790	-0.375643	0.844837
H58	H	1.108130	-0.630013	0.293128
N59	N	1.312530	-0.631064	0.467616
N60	N	1.389464	-0.642130	0.466302
H61	H	1.427910	-0.618216	0.499125
N62	N	0.729098	-0.441257	0.441581
N63	N	0.690327	-0.478273	0.478720
H64	H	0.721809	-0.510701	0.511269
N65	N	0.681218	-0.310046	0.309937
N66	N	0.603480	-0.306940	0.306817
H67	H	0.571972	-0.274510	0.274285
N68	N	1.097103	-0.765113	0.283681
N69	N	1.049524	-0.731598	0.243077
H70	H	1.011076	-0.755512	0.210255
N71	N	1.312536	-0.292601	0.630496
N72	N	1.360179	-0.255956	0.664023
H73	H	1.398658	-0.226326	0.640118
H74	H	1.301549	-0.993701	0.458127
N75	N	1.312538	-0.773956	0.467587
N76	N	1.312547	-0.837069	0.467568
H77	H	1.350988	-0.864148	0.500379
N78	N	1.096910	-0.458631	0.764497
N79	N	1.102385	-0.521314	0.756778
H80	H	1.063904	-0.550943	0.780682
H81	H	1.301547	-0.301145	0.765596
N82	N	1.096860	-0.458594	0.621603
N83	N	1.126146	-0.502943	0.583317
H84	H	1.087657	-0.532557	0.556228
N85	N	1.312695	-0.292675	0.986262
N86	N	1.360340	-0.256028	1.019786
H87	H	1.398819	-0.226401	0.995879
N88	N	1.312753	-0.292706	1.129156
N89	N	1.312777	-0.292720	1.192270
H90	H	1.351268	-0.263104	1.219356
N91	N	1.097013	-0.458678	0.977396
N92	N	1.102503	-0.521364	0.985481
H93	H	1.064009	-0.550990	0.958410
N94	N	1.097163	-0.978006	0.283628
N95	N	1.049595	-1.007622	0.243011
H96	H	1.011144	-0.980558	0.210196
N97	N	1.097201	-1.120898	0.283601
N98	N	1.097219	-1.184012	0.283590
H99	H	1.058790	-1.207942	0.250765
H100	H	1.108117	-0.450185	1.113409
H101	H	1.301591	-1.121937	0.458087
