data_functionalizedCrystal
_audit_creation_method	'MofGen! by Chris Wilmer'
_symmetry_space_group_name_H-M	'P1'
_symmetry_Int_Tables_number	1
_symmetry_cell_setting	triclinic
loop_
_symmetry_equiv_pos_as_xyz
  x,y,z
_cell_length_a	14.519709
_cell_length_b	12.996460
_cell_length_c	14.519709
_cell_angle_alpha	90.007090
_cell_angle_beta	96.319855
_cell_angle_gamma	90.000034
loop_
_atom_site_label
_atom_site_type_symbol
_atom_site_fract_x
_atom_site_fract_y
_atom_site_fract_z
O1	O	1.223869	-0.085435	-0.120893
O2	O	0.955392	-0.085467	-0.135129
O3	O	1.096749	-0.085441	0.006227
O4	O	1.082512	-0.085461	-0.262250
O5	O	1.096734	0.085693	0.006235
O6	O	0.955377	0.085667	-0.135122
O7	O	1.223854	0.085699	-0.120885
Cu8	Cu	1.089614	0.101309	-0.128003
Cu9	Cu	1.089632	-0.101077	-0.128012
O10	O	1.082497	0.085673	-0.262242
C11	C	0.921025	0.000096	-0.134462
C12	C	0.818643	0.000084	-0.132474
N13	N	1.089609	0.243656	-0.127996
N14	N	1.089644	-0.243424	-0.128012
C15	C	0.443748	0.000132	-0.125154
C16	C	0.548056	0.000118	-0.127187
C17	C	0.631192	0.000107	-0.128814
C18	C	0.735507	0.000095	-0.130847
C19	C	1.258221	0.000134	-0.121553
C20	C	1.360602	0.000139	-0.123541
C21	C	1.096078	0.000126	0.040591
C22	C	1.094090	0.000126	0.142972
C23	C	1.089630	0.663470	-0.128013
C24	C	1.089622	0.546665	-0.128011
C25	C	1.089620	0.453567	-0.128005
C26	C	1.089610	0.336754	-0.128002
C27	C	1.083168	0.000103	-0.296605
C28	C	1.085156	0.000096	-0.398987
C29	C	1.086770	0.000099	0.517868
C30	C	1.088803	0.000107	0.413560
C31	C	1.090430	0.000114	0.330423
C32	C	1.092463	0.000120	0.226109
