data_functionalizedCrystal
_audit_creation_method	'MofGen! by Chris Wilmer'
_symmetry_space_group_name_H-M	'P1'
_symmetry_Int_Tables_number	1
_symmetry_cell_setting	triclinic
loop_
_symmetry_equiv_pos_as_xyz
  x,y,z
_cell_length_a	21.295420
_cell_length_b	21.295417
_cell_length_c	10.686551
_cell_angle_alpha	94.412210
_cell_angle_beta	94.397452
_cell_angle_gamma	90.026289
loop_
_atom_site_label
_atom_site_type_symbol
_atom_site_fract_x
_atom_site_fract_y
_atom_site_fract_z
Zn1	Zn	0.989667	-0.223330	0.713459
Zn2	Zn	1.489667	0.276670	1.213459
Zn3	Zn	0.981491	-0.336693	0.502426
Zn4	Zn	1.481491	0.163307	1.002426
Zn5	Zn	0.876313	-0.231432	0.502465
Zn6	Zn	1.376313	0.268568	1.002465
Zn7	Zn	0.884356	-0.328561	0.713373
Zn8	Zn	1.384356	0.171439	1.213373
O9	O	0.932957	-0.280004	0.607931
O10	O	1.432957	0.219996	1.107931
O11	O	1.076673	-0.238380	0.685485
O12	O	1.576673	0.261620	1.185485
O13	O	0.960751	-0.329524	0.325848
O14	O	1.460751	0.170476	0.825848
O15	O	0.891406	-0.142266	0.530507
O16	O	1.391406	0.357734	1.030507
O17	O	1.070666	-0.321667	0.530440
O18	O	1.570666	0.178333	1.030440
O19	O	0.974686	-0.136313	0.685523
O20	O	1.474686	0.363687	1.185523
O21	O	0.883478	-0.252189	0.325877
O22	O	1.383478	0.247811	0.825877
O23	O	0.789290	-0.244304	0.530423
O24	O	1.289290	0.255696	1.030423
O25	O	0.905114	-0.307807	0.889968
O26	O	1.405114	0.192193	1.389968
O27	O	0.795199	-0.315664	0.685376
O28	O	1.295199	0.184336	1.185376
O29	O	0.982485	-0.230495	0.890031
O30	O	1.482485	0.269505	1.390031
O31	O	0.968550	-0.423705	0.530356
O32	O	1.468550	0.076295	1.030356
O33	O	0.897186	-0.417731	0.685338
O34	O	1.397186	0.082269	1.185338
C35	C	0.769404	-0.279981	0.607895
C36	C	1.269404	0.220019	1.107895
C37	C	0.699436	-0.279985	0.607910
C38	C	1.199436	0.220015	1.107910
C39	C	0.932872	-0.443558	0.607861
C40	C	1.432872	0.056442	1.107861
C41	C	0.932894	-0.513526	0.607873
C42	C	1.432894	-0.013526	1.107873
C43	C	0.203112	-0.236725	0.688813
C44	C	0.703112	0.263275	1.188813
C45	C	0.268855	-0.236721	0.688813
C46	C	0.768855	0.263279	1.188813
C47	C	0.298599	-0.280022	0.607960
C48	C	0.798599	0.219978	1.107960
C49	C	0.262596	-0.323342	0.527125
C50	C	0.762596	0.176658	1.027125
C51	C	0.196855	-0.323349	0.527136
C52	C	0.696855	0.176651	1.027136
N53	N	0.397559	-0.289004	0.497468
N54	N	0.897559	0.210996	0.997468
N55	N	0.460010	-0.288993	0.497461
N56	N	0.960010	0.211007	0.997461
C57	C	0.496672	-0.280003	0.607923
C58	C	0.996672	0.219997	1.107923
N59	N	0.468524	-0.271011	0.718396
N60	N	0.968524	0.228989	1.218396
N61	N	0.406067	-0.271019	0.718402
N62	N	0.906067	0.228981	1.218402
C63	C	0.369883	-0.280019	0.607940
C64	C	0.869883	0.219981	1.107940
C65	C	0.603953	-0.236683	0.688760
C66	C	1.103953	0.263317	1.188760
C67	C	0.669697	-0.236683	0.688762
C68	C	1.169697	0.263317	1.188762
C69	C	0.663436	-0.323301	0.527062
C70	C	1.163436	0.176699	1.027062
C71	C	0.597694	-0.323304	0.527072
C72	C	1.097694	0.176696	1.027072
C73	C	0.567956	-0.279992	0.607919
C74	C	1.067956	0.220008	1.107919
C75	C	0.970093	-0.549479	0.527257
C76	C	1.470093	-0.049479	1.027257
C77	C	0.970123	-0.615221	0.527286
C78	C	1.470123	-0.115221	1.027286
C79	C	0.932944	-0.645007	0.607917
C80	C	1.432944	-0.145007	1.107917
C81	C	0.895743	-0.609045	0.688549
C82	C	1.395743	-0.109045	1.188549
C83	C	0.895719	-0.543304	0.688527
C84	C	1.395719	-0.043304	1.188527
N85	N	0.878245	-0.747900	0.617525
N86	N	1.378245	-0.247900	1.117525
N87	N	0.878270	-0.810351	0.617538
N88	N	1.378270	-0.310351	1.117538
C89	C	0.933017	-0.843079	0.607989
C90	C	1.433017	-0.343079	1.107989
N91	N	0.987739	-0.810997	0.598402
N92	N	1.487739	-0.310997	1.098402
N93	N	0.987713	-0.748541	0.598382
N94	N	1.487713	-0.248541	1.098382
C95	C	0.932967	-0.716291	0.607950
C96	C	1.432967	-0.216291	1.107950
C97	C	0.970252	-0.950317	0.527399
C98	C	1.470252	-0.450317	1.027399
C99	C	0.970284	-1.016059	0.527437
C100	C	1.470284	-0.516059	1.027437
C101	C	0.895898	-1.009882	0.688693
C102	C	1.395898	-0.509882	1.188693
C103	C	0.895872	-0.944140	0.688663
C104	C	1.395872	-0.444140	1.188663
C105	C	0.933048	-0.914362	0.608009
C106	C	1.433048	-0.414362	1.108009
C107	C	1.097149	-0.280027	0.607968
C108	C	1.597149	0.219973	1.107968
C109	C	1.167117	-0.280037	0.607983
C110	C	1.667117	0.219963	1.107983
C111	C	0.945609	-0.267340	0.937066
C112	C	1.445609	0.232660	1.437066
C113	C	0.951000	-0.261944	1.077324
C114	C	1.451000	0.238056	1.577324
C115	C	0.933061	-0.115810	0.608029
C116	C	1.433061	0.384190	1.108029
C117	C	0.933105	-0.045840	0.608070
C118	C	1.433105	0.454160	1.108070
C119	C	0.920391	-0.292573	0.280076
C120	C	1.420391	0.207427	0.780076
C121	C	0.915121	-0.297792	0.139819
C122	C	1.415121	0.202208	0.639819
H123	H	0.178904	-0.201460	0.754650
H124	H	0.678904	0.298540	1.254650
C125	C	0.868048	-0.344832	1.067145
C126	C	1.368048	0.155168	1.567145
N127	N	0.832592	-0.380262	1.012398
N128	N	1.332592	0.119738	1.512398
H129	H	0.699003	-0.201415	0.754592
H130	H	1.199003	0.298585	1.254592
H131	H	0.985847	-0.227124	1.131126
H132	H	1.485847	0.272876	1.631126
C133	C	0.157259	-0.370993	0.438202
C134	C	0.657259	0.129007	0.938202
N135	N	0.127434	-0.406876	0.371211
N136	N	0.627434	0.093124	0.871211
C137	C	0.308456	-0.189070	0.777729
C138	C	0.808456	0.310930	1.277729
N139	N	0.338283	-0.153177	0.844699
N140	N	0.838283	0.346823	1.344699
C141	C	0.295316	-0.370971	0.438182
C142	C	0.795316	0.129029	0.938182
N143	N	0.319960	-0.406847	0.371188
N144	N	0.819960	0.093153	0.871188
H145	H	0.865473	-0.633300	0.754202
H146	H	1.365473	-0.133300	1.254202
H147	H	0.687654	-0.358562	0.461241
H148	H	1.187654	0.141438	0.961241
C149	C	1.011043	-0.654778	0.438591
C150	C	1.511043	-0.154778	0.938591
N151	N	1.041861	-0.684570	0.371783
N152	N	1.541861	-0.184570	0.871783
H153	H	0.579739	-0.201416	0.754590
H154	H	1.079739	0.298584	1.254590
C155	C	0.558097	-0.370943	0.438133
C156	C	1.058097	0.129057	0.938133
N157	N	0.528273	-0.406826	0.371139
N158	N	1.028273	0.093174	0.871139
H159	H	0.865427	-0.514030	0.754176
H160	H	1.365427	-0.014030	1.254176
C161	C	1.010980	-0.516728	0.438522
C162	C	1.510980	-0.016728	0.938522
N163	N	1.041774	-0.492058	0.371680
N164	N	1.541774	0.007942	0.871680
H165	H	1.000525	-0.926070	0.461730
H166	H	1.500525	-0.426070	0.961730
H167	H	1.000579	-1.045331	0.461792
H168	H	1.500579	-0.545331	0.961792
H169	H	0.865629	-1.034132	0.754351
H170	H	1.365629	-0.534132	1.254351
H171	H	0.865579	-0.914865	0.754303
H172	H	1.365579	-0.414865	1.254303
