data_functionalizedCrystal
_audit_creation_method	'MofGen! by Chris Wilmer'
_symmetry_space_group_name_H-M	'P1'
_symmetry_Int_Tables_number	1
_symmetry_cell_setting	triclinic
loop_
_symmetry_equiv_pos_as_xyz
  x,y,z
_cell_length_a	10.540539
_cell_length_b	10.540539
_cell_length_c	12.996460
_cell_angle_alpha	89.996006
_cell_angle_beta	89.996491
_cell_angle_gamma	84.525492
loop_
_atom_site_label
_atom_site_type_symbol
_atom_site_fract_x
_atom_site_fract_y
_atom_site_fract_z
O1	O	1.685889	0.178903	-0.085513
O2	O	2.185889	0.678903	0.414487
O3	O	1.316476	0.195759	-0.085525
O4	O	1.816476	0.695759	0.414475
O5	O	1.509610	0.002624	-0.085518
O6	O	2.009610	0.502624	0.414482
O7	O	1.492755	0.372037	-0.085521
O8	O	1.992755	0.872037	0.414479
O9	O	1.509590	0.002613	0.085616
O10	O	2.009590	0.502613	0.585616
O11	O	1.316456	0.195748	0.085609
O12	O	1.816456	0.695748	0.585609
O13	O	1.685869	0.178892	0.085621
O14	O	2.185869	0.678892	0.585621
Cu15	Cu	1.501160	0.187319	0.101241
Cu16	Cu	2.001160	0.687319	0.601241
Cu17	Cu	1.501184	0.187332	-0.101145
Cu18	Cu	2.001184	0.687332	0.398855
O19	O	1.492734	0.372026	0.085613
O20	O	1.992734	0.872026	0.585613
C21	C	1.269163	0.194489	0.000040
C22	C	1.769163	0.694489	0.500040
C23	C	1.128215	0.190707	0.000035
C24	C	1.628215	0.690707	0.500035
C25	C	0.944788	0.045790	0.000436
C26	C	1.444788	0.545790	0.500436
C27	C	1.091406	0.049624	0.000040
C28	C	1.591406	0.549624	0.500040
C29	C	1.066554	0.258609	-0.097687
C30	C	1.566554	0.758609	0.402313
C31	C	0.920009	0.253794	-0.097758
C32	C	1.420009	0.753794	0.402242
C33	C	0.919498	0.256652	0.096853
C34	C	1.419498	0.756652	0.596853
C35	C	1.066480	0.257951	0.098134
C36	C	1.566480	0.757951	0.598134
C37	C	1.508336	-0.044684	0.000047
C38	C	2.008336	0.455316	0.500047
C39	C	1.504554	-0.185632	0.000042
C40	C	2.004554	0.314368	0.500042
C41	C	1.359637	-0.369059	-0.000347
C42	C	1.859637	0.130941	0.499653
C43	C	1.363471	-0.222441	0.000038
C44	C	1.863471	0.277559	0.500038
C45	C	1.572438	-0.247296	0.097770
C46	C	2.072438	0.252704	0.597770
C47	C	1.567623	-0.393841	0.097852
C48	C	2.067623	0.106159	0.597852
C49	C	1.570516	-0.394346	-0.096759
C50	C	2.070516	0.105654	0.403241
C51	C	1.571815	-0.247364	-0.098051
C52	C	2.071815	0.252636	0.401949
C53	C	1.733182	0.180161	0.000053
C54	C	2.233182	0.680161	0.500053
C55	C	1.874130	0.183943	0.000051
C56	C	2.374130	0.683943	0.500051
C57	C	1.494008	0.419335	0.000046
C58	C	1.994008	0.919335	0.500046
C59	C	1.497790	0.560283	0.000045
C60	C	1.997790	1.060283	0.500045
N61	N	1.501153	0.187309	0.243588
N62	N	2.001153	0.687309	0.743588
N63	N	1.501202	0.187332	-0.243492
N64	N	2.001202	0.687332	0.256508
C65	C	1.501183	0.187333	0.663402
C66	C	2.001183	0.687333	1.163402
C67	C	1.501171	0.187331	0.546597
C68	C	2.001171	0.687331	1.046597
C69	C	1.501168	0.187322	0.453498
C70	C	2.001168	0.687322	0.953498
C71	C	1.501155	0.187318	0.336686
C72	C	2.001155	0.687318	0.836686
H73	H	0.887943	0.210989	0.170926
H74	H	1.387943	0.710989	0.670926
O75	O	1.705497	-0.456905	-0.097623
O76	O	2.205497	0.043095	0.402377
H77	H	1.773096	-0.382417	-0.095101
H78	H	2.273096	0.117583	0.404899
O79	O	1.709678	-0.217688	0.102600
O80	O	2.209678	0.282312	0.602600
H81	H	1.725581	-0.164774	0.174569
H82	H	2.225581	0.335226	0.674569
H83	H	0.916194	-0.009950	0.070519
H84	H	1.416194	0.490050	0.570519
O85	O	1.292713	-0.165996	-0.092756
O86	O	1.792713	0.334004	0.407244
H87	H	1.295389	-0.060983	-0.092576
H88	H	1.795389	0.439017	0.407424
H89	H	1.524863	-0.425895	-0.170830
H90	H	2.024863	0.074105	0.329170
H91	H	1.109151	0.211449	-0.170414
H92	H	1.609151	0.711449	0.329586
O93	O	1.501136	-0.431202	0.194611
O94	O	2.001136	0.068798	0.694611
H95	H	1.566862	-0.497854	0.240217
H96	H	2.066862	0.002146	0.740217
O97	O	1.506127	-0.193137	-0.193827
O98	O	2.006127	0.306863	0.306173
H99	H	1.425911	-0.122505	-0.171671
H100	H	1.925911	0.377495	0.328329
H101	H	1.669088	-0.441809	0.102289
H102	H	2.169088	0.058191	0.602289
O103	O	1.120727	0.192246	0.193898
O104	O	1.620727	0.692246	0.693898
H105	H	1.099947	0.090982	0.193112
H106	H	1.599947	0.590982	0.693112
H107	H	1.309664	-0.180689	0.070207
H108	H	1.809664	0.319311	0.570207
O109	O	1.286100	-0.409070	0.091961
O110	O	1.786100	0.090930	0.591961
H111	H	1.188728	-0.358649	0.090937
H112	H	1.688728	0.141351	0.590937
H113	H	1.525266	-0.204701	0.170493
H114	H	2.025266	0.295299	0.670493
H115	H	1.134012	-0.003803	0.070092
H116	H	1.634012	0.496197	0.570092
O117	O	1.098568	0.394199	0.105965
O118	O	1.598568	0.894199	0.605965
H119	H	1.159279	0.416218	0.039759
H120	H	1.659279	0.916218	0.539759
O121	O	1.708073	-0.215297	-0.105872
O122	O	2.208073	0.284703	0.394128
H123	H	1.730083	-0.154596	-0.039666
H124	H	2.230083	0.345404	0.460334
H125	H	1.303914	-0.397655	-0.070430
H126	H	1.803914	0.102345	0.429570
H127	H	0.872271	0.358555	0.097512
H128	H	1.372271	0.858555	0.597512
H129	H	1.133160	-0.004171	-0.070133
H130	H	1.633160	0.495829	0.429867
O131	O	0.904783	-0.027742	-0.091865
O132	O	1.404783	0.472258	0.408135
H133	H	0.834798	0.033683	-0.138016
H134	H	1.334798	0.533683	0.361984
H135	H	0.891808	0.203618	-0.170806
H136	H	1.391808	0.703618	0.329194
O137	O	1.096165	0.395849	-0.102505
O138	O	1.596165	0.895849	0.397495
H139	H	1.005838	0.459260	-0.101426
H140	H	1.505838	0.959260	0.398574
H141	H	0.872041	0.355259	-0.102195
H142	H	1.372041	0.855259	0.397805
