data_functionalizedCrystal
_audit_creation_method	'MofGen! by Chris Wilmer'
_symmetry_space_group_name_H-M	'P1'
_symmetry_Int_Tables_number	1
_symmetry_cell_setting	triclinic
loop_
_symmetry_equiv_pos_as_xyz
  x,y,z
_cell_length_a	18.215399
_cell_length_b	18.215407
_cell_length_c	18.215405
_cell_angle_alpha	89.975194
_cell_angle_beta	89.969449
_cell_angle_gamma	90.020595
loop_
_atom_site_label
_atom_site_type_symbol
_atom_site_fract_x
_atom_site_fract_y
_atom_site_fract_z
Zn1	Zn	-0.416118	-1.125072	-0.292993
Zn2	Zn	-0.082784	-0.791739	0.040340
Zn3	Zn	0.250549	-0.458405	0.373673
Zn4	Zn	-0.293046	-1.124980	-0.416065
Zn5	Zn	0.040288	-0.791647	-0.082731
Zn6	Zn	0.373621	-0.458314	0.250602
Zn7	Zn	-0.293063	-1.002005	-0.293016
Zn8	Zn	0.040270	-0.668671	0.040317
Zn9	Zn	0.373603	-0.335338	0.373650
Zn10	Zn	-0.416069	-1.001970	-0.416023
Zn11	Zn	-0.082736	-0.668637	-0.082689
Zn12	Zn	0.250598	-0.335304	0.250644
O13	O	-0.354574	-1.063507	-0.354524
O14	O	-0.021241	-0.730173	-0.021191
O15	O	0.312093	-0.396840	0.312142
O16	O	-0.399805	-1.228044	-0.309327
O17	O	-0.066471	-0.894711	0.024006
O18	O	0.266862	-0.561377	0.357340
O19	O	-0.190064	-1.108643	-0.399769
O20	O	0.143270	-0.775310	-0.066436
O21	O	0.476603	-0.441977	0.266897
O22	O	-0.309414	-1.018382	-0.190029
O23	O	0.023919	-0.685049	0.143304
O24	O	0.357252	-0.351716	0.476638
O25	O	-0.309384	-1.227977	-0.399747
O26	O	0.023949	-0.894643	-0.066414
O27	O	0.357282	-0.561310	0.266920
O28	O	-0.399822	-1.108799	-0.190012
O29	O	-0.066488	-0.775466	0.143321
O30	O	0.266845	-0.442133	0.476655
O31	O	-0.190077	-1.018293	-0.309366
O32	O	0.143257	-0.684960	0.023967
O33	O	0.476590	-0.351627	0.357301
O34	O	-0.309367	-0.899016	-0.309325
O35	O	0.023966	-0.565682	0.024008
O36	O	0.357299	-0.232349	0.357341
O37	O	-0.519060	-1.018324	-0.399675
O38	O	-0.185726	-0.684991	-0.066342
O39	O	0.147607	-0.351657	0.266991
O40	O	-0.399739	-0.898991	-0.399697
O41	O	-0.066406	-0.565657	-0.066364
O42	O	0.266928	-0.232324	0.266969
O43	O	-0.519095	-1.108766	-0.309286
O44	O	-0.185762	-0.775433	0.024047
O45	O	0.147571	-0.442100	0.357380
O46	O	-0.309337	-1.108610	-0.519043
O47	O	0.023996	-0.775277	-0.185710
O48	O	0.357329	-0.441944	0.147623
O49	O	-0.399722	-1.018235	-0.519012
O50	O	-0.066389	-0.684902	-0.185679
O51	O	0.266945	-0.351569	0.147654
C52	C	-0.354550	-0.872301	-0.354510
C53	C	-0.021217	-0.538967	-0.021177
C54	C	0.312116	-0.205634	0.312157
C55	C	-0.354558	-0.790502	-0.354521
C56	C	-0.021224	-0.457168	-0.021188
C57	C	0.312109	-0.123835	0.312145
C58	C	-0.546527	-1.063552	-0.354473
C59	C	-0.213194	-0.730218	-0.021140
C60	C	0.120140	-0.396885	0.312193
C61	C	-0.628326	-1.063571	-0.354452
C62	C	-0.294992	-0.730237	-0.021119
C63	C	0.038341	-0.396904	0.312215
C64	C	-0.401553	-0.602314	-0.401650
C65	C	-0.068219	-0.268981	-0.068317
C66	C	0.265114	0.064353	0.265016
C67	C	-0.401561	-0.525455	-0.401652
C68	C	-0.068227	-0.192122	-0.068319
C69	C	0.265106	0.141211	0.265015
C70	C	-0.307598	-0.525452	-0.307402
C71	C	0.025735	-0.192118	0.025931
C72	C	0.359069	0.141215	0.359265
C73	C	-0.307594	-0.602309	-0.307397
C74	C	0.025739	-0.268976	0.025936
C75	C	0.359073	0.064358	0.359269
C76	C	-0.354570	-0.640738	-0.354526
C77	C	-0.021237	-0.307405	-0.021192
C78	C	0.312096	0.025929	0.312141
C79	C	-0.354582	-0.487022	-0.354532
C80	C	-0.021249	-0.153689	-0.021199
C81	C	0.312084	0.179645	0.312135
C82	C	-0.354591	-0.403688	-0.354533
C83	C	-0.021257	-0.070355	-0.021200
C84	C	0.312076	0.262978	0.312133
C85	C	-0.354563	-0.724077	-0.354524
C86	C	-0.021230	-0.390744	-0.021190
C87	C	0.312104	-0.057410	0.312143
C88	C	-0.816540	-1.110681	-0.307342
C89	C	-0.483206	-0.777348	0.025991
C90	C	-0.149873	-0.444014	0.359324
C91	C	-0.893398	-1.110690	-0.307321
C92	C	-0.560065	-0.777356	0.026012
C93	C	-0.226732	-0.444023	0.359346
C94	C	-0.893350	-1.016513	-0.401448
C95	C	-0.560017	-0.683179	-0.068114
C96	C	-0.226683	-0.349846	0.265219
C97	C	-0.816493	-1.016501	-0.401465
C98	C	-0.483159	-0.683167	-0.068131
C99	C	-0.149826	-0.349834	0.265202
C100	C	-0.778089	-1.063589	-0.354413
C101	C	-0.444756	-0.730256	-0.021080
C102	C	-0.111423	-0.396922	0.312253
C103	C	-0.931806	-1.063610	-0.354375
C104	C	-0.598472	-0.730276	-0.021041
C105	C	-0.265139	-0.396943	0.312292
C106	C	-1.015139	-1.063619	-0.354352
C107	C	-0.681806	-0.730286	-0.021018
C108	C	-0.348473	-0.396952	0.312315
C109	C	-0.694750	-1.063579	-0.354435
C110	C	-0.361417	-0.730246	-0.021102
C111	C	-0.028084	-0.396912	0.312232
C112	C	-0.163368	-1.063504	-0.354522
C113	C	0.169966	-0.730171	-0.021188
C114	C	0.503299	-0.396838	0.312145
C115	C	-0.081569	-1.063628	-0.354336
C116	C	0.251764	-0.730295	-0.021003
C117	C	0.585098	-0.396961	0.312331
C118	C	-0.354538	-1.063429	-0.545731
C119	C	-0.021205	-0.730096	-0.212397
C120	C	0.312128	-0.396762	0.120936
C121	C	-0.354548	-1.063463	-0.627529
C122	C	-0.021215	-0.730130	-0.294196
C123	C	0.312119	-0.396797	0.039137
C124	C	-0.354595	-0.255460	-0.354537
C125	C	-0.021261	0.077874	-0.021204
C126	C	0.312072	0.411207	0.312130
C127	C	-0.354595	-0.337259	-0.354536
C128	C	-0.021262	-0.003925	-0.021203
C129	C	0.312072	0.329408	0.312130
C130	C	-0.307571	-1.110632	-0.815715
C131	C	0.025762	-0.777299	-0.482382
C132	C	0.359095	-0.443965	-0.149048
C133	C	-0.307589	-1.110665	-0.892574
C134	C	0.025744	-0.777331	-0.559240
C135	C	0.359078	-0.443998	-0.225907
C136	C	-0.401629	-1.016476	-0.892581
C137	C	-0.068296	-0.683143	-0.559248
C138	C	0.265037	-0.349809	-0.225915
C139	C	-0.401615	-1.016447	-0.815724
C140	C	-0.068281	-0.683114	-0.482391
C141	C	0.265052	-0.349781	-0.149057
C142	C	-0.354581	-1.063524	-0.777293
C143	C	-0.021248	-0.730191	-0.443960
C144	C	0.312085	-0.396857	-0.110626
C145	C	-0.354614	-1.063586	-0.931009
C146	C	-0.021281	-0.730252	-0.597676
C147	C	0.312053	-0.396919	-0.264342
C148	C	-0.354634	-1.063621	-1.014343
C149	C	-0.021300	-0.730288	-0.681009
C150	C	0.312033	-0.396954	-0.347676
C151	C	-0.354563	-1.063490	-0.693954
C152	C	-0.021229	-0.730157	-0.360621
C153	C	0.312104	-0.396823	-0.027287
C154	C	-0.354625	-1.063605	-0.162571
C155	C	-0.021292	-0.730272	0.170762
C156	C	0.312041	-0.396938	0.504095
C157	C	-0.354648	-1.063647	-0.080772
C158	C	-0.021314	-0.730313	0.252561
C159	C	0.312019	-0.396980	0.585894
H160	H	-0.439819	-0.494174	-0.440025
H161	H	-0.106486	-0.160840	-0.106691
H162	H	0.226847	0.172493	0.226642
N163	N	-0.934784	-0.965736	-0.452193
N164	N	-0.601451	-0.632403	-0.118859
N165	N	-0.268117	-0.299070	0.214474
H166	H	-0.921398	-0.977135	-0.504780
H167	H	-0.588065	-0.643802	-0.171447
H168	H	-0.254732	-0.310469	0.161887
H169	H	-0.921391	-0.913176	-0.440701
H170	H	-0.588058	-0.579843	-0.107368
H171	H	-0.254724	-0.246509	0.225966
H172	H	-0.269351	-0.494153	-0.269033
H173	H	0.063983	-0.160820	0.064300
H174	H	0.397316	0.172513	0.397634
N175	N	-0.452318	-0.965636	-0.774273
N176	N	-0.118985	-0.632303	-0.440940
N177	N	0.214348	-0.298970	-0.107606
H178	H	-0.504915	-0.977036	-0.787600
H179	H	-0.171582	-0.643703	-0.454267
H180	H	0.161752	-0.310370	-0.120933
H181	H	-0.440777	-0.913085	-0.787712
H182	H	-0.107444	-0.579752	-0.454379
H183	H	0.225890	-0.246419	-0.121045
N184	N	-0.775014	-0.965691	-0.452222
N185	N	-0.441681	-0.632358	-0.118888
N186	N	-0.108348	-0.299025	0.214445
H187	H	-0.811004	-0.935863	-0.482026
H188	H	-0.477670	-0.602529	-0.148692
H189	H	-0.144337	-0.269196	0.184641
H190	H	-0.743113	-0.995615	-0.486290
H191	H	-0.409780	-0.662281	-0.152957
H192	H	-0.076446	-0.328948	0.180376
N193	N	-0.452217	-0.643764	-0.452478
N194	N	-0.118884	-0.310431	-0.119145
N195	N	0.214449	0.022902	0.214188
H196	H	-0.481982	-0.607757	-0.482331
H197	H	-0.148649	-0.274424	-0.148998
H198	H	0.184685	0.058910	0.184336
H199	H	-0.486326	-0.675679	-0.422563
H200	H	-0.152993	-0.342346	-0.089230
H201	H	0.180340	-0.009012	0.244103
H202	H	-0.269275	-1.148966	-0.784426
H203	H	0.064058	-0.815632	-0.451093
H204	H	0.397392	-0.482299	-0.117759
N205	N	-0.256876	-1.161467	-0.934013
N206	N	0.076457	-0.828133	-0.600679
N207	N	0.409790	-0.494800	-0.267346
H208	H	-0.264021	-1.154345	-0.988534
H209	H	0.069312	-0.821011	-0.655200
H210	H	0.402646	-0.487678	-0.321867
H211	H	-0.268374	-1.214015	-0.920526
H212	H	0.064959	-0.880681	-0.587193
H213	H	0.398292	-0.547348	-0.253860
N214	N	-0.256918	-0.643765	-0.256572
N215	N	0.076416	-0.310432	0.076761
N216	N	0.409749	0.022902	0.410094
H217	H	-0.286890	-0.675676	-0.222507
H218	H	0.046443	-0.342343	0.110827
H219	H	0.379777	-0.009010	0.444160
H220	H	-0.227163	-0.607718	-0.226768
H221	H	0.106171	-0.274384	0.106565
H222	H	0.439504	0.058949	0.439899
H223	H	-0.439921	-0.978146	-0.923881
H224	H	-0.106588	-0.644813	-0.590548
H225	H	0.226746	-0.311480	-0.257215
H226	H	-0.785274	-1.149021	-0.269028
H227	H	-0.451941	-0.815688	0.064305
H228	H	-0.118607	-0.482355	0.397639
H229	H	-0.924701	-1.149035	-0.268990
H230	H	-0.591368	-0.815702	0.064344
H231	H	-0.258035	-0.482369	0.397677
