data_functionalizedCrystal
_audit_creation_method	'MofGen! by Chris Wilmer'
_symmetry_space_group_name_H-M	'P1'
_symmetry_Int_Tables_number	1
_symmetry_cell_setting	triclinic
loop_
_symmetry_equiv_pos_as_xyz
  x,y,z
_cell_length_a	18.215407
_cell_length_b	16.625548
_cell_length_c	18.215405
_cell_angle_alpha	89.985220
_cell_angle_beta	89.977656
_cell_angle_gamma	90.005465
loop_
_atom_site_label
_atom_site_type_symbol
_atom_site_fract_x
_atom_site_fract_y
_atom_site_fract_z
Zn1	Zn	1.124989	0.455830	0.293156
Zn2	Zn	1.624989	0.955830	0.793156
Zn3	Zn	1.124922	0.320989	0.416194
Zn4	Zn	1.624922	0.820989	0.916194
Zn5	Zn	1.001946	0.321017	0.293140
Zn6	Zn	1.501946	0.821017	0.793140
Zn7	Zn	1.001887	0.455785	0.416180
Zn8	Zn	1.501887	0.955785	0.916180
O9	O	1.063436	0.388405	0.354668
O10	O	1.563436	0.888405	0.854668
O11	O	1.227964	0.437950	0.309490
O12	O	1.727964	0.937950	0.809490
O13	O	1.108605	0.208160	0.399869
O14	O	1.608605	0.708160	0.899869
O15	O	1.018320	0.338931	0.190158
O16	O	1.518320	0.838931	0.690158
O17	O	1.227915	0.338883	0.399885
O18	O	1.727915	0.838883	0.899885
O19	O	1.108720	0.437977	0.190170
O20	O	1.608720	0.937977	0.690170
O21	O	1.018255	0.208181	0.309462
O22	O	1.518255	0.708181	0.809462
O23	O	0.898954	0.338887	0.309449
O24	O	1.398954	0.838887	0.809449
O25	O	1.018220	0.568624	0.399862
O26	O	1.518220	1.068624	0.899862
O27	O	0.898911	0.437901	0.399846
O28	O	1.398911	0.937901	0.899846
O29	O	1.108663	0.568656	0.309477
O30	O	1.608663	1.068656	0.809477
O31	O	1.108548	0.338840	0.519176
O32	O	1.608548	0.838840	1.019176
O33	O	1.018155	0.437874	0.519166
O34	O	1.518155	0.937874	1.019166
C35	C	0.872230	0.388393	0.354645
C36	C	1.372230	0.888393	0.854645
C37	C	0.790431	0.388407	0.354653
C38	C	1.290431	0.888407	0.854653
C39	C	0.525370	0.439891	0.401815
C40	C	1.025370	0.939891	0.901815
C41	C	0.602229	0.439887	0.401808
C42	C	1.102229	0.939887	0.901808
C43	C	0.602243	0.336934	0.307537
C44	C	1.102243	0.836934	0.807537
C45	C	0.525386	0.336934	0.307548
C46	C	1.025386	0.836934	0.807548
C47	C	0.486951	0.388418	0.354685
C48	C	0.986951	0.888418	0.854685
C49	C	0.640667	0.388413	0.354668
C50	C	1.140667	0.888413	0.854668
C51	C	0.724001	0.388409	0.354661
C52	C	1.224001	0.888409	0.854661
C53	C	0.403612	0.388421	0.354694
C54	C	0.903612	0.888421	0.854694
C55	C	1.063442	0.598714	0.354670
C56	C	1.563442	1.098714	0.854670
C57	C	1.063445	0.688335	0.354671
C58	C	1.563445	1.188335	0.854671
C59	C	1.063415	1.016511	0.354677
C60	C	1.563415	1.516511	0.854677
C61	C	1.063421	0.925203	0.354678
C62	C	1.563421	1.425203	0.854678
C63	C	1.063430	0.852426	0.354674
C64	C	1.563430	1.352426	0.854674
C65	C	1.063436	0.761112	0.354674
C66	C	1.563436	1.261112	0.854674
C67	C	1.255389	0.388418	0.354691
C68	C	1.755389	0.888418	0.854691
C69	C	1.337188	0.388424	0.354701
C70	C	1.837188	0.888424	0.854701
C71	C	1.063422	1.178915	0.354680
C72	C	1.563422	1.678915	0.854680
C73	C	1.063415	1.089293	0.354675
C74	C	1.563415	1.589293	0.854675
C75	C	1.063358	0.388367	0.545874
C76	C	1.563358	0.888367	1.045874
C77	C	1.063392	0.388377	0.627673
C78	C	1.563392	0.888377	1.127673
C79	C	1.063534	0.388462	0.162715
C80	C	1.563534	0.888462	0.662715
C81	C	1.063576	0.388486	0.080916
C82	C	1.563576	0.888486	0.580916
C83	C	1.110570	0.336905	0.815847
C84	C	1.610570	0.836905	1.315847
C85	C	1.110603	0.336924	0.892706
C86	C	1.610603	0.836924	1.392706
C87	C	1.016396	0.439964	0.892736
C88	C	1.516396	0.939964	1.392736
C89	C	1.016367	0.439948	0.815878
C90	C	1.516367	0.939948	1.315878
C91	C	1.063453	0.388414	0.777436
C92	C	1.563453	0.888414	1.277436
C93	C	1.063515	0.388449	0.931152
C94	C	1.563515	0.888449	1.431152
C95	C	1.063550	0.388471	1.014486
C96	C	1.563550	0.888471	1.514486
C97	C	1.063419	0.388393	0.694097
C98	C	1.563419	0.888393	1.194097
H99	H	0.494079	0.481812	0.440197
H100	H	0.994079	0.981812	0.940197
H101	H	0.633506	0.481801	0.440186
H102	H	1.133506	0.981801	0.940186
C103	C	0.643877	0.281088	0.256239
C104	C	1.143877	0.781088	0.756239
C105	C	0.625186	0.298767	0.183452
C106	C	1.125186	0.798767	0.683452
C107	C	0.663513	0.247329	0.136175
C108	C	1.163513	0.747329	0.636175
H109	H	0.695165	0.288405	0.262879
H110	H	1.195165	0.788405	0.762879
H111	H	0.631255	0.226880	0.266897
H112	H	1.131255	0.726880	0.766897
H113	H	0.637812	0.352962	0.172798
H114	H	1.137812	0.852962	0.672798
H115	H	0.573904	0.291444	0.176789
H116	H	1.073904	0.791444	0.676789
H117	H	0.650892	0.193121	0.146833
H118	H	1.150892	0.693121	0.646833
H119	H	0.714800	0.254651	0.142822
H120	H	1.214800	0.754651	0.642822
H121	H	0.650832	0.259312	0.086785
H122	H	1.150832	0.759312	0.586785
H123	H	0.978059	0.481920	0.924045
H124	H	1.478059	0.981920	1.424045
C125	C	0.965127	0.495906	0.774302
C126	C	1.465127	0.995906	1.274302
C127	C	0.923879	0.541022	0.824416
C128	C	1.423879	1.041022	1.324416
C129	C	0.876668	0.592571	0.786142
C130	C	1.376668	1.092571	1.286142
H131	H	0.993162	0.531130	0.744282
H132	H	1.493162	1.031130	1.244282
H133	H	0.933035	0.465042	0.744371
H134	H	1.433035	0.965042	1.244371
H135	H	0.955967	0.571884	0.854334
H136	H	1.455967	1.071884	1.354334
H137	H	0.895830	0.505820	0.854437
H138	H	1.395830	1.005820	1.354437
H139	H	0.844576	0.561706	0.756212
H140	H	1.344576	1.061706	1.256212
H141	H	0.904709	0.627789	0.756124
H142	H	1.404709	1.127789	1.256124
H143	H	0.848671	0.623182	0.820139
H144	H	1.348671	1.123182	1.320139
H145	H	0.494104	0.295015	0.269168
H146	H	0.994104	0.795015	0.769168
H147	H	1.148912	0.294944	0.784550
H148	H	1.648912	0.794944	1.284550
C149	C	1.161786	0.280909	0.934277
C150	C	1.661786	0.780909	1.434277
C151	C	1.203000	0.235764	0.884158
C152	C	1.703000	0.735764	1.384158
C153	C	1.250153	0.184145	0.922425
C154	C	1.750153	0.684145	1.422425
H155	H	1.193907	0.311700	0.964223
H156	H	1.693907	0.811700	1.464223
H157	H	1.133687	0.245713	0.964281
H158	H	1.633687	0.745713	1.464281
H159	H	1.231096	0.270955	0.854167
H160	H	1.731096	0.770955	1.354167
H161	H	1.170898	0.204956	0.854210
H162	H	1.670898	0.704956	1.354210
H163	H	1.222054	0.148950	0.952429
H164	H	1.722054	0.648950	1.452429
H165	H	1.282269	0.214943	0.952370
H166	H	1.782269	0.714943	1.452370
H167	H	1.278117	0.153503	0.888425
H168	H	1.778117	0.653503	1.388425
