data_functionalizedCrystal
_audit_creation_method	'MofGen! by Chris Wilmer'
_symmetry_space_group_name_H-M	'P1'
_symmetry_Int_Tables_number	1
_symmetry_cell_setting	triclinic
loop_
_symmetry_equiv_pos_as_xyz
  x,y,z
_cell_length_a	23.096457
_cell_length_b	12.970454
_cell_length_c	12.970454
_cell_angle_alpha	60.000046
_cell_angle_beta	59.999661
_cell_angle_gamma	89.998138
loop_
_atom_site_label
_atom_site_type_symbol
_atom_site_fract_x
_atom_site_fract_y
_atom_site_fract_z
Zr1	Zr	0.557767	-0.135327	1.128529
O2	O	0.465319	-0.299943	1.343616
O3	O	0.586107	-0.084864	0.913440
O4	O	0.586108	-0.299953	1.128531
O5	O	0.465318	0.084813	1.128525
O6	O	0.681388	-0.299959	1.128533
O7	O	0.465318	-0.084854	1.128526
O8	O	0.681387	0.084796	0.743776
O9	O	0.465319	-0.299942	1.513282
O10	O	0.669301	-0.063346	1.001912
O11	O	0.598194	0.063280	1.001909
O12	O	0.598195	-0.189960	1.255150
O13	O	0.527088	-0.063334	1.255147
Zr14	Zr	0.709728	0.135263	1.128532
Zr15	Zr	0.709728	-0.135337	1.128533
Zr16	Zr	0.557767	0.135273	1.128527
Zr17	Zr	0.557768	-0.135324	1.399126
Zr18	Zr	0.709727	0.135261	0.857934
O19	O	0.681388	0.084801	1.343620
O20	O	0.681388	-0.299958	1.343622
O21	O	0.465319	0.084815	1.343614
O22	O	0.802176	0.299880	0.913445
O23	O	0.802176	-0.084878	0.913447
O24	O	0.586107	0.299894	0.913438
O25	O	0.802177	-0.084876	1.128536
O26	O	0.681387	0.299890	1.128530
O27	O	0.586107	0.299896	1.128527
O28	O	0.802177	0.084791	1.128535
O29	O	0.586108	-0.299950	1.513285
O30	O	0.681387	0.299887	0.743775
O31	O	0.802176	0.299879	0.743779
O32	O	0.802176	0.084788	0.743780
O33	O	0.465319	-0.084851	1.513281
O34	O	0.586108	-0.084859	1.513284
O35	O	0.669300	0.189896	1.001911
O36	O	0.740407	0.063271	1.001913
O37	O	0.669301	-0.063343	1.255152
O38	O	0.598194	0.063282	1.255149
C39	C	0.443667	-0.000019	1.128525
C40	C	0.379156	-0.000015	1.128523
C41	C	0.633747	-0.000035	0.790054
C42	C	0.633747	-0.000036	0.675178
C43	C	0.633747	0.338448	1.128529
C44	C	0.633747	0.453324	1.128528
C45	C	0.385967	0.066064	0.996339
C46	C	0.325351	0.066070	0.996337
C47	C	0.257925	-0.000029	1.128526
C48	C	0.251117	-0.066111	1.260727
C49	C	0.311732	-0.066104	1.260726
N50	N	0.135130	-0.107602	1.226922
N51	N	0.077550	-0.107606	1.226915
C52	C	0.075292	-0.000051	1.128539
N53	N	0.132795	0.107506	1.030149
N54	N	0.190381	0.107508	1.030152
C55	C	0.192194	-0.000043	1.128543
C56	C	0.016380	0.066040	0.996344
C57	C	-0.044238	0.066049	0.996347
C58	C	-0.118473	-0.066144	1.260742
C59	C	-0.057855	-0.066141	1.260734
C60	C	0.009569	-0.000052	1.128532
C61	C	0.823828	-0.000044	1.128536
C62	C	0.888339	-0.000048	1.128538
C63	C	0.633748	-0.338511	1.128532
C64	C	0.633748	-0.453388	1.128533
C65	C	0.633748	-0.000029	1.467007
C66	C	0.633748	-0.000028	1.581882
C67	C	0.823827	-0.000047	0.790060
C68	C	0.888338	-0.000052	0.675186
C69	C	0.633747	0.338445	0.790052
C70	C	0.633746	0.453321	0.675176
C71	C	0.823827	0.338432	0.790058
C72	C	0.888338	0.453304	0.675183
C73	C	0.443668	-0.338496	1.467003
C74	C	0.379157	-0.453367	1.581877
C75	C	0.443668	-0.000016	1.467001
C76	C	0.379157	-0.000011	1.581875
C77	C	0.633748	-0.338508	1.467008
C78	C	0.633749	-0.453384	1.581885
C79	C	0.881517	-0.066158	0.621239
C80	C	0.942126	-0.066188	0.513318
C81	C	1.009557	-0.000104	0.459338
C82	C	1.016377	0.066004	0.513295
C83	C	0.955768	0.066026	0.621222
C84	C	0.955757	0.441152	0.621239
C85	C	1.016377	0.549075	0.513317
C86	C	1.009578	0.669150	0.459335
C87	C	0.942153	0.681300	0.513290
C88	C	0.881533	0.573377	0.621217
C89	C	0.311738	-0.441215	1.635835
C90	C	0.251118	-0.549139	1.743790
C91	C	0.257917	-0.669214	1.797778
C92	C	0.325342	-0.681363	1.743816
C93	C	0.385962	-0.573441	1.635870
C94	C	0.385978	0.066084	1.635833
C95	C	0.325369	0.066084	1.743784
C96	C	0.257938	-0.000004	1.797768
C97	C	0.251118	-0.066107	1.743805
C98	C	0.311727	-0.066114	1.635863
H99	H	0.440862	0.119871	0.888689
H100	H	1.071273	0.539160	0.469397
H101	H	0.330870	-0.779141	1.787787
H102	H	-0.038686	0.119868	0.888703
H103	H	0.440878	0.119909	1.591888
H104	H	0.936559	-0.120021	0.469399
O105	O	1.081934	0.130182	0.460640
C106	C	1.133958	0.115955	0.353836
H107	H	1.110319	0.091598	0.306665
H108	H	1.152920	0.036823	0.405469
C109	C	1.226136	0.270128	0.289074
C110	C	1.197104	0.240223	0.231130
H111	H	1.265089	0.346779	0.213386
H112	H	1.191087	0.279710	0.361034
H113	H	1.241932	0.204175	0.332102
H114	H	1.181300	0.306167	0.188121
H115	H	1.232151	0.230655	0.159160
O116	O	0.816073	-0.130469	0.673549
C117	C	0.823063	-0.188792	0.602752
H118	H	0.877153	-0.201881	0.558283
H119	H	0.818097	-0.126857	0.509003
C120	C	0.697905	-0.302408	0.766745
C121	C	0.764338	-0.318494	0.712138
H122	H	0.661679	-0.382412	0.834216
H123	H	0.693195	-0.263112	0.814440
H124	H	0.693777	-0.250792	0.688609
H125	H	0.768468	-0.370096	0.790271
H126	H	0.769048	-0.357802	0.664458
H127	H	0.961332	0.119865	0.665132
H128	H	0.306181	-0.119911	1.368369
O129	O	0.185606	-0.130486	1.389096
C130	C	0.148323	-0.223235	1.396989
H131	H	0.187659	-0.247799	1.321975
H132	H	0.112357	-0.185406	1.361469
C133	C	0.054736	-0.312297	1.647054
C134	C	0.103048	-0.342475	1.554930
H135	H	0.026806	-0.385848	1.744480
H136	H	0.079852	-0.249807	1.641736
H137	H	0.024771	-0.280771	1.617436
H138	H	0.133018	-0.373985	1.584537
H139	H	0.077936	-0.404973	1.560257
H140	H	0.071280	0.119880	0.888697
O141	O	0.962498	0.324614	0.673447
C142	C	1.035008	0.337057	0.602594
H143	H	1.067333	0.433317	0.558247
H144	H	1.052865	0.328357	0.508751
C145	C	1.006723	0.114141	0.766337
C146	C	1.046425	0.232365	0.711880
H147	H	1.013767	0.049559	0.833746
H148	H	0.957872	0.105756	0.814069
H149	H	1.021609	0.106909	0.688122
H150	H	1.031533	0.239601	0.790092
H151	H	1.095275	0.240749	0.664164
H152	H	1.058944	0.757017	0.371453
H153	H	-0.173371	-0.119963	1.368373
H154	H	0.330936	0.119918	1.787702
H155	H	0.330897	0.119880	0.888694
H156	H	0.440855	-0.583351	1.591938
H157	H	0.826640	0.583290	0.665125
H158	H	-0.063404	-0.119958	1.368373
H159	H	0.306189	-0.343454	1.591884
H160	H	1.058902	-0.000131	0.371456
H161	H	0.208551	-0.757081	1.885674
H162	H	0.936627	0.779079	0.469322
O163	O	0.185664	-0.537159	1.796210
C164	C	0.177901	-0.470569	1.858638
H165	H	0.232469	-0.411013	1.809876
H166	H	0.148924	-0.540456	1.981578
C167	C	0.067827	-0.457023	1.886516
C168	C	0.134849	-0.383867	1.826618
H169	H	0.041268	-0.403545	1.866772
H170	H	0.073056	-0.501890	1.844463
H171	H	0.043689	-0.515258	1.988962
H172	H	0.158989	-0.325645	1.724172
H173	H	0.129623	-0.338988	1.868654
H174	H	0.208593	0.000012	1.885661
O175	O	0.185561	-0.130184	1.796360
C176	C	0.133537	-0.116013	1.903219
H177	H	0.157176	-0.026750	1.885484
H178	H	0.114575	-0.201411	2.016116
C179	C	0.041359	-0.215388	1.913182
C180	C	0.070391	-0.105748	1.891392
H181	H	0.002405	-0.209062	1.905893
H182	H	0.076408	-0.224940	1.841193
H183	H	0.025563	-0.286542	2.007263
H184	H	0.086194	-0.034599	1.797307
H185	H	0.035343	-0.096183	1.963365
O186	O	0.304968	-0.130329	1.583556
C187	C	0.232454	-0.188674	1.654382
H188	H	0.200140	-0.136826	1.698868
H189	H	0.214594	-0.291264	1.748122
C190	C	0.260710	-0.247541	1.490389
C191	C	0.221022	-0.183854	1.545017
H192	H	0.253658	-0.244574	1.422931
H193	H	0.309565	-0.208238	1.442675
H194	H	0.245823	-0.333027	1.568518
H195	H	0.235916	-0.098366	1.466892
H196	H	0.172169	-0.223143	1.592716
