data_functionalizedCrystal
_audit_creation_method	'MofGen! by Chris Wilmer'
_symmetry_space_group_name_H-M	'P1'
_symmetry_Int_Tables_number	1
_symmetry_cell_setting	triclinic
loop_
_symmetry_equiv_pos_as_xyz
  x,y,z
_cell_length_a	11.792241
_cell_length_b	16.992697
_cell_length_c	16.053802
_cell_angle_alpha	92.750118
_cell_angle_beta	92.583059
_cell_angle_gamma	92.569066
loop_
_atom_site_label
_atom_site_type_symbol
_atom_site_fract_x
_atom_site_fract_y
_atom_site_fract_z
O1	O	0.236284	-1.044698	-0.069309
O2	O	0.233640	-0.816403	-0.069337
O3	O	0.070245	-0.936090	-0.069316
O4	O	0.399679	-0.925010	-0.069329
O5	O	0.079199	-0.929502	0.069542
O6	O	0.242594	-0.809814	0.069521
O7	O	0.245238	-1.038110	0.069549
Zn8	Zn	0.245338	-0.922916	0.091582
Zn9	Zn	0.233540	-0.931596	-0.091369
O10	O	0.408633	-0.918422	0.069529
C11	C	0.032374	-0.932100	0.000112
C12	C	-0.093810	-0.930017	0.000111
C13	C	0.234719	-0.783882	0.000089
C14	C	0.224580	-0.696795	0.000078
C15	C	0.322398	-0.646970	0.000074
C16	C	0.312866	-0.565143	0.000085
C17	C	0.205515	-0.533142	0.000093
C18	C	0.107690	-0.582972	0.000100
C19	C	0.117224	-0.664798	0.000095
C20	C	0.166003	-0.289375	0.000113
C21	C	0.156476	-0.207543	0.000115
C22	C	0.361653	-0.189719	0.000102
C23	C	0.371177	-0.271547	0.000092
C24	C	0.273352	-0.321371	0.000103
N25	N	0.195769	-0.449501	0.000101
N26	N	0.283100	-0.405009	0.000101
C27	C	-0.324836	-0.926187	0.000097
C28	C	-0.196276	-0.928315	0.000105
C29	C	0.446504	-0.922412	0.000098
C30	C	0.572688	-0.924496	0.000094
C31	C	0.244158	-0.070631	0.000118
C32	C	0.254294	-0.157719	0.000111
N33	N	0.253389	-0.916998	0.216441
N34	N	0.225481	-0.937520	-0.216229
C35	C	0.183893	-0.967944	0.260144
C36	C	0.189536	-0.963811	0.347550
C37	C	0.264683	-0.908736	0.391252
C38	C	0.334182	-0.857785	0.347543
C39	C	0.328532	-0.861914	0.260138
C40	C	0.289330	-0.890698	0.652658
C41	C	0.294977	-0.886575	0.740069
C42	C	0.150329	-0.992601	0.740070
C43	C	0.144691	-0.996728	0.652664
C44	C	0.214186	-0.945774	0.608962
N45	N	0.270456	-0.904512	0.480595
N46	N	0.208406	-0.949995	0.519621
H47	H	0.409814	-0.673019	0.000066
C48	C	0.062025	-1.057307	0.604589
C49	C	-0.014430	-1.113351	0.652652
C50	C	-0.097091	-1.173932	0.604575
C51	C	-0.103297	-1.178469	0.508433
C52	C	-0.026839	-1.122424	0.460364
C53	C	0.055822	-1.061843	0.508442
H54	H	-0.009838	-1.109994	0.723827
H55	H	-0.153690	-1.215420	0.640159
H56	H	-0.164488	-1.223315	0.472843
H57	H	-0.031431	-1.125781	0.389189
H58	H	0.112421	-1.020354	0.472857
H59	H	0.392519	-0.524579	0.000080
H60	H	0.086347	-0.329932	0.000123
C61	C	-0.010399	-0.547775	0.000111
C62	C	-0.098376	-0.569795	-0.071987
C63	C	-0.216469	-0.534601	-0.071977
C64	C	-0.246586	-0.477388	0.000131
C65	C	-0.158607	-0.455366	0.072235
C66	C	-0.040514	-0.490559	0.072225
H67	H	-0.076083	-0.612150	-0.125371
H68	H	-0.281596	-0.550904	-0.125354
H69	H	-0.334005	-0.451336	0.000138
H70	H	-0.180899	-0.413010	0.125619
H71	H	0.024613	-0.474256	0.125602
H72	H	0.395364	-0.812937	0.383130
C73	C	0.404983	-0.805874	0.212063
C74	C	0.487685	-0.745319	0.260130
C75	C	0.564134	-0.689274	0.212056
C76	C	0.557880	-0.693783	0.115914
C77	C	0.475174	-0.754340	0.067842
C78	C	0.398725	-0.810385	0.115916
H79	H	0.492318	-0.741979	0.331304
H80	H	0.625358	-0.644446	0.247643
H81	H	0.614472	-0.652295	0.080327
H82	H	0.470541	-0.757681	-0.003333
H83	H	0.337501	-0.855214	0.080329
H84	H	0.132946	-1.005295	0.383132
H85	H	0.069054	-0.181491	0.000122
H86	H	0.458592	-0.297597	0.000076
H87	H	0.441296	-0.149144	0.000095
C88	C	0.073879	-1.048642	0.788141
C89	C	-0.011881	-1.014789	0.848241
C90	C	-0.088340	-1.070831	0.896311
C91	C	-0.079039	-1.160726	0.884282
C92	C	0.006725	-1.194584	0.824179
C93	C	0.083184	-1.138542	0.776109
H94	H	-0.018770	-0.948239	0.857148
H95	H	-0.151828	-1.045767	0.940803
H96	H	-0.135638	-1.202212	0.919866
H97	H	0.013614	-1.261134	0.815272
H98	H	0.146671	-1.163606	0.731617
H99	H	0.037570	-0.705365	0.000098
H100	H	0.122705	-1.012795	0.224567
H101	H	0.356176	-0.841723	0.775647
H102	H	0.345918	-0.849211	0.617083
