data_functionalizedCrystal
_audit_creation_method	'MofGen! by Chris Wilmer'
_symmetry_space_group_name_H-M	'P1'
_symmetry_Int_Tables_number	1
_symmetry_cell_setting	triclinic
loop_
_symmetry_equiv_pos_as_xyz
  x,y,z
_cell_length_a	14.908571
_cell_length_b	18.050590
_cell_length_c	14.908308
_cell_angle_alpha	86.735264
_cell_angle_beta	89.824947
_cell_angle_gamma	86.714611
loop_
_atom_site_label
_atom_site_type_symbol
_atom_site_fract_x
_atom_site_fract_y
_atom_site_fract_z
Zn1	Zn	1.345312	-0.387560	0.587562
Zn2	Zn	1.353897	-0.505027	0.437196
Zn3	Zn	1.203627	-0.373296	0.428561
Zn4	Zn	1.194925	-0.504144	0.578848
O5	O	1.274440	-0.442507	0.508042
O6	O	1.472277	-0.409481	0.574877
O7	O	1.341198	-0.481952	0.310226
O8	O	1.222470	-0.271267	0.449685
O9	O	1.478585	-0.495784	0.464404
O10	O	1.326566	-0.281747	0.566503
O11	O	1.230795	-0.385170	0.303882
O12	O	1.076646	-0.384314	0.441236
O13	O	1.207640	-0.494280	0.705828
O14	O	1.070253	-0.480448	0.551651
O15	O	1.318128	-0.408626	0.712231
O16	O	1.332761	-0.608830	0.455954
O17	O	1.215964	-0.608182	0.560025
C18	C	1.040824	-0.430738	0.494561
C19	C	0.940881	-0.425722	0.488816
C20	C	0.746477	-0.516542	0.592840
C21	C	0.652572	-0.511831	0.587444
C22	C	0.659162	-0.411588	0.472634
C23	C	0.753068	-0.416298	0.478030
C24	C	0.796722	-0.468778	0.538134
C25	C	0.890630	-0.473491	0.543524
C26	C	0.897218	-0.373245	0.428719
C27	C	0.803312	-0.368535	0.423324
C28	C	1.274373	-0.635454	0.508002
C29	C	1.274425	-0.718003	0.508020
C30	C	1.338059	-0.917789	0.451517
C31	C	1.355286	-0.971896	0.534844
C32	C	1.274474	-0.869138	0.508059
C33	C	1.257337	-0.962119	0.424773
C34	C	1.274523	-1.015126	0.508089
C35	C	1.291740	-0.922161	0.591431
C36	C	1.193756	-0.912375	0.481303
C37	C	1.210949	-0.966460	0.564685
C38	C	1.274448	-0.785037	0.508040
C39	C	1.274549	-1.099225	0.508117
C40	C	1.508969	-0.454322	0.521575
C41	C	1.608911	-0.459357	0.527343
C42	C	1.260956	-0.452946	0.742567
C43	C	1.255209	-0.457394	0.842507
C44	C	1.274531	-0.248808	0.508103
C45	C	1.274570	-0.166266	0.508129
C46	C	1.287924	-0.432058	0.274432
C47	C	1.293845	-0.427409	0.174503
C48	C	1.359460	-0.376544	1.036974
C49	C	1.354064	-0.380721	1.130877
C50	C	1.239016	-0.469921	1.124218
C51	C	1.244412	-0.465744	1.030315
C52	C	1.304638	-0.419055	0.986696
C53	C	1.310038	-0.414882	0.892792
C54	C	1.194986	-0.504077	0.886134
C55	C	1.189590	-0.508254	0.980037
H56	H	0.623602	-0.368858	0.423707
H57	H	1.306184	-0.904542	0.661933
C58	C	1.424710	-0.325806	0.989486
C59	C	1.376923	-0.273256	0.932634
C60	C	1.437004	-0.226511	0.888865
H61	H	1.456620	-0.301013	1.032776
H62	H	1.465965	-0.354538	0.955054
H63	H	1.335684	-0.244527	0.967063
H64	H	1.345016	-0.298027	0.889327
H65	H	1.478259	-0.255243	0.854434
H66	H	1.468910	-0.201724	0.932162
H67	H	1.404590	-0.190855	0.850280
C68	C	0.938084	-0.530552	0.608633
C69	C	0.994890	-0.578538	0.560722
C70	C	1.038607	-0.631116	0.620673
H71	H	0.972548	-0.505865	0.649995
H72	H	0.894736	-0.558365	0.640428
H73	H	1.038232	-0.550728	0.528942
H74	H	0.960448	-0.603242	0.519364
H75	H	0.995259	-0.658930	0.652469
H76	H	1.073066	-0.606423	0.662032
H77	H	1.077148	-0.663685	0.588174
H78	H	1.398704	-0.346103	1.171810
C79	C	1.409633	-0.889226	0.387703
C80	C	1.368949	-0.841522	0.320443
C81	C	1.434853	-0.815203	0.261640
H82	H	1.451181	-0.862971	0.420046
H83	H	1.440379	-0.929993	0.361082
H84	H	1.338217	-0.800761	0.347062
H85	H	1.327406	-0.867760	0.288078
H86	H	1.465599	-0.855970	0.235019
H87	H	1.476398	-0.788951	0.293991
H88	H	1.407258	-0.782838	0.215993
H89	H	0.611666	-0.550724	0.631994
H90	H	1.423568	-0.997875	0.557493
H91	H	0.767756	-0.325806	0.374391
C92	C	0.793935	-0.573607	0.657941
C93	C	0.850741	-0.621585	0.610020
C94	C	0.894462	-0.674169	0.669960
H95	H	0.828399	-0.548925	0.699308
H96	H	0.750589	-0.601425	0.689733
H97	H	0.894081	-0.593769	0.578243
H98	H	0.816299	-0.646284	0.568657
H99	H	0.851116	-0.701988	0.701752
H100	H	0.928921	-0.649481	0.711323
H101	H	0.933003	-0.706733	0.637453
H102	H	1.359078	-0.376866	0.857279
H103	H	1.157195	-0.987707	0.612572
H104	H	1.125496	-0.886380	0.458631
H105	H	1.189983	-0.507933	1.159749
H106	H	0.938137	-0.334354	0.384171
H107	H	1.242821	-0.979829	0.354328
H108	H	1.140554	-0.546266	1.015564
H109	H	1.150348	-0.538695	0.845188
