data_functionalizedCrystal
_audit_creation_method	'MofGen! by Chris Wilmer'
_symmetry_space_group_name_H-M	'P1'
_symmetry_Int_Tables_number	1
_symmetry_cell_setting	triclinic
loop_
_symmetry_equiv_pos_as_xyz
  x,y,z
_cell_length_a	15.297327
_cell_length_b	12.759401
_cell_length_c	12.759401
_cell_angle_alpha	89.993060
_cell_angle_beta	80.337164
_cell_angle_gamma	80.291874
loop_
_atom_site_label
_atom_site_type_symbol
_atom_site_fract_x
_atom_site_fract_y
_atom_site_fract_z
Zn1	Zn	-0.359307	-1.533607	0.666374
Zn2	Zn	-0.510144	-1.503100	0.521069
Zn3	Zn	-0.359296	-1.357951	0.490707
Zn4	Zn	-0.510140	-1.327457	0.696705
O5	O	-0.434722	-1.430529	0.593714
O6	O	-0.379322	-1.676580	0.647112
O7	O	-0.490130	-1.483840	0.370020
O8	O	-0.233043	-1.406781	0.488610
O9	O	-0.490141	-1.654166	0.540357
O10	O	-0.233051	-1.535835	0.617672
O11	O	-0.379303	-1.377200	0.347713
O12	O	-0.379299	-1.206886	0.518021
O13	O	-0.490135	-1.354809	0.839704
O14	O	-0.490124	-1.184482	0.669366
O15	O	-0.379319	-1.506266	0.817420
O16	O	-0.636398	-1.454271	0.569768
O17	O	-0.636395	-1.325227	0.698807
C18	C	-0.669133	-1.383158	0.640896
C19	C	-0.769415	-1.362989	0.661116
C20	C	-0.434711	-1.157564	0.593691
C21	C	-0.434728	-1.040784	0.593710
C22	C	-0.434728	-1.430539	0.867748
C23	C	-0.434731	-1.430544	0.984526
C24	C	-1.051973	-1.575114	0.449558
C25	C	-0.957754	-1.594063	0.430555
C26	C	-0.910664	-1.536297	0.488194
C27	C	-0.957804	-1.459577	0.564838
C28	C	-1.052033	-1.440620	0.583837
C29	C	-0.910724	-1.401803	0.622473
C30	C	-0.957864	-1.325083	0.699118
C31	C	-1.052084	-1.306130	0.718114
C32	C	-1.099173	-1.363896	0.660475
C33	C	-0.816495	-1.420760	0.603474
C34	C	-0.816555	-1.286266	0.737753
C35	C	-0.910775	-1.267316	0.756756
C36	C	-0.199395	-1.478113	0.546371
C37	C	-0.099113	-1.498390	0.526196
C38	C	-0.434734	-1.704560	0.593738
C39	C	-0.434739	-1.821335	0.593748
C40	C	-0.492522	-0.974266	0.672428
C41	C	-0.492525	-0.864541	0.672450
C42	C	-0.376938	-0.887862	0.515026
C43	C	-0.376931	-0.997585	0.515010
C44	C	-0.377038	-1.509397	1.027788
C45	C	-0.377036	-1.509388	1.137512
C46	C	-0.492428	-1.351668	1.160703
C47	C	-0.492424	-1.351673	1.050980
C48	C	-0.434736	-1.430513	1.320749
C49	C	-0.434732	-1.430530	1.203972
H50	H	-0.778122	-1.483225	0.541069
C51	C	-0.906738	-1.677443	0.347348
C52	C	-0.968140	-1.723999	0.300960
C53	C	-0.921177	-1.800829	0.224314
H54	H	-0.870020	-1.644795	0.294039
H55	H	-0.869957	-1.730644	0.380142
H56	H	-1.004906	-1.670806	0.268165
H57	H	-1.004861	-1.756668	0.354242
H58	H	-0.884396	-1.854031	0.257108
H59	H	-0.884460	-1.768173	0.171011
H60	H	-0.962831	-1.832434	0.192836
C61	C	-0.314215	-1.069996	0.429659
C62	C	-0.326562	-1.175336	0.446510
C63	C	-0.268796	-1.242071	0.367922
H64	H	-0.327264	-1.049490	0.361628
H65	H	-0.253597	-1.064328	0.432964
H66	H	-0.387165	-1.180999	0.443195
H67	H	-0.313506	-1.195875	0.514526
H68	H	-0.208179	-1.236404	0.371227
H69	H	-0.281850	-1.221556	0.299896
H70	H	-0.277160	-1.313553	0.379351
H71	H	-0.833946	-1.551729	0.472716
H72	H	-1.175895	-1.348474	0.675946
C73	C	-0.314296	-1.595078	0.955805
C74	C	-0.263753	-1.664114	1.017179
C75	C	-0.205933	-1.743047	0.950906
H76	H	-0.348707	-1.633993	0.919928
H77	H	-0.274933	-1.562872	0.905100
H78	H	-0.303111	-1.696319	1.067865
H79	H	-0.229324	-1.625230	1.053055
H80	H	-0.166571	-1.710841	0.900202
H81	H	-0.240352	-1.781954	0.915033
H82	H	-0.171628	-1.789892	0.992537
C83	C	-0.314429	-1.594878	1.184678
C84	C	-0.326755	-1.577978	1.294987
C85	C	-0.269082	-1.656701	1.338469
H86	H	-0.327577	-1.662855	1.169484
H87	H	-0.253790	-1.591752	1.154548
H88	H	-0.387380	-1.581114	1.325107
H89	H	-0.313600	-1.510016	1.310211
H90	H	-0.208444	-1.653575	1.308339
H91	H	-0.282236	-1.724673	1.323268
H92	H	-0.277432	-1.645239	1.413316
C93	C	-1.103104	-1.222820	0.801401
C94	C	-1.041703	-1.176306	0.847833
C95	C	-1.088667	-1.099567	0.924570
H96	H	-1.139908	-1.169576	0.768708
H97	H	-1.139799	-1.255570	0.854667
H98	H	-1.005023	-1.143555	0.794575
H99	H	-1.004896	-1.229522	0.880547
H100	H	-1.125362	-1.132317	0.977836
H101	H	-1.125470	-1.046330	0.891869
H102	H	-1.047014	-1.068004	0.956090
H103	H	-0.539582	-1.009434	0.736513
H104	H	-1.090322	-1.622133	0.402631
H105	H	-0.949169	-1.204850	0.819161
H106	H	-0.778215	-1.239225	0.784686
H107	H	-0.539402	-1.287457	1.214823
C108	C	-0.555375	-0.792491	0.757973
C109	C	-0.606001	-0.853809	0.826872
C110	C	-0.663917	-0.787471	0.905666
H111	H	-0.521030	-0.756638	0.797006
H112	H	-0.594681	-0.741756	0.725648
H113	H	-0.566701	-0.904524	0.859196
H114	H	-0.640365	-0.889660	0.787871
H115	H	-0.703223	-0.736737	0.873340
H116	H	-0.629565	-0.751622	0.944690
H117	H	-0.698280	-0.829065	0.952417
H118	H	-0.539404	-1.287454	1.015756
C119	C	-0.314098	-0.841166	0.429517
C120	C	-0.263466	-0.922912	0.360592
C121	C	-0.205561	-0.879940	0.281812
H122	H	-0.348452	-0.791408	0.390501
H123	H	-0.274797	-0.806335	0.461852
H124	H	-0.302762	-0.957726	0.328258
H125	H	-0.229093	-0.972676	0.399576
H126	H	-0.166259	-0.845110	0.314148
H127	H	-0.239922	-0.830183	0.242805
H128	H	-0.171194	-0.935399	0.235043
