data_functionalizedCrystal
_audit_creation_method	'MofGen! by Chris Wilmer'
_symmetry_space_group_name_H-M	'P1'
_symmetry_Int_Tables_number	1
_symmetry_cell_setting	triclinic
loop_
_symmetry_equiv_pos_as_xyz
  x,y,z
_cell_length_a	8.559649
_cell_length_b	9.616153
_cell_length_c	8.559649
_cell_angle_alpha	89.995470
_cell_angle_beta	110.221336
_cell_angle_gamma	90.002247
loop_
_atom_site_label
_atom_site_type_symbol
_atom_site_fract_x
_atom_site_fract_y
_atom_site_fract_z
O1	O	2.126875	0.115624	0.055029
O2	O	1.651390	0.115629	-0.028752
O3	O	1.931023	0.115625	0.250881
O4	O	1.847242	0.115628	-0.224604
O5	O	1.931016	-0.115667	0.250897
O6	O	1.651383	-0.115662	-0.028736
O7	O	2.126867	-0.115668	0.055046
Zn8	Zn	1.889124	-0.152387	0.013158
Zn9	Zn	1.889134	0.152349	0.013136
O10	O	1.847234	-0.115663	-0.224587
C11	C	1.591077	-0.000016	-0.035093
C12	C	1.411378	-0.000014	-0.053992
N13	N	1.889129	-0.360362	0.013175
C14	C	2.039148	-0.580691	0.162368
C15	C	2.038856	-0.419524	0.162824
C16	C	1.724414	-0.418891	0.029376
C17	C	1.725325	-0.580109	0.030403
C18	C	1.902278	-0.580235	-0.152877
C19	C	1.906256	-0.419007	-0.151257
C20	C	2.187180	-0.000020	0.061387
C21	C	2.366879	-0.000013	0.080286
C22	C	1.937369	-0.000019	0.311198
C23	C	1.956268	-0.000011	0.490898
N24	N	1.889143	0.360324	0.013134
C25	C	1.840889	-0.000017	-0.284904
C26	C	1.821990	-0.000015	-0.464604
H27	H	1.466258	-0.000007	0.209705
O28	O	1.667622	0.000240	0.416788
C29	C	1.648513	0.120017	0.316875
H30	H	1.739027	0.203736	0.389112
H31	H	1.515490	0.160229	0.281654
H32	H	1.675568	0.092940	0.199071
H33	H	1.311990	-0.000005	-0.183420
H34	H	2.161967	-0.379950	0.156248
O35	O	1.706010	-0.370675	0.171369
C36	C	1.841646	-0.283986	0.256307
H37	H	1.952370	-0.311035	0.217001
H38	H	1.876973	-0.300135	0.396229
H39	H	1.805276	-0.170691	0.224376
O40	O	2.186744	-0.626597	0.155096
C41	C	2.318543	-0.571861	0.290400
H42	H	2.275122	-0.473275	0.337111
H43	H	2.427964	-0.546179	0.248450
H44	H	2.359122	-0.651866	0.395045
H45	H	2.033142	-0.621222	0.285320
H46	H	2.085696	-0.000024	0.590286
H47	H	2.018699	-0.620885	-0.173594
H48	H	1.710571	-0.617727	0.150839
O49	O	1.771562	-0.625573	-0.285261
C50	C	1.784627	-0.571676	-0.433445
H51	H	1.864393	-0.473633	-0.404080
H52	H	1.655184	-0.545314	-0.524092
H53	H	1.844865	-0.652496	-0.491989
O54	O	2.031640	-0.373423	0.310366
C55	C	2.173416	-0.291982	0.391962
H56	H	2.277987	-0.321273	0.344291
H57	H	2.215406	-0.311571	0.531781
H58	H	2.141499	-0.177251	0.365798
H59	H	1.802482	-0.378732	-0.265902
O60	O	1.589250	-0.626616	-0.095435
C61	C	1.443807	-0.577196	-0.072069
H62	H	1.472359	-0.551591	0.065046
H63	H	1.343019	-0.660529	-0.112284
H64	H	1.398433	-0.479511	-0.150071
O65	O	1.589233	-0.373001	-0.097937
C66	C	1.641732	-0.287126	-0.203889
H67	H	1.770200	-0.243045	-0.132052
H68	H	1.549466	-0.198115	-0.251352
H69	H	1.647980	-0.350774	-0.313937
O70	O	2.050710	-0.373201	-0.166293
C71	C	2.136023	-0.288556	-0.028732
H72	H	2.043801	-0.244801	0.027886
H73	H	2.199237	-0.199285	-0.071399
H74	H	2.234017	-0.353134	0.068548
