data_functionalizedCrystal
_audit_creation_method	'MofGen! by Chris Wilmer'
_symmetry_space_group_name_H-M	'P1'
_symmetry_Int_Tables_number	1
_symmetry_cell_setting	triclinic
loop_
_symmetry_equiv_pos_as_xyz
  x,y,z
_cell_length_a	10.723023
_cell_length_b	10.723024
_cell_length_c	14.048226
_cell_angle_alpha	89.994758
_cell_angle_beta	89.993700
_cell_angle_gamma	84.467709
loop_
_atom_site_label
_atom_site_type_symbol
_atom_site_fract_x
_atom_site_fract_y
_atom_site_fract_z
O1	O	1.657192	0.175025	-0.079155
O2	O	1.294040	0.191780	-0.079158
O3	O	1.483993	0.001826	-0.079153
O4	O	1.467239	0.364979	-0.079160
O5	O	1.483970	0.001815	0.079168
O6	O	1.294017	0.191768	0.079164
O7	O	1.657169	0.175014	0.079166
Zn8	Zn	1.475589	0.183389	0.104302
Zn9	Zn	1.475620	0.183404	-0.104293
O10	O	1.467216	0.364967	0.079161
C11	C	1.247529	0.190555	0.000003
C12	C	1.108974	0.186908	0.000002
C13	C	0.903994	0.181506	0.082014
C14	C	1.047197	0.185276	0.082016
C15	C	1.482762	-0.044679	0.000007
C16	C	1.479114	-0.183233	0.000003
C17	C	1.585402	-0.258216	0.000003
C18	C	1.581634	-0.401420	-0.000001
C19	C	1.703680	0.176239	0.000003
C20	C	1.842235	0.179886	-0.000002
C21	C	1.468447	0.411473	-0.000000
C22	C	1.472095	0.550027	-0.000003
N23	N	1.475578	0.183378	0.246662
N24	N	1.475641	0.183405	-0.246654
C25	C	1.559716	0.099302	0.296483
C26	C	1.559724	0.099301	0.396140
C27	C	1.475600	0.183384	0.445976
C28	C	1.391452	0.267464	0.396149
C29	C	1.391439	0.267458	0.296493
C30	C	1.391489	0.267473	0.603863
C31	C	1.391503	0.267482	0.703526
C32	C	1.559774	0.099317	0.703510
C33	C	1.559760	0.099311	0.603854
C34	C	1.475614	0.183393	0.554034
H35	H	0.895376	0.181297	-0.070216
H36	H	1.679188	-0.216394	0.000009
H37	H	1.672625	-0.465852	0.000003
H38	H	1.628287	0.030855	0.744080
H39	H	1.381099	-0.385548	0.000004
H40	H	1.100310	0.186663	0.152233
H41	H	1.385328	-0.225055	-0.000004
H42	H	1.628225	0.030838	0.255913
H43	H	0.850851	0.180109	0.152228
H44	H	1.628235	0.030840	0.436703
H45	H	1.055871	0.185511	-0.070218
H46	H	1.322999	0.335949	0.744097
H47	H	1.628266	0.030851	0.563278
H48	H	1.322964	0.335938	0.563303
H49	H	1.322950	0.335921	0.436731
H50	H	1.322924	0.335919	0.255930
