data_functionalizedCrystal
_audit_creation_method	'MofGen! by Chris Wilmer'
_symmetry_space_group_name_H-M	'P1'
_symmetry_Int_Tables_number	1
_symmetry_cell_setting	triclinic
loop_
_symmetry_equiv_pos_as_xyz
  x,y,z
_cell_length_a	14.519709
_cell_length_b	9.065215
_cell_length_c	7.540329
_cell_angle_alpha	89.997574
_cell_angle_beta	89.995460
_cell_angle_gamma	84.347421
loop_
_atom_site_label
_atom_site_type_symbol
_atom_site_fract_x
_atom_site_fract_y
_atom_site_fract_z
O1	O	0.135213	1.957867	-0.147466
O2	O	0.468546	2.291200	0.185867
O3	O	0.801879	2.624534	0.519200
O4	O	0.146307	1.528374	-0.147475
O5	O	0.479640	1.861707	0.185859
O6	O	0.812974	2.195040	0.519192
O7	O	0.006605	1.754508	-0.147454
O8	O	0.339938	2.087841	0.185879
O9	O	0.673271	2.421174	0.519212
O10	O	0.274915	1.731733	-0.147487
O11	O	0.608248	2.065066	0.185847
O12	O	0.941582	2.398400	0.519180
O13	O	0.006603	1.754494	0.147511
O14	O	0.339936	2.087828	0.480844
O15	O	0.673270	2.421161	0.814177
O16	O	0.146305	1.528360	0.147490
O17	O	0.479639	1.861693	0.480824
O18	O	0.812972	2.195027	0.814157
O19	O	0.135211	1.957853	0.147499
O20	O	0.468544	2.291187	0.480832
O21	O	0.801877	2.624520	0.814165
Cu22	Cu	0.140758	1.743106	0.174427
Cu23	Cu	0.474091	2.076439	0.507760
Cu24	Cu	0.807425	2.409772	0.841094
Cu25	Cu	0.140760	1.743121	-0.174403
Cu26	Cu	0.474093	2.076455	0.158930
Cu27	Cu	0.807427	2.409788	0.492263
O28	O	0.274913	1.731719	0.147478
O29	O	0.608246	2.065053	0.480812
O30	O	0.941580	2.398386	0.814145
C31	C	0.145241	1.473400	0.000007
C32	C	0.478574	1.806734	0.333340
C33	C	0.811907	2.140067	0.666673
C34	C	0.142054	1.309617	0.000004
C35	C	0.475388	1.642950	0.333337
C36	C	0.808721	1.976283	0.666671
C37	C	-0.027764	1.753439	0.000028
C38	C	0.305570	2.086773	0.333362
C39	C	0.638903	2.420106	0.666695
C40	C	-0.130168	1.750259	0.000029
C41	C	0.203165	2.083592	0.333363
C42	C	0.536498	2.416926	0.666696
C43	C	-0.505150	1.738550	-0.000017
C44	C	-0.171816	2.071883	0.333316
C45	C	0.161517	2.405216	0.666650
C46	C	-0.400818	1.741801	-0.000004
C47	C	-0.067485	2.075135	0.333330
C48	C	0.265849	2.408468	0.666663
C49	C	-0.317662	1.744404	0.000008
C50	C	0.015671	2.077737	0.333341
C51	C	0.349004	2.411071	0.666674
C52	C	-0.213324	1.747656	0.000018
C53	C	0.120009	2.080990	0.333351
C54	C	0.453343	2.414323	0.666685
C55	C	0.309282	1.732788	-0.000008
C56	C	0.642615	2.066121	0.333325
C57	C	0.975948	2.399454	0.666658
C58	C	0.411686	1.735968	-0.000021
C59	C	0.745019	2.069301	0.333312
C60	C	1.078353	2.402635	0.666646
C61	C	0.136277	2.012827	0.000013
C62	C	0.469611	2.346160	0.333346
C63	C	0.802944	2.679494	0.666680
C64	C	0.139464	2.176610	0.000004
C65	C	0.472797	2.509944	0.333338
C66	C	0.806130	2.843277	0.666671
N67	N	0.140756	1.743105	0.419776
N68	N	0.474089	2.076438	0.753109
N69	N	0.807423	2.409772	1.086442
N70	N	0.140755	1.743134	-0.419752
N71	N	0.474088	2.076467	-0.086418
N72	N	0.807421	2.409800	0.246915
