data_functionalizedCrystal
_audit_creation_method	'MofGen! by Chris Wilmer'
_symmetry_space_group_name_H-M	'P1'
_symmetry_Int_Tables_number	1
_symmetry_cell_setting	triclinic
loop_
_symmetry_equiv_pos_as_xyz
  x,y,z
_cell_length_a	14.044209
_cell_length_b	14.044202
_cell_length_c	22.010155
_cell_angle_alpha	90.003098
_cell_angle_beta	90.003652
_cell_angle_gamma	93.190328
loop_
_atom_site_label
_atom_site_type_symbol
_atom_site_fract_x
_atom_site_fract_y
_atom_site_fract_z
O1	O	-1.277182	-0.230145	-0.050472
O2	O	-1.000510	-0.221842	-0.050488
O3	O	-1.134689	-0.087657	-0.050464
O4	O	-1.143004	-0.364330	-0.050496
O5	O	-1.134664	-0.087677	0.050587
O6	O	-1.000485	-0.221862	0.050562
O7	O	-1.277157	-0.230165	0.050579
Cu8	Cu	-1.138819	-0.226015	0.059797
Cu9	Cu	-1.138848	-0.225992	-0.059707
O10	O	-1.142979	-0.364349	0.050554
C11	C	-0.964876	-0.218216	0.000035
C12	C	-0.858733	-0.207373	0.000030
C13	C	-1.131039	-0.052045	0.000064
C14	C	-1.120191	0.054098	0.000072
C15	C	-0.664394	-0.187548	0.000043
C16	C	-0.613267	-0.264463	0.000036
C17	C	-0.505130	-0.253432	0.000043
C18	C	-0.772541	-0.198577	0.000035
C19	C	-0.312791	-0.233793	0.000052
C20	C	-0.418934	-0.244642	0.000049
C21	C	-1.177290	0.299556	0.000060
C22	C	-1.100374	0.248430	0.000058
C23	C	-1.111403	0.140294	0.000066
C24	C	-1.166262	0.407703	0.000052
N25	N	-1.138805	-0.226031	0.143850
C26	C	-1.146626	0.600038	0.000033
C27	C	-1.157468	0.493895	0.000046
N28	N	-1.138869	-0.225968	-0.143759
C29	C	-1.198267	-0.166584	0.563640
C30	C	-1.198271	-0.166578	0.627248
O31	O	-1.248790	-0.116043	0.660148
N32	N	-1.138846	-0.225972	0.659057
C33	C	-1.079406	-0.285368	0.627255
O34	O	-1.028861	-0.335886	0.660152
C35	C	-1.079398	-0.285369	0.563649
C36	C	-1.138834	-0.225978	0.531843
C37	C	-1.257697	-0.107198	0.531834
C38	C	-1.257695	-0.107206	0.468231
C39	C	-1.198262	-0.166600	0.436434
C40	C	-1.138831	-0.225986	0.468240
C41	C	-1.019954	-0.344760	0.531848
C42	C	-1.019951	-0.344754	0.468237
C43	C	-1.079387	-0.285364	0.436432
C44	C	-1.079395	-0.285388	0.372839
N45	N	-1.138820	-0.225994	0.341030
C46	C	-1.198253	-0.166600	0.372827
C47	C	-1.079427	-0.285361	0.760833
C48	C	-1.079439	-0.285366	0.824438
C49	C	-1.198303	-0.166575	0.824426
C50	C	-1.198295	-0.166576	0.760820
C51	C	-1.138852	-0.225968	0.729024
C52	C	-1.198244	-0.166622	0.239256
C53	C	-1.198238	-0.166637	0.175647
C54	C	-1.079372	-0.285425	0.175664
C55	C	-1.079380	-0.285413	0.239268
C56	C	-1.138819	-0.226004	0.271062
O57	O	-1.028899	-0.335894	0.339898
O58	O	-1.248782	-0.116082	0.339922
H59	H	-0.650709	-0.338596	0.000024
H60	H	-1.026241	0.285873	0.000051
H61	H	-1.246643	-0.118244	0.265135
H62	H	-1.030992	-0.333784	0.265165
C63	C	-1.323095	-0.041900	0.433249
H64	H	-1.314602	-0.050413	0.390812
H65	H	-1.307366	0.022707	0.443671
H66	H	-1.387683	-0.057725	0.443681
H67	H	-1.246692	-0.118214	0.734927
C68	C	-1.277430	0.248981	0.000078
H69	H	-1.271798	0.181883	0.000089
H70	H	-1.311154	0.266908	-0.035155
H71	H	-1.311113	0.266933	0.035326
H72	H	-0.971542	-0.393118	0.442352
H73	H	-1.306094	-0.058828	0.557718
C74	C	-1.263616	-0.101301	0.140664
H75	H	-1.299003	-0.065921	0.168715
H76	H	-1.306262	-0.139025	0.115848
H77	H	-1.225905	-0.058633	0.115855
C78	C	-0.613820	-0.087407	0.000050
H79	H	-0.546722	-0.093038	0.000047
H80	H	-0.631759	-0.053701	0.035289
H81	H	-0.631762	-0.053706	-0.035193
H82	H	-1.246695	-0.118212	0.850327
C83	C	-1.014061	-0.350696	0.859418
H84	H	-0.978661	-0.386060	0.831365
H85	H	-1.051753	-0.393365	0.884232
H86	H	-0.971412	-0.312957	0.884229
H87	H	-1.031024	-0.333734	0.734948
C88	C	-0.954582	-0.410099	0.566821
H89	H	-0.919186	-0.445461	0.538765
H90	H	-0.992286	-0.452768	0.591628
H91	H	-0.911929	-0.372375	0.591639
H92	H	-1.030985	-0.333786	0.149765
