data_functionalizedCrystal
_audit_creation_method	'MofGen! by Chris Wilmer'
_symmetry_space_group_name_H-M	'P1'
_symmetry_Int_Tables_number	1
_symmetry_cell_setting	triclinic
loop_
_symmetry_equiv_pos_as_xyz
  x,y,z
_cell_length_a	8.965430
_cell_length_b	12.837943
_cell_length_c	12.811415
_cell_angle_alpha	90.588083
_cell_angle_beta	95.430436
_cell_angle_gamma	89.996877
loop_
_atom_site_label
_atom_site_type_symbol
_atom_site_fract_x
_atom_site_fract_y
_atom_site_fract_z
O1	O	0.160931	-1.376632	0.272968
O2	O	0.159116	-1.074768	0.259483
O3	O	0.139452	-1.233294	0.114193
O4	O	0.180595	-1.218106	0.418257
O5	O	-0.108626	-1.233280	0.114203
O6	O	-0.088962	-1.074755	0.259492
O7	O	-0.087147	-1.376619	0.272977
Cu8	Cu	-0.110706	-1.225685	0.266236
Cu9	Cu	0.182675	-1.225701	0.266225
O10	O	-0.067483	-1.218093	0.418267
C11	C	0.034462	-1.036121	0.254932
C12	C	0.032628	-0.920985	0.241346
N13	N	-0.317054	-1.225682	0.266243
C14	C	0.010113	-1.232436	0.075009
C15	C	-0.005677	-1.229887	-0.041763
C16	C	-0.405269	-1.152346	0.333408
C17	C	-0.500661	-1.246149	0.363157
C18	C	-0.517788	-1.131919	0.236508
C19	C	-0.410249	-1.319532	0.296044
C20	C	-0.427374	-1.205240	0.169348
C21	C	-0.522725	-1.299110	0.199062
N22	N	0.389022	-1.225713	0.266209
C23	C	0.037510	-1.415265	0.277528
C24	C	0.039355	-1.530401	0.291114
C25	C	0.054707	-0.680732	0.404675
C26	C	0.052983	-0.572551	0.391915
C27	C	0.027445	-0.596441	0.203066
C28	C	0.029169	-0.704622	0.215827
C29	C	0.042803	-0.746763	0.316634
C30	C	0.044537	-0.854946	0.329394
C31	C	0.018989	-0.878833	0.140546
C32	C	0.017265	-0.770652	0.127786
C33	C	0.235135	-1.225093	-0.261191
C34	C	0.220305	-1.222698	-0.370909
C35	C	-0.050165	-1.222694	-0.370919
C36	C	-0.035336	-1.225089	-0.261201
C37	C	0.107319	-1.226290	-0.206341
C38	C	0.122148	-1.228693	-0.096621
C39	C	-0.148322	-1.228681	-0.096633
C40	C	-0.163151	-1.226286	-0.206350
C41	C	0.061859	-1.218951	0.457451
C42	C	0.077660	-1.221500	0.574223
H43	H	-0.353985	-1.090386	0.390271
Cl44	Cl	0.380995	-1.221190	-0.439861
H45	H	0.238304	-1.229673	-0.051956
H46	H	0.016222	-0.562110	0.120993
Cl47	Cl	-0.309014	-1.230198	-0.027672
H48	H	0.065810	-0.715044	0.486757
Cl49	Cl	-0.590510	-1.009478	0.197699
Cl50	Cl	0.061680	-0.907923	0.456122
Cl51	Cl	0.067944	-0.489543	0.502600
H52	H	0.006148	-0.736326	0.045710
Cl53	Cl	0.004046	-0.961851	0.029859
Cl54	Cl	0.414466	-1.226618	-0.192221
Cl55	Cl	-0.229487	-1.221154	-0.439902
Cl56	Cl	-0.342478	-1.224768	-0.275327
H57	H	-0.363320	-1.398856	0.321276
Cl58	Cl	-0.601485	-1.394982	0.111352
Cl59	Cl	-0.551032	-1.272878	0.489646
H60	H	-0.394713	-1.187899	0.087442
