data_functionalizedCrystal
_audit_creation_method	'MofGen! by Chris Wilmer'
_symmetry_space_group_name_H-M	'P1'
_symmetry_Int_Tables_number	1
_symmetry_cell_setting	triclinic
loop_
_symmetry_equiv_pos_as_xyz
  x,y,z
_cell_length_a	10.654556
_cell_length_b	14.519709
_cell_length_c	9.130313
_cell_angle_alpha	90.012940
_cell_angle_beta	89.998135
_cell_angle_gamma	95.916159
loop_
_atom_site_label
_atom_site_type_symbol
_atom_site_fract_x
_atom_site_fract_y
_atom_site_fract_z
O1	O	1.666589	-0.129560	-0.121774
O2	O	2.166589	0.370440	0.378226
O3	O	1.300993	-0.141895	-0.121792
O4	O	1.800993	0.358105	0.378208
O5	O	1.493484	-0.001540	-0.121742
O6	O	1.993484	0.498460	0.378258
O7	O	1.474098	-0.269916	-0.121825
O8	O	1.974098	0.230084	0.378175
O9	O	1.493471	-0.001536	0.121857
O10	O	1.993471	0.498464	0.621857
O11	O	1.300980	-0.141891	0.121807
O12	O	1.800980	0.358109	0.621807
O13	O	1.666576	-0.129556	0.121824
O14	O	2.166576	0.370444	0.621824
Cu15	Cu	1.483777	-0.135723	0.144058
Cu16	Cu	1.983777	0.364277	0.644058
Cu17	Cu	1.483792	-0.135728	-0.144026
Cu18	Cu	1.983792	0.364272	0.355974
O19	O	1.474085	-0.269912	0.121774
O20	O	1.974085	0.230088	0.621774
C21	C	1.254197	-0.140986	0.000005
C22	C	1.754197	0.359014	0.500005
C23	C	1.114781	-0.138273	0.000001
C24	C	1.614781	0.361727	0.500001
C25	C	0.918279	-0.134455	-0.132773
C26	C	1.418279	0.365545	0.367227
C27	C	1.049277	-0.136998	-0.132783
C28	C	1.549277	0.363002	0.367217
C29	C	1.049281	-0.136994	0.132802
C30	C	1.549281	0.363006	0.632802
C31	C	0.918287	-0.134443	0.132811
C32	C	1.418287	0.365557	0.632811
C33	C	1.492574	0.032827	0.000065
C34	C	1.992574	0.532827	0.500065
C35	C	1.489867	0.135222	0.000087
C36	C	1.989867	0.635222	0.500087
C37	C	1.479900	0.510170	0.000126
C38	C	1.979900	1.010170	0.500126
C39	C	1.482667	0.405848	0.000116
C40	C	1.982667	0.905848	0.500116
C41	C	1.484883	0.322699	0.000108
C42	C	1.984883	0.822699	0.500108
C43	C	1.487651	0.218370	0.000095
C44	C	1.987651	0.718370	0.500095
C45	C	1.713372	-0.130465	0.000023
C46	C	2.213372	0.369535	0.500023
C47	C	1.852788	-0.133179	0.000019
C48	C	2.352788	0.366821	0.500019
C49	C	1.474995	0.695722	0.000016
C50	C	1.974995	1.195722	0.500016
C51	C	1.477702	0.593327	0.000140
C52	C	1.977702	1.093327	0.500140
N53	N	1.483775	-0.135719	0.346681
N54	N	1.983775	0.364281	0.846681
N55	N	1.483804	-0.135725	-0.346648
N56	N	1.983804	0.364275	0.153352
C57	C	1.569039	-0.073596	0.423355
C58	C	2.069039	0.426404	0.923355
C59	C	1.569051	-0.073596	0.576692
C60	C	2.069051	0.426404	1.076692
C61	C	1.398531	-0.197851	0.576667
C62	C	1.898531	0.302149	1.076667
C63	C	1.398514	-0.197845	0.423333
C64	C	1.898514	0.302155	0.923333
H65	H	1.102594	-0.138036	-0.240915
H66	H	1.602594	0.361964	0.259085
C67	C	0.717471	-0.130554	-0.250691
C68	C	1.217471	0.369446	0.249309
C69	C	0.846281	-0.133057	-0.278734
C70	C	1.346281	0.366943	0.221266
H71	H	0.673027	-0.129695	-0.340806
H72	H	1.173027	0.370305	0.159194
H73	H	0.705464	-0.076455	-0.196121
H74	H	1.205464	0.423545	0.303879
H75	H	0.686560	-0.183825	-0.196147
H76	H	1.186560	0.316175	0.303853
H77	H	0.877194	-0.079782	-0.333269
H78	H	1.377194	0.420218	0.166731
H79	H	0.858296	-0.187161	-0.333327
H80	H	1.358296	0.312839	0.166673
H81	H	0.864963	-0.133403	0.240952
H82	H	1.364963	0.366597	0.740952
C83	C	1.250087	-0.140913	0.250716
C84	C	1.750087	0.359087	0.750716
C85	C	1.121280	-0.138398	0.278762
C86	C	1.621280	0.361602	0.778762
H87	H	1.294530	-0.141788	0.340830
H88	H	1.794530	0.358212	0.840830
H89	H	1.281006	-0.087649	0.196186
H90	H	1.781006	0.412351	0.696186
H91	H	1.262081	-0.195019	0.196131
H92	H	1.762081	0.304981	0.696131
H93	H	1.109285	-0.084288	0.333339
H94	H	1.609285	0.415712	0.833339
H95	H	1.090351	-0.191667	0.333315
H96	H	1.590351	0.308333	0.833315
H97	H	1.638478	-0.023009	0.639116
H98	H	2.138478	0.476991	1.139116
C99	C	1.737579	0.049231	0.438787
C100	C	2.237579	0.549231	0.938787
C101	C	1.662744	-0.005300	0.339098
C102	C	2.162744	0.494700	0.839098
H103	H	1.795422	0.091400	0.386769
H104	H	2.295422	0.591400	0.886769
H105	H	1.782839	0.010531	0.498561
H106	H	2.282839	0.510531	0.998561
H107	H	1.685225	0.082756	0.498622
H108	H	2.185225	0.582756	0.998622
H109	H	1.715097	-0.038830	0.279269
H110	H	2.215097	0.461170	0.779269
H111	H	1.617480	0.033406	0.279298
H112	H	2.117480	0.533406	0.779298
H113	H	1.329115	-0.248434	0.639092
H114	H	1.829115	0.251566	1.139092
C115	C	1.325109	-0.357002	0.376047
C116	C	1.825109	0.142998	0.876047
C117	C	1.304789	-0.266139	0.339040
C118	C	1.804789	0.233861	0.839040
H119	H	1.267252	-0.399158	0.324000
H120	H	1.767252	0.100842	0.824000
H121	H	1.312912	-0.365893	0.478324
H122	H	1.812912	0.134107	0.978324
H123	H	1.408941	-0.367579	0.350890
H124	H	1.908941	0.132421	0.850890
H125	H	1.220959	-0.255560	0.364208
H126	H	1.720959	0.244440	0.864208
H127	H	1.316975	-0.257245	0.236741
H128	H	1.816975	0.242755	0.736741
