data_functionalizedCrystal
_audit_creation_method	'MofGen! by Chris Wilmer'
_symmetry_space_group_name_H-M	'P1'
_symmetry_Int_Tables_number	1
_symmetry_cell_setting	triclinic
loop_
_symmetry_equiv_pos_as_xyz
  x,y,z
_cell_length_a	13.033291
_cell_length_b	19.120904
_cell_length_c	13.032721
_cell_angle_alpha	80.740061
_cell_angle_beta	74.815798
_cell_angle_gamma	84.914678
loop_
_atom_site_label
_atom_site_type_symbol
_atom_site_fract_x
_atom_site_fract_y
_atom_site_fract_z
Zn1	Zn	1.530178	-0.549865	0.256836
Zn2	Zn	2.030178	-0.049865	0.756836
Zn3	Zn	1.515084	-0.445640	0.426895
Zn4	Zn	2.015084	0.054360	0.926895
Zn5	Zn	1.362056	-0.419171	0.269899
Zn6	Zn	1.862056	0.080829	0.769899
Zn7	Zn	1.329963	-0.549784	0.456936
Zn8	Zn	1.829963	-0.049784	0.956936
O9	O	1.434320	-0.491115	0.352642
O10	O	1.934320	0.008885	0.852642
O11	O	1.676009	-0.547150	0.261356
O12	O	2.176009	-0.047150	0.761356
O13	O	1.501898	-0.343848	0.398964
O14	O	2.001898	0.156152	0.898964
O15	O	1.404107	-0.425464	0.118720
O16	O	1.904107	0.074536	0.618720
O17	O	1.664919	-0.470577	0.386297
O18	O	2.164919	0.029423	0.886297
O19	O	1.527625	-0.521484	0.109123
O20	O	2.027625	-0.021484	0.609123
O21	O	1.389470	-0.324402	0.283619
O22	O	1.889470	0.175598	0.783619
O23	O	1.209966	-0.425386	0.312749
O24	O	1.709966	0.074614	0.812749
O25	O	1.349408	-0.648075	0.437498
O26	O	1.849408	-0.148075	0.937498
O27	O	1.186387	-0.521347	0.450164
O28	O	1.686387	-0.021347	0.950164
O29	O	1.496505	-0.648135	0.290485
O30	O	1.996505	-0.148135	0.790485
O31	O	1.470778	-0.470498	0.580326
O32	O	1.970778	0.029502	1.080326
O33	O	1.334771	-0.547013	0.602397
O34	O	1.834771	-0.047013	1.102397
C35	C	1.159845	-0.470486	0.386135
C36	C	1.659845	0.029514	0.886135
C37	C	1.042418	-0.461679	0.400490
C38	C	1.542418	0.038321	0.900490
C39	C	0.874172	-0.486616	0.360004
C40	C	1.374172	0.013384	0.860004
C41	C	0.995538	-0.495718	0.345169
C42	C	1.495538	0.004282	0.845169
C43	C	1.421060	-0.674301	0.365885
C44	C	1.921060	-0.174301	0.865885
C45	C	1.415410	-0.752363	0.371529
C46	C	1.915410	-0.252363	0.871529
C47	C	1.489337	-0.789069	0.297642
C48	C	1.989337	-0.289069	0.797642
C49	C	1.484015	-0.862416	0.302942
C50	C	1.984015	-0.362416	0.802942
C51	C	1.404770	-0.899057	0.382135
C52	C	1.904770	-0.399057	0.882135
C53	C	1.330835	-0.862345	0.456025
C54	C	1.830835	-0.362345	0.956025
C55	C	1.336153	-0.788999	0.450719
C56	C	1.836153	-0.288999	0.950719
C57	C	1.384878	-1.120514	0.401980
C58	C	1.884878	-0.620514	0.901980
C59	C	1.379567	-1.193865	0.407282
C60	C	1.879567	-0.693865	0.907282
C61	C	1.532747	-1.193931	0.254197
C62	C	2.032747	-0.693931	0.754197
C63	C	1.538061	-1.120584	0.248903
C64	C	2.038061	-0.620584	0.748903
C65	C	1.464123	-1.083878	0.322789
C66	C	1.964123	-0.583878	0.822789
C67	C	1.399331	-0.974030	0.387557
C68	C	1.899331	-0.474030	0.887557
C69	C	1.469559	-1.008906	0.317362
C70	C	1.969559	-0.508906	0.817362
C71	C	1.709867	-0.511825	0.319018
C72	C	2.209867	-0.011825	0.819018
C73	C	1.827289	-0.520650	0.304690
C74	C	2.327289	-0.020650	0.804690
C75	C	1.397682	-0.511637	0.630109
C76	C	1.897682	-0.011637	1.130109
C77	C	1.382102	-0.520447	0.748801
C78	C	1.882102	-0.020447	1.248801
C79	C	1.447600	-0.308641	0.339365
C80	C	1.947600	0.191359	0.839365
C81	C	1.453495	-0.230572	0.333396
C82	C	1.953495	0.269428	0.833396
C83	C	1.471130	-0.470531	0.074088
C84	C	1.971130	0.029469	0.574088
C85	C	1.486816	-0.461759	-0.044615
C86	C	1.986816	0.038241	0.455385
C87	C	1.442505	-0.486553	0.790758
C88	C	1.942505	0.013447	1.290758
C89	C	1.426405	-0.495657	0.913432
C90	C	1.926405	0.004343	1.413432
H91	H	0.824461	-0.450737	0.418337
H92	H	1.324461	0.049263	0.918337
N93	N	1.346568	-0.540511	0.982304
N94	N	1.846568	-0.040511	1.482304
N95	N	1.272952	-0.515298	1.051053
N96	N	1.772952	-0.015298	1.551053
H97	H	1.216568	-0.546974	1.099696
H98	H	1.716568	-0.046974	1.599696
H99	H	1.550456	-0.426001	0.900491
H100	H	2.050456	0.073999	1.400491
H101	H	1.506142	-0.450797	0.735862
H102	H	2.006142	0.049203	1.235862
H103	H	1.602594	-1.090757	0.184418
H104	H	2.102594	-0.590757	0.684418
N105	N	1.249874	-0.899774	0.536896
N106	N	1.749874	-0.399774	1.036896
N107	N	1.184564	-0.932862	0.510477
N108	N	1.684564	-0.432862	1.010477
H109	H	1.127383	-0.959297	0.567591
H110	H	1.627383	-0.459297	1.067591
N111	N	1.302285	-0.565309	0.817674
N112	N	1.802285	-0.065309	1.317674
N113	N	1.289322	-0.572644	0.917229
N114	N	1.789322	-0.072644	1.417229
H115	H	1.232949	-0.604330	0.965871
H116	H	1.732949	-0.104330	1.465871
H117	H	1.275945	-0.759112	0.510876
H118	H	1.775945	-0.259112	1.010876
H119	H	1.045248	-0.531593	0.286821
H120	H	1.545248	-0.031593	0.786821
H121	H	0.992711	-0.425800	0.458833
H122	H	1.492711	0.074200	0.958833
N123	N	1.570298	-0.751657	0.216747
N124	N	2.070298	-0.251657	0.716747
N125	N	1.636296	-0.784443	0.150782
N126	N	2.136296	-0.284443	0.650782
H127	H	1.693476	-0.758023	0.093645
H128	H	2.193476	-0.258023	0.593645
H129	H	0.877002	-0.556523	0.246347
H130	H	1.377002	-0.056523	0.746347
N131	N	1.318365	-1.011454	0.468429
N132	N	1.818365	-0.511454	0.968429
N133	N	1.222419	-0.995407	0.472623
N134	N	1.722419	-0.495407	0.972623
H135	H	1.165230	-1.021842	0.529728
H136	H	1.665230	-0.521842	1.029728
N137	N	1.559538	-0.899900	0.227460
N138	N	2.059538	-0.399900	0.727460
N139	N	1.630292	-0.867178	0.156763
N140	N	2.130292	-0.367178	0.656763
H141	H	1.683635	-0.893649	0.103449
H142	H	2.183635	-0.393649	0.603449
H143	H	1.592941	-1.223825	0.194042
H144	H	2.092941	-0.723825	0.694042
H145	H	1.315033	-1.223696	0.471773
H146	H	1.815033	-0.723696	0.971773
H147	H	1.324686	-1.090639	0.462158
H148	H	1.824686	-0.590639	0.962158
H149	H	1.534076	-0.979070	0.252880
H150	H	2.034076	-0.479070	0.752880
