data_functionalizedCrystal
_audit_creation_method	'MofGen! by Chris Wilmer'
_symmetry_space_group_name_H-M	'P1'
_symmetry_Int_Tables_number	1
_symmetry_cell_setting	triclinic
loop_
_symmetry_equiv_pos_as_xyz
  x,y,z
_cell_length_a	9.065218
_cell_length_b	8.140239
_cell_length_c	9.065218
_cell_angle_alpha	90.001686
_cell_angle_beta	85.015919
_cell_angle_gamma	90.004899
loop_
_atom_site_label
_atom_site_type_symbol
_atom_site_fract_x
_atom_site_fract_y
_atom_site_fract_z
O1	O	-1.960398	-0.136690	-0.216356
O2	O	-1.627064	0.196643	0.116978
O3	O	-1.293731	0.529976	0.450311
O4	O	-1.531113	-0.136674	-0.234102
O5	O	-1.197780	0.196659	0.099231
O6	O	-0.864446	0.529992	0.432565
O7	O	-1.754629	-0.136679	-0.010586
O8	O	-1.421295	0.196654	0.322747
O9	O	-1.087962	0.529987	0.656080
O10	O	-1.736882	-0.136685	-0.439871
O11	O	-1.403549	0.196648	-0.106538
O12	O	-1.070216	0.529981	0.226795
O13	O	-1.754616	0.136548	-0.010584
O14	O	-1.421283	0.469881	0.322750
O15	O	-1.087949	0.803214	0.656083
O16	O	-1.531101	0.136553	-0.234099
O17	O	-1.197767	0.469886	0.099234
O18	O	-0.864434	0.803219	0.432567
O19	O	-1.960385	0.136537	-0.216353
O20	O	-1.627052	0.469870	0.116980
O21	O	-1.293719	0.803204	0.450314
Zn22	Zn	-1.745741	0.179925	-0.225226
Zn23	Zn	-1.412408	0.513259	0.108108
Zn24	Zn	-1.079074	0.846592	0.441441
Zn25	Zn	-1.745757	-0.180063	-0.225229
Zn26	Zn	-1.412424	0.153270	0.108104
Zn27	Zn	-1.079091	0.486604	0.441437
O28	O	-1.736870	0.136542	-0.439869
O29	O	-1.403536	0.469875	-0.106535
O30	O	-1.070203	0.803208	0.226798
C31	C	-1.476120	-0.000059	-0.232395
C32	C	-1.142787	0.333274	0.100938
C33	C	-0.809454	0.666608	0.434272
C34	C	-1.312277	-0.000053	-0.227295
C35	C	-0.978944	0.333280	0.106038
C36	C	-0.645611	0.666614	0.439371
N37	N	-1.745740	0.425608	-0.225222
N38	N	-1.412407	0.758941	0.108111
N39	N	-1.079074	1.092275	0.441444
C40	C	-1.752917	-0.000068	0.044402
C41	C	-1.419584	0.333265	0.377735
C42	C	-1.086250	0.666598	0.711068
C43	C	-1.747817	-0.000076	0.208244
C44	C	-1.414484	0.333257	0.541578
C45	C	-1.081151	0.666591	0.874911
C46	C	-1.015378	-0.000072	-0.218060
C47	C	-0.682045	0.333261	0.115274
C48	C	-0.348712	0.666595	0.448607
C49	C	-1.179221	-0.000058	-0.223159
C50	C	-0.845888	0.333275	0.110174
C51	C	-0.512554	0.666609	0.443508
N52	N	-1.745769	-0.425746	-0.225221
N53	N	-1.412436	-0.092412	0.108112
N54	N	-1.079103	0.240921	0.441446
C55	C	-1.738581	-0.000073	-0.494856
C56	C	-1.405248	0.333260	-0.161523
C57	C	-1.071915	0.666594	0.171810
C58	C	-1.743681	-0.000076	-0.658699
C59	C	-1.410348	0.333257	-0.325366
C60	C	-1.077014	0.666591	0.007967
