data_functionalizedCrystal
_audit_creation_method	'MofGen! by Chris Wilmer'
_symmetry_space_group_name_H-M	'P1'
_symmetry_Int_Tables_number	1
_symmetry_cell_setting	triclinic
loop_
_symmetry_equiv_pos_as_xyz
  x,y,z
_cell_length_a	10.654562
_cell_length_b	14.519709
_cell_length_c	9.730223
_cell_angle_alpha	89.997715
_cell_angle_beta	89.996961
_cell_angle_gamma	84.085124
loop_
_atom_site_label
_atom_site_type_symbol
_atom_site_fract_x
_atom_site_fract_y
_atom_site_fract_z
O1	O	1.666579	0.129584	-0.114384
O2	O	1.300984	0.141913	-0.114367
O3	O	1.493474	0.001560	-0.114363
O4	O	1.474088	0.269936	-0.114387
O5	O	1.493472	0.001564	0.114217
O6	O	1.300982	0.141916	0.114213
O7	O	1.666576	0.129588	0.114196
Zn8	Zn	1.483779	0.135752	0.150497
Zn9	Zn	1.483782	0.135748	-0.150667
O10	O	1.474086	0.269940	0.114193
C11	C	1.254194	0.141007	-0.000075
C12	C	1.114777	0.138291	-0.000068
C13	C	1.049258	0.137026	0.124521
C14	C	0.918260	0.134482	0.124498
C15	C	0.918312	0.134471	-0.124713
C16	C	1.049309	0.137009	-0.124688
C17	C	1.049225	0.137037	0.268400
C18	C	0.918228	0.134492	0.268378
C19	C	1.492570	-0.032802	-0.000073
C20	C	1.489862	-0.135198	-0.000072
C21	C	1.479895	-0.510145	-0.000107
C22	C	1.482663	-0.405823	-0.000097
C23	C	1.484879	-0.322675	-0.000088
C24	C	1.487647	-0.218346	-0.000081
C25	C	1.713367	0.130493	-0.000099
C26	C	1.852783	0.133209	-0.000115
C27	C	1.474990	0.304302	-0.000100
C28	C	1.477698	0.406698	-0.000110
N29	N	1.483786	0.135755	0.356033
N30	N	1.483784	0.135738	-0.356204
C31	C	1.569042	0.073628	0.427961
C32	C	1.569039	0.073617	0.571844
C33	C	1.398519	0.197868	0.571859
C34	C	1.398517	0.197874	0.427978
C35	C	1.667495	0.001896	0.427953
C36	C	1.667492	0.001885	0.571836
H37	H	1.096097	0.073303	0.323659
C38	C	1.045952	0.237496	0.464651
C39	C	1.088290	0.227828	0.328674
H40	H	1.070076	0.293545	0.501859
H41	H	0.956654	0.238832	0.466673
H42	H	1.082430	0.186671	0.517644
H43	H	1.051803	0.278649	0.275678
H44	H	1.177604	0.226500	0.326643
H45	H	0.889286	0.067234	0.313030
H46	H	1.329094	0.248442	0.630452
C47	C	1.629196	-0.083993	0.775810
C48	C	1.627172	-0.088540	0.632093
H49	H	1.604294	-0.139814	0.813008
H50	H	1.712128	-0.075870	0.805944
H51	H	1.572518	-0.033218	0.805945
H52	H	1.683857	-0.139311	0.601957
H53	H	1.544227	-0.096674	0.601947
H54	H	0.864992	0.133427	-0.226174
H55	H	0.871328	0.198229	0.323608
H56	H	1.329084	0.248454	0.369416
H57	H	1.646734	-0.068990	0.388907
H58	H	1.758462	0.024361	0.383321
C59	C	1.182735	0.218984	-0.269258
C60	C	1.121332	0.138390	-0.261639
H61	H	1.227204	0.219831	-0.353807
H62	H	1.122188	0.271670	-0.264108
H63	H	1.240474	0.220100	-0.195035
H64	H	1.063585	0.137277	-0.335857
H65	H	1.181886	0.085690	-0.266803
C66	C	1.876461	0.036171	0.512625
C67	C	1.797568	0.023215	0.624559
H68	H	1.956758	0.049343	0.545177
H69	H	1.885902	-0.018493	0.458389
H70	H	1.840234	0.086462	0.458408
H71	H	1.833791	-0.027080	0.678771
H72	H	1.788131	0.077886	0.678817
