data_functionalizedCrystal
_audit_creation_method	'MofGen! by Chris Wilmer'
_symmetry_space_group_name_H-M	'P1'
_symmetry_Int_Tables_number	1
_symmetry_cell_setting	triclinic
loop_
_symmetry_equiv_pos_as_xyz
  x,y,z
_cell_length_a	16.959455
_cell_length_b	25.639239
_cell_length_c	16.959447
_cell_angle_alpha	90.033076
_cell_angle_beta	90.014322
_cell_angle_gamma	90.035633
loop_
_atom_site_label
_atom_site_type_symbol
_atom_site_fract_x
_atom_site_fract_y
_atom_site_fract_z
Zn1	Zn	1.208282	-0.208183	0.446894
Zn2	Zn	1.708282	0.291817	0.946894
Zn3	Zn	1.208161	-0.295624	0.314709
Zn4	Zn	1.708161	0.204376	0.814709
Zn5	Zn	1.076110	-0.208199	0.314731
Zn6	Zn	1.576110	0.291801	0.814731
Zn7	Zn	1.076032	-0.295585	0.446847
Zn8	Zn	1.576032	0.204415	0.946847
O9	O	1.142146	-0.251898	0.380795
O10	O	1.642146	0.248102	0.880795
O11	O	1.318876	-0.219792	0.429369
O12	O	1.818876	0.280208	0.929369
O13	O	1.190627	-0.284050	0.204101
O14	O	1.690627	0.215950	0.704101
O15	O	1.093726	-0.135032	0.332291
O16	O	1.593726	0.364968	0.832291
O17	O	1.318788	-0.284034	0.332253
O18	O	1.818788	0.215966	0.832253
O19	O	1.190832	-0.135020	0.429391
O20	O	1.690832	0.364980	0.929391
O21	O	1.093609	-0.219820	0.204117
O22	O	1.593609	0.280180	0.704117
O23	O	0.965489	-0.219782	0.332247
O24	O	1.465489	0.280218	0.832247
O25	O	1.093593	-0.283967	0.557464
O26	O	1.593593	0.216033	1.057464
O27	O	0.965431	-0.283983	0.429312
O28	O	1.465431	0.216017	0.929312
O29	O	1.190756	-0.219754	0.557498
O30	O	1.690756	0.280246	1.057498
O31	O	1.190551	-0.368784	0.332208
O32	O	1.690551	0.131216	0.832208
O33	O	1.093476	-0.368755	0.429290
O34	O	1.593476	0.131245	0.929290
C35	C	0.936780	-0.251880	0.380777
C36	C	1.436780	0.248120	0.880777
C37	C	0.848923	-0.251886	0.380788
C38	C	1.348923	0.248114	0.880788
C39	C	0.477453	-0.218441	0.330359
C40	C	0.977453	0.281559	0.830359
C41	C	0.477442	-0.285398	0.431277
C42	C	0.977442	0.214602	0.931277
C43	C	0.559988	-0.285390	0.431272
C44	C	1.059988	0.214610	0.931272
C45	C	0.601270	-0.251908	0.380809
C46	C	1.101270	0.248092	0.880809
C47	C	0.560007	-0.218433	0.330351
C48	C	1.060007	0.281567	0.830351
C49	C	0.601258	-0.318868	0.481723
C50	C	1.101258	0.181132	0.981723
C51	C	0.683809	-0.318863	0.481720
C52	C	1.183809	0.181137	0.981720
C53	C	0.725092	-0.285377	0.431260
C54	C	1.225092	0.214623	0.931260
C55	C	0.683824	-0.251901	0.380801
C56	C	1.183824	0.248099	0.880801
C57	C	0.725106	-0.218418	0.330338
C58	C	1.225106	0.281582	0.830338
C59	C	0.683839	-0.184939	0.279882
C60	C	1.183839	0.315061	0.779882
C61	C	0.601290	-0.184948	0.279891
C62	C	1.101290	0.315052	0.779891
C63	C	0.807641	-0.285368	0.431251
C64	C	1.307641	0.214632	0.931251
C65	C	0.807660	-0.218411	0.330330
C66	C	1.307660	0.281589	0.830330
C67	C	1.142013	-0.387740	0.380759
C68	C	1.642013	0.112260	0.880759
C69	C	1.142029	-0.445854	0.380770
C70	C	1.642029	0.054146	0.880770
C71	C	1.192825	-0.806220	0.330331
C72	C	1.692825	-0.306220	0.830331
C73	C	1.192855	-0.860824	0.330341
C74	C	1.692855	-0.360824	0.830341
O75	O	1.235906	-0.889063	0.287417
O76	O	1.735906	-0.389063	0.787417
N77	N	1.142285	-0.888137	0.380847
N78	N	1.642285	-0.388137	0.880847
C79	C	1.091686	-0.860842	0.431352
C80	C	1.591686	-0.360842	0.931352
O81	O	1.048675	-0.889088	0.474313
O82	O	1.548675	-0.389088	0.974313
C83	C	1.091660	-0.806239	0.431345
C84	C	1.591660	-0.306239	0.931345
C85	C	1.142228	-0.778929	0.380830
C86	C	1.642228	-0.278929	0.880830
C87	C	1.243389	-0.778910	0.279820
C88	C	1.743389	-0.278910	0.779820
C89	C	1.243358	-0.724309	0.279809
C90	C	1.743358	-0.224309	0.779809
C91	C	1.192761	-0.697019	0.330308
C92	C	1.692761	-0.197019	0.830308
C93	C	1.142196	-0.724329	0.380818
C94	C	1.642196	-0.224329	0.880818
C95	C	1.041066	-0.778946	0.481853
C96	C	1.541066	-0.278946	0.981853
C97	C	1.041045	-0.724339	0.481842
C98	C	1.541045	-0.224339	0.981842
C99	C	1.091613	-0.697029	0.431326
C100	C	1.591613	-0.197029	0.931326
C101	C	1.091568	-0.642437	0.431306
C102	C	1.591568	-0.142437	0.931306
N103	N	1.142139	-0.615125	0.380800
N104	N	1.642139	-0.115125	0.880800
C105	C	1.192735	-0.642415	0.330301
C106	C	1.692735	-0.142415	0.830301
C107	C	1.091746	-0.975513	0.431364
C108	C	1.591746	-0.475513	0.931364
C109	C	1.091767	-1.030115	0.431368
C110	C	1.591767	-0.530115	0.931368
C111	C	1.192938	-1.030093	0.330358
C112	C	1.692938	-0.530093	0.830358
C113	C	1.192912	-0.975490	0.330351
C114	C	1.692912	-0.475490	0.830351
C115	C	1.142316	-0.948200	0.380858
C116	C	1.642316	-0.448200	0.880858
C117	C	1.192664	-0.527750	0.330280
C118	C	1.692664	-0.027750	0.830280
C119	C	1.192625	-0.473145	0.330271
C120	C	1.692625	0.026855	0.830271
C121	C	1.091458	-0.473172	0.431283
C122	C	1.591458	0.026828	0.931283
C123	C	1.091493	-0.527772	0.431290
C124	C	1.591493	-0.027772	0.931290
C125	C	1.142103	-0.555060	0.380786
C126	C	1.642103	-0.055060	0.880786
O127	O	1.048541	-0.614164	0.474211
O128	O	1.548541	-0.114164	0.974211
O129	O	1.235746	-0.614163	0.287355
O130	O	1.735746	-0.114163	0.787355
C131	C	1.348314	-0.251915	0.380814
C132	C	1.848314	0.248085	0.880814
C133	C	1.436171	-0.251923	0.380822
C134	C	1.936171	0.248077	0.880822
C135	C	1.142179	-0.251854	0.586963
C136	C	1.642179	0.248146	1.086963
C137	C	1.142193	-0.251836	0.674820
C138	C	1.642193	0.248164	1.174820
C139	C	1.142301	-0.115525	0.380849
C140	C	1.642301	0.384475	0.880849
C141	C	1.142367	-0.057411	0.380872
C142	C	1.642367	0.442589	0.880872
C143	C	1.142159	-0.251903	0.175429
C144	C	1.642159	0.248097	0.675429
C145	C	1.142298	-0.251774	0.087573
C146	C	1.642298	0.248226	0.587573
C147	C	1.091699	-0.285214	1.046281
C148	C	1.591699	0.214786	1.546281
C149	C	1.192876	-0.218348	1.046311
C150	C	1.692876	0.281652	1.546311
C151	C	1.192855	-0.218359	0.963765
C152	C	1.692855	0.281641	1.463765
C153	C	1.142256	-0.251799	0.922473
C154	C	1.642256	0.248201	1.422473
C155	C	1.091678	-0.285227	0.963727
C156	C	1.591678	0.214773	1.463727
C157	C	1.243438	-0.184935	0.922505
C158	C	1.743438	0.315065	1.422505
C159	C	1.243419	-0.184945	0.839954
C160	C	1.743419	0.315055	1.339954
C161	C	1.192816	-0.218382	0.798661
C162	C	1.692816	0.281618	1.298661
C163	C	1.142235	-0.251812	0.839920
C164	C	1.642235	0.248188	1.339920
C165	C	1.091636	-0.285251	0.798628
C166	C	1.591636	0.214749	1.298628
C167	C	1.041051	-0.318679	0.839885
C168	C	1.541051	0.181321	1.339885
C169	C	1.041074	-0.318665	0.922433
C170	C	1.541074	0.181335	1.422433
C171	C	1.192792	-0.218396	0.716112
C172	C	1.692792	0.281604	1.216112
C173	C	1.091615	-0.285265	0.716074
C174	C	1.591615	0.214735	1.216074
H175	H	0.841237	-0.312628	0.472329
H176	H	1.341237	0.187372	0.972329
H177	H	1.233980	-0.191182	0.682524
H178	H	1.733980	0.308818	1.182524
H179	H	1.284638	-0.157713	0.956131
H180	H	1.784638	0.342287	1.456131
H181	H	1.234089	-0.953257	0.289218
H182	H	1.734089	-0.453257	0.789218
O183	O	0.723856	-0.152344	0.230898
O184	O	1.223856	0.347656	0.730898
C185	C	0.703756	-0.100247	0.248328
C186	C	1.203756	0.399753	0.748328
H187	H	0.643832	-0.099186	0.278723
H188	H	1.143832	0.400814	0.778723
H189	H	0.700933	-0.076757	0.191345
H190	H	1.200933	0.423243	0.691345
H191	H	0.750248	-0.082669	0.289008
H192	H	1.250248	0.417331	0.789008
O193	O	1.292450	-0.697843	0.230636
O194	O	1.792450	-0.197843	0.730636
C195	C	1.275227	-0.711226	0.151841
C196	C	1.775227	-0.211226	0.651841
H197	H	1.244851	-0.750888	0.150185
H198	H	1.744851	-0.250888	0.650185
H199	H	1.332301	-0.713084	0.116458
H200	H	1.832301	-0.213084	0.616458
H201	H	1.234603	-0.680529	0.125167
H202	H	1.734603	-0.180529	0.625167
O203	O	0.847724	-0.185942	0.281194
O204	O	1.347724	0.314058	0.781194
C205	C	0.827497	-0.197296	0.202387
C206	C	1.327497	0.302704	0.702387
H207	H	0.804768	-0.239063	0.198285
H208	H	1.304768	0.260937	0.698285
H209	H	0.881772	-0.192758	0.163341
H210	H	1.381772	0.307242	0.663341
H211	H	0.779595	-0.169250	0.181810
H212	H	1.279595	0.330750	0.681810
H213	H	0.567683	-0.157691	0.238812
H214	H	1.067683	0.342309	0.738812
H215	H	1.050403	-0.312491	0.682460
H216	H	1.550403	0.187509	1.182460
O217	O	0.437408	-0.185846	0.281431
O218	O	0.937408	0.314154	0.781431
C219	C	0.457646	-0.133750	0.298834
C220	C	0.957646	0.366250	0.798834
H221	H	0.480362	-0.131161	0.361985
H222	H	0.980362	0.368839	0.861985
H223	H	0.403378	-0.107915	0.292100
H224	H	0.903378	0.392085	0.792100
H225	H	0.505560	-0.120047	0.256489
H226	H	1.005560	0.379953	0.756489
H227	H	1.234076	-0.191126	1.079936
H228	H	1.734076	0.308874	1.579936
O229	O	0.437222	-0.317872	0.480267
O230	O	0.937222	0.182128	0.980267
C231	C	0.355513	-0.310712	0.469436
C232	C	0.855513	0.189288	0.969436
H233	H	0.344260	-0.270343	0.443659
H234	H	0.844260	0.229657	0.943659
H235	H	0.324154	-0.314309	0.528635
H236	H	0.824154	0.185691	1.028635
H237	H	0.332054	-0.341693	0.427261
H238	H	0.832054	0.158307	0.927261
H239	H	0.999884	-0.801172	0.522984
H240	H	1.499884	-0.301172	1.022984
O241	O	1.292457	-0.805489	0.230767
O242	O	1.792457	-0.305489	0.730767
C243	C	1.247546	-0.837136	0.179658
C244	C	1.747546	-0.337136	0.679658
H245	H	1.187609	-0.845333	0.207443
H246	H	1.687609	-0.345333	0.707443
H247	H	1.279779	-0.875520	0.169157
H248	H	1.779779	-0.375520	0.669157
H249	H	1.238933	-0.816146	0.121046
H250	H	1.738933	-0.316146	0.621046
O251	O	1.241847	-0.554172	0.281144
O252	O	1.741847	-0.054172	0.781144
C253	C	1.286477	-0.518350	0.236579
C254	C	1.786477	-0.018350	0.736579
H255	H	1.254075	-0.479451	0.233816
H256	H	1.754075	0.020549	0.733816
H257	H	1.294956	-0.534143	0.174308
H258	H	1.794956	-0.034143	0.674308
H259	H	1.346488	-0.512488	0.265574
H260	H	1.846488	-0.012488	0.765574
O261	O	1.241638	-0.446594	0.281115
O262	O	1.741638	0.053406	0.781115
C263	C	1.196655	-0.415053	0.230025
C264	C	1.696655	0.084947	0.730025
H265	H	1.134412	-0.431550	0.225091
H266	H	1.634412	0.068450	0.725091
H267	H	1.225284	-0.414447	0.169221
H268	H	1.725284	0.085553	0.669221
H269	H	1.193896	-0.373660	0.254450
H270	H	1.693896	0.126340	0.754450
H271	H	1.284608	-0.157726	0.806369
H272	H	1.784608	0.342274	1.306369
O273	O	0.991984	-0.351208	0.962426
O274	O	1.491984	0.148792	1.462426
C275	C	1.009208	-0.403323	0.942243
C276	C	1.509208	0.096677	1.442243
H277	H	1.039570	-0.404420	0.882302
H278	H	1.539570	0.095580	1.382302
H279	H	0.952135	-0.426765	0.939415
H280	H	1.452135	0.073235	1.439415
H281	H	1.049844	-0.420928	0.988689
H282	H	1.549844	0.079072	1.488689
O283	O	0.561116	-0.351313	0.530823
O284	O	1.061116	0.148687	1.030823
C285	C	0.513396	-0.321584	0.581942
C286	C	1.013396	0.178416	1.081942
H287	H	0.538319	-0.280411	0.586936
H288	H	1.038319	0.219589	1.086936
H289	H	0.512454	-0.340543	0.642721
H290	H	1.012454	0.159457	1.142721
H291	H	0.450829	-0.319760	0.557508
H292	H	0.950829	0.180240	1.057508
H293	H	0.717401	-0.346123	0.522805
H294	H	1.217401	0.153877	1.022805
H295	H	0.999857	-0.345907	0.806254
H296	H	1.499857	0.154093	1.306254
H297	H	0.999845	-0.702122	0.522973
H298	H	1.499845	-0.202122	1.022973
H299	H	1.234139	-1.052323	0.289242
H300	H	1.734139	-0.552323	0.789242
H301	H	1.050582	-1.052346	0.472495
H302	H	1.550582	-0.552346	0.972495
H303	H	1.050538	-0.953296	0.472491
H304	H	1.550538	-0.453296	0.972491
O305	O	1.042345	-0.554224	0.480431
O306	O	1.542345	-0.054224	0.980431
C307	C	0.997664	-0.518424	0.524983
C308	C	1.497664	-0.018424	1.024983
H309	H	1.030012	-0.479477	0.527732
H310	H	1.530012	0.020523	1.027732
H311	H	0.989207	-0.534173	0.587259
H312	H	1.489207	-0.034173	1.087259
H313	H	0.937646	-0.512675	0.495985
H314	H	1.437646	-0.012675	0.995985
O315	O	1.042637	-0.317667	1.086475
O316	O	1.542637	0.182333	1.586475
C317	C	1.053484	-0.310476	1.168190
C318	C	1.553484	0.189524	1.668190
H319	H	1.114506	-0.293357	1.179478
H320	H	1.614506	0.206643	1.679478
H321	H	1.048082	-0.349634	1.199543
H322	H	1.548082	0.150366	1.699543
H323	H	1.006636	-0.282625	1.191626
H324	H	1.506636	0.217375	1.691626
O325	O	1.042428	-0.446631	0.480422
O326	O	1.542428	0.053369	0.980422
C327	C	1.087395	-0.414985	0.531484
C328	C	1.587395	0.085015	1.031484
H329	H	1.149651	-0.431405	0.536419
H330	H	1.649651	0.068595	1.036419
H331	H	1.058776	-0.414348	0.592292
H332	H	1.558776	0.085652	1.092292
H333	H	1.090120	-0.373614	0.507032
H334	H	1.590120	0.126386	1.007032
