data_functionalizedCrystal
_audit_creation_method	'MofGen! by Chris Wilmer'
_symmetry_space_group_name_H-M	'P1'
_symmetry_Int_Tables_number	1
_symmetry_cell_setting	triclinic
loop_
_symmetry_equiv_pos_as_xyz
  x,y,z
_cell_length_a	14.044220
_cell_length_b	10.540539
_cell_length_c	13.101039
_cell_angle_alpha	93.398267
_cell_angle_beta	86.340132
_cell_angle_gamma	88.857185
loop_
_atom_site_label
_atom_site_type_symbol
_atom_site_fract_x
_atom_site_fract_y
_atom_site_fract_z
O1	O	1.264944	0.299850	-0.085096
O2	O	0.988901	0.288796	-0.085123
O3	O	1.133220	0.110253	-0.085108
O4	O	1.120625	0.478393	-0.085111
O5	O	1.122866	0.123087	0.085321
O6	O	0.978547	0.301630	0.085306
O7	O	1.254589	0.312683	0.085332
Zn8	Zn	1.114924	0.309194	0.112379
Zn9	Zn	1.128566	0.292285	-0.112169
O10	O	1.110270	0.491226	0.085317
C11	C	0.948377	0.290375	0.000088
C12	C	0.843054	0.275945	0.000078
C13	C	0.650213	0.249565	0.000099
C14	C	0.593272	0.351908	0.000102
C15	C	0.485969	0.337230	0.000114
C16	C	0.757526	0.264241	0.000087
C17	C	1.127098	0.069271	0.000105
C18	C	1.124273	-0.071963	0.000099
C19	C	1.016007	-0.266367	-0.000294
C20	C	1.018849	-0.119430	0.000090
C21	C	1.169094	-0.121162	0.097427
C22	C	1.165492	-0.268064	0.097509
C23	C	1.179411	-0.282960	-0.096300
C24	C	1.180460	-0.135977	-0.097587
C25	C	1.295114	0.311104	0.000119
C26	C	1.400437	0.325534	0.000123
C27	C	1.116392	0.532208	0.000103
C28	C	1.119218	0.673442	0.000102
N29	N	1.105620	0.320734	0.265626
N30	N	1.137878	0.280737	-0.265416
C31	C	1.092962	0.336445	0.474667
C32	C	1.150533	0.265029	0.525549
C33	C	1.143490	0.273771	0.641867
C34	C	1.100004	0.327705	0.358339
H35	H	0.983167	-0.086117	-0.069679
H36	H	1.123576	-0.294577	0.170256
C37	C	1.019240	0.427920	0.533823
C38	C	1.011583	0.435748	0.651819
C39	C	0.937866	0.527227	0.710987
C40	C	0.871806	0.610877	0.652160
C41	C	0.879460	0.603053	0.534157
C42	C	0.953178	0.511574	0.474989
H43	H	1.060487	0.373822	0.695372
H44	H	0.932200	0.533018	0.798341
H45	H	0.817235	0.678595	0.695960
H46	H	0.830556	0.664979	0.490604
H47	H	0.958844	0.505782	0.387635
C48	C	1.267549	-0.322071	0.103510
C49	C	1.352064	-0.231510	0.108216
C50	C	1.454117	-0.285509	0.114229
C51	C	1.471656	-0.430069	0.115534
C52	C	1.387139	-0.520638	0.110827
C53	C	1.285085	-0.466639	0.104815
H54	H	1.339083	-0.124491	0.107250
H55	H	1.516683	-0.218463	0.117713
H56	H	1.547202	-0.470042	0.119985
H57	H	1.400119	-0.627658	0.111794
H58	H	1.222520	-0.533686	0.101331
H59	H	1.205111	0.197322	0.481752
C60	C	0.636273	0.485173	0.000091
C61	C	0.696100	0.532508	0.088579
C62	C	0.739104	0.665768	0.088567
C63	C	0.722280	0.751692	0.000065
C64	C	0.662450	0.704358	-0.088430
C65	C	0.619446	0.571099	-0.088417
H66	H	0.708557	0.468900	0.154100
H67	H	0.783394	0.700807	0.154077
H68	H	0.754114	0.850339	0.000055
H69	H	0.649994	0.767966	-0.153950
H70	H	0.575156	0.536060	-0.153928
H71	H	0.618376	0.150932	0.000105
H72	H	1.246295	-0.090708	0.101053
H73	H	1.147712	-0.104293	-0.169588
H74	H	0.978603	-0.304433	-0.070090
H75	H	0.970315	-0.295542	0.069103
C76	C	0.958840	-0.061512	0.094557
C77	C	0.985269	-0.091728	0.202935
C78	C	0.925272	-0.033869	0.297438
C79	C	0.838847	0.054207	0.283564
C80	C	0.812414	0.084429	0.175181
C81	C	0.872411	0.026569	0.080678
H82	H	1.049250	-0.156932	0.213209
H83	H	0.944840	-0.056241	0.377670
H84	H	0.794433	0.097038	0.353521
H85	H	0.748433	0.149632	0.164907
H86	H	0.852843	0.048941	0.000446
C87	C	1.115538	-0.061077	0.195269
C88	C	1.031192	0.032571	0.187056
C89	C	0.977629	0.092653	0.284895
C90	C	1.008412	0.059087	0.390948
C91	C	1.092763	-0.034565	0.399166
C92	C	1.146326	-0.094647	0.301326
H93	H	1.008400	0.057423	0.108545
H94	H	0.915187	0.161981	0.278810
H95	H	0.968762	0.103563	0.463374
H96	H	1.115555	-0.059417	0.477676
H97	H	1.208768	-0.163975	0.307411
H98	H	1.149772	-0.323517	-0.170068
H99	H	1.257679	-0.104427	-0.103457
H100	H	1.255598	-0.322536	-0.096948
