data_functionalizedCrystal
_audit_creation_method	'MofGen! by Chris Wilmer'
_symmetry_space_group_name_H-M	'P1'
_symmetry_Int_Tables_number	1
_symmetry_cell_setting	triclinic
loop_
_symmetry_equiv_pos_as_xyz
  x,y,z
_cell_length_a	18.101395
_cell_length_b	12.759401
_cell_length_c	12.759393
_cell_angle_alpha	90.020120
_cell_angle_beta	89.966555
_cell_angle_gamma	89.972926
loop_
_atom_site_label
_atom_site_type_symbol
_atom_site_fract_x
_atom_site_fract_y
_atom_site_fract_z
Zn1	Zn	-0.294866	-1.606136	-0.594013
Zn2	Zn	-0.418727	-1.605980	-0.418327
Zn3	Zn	-0.294895	-1.430438	-0.418347
Zn4	Zn	-0.418661	-1.430376	-0.593964
O5	O	-0.356787	-1.518232	-0.506163
O6	O	-0.311311	-1.753136	-0.570720
O7	O	-0.402341	-1.582654	-0.271309
O8	O	-0.191258	-1.453835	-0.441679
O9	O	-0.402312	-1.753021	-0.441645
O10	O	-0.191237	-1.582920	-0.570740
O11	O	-0.311362	-1.453684	-0.271324
O12	O	-0.311298	-1.283408	-0.441631
O13	O	-0.402199	-1.453730	-0.740992
O14	O	-0.402228	-1.283363	-0.570656
O15	O	-0.311247	-1.582860	-0.741028
O16	O	-0.522351	-1.582594	-0.441597
O17	O	-0.522303	-1.453579	-0.570636
C18	C	-0.356760	-1.245265	-0.506141
C19	C	-0.356766	-1.128488	-0.506156
C20	C	-0.309469	-1.073679	-0.573469
C21	C	-0.309479	-0.963955	-0.573472
C22	C	-0.404089	-0.963859	-0.438849
C23	C	-0.404074	-1.073581	-0.438840
C24	C	-0.254849	-1.073733	-0.651196
C25	C	-0.254859	-0.964009	-0.651200
C26	C	-0.549198	-1.518092	-0.506132
C27	C	-0.631512	-1.518128	-0.506154
C28	C	-0.930603	-1.518358	-0.506211
C29	C	-0.899278	-1.437373	-0.587600
C30	C	-0.813660	-1.436989	-0.587346
C31	C	-0.782220	-1.518244	-0.506183
C32	C	-0.813379	-1.488263	-0.395458
C33	C	-0.899024	-1.487741	-0.395945
C34	C	-0.898950	-1.629501	-0.534572
C35	C	-0.813299	-1.628847	-0.537000
C36	C	-0.698361	-1.518181	-0.506161
C37	C	-1.014462	-1.518418	-0.506225
C38	C	-0.163625	-1.518402	-0.506217
C39	C	-0.081311	-1.518474	-0.506240
C40	C	-0.356713	-1.518306	-0.780196
C41	C	-0.356681	-1.518337	-0.896973
C42	C	-0.356806	-0.792265	-0.506179
C43	C	-0.356790	-0.909042	-0.506168
C44	C	-0.309317	-1.585584	-0.951856
C45	C	-0.309291	-1.585609	-1.061580
C46	C	-0.403997	-1.451137	-1.061529
C47	C	-0.404019	-1.451108	-0.951807
C48	C	-0.254642	-1.663224	-0.951886
C49	C	-0.254615	-1.663249	-1.061610
C50	C	-0.356808	-1.518219	-0.233196
C51	C	-0.356631	-1.518392	-0.116419
H52	H	-0.792591	-1.455746	-0.669448
H53	H	-0.269980	-1.744614	-1.091390
H54	H	-0.275206	-1.740488	-0.917851
H55	H	-0.793016	-1.545393	-0.333163
H56	H	-0.270291	-0.934258	-0.732534
H57	H	-0.442537	-1.396399	-1.106188
H58	H	-0.442581	-1.118203	-0.384018
H59	H	-0.442606	-0.919140	-0.384042
H60	H	-0.919820	-1.455945	-0.669968
H61	H	-0.197288	-1.641479	-0.922132
H62	H	-0.200120	-1.634158	-1.095660
H63	H	-0.275456	-1.107790	-0.728434
H64	H	-0.197470	-1.103523	-0.629546
H65	H	-0.200351	-0.929990	-0.622202
H66	H	-0.920493	-1.656833	-0.613937
H67	H	-0.793234	-1.354607	-0.568559
H68	H	-0.920862	-1.355493	-0.569050
H69	H	-0.919064	-1.406496	-0.371919
H70	H	-0.919749	-1.544168	-0.333235
H71	H	-0.791992	-1.407879	-0.371002
H72	H	-0.792931	-1.651455	-0.618489
H73	H	-0.791893	-1.692377	-0.482041
H74	H	-0.919207	-1.689837	-0.475293
H75	H	-0.442584	-1.396345	-0.907126
