data_functionalizedCrystal
_audit_creation_method	'MofGen! by Chris Wilmer'
_symmetry_space_group_name_H-M	'P1'
_symmetry_Int_Tables_number	1
_symmetry_cell_setting	triclinic
loop_
_symmetry_equiv_pos_as_xyz
  x,y,z
_cell_length_a	9.016244
_cell_length_b	14.853567
_cell_length_c	14.853567
_cell_angle_alpha	83.634930
_cell_angle_beta	90.001561
_cell_angle_gamma	89.995630
loop_
_atom_site_label
_atom_site_type_symbol
_atom_site_fract_x
_atom_site_fract_y
_atom_site_fract_z
O1	O	0.123225	-1.196369	-0.117700
O2	O	0.123249	-0.933909	-0.131722
O3	O	0.123241	-1.072150	0.006519
O4	O	0.123233	-1.058128	-0.255941
O5	O	-0.123440	-1.072130	0.006515
O6	O	-0.123432	-0.933889	-0.131725
O7	O	-0.123456	-1.196349	-0.117704
Cu8	Cu	-0.145968	-1.065117	-0.124715
Cu9	Cu	0.145761	-1.065141	-0.124711
O10	O	-0.123447	-1.058108	-0.255944
C11	C	-0.000088	-0.900311	-0.131088
C12	C	-0.000078	-0.800227	-0.129184
N13	N	-0.351154	-1.065107	-0.124717
C14	C	-0.000095	-1.071504	0.040106
C15	C	-0.000082	-1.069601	0.140189
C16	C	-0.586182	-0.990934	-0.198422
C17	C	-0.414291	-0.991095	-0.198694
C18	C	-0.413502	-1.159203	-0.145382
C19	C	-0.585446	-1.158797	-0.145903
C20	C	-0.585692	-1.046122	-0.030100
C21	C	-0.413738	-1.043954	-0.030731
N22	N	0.350947	-1.065158	-0.124702
C23	C	-0.000115	-1.229947	-0.118337
C24	C	-0.000115	-1.330031	-0.120241
C25	C	-0.000109	-0.387693	-0.039019
C26	C	-0.000112	-0.366412	-0.203251
C27	C	-0.000108	-0.460446	-0.205042
C28	C	-0.000101	-0.518108	-0.123819
C29	C	-0.000100	-0.481736	-0.040806
C30	C	-0.000094	-0.496825	-0.288053
C31	C	-0.000088	-0.590864	-0.289846
C32	C	-0.000092	-0.648528	-0.208623
C33	C	-0.000092	-0.612150	-0.125607
C34	C	-0.000086	-0.669812	-0.044384
C35	C	-0.000097	-0.633437	0.038633
C36	C	-0.000104	-0.539399	0.040417
C37	C	-0.000085	-0.742565	-0.210407
C38	C	-0.000077	-0.763855	-0.046172
C39	C	-0.000108	-1.058754	-0.289531
C40	C	-0.000111	-1.060657	-0.389615
C41	C	-0.000102	-0.979435	0.552723
C42	C	-0.000117	-1.143668	0.574004
C43	C	-0.000108	-1.145458	0.479971
C44	C	-0.000099	-1.064235	0.422309
C45	C	-0.000098	-0.981223	0.458680
C46	C	-0.000124	-1.228469	0.443591
C47	C	-0.000117	-1.230262	0.349552
C48	C	-0.000097	-1.149039	0.291889
C49	C	-0.000095	-1.066023	0.328266
C50	C	-0.000085	-0.984800	0.270604
C51	C	-0.000072	-0.901783	0.306979
C52	C	-0.000078	-0.899999	0.401017
C53	C	-0.000091	-1.150823	0.197851
C54	C	-0.000081	-0.986588	0.176561
H55	H	-0.627568	-0.920774	-0.186291
N56	N	-0.639558	-1.117798	0.042584
H57	H	-0.551677	-1.150726	0.072832
H58	H	-0.704707	-1.162339	0.014362
H59	H	-0.370428	-1.176352	-0.213594
N60	N	-0.000076	-0.434626	-0.375645
H61	H	0.091366	-0.395139	-0.378539
H62	H	-0.091583	-0.395191	-0.378512
N63	N	-0.000131	-1.316061	0.505791
H64	H	0.091308	-1.352283	0.494084
H65	H	-0.091642	-1.352195	0.494057
H66	H	-0.625539	-1.175554	-0.214899
H67	H	-0.629133	-0.978996	-0.010257
N68	N	-0.000119	-0.500156	0.129944
H69	H	0.091324	-0.461617	0.134345
H70	H	-0.000177	-0.550996	0.181081
N71	N	-0.000066	-0.630095	-0.379380
H72	H	-0.000066	-0.579296	-0.430561
H73	H	-0.091510	-0.668646	-0.383705
N74	N	-0.000057	-0.781801	-0.299934
H75	H	-0.000053	-0.731003	-0.351116
H76	H	-0.091501	-0.820351	-0.304261
N77	N	-0.000117	-1.240351	0.158618
H78	H	-0.091565	-1.244738	0.120074
H79	H	-0.000081	-1.291479	0.209467
H80	H	-0.000067	-0.920445	0.129618
H81	H	-0.000105	-0.319459	-0.269379
H82	H	-0.000136	-1.209795	0.620958
H83	H	-0.000069	-0.832411	0.430643
H84	H	-0.629379	-1.002935	-0.268227
H85	H	-0.000126	-1.297860	0.319944
N86	N	-0.000100	-0.814180	0.244784
H87	H	-0.000115	-0.827916	0.179694
H88	H	0.091346	-0.778005	0.256561
N89	N	-0.358441	-0.898455	-0.182366
H90	H	-0.445520	-0.857145	-0.174927
H91	H	-0.296386	-0.872611	-0.235673
N92	N	-0.000080	-0.889898	0.591948
H93	H	-0.000080	-0.901085	0.660270
H94	H	-0.091525	-0.854345	0.570861
H95	H	-0.000077	-0.810798	0.019971
H96	H	-0.000081	-0.680397	0.104764
H97	H	-0.627032	-1.215760	-0.094332
N98	N	-0.359774	-1.006965	-0.291748
H99	H	-0.447440	-1.013915	-0.332741
H100	H	-0.297634	-1.063864	-0.287199
N101	N	-0.359751	-0.952273	-0.009949
H102	H	-0.400356	-0.939047	0.050578
H103	H	-0.394940	-0.904275	-0.058764
N104	N	-0.359343	-1.234118	-0.076161
H105	H	-0.293710	-1.207718	-0.030632
H106	H	-0.301023	-1.279539	-0.107629
N107	N	-0.000134	-0.348458	0.050513
H108	H	0.091301	-0.309914	0.054921
H109	H	-0.000187	-0.399304	0.101644
N110	N	-0.356841	-1.110899	0.045355
H111	H	-0.245003	-1.107849	0.047432
H112	H	-0.388624	-1.174058	0.034727
