data_functionalizedCrystal
_audit_creation_method	'MofGen! by Chris Wilmer'
_symmetry_space_group_name_H-M	'P1'
_symmetry_Int_Tables_number	1
_symmetry_cell_setting	triclinic
loop_
_symmetry_equiv_pos_as_xyz
  x,y,z
_cell_length_a	6.817900
_cell_length_b	17.982783
_cell_length_c	12.200875
_cell_angle_alpha	94.640652
_cell_angle_beta	107.143593
_cell_angle_gamma	102.448572
loop_
_atom_site_label
_atom_site_type_symbol
_atom_site_fract_x
_atom_site_fract_y
_atom_site_fract_z
V1	V	-4.063246	-0.105585	-0.358138
O2	O	-4.055274	0.004896	-0.350830
O3	O	-4.009504	-0.209186	-0.356160
O4	O	-4.033044	-0.104039	-0.514119
O5	O	-4.031572	-0.100979	-0.191777
V6	V	-4.545209	-0.092361	-0.338183
O7	O	-4.327928	-0.134593	-0.401911
O8	O	-4.730724	-0.063353	-0.294409
O9	O	-4.375745	0.011240	-0.340161
O10	O	-4.670577	-0.202842	-0.345490
O11	O	-4.694280	-0.096967	-0.504543
O12	O	-4.352205	-0.093907	-0.182201
C13	C	-3.852616	-0.234440	-0.350632
C14	C	-3.890083	-0.319136	-0.350054
C15	C	-3.855758	-0.347995	-0.244684
C16	C	-3.890982	-0.427576	-0.244146
C17	C	-3.960518	-0.478297	-0.348977
C18	C	-3.994852	-0.449433	-0.454355
C19	C	-3.959641	-0.369854	-0.454893
C20	C	-4.136854	-0.770370	-0.452188
C21	C	-4.172057	-0.849955	-0.451641
C22	C	-4.068195	-0.828093	-0.241440
C23	C	-4.032985	-0.748513	-0.241978
C24	C	-4.067332	-0.719657	-0.347356
C25	C	-4.029140	-0.633365	-0.347939
C26	C	-3.998695	-0.564587	-0.348395
C27	C	-3.882643	-0.100313	-0.552123
C28	C	-3.939197	-0.099735	-0.679642
C29	C	-4.042699	-0.098676	-0.913111
C30	C	-3.985095	-0.099265	-0.783192
C31	C	-4.195974	0.036489	-0.345686
C32	C	-4.137746	0.121184	-0.346271
C33	C	-4.165947	-0.097636	-0.144191
C34	C	-4.088632	-0.098210	-0.016672
H35	H	-3.976355	-0.707219	-0.156613
C36	C	-4.030468	-0.859843	-0.125523
N37	N	-4.002061	-0.883756	-0.038217
H38	H	-3.987616	-0.346359	-0.540696
H39	H	-4.051485	-0.490737	-0.539711
C40	C	-4.248570	-0.905748	-0.566970
N41	N	-4.306198	-0.947771	-0.653832
C42	C	-3.853208	-0.459316	-0.128230
N43	N	-3.824753	-0.483222	-0.040917
H44	H	-4.164798	-0.746885	-0.537991
H45	H	-3.799120	-0.306702	-0.159317
