data_functionalizedCrystal
_audit_creation_method	'MofGen! by Chris Wilmer'
_symmetry_space_group_name_H-M	'P1'
_symmetry_Int_Tables_number	1
_symmetry_cell_setting	triclinic
loop_
_symmetry_equiv_pos_as_xyz
  x,y,z
_cell_length_a	12.827893
_cell_length_b	16.120484
_cell_length_c	12.827885
_cell_angle_alpha	92.863928
_cell_angle_beta	89.980728
_cell_angle_gamma	92.925431
loop_
_atom_site_label
_atom_site_type_symbol
_atom_site_fract_x
_atom_site_fract_y
_atom_site_fract_z
Zn1	Zn	1.576504	-0.331866	-0.611895
Zn2	Zn	1.909837	0.001467	-0.278562
Zn3	Zn	2.243170	0.334800	0.054771
Zn4	Zn	1.567505	-0.471301	-0.445998
Zn5	Zn	1.900838	-0.137968	-0.112665
Zn6	Zn	2.234171	0.195365	0.220668
Zn7	Zn	1.401742	-0.331907	-0.437171
Zn8	Zn	1.735076	0.001426	-0.103838
Zn9	Zn	2.068409	0.334760	0.229495
Zn10	Zn	1.392841	-0.471239	-0.620694
Zn11	Zn	1.726175	-0.137906	-0.287361
Zn12	Zn	2.059508	0.195427	0.045972
O13	O	1.484648	-0.401579	-0.528940
O14	O	1.817981	-0.068245	-0.195607
O15	O	2.151315	0.265088	0.137727
O16	O	1.721545	-0.350372	-0.589900
O17	O	2.054879	-0.017038	-0.256567
O18	O	2.388212	0.316295	0.076766
O19	O	1.545475	-0.452853	-0.298594
O20	O	1.878809	-0.119520	0.034739
O21	O	2.212142	0.213813	0.368073
O22	O	1.432416	-0.215236	-0.452972
O23	O	1.765749	0.118097	-0.119639
O24	O	2.099083	0.451430	0.213694
O25	O	1.714934	-0.452814	-0.468017
O26	O	2.048267	-0.119481	-0.134683
O27	O	2.381601	0.213853	0.198650
O28	O	1.560812	-0.215206	-0.581341
O29	O	1.894146	0.118127	-0.248008
O30	O	2.227479	0.451460	0.085325
O31	O	1.423690	-0.350441	-0.292109
O32	O	1.757024	-0.017107	0.041224
O33	O	2.090357	0.316226	0.374558
O34	O	1.254326	-0.350381	-0.461505
O35	O	1.587660	-0.017047	-0.128171
O36	O	1.920993	0.316286	0.205162
O37	O	1.417245	-0.452708	-0.765761
O38	O	1.750579	-0.119375	-0.432427
O39	O	2.083912	0.213958	-0.099094
O40	O	1.247787	-0.452748	-0.596338
O41	O	1.581120	-0.119414	-0.263005
O42	O	1.914453	0.213919	0.070329
O43	O	1.552181	-0.350311	-0.759296
O44	O	1.885515	-0.016978	-0.425963
O45	O	2.218848	0.316355	-0.092629
O46	O	1.536844	-0.587959	-0.476549
O47	O	1.870177	-0.254625	-0.143215
O48	O	2.203511	0.078708	0.190118
O49	O	1.408520	-0.587913	-0.604897
O50	O	1.741853	-0.254580	-0.271564
O51	O	2.075186	0.078754	0.061769
C52	C	1.213139	-0.401562	-0.528919
C53	C	1.546473	-0.068229	-0.195586
C54	C	1.879806	0.265104	0.137748
C55	C	1.096985	-0.401576	-0.528936
C56	C	1.430319	-0.068242	-0.195603
C57	C	1.763652	0.265091	0.137731
C58	C	1.041987	-0.452309	-0.595563
C59	C	1.375320	-0.118976	-0.262230
C60	C	1.708654	0.214357	0.071104
C61	C	0.921936	-0.452324	-0.595582
C62	C	1.255269	-0.118991	-0.262249
C63	C	1.588602	0.214343	0.071084
C64	C	1.470768	-0.618186	-0.542658
C65	C	1.804101	-0.284852	-0.209325
C66	C	2.137434	0.048481	0.124008
C67	C	1.464925	-0.710851	-0.548562
C68	C	1.798259	-0.377518	-0.215229
C69	C	2.131592	-0.044185	0.118104
C70	C	1.454265	-0.880512	-0.559362
C71	C	1.787598	-0.547179	-0.226029
C72	C	2.120931	-0.213846	0.107304
C73	C	1.515219	-0.921804	-0.498534
C74	C	1.848552	-0.588471	-0.165201
C75	C	2.181885	-0.255138	0.168132
C76	C	1.509287	-1.016209	-0.504544
C77	C	1.842620	-0.682876	-0.171210
C78	C	2.175954	-0.349543	0.162123
C79	C	1.460195	-0.786099	-0.553355
C80	C	1.793528	-0.452765	-0.220021
C81	C	2.126862	-0.119432	0.113312
C82	C	1.757217	-0.401595	-0.528962
C83	C	2.090550	-0.068262	-0.195628
C84	C	2.423884	0.265071	0.137705
C85	C	1.873370	-0.401602	-0.528971
C86	C	2.206703	-0.068269	-0.195637
C87	C	2.540036	0.265064	0.137696
C88	C	1.484724	-0.401498	-0.801505
C89	C	1.818058	-0.068165	-0.468172
C90	C	2.151391	0.265168	-0.134838
C91	C	1.484757	-0.401464	-0.917656
C92	C	1.818090	-0.068131	-0.584323
C93	C	2.151423	0.265202	-0.250990
C94	C	1.498611	-0.184125	-0.515191
C95	C	1.831944	0.149208	-0.181857
C96	C	2.165278	0.482541	0.151476
C97	C	1.504561	-0.091460	-0.509332
C98	C	1.837894	0.241873	-0.175998
C99	C	2.171228	0.575207	0.157335
C100	C	1.551535	-0.350785	-0.966241
C101	C	1.884868	-0.017452	-0.632908
C102	C	2.218202	0.315881	-0.299575
C103	C	1.551570	-0.350749	-1.086289
C104	C	1.884903	-0.017415	-0.752956
C105	C	2.218237	0.315918	-0.419623
C106	C	1.484636	-0.401598	-0.257431
C107	C	1.817969	-0.068265	0.075902
C108	C	2.151303	0.265069	0.409235
C109	C	1.484821	-0.401397	-0.141266
C110	C	1.818154	-0.068064	0.192067
C111	C	2.151488	0.265269	0.525401
H112	H	1.083779	-0.495730	-0.652594
H113	H	1.417112	-0.162397	-0.319261
H114	H	1.750445	0.170936	0.014073
Br115	Br	1.389531	-0.473728	-1.071621
Br116	Br	1.722864	-0.140395	-0.738288
Br117	Br	2.056198	0.192938	-0.404954
H118	H	1.055194	-0.358148	-0.471913
H119	H	1.388527	-0.024815	-0.138579
H120	H	1.721861	0.308518	0.194754
H121	H	1.397630	-0.916059	-0.615947
H122	H	1.730963	-0.582726	-0.282614
H123	H	2.064296	-0.249393	0.050720
H124	H	0.874651	-0.495761	-0.652621
H125	H	1.207984	-0.162428	-0.319288
H126	H	1.541317	0.170905	0.014045
H127	H	1.571857	-0.886255	-0.441944
H128	H	1.905190	-0.552921	-0.108611
H129	H	2.238524	-0.219588	0.224723
Br130	Br	0.952167	-0.329208	-0.433880
Br131	Br	1.285500	0.004125	-0.100546
Br132	Br	1.618833	0.337459	0.232787
H133	H	1.608676	-0.307421	-0.918962
H134	H	1.942010	0.025912	-0.585628
H135	H	2.275343	0.359246	-0.252295
Br136	Br	1.646874	-0.278434	-1.155942
Br137	Br	1.980207	0.054899	-0.822609
Br138	Br	2.313540	0.388232	-0.489275
H139	H	1.427605	-0.444820	-0.964935
H140	H	1.760939	-0.111487	-0.631602
H141	H	2.094272	0.221846	-0.298269
