data_functionalizedCrystal
_audit_creation_method	'MofGen! by Chris Wilmer'
_symmetry_space_group_name_H-M	'P1'
_symmetry_Int_Tables_number	1
_symmetry_cell_setting	triclinic
loop_
_symmetry_equiv_pos_as_xyz
  x,y,z
_cell_length_a	14.044202
_cell_length_b	17.666332
_cell_length_c	14.044220
_cell_angle_alpha	90.006987
_cell_angle_beta	86.809211
_cell_angle_gamma	89.993331
loop_
_atom_site_label
_atom_site_type_symbol
_atom_site_fract_x
_atom_site_fract_y
_atom_site_fract_z
O1	O	-1.277179	0.062914	0.230212
O2	O	-0.777179	0.562914	0.730212
O3	O	-1.000506	0.062923	0.221897
O4	O	-0.500506	0.562923	0.721897
O5	O	-1.134690	0.062911	0.087719
O6	O	-0.634690	0.562911	0.587719
O7	O	-1.142995	0.062926	0.364391
O8	O	-0.642995	0.562926	0.864391
O9	O	-1.134663	-0.062986	0.087709
O10	O	-0.634663	0.437014	0.587709
O11	O	-1.000480	-0.062973	0.221887
O12	O	-0.500480	0.437027	0.721887
O13	O	-1.277152	-0.062983	0.230202
O14	O	-0.777152	0.437017	0.730202
Cu15	Cu	-1.138814	-0.074474	0.226044
Cu16	Cu	-0.638814	0.425526	0.726044
Cu17	Cu	-1.138845	0.074414	0.226056
Cu18	Cu	-0.638845	0.574414	0.726056
O19	O	-1.142969	-0.062971	0.364381
O20	O	-0.642969	0.437029	0.864381
C21	C	-0.964871	-0.000024	0.218256
C22	C	-0.464871	0.499976	0.718256
C23	C	-0.858728	-0.000020	0.207407
C24	C	-0.358728	0.499980	0.707407
N25	N	-1.138799	-0.179193	0.226036
N26	N	-0.638799	0.320807	0.726036
C27	C	-0.613270	-0.000025	0.264506
C28	C	-0.113270	0.499975	0.764506
C29	C	-0.664395	-0.000027	0.187590
C30	C	-0.164395	0.499973	0.687590
C31	C	-0.772532	-0.000024	0.198619
C32	C	-0.272532	0.499976	0.698619
C33	C	-0.505123	-0.000029	0.253478
C34	C	-0.005123	0.499971	0.753478
C35	C	-1.198239	-0.218808	0.166655
C36	C	-0.698239	0.281192	0.666655
C37	C	-1.198244	-0.298056	0.166651
C38	C	-0.698244	0.201944	0.666651
C39	C	-1.138820	-0.337685	0.226045
C40	C	-0.638820	0.162315	0.726045
C41	C	-1.079368	-0.298061	0.285429
C42	C	-0.579368	0.201939	0.785429
C43	C	-1.079357	-0.218815	0.285425
C44	C	-0.579357	0.281185	0.785425
N45	N	-1.133810	-0.462099	0.309494
N46	N	-0.633810	0.037901	0.809494
N47	N	-1.133825	-0.537380	0.309495
N48	N	-0.633825	-0.037380	0.809495
C49	C	-1.138846	-0.576449	0.226060
C50	C	-0.638846	-0.076449	0.726060
N51	N	-1.143869	-0.537395	0.142622
N52	N	-0.643869	-0.037395	0.642622
N53	N	-1.143859	-0.462107	0.142622
N54	N	-0.643859	0.037893	0.642622
C55	C	-1.138824	-0.423614	0.226056
C56	C	-0.638824	0.076386	0.726056
C57	C	-1.198295	-0.701994	0.166670
C58	C	-0.698295	-0.201994	0.666670
C59	C	-1.198293	-0.781243	0.166664
C60	C	-0.698293	-0.281243	0.666664
C61	C	-1.079422	-0.781246	0.285451
C62	C	-0.579422	-0.281246	0.785451
C63	C	-1.079418	-0.701998	0.285448
C64	C	-0.579418	-0.201998	0.785448
C65	C	-1.138860	-0.662377	0.226059
C66	C	-0.638860	-0.162377	0.726059
C67	C	-0.312788	-0.000034	0.233842
C68	C	0.187212	0.499966	0.733842
C69	C	-0.418931	-0.000032	0.244684
C70	C	0.081069	0.499968	0.744684
C71	C	-1.131041	-0.000037	0.052092
C72	C	-0.631041	0.499963	0.552092
C73	C	-1.120196	-0.000038	-0.054051
C74	C	-0.620196	0.499962	0.445949
N75	N	-1.138867	0.179133	0.226057
N76	N	-0.638867	0.679133	0.726057
C77	C	-1.100370	-0.000026	-0.248389
C78	C	-0.600370	0.499974	0.251611
C79	C	-1.177284	-0.000027	-0.299517
C80	C	-0.677284	0.499973	0.200483
C81	C	-1.166253	-0.000020	-0.407653
C82	C	-0.666253	0.499980	0.092347
C83	C	-1.111400	-0.000033	-0.140243
C84	C	-0.611400	0.499967	0.359757
C85	C	-1.146618	-0.000021	0.400008
C86	C	-0.646618	0.499979	0.900008
C87	C	-1.157462	-0.000015	0.506151
C88	C	-0.657462	0.499985	1.006151
H89	H	-0.626952	0.000022	0.113457
H90	H	-0.126952	0.500022	0.613457
Cl91	Cl	-0.985920	-0.000019	-0.306193
Cl92	Cl	-0.485920	0.499981	0.193807
Cl93	Cl	-0.671077	-0.000009	0.378955
Cl94	Cl	-0.171077	0.499991	0.878955
Cl95	Cl	-1.272976	-0.347866	0.091995
Cl96	Cl	-0.772976	0.152134	0.591995
Cl97	Cl	-1.272958	-0.168999	0.091991
Cl98	Cl	-0.772958	0.331001	0.591991
H99	H	-1.030982	-0.330331	0.333787
H100	H	-0.530982	0.169669	0.833787
H101	H	-1.246693	-0.669733	0.118309
H102	H	-0.746693	-0.169733	0.618309
Cl103	Cl	-1.004628	-0.169009	0.360082
Cl104	Cl	-0.504628	0.330991	0.860082
H105	H	-1.031033	-0.813512	0.333807
H106	H	-0.531033	-0.313512	0.833807
Cl107	Cl	-1.273018	-0.831048	0.092002
Cl108	Cl	-0.773018	-0.331048	0.592002
Cl109	Cl	-1.004695	-0.652192	0.360107
Cl110	Cl	-0.504695	-0.152192	0.860107
H111	H	-1.251418	0.000021	-0.262075
H112	H	-0.751418	0.500021	0.237925
