data_functionalizedCrystal
_audit_creation_method	'MofGen! by Chris Wilmer'
_symmetry_space_group_name_H-M	'P1'
_symmetry_Int_Tables_number	1
_symmetry_cell_setting	triclinic
loop_
_symmetry_equiv_pos_as_xyz
  x,y,z
_cell_length_a	14.044191
_cell_length_b	23.532407
_cell_length_c	13.101039
_cell_angle_alpha	93.332685
_cell_angle_beta	86.337551
_cell_angle_gamma	88.020262
loop_
_atom_site_label
_atom_site_type_symbol
_atom_site_fract_x
_atom_site_fract_y
_atom_site_fract_z
O1	O	1.261657	0.134377	-0.085200
O2	O	1.761657	0.634377	0.414800
O3	O	0.985735	0.129420	-0.085212
O4	O	1.485735	0.629420	0.414788
O5	O	1.132014	0.049419	-0.085177
O6	O	1.632014	0.549419	0.414823
O7	O	1.115377	0.214378	-0.085235
O8	O	1.615377	0.714378	0.414765
O9	O	1.121519	0.055169	0.085250
O10	O	1.621519	0.555169	0.585250
O11	O	0.975239	0.135170	0.085215
O12	O	1.475239	0.635170	0.585215
O13	O	1.251161	0.140127	0.085227
O14	O	1.751161	0.640127	0.585227
Zn15	Zn	1.111534	0.138562	0.112280
Zn16	Zn	1.611534	0.638562	0.612280
Zn17	Zn	1.125362	0.130985	-0.112265
Zn18	Zn	1.625362	0.630985	0.387735
O19	O	1.104882	0.220128	0.085192
O20	O	1.604882	0.720128	0.585192
C21	C	0.945193	0.130127	0.000000
C22	C	1.445193	0.630127	0.500000
C23	C	0.840028	0.123659	-0.000003
C24	C	1.340028	0.623659	0.499997
C25	C	0.589421	0.157704	-0.000004
C26	C	1.089421	0.657704	0.499996
C27	C	0.647481	0.111845	0.000010
C28	C	1.147481	0.611845	0.500010
C29	C	0.754624	0.118420	0.000003
C30	C	1.254624	0.618420	0.500003
C31	C	0.482268	0.151130	0.000003
C32	C	0.982268	0.651130	0.500003
C33	C	1.126343	0.031055	0.000042
C34	C	1.626343	0.531055	0.500042
C35	C	1.125067	-0.032231	0.000057
C36	C	1.625067	0.467769	0.500057
C37	C	1.033251	-0.303378	-0.000011
C38	C	1.533251	0.196622	0.499989
C39	C	1.034434	-0.243914	-0.000003
C40	C	1.534434	0.256086	0.499997
O41	O	0.961596	-0.211120	-0.000038
O42	O	1.461596	0.288880	0.499962
N43	N	1.121398	-0.216572	0.000013
N44	N	1.621398	0.283428	0.500013
C45	C	1.207184	-0.248699	0.000010
C46	C	1.707184	0.251301	0.500010
O47	O	1.281262	-0.219982	0.000023
O48	O	1.781262	0.280018	0.500023
C49	C	1.206001	-0.308163	-0.000005
C50	C	1.706001	0.191837	0.499995
C51	C	1.119031	-0.335501	-0.000011
C52	C	1.619031	0.164499	0.499989
C53	C	0.946288	-0.330717	-0.000017
C54	C	1.446288	0.169283	0.499983
C55	C	0.945106	-0.390177	-0.000023
C56	C	1.445106	0.109823	0.499977
C57	C	1.030886	-0.422299	-0.000023
C58	C	1.530886	0.077701	0.499977
C59	C	1.117848	-0.394961	-0.000017
C60	C	1.617848	0.105039	0.499983
C61	C	1.291787	-0.340288	-0.000016
C62	C	1.791787	0.159712	0.499984
C63	C	1.290596	-0.399756	-0.000032
C64	C	1.790596	0.100244	0.499968
C65	C	1.203626	-0.427094	-0.000037
C66	C	1.703626	0.072906	0.499963
C67	C	1.202446	-0.486544	-0.000022
C68	C	1.702446	0.013456	0.499978
N69	N	1.115482	-0.513885	-0.000038
N70	N	1.615482	-0.013885	0.499962
C71	C	1.029702	-0.481763	-0.000038
C72	C	1.529702	0.018237	0.499962
C73	C	1.209664	-0.123821	0.000040
C74	C	1.709664	0.376179	0.500040
C75	C	1.210848	-0.064358	0.000063
C76	C	1.710848	0.435642	0.500063
C77	C	1.038097	-0.059577	0.000048
C78	C	1.538097	0.440423	0.500048
C79	C	1.036913	-0.119041	0.000033
C80	C	1.536913	0.380959	0.500033
C81	C	1.122700	-0.151162	0.000025
C82	C	1.622700	0.348838	0.500025
C83	C	1.027225	-0.606635	-0.000050
C84	C	1.527225	-0.106635	0.499950
C85	C	1.026049	-0.666101	-0.000052
C86	C	1.526049	-0.166101	0.499948
C87	C	1.198800	-0.670876	-0.000042
C88	C	1.698800	-0.170876	0.499958
C89	C	1.199975	-0.611416	-0.000035
C90	C	1.699975	-0.111416	0.499965
C91	C	1.114180	-0.579296	-0.000042
C92	C	1.614180	-0.079296	0.499958
O93	O	1.275246	-0.519375	0.000009
O94	O	1.775246	-0.019375	0.500009
O95	O	0.955637	-0.510488	-0.000064
O96	O	1.455637	-0.010488	0.499936
C97	C	1.291703	0.139420	0.000012
C98	C	1.791703	0.639420	0.500012
C99	C	1.396869	0.145887	0.000008
C100	C	1.896869	0.645887	0.500008
C101	C	1.110554	0.238492	-0.000029
C102	C	1.610554	0.738492	0.499971
C103	C	1.111829	0.301777	-0.000051
C104	C	1.611829	0.801777	0.499949
N105	N	1.102103	0.143732	0.265526
N106	N	1.602103	0.643732	0.765526
N107	N	1.134800	0.125811	-0.265512
N108	N	1.634800	0.625811	0.234488
C109	C	1.089273	0.150772	0.474566
C110	C	1.589273	0.650772	0.974566
C111	C	1.147628	0.118772	0.525455
C112	C	1.647628	0.618772	1.025455
C113	C	1.140489	0.122689	0.641772
C114	C	1.640489	0.622689	1.141772
C115	C	1.096411	0.146856	0.358239
C116	C	1.596411	0.646856	0.858239
H117	H	0.955225	-0.688356	-0.000051
H118	H	1.455225	-0.188356	0.499949
H119	H	1.033956	0.181109	0.518350
H120	H	1.533956	0.681109	1.018350
H121	H	1.202949	0.088434	0.481666
H122	H	1.702949	0.588434	0.981666
H123	H	1.268639	-0.697041	-0.000037
H124	H	1.768639	-0.197041	0.499963
Cl125	Cl	1.398450	-0.440134	-0.000046
Cl126	Cl	1.898450	0.059866	0.499954
H127	H	0.620180	0.201901	-0.000023
H128	H	1.120180	0.701901	0.499977
Cl129	Cl	0.919366	-0.566265	-0.000055
Cl130	Cl	1.419366	-0.066265	0.499945
H131	H	0.874286	-0.412431	-0.000036
H132	H	1.374286	0.087569	0.499964
H133	H	0.876432	-0.304569	-0.000020
H134	H	1.376432	0.195431	0.499980
Cl135	Cl	0.599994	0.043603	0.000033
Cl136	Cl	1.099994	0.543603	0.500033
H137	H	0.966095	-0.141295	0.000033
H138	H	1.466095	0.358705	0.500033
H139	H	0.968250	-0.033412	0.000049
H140	H	1.468250	0.466588	0.500049
H141	H	1.281666	-0.042104	0.000083
H142	H	1.781666	0.457896	0.500083
Cl143	Cl	1.317520	-0.164196	0.000043
Cl144	Cl	1.817520	0.335804	0.500043
H145	H	1.362607	-0.318040	-0.000012
H146	H	1.862607	0.181960	0.499988
H147	H	1.270792	-0.589155	-0.000016
H148	H	1.770792	-0.089155	0.499984
