data_functionalizedCrystal
_audit_creation_method	'MofGen! by Chris Wilmer'
_symmetry_space_group_name_H-M	'P1'
_symmetry_Int_Tables_number	1
_symmetry_cell_setting	triclinic
loop_
_symmetry_equiv_pos_as_xyz
  x,y,z
_cell_length_a	11.169417
_cell_length_b	13.032868
_cell_length_c	11.169409
_cell_angle_alpha	82.856498
_cell_angle_beta	89.979747
_cell_angle_gamma	82.786971
loop_
_atom_site_label
_atom_site_type_symbol
_atom_site_fract_x
_atom_site_fract_y
_atom_site_fract_z
Zn1	Zn	1.774155	0.415916	-0.739131
Zn2	Zn	2.274155	0.915916	-0.239131
Zn3	Zn	1.748483	0.590704	-0.563914
Zn4	Zn	2.248483	1.090704	-0.063914
Zn5	Zn	1.573429	0.415981	-0.538475
Zn6	Zn	2.073429	0.915981	-0.038475
Zn7	Zn	1.547902	0.590621	-0.764547
Zn8	Zn	2.047902	1.090621	-0.264547
O9	O	1.660992	0.503306	-0.651517
O10	O	2.160992	1.003306	-0.151517
O11	O	1.938698	0.439110	-0.715897
O12	O	2.438698	0.939110	-0.215897
O13	O	1.725201	0.567589	-0.392598
O14	O	2.225201	1.067589	0.107402
O15	O	1.621482	0.269736	-0.543810
O16	O	2.121482	0.769736	-0.043810
O17	O	1.919837	0.567526	-0.587165
O18	O	2.419837	1.067526	-0.087165
O19	O	1.768954	0.269688	-0.691230
O20	O	2.268954	0.769688	-0.191230
O21	O	1.596589	0.439220	-0.373909
O22	O	2.096589	0.939220	0.126091
O23	O	1.402094	0.439139	-0.568455
O24	O	1.902094	0.939139	-0.068455
O25	O	1.577976	0.567384	-0.929117
O26	O	2.077976	1.067384	-0.429117
O27	O	1.383340	0.567446	-0.734549
O28	O	1.883340	1.067446	-0.234549
O29	O	1.744202	0.439029	-0.910443
O30	O	2.244202	0.939029	-0.410443
O31	O	1.700450	0.736930	-0.611811
O32	O	2.200450	1.236930	-0.111811
O33	O	1.553084	0.736869	-0.759216
O34	O	2.053084	1.236869	-0.259216
C35	C	1.349170	0.503291	-0.651501
C36	C	1.849170	1.003291	-0.151501
C37	C	1.215767	0.503311	-0.651526
C38	C	1.715767	1.003311	-0.151526
C39	C	1.621244	0.774817	-0.691058
C40	C	2.121244	1.274817	-0.191058
C41	C	1.604349	0.890971	-0.708014
C42	C	2.104349	1.390971	-0.208014
C43	C	1.669795	0.942751	-0.642695
C44	C	2.169795	1.442751	-0.142695
C45	C	1.652335	1.062802	-0.660219
C46	C	2.152335	1.562802	-0.160219
C47	C	1.974032	0.503320	-0.651533
C48	C	2.474032	1.003320	-0.151533
C49	C	2.107431	0.503327	-0.651541
C50	C	2.607431	1.003327	-0.151541
C51	C	1.700889	1.230734	-0.611834
C52	C	2.200889	1.730734	-0.111834
C53	C	1.717790	1.114580	-0.594891
C54	C	2.217790	1.614580	-0.094891
C55	C	1.661105	0.503190	-0.964542
C56	C	2.161105	1.003190	-0.464542
C57	C	1.661154	0.503140	-1.097935
C58	C	2.161154	1.003140	-0.597935
C59	C	1.660960	0.503345	-0.339698
C60	C	2.160960	1.003345	0.160302
C61	C	1.661187	0.503100	-0.206263
C62	C	2.161187	1.003100	0.293737
H63	H	1.583378	1.107344	-0.729123
H64	H	2.083378	1.607344	-0.229123
O65	O	1.512992	0.949961	-0.799268
O66	O	2.012992	1.449961	-0.299268
H67	H	1.513604	1.034996	-0.798701
H68	H	2.013604	1.534996	-0.298701
H69	H	1.786757	1.070040	-0.525995
H70	H	2.286757	1.570040	-0.025995
H71	H	1.738757	0.898208	-0.573804
H72	H	2.238757	1.398208	-0.073804
