data_functionalizedCrystal
_audit_creation_method	'MofGen! by Chris Wilmer'
_symmetry_space_group_name_H-M	'P1'
_symmetry_Int_Tables_number	1
_symmetry_cell_setting	triclinic
loop_
_symmetry_equiv_pos_as_xyz
  x,y,z
_cell_length_a	27.731993
_cell_length_b	26.210047
_cell_length_c	27.732048
_cell_angle_alpha	89.990375
_cell_angle_beta	97.368475
_cell_angle_gamma	90.004884
loop_
_atom_site_label
_atom_site_type_symbol
_atom_site_fract_x
_atom_site_fract_y
_atom_site_fract_z
O1	O	0.640953	0.042297	-0.057390
O2	O	0.500156	0.042329	-0.066163
O3	O	0.574927	0.042302	0.008621
O4	O	0.566181	0.042324	-0.132174
O5	O	0.574904	-0.042556	0.008621
O6	O	0.500132	-0.042529	-0.066163
O7	O	0.640930	-0.042561	-0.057390
Cu8	Cu	0.570529	-0.050293	-0.061777
Cu9	Cu	0.570556	0.050061	-0.061777
O10	O	0.566158	-0.042534	-0.132174
C11	C	0.482137	-0.000096	-0.065983
C12	C	0.428480	-0.000084	-0.065441
N13	N	0.570513	-0.120877	-0.061777
C14	C	0.045333	0.046147	-0.061510
C15	C	0.246990	0.046161	-0.063577
O16	O	0.273074	0.085501	-0.063825
N17	N	0.272198	-0.000094	-0.063836
C18	C	0.246988	-0.046356	-0.063575
O19	O	0.273057	-0.085699	-0.063837
C20	C	0.045332	-0.046370	-0.061504
C21	C	0.020127	-0.000112	-0.061251
C22	C	0.020127	0.092401	-0.061256
C23	C	-0.030284	0.092397	-0.060742
C24	C	-0.055491	0.046139	-0.060482
C25	C	-0.030285	-0.000116	-0.060736
C26	C	0.020124	-0.092631	-0.061239
C27	C	-0.030293	-0.092630	-0.060721
C28	C	-0.055498	-0.046372	-0.060467
C29	C	-0.105903	-0.046378	-0.059963
N30	N	-0.131110	-0.000123	-0.059704
C31	C	-0.105904	0.046135	-0.059964
C32	C	0.352860	-0.046346	-0.064663
C33	C	0.403274	-0.046343	-0.065181
C34	C	0.403273	0.046175	-0.065183
C35	C	0.352858	0.046171	-0.064668
C36	C	0.327653	-0.000091	-0.064404
C37	C	-0.211772	0.046123	-0.058885
C38	C	-0.262189	0.046115	-0.058372
C39	C	-0.262183	-0.046402	-0.058368
C40	C	-0.211771	-0.046394	-0.058883
C41	C	-0.186567	-0.000127	-0.059139
O42	O	-0.132017	-0.085698	-0.059709
O43	O	-0.131980	0.085472	-0.059690
C44	C	0.095745	0.046151	-0.062024
C45	C	0.120950	-0.000104	-0.062279
C46	C	0.095744	-0.046362	-0.062019
C47	C	0.171364	-0.000101	-0.062797
C48	C	0.196570	0.046158	-0.063057
C49	C	0.171362	0.092413	-0.062798
C50	C	0.120951	0.092409	-0.062284
C51	C	0.120952	-0.092617	-0.062277
C52	C	0.171363	-0.092609	-0.062792
C53	C	0.196569	-0.046351	-0.063052
C54	C	0.599649	-0.473394	-0.090882
C55	C	0.599664	-0.687052	-0.090881
O56	O	0.624425	-0.714676	-0.115623
N57	N	0.570568	-0.713771	-0.061772
C58	C	0.541469	-0.687072	-0.032658
O59	O	0.516726	-0.714701	-0.007895
C60	C	0.541458	-0.473414	-0.032656
C61	C	0.570552	-0.446698	-0.061771
C62	C	0.628741	-0.446677	-0.119994
C63	C	0.628735	-0.393266	-0.119996
C64	C	0.599637	-0.366571	-0.090886
C65	C	0.570546	-0.393287	-0.061773
C66	C	0.512362	-0.446716	-0.003540
C67	C	0.512363	-0.393298	-0.003541
C68	C	0.541456	-0.366582	-0.032656
C69	C	0.541442	-0.313180	-0.032664
N70	N	0.570538	-0.286461	-0.061774
C71	C	0.599635	-0.313156	-0.090884
C72	C	0.541476	-0.799245	-0.032662
C73	C	0.541479	-0.852659	-0.032663
C74	C	0.599674	-0.852636	-0.090886
C75	C	0.599669	-0.799221	-0.090887
C76	C	0.570572	-0.772526	-0.061771
C77	C	0.599621	-0.200989	-0.090886
C78	C	0.599611	-0.147572	-0.090887
C79	C	0.541418	-0.147601	-0.032662
C80	C	0.541425	-0.201012	-0.032663
C81	C	0.570531	-0.227705	-0.061777
O82	O	0.516698	-0.285523	-0.007932
O83	O	0.624383	-0.285519	-0.115636
C84	C	0.599655	-0.526805	-0.090880
C85	C	0.570563	-0.553521	-0.061768
C86	C	0.541466	-0.526826	-0.032657
C87	C	0.570565	-0.606935	-0.061769
C88	C	0.599663	-0.633631	-0.090879
C89	C	0.628759	-0.606912	-0.119989
C90	C	0.628753	-0.553500	-0.119991
C91	C	0.512370	-0.553545	-0.003547
C92	C	0.512378	-0.606956	-0.003548
C93	C	0.541476	-0.633651	-0.032659
C94	C	0.658949	-0.000135	-0.057570
C95	C	0.712605	-0.000143	-0.058113
C96	C	0.574732	-0.000128	0.026628
C97	C	0.574179	-0.000132	0.080282
N98	N	0.570576	0.120645	-0.061773
C99	C	0.566353	-0.000103	-0.150181
C100	C	0.566906	-0.000095	-0.203836
C101	C	0.614884	-0.000115	0.419105
C102	C	0.612833	-0.000108	0.620765
O103	O	0.650055	-0.000094	0.652028
N104	N	0.568497	-0.000098	0.639880
C105	C	0.524670	-0.000087	0.608576
O106	O	0.486912	-0.000073	0.629462
C107	C	0.526721	-0.000091	0.406918
C108	C	0.571061	-0.000106	0.387806
C109	C	0.659220	-0.000129	0.399993
C110	C	0.659732	-0.000134	0.349581
C111	C	0.615909	-0.000124	0.318282
C112	C	0.571573	-0.000110	0.337394
C113	C	0.482895	-0.000076	0.375616
C114	C	0.483412	-0.000076	0.325199
C115	C	0.527751	-0.000091	0.306087
C116	C	0.528262	-0.000105	0.255683
N117	N	0.572598	-0.000115	0.236568
C118	C	0.616422	-0.000124	0.267867
C119	C	0.523596	-0.000086	0.714450
C120	C	0.523083	-0.000086	0.764865
C121	C	0.611246	-0.000105	0.777049
C122	C	0.611759	-0.000109	0.726634
C123	C	0.567932	-0.000095	0.695335
C124	C	0.617494	-0.000135	0.161998
C125	C	0.618002	-0.000142	0.111582
C126	C	0.529839	-0.000119	0.099401
C127	C	0.529331	-0.000115	0.149814
C128	C	0.573162	-0.000121	0.181112
O129	O	0.491060	-0.000114	0.224392
O130	O	0.654174	-0.000127	0.246972
C131	C	0.614372	-0.000110	0.469517
C132	C	0.570036	-0.000096	0.488630
C133	C	0.526213	-0.000087	0.457331
C134	C	0.569523	-0.000096	0.539044
C135	C	0.613346	-0.000106	0.570343
C136	C	0.657683	-0.000115	0.551228
C137	C	0.658195	-0.000120	0.500817
C138	C	0.481876	-0.000077	0.476446
C139	C	0.481368	-0.000073	0.526858
C140	C	0.525191	-0.000083	0.558157
H141	H	-0.191257	0.083798	-0.059094
C142	C	0.431182	0.043572	0.425220
C143	C	0.434155	-0.000054	0.396615
H144	H	0.401091	0.043585	0.438185
H145	H	0.433231	0.073155	0.405801
H146	H	0.457205	0.043558	0.451081
H147	H	0.408134	-0.000037	0.370752
H148	H	0.432102	-0.029644	0.416035
H149	H	-0.282709	0.083786	-0.058167
C150	C	0.071063	0.146087	-0.103413
C151	C	0.047829	0.143253	-0.061545
H152	H	0.088163	0.177482	-0.103592
H153	H	0.047494	0.144161	-0.131404
H154	H	0.093294	0.118542	-0.103634
H155	H	0.025595	0.170796	-0.061326
H156	H	0.071401	0.145184	-0.033548
H157	H	0.494160	-0.000113	0.073909
H158	H	-0.050812	-0.130303	-0.060510
C159	C	0.693740	-0.493422	-0.122558
C160	C	0.660734	-0.524136	-0.151993
H161	H	0.713482	-0.475293	-0.142318
H162	H	0.713714	-0.514259	-0.100175
H163	H	0.676406	-0.469876	-0.105225
H164	H	0.678068	-0.547684	-0.169324
H165	H	0.640758	-0.503296	-0.174385
H166	H	0.446189	-0.000068	0.450966
H167	H	0.191881	-0.130281	-0.063003
C168	C	0.705099	-0.000157	0.128698
C169	C	0.666744	-0.000153	0.090575
H170	H	0.735188	-0.000160	0.115729
H171	H	0.703057	-0.029745	0.148112
H172	H	0.703067	0.029439	0.148102
H173	H	0.668774	-0.029751	0.071172
H174	H	0.668786	0.029438	0.071153
H175	H	0.653186	-0.000138	0.187476
C176	C	0.396214	-0.000051	0.318222
C177	C	0.435235	-0.000063	0.290796
H178	H	0.366472	-0.000046	0.296983
H179	H	0.397858	0.029540	0.338133
H180	H	0.397843	-0.029644	0.338146
H181	H	0.433608	0.029532	0.270874
H182	H	0.433589	-0.029657	0.270877
C183	C	0.657139	-0.195585	-0.148443
C184	C	0.631610	-0.230324	-0.122891
H185	H	0.676883	-0.213697	-0.168204
H186	H	0.677110	-0.174754	-0.126056
H187	H	0.634734	-0.174751	-0.168404
H188	H	0.654015	-0.251155	-0.102927
H189	H	0.611637	-0.251164	-0.145281
H190	H	0.652438	-0.468407	-0.143700
H191	H	0.694301	-0.000132	0.485261
H192	H	0.493226	-0.000117	0.165375
H193	H	-0.050802	0.130065	-0.060533
H194	H	0.652449	-0.628656	-0.143694
H195	H	0.623302	-0.125822	-0.114598
H196	H	0.332339	0.083838	-0.064461
H197	H	0.423804	0.083840	-0.065396
C198	C	0.398200	-0.137790	-0.065123
C199	C	0.430976	-0.097191	-0.065464
H200	H	0.415302	-0.169182	-0.065293
H201	H	0.374638	-0.135863	-0.093120
H202	H	0.382436	-0.135863	-0.036721
H203	H	0.446737	-0.099116	-0.093868
H204	H	0.454547	-0.099119	-0.037465
C205	C	0.435990	-0.000062	0.747744
C206	C	0.474344	-0.000074	0.785869
H207	H	0.405900	-0.000049	0.760711
H208	H	0.438016	-0.029654	0.728341
H209	H	0.438040	0.029530	0.728330
H210	H	0.472296	-0.029668	0.805282
H211	H	0.472317	0.029521	0.805281
C212	C	0.746823	-0.000148	0.366704
C213	C	0.708472	-0.000143	0.328578
H214	H	0.776914	-0.000149	0.353739
H215	H	0.744780	-0.029738	0.386116
H216	H	0.744788	0.029446	0.386110
H217	H	0.710504	-0.029740	0.309174
H218	H	0.710516	0.029449	0.309158
H219	H	0.652428	-0.371518	-0.143703
C220	C	0.394272	-0.000044	0.509737
C221	C	0.432625	-0.000055	0.547862
H222	H	0.364182	-0.000027	0.522704
H223	H	0.396295	-0.029639	0.490337
H224	H	0.396323	0.029545	0.490320
H225	H	0.430575	-0.029647	0.567277
H226	H	0.430600	0.029542	0.567271
H227	H	0.488671	-0.468459	0.020170
H228	H	0.332344	-0.084020	-0.064446
H229	H	0.623359	-0.777472	-0.114595
H230	H	0.488676	-0.531815	0.020159
H231	H	0.487905	-0.000075	0.688970
C232	C	0.015042	-0.184077	-0.061170
C233	C	0.047822	-0.143481	-0.061514
H234	H	0.032143	-0.215471	-0.061336
H235	H	-0.008518	-0.182151	-0.089168
H236	H	-0.000723	-0.182145	-0.032769
H237	H	0.063584	-0.145411	-0.089917
H238	H	0.071391	-0.145408	-0.033513
C239	C	-0.216836	-0.137843	-0.058825
C240	C	-0.184062	-0.097240	-0.059162
H241	H	-0.199730	-0.169234	-0.058990
H242	H	-0.240393	-0.135919	-0.086825
H243	H	-0.232605	-0.135916	-0.030426
H244	H	-0.168295	-0.099165	-0.087562
H245	H	-0.160496	-0.099165	-0.031159
C246	C	0.661817	0.043516	0.840807
C247	C	0.659419	-0.000109	0.811458
H248	H	0.691557	0.043517	0.862048
H249	H	0.635340	0.043514	0.859400
H250	H	0.660190	0.073103	0.820875
H251	H	0.661043	-0.029696	0.831391
H252	H	0.685904	-0.000112	0.792864
H253	H	0.100434	-0.130287	-0.062063
H254	H	0.693365	-0.000125	0.576721
H255	H	-0.282715	-0.084064	-0.058159
H256	H	0.488668	-0.371567	0.020169
H257	H	0.623364	-0.874380	-0.114591
C258	C	0.248648	0.133489	-0.063586
C259	C	0.199076	0.143261	-0.063082
H260	H	0.265759	0.164879	-0.063756
H261	H	0.253005	0.114491	-0.091868
H262	H	0.260801	0.114475	-0.035469
H263	H	0.186923	0.162272	-0.091200
H264	H	0.194716	0.162267	-0.034796
C265	C	0.483902	-0.195665	0.024887
C266	C	0.509443	-0.230380	-0.000662
H267	H	0.464162	-0.213793	0.044648
H268	H	0.463925	-0.174836	0.002498
H269	H	0.506299	-0.174826	0.044848
H270	H	0.487046	-0.251217	-0.020626
H271	H	0.529422	-0.251217	0.021730
H272	H	0.100433	0.130077	-0.062078
C273	C	0.454859	-0.601604	0.054011
C274	C	0.480396	-0.636320	0.028459
H275	H	0.435121	-0.619732	0.073774
H276	H	0.434880	-0.580775	0.031624
H277	H	0.477259	-0.580766	0.073970
H278	H	0.457997	-0.657156	0.008497
H279	H	0.500377	-0.657158	0.050849
H280	H	0.517782	-0.874407	-0.008960
C281	C	0.483949	-0.804645	0.024885
C282	C	0.509486	-0.769907	-0.000659
H283	H	0.464196	-0.786534	0.044637
H284	H	0.506345	-0.825477	0.044849
H285	H	0.463981	-0.825479	0.002489
H286	H	0.529457	-0.749076	0.021737
H287	H	0.487087	-0.749067	-0.020625
H288	H	0.517726	-0.125856	-0.008963
C289	C	0.709817	0.043481	0.463746
C290	C	0.707397	-0.000140	0.434391
H291	H	0.739564	0.043473	0.484976
H292	H	0.683348	0.043485	0.482350
H293	H	0.708189	0.073071	0.443817
H294	H	0.709021	-0.029730	0.454320
H295	H	0.733874	-0.000148	0.415785
H296	H	0.647864	-0.000121	0.711077
