data_functionalizedCrystal
_audit_creation_method	'MofGen! by Chris Wilmer'
_symmetry_space_group_name_H-M	'P1'
_symmetry_Int_Tables_number	1
_symmetry_cell_setting	triclinic
loop_
_symmetry_equiv_pos_as_xyz
  x,y,z
_cell_length_a	6.817900
_cell_length_b	11.168121
_cell_length_c	16.305550
_cell_angle_alpha	93.901156
_cell_angle_beta	103.455250
_cell_angle_gamma	108.508496
loop_
_atom_site_label
_atom_site_type_symbol
_atom_site_fract_x
_atom_site_fract_y
_atom_site_fract_z
V1	V	-4.052075	-0.175770	-0.263038
O2	O	-4.012761	0.007350	-0.258024
O3	O	-4.028756	-0.347468	-0.261246
O4	O	-4.003154	-0.173548	-0.377755
O5	O	-4.038540	-0.167775	-0.140708
V6	V	-4.532520	-0.153810	-0.248406
O7	O	-4.320084	-0.223942	-0.295136
O8	O	-4.714708	-0.105639	-0.216308
O9	O	-4.332632	0.017888	-0.250198
O10	O	-4.689230	-0.336930	-0.253420
O11	O	-4.663451	-0.161806	-0.370736
O12	O	-4.358234	-0.156033	-0.133689
C13	C	-3.879875	-0.389310	-0.257099
C14	C	-3.942093	-0.529678	-0.256398
C15	C	-4.143791	-0.598385	-0.260087
C16	C	-4.208100	-0.743464	-0.259363
C17	C	-3.847216	-0.167455	-0.405716
C18	C	-3.888668	-0.166774	-0.499498
C19	C	-4.039367	-0.164135	-0.840243
C20	C	-3.802168	-0.156300	-0.799315
C21	C	-3.759155	-0.157531	-0.701820
C22	C	-3.964601	-0.165443	-0.671196
C23	C	-4.149960	-0.290149	-0.721827
C24	C	-4.191720	-0.289444	-0.819377
C25	C	-4.077095	-0.048261	-0.794395
C26	C	-4.029020	-0.047274	-0.696553
C27	C	-3.922361	-0.166187	-0.575658
C28	C	-4.081618	-0.163399	-0.935782
C29	C	-4.144856	0.059723	-0.254343
C30	C	-4.061876	0.200090	-0.255049
C31	C	-4.177514	-0.162130	-0.105724
C32	C	-4.115300	-0.162804	-0.011941
H33	H	-3.889082	-0.740854	-0.251889
N34	N	-3.687586	-0.269087	-0.680236
H35	H	-3.659313	-0.270351	-0.616741
H36	H	-3.551748	-0.260179	-0.697895
N37	N	-4.093622	-0.406378	-0.699563
H38	H	-3.956755	-0.402405	-0.714964
H39	H	-4.213997	-0.486078	-0.732469
N40	N	-4.309473	-0.534043	-0.264972
H41	H	-4.452911	-0.599826	-0.267333
H42	H	-4.322191	-0.492067	-0.317967
H43	H	-4.380883	-0.802525	-0.262511
N44	N	-3.758630	-0.266579	-0.841045
H45	H	-3.637015	-0.232548	-0.868127
H46	H	-3.891993	-0.321545	-0.886311
N47	N	-3.776394	-0.594011	-0.251499
H48	H	-3.821706	-0.660933	-0.303577
H49	H	-3.763575	-0.635899	-0.198468
N50	N	-3.937642	0.076903	-0.812097
H51	H	-4.031446	0.123887	-0.841607
H52	H	-3.848622	0.059647	-0.849997
N53	N	-4.424104	-0.303922	-0.856460
H54	H	-4.519630	-0.387279	-0.845078
H55	H	-4.452820	-0.303520	-0.920045
H56	H	-3.619482	-0.067868	-0.666793
N57	N	-3.850718	0.074916	-0.651031
H58	H	-3.728718	0.053828	-0.614132
H59	H	-3.906800	0.125073	-0.614092
H60	H	-3.682791	-0.066213	-0.811675
H61	H	-4.168465	-0.377164	-0.849762
N62	N	-4.354850	-0.303804	-0.696785
H63	H	-4.329425	-0.229105	-0.652270
H64	H	-4.401259	-0.386003	-0.672673
N65	N	-4.223712	-0.045149	-0.668218
H66	H	-4.273154	-0.121106	-0.638419
H67	H	-4.342831	-0.049131	-0.719656
H68	H	-4.249840	-0.052892	-0.821212
