data_functionalizedCrystal
_audit_creation_method	'MofGen! by Chris Wilmer'
_symmetry_space_group_name_H-M	'P1'
_symmetry_Int_Tables_number	1
_symmetry_cell_setting	triclinic
loop_
_symmetry_equiv_pos_as_xyz
  x,y,z
_cell_length_a	17.038275
_cell_length_b	10.654550
_cell_length_c	9.730223
_cell_angle_alpha	89.991990
_cell_angle_beta	90.007604
_cell_angle_gamma	87.798357
loop_
_atom_site_label
_atom_site_type_symbol
_atom_site_fract_x
_atom_site_fract_y
_atom_site_fract_z
O1	O	-1.038884	-0.272875	0.114091
O2	O	-0.811229	-0.268541	0.114137
O3	O	-0.930291	-0.088455	0.114104
O4	O	-0.919823	-0.452961	0.114124
O5	O	-0.930294	-0.088434	-0.114476
O6	O	-0.811232	-0.268521	-0.114443
O7	O	-1.038887	-0.272854	-0.114489
Zn8	Zn	-0.925060	-0.270684	-0.150758
Zn9	Zn	-0.925056	-0.270711	0.150406
O10	O	-0.919825	-0.452941	-0.114456
C11	C	-0.782080	-0.264590	-0.000147
C12	C	-0.695222	-0.252833	-0.000129
C13	C	-0.929524	-0.041575	-0.000185
C14	C	-0.927224	0.098082	-0.000182
N15	N	-0.925068	-0.270666	-0.356294
C16	C	-0.645711	-0.360777	-0.000124
C17	C	-0.564098	-0.349722	-0.000141
C18	C	-0.531999	-0.230722	-0.000155
C19	C	-0.581516	-0.122770	-0.000165
C20	C	-0.663127	-0.133826	-0.000157
C21	C	-0.286023	-0.191664	-0.000187
C22	C	-0.204406	-0.180616	-0.000191
C23	C	-0.186993	-0.407569	-0.000170
C24	C	-0.268606	-0.418614	-0.000154
C25	C	-0.318117	-0.310662	-0.000171
C26	C	-0.448578	-0.219420	-0.000168
C27	C	-0.401536	-0.321966	-0.000167
C28	C	-0.068036	-0.276805	-0.000195
C29	C	-0.154895	-0.288560	-0.000185
C30	C	-0.920592	-0.499820	-0.000164
C31	C	-0.922892	-0.639477	-0.000158
C32	C	-0.997326	0.171058	-0.000196
C33	C	-0.995160	0.302280	-0.000179
C34	C	-0.852785	0.287537	-0.000140
C35	C	-0.854951	0.156318	-0.000147
N36	N	-0.925054	-0.270720	0.355942
C37	C	-0.877300	-0.189236	0.427865
C38	C	-0.877309	-0.189205	0.571748
C39	C	-0.972828	-0.352154	0.571773
C40	C	-0.972823	-0.352178	0.427893
H41	H	-0.671839	-0.457679	-0.000112
H42	H	-0.703439	-0.045926	-0.000161
H43	H	-1.011714	-0.418534	0.369332
H44	H	-1.052244	0.361692	-0.000187
H45	H	-0.793943	0.334969	-0.000114
H46	H	-0.555375	-0.025877	-0.000195
H47	H	-0.523789	-0.437622	-0.000135
Br48	Br	-1.037651	-0.462701	0.669429
Br49	Br	-0.759806	0.057269	-0.000110
Br50	Br	-0.812493	-0.078618	0.669352
Br51	Br	-0.812474	-0.078684	0.330222
H52	H	-0.294735	-0.515516	-0.000127
H53	H	-0.146673	-0.495457	-0.000158
Br54	Br	-0.445101	-0.483461	-0.000158
H55	H	-0.326325	-0.103760	-0.000202
Br56	Br	-0.160843	-0.019105	-0.000238
H57	H	-0.422434	-0.122529	-0.000218
H58	H	-1.056174	0.123646	-0.000221
