data_functionalizedCrystal
_audit_creation_method	'MofGen! by Chris Wilmer'
_symmetry_space_group_name_H-M	'P1'
_symmetry_Int_Tables_number	1
_symmetry_cell_setting	triclinic
loop_
_symmetry_equiv_pos_as_xyz
  x,y,z
_cell_length_a	6.817900
_cell_length_b	11.102288
_cell_length_c	16.015572
_cell_angle_alpha	76.744148
_cell_angle_beta	104.485554
_cell_angle_gamma	108.605689
loop_
_atom_site_label
_atom_site_type_symbol
_atom_site_fract_x
_atom_site_fract_y
_atom_site_fract_z
V1	V	-3.999220	-0.051261	-0.269393
O2	O	-3.960391	0.130656	-0.264265
O3	O	-3.976766	-0.224933	-0.267551
O4	O	-3.927019	0.005776	-0.386885
O5	O	-4.010482	-0.101651	-0.144105
V6	V	-4.482571	-0.036148	-0.254407
O7	O	-4.260858	-0.084413	-0.302265
O8	O	-4.671130	-0.002996	-0.221536
O9	O	-4.281819	0.137524	-0.256250
O10	O	-4.638797	-0.218065	-0.259536
O11	O	-4.588706	0.014242	-0.379696
O12	O	-4.331565	-0.093185	-0.136916
C13	C	-3.828848	-0.269029	-0.263301
C14	C	-3.891617	-0.410646	-0.262578
C15	C	-4.103316	-0.481658	-0.266549
C16	C	-4.162285	-0.614720	-0.265876
C17	C	-3.797832	-0.605747	-0.257258
C18	C	-3.738869	-0.472686	-0.257937
C19	C	-3.765391	0.025266	-0.415522
C20	C	-3.787814	0.070751	-0.511572
C21	C	-4.136761	-0.332975	-0.889205
C22	C	-4.157829	-0.290194	-0.979454
C23	C	-4.047775	-0.068856	-0.954747
C24	C	-4.026687	-0.111619	-0.864494
C25	C	-4.071187	-0.243680	-0.831730
C26	C	-3.961113	-0.022324	-0.807019
C27	C	-3.940038	-0.065084	-0.716774
C28	C	-3.984537	-0.197140	-0.684003
C29	C	-4.050112	-0.286440	-0.741485
C30	C	-3.916629	0.109736	-0.839785
C31	C	-3.851054	0.199031	-0.782310
C32	C	-3.829964	0.156272	-0.692063
C33	C	-3.874463	0.024216	-0.659292
C34	C	-3.764390	0.245572	-0.634581
C35	C	-3.743314	0.202812	-0.544335
C36	C	-3.853388	-0.018544	-0.569047
C37	C	-4.093080	0.181612	-0.260497
C38	C	-4.009548	0.323230	-0.261226
C39	C	-4.156537	-0.112681	-0.108274
C40	C	-4.113352	-0.158160	-0.012223
H41	H	-3.889597	-0.126080	-0.542369
H42	H	-3.566472	-0.414865	-0.254706
N43	N	-4.268072	-0.414746	-0.271568
H44	H	-4.270211	-0.347197	-0.325852
H45	H	-4.233159	-0.372359	-0.218195
H46	H	-4.086320	-0.393977	-0.714807
N47	N	-4.390602	-0.691320	-0.270109
H48	H	-4.404783	-0.785032	-0.268965
H49	H	-4.478433	-0.657502	-0.325907
N50	N	-3.961747	-0.243433	-0.586683
H51	H	-4.058905	-0.213314	-0.562979
H52	H	-3.811096	-0.207395	-0.557179
H53	H	-3.673477	-0.656277	-0.253477
H54	H	-3.728184	0.353096	-0.661271
H55	H	-4.172970	-0.440512	-0.862527
N56	N	-3.803055	0.341465	-0.817645
H57	H	-3.933232	0.361216	-0.857523
H58	H	-3.685399	0.366974	-0.851507
H59	H	-4.211221	-0.362919	-1.026249
H60	H	-4.011557	0.038668	-0.981436
H61	H	-3.933761	0.144548	-0.913268
H62	H	-3.689918	0.275525	-0.497538
