data_functionalizedCrystal
_audit_creation_method	'MofGen! by Chris Wilmer'
_symmetry_space_group_name_H-M	'P1'
_symmetry_Int_Tables_number	1
_symmetry_cell_setting	triclinic
loop_
_symmetry_equiv_pos_as_xyz
  x,y,z
_cell_length_a	13.897449
_cell_length_b	29.839131
_cell_length_c	13.897441
_cell_angle_alpha	89.957203
_cell_angle_beta	89.979267
_cell_angle_gamma	90.036508
loop_
_atom_site_label
_atom_site_type_symbol
_atom_site_fract_x
_atom_site_fract_y
_atom_site_fract_z
Zn1	Zn	1.474585	-0.178824	-0.545299
Zn2	Zn	1.474430	-0.253959	-0.383966
Zn3	Zn	1.313274	-0.178845	-0.384018
Zn4	Zn	1.313207	-0.253929	-0.545219
O5	O	1.393874	-0.216389	-0.464626
O6	O	1.609546	-0.188794	-0.523910
O7	O	1.453015	-0.244016	-0.248992
O8	O	1.334766	-0.115975	-0.405467
O9	O	1.609432	-0.243995	-0.405380
O10	O	1.453280	-0.115959	-0.523960
O11	O	1.334615	-0.188830	-0.249029
O12	O	1.178284	-0.188802	-0.405389
O13	O	1.334650	-0.243945	-0.680211
O14	O	1.178234	-0.243966	-0.523823
O15	O	1.453215	-0.188765	-0.680270
O16	O	1.452950	-0.316822	-0.405302
O17	O	1.334500	-0.316800	-0.523773
C18	C	1.143260	-0.216383	-0.464604
C19	C	1.036046	-0.216391	-0.464617
C20	C	1.393727	-0.333112	-0.464544
C21	C	1.393752	-0.383046	-0.464542
C22	C	0.839750	-0.216393	-0.464642
C23	C	0.948983	-0.216391	-0.464626
C24	C	1.455571	-0.692646	-0.526413
C25	C	1.455676	-0.880319	-0.526471
O26	O	1.508092	-0.904548	-0.579015
N27	N	1.394038	-0.903831	-0.464733
C28	C	1.332365	-0.880422	-0.402980
O29	O	1.279933	-0.904726	-0.350476
C30	C	1.332256	-0.692750	-0.402928
C31	C	1.393905	-0.669240	-0.464663
C32	C	1.517214	-0.669137	-0.588144
C33	C	1.517191	-0.622222	-0.588125
C34	C	1.455525	-0.598816	-0.526375
C35	C	1.393882	-0.622325	-0.464644
C36	C	1.270579	-0.669341	-0.341181
C37	C	1.270555	-0.622420	-0.341175
C38	C	1.332204	-0.598911	-0.402910
C39	C	1.332192	-0.552003	-0.402876
N40	N	1.393830	-0.528492	-0.464614
C41	C	1.455496	-0.551898	-0.526364
C42	C	1.332428	-0.978952	-0.403011
C43	C	1.332456	-1.025870	-0.403022
C44	C	1.455766	-1.025765	-0.526515
C45	C	1.455742	-0.978846	-0.526497
C46	C	1.394065	-0.955441	-0.464749
C47	C	1.455444	-0.453372	-0.526319
C48	C	1.455418	-0.406452	-0.526292
C49	C	1.332105	-0.406562	-0.402804
C50	C	1.332134	-0.453477	-0.402827
C51	C	1.393807	-0.476881	-0.464592
O52	O	1.279796	-0.527746	-0.350366
O53	O	1.507905	-0.527585	-0.578874
C54	C	1.455594	-0.739562	-0.526432
C55	C	1.393951	-0.763071	-0.464701
C56	C	1.332285	-0.739665	-0.402951
C57	C	1.393979	-0.809989	-0.464712
C58	C	1.455645	-0.833395	-0.526462
C59	C	1.517283	-0.809883	-0.588200
C60	C	1.517260	-0.762968	-0.588181
C61	C	1.270647	-0.763177	-0.341213
C62	C	1.270676	-0.810092	-0.341236
C63	C	1.332342	-0.833498	-0.402986
C64	C	1.645467	-0.216395	-0.464648
C65	C	1.752681	-0.216398	-0.464658
C66	C	1.393942	-0.216349	-0.716219
C67	C	1.393971	-0.216332	-0.823433
C68	C	1.394048	-0.099211	-0.464728
C69	C	1.394122	-0.049276	-0.464772
C70	C	1.393998	-0.216302	-1.019728
C71	C	1.393980	-0.216320	-0.910495
C72	C	1.393861	-0.216396	-0.214011
C73	C	1.394019	-0.216287	-0.106798
H74	H	1.505623	-0.387312	-0.576564
N75	N	1.518444	-0.477267	-0.589418
N76	N	1.573474	-0.456263	-0.644525
H77	H	1.617971	-0.473138	-0.689085
H78	H	1.220430	-0.744123	-0.290930
N79	N	1.580227	-0.738952	-0.651241
N80	N	1.546261	-0.712756	-0.712672
H81	H	1.590737	-0.695795	-0.757205
N82	N	1.580169	-0.598218	-0.651194
N83	N	1.635217	-0.619130	-0.706320
H84	H	1.679697	-0.602180	-0.750869
H85	H	1.567430	-0.688189	-0.638434
N86	N	1.518756	-1.049685	-0.589580
N87	N	1.518765	-1.091575	-0.589573
H88	H	1.563246	-1.108472	-0.634113
N89	N	1.269434	-0.955044	-0.339926
N90	N	1.303378	-0.928872	-0.278480
H91	H	1.258890	-0.911987	-0.233928
N92	N	1.518722	-0.954841	-0.589562
N93	N	1.573778	-0.975750	-0.644683
H94	H	1.618261	-0.958799	-0.689226
H95	H	1.282266	-1.045007	-0.352741
H96	H	1.567497	-0.828949	-0.638476
H97	H	1.220378	-0.688474	-0.290909
N98	N	1.207700	-0.834096	-0.278156
N99	N	1.152648	-0.813187	-0.223031
H100	H	1.108167	-0.830138	-0.178485
N101	N	1.207540	-0.598513	-0.278111
N102	N	1.118534	-0.603788	-0.284440
H103	H	1.074029	-0.586904	-0.239901
N104	N	1.269199	-0.477487	-0.339720
N105	N	1.214169	-0.456581	-0.284567
H106	H	1.169725	-0.473535	-0.239989
N107	N	1.269134	-0.382641	-0.339726
N108	N	1.269132	-0.340751	-0.339725
H109	H	1.224657	-0.323855	-0.295178
