data_functionalizedCrystal
_audit_creation_method	'MofGen! by Chris Wilmer'
_symmetry_space_group_name_H-M	'P1'
_symmetry_Int_Tables_number	1
_symmetry_cell_setting	triclinic
loop_
_symmetry_equiv_pos_as_xyz
  x,y,z
_cell_length_a	6.817900
_cell_length_b	16.306198
_cell_length_c	16.305550
_cell_angle_alpha	95.373122
_cell_angle_beta	103.455250
_cell_angle_gamma	103.467075
loop_
_atom_site_label
_atom_site_type_symbol
_atom_site_fract_x
_atom_site_fract_y
_atom_site_fract_z
V1	V	-4.026246	-0.117432	-0.263332
O2	O	-4.013841	0.004910	-0.258012
O3	O	-3.977698	-0.232142	-0.261826
O4	O	-3.977652	-0.115947	-0.378045
O5	O	-4.013887	-0.112090	-0.140988
V6	V	-4.509919	-0.102760	-0.248662
O7	O	-4.287177	-0.149615	-0.295509
O8	O	-4.699185	-0.070577	-0.216485
O9	O	-4.335260	0.011951	-0.250168
O10	O	-4.639720	-0.225102	-0.253982
O11	O	-4.639675	-0.108102	-0.371006
O12	O	-4.335306	-0.104245	-0.133949
C13	C	-3.822669	-0.260096	-0.257748
C14	C	-3.864260	-0.353876	-0.257281
C15	C	-4.015214	-0.694623	-0.255576
C16	C	-4.219298	-0.664089	-0.260538
C17	C	-4.176361	-0.566600	-0.261349
C18	C	-3.940325	-0.525574	-0.256421
C19	C	-3.888744	-0.571230	-0.334676
C20	C	-3.933440	-0.668848	-0.334288
C21	C	-3.845294	-0.643281	-0.172946
C22	C	-3.805619	-0.545629	-0.172460
C23	C	-3.897991	-0.430035	-0.256902
C24	C	-4.057544	-0.790162	-0.255101
C25	C	-3.822610	-0.111876	-0.405996
C26	C	-3.864161	-0.111421	-0.499776
C27	C	-4.015248	-0.109658	-0.840517
C28	C	-3.779200	-0.104423	-0.799575
C29	C	-3.736007	-0.105246	-0.702082
C30	C	-3.940291	-0.110532	-0.671472
C31	C	-4.107324	-0.193848	-0.722311
C32	C	-4.149188	-0.193376	-0.819859
C33	C	-4.070003	-0.032243	-0.794476
C34	C	-4.022074	-0.031583	-0.696632
C35	C	-3.897941	-0.111029	-0.575935
C36	C	-4.057607	-0.109167	-0.936055
C37	C	-4.153632	0.039900	-0.254244
C38	C	-4.091278	0.133679	-0.254716
C39	C	-4.153691	-0.108318	-0.105994
C40	C	-4.091377	-0.108769	-0.012212
H41	H	-3.609509	-0.045342	-0.666906
O42	O	-3.685259	-0.539676	-0.334045
C43	C	-3.644354	-0.582024	-0.405120
H44	H	-3.763456	-0.646808	-0.427779
H45	H	-3.480282	-0.591526	-0.386182
H46	H	-3.656243	-0.541984	-0.458868
O47	O	-3.755791	-0.693277	-0.334189
C48	C	-3.791856	-0.753584	-0.407531
H49	H	-3.966330	-0.785876	-0.432022
H50	H	-3.703544	-0.803695	-0.390725
H51	H	-3.734857	-0.719949	-0.459152
O52	O	-3.961287	0.043085	-0.810325
C53	C	-4.102245	0.086770	-0.851381
H54	H	-4.258730	0.039128	-0.884347
H55	H	-4.036507	0.121003	-0.900865
H56	H	-4.125479	0.135501	-0.802133
H57	H	-4.282463	-0.554520	-0.321608
O58	O	-4.356569	-0.202203	-0.853407
C59	C	-4.441000	-0.276658	-0.914871
H60	H	-4.310863	-0.294079	-0.939946
H61	H	-4.563266	-0.264728	-0.969970
H62	H	-4.517145	-0.331374	-0.884401
H63	H	-4.260480	-0.200729	-0.703416
O64	O	-4.275245	-0.035815	-0.826358
C65	C	-4.322598	0.033907	-0.784635
H66	H	-4.204307	0.058017	-0.719827
H67	H	-4.486395	0.012733	-0.775249
H68	H	-4.315384	0.087348	-0.825089
H69	H	-4.052604	-0.703043	-0.396498
O70	O	-3.598146	-0.511068	-0.162474
C71	C	-3.570119	-0.467750	-0.231490
H72	H	-3.711851	-0.494588	-0.288563
H73	H	-3.423790	-0.476840	-0.249443
H74	H	-3.552048	-0.396797	-0.212276
H75	H	-4.221391	-0.535490	-0.205421
H76	H	-3.985083	-0.558145	-0.396811
H77	H	-4.051891	-0.252469	-0.705648
H78	H	-4.169362	-0.030547	-0.675281
H79	H	-3.673061	-0.044237	-0.811785
O80	O	-3.877486	0.041857	-0.655343
C81	C	-3.703052	0.021989	-0.603958
H82	H	-3.752146	-0.045369	-0.588660
H83	H	-3.639341	0.069456	-0.542055
H84	H	-3.576620	0.025815	-0.639604
O85	O	-3.725766	-0.170849	-0.837394
C86	C	-3.900763	-0.222015	-0.900740
H87	H	-4.049941	-0.212119	-0.886108
H88	H	-3.901072	-0.292031	-0.901587
H89	H	-3.892785	-0.203269	-0.965747
H90	H	-3.669581	-0.161507	-0.685933
H91	H	-4.346076	-0.699797	-0.320147
O92	O	-4.298602	-0.683637	-0.193489
C93	C	-4.170649	-0.725185	-0.141044
H94	H	-4.079502	-0.755405	-0.179974
H95	H	-4.272319	-0.776952	-0.115247
H96	H	-4.056664	-0.676797	-0.085503
H97	H	-4.113043	-0.251982	-0.850391
H98	H	-3.894788	-0.659834	-0.113088
H99	H	-3.693119	-0.662437	-0.168527
O100	O	-3.851524	-0.508853	-0.103431
C101	C	-4.004846	-0.465212	-0.130888
H102	H	-4.001444	-0.448665	-0.197026
H103	H	-3.971446	-0.404030	-0.084117
H104	H	-4.165624	-0.507648	-0.133721
