data_functionalizedCrystal
_audit_creation_method	'MofGen! by Chris Wilmer'
_symmetry_space_group_name_H-M	'P1'
_symmetry_Int_Tables_number	1
_symmetry_cell_setting	triclinic
loop_
_symmetry_equiv_pos_as_xyz
  x,y,z
_cell_length_a	17.699083
_cell_length_b	17.019294
_cell_length_c	16.776229
_cell_angle_alpha	93.872869
_cell_angle_beta	89.997548
_cell_angle_gamma	83.339169
loop_
_atom_site_label
_atom_site_type_symbol
_atom_site_fract_x
_atom_site_fract_y
_atom_site_fract_z
O1	O	1.004145	0.099741	0.073022
O2	O	1.504145	0.599741	0.573022
O3	O	0.783775	0.112720	0.073938
O4	O	1.283775	0.612720	0.573938
O5	O	0.900107	-0.008613	0.065592
O6	O	1.400107	0.491387	0.565592
O7	O	0.887812	0.221074	0.081368
O8	O	1.387812	0.721074	0.581368
O9	O	0.900097	-0.008592	-0.066983
O10	O	1.400097	0.491408	0.433017
O11	O	0.783764	0.112741	-0.058637
O12	O	1.283764	0.612741	0.441363
O13	O	1.004134	0.099762	-0.059553
O14	O	1.504134	0.599762	0.440447
Zn15	Zn	0.893947	0.106255	-0.080144
Zn16	Zn	1.393947	0.606255	0.419856
Zn17	Zn	0.893962	0.106227	0.094529
Zn18	Zn	1.393962	0.606227	0.594529
O19	O	0.887802	0.221095	-0.051207
O20	O	1.387802	0.721095	0.448793
C21	C	0.755572	0.112265	0.007622
C22	C	1.255572	0.612265	0.507622
C23	C	0.671553	0.110870	0.007536
C24	C	1.171553	0.610870	0.507536
C25	C	0.622981	0.182090	0.012428
C26	C	1.122981	0.682090	0.512428
C27	C	0.544037	0.180774	0.012327
C28	C	1.044037	0.680774	0.512327
C29	C	0.513666	0.108238	0.007341
C30	C	1.013666	0.608238	0.507341
C31	C	0.562245	0.037013	0.002447
C32	C	1.062245	0.537013	0.502447
C33	C	0.641187	0.038329	0.002542
C34	C	1.141187	0.538329	0.502542
C35	C	0.243878	0.031703	0.002062
C36	C	0.743878	0.531703	0.502062
C37	C	0.164929	0.030392	0.001970
C38	C	0.664929	0.530392	0.501970
C39	C	0.146728	0.174147	0.011847
C40	C	0.646728	0.674147	0.511847
C41	C	0.225670	0.175463	0.011943
C42	C	0.725670	0.675463	0.511943
C43	C	0.274242	0.104239	0.007044
C44	C	0.774242	0.604239	0.507044
C45	C	0.359842	0.105666	0.007152
C46	C	0.859842	0.605666	0.507152
C47	C	0.428068	0.106810	0.007239
C48	C	0.928068	0.606810	0.507239
C49	C	0.899636	-0.037990	-0.002712
C50	C	1.399636	0.462010	0.497288
C51	C	0.898237	-0.125557	-0.008720
C52	C	1.398237	0.374443	0.491280
C53	C	0.897587	-0.166703	0.060723
C54	C	1.397587	0.333297	0.560723
C55	C	0.896268	-0.248980	0.055075
C56	C	1.396268	0.251020	0.555075
C57	C	0.895604	-0.290111	-0.020017
C58	C	1.395604	0.209889	0.479983
C59	C	0.896252	-0.248959	-0.089465
C60	C	1.396252	0.251041	0.410535
C61	C	0.897565	-0.166682	-0.083816
C62	C	1.397565	0.333318	0.416184
C63	C	0.891633	-0.538532	-0.040688
C64	C	1.391633	-0.038532	0.459312
C65	C	0.890321	-0.620815	-0.046331
C66	C	1.390321	-0.120815	0.453669
C67	C	0.890337	-0.620831	0.098210
C68	C	1.390337	-0.120831	0.598210
C69	C	0.891655	-0.538553	0.103852
C70	C	1.391655	-0.038553	0.603852
C71	C	0.892298	-0.497408	0.034404
C72	C	1.392298	0.002592	0.534404
C73	C	0.894258	-0.374212	-0.025792
C74	C	1.394258	0.125788	0.474208
C75	C	0.893639	-0.413307	0.040179
C76	C	1.393639	0.086693	0.540179
C77	C	1.032337	0.100217	0.006764
C78	C	1.532337	0.600217	0.506764
C79	C	1.116356	0.101612	0.006856
C80	C	1.616356	0.601612	0.506856
C81	C	0.888273	0.250472	0.017098
C82	C	1.388273	0.750472	0.517098
C83	C	0.889672	0.338039	0.023112
C84	C	1.389672	0.838039	0.523112
N85	N	0.893943	0.106273	-0.199354
N86	N	1.393943	0.606273	0.300646
C87	C	0.848121	0.058425	-0.747807
C88	C	1.348121	0.558425	-0.247807
C89	C	0.848119	0.058432	-0.664354
C90	C	1.348119	0.558432	-0.164354
C91	C	0.893965	0.106220	-0.619357
C92	C	1.393965	0.606220	-0.119357
C93	C	0.939820	0.153999	-0.657818
C94	C	1.439820	0.653999	-0.157818
C95	C	0.939826	0.153988	-0.741269
C96	C	1.439826	0.653988	-0.241269
C97	C	0.939801	0.154046	-0.321267
C98	C	1.439801	0.654046	0.178733
C99	C	0.939790	0.154055	-0.237810
C100	C	1.439790	0.654055	0.262190
C101	C	0.848094	0.058490	-0.244352
C102	C	1.348094	0.558490	0.255648
C103	C	0.848100	0.058478	-0.327804
C104	C	1.348100	0.558478	0.172196
C105	C	0.893958	0.106254	-0.366257
C106	C	1.393958	0.606254	0.133743
C107	C	0.893961	0.106245	-0.456746
C108	C	1.393961	0.606245	0.043254
C109	C	0.893959	0.106234	-0.528869
C110	C	1.393959	0.606234	-0.028869
N111	N	0.893972	0.106202	0.213739
N112	N	1.393972	0.606202	0.713739
H113	H	0.680735	-0.019665	-0.001441
H114	H	1.180735	0.480335	0.498559
H115	H	0.893720	-0.407710	-0.086932
H116	H	1.393720	0.092290	0.413068
H117	H	0.894174	-0.379814	0.101319
H118	H	1.394174	0.120186	0.601319
C119	C	0.131524	-0.049407	-0.003525
C120	C	0.631524	0.450593	0.496475
N121	N	0.106363	-0.109509	-0.007666
N122	N	0.606363	0.390491	0.492334
C123	C	0.892386	-0.493316	0.186459
C124	C	1.392386	0.006684	0.686459
N125	N	0.892939	-0.459243	0.248680
N126	N	1.392939	0.040757	0.748680
C127	C	0.528834	-0.042777	-0.003040
C128	C	1.028834	0.457223	0.496960
N129	N	0.503671	-0.102877	-0.007169
N130	N	1.003671	0.397123	0.492831
H131	H	0.898132	-0.133221	0.121872
H132	H	1.398132	0.366779	0.621872
H133	H	0.977152	0.192905	-0.621175
H134	H	1.477152	0.692905	-0.121175
H135	H	0.504492	0.238768	0.016311
H136	H	1.004492	0.738768	0.516311
C137	C	0.889588	-0.666057	-0.128942
C138	C	1.389588	-0.166057	0.371058
N139	N	0.889037	-0.700133	-0.191161
N140	N	1.389037	-0.200133	0.308839
H141	H	0.283416	-0.026293	-0.001927
H142	H	0.783416	0.473707	0.498073
C143	C	0.895624	-0.294247	0.131469
C144	C	1.395624	0.205753	0.631469
N145	N	0.895163	-0.328344	0.189011
N146	N	1.395163	0.171656	0.689011
H147	H	0.889812	-0.654340	0.154751
H148	H	1.389812	-0.154340	0.654751
C149	C	0.892344	-0.493284	-0.117084
C150	C	1.392344	0.006716	0.382916
N151	N	0.892880	-0.459199	-0.174630
N152	N	1.392880	0.040801	0.325370
H153	H	0.977162	0.192892	-0.772577
H154	H	1.477162	0.692892	-0.272577
C155	C	0.895516	-0.294205	-0.172068
C156	C	1.395516	0.205795	0.327932
N157	N	0.894963	-0.328283	-0.234286
N158	N	1.394963	0.171717	0.265714
C159	C	0.898282	-0.121422	-0.160210
C160	C	1.398282	0.378578	0.339790
N161	N	0.898820	-0.087333	-0.217752
N162	N	1.398820	0.412667	0.282248
C163	C	0.797686	0.005854	-0.797296
C164	C	1.297686	0.505854	-0.297296
N165	N	0.759700	-0.033747	-0.834569
N166	N	1.259700	0.466253	-0.334569
H167	H	0.810785	0.019525	-0.633048
H168	H	1.310785	0.519525	-0.133048
C169	C	0.259073	0.255258	0.017423
C170	C	0.759073	0.755258	0.517423
N171	N	0.284230	0.315362	0.021545
N172	N	0.784230	0.815362	0.521545
C173	C	0.990232	0.206623	-0.188315
C174	C	1.490232	0.706623	0.311685
N175	N	1.028223	0.246214	-0.151036
N176	N	1.528223	0.746214	0.348964
C177	C	0.990211	0.206637	-0.363552
C178	C	1.490211	0.706637	0.136448
N179	N	1.028171	0.246264	-0.395403
N180	N	1.528171	0.746264	0.104597
H181	H	0.810765	0.019567	-0.364436
H182	H	1.310765	0.519567	0.135564
H183	H	0.107171	0.232141	0.015831
H184	H	0.607171	0.732141	0.515831
C185	C	0.656381	0.261886	0.017912
C186	C	1.156381	0.761886	0.517912
N187	N	0.681535	0.321991	0.022039
N188	N	1.181535	0.821991	0.522039
C189	C	0.797717	0.005864	-0.202051
C190	C	1.297717	0.505864	0.297949
N191	N	0.759796	-0.033795	-0.170193
N192	N	1.259796	0.466205	0.329807
