data_functionalizedCrystal
_audit_creation_method	'MofGen! by Chris Wilmer'
_symmetry_space_group_name_H-M	'P1'
_symmetry_Int_Tables_number	1
_symmetry_cell_setting	triclinic
loop_
_symmetry_equiv_pos_as_xyz
  x,y,z
_cell_length_a	6.817900
_cell_length_b	13.563541
_cell_length_c	14.125465
_cell_angle_alpha	110.574742
_cell_angle_beta	100.398878
_cell_angle_gamma	104.704624
loop_
_atom_site_label
_atom_site_type_symbol
_atom_site_fract_x
_atom_site_fract_y
_atom_site_fract_z
V1	V	-4.018647	-0.152533	-0.340470
O2	O	-3.978019	0.008310	-0.292060
O3	O	-3.997433	-0.303390	-0.378467
O4	O	-3.954292	-0.149756	-0.470563
O5	O	-4.021459	-0.146387	-0.199326
V6	V	-4.500820	-0.133345	-0.318689
O7	O	-4.282868	-0.194623	-0.388247
O8	O	-4.686797	-0.091255	-0.270912
O9	O	-4.298827	0.017512	-0.280692
O10	O	-4.658845	-0.294188	-0.367099
O11	O	-4.615404	-0.139491	-0.459833
O12	O	-4.341969	-0.136121	-0.188596
C13	C	-3.849564	-0.340179	-0.383501
C14	C	-3.913400	-0.463504	-0.415435
C15	C	-3.962821	-0.748882	-0.136484
C16	C	-3.902830	-0.633011	-0.106478
C17	C	-3.905470	-0.590629	-0.183715
C18	C	-3.968106	-0.664128	-0.290963
C19	C	-4.028087	-0.780010	-0.320971
C20	C	-3.970736	-0.621756	-0.368202
C21	C	-4.033372	-0.695256	-0.475450
C22	C	-4.093347	-0.811126	-0.505453
C23	C	-4.090707	-0.853508	-0.428216
C24	C	-3.910755	-0.505875	-0.338193
C25	C	-3.976021	-0.537003	-0.522680
C26	C	-4.036011	-0.652873	-0.552686
C27	C	-3.794532	-0.144203	-0.500977
C28	C	-3.823377	-0.142931	-0.607594
C29	C	-3.876250	-0.140598	-0.802797
C30	C	-4.062586	-0.145277	-0.856361
C31	C	-4.092006	-0.143979	-0.964979
C32	C	-3.846821	-0.141896	-0.694169
C33	C	-4.110040	0.054296	-0.275657
C34	C	-4.025442	0.177619	-0.243729
C35	C	-4.165072	-0.141679	-0.158178
C36	C	-4.115464	-0.142945	-0.051559
H37	H	-3.856612	-0.496280	-0.159277
C38	C	-4.162234	-0.891972	-0.623421
H39	H	-4.155237	-0.850139	-0.665124
H40	H	-4.070207	-0.934220	-0.634938
H41	H	-4.303790	-0.941422	-0.642983
C42	C	-3.690734	-0.134116	-0.851136
H43	H	-3.569983	-0.131419	-0.803275
H44	H	-3.730480	-0.198469	-0.915962
H45	H	-3.657309	-0.068516	-0.864014
H46	H	-3.978168	-0.502496	-0.585573
C47	C	-4.248258	-0.152024	-0.808123
H48	H	-4.203830	-0.152038	-0.740395
H49	H	-4.291446	-0.089143	-0.801062
H50	H	-4.364038	-0.219076	-0.853150
H51	H	-3.859756	-0.446042	-0.250871
H52	H	-4.139567	-0.947859	-0.452642
C53	C	-3.833947	-0.552167	0.011481
H54	H	-3.798585	-0.477086	0.018292
H55	H	-3.947154	-0.568366	0.040439
H56	H	-3.713568	-0.561160	0.048489
C57	C	-3.959913	-0.795505	-0.051538
H58	H	-4.004612	-0.875042	-0.084773
H59	H	-3.819889	-0.766517	-0.004693
H60	H	-4.053481	-0.773732	-0.012747
H61	H	-4.087015	-0.712732	-0.640009
