data_functionalizedCrystal
_audit_creation_method	'MofGen! by Chris Wilmer'
_symmetry_space_group_name_H-M	'P1'
_symmetry_Int_Tables_number	1
_symmetry_cell_setting	triclinic
loop_
_symmetry_equiv_pos_as_xyz
  x,y,z
_cell_length_a	25.639243
_cell_length_b	25.639239
_cell_length_c	13.897441
_cell_angle_alpha	90.034305
_cell_angle_beta	90.024451
_cell_angle_gamma	90.041410
loop_
_atom_site_label
_atom_site_type_symbol
_atom_site_fract_x
_atom_site_fract_y
_atom_site_fract_z
Zn1	Zn	0.799269	-0.208096	0.545452
Zn2	Zn	0.799179	-0.295539	0.384143
Zn3	Zn	0.711832	-0.208123	0.384160
Zn4	Zn	0.711790	-0.295506	0.545385
O5	O	0.755518	-0.251816	0.464785
O6	O	0.872422	-0.219698	0.524075
O7	O	0.787573	-0.283968	0.249163
O8	O	0.723486	-0.134954	0.405591
O9	O	0.872357	-0.283941	0.405562
O10	O	0.787725	-0.134934	0.524091
O11	O	0.723399	-0.219744	0.249176
O12	O	0.638662	-0.219713	0.405526
O13	O	0.723414	-0.283887	0.680376
O14	O	0.638631	-0.283913	0.523977
O15	O	0.787685	-0.219666	0.680425
O16	O	0.787532	-0.368700	0.405497
O17	O	0.723328	-0.368676	0.523961
C18	C	0.619675	-0.251813	0.464747
C19	C	0.561561	-0.251824	0.464753
C20	C	0.201227	-0.218417	0.526598
C21	C	0.146622	-0.218417	0.526604
O22	O	0.118410	-0.190003	0.579138
N23	N	0.119279	-0.251815	0.464811
C24	C	0.146542	-0.285212	0.403002
O25	O	0.118270	-0.313619	0.350443
C26	C	0.201145	-0.285209	0.402992
C27	C	0.228486	-0.251812	0.464795
C28	C	0.228568	-0.185023	0.588395
C29	C	0.283168	-0.185024	0.588390
C30	C	0.310428	-0.218420	0.526588
C31	C	0.283087	-0.251814	0.464790
C32	C	0.228408	-0.318603	0.341179
C33	C	0.283015	-0.318597	0.341174
C34	C	0.310356	-0.285201	0.402977
C35	C	0.364947	-0.285210	0.402983
N36	N	0.392291	-0.251812	0.464775
C37	C	0.365031	-0.218417	0.526578
C38	C	0.031871	-0.285214	0.403027
C39	C	-0.022731	-0.285219	0.403041
C40	C	-0.022647	-0.218424	0.526642
C41	C	0.031957	-0.218421	0.526631
C42	C	0.059215	-0.251816	0.464819
C43	C	0.479696	-0.218422	0.526563
C44	C	0.534302	-0.218428	0.526555
C45	C	0.534213	-0.285222	0.402952
C46	C	0.479612	-0.285218	0.402963
C47	C	0.452355	-0.251814	0.464772
O48	O	0.393194	-0.313608	0.350473
O49	O	0.393310	-0.190010	0.579119
C50	C	0.755430	-0.387659	0.464741
C51	C	0.755440	-0.445773	0.464754
C52	C	0.789036	-0.806135	0.403206
C53	C	0.789056	-0.860740	0.403219
O54	O	0.817530	-0.888976	0.350840
N55	N	0.755610	-0.888055	0.464849
C56	C	0.722144	-0.860763	0.526477
O57	O	0.693697	-0.889011	0.578900
C58	C	0.722127	-0.806160	0.526468
C59	C	0.755572	-0.778848	0.464827
C60	C	0.822479	-0.778823	0.341571
C61	C	0.822458	-0.724222	0.341557
C62	C	0.788994	-0.696934	0.403178
C63	C	0.755551	-0.724247	0.464813
C64	C	0.688664	-0.778869	0.588100
C65	C	0.688650	-0.724262	0.588087
C66	C	0.722096	-0.696950	0.526446
C67	C	0.722066	-0.642359	0.526421
N68	N	0.755513	-0.615043	0.464791
C69	C	0.788977	-0.642331	0.403169
C70	C	0.722184	-0.975434	0.526492
C71	C	0.722198	-1.030036	0.526496
C72	C	0.789111	-1.030009	0.403239
C73	C	0.789094	-0.975406	0.403231
C74	C	0.755630	-0.948119	0.464862
C75	C	0.788930	-0.527666	0.403144
C76	C	0.788904	-0.473061	0.403133
C77	C	0.721993	-0.473093	0.526393
C78	C	0.722016	-0.527693	0.526401
C79	C	0.755489	-0.554979	0.464774
O80	O	0.693608	-0.614087	0.578776
O81	O	0.817424	-0.614077	0.350764
C82	C	0.891891	-0.251820	0.464824
C83	C	0.950005	-0.251822	0.464841
C84	C	0.755555	-0.251770	0.716378
C85	C	0.755571	-0.251750	0.823592
C86	C	0.755620	-0.115443	0.464850
C87	C	0.755664	-0.057329	0.464878
C88	C	0.755511	-0.251824	0.214171
C89	C	0.755596	-0.251697	0.106957
C90	C	0.755585	-0.251715	1.019887
C91	C	0.755575	-0.251736	0.910655
H92	H	0.305424	-0.157828	0.638715
C93	C	0.685813	-0.945744	0.593244
C94	C	0.652314	-0.914443	0.538567
C95	C	0.618808	-0.887084	0.600026
H96	H	0.665848	-0.969776	0.629967
H97	H	0.705776	-0.924376	0.635296
H98	H	0.632352	-0.935809	0.496532
H99	H	0.672264	-0.890401	0.501846
H100	H	0.638771	-0.865716	0.642078
H101	H	0.598846	-0.911120	0.636746
H102	H	0.596078	-0.865839	0.562937
H103	H	0.457350	-0.312418	0.352649
C104	C	0.563884	-0.321507	0.336010
C105	C	0.595234	-0.355044	0.390507
C106	C	0.622582	-0.388469	0.328868
H107	H	0.539844	-0.341448	0.299177
H108	H	0.585217	-0.301487	0.294069
H109	H	0.573903	-0.375062	0.432431
H110	H	0.619283	-0.335117	0.427338
H111	H	0.643915	-0.368448	0.286927
H112	H	0.598538	-0.408406	0.292038
H113	H	0.643860	-0.411224	0.365834
H114	H	0.816361	-1.052237	0.353067
H115	H	0.206379	-0.157825	0.638722
C116	C	0.685902	-1.059781	0.593311
C117	C	0.693068	-1.113442	0.580128
C118	C	0.659638	-1.140856	0.641659
H119	H	0.693500	-1.050858	0.658170
H120	H	0.650762	-1.050905	0.579119
H121	H	0.728200	-1.122315	0.594327
H122	H	0.685467	-1.122380	0.515282
H123	H	0.624499	-1.131980	0.627467
H124	H	0.667239	-1.131929	0.706514
H125	H	0.664492	-1.177268	0.632716
C126	C	0.825162	-0.443314	0.336243
C127	C	0.817975	-0.389653	0.349395
C128	C	0.851361	-0.362236	0.287787
H129	H	0.860312	-0.452156	0.350364
H130	H	0.817527	-0.452268	0.271402
H131	H	0.825614	-0.380702	0.414221
H132	H	0.782832	-0.380795	0.335267
H133	H	0.843725	-0.371190	0.222945
H134	H	0.886508	-0.371082	0.301913
H135	H	0.846485	-0.325824	0.296696
H136	H	0.661427	-0.801098	0.638291
C137	C	0.061705	-0.182128	0.593571
C138	C	0.093068	-0.148584	0.539067
C139	C	0.120481	-0.115147	0.600701
H140	H	0.037704	-0.162193	0.630400
H141	H	0.083035	-0.202139	0.635516
H142	H	0.071739	-0.128576	0.497140
H143	H	0.117078	-0.168506	0.502240
H144	H	0.141811	-0.135158	0.642646
H145	H	0.096477	-0.095215	0.637527
H146	H	0.141767	-0.092387	0.563730
C147	C	0.825288	-0.557190	0.336124
C148	C	0.854557	-0.521575	0.282132
C149	C	0.888048	-0.548754	0.220371
H150	H	0.848116	-0.578454	0.372952
H151	H	0.805320	-0.578517	0.294011
H152	H	0.874525	-0.500258	0.324240
H153	H	0.831743	-0.500310	0.245285
H154	H	0.868079	-0.570080	0.178257
H155	H	0.910873	-0.570016	0.257206
H156	H	0.907908	-0.524593	0.183723
C157	C	0.312582	-0.354945	0.274185
C158	C	0.299275	-0.406690	0.295033
C159	C	0.326506	-0.440189	0.233356
H160	H	0.303644	-0.347319	0.209367
H161	H	0.349023	-0.350200	0.283037
H162	H	0.262842	-0.411432	0.286173
H163	H	0.308214	-0.414332	0.359840
H164	H	0.362947	-0.435444	0.242208
H165	H	0.317566	-0.432559	0.168541
H166	H	0.317485	-0.475301	0.247498
H167	H	-0.044851	-0.191230	0.576962
H168	H	0.661401	-0.702048	0.638278
C169	C	-0.052317	-0.321503	0.335843
C170	C	-0.016751	-0.350738	0.281707
C171	C	-0.043984	-0.384162	0.219779
H172	H	-0.073627	-0.344356	0.372556
H173	H	-0.073603	-0.301488	0.293827
H174	H	0.004525	-0.370752	0.323717
H175	H	0.004560	-0.327899	0.244974
H176	H	-0.065270	-0.364147	0.177763
H177	H	-0.065294	-0.407011	0.256499
H178	H	-0.019857	-0.403999	0.183034
C179	C	0.858835	-0.694667	0.274606
C180	C	0.888153	-0.730261	0.220673
C181	C	0.921678	-0.703059	0.158999
H182	H	0.838905	-0.673400	0.232445
H183	H	0.881627	-0.673342	0.311524
H184	H	0.865364	-0.751578	0.183758
H185	H	0.908093	-0.751530	0.262809
H186	H	0.944470	-0.681734	0.195916
H187	H	0.901744	-0.681792	0.116844
H188	H	0.941578	-0.727205	0.122404
H189	H	0.849732	-0.801035	0.291391
H190	H	0.694745	-0.450866	0.576562
H191	H	0.206156	-0.345797	0.290851
C192	C	0.825439	-0.945688	0.336467
C193	C	0.858920	-0.914277	0.391132
C194	C	0.892405	-0.886892	0.329661
H195	H	0.845418	-0.969705	0.299749
H196	H	0.805460	-0.924393	0.294413
H197	H	0.878896	-0.935570	0.433169
H198	H	0.838955	-0.890250	0.427848
H199	H	0.872427	-0.865597	0.287606
H200	H	0.912381	-0.910913	0.292945
H201	H	0.915123	-0.865573	0.366741
H202	H	0.694784	-0.549932	0.576597
C203	C	0.061531	-0.321511	0.336080
C204	C	0.092879	-0.355050	0.390578
C205	C	0.120211	-0.388489	0.328940
H206	H	0.037482	-0.341450	0.299264
H207	H	0.082865	-0.301501	0.294124
H208	H	0.071548	-0.375058	0.432518
H209	H	0.116938	-0.335125	0.427392
H210	H	0.141545	-0.368479	0.286984
H211	H	0.096158	-0.408424	0.292127
H212	H	0.141487	-0.411246	0.365907
H213	H	0.556560	-0.191232	0.576886
H214	H	0.457510	-0.191220	0.576891
