data_functionalizedCrystal
_audit_creation_method	'MofGen! by Chris Wilmer'
_symmetry_space_group_name_H-M	'P1'
_symmetry_Int_Tables_number	1
_symmetry_cell_setting	triclinic
loop_
_symmetry_equiv_pos_as_xyz
  x,y,z
_cell_length_a	27.732064
_cell_length_b	27.731996
_cell_length_c	10.868271
_cell_angle_alpha	89.988908
_cell_angle_beta	90.003316
_cell_angle_gamma	82.635407
loop_
_atom_site_label
_atom_site_type_symbol
_atom_site_fract_x
_atom_site_fract_y
_atom_site_fract_z
O1	O	0.640911	0.057557	-0.102118
O2	O	0.500117	0.066294	-0.102171
O3	O	0.574900	-0.008473	-0.102117
O4	O	0.566128	0.132324	-0.102173
O5	O	0.574894	-0.008476	0.102528
O6	O	0.500111	0.066291	0.102473
O7	O	0.640905	0.057554	0.102526
Zn8	Zn	0.570507	0.061922	0.134992
Zn9	Zn	0.570515	0.061926	-0.134637
O10	O	0.566122	0.132321	0.102472
C11	C	0.482107	0.066108	0.000145
C12	C	0.428453	0.065552	0.000126
C13	C	0.051389	0.017584	0.000215
C14	C	0.253049	0.019630	0.000182
O15	O	0.284309	-0.017592	0.000243
N16	N	0.272168	0.063966	0.000159
C17	C	0.240869	0.107793	0.000152
O18	O	0.261758	0.145549	0.000144
C19	C	0.039210	0.105746	0.000194
C20	C	0.020094	0.061407	0.000204
C21	C	0.032272	-0.026751	0.000227
C22	C	-0.018140	-0.027262	0.000229
C23	C	-0.049435	0.016562	0.000218
C24	C	-0.030318	0.060896	0.000206
C25	C	0.007912	0.149572	0.000195
C26	C	-0.042506	0.149057	0.000209
C27	C	-0.061622	0.104718	0.000220
C28	C	-0.112026	0.104209	0.000197
N29	N	-0.131145	0.059873	0.000220
C30	C	-0.099849	0.016050	0.000231
C31	C	0.346743	0.108864	0.000128
C32	C	0.397158	0.109376	0.000115
C33	C	0.409334	0.021213	0.000148
C34	C	0.358919	0.020702	0.000151
C35	C	0.327624	0.064529	0.000151
C36	C	-0.205719	0.014980	0.000233
C37	C	-0.256136	0.014473	0.000229
C38	C	-0.268308	0.102635	0.000203
C39	C	-0.217895	0.103142	0.000200
C40	C	-0.186601	0.059311	0.000219
O41	O	-0.143313	0.141411	0.000150
O42	O	-0.120748	-0.021702	0.000266
C43	C	0.101801	0.018095	0.000214
C44	C	0.120918	0.062430	0.000201
C45	C	0.089623	0.106253	0.000191
C46	C	0.171332	0.062941	0.000189
C47	C	0.202628	0.019118	0.000199
C48	C	0.183508	-0.025218	0.000223
C49	C	0.133096	-0.025729	0.000224
C50	C	0.108742	0.150589	0.000167
C51	C	0.159154	0.151096	0.000164
C52	C	0.190450	0.107273	0.000175
C53	C	0.574717	-0.026482	0.000210
C54	C	0.574174	-0.080138	0.000222
C55	C	0.570762	-0.412853	-0.111391
C56	C	0.568701	-0.614511	-0.111413
O57	O	0.568417	-0.640580	-0.206285
N58	N	0.568442	-0.639730	0.000137
C59	C	0.568695	-0.614530	0.111701
O60	O	0.568422	-0.640607	0.206582
C61	C	0.570753	-0.412872	0.111723
C62	C	0.571017	-0.387657	0.000165
C63	C	0.571026	-0.387637	-0.222940
C64	C	0.571544	-0.337226	-0.222933
C65	C	0.571798	-0.312030	-0.111378
C66	C	0.571535	-0.337246	0.000171
C67	C	0.571002	-0.387673	0.223285
C68	C	0.571515	-0.337256	0.223281
C69	C	0.571779	-0.312040	0.111723
C70	C	0.572307	-0.261639	0.111734
N71	N	0.572566	-0.236420	0.000183
C72	C	0.572312	-0.261616	-0.111373
C73	C	0.567616	-0.720404	0.111682
C74	C	0.567102	-0.770818	0.111677
C75	C	0.567108	-0.770795	-0.111438
C76	C	0.567625	-0.720380	-0.111432
C77	C	0.567875	-0.695185	0.000132
C78	C	0.573400	-0.155749	-0.111350
C79	C	0.573920	-0.105333	-0.111333
C80	C	0.573911	-0.105360	0.111781
C81	C	0.573394	-0.155772	0.111765
C82	C	0.573137	-0.180964	0.000190
O83	O	0.572586	-0.235538	0.206555
O84	O	0.572574	-0.235529	-0.206239
C85	C	0.570245	-0.463264	-0.111398
C86	C	0.569981	-0.488479	0.000151
C87	C	0.570235	-0.463284	0.111707
C88	C	0.569467	-0.538894	0.000146
C89	C	0.569213	-0.564090	-0.111409
C90	C	0.569472	-0.538871	-0.222960
C91	C	0.569990	-0.488460	-0.222953
C92	C	0.569976	-0.488502	0.223257
C93	C	0.569459	-0.538914	0.223242
C94	C	0.569204	-0.564109	0.111686
C95	C	0.658915	0.057740	0.000208
C96	C	0.712569	0.058296	0.000218
C97	C	0.566305	0.150330	0.000142
C98	C	0.566848	0.203986	0.000122
N99	N	0.570505	0.061919	0.319006
N100	N	0.570521	0.061925	-0.318651
C101	C	0.570512	0.061925	0.570012
C102	C	0.570507	0.061923	0.430334
H103	H	-0.033699	-0.063367	0.000243
N104	N	0.570736	-0.413415	0.337252
N105	N	0.570962	-0.390903	0.436836
H106	H	0.570775	-0.409082	0.517334
H107	H	0.570184	-0.467993	0.314101
N108	N	-0.275670	-0.030815	0.000236
N109	N	-0.302447	-0.040935	-0.086020
H110	H	-0.316243	-0.072918	-0.086014
N111	N	0.566855	-0.796545	-0.225380
N112	N	0.566400	-0.841558	-0.225354
H113	H	0.566221	-0.859747	-0.305820
N114	N	0.571799	-0.311470	-0.336887
N115	N	0.537998	-0.278628	-0.361792
H116	H	0.538176	-0.260440	-0.442278
N117	N	0.573129	-0.181525	0.225727
N118	N	0.573356	-0.159020	0.325321
H119	H	0.573163	-0.177204	0.405810
H120	H	0.057749	-0.062439	0.000240
H121	H	0.208998	-0.060900	0.000224
H122	H	0.571712	-0.316743	0.314131
H123	H	-0.202330	0.139246	0.000190
N124	N	0.178676	0.196391	0.000181
N125	N	0.205446	0.206508	0.086453
H126	H	0.219233	0.238497	0.086477
H127	H	0.434824	-0.014470	0.000152
N128	N	0.574193	-0.079570	-0.225282
N129	N	0.608570	-0.056151	-0.250157
H130	H	0.608763	-0.037956	-0.330630
N131	N	0.570267	-0.462708	-0.336909
N132	N	0.604299	-0.473049	-0.411584
H133	H	0.604495	-0.454864	-0.492072
N134	N	0.570768	-0.413379	-0.336887
N135	N	0.536401	-0.436802	-0.361820
H136	H	0.536223	-0.454981	-0.442300
H137	H	0.566894	-0.791345	0.202519
H138	H	0.567822	-0.699895	0.202536
N139	N	0.027428	0.194865	0.000224
N140	N	0.054198	0.204983	0.086494
H141	H	0.067980	0.236974	0.086521
N142	N	0.574176	-0.079611	0.225716
N143	N	0.574637	-0.034599	0.225692
H144	H	0.574821	-0.016412	0.306159
H145	H	0.343358	-0.015402	0.000161
N146	N	-0.074479	0.193821	0.000217
N147	N	-0.103966	0.203368	0.086481
H148	H	-0.126547	0.234982	0.086486
N149	N	0.569219	-0.564621	-0.336902
N150	N	0.568760	-0.609633	-0.336874
H151	H	0.568580	-0.627823	-0.417340
H152	H	0.412717	0.145480	0.000089
H153	H	0.569247	-0.559440	0.314092
H154	H	-0.180245	-0.020712	0.000248
N155	N	0.113565	-0.071015	0.000236
N156	N	0.086788	-0.081138	-0.086016
H157	H	0.072995	-0.113123	-0.086005
H158	H	0.567839	-0.699853	-0.202272
N159	N	-0.300287	0.147393	0.000176
N160	N	-0.345298	0.146925	0.000177
H161	H	-0.367886	0.178535	0.000162
N162	N	0.573135	-0.181470	-0.225331
N163	N	0.573370	-0.158942	-0.324911
H164	H	0.573185	-0.177107	-0.405411
N165	N	0.314786	0.153640	0.000129
N166	N	0.331870	0.193218	0.000108
H167	H	0.309303	0.224842	0.000105
H168	H	0.083265	0.186276	0.000160
