data_functionalizedCrystal
_audit_creation_method	'MofGen! by Chris Wilmer'
_symmetry_space_group_name_H-M	'P1'
_symmetry_Int_Tables_number	1
_symmetry_cell_setting	triclinic
loop_
_symmetry_equiv_pos_as_xyz
  x,y,z
_cell_length_a	6.817900
_cell_length_b	16.417823
_cell_length_c	17.982856
_cell_angle_alpha	95.671816
_cell_angle_beta	102.449936
_cell_angle_gamma	103.385419
loop_
_atom_site_label
_atom_site_type_symbol
_atom_site_fract_x
_atom_site_fract_y
_atom_site_fract_z
V1	V	-4.014571	-0.116680	-0.237815
V2	V	-3.514571	0.383320	0.262185
O3	O	-4.002826	0.004789	-0.233017
O4	O	-3.502826	0.504789	0.266983
O5	O	-3.965681	-0.230571	-0.236449
O6	O	-3.465681	0.269429	0.263551
O7	O	-3.961078	-0.115244	-0.341415
O8	O	-3.461078	0.384756	0.158585
O9	O	-4.007462	-0.111336	-0.127324
O10	O	-3.507462	0.388664	0.372676
V11	V	-4.498923	-0.102109	-0.224568
V12	V	-3.998923	0.397891	0.275432
O13	O	-4.274012	-0.148644	-0.266874
O14	O	-3.774012	0.351356	0.233126
O15	O	-4.689679	-0.070145	-0.195509
O16	O	-4.189679	0.429855	0.304491
O17	O	-4.324606	0.011782	-0.225933
O18	O	-3.824606	0.511782	0.274067
O19	O	-4.628064	-0.223578	-0.229366
O20	O	-4.128064	0.276422	0.270634
O21	O	-4.623429	-0.107453	-0.335058
O22	O	-4.123429	0.392547	0.164942
O23	O	-4.329210	-0.103545	-0.120967
O24	O	-3.829210	0.396455	0.379033
C25	C	-3.810728	-0.258324	-0.232765
C26	C	-3.310728	0.241676	0.267235
C27	C	-3.852007	-0.351433	-0.232339
C28	C	-3.352007	0.148567	0.267661
C29	C	-3.949097	-0.640961	-0.161199
C30	C	-3.449097	-0.140961	0.338801
C31	C	-3.910284	-0.553472	-0.161587
C32	C	-3.410284	-0.053472	0.338413
C33	C	-3.983770	-0.577840	-0.301192
C34	C	-3.483770	-0.077840	0.198808
C35	C	-4.022568	-0.665327	-0.300803
C36	C	-3.522568	-0.165327	0.199197
C37	C	-4.005239	-0.696885	-0.230804
C38	C	-3.505239	-0.196885	0.269196
C39	C	-3.927628	-0.521909	-0.231581
C40	C	-3.427628	-0.021909	0.268419
C41	C	-3.885545	-0.427050	-0.232002
C42	C	-3.385545	0.072950	0.267998
C43	C	-4.047321	-0.791750	-0.230383
C44	C	-3.547321	-0.291750	0.269617
C45	C	-3.804854	-0.111212	-0.366658
C46	C	-3.304854	0.388788	0.133342
C47	C	-3.842398	-0.110792	-0.451354
C48	C	-3.342398	0.389208	0.048646
C49	C	-3.899367	-0.187334	-0.502199
C50	C	-3.399367	0.312666	-0.002199
C51	C	-3.934651	-0.186937	-0.581779
C52	C	-3.434651	0.313063	-0.081779
C53	C	-3.912950	-0.109998	-0.610513
C54	C	-3.412950	0.390002	-0.110513
C55	C	-3.855982	-0.033450	-0.559662
C56	C	-3.355982	0.466550	-0.059662
C57	C	-3.820713	-0.033848	-0.480083
C58	C	-3.320713	0.466152	0.019917
C59	C	-3.998218	-0.031845	-0.880592
C60	C	-3.498218	0.468155	-0.380592
C61	C	-4.033486	-0.031453	-0.960177
C62	C	-3.533486	0.468547	-0.460177
C63	C	-4.112156	-0.184934	-0.982288
C64	C	-3.612156	0.315066	-0.482288
C65	C	-4.076887	-0.185332	-0.902710
C66	C	-3.576887	0.314668	-0.402710
C67	C	-4.019932	-0.108785	-0.851866
C68	C	-3.519932	0.391215	-0.351866
C69	C	-3.981678	-0.109216	-0.765576
C70	C	-3.481678	0.390784	-0.265576
C71	C	-3.951190	-0.109566	-0.696801
C72	C	-3.451190	0.390434	-0.196801
C73	C	-4.142902	0.039530	-0.229615
C74	C	-3.642902	0.539530	0.270385
C75	C	-4.080860	0.132639	-0.230046
C76	C	-3.580860	0.632639	0.269954
C77	C	-4.148775	-0.107580	-0.095720
C78	C	-3.648775	0.392420	0.404280
C79	C	-4.090471	-0.107996	-0.011024
C80	C	-3.590471	0.392004	0.488976
H81	H	-3.981047	-0.249265	-0.623175
H82	H	-3.481047	0.250735	-0.123175
C83	C	-4.002870	-0.543124	-0.378185
C84	C	-3.502870	-0.043124	0.121815
H85	H	-3.971750	-0.483011	-0.368449
H86	H	-3.471750	0.016989	0.131551
H87	H	-3.907962	-0.559729	-0.404367
H88	H	-3.407962	-0.059729	0.095633
H89	H	-4.140722	-0.565208	-0.409235
H90	H	-3.640722	-0.065208	0.090765
H91	H	-3.934978	-0.666652	-0.104201
H92	H	-3.434978	-0.166652	0.395799
H93	H	-3.864566	-0.507941	-0.104907
H94	H	-3.364566	-0.007941	0.395093
C95	C	-4.084310	-0.726851	-0.377370
C96	C	-3.584310	-0.226851	0.122630
H97	H	-4.104906	-0.783473	-0.367111
H98	H	-3.604906	-0.283473	0.132889
H99	H	-4.209422	-0.720262	-0.408563
H100	H	-3.709422	-0.220262	0.091437
H101	H	-3.976648	-0.714779	-0.403665
H102	H	-3.476648	-0.214779	0.096335
C103	C	-4.100760	-0.269962	-0.871103
C104	C	-3.600760	0.230038	-0.371103
H105	H	-4.071581	-0.259236	-0.816426
H106	H	-3.571581	0.240764	-0.316426
H107	H	-4.239076	-0.304112	-0.891177
H108	H	-3.739076	0.195888	-0.391177
H109	H	-4.006318	-0.298747	-0.886197
H110	H	-3.506318	0.201253	-0.386197
H111	H	-4.015823	0.031204	-0.983568
H112	H	-3.515823	0.531204	-0.483568
H113	H	-3.951845	0.030484	-0.839204
H114	H	-3.451845	0.530484	-0.339204
H115	H	-3.917027	-0.249986	-0.478810
H116	H	-3.417027	0.250014	0.021190
C117	C	-4.174836	-0.269136	-1.038219
C118	C	-3.674836	0.230864	-0.538219
H119	H	-4.192759	-0.257885	-1.089730
H120	H	-3.692759	0.242115	-0.589730
H121	H	-4.068848	-0.298050	-1.027233
H122	H	-3.568848	0.201950	-0.527233
H123	H	-4.301603	-0.303414	-1.032206
H124	H	-3.801603	0.196586	-0.532206
C125	C	-3.832106	0.051182	-0.591267
C126	C	-3.332106	0.551182	-0.091267
H127	H	-3.861247	0.040458	-0.645942
H128	H	-3.361247	0.540458	-0.145942
H129	H	-3.926531	0.079969	-0.576172
H130	H	-3.426531	0.579969	-0.076172
H131	H	-3.693774	0.085328	-0.571190
H132	H	-3.193774	0.585328	-0.071190
C133	C	-3.758039	0.050348	-0.424154
C134	C	-3.258039	0.550348	0.075846
H135	H	-3.750146	0.096228	-0.452662
H136	H	-3.250146	0.596228	0.047338
H137	H	-3.859016	0.050701	-0.395139
H138	H	-3.359016	0.550701	0.104861
H139	H	-3.626259	0.056066	-0.390162
H140	H	-3.126259	0.556066	0.109838
