data_functionalizedCrystal
_audit_creation_method	'MofGen! by Chris Wilmer'
_symmetry_space_group_name_H-M	'P1'
_symmetry_Int_Tables_number	1
_symmetry_cell_setting	triclinic
loop_
_symmetry_equiv_pos_as_xyz
  x,y,z
_cell_length_a	12.594517
_cell_length_b	12.594516
_cell_length_c	16.959447
_cell_angle_alpha	90.025549
_cell_angle_beta	90.009558
_cell_angle_gamma	90.007702
loop_
_atom_site_label
_atom_site_type_symbol
_atom_site_fract_x
_atom_site_fract_y
_atom_site_fract_z
Zn1	Zn	1.627278	-0.423851	0.446751
Zn2	Zn	1.627188	-0.601854	0.314580
Zn3	Zn	1.449288	-0.423878	0.314607
Zn4	Zn	1.449277	-0.601775	0.446738
O5	O	1.538258	-0.512840	0.380669
O6	O	1.776212	-0.447486	0.429212
O7	O	1.603556	-0.578289	0.203973
O8	O	1.472941	-0.274928	0.332153
O9	O	1.776146	-0.578264	0.332106
O10	O	1.603709	-0.274909	0.429238
O11	O	1.472854	-0.447530	0.203993
O12	O	1.300341	-0.447454	0.332141
O13	O	1.472923	-0.578130	0.557351
O14	O	1.300333	-0.578155	0.429217
O15	O	1.603699	-0.447409	0.557360
O16	O	1.603546	-0.750790	0.332094
O17	O	1.472835	-0.750732	0.429190
C18	C	1.261717	-0.512799	0.380681
C19	C	1.143411	-0.512808	0.380705
C20	C	1.538209	-0.789381	0.380655
C21	C	1.538285	-0.907686	0.380676
C22	C	1.074185	-0.584035	0.433402
C23	C	1.003368	-0.486990	0.452842
C24	C	1.003429	-0.609933	0.361247
C25	C	1.074153	-0.415711	0.400183
C26	C	1.074220	-0.538719	0.308554
C27	C	1.003435	-0.441607	0.327967
C28	C	1.609461	-0.976932	0.327922
C29	C	1.635468	-1.047634	0.400064
C30	C	1.512411	-1.047783	0.308579
C31	C	1.564342	-0.976830	0.452856
C32	C	1.441239	-0.976972	0.361323
C33	C	1.467210	-1.047643	0.433515
C34	C	1.815879	-0.512881	0.380657
C35	C	1.934184	-0.512898	0.380652
C36	C	1.538320	-0.512758	0.586837
C37	C	1.538346	-0.512723	0.674694
C38	C	1.538336	-0.235219	0.380700
C39	C	1.538370	-0.116913	0.380713
C40	C	1.538257	-0.512845	0.175303
C41	C	1.538437	-0.512580	0.087447
C42	C	1.606410	-0.580785	0.715959
C43	C	1.470300	-0.444634	0.715982
C44	C	1.470318	-0.444602	0.798528
C45	C	1.538383	-0.512665	0.839793
C46	C	1.606429	-0.580758	0.798513
C47	C	1.402266	-0.376518	0.839815
C48	C	1.402281	-0.376485	0.922366
C49	C	1.470351	-0.444542	0.963633
C50	C	1.538401	-0.512638	0.922347
C51	C	1.606465	-0.580700	0.963612
C52	C	1.674521	-0.648791	0.922328
C53	C	1.674499	-0.648816	0.839779
C54	C	1.470373	-0.444517	1.046181
C55	C	1.606483	-0.580673	1.046166
H56	H	1.105253	-0.644154	0.478024
C57	C	1.681255	-0.655691	0.670547
C58	C	1.764818	-0.609607	0.613799
C59	C	1.839658	-0.684516	0.568384
C60	C	1.830934	-0.805511	0.579717
C61	C	1.747368	-0.851601	0.636467
C62	C	1.672529	-0.776691	0.681882
H63	H	1.771279	-0.520034	0.605408
H64	H	1.901519	-0.650396	0.526374
H65	H	1.886335	-0.860963	0.546098
H66	H	1.740907	-0.941174	0.644858
H67	H	1.610667	-0.810811	0.723892
H68	H	1.414879	-0.389227	0.682379
C69	C	1.749346	-0.723729	0.794376
C70	C	1.740622	-0.844720	0.805724
C71	C	1.815465	-0.919641	0.760321
C72	C	1.899031	-0.873570	0.703570
C73	C	1.907758	-0.752572	0.692220
C74	C	1.832916	-0.677652	0.737622
H75	H	1.678759	-0.878830	0.847736
H76	H	1.809004	-1.009212	0.768724
H77	H	1.954434	-0.929031	0.669961
H78	H	1.969622	-0.718462	0.650207
H79	H	1.839377	-0.588081	0.729219
H80	H	0.972357	-0.692032	0.344814
C81	C	1.327396	-0.301662	0.794421
C82	C	1.373523	-0.218120	0.737683
C83	C	1.298649	-0.143263	0.692282
C84	C	1.177649	-0.151947	0.703619
C85	C	1.131516	-0.235492	0.760359
C86	C	1.206389	-0.310349	0.805760
H87	H	1.463100	-0.211689	0.729288
H88	H	1.332801	-0.081417	0.650278
H89	H	1.122223	-0.096533	0.670010
H90	H	1.041939	-0.241924	0.768754
H91	H	1.172238	-0.372195	0.847763
H92	H	1.346866	-0.321040	0.955973
H93	H	1.661914	-0.636094	1.079758
C94	C	1.395519	-0.369630	1.091595
C95	C	1.274515	-0.378319	1.080246
C96	C	1.199657	-0.303427	1.125660
C97	C	1.245803	-0.219845	1.182424
C98	C	1.366813	-0.211152	1.193775
C99	C	1.441671	-0.286044	1.148361
H100	H	1.240350	-0.440195	1.038224
H101	H	1.110077	-0.309862	1.117256
H102	H	1.190388	-0.164405	1.216042
H103	H	1.400978	-0.149276	1.235797
H104	H	1.531251	-0.279608	1.156765
H105	H	1.729935	-0.704211	0.955937
H106	H	1.717574	-1.078676	0.416454
H107	H	1.105090	-0.333588	0.416687
C108	C	0.961320	-0.457420	0.535238
C109	C	0.989237	-0.527083	0.606901
C110	C	0.947196	-0.497519	0.689298
C111	C	0.877238	-0.398292	0.700033
C112	C	0.849317	-0.328623	0.628368
C113	C	0.891358	-0.358187	0.545971
H114	H	1.041028	-0.600542	0.598956
H115	H	0.967865	-0.549093	0.742349
H116	H	0.846116	-0.376408	0.761029
H117	H	0.797527	-0.255164	0.636313
H118	H	0.870689	-0.306613	0.492920
C119	C	0.961708	-0.360198	0.267739
C120	C	0.989869	-0.241833	0.276806
C121	C	0.948133	-0.160421	0.216587
C122	C	0.878235	-0.197372	0.147300
C123	C	0.850071	-0.315742	0.138230
C124	C	0.891807	-0.397155	0.198450
H125	H	1.041615	-0.214475	0.328099
H126	H	0.968983	-0.072795	0.223301
H127	H	0.847340	-0.137105	0.102722
H128	H	0.798325	-0.343101	0.086937
H129	H	0.870957	-0.484781	0.191735
C130	C	1.690780	-0.934973	0.267708
C131	C	1.653679	-0.865117	0.198488
C132	C	1.735001	-0.823156	0.138280
C133	C	1.853423	-0.851050	0.147293
C134	C	1.890530	-0.920910	0.216516
C135	C	1.809209	-0.962871	0.276724
H136	H	1.566011	-0.844465	0.191813
H137	H	1.707531	-0.771441	0.087036
H138	H	1.913622	-0.819988	0.102723
H139	H	1.978198	-0.941562	0.223191
H140	H	1.836678	-1.014586	0.327968
H141	H	1.105365	-0.560632	0.247578
H142	H	1.407055	-1.078495	0.478195
H143	H	1.359157	-0.945908	0.344911
C144	C	1.482787	-1.089883	0.226193
C145	C	1.375070	-1.060465	0.189201
C146	C	1.345456	-1.102561	0.106814
C147	C	1.423558	-1.174075	0.061419
C148	C	1.531281	-1.203497	0.098411
C149	C	1.560896	-1.161401	0.180798
H150	H	1.317248	-1.007522	0.222805
H151	H	1.265711	-1.080781	0.079430
H152	H	1.401636	-1.205237	0.000431
H153	H	1.589103	-1.256439	0.064807
H154	H	1.640640	-1.183181	0.208182
H155	H	1.586180	-0.945797	0.513895
