data_functionalizedCrystal
_audit_creation_method	'MofGen! by Chris Wilmer'
_symmetry_space_group_name_H-M	'P1'
_symmetry_Int_Tables_number	1
_symmetry_cell_setting	triclinic
loop_
_symmetry_equiv_pos_as_xyz
  x,y,z
_cell_length_a	19.077068
_cell_length_b	18.215407
_cell_length_c	18.215399
_cell_angle_alpha	90.016860
_cell_angle_beta	92.268164
_cell_angle_gamma	87.676929
loop_
_atom_site_label
_atom_site_type_symbol
_atom_site_fract_x
_atom_site_fract_y
_atom_site_fract_z
Zn1	Zn	-0.280281	-1.113285	-0.427814
Zn2	Zn	-0.397982	-1.108243	-0.309685
Zn3	Zn	-0.280295	-0.990216	-0.304769
Zn4	Zn	-0.397934	-0.985235	-0.432714
O5	O	-0.339123	-1.049245	-0.368746
O6	O	-0.295908	-1.215599	-0.412151
O7	O	-0.382397	-1.092561	-0.206050
O8	O	-0.181802	-1.010736	-0.316983
O9	O	-0.382383	-1.211895	-0.325362
O10	O	-0.181792	-1.101154	-0.407384
O11	O	-0.295932	-1.005848	-0.202438
O12	O	-0.295886	-0.886572	-0.321734
O13	O	-0.382301	-1.002246	-0.535048
O14	O	-0.382315	-0.882912	-0.415735
O15	O	-0.295862	-1.096324	-0.531447
O16	O	-0.496466	-1.087731	-0.330113
O17	O	-0.496431	-0.997358	-0.420503
C18	C	-0.339097	-0.858040	-0.368733
C19	C	-0.339103	-0.776240	-0.368746
C20	C	-0.384188	-0.509293	-0.417630
C21	C	-0.384184	-0.586152	-0.417627
C22	C	-0.294051	-0.589938	-0.319874
C23	C	-0.294059	-0.513080	-0.319875
C24	C	-0.339127	-0.472760	-0.368757
C25	C	-0.339114	-0.626476	-0.368753
C26	C	-0.339109	-0.709810	-0.368748
C27	C	-0.339133	-0.389421	-0.368761
C28	C	-0.521986	-1.041477	-0.376389
C29	C	-0.600216	-1.038221	-0.379684
C30	C	-0.636964	-1.083780	-0.334210
C31	C	-0.710469	-1.080722	-0.337313
C32	C	-0.747225	-1.032100	-0.385887
C33	C	-0.710473	-0.986539	-0.431366
C34	C	-0.636969	-0.989601	-0.428266
C35	C	-0.967059	-1.017896	-0.400204
C36	C	-1.040568	-1.014836	-0.403299
C37	C	-1.040559	-1.109020	-0.309247
C38	C	-0.967054	-1.112075	-0.306148
C39	C	-0.930308	-1.066516	-0.351630
N40	N	-0.822359	-1.028972	-0.389058
N41	N	-0.855175	-1.069649	-0.348461
C42	C	-0.155545	-1.057063	-0.361088
C43	C	-0.077315	-1.060395	-0.357825
C44	C	-0.339074	-1.049292	-0.560697
C45	C	-0.339054	-1.049312	-0.642495
C46	C	-0.339144	-0.241197	-0.368758
C47	C	-0.339138	-0.322996	-0.368764
C48	C	-0.294003	-1.098316	-0.828813
C49	C	-0.293982	-1.098326	-0.905671
C50	C	-0.383996	-1.000363	-0.909409
C51	C	-0.384012	-1.000351	-0.832552
C52	C	-0.339017	-1.049331	-0.792257
C53	C	-0.338980	-1.049354	-0.945971
C54	C	-0.338958	-1.049364	-1.029304
C55	C	-0.339037	-1.049321	-0.708918
C56	C	-0.339120	-1.049243	-0.177539
C57	C	-0.338943	-1.049373	-0.095733
H58	H	-0.257357	-0.622776	-0.280077
H59	H	-0.740405	-0.946953	-0.470919
H60	H	-0.257326	-1.138213	-0.935432
H61	H	-0.937128	-1.151666	-0.266595
Br62	Br	-0.232905	-0.463495	-0.253537
Br63	Br	-1.090432	-1.170850	-0.247529
Br64	Br	-0.445061	-0.933895	-0.964101
Br65	Br	-0.760338	-1.142560	-0.275600
H66	H	-0.420668	-0.960456	-0.802787
Br67	Br	-0.587087	-1.149763	-0.268278
H68	H	-1.070493	-0.975251	-0.442866
H69	H	-0.420878	-0.615894	-0.457423
Br70	Br	-0.445352	-0.454574	-0.483969
H71	H	-0.937146	-0.980799	-0.437235
Br72	Br	-0.232936	-1.164788	-0.774128
Br73	Br	-0.587096	-0.927773	-0.489988
