data_functionalizedCrystal
_audit_creation_method	'MofGen! by Chris Wilmer'
_symmetry_space_group_name_H-M	'P1'
_symmetry_Int_Tables_number	1
_symmetry_cell_setting	triclinic
loop_
_symmetry_equiv_pos_as_xyz
  x,y,z
_cell_length_a	6.817900
_cell_length_b	16.255699
_cell_length_c	16.255661
_cell_angle_alpha	95.343798
_cell_angle_beta	103.488922
_cell_angle_gamma	103.489404
loop_
_atom_site_label
_atom_site_type_symbol
_atom_site_fract_x
_atom_site_fract_y
_atom_site_fract_z
V1	V	-4.026708	-0.117774	-0.264153
O2	O	-4.014191	0.004956	-0.258836
O3	O	-3.978255	-0.232849	-0.262625
O4	O	-3.978270	-0.116271	-0.379233
O5	O	-4.014176	-0.112429	-0.141420
V6	V	-4.510347	-0.103057	-0.249440
O7	O	-4.287710	-0.150055	-0.296429
O8	O	-4.699542	-0.070776	-0.217164
O9	O	-4.335593	0.012018	-0.250969
O10	O	-4.640261	-0.225787	-0.254757
O11	O	-4.640276	-0.108402	-0.372173
O12	O	-4.335579	-0.104560	-0.134360
C13	C	-3.823245	-0.260892	-0.258529
C14	C	-3.864916	-0.354970	-0.258046
C15	C	-3.775496	-0.577782	-0.252513
C16	C	-3.859152	-0.625224	-0.184316
C17	C	-3.941316	-0.527222	-0.257203
C18	C	-3.931935	-0.647410	-0.324549
C19	C	-4.015103	-0.693609	-0.256392
C20	C	-4.024394	-0.573415	-0.188954
C21	C	-4.097180	-0.595606	-0.329250
C22	C	-4.180955	-0.643023	-0.261038
C23	C	-3.898803	-0.431370	-0.257670
C24	C	-4.057627	-0.789458	-0.255920
C25	C	-3.823262	-0.112184	-0.407274
C26	C	-3.864942	-0.111717	-0.501354
C27	C	-3.775498	-0.106134	-0.724159
C28	C	-3.931912	-0.178190	-0.793808
C29	C	-3.941326	-0.110841	-0.673600
C30	C	-3.859203	-0.037959	-0.771587
C31	C	-4.015094	-0.109990	-0.839982
C32	C	-4.097222	-0.182961	-0.742019
C33	C	-4.024451	-0.042667	-0.719783
C34	C	-4.181001	-0.114744	-0.789412
C35	C	-3.898825	-0.111331	-0.577752
C36	C	-4.057612	-0.109506	-0.935829
C37	C	-4.153946	0.040057	-0.255062
C38	C	-4.091513	0.134133	-0.255550
C39	C	-4.153929	-0.108650	-0.106315
C40	C	-4.091487	-0.109113	-0.012234
H41	H	-3.758964	-0.638672	-0.123033
H42	H	-4.063048	0.014633	-0.687537
C43	C	-3.723814	0.044831	-0.789734
C44	C	-3.567744	0.039864	-0.843718
C45	C	-3.432341	0.122649	-0.861863
C46	C	-3.453009	0.210401	-0.826023
C47	C	-3.609086	0.215372	-0.772035
C48	C	-3.744489	0.132587	-0.753890
H49	H	-3.552438	-0.025099	-0.870252
H50	H	-3.316803	0.118969	-0.901829
H51	H	-3.352776	0.271684	-0.839455
H52	H	-3.624392	0.280334	-0.745501
H53	H	-3.860027	0.136267	-0.713924
C54	C	-4.076594	-0.530038	-0.111456
C55	C	-4.046419	-0.432406	-0.097554
C56	C	-4.098614	-0.389027	-0.020058
C57	C	-4.180983	-0.443280	0.043536
C58	C	-4.211161	-0.540917	0.029635
C59	C	-4.158967	-0.584296	-0.047861
H60	H	-3.985441	-0.392240	-0.144631
H61	H	-4.076273	-0.316749	-0.009768
H62	H	-4.219621	-0.411168	0.100903
H63	H	-4.272140	-0.581084	0.076713
H64	H	-4.181307	-0.656575	-0.058151
H65	H	-3.893237	-0.235487	-0.826031
H66	H	-4.352788	-0.671366	-0.264621
H67	H	-4.197293	-0.582137	-0.390532
C68	C	-4.232601	-0.265842	-0.724035
C69	C	-4.382750	-0.332932	-0.798979
C70	C	-4.518115	-0.415813	-0.780992
C71	C	-4.503332	-0.431604	-0.688061
C72	C	-4.353176	-0.364512	-0.613111
C73	C	-4.217811	-0.281631	-0.631097
H74	H	-4.393699	-0.321244	-0.867777
H75	H	-4.629270	-0.465478	-0.836475
H76	H	-4.603538	-0.492957	-0.674746
H77	H	-4.342227	-0.376199	-0.544312
H78	H	-4.106656	-0.231965	-0.575614
C79	C	-3.879646	-0.690918	-0.401955
C80	C	-3.655504	-0.665886	-0.412283
C81	C	-3.603196	-0.709388	-0.489683
C82	C	-3.775029	-0.777923	-0.556756
C83	C	-3.999185	-0.802958	-0.546431
C84	C	-4.051494	-0.759455	-0.469030
H85	H	-3.528290	-0.615150	-0.362629
H86	H	-3.437259	-0.690855	-0.497327
H87	H	-3.736307	-0.810126	-0.614053
H88	H	-4.126399	-0.853694	-0.596084
H89	H	-4.217430	-0.777989	-0.461387
H90	H	-3.603745	-0.102587	-0.695670
H91	H	-3.603670	-0.549269	-0.248827
H92	H	-4.352873	-0.118403	-0.817768
