data_functionalizedCrystal
_audit_creation_method	'MofGen! by Chris Wilmer'
_symmetry_space_group_name_H-M	'P1'
_symmetry_Int_Tables_number	1
_symmetry_cell_setting	triclinic
loop_
_symmetry_equiv_pos_as_xyz
  x,y,z
_cell_length_a	17.077404
_cell_length_b	25.639239
_cell_length_c	25.639233
_cell_angle_alpha	90.018747
_cell_angle_beta	90.013303
_cell_angle_gamma	90.038911
loop_
_atom_site_label
_atom_site_type_symbol
_atom_site_fract_x
_atom_site_fract_y
_atom_site_fract_z
Zn1	Zn	1.199920	-0.208211	0.295619
Zn2	Zn	1.533254	0.125122	0.628952
Zn3	Zn	1.866587	0.458455	0.962285
Zn4	Zn	1.199805	-0.295630	0.208183
Zn5	Zn	1.533139	0.037703	0.541516
Zn6	Zn	1.866472	0.371037	0.874850
Zn7	Zn	1.068666	-0.208211	0.208196
Zn8	Zn	1.402000	0.125123	0.541530
Zn9	Zn	1.735333	0.458456	0.874863
Zn10	Zn	1.068584	-0.295618	0.295586
Zn11	Zn	1.401917	0.037715	0.628920
Zn12	Zn	1.735251	0.371049	0.962253
O13	O	1.134244	-0.251918	0.251896
O14	O	1.467577	0.081416	0.585229
O15	O	1.800911	0.414749	0.918563
O16	O	1.309752	-0.219813	0.284028
O17	O	1.643085	0.113520	0.617361
O18	O	1.976419	0.446854	0.950695
O19	O	1.182396	-0.284039	0.135020
O20	O	1.515729	0.049295	0.468353
O21	O	1.849063	0.382628	0.801686
O22	O	1.086160	-0.135046	0.219812
O23	O	1.419493	0.198288	0.553145
O24	O	1.752827	0.531621	0.886479
O25	O	1.309668	-0.284039	0.219789
O26	O	1.643001	0.049294	0.553123
O27	O	1.976334	0.382628	0.886456
O28	O	1.182592	-0.135046	0.284041
O29	O	1.515925	0.198287	0.617374
O30	O	1.849258	0.531621	0.950708
O31	O	1.086049	-0.219812	0.135029
O32	O	1.419382	0.113521	0.468363
O33	O	1.752715	0.446855	0.801696
O34	O	0.958809	-0.219800	0.219781
O35	O	1.292142	0.113533	0.553114
O36	O	1.625475	0.446866	0.886447
O37	O	1.086020	-0.284018	0.368756
O38	O	1.419353	0.049315	0.702089
O39	O	1.752686	0.382648	1.035423
O40	O	0.958748	-0.284018	0.283986
O41	O	1.292081	0.049316	0.617319
O42	O	1.625415	0.382649	0.950653
O43	O	1.182512	-0.219801	0.368780
O44	O	1.515845	0.113532	0.702113
O45	O	1.849179	0.446866	1.035446
O46	O	1.182316	-0.368794	0.219758
O47	O	1.515649	-0.035460	0.553092
O48	O	1.848983	0.297873	0.886425
O49	O	1.085908	-0.368785	0.283973
O50	O	1.419242	-0.035451	0.617306
O51	O	1.752575	0.297882	0.950640
C52	C	0.930296	-0.251908	0.251882
C53	C	1.263630	0.081425	0.585215
C54	C	1.596963	0.414759	0.918548
C55	C	0.843046	-0.251917	0.251888
C56	C	1.176380	0.081417	0.585221
C57	C	1.509713	0.414750	0.918555
C58	C	0.802045	-0.285405	0.285266
C59	C	1.135379	0.047928	0.618599
C60	C	1.468712	0.381262	0.951933
C61	C	0.720065	-0.285406	0.285274
C62	C	1.053398	0.047927	0.618608
C63	C	1.386731	0.381260	0.951941
C64	C	0.679087	-0.251921	0.251902
C65	C	1.012420	0.081412	0.585235
C66	C	1.345754	0.414746	0.918568
C67	C	0.720094	-0.218429	0.218522
C68	C	1.053427	0.114904	0.551855
C69	C	1.386761	0.448238	0.885189
C70	C	0.802073	-0.218425	0.218517
C71	C	1.135406	0.114908	0.551850
C72	C	1.468740	0.448241	0.885183
C73	C	0.549224	-0.218439	0.218535
C74	C	0.882557	0.114894	0.551868
C75	C	1.215891	0.448227	0.885201
C76	C	0.467239	-0.218443	0.218539
C77	C	0.800573	0.114890	0.551872
C78	C	1.133906	0.448224	0.885206
C79	C	0.467216	-0.285420	0.285292
C80	C	0.800549	0.047913	0.618625
C81	C	1.133882	0.381247	0.951959
C82	C	0.549195	-0.285417	0.285287
C83	C	0.882528	0.047917	0.618620
C84	C	1.215861	0.381250	0.951953
C85	C	0.590196	-0.251925	0.251906
C86	C	0.923529	0.081408	0.585240
C87	C	1.256863	0.414742	0.918573
C88	C	1.134112	-0.387760	0.251872
C89	C	1.467445	-0.054427	0.585205
C90	C	1.800779	0.278907	0.918539
C91	C	1.134127	-0.445874	0.251879
C92	C	1.467461	-0.112541	0.585213
C93	C	1.800794	0.220793	0.918546
C94	C	1.184575	-0.806229	0.218516
C95	C	1.517908	-0.472896	0.551850
C96	C	1.851241	-0.139563	0.885183
C97	C	1.184605	-0.860834	0.218523
C98	C	1.517938	-0.527500	0.551857
C99	C	1.851272	-0.194167	0.885190
O100	O	1.227360	-0.889064	0.190131
O101	O	1.560693	-0.555730	0.523464
O102	O	1.894027	-0.222397	0.856797
N103	N	1.134382	-0.888157	0.251931
N104	N	1.467715	-0.554823	0.585264
N105	N	1.801049	-0.221490	0.918597
C106	C	1.084131	-0.860872	0.285337
C107	C	1.417464	-0.527539	0.618670
C108	C	1.750798	-0.194206	0.952004
O109	O	1.041416	-0.889127	0.313754
O110	O	1.374749	-0.555793	0.647087
O111	O	1.708082	-0.222460	0.980420
C112	C	1.084105	-0.806269	0.285332
C113	C	1.417438	-0.472936	0.618666
C114	C	1.750772	-0.139602	0.951999
C115	C	1.134326	-0.778949	0.251919
C116	C	1.467659	-0.445616	0.585252
C117	C	1.800992	-0.112282	0.918586
C118	C	1.234792	-0.778909	0.185106
C119	C	1.568125	-0.445576	0.518439
C120	C	1.901458	-0.112242	0.851773
C121	C	1.234760	-0.724309	0.185099
C122	C	1.568093	-0.390975	0.518432
C123	C	1.901427	-0.057642	0.851765
C124	C	1.184511	-0.697028	0.218501
C125	C	1.517845	-0.363695	0.551835
C126	C	1.851178	-0.030362	0.885168
C127	C	1.134294	-0.724348	0.251911
C128	C	1.467627	-0.391015	0.585245
C129	C	1.800961	-0.057682	0.918578
C130	C	1.033859	-0.778986	0.318741
C131	C	1.367192	-0.445653	0.652074
C132	C	1.700525	-0.112319	0.985408
C133	C	1.033837	-0.724379	0.318734
C134	C	1.367171	-0.391046	0.652067
C135	C	1.700504	-0.057712	0.985400
C136	C	1.084058	-0.697059	0.285320
C137	C	1.417391	-0.363725	0.618654
C138	C	1.750725	-0.030392	0.951987
C139	C	1.084014	-0.642468	0.285306
C140	C	1.417347	-0.309134	0.618640
C141	C	1.750680	0.024199	0.951973
N142	N	1.134237	-0.615145	0.251899
N143	N	1.467570	-0.281811	0.585232
N144	N	1.800903	0.051522	0.918566
C145	C	1.184485	-0.642425	0.218496
C146	C	1.517819	-0.309092	0.551830
C147	C	1.851152	0.024242	0.885163
C148	C	1.084190	-0.975543	0.285345
C149	C	1.417523	-0.642210	0.618678
C150	C	1.750857	-0.308876	0.952012
C151	C	1.084211	-1.030145	0.285348
C152	C	1.417545	-0.696812	0.618681
C153	C	1.750878	-0.363479	0.952014
C154	C	1.184687	-1.030103	0.218534
C155	C	1.518020	-0.696769	0.551868
C156	C	1.851353	-0.363436	0.885201
C157	C	1.184661	-0.975499	0.218530
C158	C	1.517994	-0.642166	0.551863
C159	C	1.851328	-0.308833	0.885196
C160	C	1.134413	-0.948220	0.251938
C161	C	1.467746	-0.614887	0.585271
C162	C	1.801080	-0.281553	0.918604
C163	C	1.184415	-0.527760	0.218483
C164	C	1.517748	-0.194426	0.551816
C165	C	1.851081	0.138907	0.885149
C166	C	1.184376	-0.473154	0.218477
C167	C	1.517710	-0.139821	0.551810
C168	C	1.851043	0.193512	0.885143
C169	C	1.083904	-0.473202	0.285292
C170	C	1.417238	-0.139869	0.618625
C171	C	1.750571	0.193465	0.951958
C172	C	1.083939	-0.527802	0.285296
C173	C	1.417273	-0.194469	0.618629
C174	C	1.750606	0.138864	0.951963
C175	C	1.134201	-0.555080	0.251890
C176	C	1.467534	-0.221747	0.585223
C177	C	1.800868	0.111587	0.918557
O178	O	1.041283	-0.614203	0.313686
O179	O	1.374616	-0.280870	0.647020
O180	O	1.707949	0.052464	0.980353
O181	O	1.227201	-0.614164	0.190090
O182	O	1.560534	-0.280831	0.523423
O183	O	1.893867	0.052503	0.856756
C184	C	1.338988	-0.251927	0.251911
C185	C	1.672322	0.081406	0.585244
C186	C	2.005655	0.414739	0.918578
C187	C	1.426238	-0.251932	0.251917
C188	C	1.759571	0.081402	0.585250
C189	C	2.092905	0.414735	0.918584
C190	C	1.134269	-0.251908	0.388269
C191	C	1.467603	0.081425	0.721602
C192	C	1.800936	0.414758	1.054936
C193	C	1.134280	-0.251904	0.446383
C194	C	1.467614	0.081429	0.779716
C195	C	1.800947	0.414762	1.113050
C196	C	1.134398	-0.115544	0.251932
C197	C	1.467731	0.217789	0.585265
C198	C	1.801065	0.551122	0.918598
C199	C	1.134464	-0.057430	0.251947
C200	C	1.467797	0.275903	0.585280
C201	C	1.801130	0.609236	0.918613
C202	C	1.134264	-0.251889	0.116054
C203	C	1.467597	0.081444	0.449387
C204	C	1.800931	0.414778	0.782720
C205	C	1.134405	-0.251746	0.057940
C206	C	1.467739	0.081588	0.391273
C207	C	1.801072	0.414921	0.724606
C208	C	1.184587	-0.218367	0.806764
C209	C	1.517921	0.114966	1.140098
C210	C	1.851254	0.448300	1.473431
C211	C	1.184597	-0.218353	0.861369
C212	C	1.517930	0.114981	1.194702
C213	C	1.851264	0.448314	1.528035
O214	O	1.227307	-0.189900	0.889621
O215	O	1.560640	0.143434	1.222954
O216	O	1.893973	0.476767	1.556287
N217	N	1.134367	-0.251782	0.888666
N218	N	1.467700	0.081551	1.221999
N219	N	1.801033	0.414885	1.555333
C220	C	1.084118	-0.285224	0.861356
C221	C	1.417451	0.048109	1.194689
C222	C	1.750784	0.381443	1.528023
O223	O	1.041393	-0.313656	0.889588
O224	O	1.374727	0.019677	1.222922
O225	O	1.708060	0.353010	1.556255
C226	C	1.084105	-0.285235	0.806753
C227	C	1.417438	0.048098	1.140086
C228	C	1.750771	0.381431	1.473419
C229	C	1.134344	-0.251808	0.779458
C230	C	1.467677	0.081526	1.112792
C231	C	1.801011	0.414859	1.446125
C232	C	1.234822	-0.184942	0.779470
C233	C	1.568155	0.148391	1.112803
C234	C	1.901489	0.481725	1.446137
C235	C	1.234813	-0.184957	0.724869
C236	C	1.568146	0.148376	1.058203
C237	C	1.901480	0.481709	1.391536
C238	C	1.184570	-0.218398	0.697563
C239	C	1.517903	0.114936	1.030897
C240	C	1.851236	0.448269	1.364230
C241	C	1.134335	-0.251823	0.724858
C242	C	1.467668	0.081510	1.058191
C243	C	1.801002	0.414844	1.391524
C244	C	1.033852	-0.318674	0.779443
C245	C	1.367186	0.014659	1.112777
C246	C	1.700519	0.347992	1.446110
C247	C	1.033843	-0.318683	0.724836
C248	C	1.367176	0.014651	1.058170
C249	C	1.700510	0.347984	1.391503
C250	C	1.084082	-0.285255	0.697542
C251	C	1.417416	0.048078	1.030875
C252	C	1.750749	0.381412	1.364209
C253	C	1.084083	-0.285279	0.642951
C254	C	1.417416	0.048054	0.976284
C255	C	1.750749	0.381388	1.309618
N256	N	1.134313	-0.251850	0.615654
N257	N	1.467646	0.081484	0.948987
N258	N	1.800980	0.414817	1.282320
C259	C	1.184557	-0.218409	0.642960
C260	C	1.517890	0.114924	0.976293
C261	C	1.851223	0.448258	1.309627
C262	C	1.084148	-0.285197	0.976027
C263	C	1.417481	0.048137	1.309360
C264	C	1.750815	0.381470	1.642693
C265	C	1.084164	-0.285188	1.030629
C266	C	1.417498	0.048145	1.363962
C267	C	1.750831	0.381478	1.697296
C268	C	1.184643	-0.218316	1.030638
C269	C	1.517976	0.115017	1.363971
C270	C	1.851310	0.448350	1.697305
C271	C	1.184630	-0.218328	0.976035
C272	C	1.517963	0.115006	1.309368
C273	C	1.851297	0.448339	1.642701
C274	C	1.134378	-0.251768	0.948729
C275	C	1.467712	0.081566	1.282063
C276	C	1.801045	0.414899	1.615396
C277	C	1.184535	-0.218444	0.528295
C278	C	1.517868	0.114889	0.861628
C279	C	1.851201	0.448223	1.194961
C280	C	1.184524	-0.218464	0.473689
C281	C	1.517857	0.114869	0.807023
C282	C	1.851190	0.448203	1.140356
C283	C	1.084043	-0.285334	0.473685
C284	C	1.417376	0.048000	0.807018
C285	C	1.750709	0.381333	1.140352
C286	C	1.084056	-0.285316	0.528286
C287	C	1.417389	0.048017	0.861619
C288	C	1.750723	0.381351	1.194952
C289	C	1.134305	-0.251867	0.555589
C290	C	1.467638	0.081466	0.888923
C291	C	1.800971	0.414800	1.222256
O292	O	1.041393	-0.313716	0.614664
O293	O	1.374726	0.019618	0.947997
O294	O	1.708059	0.352951	1.281331
O295	O	1.227267	-0.189977	0.614721
O296	O	1.560600	0.143357	0.948054
O297	O	1.893933	0.476690	1.281388
H298	H	1.225272	-0.450912	0.191266
H299	H	1.558605	-0.117579	0.524599
H300	H	1.891938	0.215755	0.857932
F301	F	1.288280	-0.807935	0.149552
F302	F	1.621613	-0.474601	0.482885
F303	F	1.954946	-0.141268	0.816219
F304	F	0.592859	-0.182793	0.183008
F305	F	0.926192	0.150541	0.516341
F306	F	1.259525	0.483874	0.849675
H307	H	0.992920	-0.702171	0.345940
H308	H	1.326254	-0.368837	0.679273
H309	H	1.659587	-0.035504	1.012607
H310	H	0.835455	-0.191153	0.191340
H311	H	1.168788	0.142180	0.524673
H312	H	1.502122	0.475514	0.858006
H313	H	0.433877	-0.191170	0.191370
H314	H	0.767211	0.142163	0.524704
H315	H	1.100544	0.475496	0.858037
F316	F	0.845650	-0.321048	0.320784
F317	F	1.178983	0.012286	0.654117
F318	F	1.512316	0.345619	0.987450
H319	H	0.686685	-0.312676	0.312453
H320	H	1.020019	0.020657	0.645787
H321	H	1.353352	0.353990	0.979120
H322	H	1.225344	-0.549963	0.191282
H323	H	1.558677	-0.216629	0.524615
H324	H	1.892011	0.116704	0.857948
H325	H	0.686723	-0.191162	0.191352
H326	H	1.020057	0.142171	0.524685
H327	H	1.353390	0.475504	0.858018
H328	H	1.275656	-0.702068	0.157892
H329	H	1.608990	-0.368734	0.491226
H330	H	1.942323	-0.035401	0.824559
F331	F	0.592805	-0.321058	0.320802
F332	F	0.926138	0.012275	0.654136
F333	F	1.259472	0.345608	0.987469
F334	F	1.238112	-0.946428	0.182967
F335	F	1.571446	-0.613095	0.516301
F336	F	1.904779	-0.279761	0.849634
F337	F	0.423579	-0.321059	0.320824
F338	F	0.756912	0.012275	0.654157
F339	F	1.090245	0.345608	0.987491
F340	F	1.238165	-1.059146	0.182983
F341	F	1.571499	-0.725813	0.516317
F342	F	1.904832	-0.392479	0.849650
F343	F	1.030751	-1.059216	0.320905
F344	F	1.364084	-0.725882	0.654238
F345	F	1.697418	-0.392549	0.987571
H346	H	1.043048	-0.550048	0.312505
H347	H	1.376381	-0.216714	0.645839
H348	H	1.709715	0.116619	0.979172
H349	H	1.043266	-0.953335	0.312548
H350	H	1.376599	-0.620001	0.645882
H351	H	1.709932	-0.286668	0.979215
F352	F	0.980412	-0.808050	0.354309
F353	F	1.313746	-0.474717	0.687642
F354	F	1.647079	-0.141384	1.020976
H355	H	1.042990	-0.450982	0.312486
H356	H	1.376323	-0.117648	0.645819
H357	H	1.709656	0.215685	0.979153
H358	H	1.225437	-0.191243	0.451469
H359	H	1.558771	0.142091	0.784802
H360	H	1.892104	0.475424	1.118135
H361	H	1.225449	-0.191205	0.550519
H362	H	1.558783	0.142128	0.883852
H363	H	1.892116	0.475462	1.217185
F364	F	1.288281	-0.149376	0.695827
F365	F	1.621614	0.183957	1.029161
F366	F	1.954948	0.517291	1.362494
F367	F	1.288310	-0.149351	0.808523
F368	F	1.621643	0.183982	1.141856
F369	F	1.954976	0.517316	1.475190
H370	H	1.225538	-0.191107	0.953815
H371	H	1.558871	0.142226	1.287148
H372	H	1.892205	0.475560	1.620482
F373	F	1.030572	-0.320921	0.444614
F374	F	1.363905	0.012412	0.777948
F375	F	1.697238	0.345745	1.111281
H376	H	1.225552	-0.191086	1.052881
H377	H	1.558886	0.142247	1.386214
H378	H	1.892219	0.475581	1.719547
F379	F	1.030704	-0.320774	1.059672
F380	F	1.364037	0.012559	1.393005
F381	F	1.697371	0.345893	1.726338
H382	H	1.043226	-0.312430	0.953798
H383	H	1.376560	0.020903	1.287131
H384	H	1.709893	0.354236	1.620465
H385	H	0.992942	-0.345895	0.801657
H386	H	1.326275	-0.012561	1.134991
H387	H	1.659608	0.320772	1.468324
F388	F	0.980355	-0.354274	0.695779
F389	F	1.313689	-0.020941	1.029113
F390	F	1.647022	0.312393	1.362446
H391	H	1.043155	-0.312540	0.550510
H392	H	1.376488	0.020793	0.883843
H393	H	1.709821	0.354126	1.217177
