data_functionalizedCrystal
_audit_creation_method	'MofGen! by Chris Wilmer'
_symmetry_space_group_name_H-M	'P1'
_symmetry_Int_Tables_number	1
_symmetry_cell_setting	triclinic
loop_
_symmetry_equiv_pos_as_xyz
  x,y,z
_cell_length_a	27.731994
_cell_length_b	27.732048
_cell_length_c	26.210047
_cell_angle_alpha	90.024710
_cell_angle_beta	89.985111
_cell_angle_gamma	97.368405
loop_
_atom_site_label
_atom_site_type_symbol
_atom_site_fract_x
_atom_site_fract_y
_atom_site_fract_z
O1	O	0.640955	-0.057401	-0.042362
O2	O	0.890955	0.192599	0.207638
O3	O	1.140955	0.442599	0.457638
O4	O	1.390955	0.692599	0.707638
O5	O	0.500157	-0.066174	-0.042379
O6	O	0.750157	0.183826	0.207621
O7	O	1.000157	0.433826	0.457621
O8	O	1.250157	0.683826	0.707621
O9	O	0.574929	0.008610	-0.042360
O10	O	0.824929	0.258610	0.207640
O11	O	1.074929	0.508610	0.457640
O12	O	1.324929	0.758610	0.707640
O13	O	0.566183	-0.132185	-0.042381
O14	O	0.816183	0.117815	0.207619
O15	O	1.066183	0.367815	0.457619
O16	O	1.316183	0.617815	0.707619
O17	O	0.574902	0.008630	0.042498
O18	O	0.824902	0.258630	0.292498
O19	O	1.074902	0.508630	0.542498
O20	O	1.324902	0.758630	0.792498
O21	O	0.500130	-0.066154	0.042479
O22	O	0.750130	0.183846	0.292479
O23	O	1.000130	0.433846	0.542479
O24	O	1.250130	0.683846	0.792479
O25	O	0.640928	-0.057381	0.042496
O26	O	0.890928	0.192619	0.292496
O27	O	1.140928	0.442619	0.542496
O28	O	1.390928	0.692619	0.792496
Cu29	Cu	0.570527	-0.061765	0.050236
Cu30	Cu	0.820527	0.188235	0.300236
Cu31	Cu	1.070527	0.438235	0.550236
Cu32	Cu	1.320527	0.688235	0.800236
Cu33	Cu	0.570559	-0.061790	-0.050119
Cu34	Cu	0.820559	0.188210	0.199881
Cu35	Cu	1.070559	0.438210	0.449881
Cu36	Cu	1.320559	0.688210	0.699881
O37	O	0.566156	-0.132165	0.042477
O38	O	0.816156	0.117835	0.292477
O39	O	1.066156	0.367835	0.542477
O40	O	1.316156	0.617835	0.792477
C41	C	0.482137	-0.065984	0.000047
C42	C	0.732137	0.184016	0.250047
C43	C	0.982137	0.434016	0.500047
C44	C	1.232137	0.684016	0.750047
C45	C	0.428480	-0.065442	0.000041
C46	C	0.678480	0.184558	0.250041
C47	C	0.928480	0.434558	0.500041
C48	C	1.178480	0.684558	0.750041
C49	C	0.095747	-0.062015	0.046317
C50	C	0.345747	0.187985	0.296317
C51	C	0.595747	0.437985	0.546317
C52	C	0.845747	0.687985	0.796317
C53	C	-0.105911	-0.059953	0.046324
C54	C	0.144089	0.190047	0.296324
C55	C	0.394089	0.440047	0.546324
C56	C	0.644089	0.690047	0.796324
O57	O	-0.131996	-0.059656	0.085663
O58	O	0.118004	0.190344	0.335663
O59	O	0.368004	0.440344	0.585663
O60	O	0.618004	0.690344	0.835663
N61	N	-0.131111	-0.059708	0.000067
N62	N	0.118889	0.190292	0.250067
N63	N	0.368889	0.440292	0.500067
N64	N	0.618889	0.690292	0.750067
C65	C	-0.105893	-0.059976	-0.046193
C66	C	0.144107	0.190024	0.203807
C67	C	0.394107	0.440024	0.453807
C68	C	0.644107	0.690024	0.703807
O69	O	-0.131954	-0.059715	-0.085537
O70	O	0.118046	0.190285	0.164463
O71	O	0.368046	0.440285	0.414463
O72	O	0.618046	0.690285	0.664463
C73	C	0.095764	-0.062034	-0.046199
C74	C	0.345764	0.187966	0.203801
C75	C	0.595764	0.437966	0.453801
C76	C	0.845764	0.687966	0.703801
C77	C	0.120961	-0.062283	0.000060
C78	C	0.370961	0.187717	0.250060
C79	C	0.620961	0.437717	0.500060
C80	C	0.870961	0.687717	0.750060
C81	C	0.120944	-0.062264	0.092573
C82	C	0.370944	0.187736	0.342573
C83	C	0.620944	0.437736	0.592573
C84	C	0.870944	0.687736	0.842573
C85	C	0.171355	-0.062782	0.092571
C86	C	0.421355	0.187218	0.342571
C87	C	0.671355	0.437218	0.592571
C88	C	0.921355	0.687218	0.842571
C89	C	0.196569	-0.063051	0.046313
C90	C	0.446569	0.186949	0.296313
C91	C	0.696569	0.436949	0.546313
C92	C	0.946569	0.686949	0.796313
C93	C	0.171372	-0.062801	0.000058
C94	C	0.421372	0.187199	0.250058
C95	C	0.671372	0.437199	0.500058
C96	C	0.921372	0.687199	0.750058
C97	C	0.120982	-0.062298	-0.092459
C98	C	0.370982	0.187702	0.157541
C99	C	0.620982	0.437702	0.407541
C100	C	0.870982	0.687702	0.657541
C101	C	0.171400	-0.062811	-0.092457
C102	C	0.421400	0.187189	0.157543
C103	C	0.671400	0.437189	0.407543
C104	C	0.921400	0.687189	0.657543
C105	C	0.196597	-0.063061	-0.046197
C106	C	0.446597	0.186939	0.203803
C107	C	0.696597	0.436939	0.453803
C108	C	0.946597	0.686939	0.703803
C109	C	0.246998	-0.063588	-0.046201
C110	C	0.496998	0.186412	0.203799
C111	C	0.746998	0.436412	0.453799
C112	C	0.996998	0.686412	0.703799
N113	N	0.272198	-0.063833	0.000055
N114	N	0.522198	0.186167	0.250055
N115	N	0.772198	0.436167	0.500055
N116	N	1.022198	0.686167	0.750055
C117	C	0.246984	-0.063564	0.046312
C118	C	0.496984	0.186436	0.296312
C119	C	0.746984	0.436436	0.546312
C120	C	0.996984	0.686436	0.796312
C121	C	-0.211767	-0.058896	-0.046187
C122	C	0.038233	0.191104	0.203813
C123	C	0.288233	0.441104	0.453813
C124	C	0.538233	0.691104	0.703813
C125	C	-0.262181	-0.058382	-0.046186
C126	C	-0.012181	0.191618	0.203814
C127	C	0.237819	0.441618	0.453814
C128	C	0.487819	0.691618	0.703814
C129	C	-0.262195	-0.058359	0.046331
C130	C	-0.012195	0.191641	0.296331
C131	C	0.237805	0.441641	0.546331
C132	C	0.487805	0.691641	0.796331
C133	C	-0.211780	-0.058876	0.046329
C134	C	0.038220	0.191124	0.296329
C135	C	0.288220	0.441124	0.546329
C136	C	0.538220	0.691124	0.796329
C137	C	-0.186566	-0.059141	0.000069
C138	C	0.063434	0.190859	0.250069
C139	C	0.313434	0.440859	0.500069
C140	C	0.563434	0.690859	0.750069
C141	C	0.352851	-0.064653	0.046305
C142	C	0.602851	0.185347	0.296305
C143	C	0.852851	0.435347	0.546305
C144	C	1.102851	0.685347	0.796305
C145	C	0.403266	-0.065173	0.046298
C146	C	0.653266	0.184827	0.296298
C147	C	0.903266	0.434827	0.546298
C148	C	1.153266	0.684827	0.796298
C149	C	0.403276	-0.065194	-0.046218
C150	C	0.653276	0.184806	0.203782
C151	C	0.903276	0.434806	0.453782
C152	C	1.153276	0.684806	0.703782
C153	C	0.352865	-0.064676	-0.046213
C154	C	0.602865	0.185324	0.203787
C155	C	0.852865	0.435324	0.453787
C156	C	1.102865	0.685324	0.703787
C157	C	0.327654	-0.064404	0.000053
C158	C	0.577654	0.185596	0.250053
C159	C	0.827654	0.435596	0.500053
C160	C	1.077654	0.685596	0.750053
O161	O	0.273115	-0.063880	-0.085520
O162	O	0.523115	0.186120	0.164480
O163	O	0.773115	0.436120	0.414480
O164	O	1.023115	0.686120	0.664480
O165	O	0.273054	-0.063814	0.085650
O166	O	0.523054	0.186186	0.335650
O167	O	0.773054	0.436186	0.585650
O168	O	1.023054	0.686186	0.835650
C169	C	0.045336	-0.061497	0.046319
C170	C	0.295336	0.188503	0.296319
C171	C	0.545336	0.438503	0.546319
C172	C	0.795336	0.688503	0.796319
C173	C	0.020139	-0.061247	0.000064
C174	C	0.270139	0.188753	0.250064
C175	C	0.520139	0.438753	0.500064
C176	C	0.770139	0.688753	0.750064
C177	C	0.045353	-0.061516	-0.046193
C178	C	0.295353	0.188484	0.203807
C179	C	0.545353	0.438484	0.453807
C180	C	0.795353	0.688484	0.703807
C181	C	-0.030275	-0.060734	0.000065
C182	C	0.219725	0.189266	0.250065
C183	C	0.469725	0.439266	0.500065
C184	C	0.719725	0.689266	0.750065
C185	C	-0.055490	-0.060465	0.046323
C186	C	0.194510	0.189535	0.296323
C187	C	0.444510	0.439535	0.546323
C188	C	0.694510	0.689535	0.796323
C189	C	-0.030290	-0.060710	0.092579
C190	C	0.219710	0.189290	0.342579
C191	C	0.469710	0.439290	0.592579
C192	C	0.719710	0.689290	0.842579
C193	C	0.020122	-0.061228	0.092577
C194	C	0.270122	0.188772	0.342577
C195	C	0.520122	0.438772	0.592577
C196	C	0.770122	0.688772	0.842577
C197	C	0.020153	-0.061271	-0.092449
C198	C	0.270153	0.188729	0.157551
C199	C	0.520153	0.438729	0.407551
C200	C	0.770153	0.688729	0.657551
C201	C	-0.030258	-0.060754	-0.092443
C202	C	0.219742	0.189246	0.157557
C203	C	0.469742	0.439246	0.407557
C204	C	0.719742	0.689246	0.657557
C205	C	-0.055472	-0.060485	-0.046186
C206	C	0.194528	0.189515	0.203814
C207	C	0.444528	0.439515	0.453814
C208	C	0.694528	0.689515	0.703814
C209	C	0.574732	0.026627	0.000070
C210	C	0.824732	0.276627	0.250070
C211	C	1.074732	0.526627	0.500070
C212	C	1.324732	0.776627	0.750070
C213	C	0.574179	0.080282	0.000074
C214	C	0.824179	0.330282	0.250074
C215	C	1.074179	0.580282	0.500074
C216	C	1.324179	0.830282	0.750074
C217	C	0.658949	-0.057571	0.000068
C218	C	0.908949	0.192429	0.250068
C219	C	1.158949	0.442429	0.500068
C220	C	1.408949	0.692429	0.750068
C221	C	0.712605	-0.058113	0.000071
C222	C	0.962605	0.191887	0.250071
C223	C	1.212605	0.441887	0.500071
C224	C	1.462605	0.691887	0.750071
C225	C	0.566353	-0.150182	0.000046
C226	C	0.816353	0.099818	0.250046
C227	C	1.066353	0.349818	0.500046
C228	C	1.316353	0.599818	0.750046
C229	C	0.566906	-0.203837	0.000038
C230	C	0.816906	0.046163	0.250038
C231	C	1.066906	0.296163	0.500038
C232	C	1.316906	0.546163	0.750038
N233	N	0.570507	-0.061748	0.120820
N234	N	0.820507	0.188252	0.370820
N235	N	1.070507	0.438252	0.620820
N236	N	1.320507	0.688252	0.870820
C237	C	0.614884	0.419105	0.000053
C238	C	0.864884	0.669105	0.250053
C239	C	1.114884	0.919105	0.500053
C240	C	1.364884	1.169105	0.750053
C241	C	0.612833	0.620764	0.000046
C242	C	0.862833	0.870764	0.250046
C243	C	1.112833	1.120764	0.500046
C244	C	1.362833	1.370764	0.750046
O245	O	0.650055	0.652027	0.000028
O246	O	0.900055	0.902027	0.250028
O247	O	1.150055	1.152027	0.500028
O248	O	1.400055	1.402027	0.750028
N249	N	0.568496	0.639879	0.000041
N250	N	0.818496	0.889879	0.250041
N251	N	1.068496	1.139879	0.500041
N252	N	1.318496	1.389879	0.750041
C253	C	0.524670	0.608576	0.000034
C254	C	0.774670	0.858576	0.250034
C255	C	1.024670	1.108576	0.500034
C256	C	1.274670	1.358576	0.750034
O257	O	0.486912	0.629462	0.000024
O258	O	0.736912	0.879462	0.250024
O259	O	0.986912	1.129462	0.500024
O260	O	1.236912	1.379462	0.750024
C261	C	0.526721	0.406918	0.000038
C262	C	0.776721	0.656918	0.250038
C263	C	1.026721	0.906918	0.500038
C264	C	1.276721	1.156918	0.750038
C265	C	0.571060	0.387806	0.000048
C266	C	0.821060	0.637806	0.250048
C267	C	1.071060	0.887806	0.500048
C268	C	1.321060	1.137806	0.750048
C269	C	0.659220	0.399992	0.000063
C270	C	0.909220	0.649992	0.250063
C271	C	1.159220	0.899992	0.500063
C272	C	1.409220	1.149992	0.750063
C273	C	0.659732	0.349580	0.000068
C274	C	0.909732	0.599580	0.250068
C275	C	1.159732	0.849580	0.500068
C276	C	1.409732	1.099580	0.750068
C277	C	0.615908	0.318281	0.000062
C278	C	0.865908	0.568281	0.250062
C279	C	1.115908	0.818281	0.500062
C280	C	1.365908	1.068281	0.750062
C281	C	0.571573	0.337394	0.000053
C282	C	0.821573	0.587394	0.250053
C283	C	1.071573	0.837394	0.500053
C284	C	1.321573	1.087394	0.750053
C285	C	0.482895	0.375615	0.000028
C286	C	0.732895	0.625615	0.250028
C287	C	0.982895	0.875615	0.500028
C288	C	1.232895	1.125615	0.750028
C289	C	0.483412	0.325198	0.000027
C290	C	0.733412	0.575198	0.250027
C291	C	0.983412	0.825198	0.500027
C292	C	1.233412	1.075198	0.750027
C293	C	0.527751	0.306086	0.000037
C294	C	0.777751	0.556086	0.250037
C295	C	1.027751	0.806086	0.500037
C296	C	1.277751	1.056086	0.750037
C297	C	0.528262	0.255683	0.000052
C298	C	0.778262	0.505683	0.250052
C299	C	1.028262	0.755683	0.500052
C300	C	1.278262	1.005683	0.750052
N301	N	0.572598	0.236568	0.000057
N302	N	0.822598	0.486568	0.250057
N303	N	1.072598	0.736568	0.500057
N304	N	1.322598	0.986568	0.750057
C305	C	0.616421	0.267867	0.000062
C306	C	0.866421	0.517867	0.250062
C307	C	1.116421	0.767867	0.500062
C308	C	1.366421	1.017867	0.750062
C309	C	0.523596	0.714450	0.000033
C310	C	0.773596	0.964450	0.250033
C311	C	1.023596	1.214450	0.500033
C312	C	1.273596	1.464450	0.750033
C313	C	0.523083	0.764864	0.000033
C314	C	0.773083	1.014864	0.250033
C315	C	1.023083	1.264864	0.500033
C316	C	1.273083	1.514864	0.750033
C317	C	0.611246	0.777049	0.000044
C318	C	0.861246	1.027049	0.250044
C319	C	1.111246	1.277049	0.500044
C320	C	1.361246	1.527049	0.750044
C321	C	0.611759	0.726633	0.000048
C322	C	0.861759	0.976633	0.250048
C323	C	1.111759	1.226633	0.500048
C324	C	1.361759	1.476633	0.750048
C325	C	0.567932	0.695335	0.000038
C326	C	0.817932	0.945335	0.250038
C327	C	1.067932	1.195335	0.500038
C328	C	1.317932	1.445335	0.750038
C329	C	0.617494	0.161998	0.000073
C330	C	0.867494	0.411998	0.250073
C331	C	1.117494	0.661998	0.500073
C332	C	1.367494	0.911998	0.750073
C333	C	0.618002	0.111581	0.000079
C334	C	0.868002	0.361581	0.250079
C335	C	1.118002	0.611581	0.500079
C336	C	1.368002	0.861581	0.750079
C337	C	0.529839	0.099401	0.000066
C338	C	0.779839	0.349401	0.250066
C339	C	1.029839	0.599401	0.500066
C340	C	1.279839	0.849401	0.750066
C341	C	0.529331	0.149813	0.000062
C342	C	0.779331	0.399813	0.250062
C343	C	1.029331	0.649813	0.500062
C344	C	1.279331	0.899813	0.750062
C345	C	0.573162	0.181111	0.000063
C346	C	0.823162	0.431111	0.250063
C347	C	1.073162	0.681111	0.500063
C348	C	1.323162	0.931111	0.750063
O349	O	0.491060	0.224391	0.000064
O350	O	0.741060	0.474391	0.250064
O351	O	0.991060	0.724391	0.500064
O352	O	1.241060	0.974391	0.750064
O353	O	0.654174	0.246971	0.000061
O354	O	0.904174	0.496971	0.250061
O355	O	1.154174	0.746971	0.500061
O356	O	1.404174	0.996971	0.750061
C357	C	0.614372	0.469517	0.000049
C358	C	0.864372	0.719517	0.250049
C359	C	1.114372	0.969517	0.500049
C360	C	1.364372	1.219517	0.750049
C361	C	0.570036	0.488629	0.000039
C362	C	0.820036	0.738629	0.250039
C363	C	1.070036	0.988629	0.500039
C364	C	1.320036	1.238629	0.750039
C365	C	0.526213	0.457330	0.000034
C366	C	0.776213	0.707330	0.250034
C367	C	1.026213	0.957330	0.500034
C368	C	1.276213	1.207330	0.750034
C369	C	0.569523	0.539044	0.000039
C370	C	0.819523	0.789044	0.250039
C371	C	1.069523	1.039044	0.500039
C372	C	1.319523	1.289044	0.750039
C373	C	0.613346	0.570343	0.000044
C374	C	0.863346	0.820343	0.250044
C375	C	1.113346	1.070343	0.500044
C376	C	1.363346	1.320343	0.750044
C377	C	0.657683	0.551228	0.000049
C378	C	0.907683	0.801228	0.250049
C379	C	1.157683	1.051228	0.500049
C380	C	1.407683	1.301228	0.750049
C381	C	0.658195	0.500816	0.000054
C382	C	0.908195	0.750816	0.250054
C383	C	1.158195	1.000816	0.500054
C384	C	1.408195	1.250816	0.750054
C385	C	0.481876	0.476445	0.000029
C386	C	0.731876	0.726445	0.250029
C387	C	0.981876	0.976445	0.500029
C388	C	1.231876	1.226445	0.750029
C389	C	0.481367	0.526858	0.000025
C390	C	0.731367	0.776858	0.250025
C391	C	0.981367	1.026858	0.500025
C392	C	1.231367	1.276858	0.750025
C393	C	0.525191	0.558157	0.000030
C394	C	0.775191	0.808157	0.250030
C395	C	1.025191	1.058157	0.500030
C396	C	1.275191	1.308157	0.750030
N397	N	0.570581	-0.061803	-0.120703
N398	N	0.820581	0.188197	0.129297
N399	N	1.070581	0.438197	0.379297
N400	N	1.320581	0.688197	0.629297
C401	C	0.541454	-0.032657	0.526798
C402	C	0.791454	0.217343	0.776798
C403	C	1.041454	0.467343	1.026798
C404	C	1.291454	0.717343	1.276798
C405	C	0.541432	-0.032645	0.313139
C406	C	0.791432	0.217355	0.563139
C407	C	1.041432	0.467355	0.813139
C408	C	1.291432	0.717355	1.063139
O409	O	0.516700	-0.007872	0.285530
O410	O	0.766700	0.242128	0.535530
O411	O	1.016700	0.492128	0.785530
O412	O	1.266700	0.742128	1.035530
N413	N	0.570526	-0.061754	0.286403
N414	N	0.820526	0.188246	0.536403
N415	N	1.070526	0.438246	0.786403
N416	N	1.320526	0.688246	1.036403
C417	C	0.599629	-0.090867	0.313086
C418	C	0.849629	0.159133	0.563086
C419	C	1.099629	0.409133	0.813086
C420	C	1.349629	0.659133	1.063086
O421	O	0.624378	-0.115622	0.285443
O422	O	0.874378	0.134378	0.535443
O423	O	1.124378	0.384378	0.785443
O424	O	1.374378	0.634378	1.035443
C425	C	0.599652	-0.090876	0.526743
C426	C	0.849652	0.159124	0.776743
C427	C	1.099652	0.409124	1.026743
C428	C	1.349652	0.659124	1.276743
C429	C	0.570554	-0.061768	0.553476
C430	C	0.820554	0.188232	0.803476
C431	C	1.070554	0.438232	1.053476
C432	C	1.320554	0.688232	1.303476
C433	C	0.512358	-0.003551	0.553531
C434	C	0.762358	0.246449	0.803531
C435	C	1.012358	0.496449	1.053531
C436	C	1.262358	0.746449	1.303531
C437	C	0.512361	-0.003557	0.606942
C438	C	0.762361	0.246443	0.856942
C439	C	1.012361	0.496443	1.106942
C440	C	1.262361	0.746443	1.356942
C441	C	0.541461	-0.032668	0.633621
C442	C	0.791461	0.217332	0.883621
C443	C	1.041461	0.467332	1.133621
C444	C	1.291461	0.717332	1.383621
C445	C	0.570557	-0.061773	0.606888
C446	C	0.820557	0.188227	0.856888
C447	C	1.070557	0.438227	1.106888
C448	C	1.320557	0.688227	1.356888
C449	C	0.628758	-0.119985	0.553424
C450	C	0.878758	0.130015	0.803424
C451	C	1.128758	0.380015	1.053424
C452	C	1.378758	0.630015	1.303424
C453	C	0.628762	-0.119984	0.606842
C454	C	0.878762	0.130016	0.856842
C455	C	1.128762	0.380016	1.106842
C456	C	1.378762	0.630016	1.356842
C457	C	0.599663	-0.090876	0.633575
C458	C	0.849663	0.159124	0.883575
C459	C	1.099663	0.409124	1.133575
C460	C	1.349663	0.659124	1.383575
C461	C	0.599661	-0.090890	0.686978
C462	C	0.849661	0.159110	0.936978
C463	C	1.099661	0.409110	1.186978
C464	C	1.349661	0.659110	1.436978
N465	N	0.570567	-0.061780	0.713713
N466	N	0.820567	0.188220	0.963713
N467	N	1.070567	0.438220	1.213713
N468	N	1.320567	0.688220	1.463713
C469	C	0.541468	-0.032669	0.687035
C470	C	0.791468	0.217331	0.937035
C471	C	1.041468	0.467331	1.187035
C472	C	1.291468	0.717331	1.437035
C473	C	0.599614	-0.090860	0.200912
C474	C	0.849614	0.159140	0.450912
C475	C	1.099614	0.409140	0.700912
C476	C	1.349614	0.659140	0.950912
C477	C	0.599607	-0.090859	0.147498
C478	C	0.849607	0.159141	0.397498
C479	C	1.099607	0.409141	0.647498
C480	C	1.349607	0.659141	0.897498
C481	C	0.541411	-0.032636	0.147555
C482	C	0.791411	0.217364	0.397555
C483	C	1.041411	0.467364	0.647555
C484	C	1.291411	0.717364	0.897555
C485	C	0.541416	-0.032641	0.200970
C486	C	0.791416	0.217359	0.450970
C487	C	1.041416	0.467359	0.700970
C488	C	1.291416	0.717359	0.950970
C489	C	0.570520	-0.061751	0.227648
C490	C	0.820520	0.188249	0.477648
C491	C	1.070520	0.438249	0.727648
C492	C	1.320520	0.688249	0.977648
C493	C	0.541477	-0.032683	0.799203
C494	C	0.791477	0.217317	1.049203
C495	C	1.041477	0.467317	1.299203
C496	C	1.291477	0.717317	1.549203
C497	C	0.541482	-0.032692	0.852619
C498	C	0.791482	0.217308	1.102619
C499	C	1.041482	0.467308	1.352619
C500	C	1.291482	0.717308	1.602619
C501	C	0.599679	-0.090913	0.852557
C502	C	0.849679	0.159087	1.102557
C503	C	1.099679	0.409087	1.352557
C504	C	1.349679	0.659087	1.602557
C505	C	0.599673	-0.090905	0.799145
C506	C	0.849673	0.159095	1.049145
C507	C	1.099673	0.409095	1.299145
C508	C	1.349673	0.659095	1.549145
C509	C	0.570570	-0.061787	0.772470
C510	C	0.820570	0.188213	1.022470
C511	C	1.070570	0.438213	1.272470
C512	C	1.320570	0.688213	1.522470
O513	O	0.624384	-0.115646	0.714620
O514	O	0.874384	0.134354	0.964620
O515	O	1.124384	0.384354	1.214620
O516	O	1.374384	0.634354	1.464620
O517	O	0.516730	-0.007909	0.714687
O518	O	0.766730	0.242091	0.964687
O519	O	1.016730	0.492091	1.214687
O520	O	1.266730	0.742091	1.464687
C521	C	0.541450	-0.032652	0.473386
C522	C	0.791450	0.217348	0.723386
C523	C	1.041450	0.467348	0.973386
C524	C	1.291450	0.717348	1.223386
C525	C	0.570546	-0.061757	0.446653
C526	C	0.820546	0.188243	0.696653
C527	C	1.070546	0.438243	0.946653
C528	C	1.320546	0.688243	1.196653
C529	C	0.599646	-0.090868	0.473332
C530	C	0.849646	0.159132	0.723332
C531	C	1.099646	0.409132	0.973332
C532	C	1.349646	0.659132	1.223332
C533	C	0.570540	-0.061756	0.393239
C534	C	0.820540	0.188244	0.643239
C535	C	1.070540	0.438244	0.893239
C536	C	1.320540	0.688244	1.143239
C537	C	0.541440	-0.032645	0.366561
C538	C	0.791440	0.217355	0.616561
C539	C	1.041440	0.467355	0.866561
C540	C	1.291440	0.717355	1.116561
C541	C	0.512347	-0.003535	0.393296
C542	C	0.762347	0.246465	0.643296
C543	C	1.012347	0.496465	0.893296
C544	C	1.262347	0.746465	1.143296
C545	C	0.512350	-0.003541	0.446708
C546	C	0.762350	0.246459	0.696708
C547	C	1.012350	0.496459	0.946708
C548	C	1.262350	0.746459	1.196708
C549	C	0.628739	-0.119978	0.446596
C550	C	0.878739	0.130022	0.696596
C551	C	1.128739	0.380022	0.946596
C552	C	1.378739	0.630022	1.196596
C553	C	0.628733	-0.119971	0.393184
C554	C	0.878733	0.130029	0.643184
C555	C	1.128733	0.380029	0.893184
C556	C	1.378733	0.630029	1.143184
C557	C	0.599633	-0.090860	0.366506
C558	C	0.849633	0.159140	0.616506
C559	C	1.099633	0.409140	0.866506
C560	C	1.349633	0.659140	1.116506
H561	H	-0.050828	-0.060493	0.130243
H562	H	0.199172	0.189507	0.380243
H563	H	0.449172	0.439507	0.630243
H564	H	0.699172	0.689507	0.880243
H565	H	0.040678	-0.061489	-0.130118
H566	H	0.290678	0.188511	0.119882
H567	H	0.540678	0.438511	0.369882
H568	H	0.790678	0.688511	0.619882
Br569	Br	0.718703	0.442461	0.000069
Br570	Br	0.968703	0.692461	0.250069
Br571	Br	1.218703	0.942461	0.500069
Br572	Br	1.468703	1.192461	0.750069
Br573	Br	0.437506	-0.065556	-0.108993
Br574	Br	0.687506	0.184444	0.141007
Br575	Br	0.937506	0.434444	0.391007
Br576	Br	1.187506	0.684444	0.641007
H577	H	0.517779	-0.008972	0.777490
H578	H	0.767779	0.241028	1.027490
H579	H	1.017779	0.491028	1.277490
H580	H	1.267779	0.741028	1.527490
H581	H	0.494160	0.073908	0.000064
H582	H	0.744160	0.323908	0.250064
H583	H	0.994160	0.573908	0.500064
H584	H	1.244160	0.823908	0.750064
H585	H	0.654110	0.096023	0.000089
H586	H	0.904110	0.346023	0.250089
H587	H	1.154110	0.596023	0.500089
H588	H	1.404110	0.846023	0.750089
Br589	Br	-0.064448	-0.060419	-0.155230
Br590	Br	0.185552	0.189581	0.094770
Br591	Br	0.435552	0.439581	0.344770
Br592	Br	0.685552	0.689581	0.594770
Br593	Br	0.671935	0.700701	0.000063
Br594	Br	0.921935	0.950701	0.250063
Br595	Br	1.171935	1.200701	0.500063
Br596	Br	1.421935	1.450701	0.750063
Br597	Br	0.676980	0.204466	0.000074
Br598	Br	0.926980	0.454466	0.250074
Br599	Br	1.176980	0.704466	0.500074
Br600	Br	1.426980	0.954466	0.750074
Br601	Br	0.421187	0.552788	0.000015
Br602	Br	0.671187	0.802788	0.250015
Br603	Br	0.921187	1.052788	0.500015
Br604	Br	1.171187	1.302788	0.750015
H605	H	0.695837	0.334024	0.000074
H606	H	0.945837	0.584024	0.250074
H607	H	1.195837	0.834024	0.500074
H608	H	1.445837	1.084024	0.750074
Br609	Br	0.670720	0.819536	0.000050
Br610	Br	0.920720	1.069536	0.250050
Br611	Br	1.170720	1.319536	0.500050
Br612	Br	1.420720	1.569536	0.750050
Br613	Br	0.462906	0.790795	0.000031
Br614	Br	0.712906	1.040795	0.250031
Br615	Br	0.962906	1.290795	0.500031
Br616	Br	1.212906	1.540795	0.750031
Br617	Br	-0.177555	-0.059256	-0.108976
Br618	Br	0.072445	0.190744	0.141024
Br619	Br	0.322445	0.440744	0.391024
Br620	Br	0.572445	0.690744	0.641024
H621	H	0.493226	0.165375	0.000068
H622	H	0.743226	0.415375	0.250068
H623	H	0.993226	0.665375	0.500068
H624	H	1.243226	0.915375	0.750068
H625	H	0.652454	-0.143687	0.531668
H626	H	0.902454	0.106313	0.781668
H627	H	1.152454	0.356313	1.031668
H628	H	1.402454	0.606313	1.281668
H629	H	0.488655	0.020162	0.468469
H630	H	0.738655	0.270162	0.718469
H631	H	0.988655	0.520162	0.968469
H632	H	1.238655	0.770162	1.218469
Br633	Br	0.472852	0.035969	0.357079
Br634	Br	0.722852	0.285969	0.607079
Br635	Br	0.972852	0.535969	0.857079
Br636	Br	1.222852	0.785969	1.107079
H637	H	0.040632	-0.061431	0.130246
H638	H	0.290632	0.188569	0.380246
H639	H	0.540632	0.438569	0.630246
H640	H	0.790632	0.688569	0.880246
H641	H	0.488661	0.020157	0.531815
H642	H	0.738661	0.270157	0.781815
H643	H	0.988661	0.520157	1.031815
H644	H	1.238661	0.770157	1.281815
Br645	Br	0.472869	0.035950	0.643214
Br646	Br	0.722869	0.285950	0.893214
Br647	Br	0.972869	0.535950	1.143214
Br648	Br	1.222869	0.785950	1.393214
H649	H	0.517721	-0.008939	0.222733
H650	H	0.767721	0.241061	0.472733
H651	H	1.017721	0.491061	0.722733
H652	H	1.267721	0.741061	0.972733
H653	H	0.694301	0.485260	0.000062
H654	H	0.944301	0.735260	0.250062
H655	H	1.194301	0.985260	0.500062
H656	H	1.444301	1.235260	0.750062
Br657	Br	0.717157	0.593715	0.000060
Br658	Br	0.967157	0.843715	0.250060
Br659	Br	1.217157	1.093715	0.500060
Br660	Br	1.467157	1.343715	0.750060
H661	H	0.487905	0.688970	0.000026
H662	H	0.737905	0.938970	0.250026
H663	H	0.987905	1.188970	0.500026
H664	H	1.237905	1.438970	0.750026
Br665	Br	0.423929	0.282724	0.000012
Br666	Br	0.673929	0.532724	0.250012
Br667	Br	0.923929	0.782724	0.500012
Br668	Br	1.173929	1.032724	0.750012
Br669	Br	0.639088	-0.130376	0.111224
Br670	Br	0.889088	0.119624	0.361224
Br671	Br	1.139088	0.369624	0.611224
Br672	Br	1.389088	0.619624	0.861224
H673	H	0.446789	0.391167	0.000016
H674	H	0.696789	0.641167	0.250016
H675	H	0.946789	0.891167	0.500016
H676	H	1.196789	1.141167	0.750016
Br677	Br	0.422395	0.433975	0.000019
Br678	Br	0.672395	0.683975	0.250019
Br679	Br	0.922395	0.933975	0.500019
Br680	Br	1.172395	1.183975	0.750019
Br681	Br	0.668220	-0.159486	0.356911
Br682	Br	0.918220	0.090514	0.606911
Br683	Br	1.168220	0.340514	0.856911
Br684	Br	1.418220	0.590514	1.106911
H685	H	0.100476	-0.062094	-0.130128
H686	H	0.350476	0.187906	0.119872
H687	H	0.600476	0.437906	0.369872
H688	H	0.850476	0.687906	0.619872
Br689	Br	0.205543	-0.063118	0.155354
Br690	Br	0.455543	0.186882	0.405354
Br691	Br	0.705543	0.436882	0.655354
Br692	Br	0.955543	0.686882	0.905354
Br693	Br	0.668236	-0.159490	0.482794
Br694	Br	0.918236	0.090510	0.732794
Br695	Br	1.168236	0.340510	0.982794
Br696	Br	1.418236	0.590510	1.232794
H697	H	0.517784	-0.008989	0.874382
H698	H	0.767784	0.241011	1.124382
H699	H	1.017784	0.491011	1.374382
H700	H	1.267784	0.741011	1.624382
H701	H	0.517716	-0.008934	0.125825
H702	H	0.767716	0.241066	0.375825
H703	H	1.017716	0.491066	0.625825
H704	H	1.267716	0.741066	0.875825
H705	H	0.623316	-0.114567	0.222628
H706	H	0.873316	0.135433	0.472628
H707	H	1.123316	0.385433	0.722628
H708	H	1.373316	0.635433	0.972628
Br709	Br	0.668266	-0.159490	0.643044
Br710	Br	0.918266	0.090510	0.893044
Br711	Br	1.168266	0.340510	1.143044
Br712	Br	1.418266	0.590510	1.393044
Br713	Br	0.205616	-0.063168	-0.155242
Br714	Br	0.455616	0.186832	0.094758
Br715	Br	0.705616	0.436832	0.344758
Br716	Br	0.955616	0.686832	0.594758
H717	H	0.623360	-0.114614	0.777378
H718	H	0.873360	0.135386	1.027378
H719	H	1.123360	0.385386	1.277378
H720	H	1.373360	0.635386	1.527378
H721	H	0.423779	-0.065378	0.083970
H722	H	0.673779	0.184622	0.333970
H723	H	0.923779	0.434622	0.583970
H724	H	1.173779	0.684622	0.833970
Br725	Br	0.318643	-0.064282	0.109094
Br726	Br	0.568643	0.185718	0.359094
Br727	Br	0.818643	0.435718	0.609094
Br728	Br	1.068643	0.685718	0.859094
H729	H	0.100420	-0.062044	0.130243
H730	H	0.350420	0.187956	0.380243
H731	H	0.600420	0.437956	0.630243
H732	H	0.850420	0.687956	0.880243
H733	H	-0.191269	-0.059080	0.083998
H734	H	0.058731	0.190920	0.333998
H735	H	0.308731	0.440920	0.583998
H736	H	0.558731	0.690920	0.833998
H737	H	0.623370	-0.114615	0.874288
H738	H	0.873370	0.135385	1.124288
H739	H	1.123370	0.385385	1.374288
H740	H	1.373370	0.635385	1.624288
H741	H	-0.282693	-0.058187	-0.083855
H742	H	-0.032693	0.191813	0.166145
H743	H	0.217307	0.441813	0.416145
H744	H	0.467307	0.691813	0.666145
Br745	Br	-0.296424	-0.057994	0.109109
Br746	Br	-0.046424	0.192006	0.359109
Br747	Br	0.203576	0.442006	0.609109
Br748	Br	0.453576	0.692006	0.859109
H749	H	0.332348	-0.064481	-0.083880
H750	H	0.582348	0.185519	0.166120
H751	H	0.832348	0.435519	0.416120
H752	H	1.082348	0.685519	0.666120
