data_functionalizedCrystal
_audit_creation_method	'MofGen! by Chris Wilmer'
_symmetry_space_group_name_H-M	'P1'
_symmetry_Int_Tables_number	1
_symmetry_cell_setting	triclinic
loop_
_symmetry_equiv_pos_as_xyz
  x,y,z
_cell_length_a	9.065218
_cell_length_b	10.268362
_cell_length_c	9.065218
_cell_angle_alpha	89.987294
_cell_angle_beta	94.984082
_cell_angle_gamma	90.004643
loop_
_atom_site_label
_atom_site_type_symbol
_atom_site_fract_x
_atom_site_fract_y
_atom_site_fract_z
O1	O	1.960402	0.108329	-0.216358
O2	O	2.293735	0.441662	0.116975
O3	O	2.627068	0.774995	0.450309
O4	O	1.531117	0.108333	-0.234104
O5	O	1.864450	0.441666	0.099229
O6	O	2.197784	0.774999	0.432562
O7	O	1.754632	0.108297	-0.010589
O8	O	2.087966	0.441631	0.322745
O9	O	2.421299	0.774964	0.656078
O10	O	1.736886	0.108364	-0.439874
O11	O	2.070220	0.441697	-0.106540
O12	O	2.403553	0.775031	0.226793
O13	O	1.754613	-0.108303	-0.010579
O14	O	2.087946	0.225030	0.322754
O15	O	2.421279	0.558363	0.656087
O16	O	1.531097	-0.108268	-0.234095
O17	O	1.864430	0.225065	0.099238
O18	O	2.197764	0.558399	0.432572
O19	O	1.960382	-0.108272	-0.216348
O20	O	2.293715	0.225061	0.116985
O21	O	2.627049	0.558395	0.450318
Cu22	Cu	1.745738	-0.128047	-0.225221
Cu23	Cu	2.079071	0.205286	0.108113
Cu24	Cu	2.412404	0.538619	0.441446
Cu25	Cu	1.745761	0.128108	-0.225232
Cu26	Cu	2.079094	0.461441	0.108101
Cu27	Cu	2.412428	0.794775	0.441435
O28	O	1.736866	-0.108237	-0.439864
O29	O	2.070200	0.225097	-0.106531
O30	O	2.403533	0.558430	0.226803
C31	C	1.476120	0.000032	-0.232394
C32	C	1.809454	0.333366	0.100939
C33	C	2.142787	0.666699	0.434273
C34	C	1.312277	0.000032	-0.227294
C35	C	1.645611	0.333366	0.106039
C36	C	1.978944	0.666699	0.439372
N37	N	1.745732	-0.308213	-0.225212
N38	N	2.079065	0.025120	0.108121
N39	N	2.412399	0.358453	0.441455
C40	C	1.745754	-0.573884	-0.225229
C41	C	2.079087	-0.240550	0.108104
C42	C	2.412420	0.092783	0.441438
C43	C	1.745737	-0.426046	-0.225224
C44	C	2.079070	-0.092713	0.108109
C45	C	2.412404	0.240621	0.441443
C46	C	2.015378	0.000031	-0.218059
C47	C	2.348712	0.333365	0.115275
C48	C	2.682045	0.666698	0.448608
C49	C	2.179221	0.000040	-0.223158
C50	C	2.512555	0.333373	0.110175
C51	C	2.845888	0.666707	0.443508
C52	C	1.752917	-0.000009	0.044403
C53	C	2.086250	0.333325	0.377736
C54	C	2.419584	0.666658	0.711069
C55	C	1.747817	-0.000026	0.208245
C56	C	2.081151	0.333307	0.541579
C57	C	2.414484	0.666641	0.874912
N58	N	1.745778	0.308274	-0.225229
N59	N	2.079112	0.641607	0.108104
N60	N	2.412445	0.974941	0.441437
C61	C	1.738582	0.000036	0.505145
C62	C	2.071915	0.333370	0.838478
C63	C	2.405248	0.666703	1.171811
C64	C	1.743681	-0.000045	0.341302
C65	C	2.077014	0.333288	0.674635
C66	C	2.410348	0.666622	1.007968
