data_functionalizedCrystal
_audit_creation_method	'MofGen! by Chris Wilmer'
_symmetry_space_group_name_H-M	'P1'
_symmetry_Int_Tables_number	1
_symmetry_cell_setting	triclinic
loop_
_symmetry_equiv_pos_as_xyz
  x,y,z
_cell_length_a	16.625548
_cell_length_b	12.645330
_cell_length_c	16.625539
_cell_angle_alpha	90.024521
_cell_angle_beta	90.017055
_cell_angle_gamma	90.013714
loop_
_atom_site_label
_atom_site_type_symbol
_atom_site_fract_x
_atom_site_fract_y
_atom_site_fract_z
Zn1	Zn	1.232708	-0.422027	0.455920
Zn2	Zn	1.566041	-0.088693	0.789253
Zn3	Zn	1.899374	0.244640	1.122587
Zn4	Zn	1.232642	-0.599307	0.321092
Zn5	Zn	1.565975	-0.265974	0.654425
Zn6	Zn	1.899309	0.067360	0.987759
Zn7	Zn	1.097878	-0.422061	0.321101
Zn8	Zn	1.431211	-0.088728	0.654434
Zn9	Zn	1.764544	0.244605	0.987767
Zn10	Zn	1.097863	-0.599252	0.455882
Zn11	Zn	1.431196	-0.265919	0.789215
Zn12	Zn	1.764530	0.067415	1.122548
O13	O	1.165273	-0.510662	0.388499
O14	O	1.498606	-0.177328	0.721832
O15	O	1.831939	0.156005	1.055165
O16	O	1.345531	-0.445552	0.438047
O17	O	1.678865	-0.112219	0.771381
O18	O	2.012198	0.221115	1.104714
O19	O	1.214744	-0.575833	0.208261
O20	O	1.548077	-0.242499	0.541594
O21	O	1.881411	0.090834	0.874927
O22	O	1.115797	-0.273709	0.339004
O23	O	1.449130	0.059624	0.672338
O24	O	1.782463	0.392957	1.005671
O25	O	1.345483	-0.575799	0.338990
O26	O	1.678817	-0.242466	0.672323
O27	O	2.012150	0.090868	1.005656
O28	O	1.214856	-0.273684	0.438056
O29	O	1.548189	0.059649	0.771389
O30	O	1.881522	0.392983	1.104722
O31	O	1.115733	-0.445611	0.208267
O32	O	1.449067	-0.112278	0.541600
O33	O	1.782400	0.221056	0.874934
O34	O	0.985043	-0.445557	0.338967
O35	O	1.318377	-0.112224	0.672301
O36	O	1.651710	0.221109	1.005634
O37	O	1.115772	-0.575705	0.568719
O38	O	1.449105	-0.242372	0.902053
O39	O	1.782438	0.090962	1.235386
O40	O	0.985032	-0.575739	0.437990
O41	O	1.318366	-0.242405	0.771324
O42	O	1.651699	0.090928	1.104657
O43	O	1.214841	-0.445498	0.568747
O44	O	1.548175	-0.112165	0.902081
O45	O	1.881508	0.221168	1.235414
O46	O	1.214730	-0.747647	0.338952
O47	O	1.548063	-0.414314	0.672286
O48	O	1.881397	-0.080980	1.005619
O49	O	1.115708	-0.747606	0.437982
O50	O	1.449041	-0.414273	0.771315
O51	O	1.782375	-0.080940	1.104648
C52	C	0.955782	-0.510647	0.388476
C53	C	1.289115	-0.177313	0.721809
C54	C	1.622448	0.156020	1.055143
C55	C	0.866161	-0.510666	0.388486
C56	C	1.199494	-0.177332	0.721819
C57	C	1.532827	0.156001	1.055152
C58	C	0.537985	-0.510673	0.388520
C59	C	0.871318	-0.177339	0.721853
C60	C	1.204652	0.155994	1.055187
C61	C	0.629293	-0.510668	0.388508
C62	C	0.962627	-0.177334	0.721841
C63	C	1.295960	0.155999	1.055174
C64	C	0.702070	-0.510670	0.388502
C65	C	1.035403	-0.177336	0.721835
C66	C	1.368737	0.155997	1.055169
C67	C	0.793384	-0.510664	0.388491
C68	C	1.126717	-0.177330	0.721825
C69	C	1.460051	0.156003	1.055158
C70	C	1.165232	-0.786091	0.388480
C71	C	1.498565	-0.452758	0.721813
C72	C	1.831899	-0.119425	1.055146
C73	C	1.165289	-0.903921	0.388498
C74	C	1.498622	-0.570588	0.721832
C75	C	1.831955	-0.237255	1.055165
C76	C	1.227483	-1.071467	0.326072
C77	C	1.560817	-0.738133	0.659406
C78	C	1.894150	-0.404800	0.992739
C79	C	1.227686	-0.948906	0.326225
C80	C	1.561019	-0.615573	0.659559
C81	C	1.894352	-0.282240	0.992892
C82	C	1.188327	-0.948308	0.473491
C83	C	1.521660	-0.614975	0.806824
C84	C	1.854993	-0.281641	1.140158
C85	C	1.188820	-1.070906	0.473160
C86	C	1.522154	-0.737573	0.806493
C87	C	1.855487	-0.404239	1.139826
C88	C	1.080032	-1.071250	0.366769
C89	C	1.413365	-0.737916	0.700103
C90	C	1.746698	-0.404583	1.033436
C91	C	1.080440	-0.948645	0.364863
C92	C	1.413774	-0.615312	0.698197
C93	C	1.747107	-0.281979	1.031530
C94	C	1.375581	-0.510678	0.388522
C95	C	1.708915	-0.177344	0.721855
C96	C	2.042248	0.155989	1.055188
C97	C	1.465203	-0.510685	0.388532
C98	C	1.798536	-0.177351	0.721865
C99	C	2.131869	0.155982	1.055198
C100	C	1.165312	-0.510592	0.598808
C101	C	1.498645	-0.177258	0.932141
C102	C	1.831979	0.156075	1.265474
C103	C	1.165329	-0.510562	0.688429
C104	C	1.498662	-0.177229	1.021762
C105	C	1.831996	0.156105	1.355095
C106	C	1.165335	-0.234156	0.388535
C107	C	1.498668	0.099177	0.721869
C108	C	1.832002	0.432510	1.055202
C109	C	1.165362	-0.116326	0.388551
C110	C	1.498695	0.217007	0.721884
C111	C	1.832028	0.550340	1.055218
C112	C	1.165280	-0.510655	0.179008
C113	C	1.498613	-0.177322	0.512341
C114	C	1.831946	0.156012	0.845674
C115	C	1.165419	-0.510386	0.089387
C116	C	1.498752	-0.177053	0.422720
C117	C	1.832086	0.156281	0.756054
C118	C	1.165342	-0.510539	0.761211
C119	C	1.498675	-0.177205	1.094545
C120	C	1.832009	0.156128	1.427878
C121	C	1.165361	-0.510499	0.852520
C122	C	1.498694	-0.177166	1.185853
C123	C	1.832028	0.156168	1.519186
C124	C	1.165380	-0.510462	0.925296
C125	C	1.498713	-0.177128	1.258630
C126	C	1.832047	0.156205	1.591963
C127	C	1.165400	-0.510423	1.016611
C128	C	1.498733	-0.177090	1.349944
C129	C	1.832067	0.156243	1.683277
H130	H	1.213272	-0.918900	0.263205
H131	H	1.546606	-0.585567	0.596538
H132	H	1.879939	-0.252234	0.929871
H133	H	1.251192	-1.099418	0.491610
H134	H	1.584526	-0.766085	0.824943
H135	H	1.917859	-0.432751	1.158277
H136	H	1.213250	-1.101016	0.262867
H137	H	1.546583	-0.767683	0.596201
H138	H	1.879917	-0.434350	0.929534
H139	H	1.290887	-0.919498	0.340632
H140	H	1.624220	-0.586164	0.673966
H141	H	1.957554	-0.252831	1.007299
H142	H	1.290345	-1.102196	0.340318
H143	H	1.623679	-0.768863	0.673652
H144	H	1.957012	-0.435530	1.006985
H145	H	1.249994	-0.917519	0.492249
H146	H	1.583328	-0.584186	0.825582
H147	H	1.916661	-0.250853	1.158916
H148	H	1.144457	-0.919166	0.521290
H149	H	1.477791	-0.585833	0.854623
H150	H	1.811124	-0.252499	1.187956
C151	C	1.130357	-1.110993	0.538201
C152	C	1.463691	-0.777660	0.871534
C153	C	1.797024	-0.444327	1.204867
N154	N	1.086330	-1.141183	0.587194
N155	N	1.419663	-0.807849	0.920528
N156	N	1.752996	-0.474516	1.253861
H157	H	1.063069	-0.919645	0.302316
H158	H	1.396403	-0.586312	0.635649
H159	H	1.729736	-0.252979	0.968982
H160	H	1.059080	-1.102256	0.305872
H161	H	1.392413	-0.768923	0.639205
H162	H	1.725747	-0.435589	0.972539
H163	H	1.031658	-0.918034	0.407033
H164	H	1.364992	-0.584701	0.740366
H165	H	1.698325	-0.251368	1.073699
H166	H	1.033746	-1.100261	0.412275
H167	H	1.367079	-0.766928	0.745608
H168	H	1.700412	-0.433595	1.078942
