data_functionalizedCrystal
_audit_creation_method	'MofGen! by Chris Wilmer'
_symmetry_space_group_name_H-M	'P1'
_symmetry_Int_Tables_number	1
_symmetry_cell_setting	triclinic
loop_
_symmetry_equiv_pos_as_xyz
  x,y,z
_cell_length_a	10.268362
_cell_length_b	11.792241
_cell_length_c	11.792241
_cell_angle_alpha	84.193416
_cell_angle_beta	89.994572
_cell_angle_gamma	89.999626
loop_
_atom_site_label
_atom_site_type_symbol
_atom_site_fract_x
_atom_site_fract_y
_atom_site_fract_z
O1	O	0.108174	-1.506909	-0.155569
O2	O	0.608174	-1.006909	0.344431
O3	O	0.108205	-1.176568	-0.171602
O4	O	0.608205	-0.676568	0.328398
O5	O	0.108180	-1.349755	0.001585
O6	O	0.608180	-0.849755	0.501585
O7	O	0.108199	-1.333722	-0.328756
O8	O	0.608199	-0.833722	0.171244
O9	O	-0.108421	-1.349740	0.001593
O10	O	0.391579	-0.849740	0.501593
O11	O	-0.108396	-1.176553	-0.171594
O12	O	0.391604	-0.676553	0.328406
O13	O	-0.108426	-1.506894	-0.155561
O14	O	0.391574	-1.006894	0.344439
Cu15	Cu	-0.128188	-1.341722	-0.163577
Cu16	Cu	0.371812	-0.841722	0.336423
Cu17	Cu	0.127967	-1.341740	-0.163586
Cu18	Cu	0.627967	-0.841740	0.336414
O19	O	-0.108401	-1.333707	-0.328748
O20	O	0.391599	-0.833707	0.171252
C21	C	-0.000092	-1.134269	-0.170591
C22	C	0.499908	-0.634269	0.329409
C23	C	-0.000080	-1.008255	-0.167576
C24	C	0.499920	-0.508255	0.332424
N25	N	-0.308354	-1.341717	-0.163571
N26	N	0.191646	-0.841717	0.336429
C27	C	-0.000120	-1.348740	0.043880
C28	C	0.499880	-0.848740	0.543880
C29	C	-0.000119	-1.345726	0.169894
C30	C	0.499881	-0.845726	0.669894
C31	C	-0.574025	-1.341734	-0.163583
C32	C	-0.074025	-0.841734	0.336417
C33	C	-0.426187	-1.341721	-0.163580
C34	C	0.073813	-0.841721	0.336420
N35	N	0.308133	-1.341753	-0.163584
N36	N	0.808133	-0.841753	0.336416
C37	C	-0.000127	-1.549192	-0.156572
C38	C	0.499873	-1.049192	0.343428
C39	C	-0.000130	-1.675206	-0.159587
C40	C	0.499870	-1.175206	0.340413
C41	C	-0.000118	-0.777543	-0.162034
C42	C	0.499882	-0.277543	0.337966
C43	C	-0.000097	-0.905928	-0.165113
C44	C	0.499903	-0.405928	0.334887
C45	C	-0.000099	-1.334721	-0.371043
C46	C	0.499901	-0.834721	0.128957
C47	C	-0.000092	-1.337736	-0.497057
C48	C	0.499908	-0.837736	0.002943
C49	C	-0.000096	-1.340183	0.400606
C50	C	0.499904	-0.840183	0.900606
C51	C	-0.000108	-1.343262	0.272221
C52	C	0.499892	-0.843262	0.772221
