data_functionalizedCrystal
_audit_creation_method	'MofGen! by Chris Wilmer'
_symmetry_space_group_name_H-M	'P1'
_symmetry_Int_Tables_number	1
_symmetry_cell_setting	triclinic
loop_
_symmetry_equiv_pos_as_xyz
  x,y,z
_cell_length_a	9.016244
_cell_length_b	13.339070
_cell_length_c	10.540514
_cell_angle_alpha	100.072227
_cell_angle_beta	90.000952
_cell_angle_gamma	89.991777
loop_
_atom_site_label
_atom_site_type_symbol
_atom_site_fract_x
_atom_site_fract_y
_atom_site_fract_z
O1	O	0.123354	-1.346850	-0.637976
O2	O	0.123350	-1.051724	-0.554237
O3	O	0.123354	-1.206034	-0.413698
O4	O	0.123350	-1.192541	-0.778516
O5	O	-0.123327	-1.206011	-0.413694
O6	O	-0.123331	-1.051702	-0.554234
O7	O	-0.123327	-1.346828	-0.637973
Cu8	Cu	-0.145853	-1.199263	-0.596103
Cu9	Cu	0.145876	-1.199289	-0.596107
O10	O	-0.123331	-1.192518	-0.778512
C11	C	0.000010	-1.013923	-0.540090
C12	C	0.000009	-0.901319	-0.497927
N13	N	-0.351039	-1.199251	-0.596102
C14	C	0.000017	-1.205016	-0.366049
C15	C	0.000028	-1.202005	-0.224073
C16	C	-0.586074	-1.116452	-0.670848
C17	C	-0.414182	-1.116636	-0.671296
C18	C	-0.413376	-1.305282	-0.662377
C19	C	-0.585321	-1.304830	-0.662952
C20	C	-0.585581	-1.177072	-0.455102
C21	C	-0.413627	-1.174639	-0.455138
N22	N	0.351062	-1.199309	-0.596101
C23	C	0.000017	-1.384629	-0.652119
C24	C	0.000028	-1.497233	-0.694283
C25	C	0.000028	-0.538871	-0.825766
C26	C	0.000034	-0.644667	-0.865384
C27	C	0.000027	-0.708835	-0.773523
C28	C	0.000016	-0.667197	-0.642037
C29	C	0.000022	-0.561391	-0.602415
C30	C	0.000021	-0.731355	-0.550172
C31	C	0.000009	-0.689717	-0.418687
C32	C	0.000014	-0.583920	-0.379071
C33	C	0.000021	-0.519752	-0.470932
C34	C	0.000014	-0.837161	-0.589795
C35	C	0.000008	-0.859681	-0.366444
C36	C	0.000002	-0.753885	-0.326826
C37	C	0.000009	-1.193536	-0.826160
C38	C	0.000008	-1.196547	-0.968136
C39	C	0.000026	-1.312365	-0.190984
C40	C	-0.000544	-1.309270	-0.043316
C41	C	-0.140577	-1.141973	-0.011278
C42	C	-0.140685	-1.145850	-0.159139
C43	C	0.139847	-1.144243	-0.158985
C44	C	0.141685	-1.143178	-0.011643
H45	H	-0.372039	-1.037852	-0.626311
Cl46	Cl	-0.652609	-1.060201	-0.371011
Cl47	Cl	0.000054	-0.697005	-1.030672
Cl48	Cl	0.000061	-0.458200	-0.941231
H49	H	0.100841	-1.357137	-0.234764
Cl50	Cl	-0.347297	-1.261650	-0.360782
H51	H	-0.245600	-1.179398	0.018520
Cl52	Cl	-0.155392	-1.380464	-0.260866
Cl53	Cl	-0.649946	-0.994426	-0.601676
Cl54	Cl	0.000011	-0.940342	-0.250954
Cl55	Cl	-0.648343	-1.270341	-0.368542
H56	H	0.000022	-0.550022	-0.272007
H57	H	-0.145409	-1.059180	0.039256
Cl58	Cl	-0.000009	-0.701527	-0.161534
Cl59	Cl	-0.647224	-1.334856	-0.823469
Cl60	Cl	-0.346875	-1.335985	-0.821427
H61	H	0.100209	-1.352195	-0.015280
Cl62	Cl	-0.350231	-1.402804	-0.582967
Cl63	Cl	-0.149955	-1.020692	-0.190602
Cl64	Cl	0.000028	-0.841838	-0.823332
Cl65	Cl	-0.157056	-1.375226	-0.001363
H66	H	0.000016	-0.433603	-0.438681
Cl67	Cl	-0.303556	-1.207357	-0.223692
Cl68	Cl	0.302269	-1.204749	0.030672
Cl69	Cl	0.304420	-1.200970	-0.226948
H70	H	0.150598	-1.061018	0.040556
H71	H	0.141191	-1.062836	-0.178478
H72	H	-0.373037	-1.130928	-0.775153
Cl73	Cl	-0.652727	-1.138243	-0.830244
H74	H	-0.372886	-1.096638	-0.405710
H75	H	-0.626902	-1.368461	-0.612650
H76	H	0.000018	-0.871052	-0.696851
