data_functionalizedCrystal
_audit_creation_method	'MofGen! by Chris Wilmer'
_symmetry_space_group_name_H-M	'P1'
_symmetry_Int_Tables_number	1
_symmetry_cell_setting	triclinic
loop_
_symmetry_equiv_pos_as_xyz
  x,y,z
_cell_length_a	16.109301
_cell_length_b	15.944551
_cell_length_c	14.586319
_cell_angle_alpha	89.995256
_cell_angle_beta	89.999213
_cell_angle_gamma	83.480109
loop_
_atom_site_label
_atom_site_type_symbol
_atom_site_fract_x
_atom_site_fract_y
_atom_site_fract_z
O1	O	1.103166	0.107966	-0.076184
O2	O	1.353166	0.357966	0.173816
O3	O	1.603166	0.607966	0.423816
O4	O	1.853166	0.857966	0.673816
O5	O	0.861108	0.121403	-0.076199
O6	O	1.111108	0.371403	0.173801
O7	O	1.361108	0.621403	0.423801
O8	O	1.611108	0.871403	0.673801
O9	O	0.988747	-0.007593	-0.076183
O10	O	1.238747	0.242407	0.173817
O11	O	1.488747	0.492407	0.423817
O12	O	1.738747	0.742407	0.673817
O13	O	0.975527	0.236961	-0.076200
O14	O	1.225527	0.486961	0.173800
O15	O	1.475527	0.736961	0.423800
O16	O	1.725527	0.986961	0.673800
O17	O	0.988738	-0.007595	0.076298
O18	O	1.238738	0.242405	0.326298
O19	O	1.488738	0.492405	0.576298
O20	O	1.738738	0.742405	0.826298
O21	O	0.861099	0.121401	0.076282
O22	O	1.111099	0.371401	0.326282
O23	O	1.361099	0.621401	0.576282
O24	O	1.611099	0.871401	0.826282
O25	O	1.103157	0.107964	0.076296
O26	O	1.353157	0.357964	0.326296
O27	O	1.603157	0.607964	0.576296
O28	O	1.853157	0.857964	0.826296
Cu29	Cu	0.982127	0.114682	0.090212
Cu30	Cu	1.232127	0.364682	0.340212
Cu31	Cu	1.482127	0.614682	0.590212
Cu32	Cu	1.732127	0.864682	0.840212
Cu33	Cu	0.982138	0.114685	-0.090114
Cu34	Cu	1.232138	0.364685	0.159886
Cu35	Cu	1.482138	0.614685	0.409886
Cu36	Cu	1.732138	0.864685	0.659886
O37	O	0.975518	0.236960	0.076280
O38	O	1.225518	0.486960	0.326280
O39	O	1.475518	0.736960	0.576280
O40	O	1.725518	0.986960	0.826280
C41	C	0.830129	0.120857	0.000039
C42	C	1.080129	0.370857	0.250039
C43	C	1.330129	0.620857	0.500039
C44	C	1.580129	0.870857	0.750039
C45	C	0.737833	0.119226	0.000034
C46	C	0.987833	0.369226	0.250034
C47	C	1.237833	0.619226	0.500034
C48	C	1.487833	0.869226	0.750034
C49	C	0.988194	-0.038887	0.000057
C50	C	1.238194	0.211113	0.250057
C51	C	1.488194	0.461113	0.500057
C52	C	1.738194	0.711113	0.750057
C53	C	0.986548	-0.132133	0.000058
C54	C	1.236548	0.117867	0.250058
C55	C	1.486548	0.367867	0.500058
C56	C	1.736548	0.617867	0.750058
C57	C	0.515584	0.191975	0.000040
C58	C	0.765584	0.441975	0.250040
C59	C	1.015584	0.691975	0.500040
C60	C	1.265584	0.941975	0.750040
C61	C	0.428863	0.190435	0.000046
C62	C	0.678863	0.440435	0.250046
C63	C	0.928863	0.690435	0.500046
C64	C	1.178863	0.940435	0.750046
C65	C	0.448688	0.037387	0.000053
C66	C	0.698688	0.287387	0.250053
C67	C	0.948688	0.537387	0.500053
C68	C	1.198688	0.787387	0.750053
C69	C	0.535407	0.038927	0.000053
C70	C	0.785407	0.288927	0.250053
C71	C	1.035407	0.538927	0.500053
C72	C	1.285407	0.788927	0.750053
C73	C	0.568853	0.116224	0.000042
C74	C	0.818853	0.366224	0.250042
C75	C	1.068853	0.616224	0.500042
C76	C	1.318853	0.866224	0.750042
C77	C	0.395412	0.113143	0.000047
C78	C	0.645412	0.363143	0.250047
C79	C	0.895412	0.613143	0.500047
C80	C	1.145412	0.863143	0.750047
C81	C	0.301386	0.111473	0.000054
C82	C	0.551386	0.361473	0.250054
C83	C	0.801386	0.611473	0.500054
C84	C	1.051386	0.861473	0.750054
C85	C	0.662885	0.117894	0.000037
C86	C	0.912885	0.367894	0.250037
C87	C	1.162885	0.617894	0.500037
C88	C	1.412885	0.867894	0.750037
C89	C	0.903499	-0.346962	0.000040
C90	C	1.153499	-0.096962	0.250040
C91	C	1.403499	0.153038	0.500040
C92	C	1.653499	0.403038	0.750040
C93	C	0.942060	-0.407993	0.075225
C94	C	1.192060	-0.157993	0.325225
C95	C	1.442060	0.092007	0.575225
C96	C	1.692060	0.342007	0.825225
C97	C	0.983572	-0.302858	0.000051
C98	C	1.233572	-0.052858	0.250051
C99	C	1.483572	0.197142	0.500051
C100	C	1.733572	0.447142	0.750051
C101	C	0.942088	-0.407975	-0.075109
C102	C	1.192088	-0.157975	0.174891
C103	C	1.442088	0.092025	0.424891
C104	C	1.692088	0.342025	0.674891
C105	C	0.980691	-0.467769	0.000040
C106	C	1.230691	-0.217769	0.250040
C107	C	1.480691	0.032231	0.500040
C108	C	1.730691	0.282231	0.750040
C109	C	1.022155	-0.362660	0.075297
C110	C	1.272155	-0.112660	0.325297
C111	C	1.522155	0.137340	0.575297
C112	C	1.772155	0.387340	0.825297
C113	C	1.022171	-0.362636	-0.075104
C114	C	1.272171	-0.112636	0.174896
C115	C	1.522171	0.137364	0.424896
C116	C	1.772171	0.387364	0.674896
C117	C	1.060790	-0.423649	0.000099
C118	C	1.310790	-0.173649	0.250099
C119	C	1.560790	0.076351	0.500099
C120	C	1.810790	0.326351	0.750099
C121	C	0.985229	-0.207856	0.000058
C122	C	1.235229	0.042144	0.250058
C123	C	1.485229	0.292144	0.500058
C124	C	1.735229	0.542144	0.750058
C125	C	0.979039	-0.562770	0.000039
C126	C	1.229039	-0.312770	0.250039
C127	C	1.479039	-0.062770	0.500039
C128	C	1.729039	0.187230	0.750039
C129	C	1.134136	0.108510	0.000056
C130	C	1.384136	0.358510	0.250056
C131	C	1.634136	0.608510	0.500056
C132	C	1.884136	0.858510	0.750056
C133	C	1.226432	0.110141	0.000055
C134	C	1.476432	0.360141	0.250055
C135	C	1.726432	0.610141	0.500055
C136	C	1.976432	0.860141	0.750055
C137	C	0.976071	0.268254	0.000038
C138	C	1.226071	0.518254	0.250038
C139	C	1.476071	0.768254	0.500038
C140	C	1.726071	1.018254	0.750038
C141	C	0.977717	0.361500	0.000031
C142	C	1.227717	0.611500	0.250031
C143	C	1.477717	0.861500	0.500031
C144	C	1.727717	1.111500	0.750031
N145	N	0.982126	0.114680	0.217044
N146	N	1.232126	0.364680	0.467044
N147	N	1.482126	0.614680	0.717044
N148	N	1.732126	0.864680	0.967044
N149	N	0.982146	0.114680	-0.216946
N150	N	1.232146	0.364680	0.033054
N151	N	1.482146	0.614680	0.283054
N152	N	1.732146	0.864680	0.533054
C153	C	1.038663	0.057580	0.452057
C154	C	1.288663	0.307580	0.702057
C155	C	1.538663	0.557580	0.952057
C156	C	1.788663	0.807580	1.202057
C157	C	1.038666	0.057578	0.548038
C158	C	1.288666	0.307578	0.798038
C159	C	1.538666	0.557578	1.048038
C160	C	1.788666	0.807578	1.298038
C161	C	0.925602	0.171783	0.548034
C162	C	1.175602	0.421783	0.798034
C163	C	1.425602	0.671783	1.048034
C164	C	1.675602	0.921783	1.298034
C165	C	0.925597	0.171780	0.452054
C166	C	1.175597	0.421780	0.702054
C167	C	1.425597	0.671780	0.952054
C168	C	1.675597	0.921780	1.202054
C169	C	0.982132	0.114680	0.404068
C170	C	1.232132	0.364680	0.654068
C171	C	1.482132	0.614680	0.904068
C172	C	1.732132	0.864680	1.154068
C173	C	0.982140	0.114680	0.596029
C174	C	1.232140	0.364680	0.846029
C175	C	1.482140	0.614680	1.096029
C176	C	1.732140	0.864680	1.346029
C177	C	0.982142	0.114679	0.700096
C178	C	1.232142	0.364679	0.950096
C179	C	1.482142	0.614679	1.200096
C180	C	1.732142	0.864679	1.450096
C181	C	0.982129	0.114680	0.299995
C182	C	1.232129	0.364680	0.549995
C183	C	1.482129	0.614680	0.799995
C184	C	1.732129	0.864680	1.049995
H185	H	0.542812	0.254914	0.000037
H186	H	0.792812	0.504914	0.250037
H187	H	1.042812	0.754914	0.500037
H188	H	1.292812	1.004914	0.750037
F189	F	1.066383	-0.336551	0.158469
F190	F	1.316383	-0.086551	0.408469
F191	F	1.566383	0.163449	0.658469
F192	F	1.816383	0.413449	0.908469
H193	H	1.084697	0.011082	0.587108
H194	H	1.334697	0.261082	0.837108
H195	H	1.584697	0.511082	1.087108
H196	H	1.834697	0.761082	1.337108
H197	H	1.084696	0.011085	0.412989
H198	H	1.334696	0.261085	0.662989
H199	H	1.584696	0.511085	0.912989
H200	H	1.834696	0.761085	1.162989
F201	F	0.865422	0.232553	0.400977
F202	F	1.115422	0.482553	0.650977
F203	F	1.365422	0.732553	0.900977
F204	F	1.615422	0.982553	1.150977
F205	F	0.372174	0.271060	0.000044
F206	F	0.622174	0.521060	0.250044
F207	F	0.872174	0.771060	0.500044
F208	F	1.122174	1.021060	0.750044
F209	F	0.592103	-0.041702	0.000062
F210	F	0.842103	0.208298	0.250062
F211	F	1.092103	0.458298	0.500062
F212	F	1.342103	0.708298	0.750062
H213	H	1.056013	-0.342516	-0.138666
H214	H	1.306013	-0.092516	0.111334
H215	H	1.556013	0.157484	0.361334
H216	H	1.806013	0.407484	0.611334
F217	F	1.147739	-0.467021	0.000157
F218	F	1.397739	-0.217021	0.250157
F219	F	1.647739	0.032979	0.500157
F220	F	1.897739	0.282979	0.750157
H221	H	0.421446	-0.025546	0.000067
H222	H	0.671446	0.224454	0.250067
H223	H	0.921446	0.474454	0.500067
H224	H	1.171446	0.724454	0.750067
F225	F	0.865439	0.232552	0.599110
F226	F	1.115439	0.482552	0.849110
F227	F	1.365439	0.732552	1.099110
F228	F	1.615439	0.982552	1.349110
H229	H	0.837035	-0.313632	0.000111
H230	H	1.087035	-0.063632	0.250111
H231	H	1.337035	0.186368	0.500111
H232	H	1.587035	0.436368	0.750111
H233	H	0.908213	-0.428039	-0.138677
H234	H	1.158213	-0.178039	0.111323
H235	H	1.408213	0.071961	0.361323
H236	H	1.658213	0.321961	0.611323
H237	H	0.908189	-0.428091	0.138783
H238	H	1.158189	-0.178091	0.388783
H239	H	1.408189	0.071909	0.638783
H240	H	1.658189	0.321909	0.888783
