data_functionalizedCrystal
_audit_creation_method	'MofGen! by Chris Wilmer'
_symmetry_space_group_name_H-M	'P1'
_symmetry_Int_Tables_number	1
_symmetry_cell_setting	triclinic
loop_
_symmetry_equiv_pos_as_xyz
  x,y,z
_cell_length_a	13.897449
_cell_length_b	13.897448
_cell_length_c	13.897441
_cell_angle_alpha	90.029627
_cell_angle_beta	90.021257
_cell_angle_gamma	90.018519
loop_
_atom_site_label
_atom_site_type_symbol
_atom_site_fract_x
_atom_site_fract_y
_atom_site_fract_z
Zn1	Zn	1.474682	-0.383972	0.545450
Zn2	Zn	1.474582	-0.545291	0.384151
Zn3	Zn	1.313377	-0.384014	0.384161
Zn4	Zn	1.313353	-0.545229	0.545396
O5	O	1.393999	-0.464627	0.464789
O6	O	1.609651	-0.405380	0.524071
O7	O	1.453166	-0.523941	0.249171
O8	O	1.334827	-0.249027	0.405582
O9	O	1.609577	-0.523900	0.405566
O10	O	1.453337	-0.248996	0.524081
O11	O	1.334730	-0.405451	0.249178
O12	O	1.178393	-0.405391	0.405530
O13	O	1.334785	-0.523795	0.680385
O14	O	1.178375	-0.523835	0.523990
O15	O	1.453313	-0.405320	0.680424
O16	O	1.453143	-0.680264	0.405514
O17	O	1.334689	-0.680219	0.523980
C18	C	1.143384	-0.464612	0.464756
C19	C	1.036171	-0.464629	0.464764
C20	C	0.949101	-0.464632	0.464780
C21	C	0.839868	-0.464639	0.464810
C22	C	1.393928	-0.715241	0.464761
C23	C	1.393987	-0.822455	0.464782
C24	C	1.394088	-1.018750	0.464842
C25	C	1.394029	-0.909517	0.464812
C26	C	1.645592	-0.464642	0.464824
C27	C	1.752806	-0.464649	0.464838
C28	C	1.394058	-0.464546	0.716382
C29	C	1.394083	-0.464511	0.823596
C30	C	1.394096	-0.213034	0.464838
C31	C	1.394137	-0.105820	0.464859
C32	C	1.393995	-0.464638	0.214175
C33	C	1.394157	-0.464400	0.106962
C34	C	1.394103	-0.464484	0.910666
C35	C	1.394130	-0.464440	1.019899
