data_functionalizedCrystal
_audit_creation_method	'MofGen! by Chris Wilmer'
_symmetry_space_group_name_H-M	'P1'
_symmetry_Int_Tables_number	1
_symmetry_cell_setting	triclinic
loop_
_symmetry_equiv_pos_as_xyz
  x,y,z
_cell_length_a	14.044220
_cell_length_b	14.044220
_cell_length_c	12.503572
_cell_angle_alpha	93.835250
_cell_angle_beta	93.843168
_cell_angle_gamma	86.811122
loop_
_atom_site_label
_atom_site_type_symbol
_atom_site_fract_x
_atom_site_fract_y
_atom_site_fract_z
O1	O	0.225116	-1.282200	-0.089210
O2	O	0.216809	-1.005530	-0.089237
O3	O	0.082627	-1.139712	-0.089213
O4	O	0.359298	-1.148019	-0.089234
O5	O	0.092737	-1.129622	0.089427
O6	O	0.226918	-0.995440	0.089403
O7	O	0.235226	-1.272110	0.089430
Cu8	Cu	0.231995	-1.132854	0.105728
Cu9	Cu	0.220040	-1.144786	-0.105535
O10	O	0.369407	-1.137929	0.089406
C11	C	0.052060	-1.131031	0.000107
C12	C	-0.054082	-1.120187	0.000107
C13	C	0.218228	-0.964864	0.000080
C14	C	0.207383	-0.858721	0.000070
C15	C	-0.248421	-1.100361	0.000090
C16	C	-0.299551	-1.177275	0.000094
C17	C	-0.407687	-1.166244	0.000084
C18	C	-0.140274	-1.111391	0.000099
C19	C	0.233807	-1.312777	0.000111
C20	C	0.244651	-1.418920	0.000114
C21	C	0.399974	-1.146609	0.000084
C22	C	0.506117	-1.157454	0.000077
N23	N	0.240404	-1.124469	0.254319
C24	C	0.187558	-0.664382	0.000092
C25	C	0.264472	-0.613253	0.000091
C26	C	0.253441	-0.505116	0.000104
C27	C	0.198587	-0.772529	0.000080
N28	N	0.211624	-1.153179	-0.254126
C29	C	0.252782	-1.112134	0.473432
C30	C	0.199249	-1.165511	0.526768
C31	C	0.206136	-1.158648	0.648690
C32	C	0.245896	-1.118996	0.351499
H33	H	-0.285859	-1.026234	0.000080
C34	C	0.363289	-0.663224	-0.000172
C35	C	0.368861	-0.725403	-0.092110
C36	C	0.459877	-0.771444	-0.092408
H37	H	0.374423	-0.698548	0.062038
H38	H	0.410117	-0.616948	-0.000238
H39	H	0.322047	-0.771672	-0.092034
H40	H	0.357745	-0.690103	-0.154335
H41	H	0.506705	-0.725168	-0.092475
H42	H	0.471003	-0.806762	-0.030194
H43	H	0.463672	-0.813631	-0.154792
C44	C	0.130970	-1.233046	0.465565
C45	C	0.064721	-1.180572	0.401139
C46	C	0.001728	-1.242694	0.344788
H47	H	0.098202	-1.265547	0.515049
H48	H	0.165950	-1.278274	0.421538
H49	H	0.029744	-1.135361	0.445162
H50	H	0.097462	-1.148072	0.351635
H51	H	0.036708	-1.287922	0.300761
H52	H	-0.031033	-1.275193	0.394280
H53	H	-0.043223	-1.207101	0.301061
C54	C	-0.249457	-1.276041	0.000171
C55	C	-0.150602	-1.267491	0.000207
C56	C	-0.104420	-1.358448	0.000296
H57	H	-0.270804	-1.313349	-0.062102
H58	H	-0.263828	-1.306229	0.062498
H59	H	-0.136238	-1.237317	-0.062113
H60	H	-0.129228	-1.230200	0.062475
H61	H	-0.118792	-1.388636	0.062623
H62	H	-0.125775	-1.395748	-0.061978
H63	H	-0.037343	-1.352658	0.000331
C64	C	0.088725	-0.614429	-0.000126
C65	C	0.072743	-0.562595	-0.092043
C66	C	-0.018294	-0.516565	-0.092293
H67	H	0.084654	-0.572102	0.062099
H68	H	0.041878	-0.660701	-0.000189
H69	H	0.119577	-0.516329	-0.091970
H70	H	0.076795	-0.604901	-0.154283
H71	H	-0.065141	-0.562836	-0.092356
H72	H	-0.022357	-0.474242	-0.030064
H73	H	-0.029153	-0.481397	-0.154662
C74	C	0.320772	-1.044430	0.534823
C75	C	0.314197	-1.051028	0.645298
C76	C	0.376826	-0.988688	0.701899
H77	H	0.304144	-0.980786	0.516597
H78	H	0.384353	-1.061324	0.516516
H79	H	0.250630	-1.034128	0.663598
H80	H	0.330834	-1.114657	0.663556
H81	H	0.440408	-1.005582	0.683592
H82	H	0.360192	-0.925048	0.683664
H83	H	0.372381	-0.993162	0.776861
