data_functionalizedCrystal
_audit_creation_method	'MofGen! by Chris Wilmer'
_symmetry_space_group_name_H-M	'P1'
_symmetry_Int_Tables_number	1
_symmetry_cell_setting	triclinic
loop_
_symmetry_equiv_pos_as_xyz
  x,y,z
_cell_length_a	10.723024
_cell_length_b	10.540539
_cell_length_c	9.198806
_cell_angle_alpha	89.998955
_cell_angle_beta	89.996352
_cell_angle_gamma	84.496680
loop_
_atom_site_label
_atom_site_type_symbol
_atom_site_fract_x
_atom_site_fract_y
_atom_site_fract_z
O1	O	1.657276	0.178046	-0.120876
O2	O	1.294132	0.195088	-0.120880
O3	O	1.483989	0.001856	-0.120876
O4	O	1.467419	0.371278	-0.120880
O5	O	1.483974	0.001856	0.120909
O6	O	1.294117	0.195088	0.120905
O7	O	1.657261	0.178045	0.120909
Cu8	Cu	1.475688	0.186567	0.142984
Cu9	Cu	1.475706	0.186567	-0.142955
O10	O	1.467404	0.371277	0.120905
C11	C	1.247624	0.193848	0.000012
C12	C	1.109068	0.190137	0.000010
C13	C	1.034139	0.298260	0.000008
C14	C	0.890934	0.294427	0.000006
C15	C	1.482739	-0.045446	0.000014
C16	C	1.479021	-0.186392	0.000006
C17	C	1.336563	-0.369746	-0.000538
C18	C	1.340332	-0.223130	0.000006
C19	C	1.545756	-0.248085	0.138078
C20	C	1.541023	-0.394627	0.138194
C21	C	1.543861	-0.395146	-0.136760
C22	C	1.545138	-0.248164	-0.138586
C23	C	1.703769	0.179286	0.000014
C24	C	1.842325	0.182997	0.000007
C25	C	1.468654	0.418580	0.000012
C26	C	1.472372	0.559526	0.000011
N27	N	1.475684	0.186565	0.344098
N28	N	1.475719	0.186558	-0.344069
C29	C	1.555399	0.105075	0.416297
C30	C	1.555419	0.105071	0.583709
H31	H	1.067199	0.094732	-0.000026
H32	H	1.407446	0.256325	0.406225
H33	H	1.623629	0.035306	0.354172
H34	H	0.826548	0.386988	-0.000001
C35	C	1.262548	-0.408358	-0.134291
N36	N	1.206797	-0.437453	-0.235035
C37	C	1.090697	0.427153	0.000013
N38	N	1.133294	0.524238	0.000015
C39	C	1.675767	-0.459502	0.146681
N40	N	1.777256	-0.508361	0.153082
H41	H	1.646253	-0.223995	-0.146922
C42	C	1.679189	-0.459023	-0.138020
N43	N	1.781112	-0.507143	-0.138960
C44	C	1.383512	0.280818	0.572065
N45	N	1.314061	0.351812	0.508887
C46	C	1.269382	-0.165533	-0.133699
N47	N	1.215933	-0.122157	-0.234406
C48	C	1.483225	-0.437734	-0.278138
N49	N	1.437540	-0.469809	-0.384617
C50	C	1.647621	0.010814	0.667585
N51	N	1.717069	-0.060184	0.730763
H52	H	1.281995	-0.399926	0.097920
C53	C	1.268882	-0.166678	0.133943
N54	N	1.215065	-0.124159	0.234832
C55	C	1.474362	-0.432690	0.277618
N56	N	1.424147	-0.461353	0.382632
C57	C	1.683342	-0.217932	0.145039
N58	N	1.786969	-0.195209	0.150285
C59	C	0.929298	0.057940	0.000013
N60	N	0.994815	-0.036252	0.000021
H61	H	1.499386	-0.205461	0.240826
C62	C	1.479235	-0.192859	-0.276581
N63	N	1.429585	-0.151207	-0.380516
