data_functionalizedCrystal
_audit_creation_method	'MofGen! by Chris Wilmer'
_symmetry_space_group_name_H-M	'P1'
_symmetry_Int_Tables_number	1
_symmetry_cell_setting	triclinic
loop_
_symmetry_equiv_pos_as_xyz
  x,y,z
_cell_length_a	15.500258
_cell_length_b	15.995350
_cell_length_c	15.995350
_cell_angle_alpha	96.507625
_cell_angle_beta	86.823794
_cell_angle_gamma	93.182699
loop_
_atom_site_label
_atom_site_type_symbol
_atom_site_fract_x
_atom_site_fract_y
_atom_site_fract_z
O1	O	0.071866	-1.107511	0.104459
O2	O	0.571866	-0.607511	0.604459
O3	O	0.071884	-0.863735	0.117785
O4	O	0.571884	-0.363735	0.617785
O5	O	0.071874	-0.992287	-0.010766
O6	O	0.571874	-0.492287	0.489234
O7	O	0.071876	-0.978959	0.233010
O8	O	0.571876	-0.478959	0.733010
O9	O	-0.072014	-0.999232	-0.003826
O10	O	0.427986	-0.499232	0.496174
O11	O	-0.072005	-0.870680	0.124725
O12	O	0.427995	-0.370680	0.624725
O13	O	-0.072022	-1.114456	0.111398
O14	O	0.427978	-0.614456	0.611398
Cu15	Cu	-0.085151	-0.993203	0.118695
Cu16	Cu	0.414849	-0.493203	0.618695
Cu17	Cu	0.085013	-0.984989	0.110488
Cu18	Cu	0.585013	-0.484989	0.610488
O19	O	-0.072012	-0.985905	0.239949
O20	O	0.427988	-0.485905	0.739949
C21	C	-0.000058	-0.836013	0.120704
C22	C	0.499942	-0.336013	0.620704
C23	C	-0.000051	-0.743062	0.119052
C24	C	0.499949	-0.243062	0.619052
C25	C	-0.000069	-0.995208	-0.038491
C26	C	0.499931	-0.495208	0.461509
C27	C	-0.000064	-0.993556	-0.131441
C28	C	0.499936	-0.493556	0.368559
N29	N	-0.204836	-0.998986	0.124467
N30	N	0.295164	-0.498986	0.624467
C31	C	-0.750022	-1.027804	0.153338
C32	C	-0.250022	-0.527804	0.653338
C33	C	-0.659450	-1.023435	0.148967
C34	C	-0.159450	-0.523435	0.648967
C35	C	-0.614159	-0.970478	0.095963
C36	C	-0.114159	-0.470478	0.595963
C37	C	-0.659445	-0.921881	0.047334
C38	C	-0.159445	-0.421881	0.547334
C39	C	-0.750016	-0.926246	0.051710
C40	C	-0.250016	-0.426246	0.551710
C41	C	-0.340693	-0.954754	0.080213
C42	C	0.159307	-0.454754	0.580213
C43	C	-0.250116	-0.950394	0.075838
C44	C	0.249884	-0.450394	0.575838
C45	C	-0.250127	-1.051948	0.177474
C46	C	0.249873	-0.551948	0.677474
C47	C	-0.340699	-1.056312	0.181841
C48	C	0.159301	-0.556312	0.681841
C49	C	-0.385978	-1.007711	0.133215
C50	C	0.114022	-0.507711	0.633215
C51	C	-0.521579	-0.966013	0.091492
C52	C	-0.021579	-0.466013	0.591492
C53	C	-0.478556	-1.012173	0.137691
C54	C	0.021444	-0.512173	0.637691
N55	N	0.204698	-0.979212	0.104710
N56	N	0.704698	-0.479212	0.604710
C57	C	-0.000078	-1.142179	0.108479
C58	C	0.499922	-0.642179	0.608479
C59	C	-0.000079	-1.235129	0.110131
C60	C	0.499921	-0.735129	0.610131
C61	C	-0.000069	-0.405315	0.113120
C62	C	0.499931	0.094685	0.613120
C63	C	-0.000391	-0.452765	0.021584
C64	C	0.499609	0.047235	0.521584
C65	C	-0.000061	-0.549439	0.023220
C66	C	0.499939	-0.049439	0.523220
C67	C	-0.000061	-0.572876	0.116063
C68	C	0.499939	-0.072876	0.616063
C69	C	0.082103	-0.527822	0.157256
C70	C	0.582103	-0.027822	0.657256
C71	C	0.082166	-0.431184	0.154954
C72	C	0.582166	0.068816	0.654954
C73	C	-0.081462	-0.438743	0.164737
C74	C	0.418538	0.061257	0.664737
C75	C	-0.082542	-0.535741	0.164767
C76	C	0.417458	-0.035741	0.664767
C77	C	-0.000053	-0.667573	0.117730
C78	C	0.499947	-0.167573	0.617730
C79	C	-0.000071	-0.310618	0.111455
C80	C	0.499929	0.189382	0.611455
C81	C	-0.000066	-0.987624	-0.469189
C82	C	0.499934	-0.487624	0.030811
C83	C	0.000263	-0.896056	-0.421771
C84	C	0.500263	-0.396056	0.078229
C85	C	-0.000061	-0.897724	-0.325065
C86	C	0.499939	-0.397724	0.174935
C87	C	-0.000064	-0.990567	-0.301628
C88	C	0.499936	-0.490567	0.198372
C89	C	-0.082233	-1.039690	-0.338743
C90	C	0.417767	-0.539690	0.161257
C91	C	-0.082302	-1.037393	-0.435375
C92	C	0.417698	-0.537393	0.064625
C93	C	0.081326	-1.031386	-0.443625
C94	C	0.581326	-0.531386	0.056375
C95	C	0.082412	-1.031312	-0.346732
C96	C	0.582412	-0.531312	0.153268
C97	C	-0.000066	-0.992235	-0.206931
C98	C	0.499934	-0.492235	0.293069
C99	C	-0.000070	-0.985959	-0.563886
C100	C	0.499930	-0.485959	-0.063886
C101	C	-0.000068	-0.982983	0.267674
C102	C	0.499932	-0.482983	0.767674
C103	C	-0.000067	-0.984635	0.360624
C104	C	0.499933	-0.484635	0.860624
H105	H	-0.786892	-1.070931	0.196497
H106	H	-0.286892	-0.570931	0.696497
H107	H	-0.143327	-0.565991	0.134734
H108	H	0.356673	-0.065991	0.634734
O109	O	0.082052	-1.120762	-0.485732
O110	O	0.582052	-0.620762	0.014268
H111	H	0.079932	-1.165010	-0.436900
H112	H	0.579932	-0.665010	0.063100
O113	O	-0.610609	-1.075840	0.201419
O114	O	-0.110609	-0.575840	0.701419
H115	H	-0.657318	-1.113404	0.239004
H116	H	-0.157318	-0.613404	0.739004
O117	O	-0.527405	-1.069287	0.194858
O118	O	-0.027405	-0.569287	0.694858
H119	H	-0.480707	-1.102345	0.227944
H120	H	0.019293	-0.602345	0.727944
H121	H	-0.086032	-1.104789	-0.467444
H122	H	0.413968	-0.604789	0.032556
H123	H	-0.087505	-0.551345	0.232710
H124	H	0.412495	-0.051345	0.732710
O125	O	-0.798846	-0.873837	-0.000751
O126	O	-0.298846	-0.373837	0.499249
H127	H	-0.840094	-0.830813	0.041351
H128	H	-0.340094	-0.330813	0.541351
O129	O	0.077947	-0.846925	-0.291166
O130	O	0.577947	-0.346925	0.208834
H131	H	0.116243	-0.820941	-0.343856
H132	H	0.616243	-0.320941	0.156144
H133	H	0.143605	-0.998447	-0.467168
H134	H	0.643605	-0.498447	0.032832
H135	H	0.143586	-0.409911	0.119061
H136	H	0.643586	0.090089	0.619061
O137	O	-0.082201	-0.396707	0.254183
O138	O	0.417799	0.103293	0.754183
H139	H	-0.139843	-0.420639	0.290216
H140	H	0.360157	0.079361	0.790216
O141	O	0.078301	-0.843800	-0.450092
O142	O	0.578301	-0.343800	0.049908
H143	H	0.117687	-0.882529	-0.498270
H144	H	0.617687	-0.382529	0.001730
O145	O	-0.201260	-0.893267	0.018674
O146	O	0.298740	-0.393267	0.518674
H147	H	-0.247960	-0.860198	-0.014398
H148	H	0.252040	-0.360198	0.485602
H149	H	-0.377548	-0.915182	0.040615
H150	H	0.122452	-0.415182	0.540615
O151	O	-0.472696	-0.908959	0.034281
O152	O	0.027304	-0.408959	0.534281
H153	H	-0.431388	-0.861971	0.072366
H154	H	0.068612	-0.361971	0.572366
O155	O	-0.077353	-0.851542	-0.443963
O156	O	0.422647	-0.351542	0.056037
H157	H	-0.116164	-0.894352	-0.488617
H158	H	0.383836	-0.394352	0.011383
O159	O	0.088988	-1.120680	-0.326708
O160	O	0.588988	-0.620680	0.173292
H161	H	0.030910	-1.159111	-0.348254
H162	H	0.530910	-0.659111	0.151746
O163	O	-0.078085	-0.590864	-0.020026
O164	O	0.421915	-0.090864	0.479974
H165	H	-0.075661	-0.576124	-0.086299
H166	H	0.424339	-0.076124	0.413701
O167	O	-0.389550	-1.113427	0.239012
O168	O	0.110450	-0.613427	0.739012
H169	H	-0.342847	-1.146479	0.272098
H170	H	0.157153	-0.646479	0.772098
H171	H	-0.059059	-0.864837	-0.294355
H172	H	0.440941	-0.364837	0.205645
O173	O	-0.078440	-0.432000	-0.023134
O174	O	0.421560	0.068000	0.476866
H175	H	-0.117835	-0.387633	0.019398
H176	H	0.382165	0.112367	0.519398
H177	H	0.058940	-0.574449	-0.015360
H178	H	0.558940	-0.074449	0.484640
H179	H	-0.622562	-0.878758	0.004180
H180	H	-0.122562	-0.378758	0.504180
O181	O	0.077217	-0.423063	-0.030425
O182	O	0.577217	0.076937	0.469575
H183	H	0.116020	-0.374655	0.008639
H184	H	0.616020	0.125345	0.508639
H185	H	-0.213251	-1.091514	0.217064
H186	H	0.286749	-0.591514	0.717064
O187	O	-0.086291	-1.130235	-0.319834
O188	O	0.413709	-0.630235	0.180166
H189	H	-0.144912	-1.163532	-0.346728
H190	H	0.355088	-0.663532	0.153272
O191	O	-0.163652	-0.997695	-0.455705
O192	O	0.336348	-0.497695	0.044295
H193	H	-0.202570	-0.980311	-0.396560
H194	H	0.297430	-0.480311	0.103440
O195	O	0.162940	-0.983761	-0.314456
O196	O	0.662940	-0.483761	0.185544
H197	H	0.144311	-0.931328	-0.266487
H198	H	0.644311	-0.431328	0.233513
O199	O	-0.163232	-1.002063	-0.297244
O200	O	0.336768	-0.502063	0.202756
H201	H	-0.164042	-0.935016	-0.308886
H202	H	0.335958	-0.435016	0.191114
O203	O	0.087123	-0.388217	0.243743
O204	O	0.587123	0.111783	0.743743
H205	H	0.089472	-0.436491	0.288134
H206	H	0.589472	0.063509	0.788134
O207	O	0.086167	-0.546337	0.247410
O208	O	0.586167	-0.046337	0.747410
H209	H	0.029534	-0.587950	0.263850
H210	H	0.529534	-0.087950	0.763850
O211	O	0.163106	-0.561480	0.111801
O212	O	0.663106	-0.061480	0.611801
H213	H	0.164052	-0.630232	0.115879
H214	H	0.664052	-0.130232	0.615879
O215	O	-0.163958	-0.415542	0.129058
O216	O	0.336042	0.084458	0.629058
H217	H	-0.165143	-0.345956	0.131905
H218	H	0.334857	0.154044	0.631905
