data_functionalizedCrystal
_audit_creation_method	'MofGen! by Chris Wilmer'
_symmetry_space_group_name_H-M	'P1'
_symmetry_Int_Tables_number	1
_symmetry_cell_setting	triclinic
loop_
_symmetry_equiv_pos_as_xyz
  x,y,z
_cell_length_a	19.188923
_cell_length_b	26.809956
_cell_length_c	19.188930
_cell_angle_alpha	90.000789
_cell_angle_beta	96.856820
_cell_angle_gamma	89.989124
loop_
_atom_site_label
_atom_site_type_symbol
_atom_site_fract_x
_atom_site_fract_y
_atom_site_fract_z
O1	O	-0.926154	0.041509	0.087132
O2	O	-0.722842	0.041505	0.098872
O3	O	-0.830365	0.041498	-0.008654
O4	O	-0.818631	0.041517	0.194658
O5	O	-0.830345	-0.041462	-0.008638
O6	O	-0.722821	-0.041454	0.098888
O7	O	-0.926133	-0.041450	0.087148
Zn8	Zn	-0.824474	-0.054624	0.093021
Zn9	Zn	-0.824501	0.054679	0.092999
O10	O	-0.818610	-0.041442	0.194674
C11	C	-0.696820	0.000025	0.098501
C12	C	-0.619316	0.000024	0.097362
C13	C	-0.057545	0.000022	0.152831
C14	C	-0.130368	0.000026	0.153907
C15	C	-0.175303	0.000020	0.090814
C16	C	-0.147409	0.000022	0.026641
C17	C	-0.074586	0.000023	0.025567
N18	N	-0.295973	-0.028223	0.045143
N19	N	-0.365150	-0.028225	0.046167
C20	C	-0.394712	0.000017	0.094046
N21	N	-0.352482	0.028255	0.140873
N22	N	-0.283298	0.028255	0.139850
C23	C	-0.254267	0.000019	0.091972
C24	C	-0.501561	0.000022	0.159382
C25	C	-0.574386	0.000029	0.160455
C26	C	-0.591425	0.000020	0.033188
C27	C	-0.518602	0.000018	0.032116
C28	C	-0.473674	0.000017	0.095216
N29	N	-0.824461	-0.129220	0.093035
C30	C	-0.872106	-0.473849	0.045398
C31	C	-0.872123	-0.682727	0.045388
O32	O	-0.912604	-0.709734	0.004890
N33	N	-0.824505	-0.708847	0.092984
C34	C	-0.776876	-0.682744	0.140583
O35	O	-0.736370	-0.709753	0.181061
C36	C	-0.776857	-0.473867	0.140589
C37	C	-0.824483	-0.447750	0.092995
C38	C	-0.919727	-0.447732	-0.002193
C39	C	-0.919725	-0.395516	-0.002187
C40	C	-0.872102	-0.369417	0.045410
C41	C	-0.824481	-0.395534	0.093001
C42	C	-0.729226	-0.447765	0.188185
C43	C	-0.729224	-0.395543	0.188181
C44	C	-0.776850	-0.369426	0.140586
C45	C	-0.776855	-0.317218	0.140603
N46	N	-0.824473	-0.291098	0.093007
C47	C	-0.872096	-0.317198	0.045411
C48	C	-0.776891	-0.792407	0.140577
C49	C	-0.776896	-0.844626	0.140576
C50	C	-0.872142	-0.844605	0.045380
C51	C	-0.872139	-0.792386	0.045385
C52	C	-0.824509	-0.766287	0.092981
C53	C	-0.872089	-0.207540	0.045426
C54	C	-0.872084	-0.155319	0.045438
C55	C	-0.776837	-0.155344	0.140631
C56	C	-0.776843	-0.207560	0.140622
C57	C	-0.824472	-0.233657	0.093014
O58	O	-0.736390	-0.290179	0.181075
O59	O	-0.912586	-0.290179	0.004928
C60	C	-0.872108	-0.526065	0.045393
C61	C	-0.824487	-0.552183	0.092984
C62	C	-0.776863	-0.526084	0.140580
C63	C	-0.824492	-0.604402	0.092983
C64	C	-0.872116	-0.630501	0.045386
C65	C	-0.919734	-0.604381	-0.002210
C66	C	-0.919732	-0.552165	-0.002204
C67	C	-0.729246	-0.552203	0.188176
C68	C	-0.729252	-0.604420	0.188167
C69	C	-0.776875	-0.630519	0.140571
C70	C	0.047846	0.000027	0.087521
C71	C	-0.029658	0.000022	0.088666
C72	C	-0.829975	0.000017	-0.034657
C73	C	-0.828834	0.000012	-0.112161
N74	N	-0.824520	0.129275	0.092979
C75	C	-0.891925	0.000011	-0.157087
C76	C	-0.890853	0.000019	-0.229911
C77	C	-0.826687	0.000018	-0.257806
C78	C	-0.763588	0.000022	-0.212870
C79	C	-0.764661	0.000019	-0.140048
N80	N	-0.777633	-0.028215	-0.365804
N81	N	-0.776617	-0.028214	-0.434982
C82	C	-0.823449	0.000028	-0.477214
N83	N	-0.871345	0.028262	-0.447656
N84	N	-0.872363	0.028258	-0.378471
C85	C	-0.825516	0.000022	-0.336768
C86	C	-0.885382	0.000036	-0.601104
C87	C	-0.884308	0.000047	-0.673929
C88	C	-0.757041	0.000046	-0.656887
C89	C	-0.758117	0.000040	-0.584064
C90	C	-0.822290	0.000033	-0.556177
C91	C	-0.819000	0.000040	0.220677
C92	C	-0.820141	0.000047	0.298181
H93	H	-0.464979	0.000022	0.210761
H94	H	-0.937636	0.000033	-0.578398
H95	H	-0.495897	0.000015	-0.020133
H96	H	-0.910920	-0.771124	0.006629
N97	N	-0.920750	-0.234192	-0.003192
N98	N	-0.964024	-0.263322	0.018849
H99	H	-0.998393	-0.282146	-0.015485
H100	H	-0.958504	-0.374254	-0.040944
H101	H	-0.942231	0.000020	-0.266496
N102	N	-0.698049	0.000026	-0.241372
N103	N	-0.697099	0.000028	-0.306392
H104	H	-0.650810	0.000033	-0.326522
N105	N	-0.968385	-0.525498	-0.050826
N106	N	-1.010898	-0.548816	-0.093316
H107	H	-1.045262	-0.529986	-0.127659
H108	H	-0.713283	0.000020	-0.103469
N109	N	-0.948764	0.000053	-0.719813
N110	N	-1.006052	0.000048	-0.694901
H111	H	-1.051576	0.000053	-0.727306
N112	N	-0.046111	0.000014	-0.039986
N113	N	-0.059943	-0.034958	-0.082466
H114	H	-0.039833	-0.034966	-0.128764
H115	H	-0.910920	-0.865864	0.006626
N116	N	-0.693670	0.000044	-0.538169
N117	N	-0.650953	0.035015	-0.540594
H118	H	-0.605434	0.035020	-0.508180
H119	H	-0.597089	0.000033	0.212708
N120	N	-0.968377	-0.474391	-0.050811
N121	N	-1.011652	-0.503523	-0.028777
H122	H	-1.046013	-0.522351	-0.063115
H123	H	-0.020968	0.000023	0.204211
H124	H	-0.738069	-0.228825	0.179385
N125	N	-0.637306	0.000009	-0.031267
N126	N	-0.612394	0.000005	-0.088555
H127	H	-0.644799	-0.000002	-0.134079
N128	N	-0.158852	0.000026	0.219459
N129	N	-0.118730	0.000025	0.275790
H130	H	-0.138844	0.000024	0.322086
N131	N	-0.968375	-0.631054	-0.050825
N132	N	-0.968361	-0.677677	-0.050818
H133	H	-1.002708	-0.696518	-0.085153
H134	H	-0.704795	0.000048	-0.679598
N135	N	-0.680610	-0.525550	0.236813
N136	N	-0.702629	-0.496415	0.280106
H137	H	-0.668280	-0.477593	0.314463
H138	H	-0.183999	0.000019	-0.024729
N139	N	-0.920733	-0.128649	-0.003192
N140	N	-0.963242	-0.151962	-0.045692
H141	H	-0.997596	-0.133129	-0.080041
H142	H	-0.738122	-0.865887	0.179339
H143	H	-0.690435	-0.374296	0.226939
H144	H	-0.738103	-0.771162	0.179337
N145	N	-0.680576	-0.474427	0.236811
N146	N	-0.638062	-0.451108	0.279299
H147	H	-0.603701	-0.469936	0.313646
N148	N	-0.728200	-0.128671	0.189247
N149	N	-0.728209	-0.082048	0.189236
H150	H	-0.693857	-0.063208	0.223568
H151	H	-0.944180	0.000007	-0.134387
N152	N	-0.680601	-0.631087	0.236798
N153	N	-0.638085	-0.607771	0.279289
H154	H	-0.603723	-0.626603	0.313631
