data_functionalizedCrystal
_audit_creation_method	'MofGen! by Chris Wilmer'
_symmetry_space_group_name_H-M	'P1'
_symmetry_Int_Tables_number	1
_symmetry_cell_setting	triclinic
loop_
_symmetry_equiv_pos_as_xyz
  x,y,z
_cell_length_a	20.919309
_cell_length_b	19.377372
_cell_length_c	19.377372
_cell_angle_alpha	86.406704
_cell_angle_beta	74.395485
_cell_angle_gamma	69.857042
loop_
_atom_site_label
_atom_site_type_symbol
_atom_site_fract_x
_atom_site_fract_y
_atom_site_fract_z
Zr1	Zr	0.843375	-0.209522	0.643892
O2	O	0.922210	-0.296290	0.563969
O3	O	0.726589	-0.178904	0.664373
O4	O	0.824400	-0.311950	0.688527
O5	O	0.852600	-0.062866	0.525336
O6	O	0.852603	-0.328875	0.791352
O7	O	0.824399	-0.163244	0.539816
O8	O	0.677636	-0.090880	0.748146
O9	O	1.027567	-0.300861	0.568541
O10	O	0.809728	-0.183332	0.754702
O11	O	0.809727	-0.095790	0.667158
O12	O	0.924887	-0.252435	0.695595
O13	O	0.924886	-0.164893	0.608052
Zr14	Zr	0.933333	-0.076423	0.784793
Zr15	Zr	0.888355	-0.236514	0.807887
Zr16	Zr	0.888353	-0.049431	0.620798
Zr17	Zr	1.011407	-0.216812	0.651184
Zr18	Zr	0.765301	-0.069133	0.777500
O19	O	1.050119	-0.107040	0.764311
O20	O	0.986166	-0.334669	0.797148
O21	O	0.986163	-0.068661	0.531132
O22	O	0.854498	0.010345	0.864716
O23	O	0.790545	-0.217284	0.897553
O24	O	0.790542	0.048725	0.631536
O25	O	0.924107	-0.223078	0.903349
O26	O	0.952308	0.026006	0.740158
O27	O	0.924105	0.042930	0.637333
O28	O	0.952309	-0.122700	0.888869
O29	O	1.063320	-0.322316	0.698895
O30	O	0.713388	0.036372	0.729790
O31	O	0.749141	0.014916	0.860144
O32	O	0.713389	-0.112335	0.878500
O33	O	1.063318	-0.173610	0.550184
O34	O	1.099071	-0.195065	0.680538
O35	O	0.851821	-0.033510	0.733089
O36	O	0.851821	-0.121051	0.820633
O37	O	0.966981	-0.190154	0.761527
O38	O	0.966980	-0.102613	0.673983
C39	C	0.678171	-0.133853	0.705221
C40	C	0.606838	-0.130759	0.702125
C41	C	0.832091	-0.109209	0.509210
C42	C	0.812995	-0.097750	0.439590
C43	C	0.944615	0.057278	0.685455
C44	C	0.963709	0.125241	0.675651
C45	C	0.573325	-0.175000	0.746366
C46	C	0.506297	-0.172085	0.743458
C47	C	0.472785	-0.124932	0.696305
C48	C	0.506302	-0.080686	0.652063
C49	C	0.573326	-0.083597	0.654975
C50	C	0.270412	-0.113851	0.685229
C51	C	0.203383	-0.110945	0.682319
C52	C	0.203382	-0.202343	0.773716
C53	C	0.270410	-0.205254	0.776620
C54	C	0.303919	-0.161005	0.732381
C55	C	0.404272	-0.121953	0.693330
C56	C	0.372428	-0.163980	0.735360
C57	C	1.098536	-0.152091	0.723464
C58	C	1.169870	-0.155186	0.726560
C59	C	0.832093	-0.343222	0.743230
C60	C	0.812998	-0.411185	0.753034
C61	C	0.725964	0.529109	0.797698
C62	C	0.743923	0.592960	0.788484
C63	C	0.864141	0.520812	0.726781
C64	C	0.846190	0.456954	0.735987
C65	C	0.777101	0.461109	0.771447
C66	C	0.897328	0.388954	0.709736
C67	C	0.879379	0.325101	0.718945
C68	C	0.810294	0.329248	0.754405
C69	C	0.759152	0.397256	0.780656
C70	C	0.966418	0.384800	0.674280
C71	C	1.017555	0.316800	0.648029
C72	C	0.999606	0.252946	0.657233
C73	C	0.930520	0.257093	0.692693
C74	C	1.050747	0.184938	0.630982
C75	C	1.032799	0.121086	0.640191
C76	C	0.912572	0.193241	0.701902
C77	C	1.050745	-0.240420	0.056357
C78	C	1.032787	-0.229642	-0.009053
C79	C	0.912569	-0.157504	0.052659
C80	C	0.930518	-0.168272	0.118076
C81	C	0.999607	-0.209732	0.119919
C82	C	0.879381	-0.137584	0.181637
C83	C	0.897328	-0.148356	0.247049
C84	C	0.966413	-0.189815	0.248899
C85	C	1.017555	-0.220503	0.185330
C86	C	0.810291	-0.096130	0.179793
C87	C	0.759153	-0.065442	0.243355
C88	C	0.777101	-0.076208	0.308767
C89	C	0.846186	-0.117667	0.310617
C90	C	0.725959	-0.045520	0.372336
C91	C	0.743907	-0.056291	0.437747
C92	C	0.864133	-0.128438	0.376029
C93	C	0.944617	-0.176735	0.919475
C94	C	0.963712	-0.188194	0.989095
C95	C	0.734435	-0.167616	0.910353
C96	C	0.682196	-0.175980	0.976878
C97	C	0.734432	0.066396	0.676334
C98	C	0.682193	0.137454	0.663434
C99	C	0.790696	0.032633	0.881466
C100	C	0.757551	0.092232	0.938186
C101	C	0.986012	-0.318578	0.547219
C102	C	1.019156	-0.378177	0.490499
C103	C	1.042273	-0.118328	0.518332
C104	C	1.094512	-0.109964	0.451807
C105	C	1.042275	-0.352341	0.752351
C106	C	1.094515	-0.423399	0.765251
C107	C	0.635690	-0.212425	0.973704
C108	C	0.586609	-0.220298	1.036207
C109	C	0.584033	-0.191722	1.101882
C110	C	0.630546	-0.155276	1.105055
C111	C	0.679628	-0.147408	1.042553
C112	C	0.679635	0.203340	0.691790
C113	C	0.630561	0.270113	0.679666
C114	C	0.584042	0.270997	0.639190
C115	C	0.586603	0.205104	0.610830
C116	C	0.635680	0.138334	0.622950
C117	C	0.741989	0.074524	1.010527
C118	C	0.710855	0.130516	1.063829
C119	C	0.695281	0.204216	1.044789
C120	C	0.710847	0.221924	0.972442
C121	C	0.741985	0.165932	0.919141
C122	C	1.034727	-0.360469	0.418159
C123	C	1.065881	-0.416462	0.364857
C124	C	1.081459	-0.490162	0.383897
C125	C	1.065888	-0.507870	0.456244
C126	C	1.034739	-0.451878	0.509544
C127	C	1.141023	-0.073527	0.454982
C128	C	1.190117	-0.065672	0.392483
C129	C	1.192695	-0.094250	0.326808
C130	C	1.146180	-0.130693	0.323635
C131	C	1.097091	-0.138552	0.386135
C132	C	1.141022	-0.424260	0.805731
C133	C	1.190103	-0.491022	0.817865
C134	C	1.192680	-0.556922	0.789515
C135	C	1.146167	-0.556059	0.749033
C136	C	1.097083	-0.489298	0.736904
H137	H	0.600607	-0.213400	0.784759
H138	H	0.669706	-0.011770	0.370825
Br139	Br	1.144511	0.179309	0.582873
H140	H	0.544062	-0.198133	1.152769
H141	H	1.106823	-0.535747	0.340490
Br142	Br	0.689706	0.321950	0.946614
Br143	Br	0.763098	0.189979	0.820965
H144	H	0.702891	0.400642	0.809523
H145	H	0.548720	0.205835	0.577873
H146	H	0.754664	0.014517	1.026043
H147	H	1.232671	-0.087846	0.275922
Br148	Br	1.033974	-0.488142	0.681957
H149	H	0.981029	0.436795	0.666785
Br150	Br	0.627038	-0.116496	1.194191
Br151	Br	0.742738	-0.097940	1.046873
H152	H	1.148273	-0.609724	0.725953
Br153	Br	0.689734	0.106467	1.162008
Br154	Br	0.460825	-0.232145	0.803487
Br155	Br	0.157901	-0.262391	0.833753
Br156	Br	0.742758	0.202160	0.746730
Br157	Br	0.639139	0.048920	0.584462
Br158	Br	0.315877	-0.053794	0.625194
H159	H	0.628485	0.323758	0.702765
Br160	Br	0.517441	0.361622	0.622747
Br161	Br	0.157905	-0.046951	0.618318
Br162	Br	0.818804	0.198875	0.750016
H163	H	1.138931	-0.050248	0.508451
Br164	Br	1.111323	-0.276758	0.187836
Br165	Br	0.632195	0.534743	0.845812
Br166	Br	1.102193	-0.271306	-0.095317
H167	H	0.669927	0.249801	1.088197
Br168	Br	1.149686	-0.169472	0.234498
Br169	Br	1.013589	-0.260452	0.392299
Br170	Br	1.013607	-0.475923	0.607720
Br171	Br	1.087005	-0.392413	0.266679
Br172	Br	1.253235	-0.016211	0.396806
Br173	Br	1.033968	-0.188002	0.381812
Br174	Br	1.087033	-0.607896	0.482072
H175	H	0.297694	-0.243650	0.815016
Br176	Br	1.137539	-0.334833	0.844215
H177	H	1.227972	-0.491710	0.850827
Br178	Br	0.523491	-0.269759	1.031884
H179	H	0.479009	-0.042289	0.613673
Br180	Br	0.674522	0.685245	0.824141
Br181	Br	0.618807	-0.023549	0.594936
Br182	Br	1.111317	0.311169	0.599911
Br183	Br	0.957903	0.515181	0.678662
Br184	Br	1.102201	0.028794	0.604572
H185	H	0.702269	-0.031289	0.489500
H186	H	0.637783	-0.235706	0.920235
Br187	Br	1.259300	-0.647521	0.805983
H188	H	0.399714	-0.202370	0.773755
H189	H	0.376980	-0.083561	0.654938
H190	H	0.795683	0.277253	0.761906
H191	H	0.920399	-0.162177	0.377525
Br192	Br	1.144513	-0.296675	0.058863
Br193	Br	0.818808	-0.101243	0.050150
Br194	Br	0.665392	-0.009180	0.240846
Br195	Br	0.990771	-0.204439	0.337672
H196	H	0.795679	-0.087366	0.126530
