data_functionalizedCrystal
_audit_creation_method	'MofGen! by Chris Wilmer'
_symmetry_space_group_name_H-M	'P1'
_symmetry_Int_Tables_number	1
_symmetry_cell_setting	triclinic
loop_
_symmetry_equiv_pos_as_xyz
  x,y,z
_cell_length_a	10.686220
_cell_length_b	14.908178
_cell_length_c	10.686551
_cell_angle_alpha	82.564310
_cell_angle_beta	90.307919
_cell_angle_gamma	97.932411
loop_
_atom_site_label
_atom_site_type_symbol
_atom_site_fract_x
_atom_site_fract_y
_atom_site_fract_z
Zn1	Zn	1.953097	-0.221913	-0.545924
Zn2	Zn	1.922620	-0.386668	-0.323938
Zn3	Zn	1.725202	-0.245199	-0.350512
Zn4	Zn	1.729210	-0.384824	-0.549852
O5	O	1.832532	-0.309651	-0.442557
O6	O	2.125372	-0.234795	-0.503711
O7	O	1.882000	-0.378419	-0.151138
O8	O	1.766510	-0.114727	-0.385911
O9	O	2.102981	-0.355840	-0.340620
O10	O	1.933944	-0.097619	-0.529479
O11	O	1.736958	-0.274482	-0.170661
O12	O	1.549416	-0.272694	-0.389721
O13	O	1.773341	-0.352696	-0.725657
O14	O	1.552360	-0.375276	-0.536175
O15	O	1.937830	-0.233007	-0.722771
O16	O	1.885886	-0.513807	-0.344429
O17	O	1.743789	-0.512452	-0.510407
C18	C	1.505171	-0.326312	-0.466259
C19	C	1.365124	-0.333460	-0.476426
C20	C	1.812002	-0.546156	-0.424986
C21	C	1.803337	-0.647325	-0.417503
C22	C	1.961297	-0.819464	-0.553120
C23	C	1.953160	-0.914521	-0.546093
C24	C	1.778924	-0.932497	-0.396429
C25	C	1.787060	-0.837440	-0.403456
C26	C	1.878251	-0.780927	-0.481803
C27	C	1.886392	-0.685868	-0.488823
C28	C	1.712150	-0.703846	-0.339166
C29	C	1.704014	-0.798903	-0.332139
C30	C	2.161172	-0.292926	-0.418763
C31	C	2.301219	-0.285798	-0.408624
C32	C	1.859432	-0.290048	-0.771212
C33	C	1.870895	-0.281695	-0.911265
C34	C	1.853180	-0.072220	-0.460221
C35	C	1.861978	0.028959	-0.467749
C36	C	1.805815	-0.329108	-0.115180
C37	C	1.794618	-0.337193	0.024871
H38	H	1.353652	-0.239526	-0.342785
H39	H	1.312697	-0.379735	-0.542252
C40	C	2.057781	-0.677650	-0.636072
C41	C	1.986617	-0.623746	-0.574950
H42	H	2.119648	-0.639298	-0.689253
H43	H	2.098370	-0.715521	-0.574987
H44	H	2.003587	-0.714680	-0.685445
H45	H	2.040810	-0.586721	-0.525569
H46	H	1.946027	-0.585860	-0.636043
H47	H	1.704676	-0.978527	-0.332649
C48	C	2.126199	-0.887200	-0.694736
C49	C	2.044446	-0.956882	-0.624488
H50	H	2.182558	-0.913354	-0.743132
H51	H	2.078369	-0.850074	-0.749595
H52	H	2.173128	-0.850924	-0.639117
H53	H	1.997509	-0.993154	-0.680108
H54	H	2.092281	-0.994024	-0.569624
C55	C	1.614182	-0.952602	-0.254905
C56	C	1.603788	-0.861028	-0.246016
H57	H	1.552312	-0.990952	-0.201725
H58	H	1.601252	-0.964057	-0.339728
H59	H	1.696031	-0.964903	-0.229267
H60	H	1.521942	-0.848725	-0.271663
H61	H	1.616709	-0.849568	-0.161174
H62	H	1.720548	-0.391100	-0.922660
C63	C	1.647248	-0.566115	-0.283480
C64	C	1.620853	-0.661485	-0.260772
H65	H	1.590883	-0.539965	-0.235086
H66	H	1.731745	-0.547278	-0.260135
H67	H	1.636995	-0.546425	-0.370621
H68	H	1.631116	-0.681175	-0.173632
H69	H	1.536336	-0.680330	-0.284109
H70	H	1.944979	-0.227790	-0.963739
H71	H	2.035556	-0.773450	-0.616904
