data_functionalizedCrystal
_audit_creation_method	'MofGen! by Chris Wilmer'
_symmetry_space_group_name_H-M	'P1'
_symmetry_Int_Tables_number	1
_symmetry_cell_setting	triclinic
loop_
_symmetry_equiv_pos_as_xyz
  x,y,z
_cell_length_a	9.065215
_cell_length_b	16.974813
_cell_length_c	7.540329
_cell_angle_alpha	86.341850
_cell_angle_beta	89.997574
_cell_angle_gamma	84.203340
loop_
_atom_site_label
_atom_site_type_symbol
_atom_site_fract_x
_atom_site_fract_y
_atom_site_fract_z
O1	O	1.957275	0.115924	-0.164096
O2	O	2.457275	0.615924	0.335904
O3	O	1.527733	0.125436	-0.165469
O4	O	2.027733	0.625436	0.334531
O5	O	1.754479	0.005663	-0.148267
O6	O	2.254479	0.505663	0.351733
O7	O	1.730529	0.235698	-0.181299
O8	O	2.230529	0.735698	0.318701
O9	O	1.754465	0.005661	0.146699
O10	O	2.254465	0.505661	0.646699
O11	O	1.527720	0.125435	0.129496
O12	O	2.027720	0.625435	0.629496
O13	O	1.957261	0.115923	0.130869
O14	O	2.457261	0.615923	0.630869
Cu15	Cu	1.742489	0.120678	0.157115
Cu16	Cu	2.242489	0.620678	0.657115
Cu17	Cu	1.742505	0.120680	-0.191716
Cu18	Cu	2.242505	0.620680	0.308284
O19	O	1.730516	0.235696	0.113666
O20	O	2.230516	0.735696	0.613666
C21	C	1.472764	0.124522	-0.017857
C22	C	1.972764	0.624522	0.482143
C23	C	1.308995	0.121790	-0.017467
C24	C	1.808995	0.621790	0.482533
C25	C	1.753561	-0.023803	0.003443
C26	C	2.253561	0.476197	0.503443
C27	C	1.750829	-0.111600	0.016039
C28	C	2.250829	0.388400	0.516039
C29	C	1.749556	-0.152841	-0.138828
C30	C	2.249556	0.347159	0.361172
C31	C	1.746979	-0.235334	-0.126987
C32	C	2.246979	0.264666	0.373013
C33	C	1.745686	-0.276585	0.039722
C34	C	2.245686	0.223415	0.539722
C35	C	1.746955	-0.235338	0.194600
C36	C	2.246955	0.264662	0.694600
C37	C	1.749521	-0.152845	0.182758
C38	C	2.249521	0.347155	0.682758
C39	C	1.738001	-0.523302	0.092381
C40	C	2.238001	-0.023302	0.592381
C41	C	1.735439	-0.605800	0.104212
C42	C	2.235439	-0.105800	0.604212
C43	C	1.735461	-0.605791	-0.217377
C44	C	2.235461	-0.105791	0.282623
C45	C	1.738036	-0.523297	-0.229205
C46	C	2.238036	-0.023297	0.270795
C47	C	1.739296	-0.482056	-0.074327
C48	C	2.239296	0.017944	0.425673
N49	N	1.743057	-0.360907	0.051829
N50	N	2.243057	0.139093	0.551829
N51	N	1.741915	-0.397735	-0.086435
N52	N	2.241915	0.102265	0.413565
C53	C	2.012230	0.116837	-0.016748
C54	C	2.512230	0.616837	0.483252
C55	C	2.176000	0.119569	-0.017149
C56	C	2.676000	0.619569	0.482851
C57	C	1.731434	0.265162	-0.038048
C58	C	2.231434	0.765162	0.461952
C59	C	1.734166	0.352958	-0.050655
C60	C	2.234166	0.852958	0.449345
N61	N	1.742489	0.120677	0.402464
N62	N	2.242489	0.620677	0.902464
N63	N	1.742517	0.120676	-0.437063
N64	N	2.242517	0.620676	0.062937
H65	H	1.750617	-0.119261	-0.274581
H66	H	2.250617	0.380739	0.225419
F67	F	1.745626	-0.279223	-0.291819
F68	F	2.245626	0.220777	0.208181
H69	H	1.734431	-0.639378	-0.343470
H70	H	2.234431	-0.139378	0.156530
H71	H	1.750536	-0.119266	0.308867
H72	H	2.250536	0.380734	0.808867
H73	H	1.734378	-0.639384	0.239973
H74	H	2.234378	-0.139384	0.739973
H75	H	1.739056	-0.489735	0.218494
H76	H	2.239056	0.010265	0.718494
F77	F	1.745562	-0.279241	0.372026
F78	F	2.245562	0.220759	0.872026
F79	F	1.739415	-0.479401	-0.406640
F80	F	2.239415	0.020599	0.093360
