data_functionalizedCrystal
_audit_creation_method	'MofGen! by Chris Wilmer'
_symmetry_space_group_name_H-M	'P1'
_symmetry_Int_Tables_number	1
_symmetry_cell_setting	triclinic
loop_
_symmetry_equiv_pos_as_xyz
  x,y,z
_cell_length_a	14.519731
_cell_length_b	16.109301
_cell_length_c	15.186229
_cell_angle_alpha	90.000638
_cell_angle_beta	89.995270
_cell_angle_gamma	96.424833
loop_
_atom_site_label
_atom_site_type_symbol
_atom_site_fract_x
_atom_site_fract_y
_atom_site_fract_z
O1	O	0.118539	-1.103344	-0.073175
O2	O	0.133291	-0.861309	-0.073189
O3	O	-0.008336	-0.988734	-0.073174
O4	O	0.260165	-0.975918	-0.073190
O5	O	-0.008338	-0.988726	0.073284
O6	O	0.133289	-0.861300	0.073268
O7	O	0.118537	-1.103335	0.073282
Zn8	Zn	0.125912	-0.982316	0.096529
Zn9	Zn	0.125915	-0.982328	-0.096435
O10	O	0.260163	-0.975910	0.073267
C11	C	0.132692	-0.830328	0.000038
C12	C	0.130901	-0.738030	0.000033
C13	C	-0.042695	-0.988129	0.000055
C14	C	-0.145072	-0.986330	0.000056
C15	C	0.119135	-1.134316	0.000054
C16	C	0.120927	-1.226614	0.000053
C17	C	-0.228213	-0.984868	0.000054
C18	C	-0.332518	-0.983041	0.000047
C19	C	-0.415654	-0.981591	0.000041
C20	C	-0.519965	-0.979764	0.000036
C21	C	0.294523	-0.976515	0.000036
C22	C	0.396899	-0.978314	0.000030
N23	N	0.125910	-0.982315	0.228221
C24	C	0.210773	-0.515901	0.000038
C25	C	0.209083	-0.429178	0.000044
C26	C	0.041048	-0.448750	0.000050
C27	C	0.042739	-0.535471	0.000051
C28	C	0.127605	-0.569045	0.000040
C29	C	0.124223	-0.395599	0.000045
C30	C	0.122389	-0.301570	0.000052
C31	C	0.129439	-0.663080	0.000036
N32	N	0.125910	-0.982336	-0.228128
C33	C	0.063219	-1.038758	0.453951
C34	C	0.063217	-1.038761	0.546141
C35	C	0.188604	-0.925886	0.546136
C36	C	0.188601	-0.925880	0.453948
C37	C	0.125910	-0.982321	0.407858
C38	C	0.125910	-0.982330	0.592235
C39	C	0.125908	-0.982332	0.692192
C40	C	0.125910	-0.982318	0.307895
H41	H	0.279876	-0.543233	0.000036
O42	O	0.298785	-0.371856	0.000038
H43	H	0.358077	-0.409774	0.000026
O44	O	-0.046971	-0.592797	0.000062
H45	H	-0.050216	-0.632785	-0.059625
H46	H	-0.028047	-0.421403	0.000064
H47	H	0.012170	-1.084714	0.416427
H48	H	0.012167	-1.084716	0.583667
H49	H	0.239648	-0.879935	0.583672
O50	O	0.256224	-0.865009	0.404223
H51	H	0.299828	-0.825773	0.451758
