data_functionalizedCrystal
_audit_creation_method	'MofGen! by Chris Wilmer'
_symmetry_space_group_name_H-M	'P1'
_symmetry_Int_Tables_number	1
_symmetry_cell_setting	triclinic
loop_
_symmetry_equiv_pos_as_xyz
  x,y,z
_cell_length_a	11.026607
_cell_length_b	14.519731
_cell_length_c	10.065875
_cell_angle_alpha	98.805316
_cell_angle_beta	79.302338
_cell_angle_gamma	96.137435
loop_
_atom_site_label
_atom_site_type_symbol
_atom_site_fract_x
_atom_site_fract_y
_atom_site_fract_z
O1	O	1.628775	0.375711	-0.113512
O2	O	2.128775	0.875711	0.386488
O3	O	1.275369	0.331720	-0.113512
O4	O	1.775369	0.831720	0.386488
O5	O	1.461426	0.221021	-0.113499
O6	O	1.961426	0.721021	0.386501
O7	O	1.442717	0.486410	-0.113524
O8	O	1.942717	0.986410	0.386476
O9	O	1.425948	0.242238	0.113487
O10	O	1.925948	0.742238	0.613487
O11	O	1.239890	0.352937	0.113475
O12	O	1.739890	0.852937	0.613475
O13	O	1.593296	0.396928	0.113474
O14	O	2.093296	0.896928	0.613474
Zn15	Zn	1.410960	0.378301	0.149514
Zn16	Zn	1.910960	0.878301	0.649514
Zn17	Zn	1.457705	0.350347	-0.149551
Zn18	Zn	1.957705	0.850347	0.350449
O19	O	1.407239	0.507627	0.113462
O20	O	1.907239	1.007627	0.613462
C21	C	1.212400	0.334213	-0.000018
C22	C	1.712400	0.834213	0.499982
C23	C	1.077631	0.310021	-0.000018
C24	C	1.577631	0.810021	0.499982
C25	C	1.442810	0.197126	-0.000006
C26	C	1.942810	0.697126	0.499994
C27	C	1.440183	0.094313	-0.000005
C28	C	1.940183	0.594313	0.499995
C29	C	1.003978	0.376820	-0.000025
C30	C	1.503978	0.876820	0.499975
C31	C	0.864687	0.351817	-0.000024
C32	C	1.364687	0.851817	0.499976
C33	C	1.438048	0.010817	-0.000008
C34	C	1.938048	0.510817	0.499992
C35	C	1.435382	-0.093933	-0.000019
C36	C	1.935382	0.406067	0.499981
C37	C	1.433266	-0.177421	-0.000027
C38	C	1.933266	0.322579	0.499973
C39	C	1.430600	-0.282177	-0.000035
C40	C	1.930600	0.217823	0.499965
C41	C	1.656265	0.394435	-0.000022
C42	C	2.156265	0.894435	0.499978
C43	C	1.791036	0.418627	-0.000031
C44	C	2.291036	0.918627	0.499969
C45	C	1.425855	0.531522	-0.000034
C46	C	1.925855	1.031522	0.499966
C47	C	1.428484	0.634334	-0.000044
C48	C	1.928484	1.134334	0.499956
N49	N	1.379067	0.397381	0.353617
N50	N	1.879067	0.897381	0.853617
N51	N	1.489607	0.331262	-0.353654
N52	N	1.989607	0.831262	0.146346
C53	C	1.446600	0.356978	0.421400
C54	C	1.946600	0.856978	0.921400
C55	C	1.422064	0.371671	0.578566
C56	C	1.922064	0.871671	1.078566
H57	H	1.044041	0.452520	-0.000024
H58	H	1.544041	0.952520	0.499976
H59	H	1.522579	0.311506	0.363081
H60	H	2.022579	0.811506	0.863081
O61	O	1.288332	0.451619	0.422971
O62	O	1.788332	0.951619	0.922971
C63	C	1.230325	0.486352	0.329431
C64	C	1.730325	0.986352	0.829431
H65	H	1.244554	0.438820	0.227538
H66	H	1.744554	0.938820	0.727538
H67	H	1.127004	0.488344	0.370843
H68	H	1.627004	0.988344	0.870843
H69	H	1.272509	0.559977	0.314274
H70	H	1.772509	1.059977	0.814274
H71	H	1.037572	0.234318	-0.000046
H72	H	1.537572	0.734318	0.499954
O73	O	1.331335	0.425796	0.648277
O74	O	1.831335	0.925796	1.148277
C75	C	1.243278	0.371743	0.730925
C76	C	1.743278	0.871743	1.230925
H77	H	1.287914	0.309453	0.752184
H78	H	1.787914	0.809453	1.252184
H79	H	1.208684	0.416450	0.831467
H80	H	1.708684	0.916450	1.331467
H81	H	1.162031	0.345616	0.675960
H82	H	1.662031	0.845616	1.175960
H83	H	0.824634	0.276110	-0.000052
H84	H	1.324634	0.776110	0.499948
H85	H	0.831091	0.494332	-0.000029
H86	H	1.331091	0.994332	0.499971
O87	O	1.579983	0.276763	0.576778
O88	O	2.079983	0.776763	1.076778
C89	C	1.527209	0.201450	0.494372
C90	C	2.027209	0.701450	0.994372
H91	H	1.435838	0.220771	0.472987
H92	H	1.935838	0.720771	0.972987
H93	H	1.593400	0.185565	0.393878
H94	H	2.093400	0.685565	0.893878
H95	H	1.509716	0.137113	0.549613
H96	H	2.009716	0.637113	1.049613
