data_functionalizedCrystal
_audit_creation_method	'MofGen! by Chris Wilmer'
_symmetry_space_group_name_H-M	'P1'
_symmetry_Int_Tables_number	1
_symmetry_cell_setting	triclinic
loop_
_symmetry_equiv_pos_as_xyz
  x,y,z
_cell_length_a	16.992694
_cell_length_b	23.532407
_cell_length_c	15.455313
_cell_angle_alpha	92.643560
_cell_angle_beta	87.142206
_cell_angle_gamma	86.758451
loop_
_atom_site_label
_atom_site_type_symbol
_atom_site_fract_x
_atom_site_fract_y
_atom_site_fract_z
O1	O	1.042902	0.118384	-0.072037
O2	O	1.542902	0.618384	0.427963
O3	O	0.814628	0.117059	-0.072062
O4	O	1.314628	0.617059	0.427938
O5	O	0.935648	0.035132	-0.072033
O6	O	1.435648	0.535132	0.427967
O7	O	0.921882	0.200311	-0.072066
O8	O	1.421882	0.700311	0.427934
O9	O	0.928727	0.039796	0.072228
O10	O	1.428727	0.539796	0.572228
O11	O	0.807707	0.121723	0.072198
O12	O	1.307707	0.621723	0.572198
O13	O	1.035981	0.123049	0.072224
O14	O	1.535981	0.623049	0.572224
Cu15	Cu	0.921212	0.122812	0.085383
Cu16	Cu	1.421212	0.622812	0.585383
Cu17	Cu	0.929397	0.117296	-0.085222
Cu18	Cu	1.429397	0.617296	0.414778
O19	O	0.914962	0.204976	0.072194
O20	O	1.414962	0.704976	0.572194
C21	C	0.781968	0.117688	0.000065
C22	C	1.281968	0.617688	0.500065
C23	C	0.694964	0.112604	0.000056
C24	C	1.194964	0.612604	0.500056
C25	C	0.644342	0.161650	0.000047
C26	C	1.144342	0.661650	0.500047
C27	C	0.562592	0.156871	0.000060
C28	C	1.062592	0.656871	0.500060
C29	C	0.531466	0.103045	0.000076
C30	C	1.031466	0.603045	0.500076
C31	C	0.582095	0.053995	0.000088
C32	C	1.082095	0.553995	0.500088
C33	C	0.663843	0.058775	0.000081
C34	C	1.163843	0.558775	0.500081
C35	C	0.288022	0.083234	0.000103
C36	C	0.788022	0.583234	0.500103
C37	C	0.206267	0.078457	0.000107
C38	C	0.706267	0.578457	0.500107
C39	C	0.186770	0.181334	0.000081
C40	C	0.686770	0.681334	0.500081
C41	C	0.268521	0.186109	0.000069
C42	C	0.768521	0.686109	0.500069
C43	C	0.319142	0.137059	0.000085
C44	C	0.819142	0.637059	0.500085
N45	N	0.447905	0.098158	0.000086
N46	N	0.947905	0.598158	0.500086
N47	N	0.402701	0.141946	0.000081
N48	N	0.902701	0.641946	0.500081
C49	C	0.931837	0.016231	0.000100
C50	C	1.431837	0.516231	0.500100
C51	C	0.930782	-0.047038	0.000106
C52	C	1.430782	0.452962	0.500106
C53	C	0.995791	-0.442917	0.000066
C54	C	1.495791	0.057083	0.500066
C55	C	0.994812	-0.502366	0.000059
C56	C	1.494812	-0.002366	0.500059
O57	O	1.055075	-0.536121	0.000034
O58	O	1.555075	-0.036121	0.500034
N59	N	0.922865	-0.528562	0.000052
N60	N	1.422865	-0.028562	0.500052
C61	C	0.851893	-0.495307	0.000042
C62	C	1.351893	0.004693	0.500042
O63	O	0.790607	-0.523048	0.000035
O64	O	1.290607	-0.023048	0.500035
C65	C	0.852873	-0.435859	0.000043
C66	C	1.352873	0.064141	0.500043
C67	C	0.924824	-0.409666	0.000059
C68	C	1.424824	0.090334	0.500059
C69	C	1.067736	-0.416723	0.000081
C70	C	1.567736	0.083277	0.500081
C71	C	1.068714	-0.357278	0.000089
C72	C	1.568714	0.142722	0.500089
C73	C	0.997748	-0.324027	0.000083
C74	C	1.497748	0.175973	0.500083
C75	C	0.925803	-0.350221	0.000067
C76	C	1.425803	0.149779	0.500067
C77	C	0.781902	-0.402605	0.000027
C78	C	1.281902	0.097395	0.500027
C79	C	0.782889	-0.343154	0.000027
C80	C	1.282889	0.156846	0.500027
C81	C	0.854839	-0.316960	0.000043
C82	C	1.354839	0.183040	0.500043
C83	C	0.855814	-0.257525	0.000069
C84	C	1.355814	0.242475	0.500069
N85	N	0.927761	-0.231328	0.000076
N86	N	1.427761	0.268672	0.500076
C87	C	0.998728	-0.264579	0.000083
C88	C	1.498728	0.235421	0.500083
C89	C	0.849841	-0.620151	0.000040
C90	C	1.349841	-0.120151	0.500040
C91	C	0.848860	-0.679598	0.000046
C92	C	1.348860	-0.179598	0.500046
C93	C	0.991779	-0.686653	0.000061
C94	C	1.491779	-0.186653	0.500061
C95	C	0.992759	-0.627205	0.000061
C96	C	1.492759	-0.127205	0.500061
C97	C	0.921788	-0.593955	0.000047
C98	C	1.421788	-0.093955	0.500047
C99	C	1.000777	-0.139740	0.000101
C100	C	1.500777	0.360260	0.500101
C101	C	1.001749	-0.080289	0.000113
C102	C	1.501749	0.419711	0.500113
C103	C	0.858831	-0.073240	0.000093
C104	C	1.358831	0.426760	0.500093
C105	C	0.857858	-0.132685	0.000086
C106	C	1.357858	0.367315	0.500086
C107	C	0.928838	-0.165934	0.000087
C108	C	1.428838	0.334066	0.500087
O109	O	0.795583	-0.223733	0.000090
O110	O	1.295583	0.276267	0.500090
O111	O	1.060004	-0.236831	0.000079
O112	O	1.560004	0.263169	0.500079
C113	C	1.068641	0.122420	0.000095
C114	C	1.568641	0.622420	0.500095
C115	C	1.155645	0.127504	0.000098
C116	C	1.655645	0.627504	0.500098
C117	C	0.918772	0.223877	0.000060
C118	C	1.418772	0.723877	0.500060
C119	C	0.919827	0.287146	0.000048
C120	C	1.419827	0.787146	0.500048
N121	N	0.915462	0.126692	0.205377
N122	N	1.415462	0.626692	0.705377
N123	N	0.935153	0.113412	-0.205216
N124	N	1.435153	0.613412	0.294784
C125	C	0.966893	0.091901	0.250784
C126	C	1.466893	0.591901	0.750784
C127	C	0.962551	0.094840	0.341591
C128	C	1.462551	0.594840	0.841591
C129	C	0.906782	0.132574	0.386989
C130	C	1.406782	0.632574	0.886989
C131	C	0.855345	0.167366	0.341576
C132	C	1.355345	0.667366	0.841576
C133	C	0.859684	0.164424	0.250771
C134	C	1.359684	0.664424	0.750771
C135	C	0.888055	0.145261	0.658566
C136	C	1.388055	0.645261	1.158566
C137	C	0.883722	0.148203	0.749378
C138	C	1.383722	0.648203	1.249378
C139	C	0.990928	0.075676	0.749386
C140	C	1.490928	0.575676	1.249386
C141	C	0.995265	0.072738	0.658579
C142	C	1.495265	0.572738	1.158579
C143	C	0.943825	0.107529	0.613174
C144	C	1.443825	0.607529	1.113174
N145	N	0.902344	0.135581	0.479808
N146	N	1.402344	0.635581	0.979808
N147	N	0.948260	0.104518	0.520356
N148	N	1.448260	0.604518	1.020356
H149	H	0.145546	0.221267	0.000069
H150	H	0.645546	0.721267	0.500069
H151	H	0.790269	-0.700919	0.000047
H152	H	1.290269	-0.200919	0.500047
O153	O	0.513461	0.204527	-0.000106
O154	O	1.013461	0.704527	0.499894
C155	C	0.531093	0.234573	-0.074822
C156	C	1.031093	0.734573	0.425178
H157	H	0.561763	0.204098	-0.127036
H158	H	1.061763	0.704098	0.372964
H159	H	0.474110	0.253953	-0.099901
H160	H	0.974110	0.753953	0.400099
H161	H	0.571662	0.269964	-0.057947
H162	H	1.071662	0.769964	0.442053
O163	O	0.789852	-0.040997	-0.000034
O164	O	1.289852	0.459003	0.499966
C165	C	0.749742	-0.055771	-0.074771
C166	C	1.249742	0.444229	0.425229
H167	H	0.770537	-0.100743	-0.099674
H168	H	1.270537	0.399257	0.400326
H169	H	0.683529	-0.054027	-0.057987
H170	H	1.183529	0.445973	0.442013
H171	H	0.762724	-0.024492	-0.127086
H172	H	1.262724	0.475508	0.372914
O173	O	1.012603	0.061029	0.385564
O174	O	1.512603	0.561029	0.885564
C175	C	1.062750	0.027089	0.326022
C176	C	1.562750	0.527089	0.826022
H177	H	1.066534	0.048372	0.261283
H178	H	1.566534	0.548372	0.761283
H179	H	1.124161	0.022140	0.352249
H180	H	1.624161	0.522140	0.852249
H181	H	1.038109	-0.016690	0.316389
H182	H	1.538109	0.483310	0.816389
H183	H	0.723313	-0.423922	0.000009
H184	H	1.223313	0.076078	0.500009
H185	H	0.180928	0.034624	0.000119
H186	H	0.680928	0.534624	0.500119
H187	H	1.049564	-0.713737	0.000063
H188	H	1.549564	-0.213737	0.500063
O189	O	1.071575	-0.054753	0.000162
O190	O	1.571575	0.445247	0.500162
C191	C	1.057230	0.004847	0.000146
C192	C	1.557230	0.504847	0.500146
H193	H	0.994643	0.016882	0.027454
H194	H	1.494643	0.516882	0.527454
H195	H	1.101233	0.026533	0.042034
H196	H	1.601233	0.526533	0.542034
H197	H	1.064214	0.019321	-0.069061
H198	H	1.564214	0.519321	0.430939
O199	O	1.049460	0.036032	0.614616
O200	O	1.549460	0.536032	1.114616
C201	C	1.093938	0.005964	0.674166
C202	C	1.593938	0.505964	1.174166
H203	H	1.058718	0.005941	0.738901
H204	H	1.558718	0.505941	1.238901
H205	H	1.107507	-0.039801	0.647943
H206	H	1.607507	0.460199	1.147943
H207	H	1.151556	0.027437	0.683807
H208	H	1.651556	0.527437	1.183807
O209	O	0.829467	0.184867	0.793345
O210	O	1.329467	0.684867	1.293345
C211	C	0.785004	0.214951	0.733799
C212	C	1.285004	0.714951	1.233799
H213	H	0.787399	0.189474	0.669076
H214	H	1.287399	0.689474	1.169076
H215	H	0.721089	0.221600	0.760045
H216	H	1.221089	0.721600	1.260045
H217	H	0.810569	0.258103	0.724126
H218	H	1.310569	0.758103	1.224126
O219	O	0.809837	0.198246	0.206565
O220	O	1.309837	0.698246	0.706565
C221	C	0.854044	0.233604	0.154034
C222	C	1.354044	0.733604	0.654034
H223	H	0.916204	0.213308	0.140430
H224	H	1.416204	0.713308	0.640430
H225	H	0.824309	0.239037	0.090181
H226	H	1.324309	0.739037	0.590181
H227	H	0.857365	0.277059	0.189011
H228	H	1.357365	0.777059	0.689011
H229	H	0.792043	-0.593082	0.000036
H230	H	1.292043	-0.093082	0.500036
O231	O	0.838209	0.179090	0.614377
O232	O	1.338209	0.679090	1.114377
C233	C	0.882420	0.214449	0.561853
C234	C	1.382420	0.714449	1.061853
H235	H	0.944575	0.194145	0.548238
H236	H	1.444575	0.694145	1.048238
H237	H	0.852681	0.219893	0.498005
H238	H	1.352681	0.719893	0.998005
H239	H	0.885754	0.257898	0.596841
H240	H	1.385754	0.757898	1.096841
H241	H	1.125529	-0.443790	0.000084
H242	H	1.625529	0.056210	0.500084
H243	H	0.293858	0.229939	0.000046
H244	H	0.793858	0.729939	0.500046
O245	O	1.062722	-0.601856	0.000030
O246	O	1.562722	-0.101856	0.500030
C247	C	1.125142	-0.643958	0.000060
C248	C	1.625142	-0.143958	0.500060
H249	H	1.104797	-0.686180	-0.027249
H250	H	1.604797	-0.186180	0.472751
H251	H	1.177414	-0.630607	-0.041820
H252	H	1.677414	-0.130607	0.458180
H253	H	1.143691	-0.649133	0.069272
H254	H	1.643691	-0.149133	0.569272
O255	O	0.713973	-0.310835	-0.000138
O256	O	1.213973	0.189165	0.499862
C257	C	0.713856	-0.278633	-0.074837
C258	C	1.213856	0.221367	0.425163
H259	H	0.756620	-0.300230	-0.127053
H260	H	1.256620	0.199770	0.372947
H261	H	0.651870	-0.275647	-0.099927
H262	H	1.151870	0.224353	0.400073
H263	H	0.732980	-0.233981	-0.057937
H264	H	1.232980	0.266019	0.442063
H265	H	0.809932	0.198088	0.378545
H266	H	1.309932	0.698088	0.878545
O267	O	0.551830	0.001716	-0.000050
O268	O	1.051830	0.501716	0.499950
C269	C	0.508686	-0.006537	-0.074750
C270	C	1.008686	0.493463	0.425250
H271	H	0.530287	0.022403	-0.126979
H272	H	1.030287	0.522403	0.373021
H273	H	0.517581	-0.052896	-0.099818
H274	H	1.017581	0.447104	0.400182
H275	H	0.443303	0.004207	-0.057858
H276	H	0.943303	0.504207	0.442142
O277	O	0.674619	0.213920	-0.000125
O278	O	1.174619	0.713920	0.499875
C279	C	0.724908	0.217343	-0.074833
C280	C	1.224908	0.717343	0.425167
H281	H	0.708304	0.185023	-0.127045
H282	H	1.208304	0.685023	0.372955
H283	H	0.718407	0.262079	-0.099923
H284	H	1.218407	0.762079	0.400077
H285	H	0.788676	0.207695	-0.057945
H286	H	1.288676	0.707695	0.442055
O287	O	1.069796	-0.171947	0.000144
O288	O	1.569796	0.328053	0.500144
C289	C	1.133499	-0.136070	0.000138
C290	C	1.633499	0.363930	0.500138
H291	H	1.111926	-0.091781	0.027449
H292	H	1.611926	0.408219	0.527449
H293	H	1.181186	-0.154359	0.042028
H294	H	1.681186	0.345641	0.542028
H295	H	1.158897	-0.133059	-0.069066
H296	H	1.658897	0.366941	0.430934
H297	H	1.032806	0.047350	0.786363
H298	H	1.532806	0.547350	1.286363
O299	O	1.138637	-0.331871	-0.000057
O300	O	1.638637	0.168129	0.499943
C301	C	1.185452	-0.350971	-0.074758
C302	C	1.685452	0.149029	0.425242
H303	H	1.145869	-0.366925	-0.126981
H304	H	1.645869	0.133075	0.373019
H305	H	1.219724	-0.314291	-0.099835
H306	H	1.719724	0.185709	0.400165
H307	H	1.228620	-0.387140	-0.057865
H308	H	1.728620	0.112860	0.442135
O309	O	0.337078	0.035530	0.000077
O310	O	0.837078	0.535530	0.500077
C311	C	0.292071	-0.013000	0.000112
C312	C	0.792071	0.487000	0.500112
H313	H	0.232248	-0.002209	-0.027203
H314	H	0.732248	0.497791	0.472797
H315	H	0.324512	-0.048951	-0.041761
H316	H	0.824512	0.451049	0.458239
H317	H	0.283060	-0.027084	0.069325
H318	H	0.783060	0.472916	0.569325
O319	O	0.713129	0.011191	0.000125
O320	O	1.213129	0.511191	0.500125
C321	C	0.791957	0.026950	0.000096
C322	C	1.291957	0.526950	0.500096
H323	H	0.793435	0.072692	0.027396
H324	H	1.293435	0.572692	0.527396
H325	H	0.827250	-0.002728	0.041984
H326	H	1.327250	0.497272	0.541984
H327	H	0.818929	0.023629	-0.069114
H328	H	1.318929	0.523629	0.430886
O329	O	1.020949	0.055191	0.206612
O330	O	1.520949	0.555191	0.706612
C331	C	0.981729	0.016432	0.154150
C332	C	1.481729	0.516432	0.654150
H333	H	0.920886	0.035869	0.140526
H334	H	1.420886	0.535869	0.640526
H335	H	1.017564	0.006822	0.090303
H336	H	1.517564	0.506822	0.590303
H337	H	0.975021	-0.024737	0.189198
H338	H	1.475021	0.475263	0.689198
H339	H	0.799269	-0.154012	0.000097
H340	H	1.299269	0.345988	0.500097
