data_functionalizedCrystal
_audit_creation_method	'MofGen! by Chris Wilmer'
_symmetry_space_group_name_H-M	'P1'
_symmetry_Int_Tables_number	1
_symmetry_cell_setting	triclinic
loop_
_symmetry_equiv_pos_as_xyz
  x,y,z
_cell_length_a	17.639874
_cell_length_b	12.759399
_cell_length_c	12.759393
_cell_angle_alpha	90.030906
_cell_angle_beta	78.827588
_cell_angle_gamma	101.237648
loop_
_atom_site_label
_atom_site_type_symbol
_atom_site_fract_x
_atom_site_fract_y
_atom_site_fract_z
Zn1	Zn	-1.208352	0.093260	-0.269917
Zn2	Zn	-1.208269	0.268998	-0.094258
Zn3	Zn	-1.076176	0.128856	-0.129704
Zn4	Zn	-1.076169	0.304444	-0.305326
O5	O	-1.142242	0.198889	-0.199801
O6	O	-1.318941	0.086840	-0.216962
O7	O	-1.190715	0.250470	0.048053
O8	O	-1.093747	-0.022897	-0.148318
O9	O	-1.318881	0.215954	-0.087906
O10	O	-1.190856	-0.049050	-0.251332
O11	O	-1.093667	0.147509	0.022011
O12	O	-0.965575	0.181880	-0.182654
O13	O	-1.093735	0.276368	-0.447642
O14	O	-0.965570	0.310884	-0.311683
O15	O	-1.190850	0.121211	-0.421626
O16	O	-1.190708	0.420731	-0.122241
O17	O	-1.093655	0.446773	-0.277313
C18	C	-0.936895	0.254092	-0.254858
C19	C	-0.849047	0.277733	-0.278436
C20	C	-0.560029	0.019205	-0.020634
C21	C	-0.477483	0.041441	-0.042803
C22	C	-0.477532	0.175958	-0.176930
C23	C	-0.560080	0.153730	-0.154775
C24	C	-0.601322	0.075353	-0.076625
C25	C	-0.601373	0.209877	-0.210766
C26	C	-0.683914	0.187655	-0.188609
C27	C	-0.725162	0.109284	-0.110461
C28	C	-0.683864	0.053130	-0.054468
C29	C	-0.560129	0.288259	-0.288911
C30	C	-0.601422	0.344407	-0.344902
C31	C	-0.683965	0.322179	-0.322751
C32	C	-0.725213	0.243808	-0.244602
C33	C	-0.725263	0.378333	-0.378743
C34	C	-0.807805	0.356110	-0.356586
C35	C	-0.807754	0.221586	-0.222445
C36	C	-0.348390	0.143459	-0.144519
C37	C	-0.436238	0.119804	-0.120934
C38	C	-1.142193	0.471870	-0.199790
C39	C	-1.142245	0.588633	-0.199801
C40	C	-1.142301	0.198773	-0.473819
C41	C	-1.142326	0.198723	-0.590589
C42	C	-1.142312	-0.075163	-0.199829
C43	C	-1.142342	-0.191947	-0.199841
C44	C	-1.192838	0.629884	-0.119117
C45	C	-1.192889	0.739594	-0.119138
C46	C	-1.091746	0.766794	-0.280534
C47	C	-1.091700	0.657085	-0.280516
C48	C	-1.192897	0.117921	-0.631905
C49	C	-1.192911	0.117872	-0.741626
C50	C	-1.091780	0.279437	-0.768704
C51	C	-1.091763	0.279480	-0.658987
C52	C	-1.142228	0.198918	0.073163
C53	C	-1.142356	0.198630	0.189973
H54	H	-0.593611	-0.044632	0.042988
H55	H	-0.717446	-0.010707	0.009154
H56	H	-1.233996	0.574151	-0.053395
O57	O	-1.042755	0.833379	-0.358952
C58	C	-1.032119	0.959970	-0.503710
C59	C	-1.087694	0.884626	-0.414930
H60	H	-1.068431	1.001407	-0.549008
H61	H	-0.990845	1.022592	-0.466566
H62	H	-0.995933	0.911625	-0.561334
H63	H	-1.123931	0.932882	-0.357277
H64	H	-1.128915	0.822002	-0.452148
H65	H	-1.234088	0.773174	-0.053438
O66	O	-0.437549	0.252005	-0.252971
C67	C	-0.412322	0.309926	-0.438381
C68	C	-0.457664	0.223744	-0.352358
H69	H	-0.428555	0.287096	-0.518759
H70	H	-0.428552	0.390274	-0.415533
H71	H	-0.346239	0.316176	-0.444542
H72	H	-0.523757	0.217397	-0.346153
H73	H	-0.441369	0.143441	-0.375241
O74	O	-1.242072	0.039517	-0.781868
C75	C	-1.348827	-0.003363	-0.877101
C76	C	-1.293190	0.085488	-0.831600
H77	H	-1.390181	0.033769	-0.917300
H78	H	-1.312603	-0.048564	-0.938253
H79	H	-1.384924	-0.061088	-0.809359
H80	H	-1.257082	0.143285	-0.899270
H81	H	-1.329460	0.130608	-0.770420
O82	O	-0.479948	0.310022	-0.310326
C83	C	-0.361495	0.442632	-0.314978
C84	C	-0.452298	0.418123	-0.290675
H85	H	-0.339112	0.530036	-0.299122
H86	H	-0.339027	0.389106	-0.261512
H87	H	-0.339123	0.426907	-0.402377
H88	H	-0.474738	0.433857	-0.203303
H89	H	-0.474712	0.471642	-0.344212
O90	O	-0.561317	0.420393	-0.420938
C91	C	-0.468140	0.459759	-0.587725
C92	C	-0.513523	0.373599	-0.501702
H93	H	-0.429475	0.421964	-0.653033
H94	H	-0.511795	0.496064	-0.624032
H95	H	-0.429511	0.525062	-0.549747
H96	H	-0.552154	0.308232	-0.539599
H97	H	-0.469825	0.337379	-0.465404
H98	H	-0.443865	-0.004295	0.002790
H99	H	-1.050615	0.345188	-0.824406
O100	O	-1.042663	0.616930	-0.358979
C101	C	-1.031931	0.495780	-0.503612
C102	C	-1.087548	0.541186	-0.414813
H103	H	-1.068197	0.434516	-0.548764
H104	H	-0.995822	0.563498	-0.561372
H105	H	-0.990587	0.455659	-0.466381
H106	H	-1.128940	0.581296	-0.451950
H107	H	-1.123601	0.473426	-0.357064
O108	O	-1.242032	0.039366	-0.565620
C109	C	-1.342370	-0.120858	-0.550340
C110	C	-1.286753	-0.031968	-0.625526
H111	H	-1.378553	-0.178542	-0.598740
H112	H	-1.306128	-0.166103	-0.508722
H113	H	-1.383644	-0.083684	-0.487872
H114	H	-1.245468	-0.069054	-0.688053
H115	H	-1.323044	0.013267	-0.667064
O116	O	-0.685158	0.454325	-0.454773
C117	C	-0.591973	0.493712	-0.621551
C118	C	-0.637357	0.407542	-0.535540
H119	H	-0.553303	0.455925	-0.686861
H120	H	-0.635626	0.530021	-0.657857
H121	H	-0.553347	0.559011	-0.583562
H122	H	-0.675984	0.342179	-0.573447
H123	H	-0.593662	0.371319	-0.499241
O124	O	-0.847792	0.145574	-0.146387
C125	C	-0.872957	0.087561	0.038990
C126	C	-0.827576	0.173723	-0.047032
H127	H	-0.856616	0.110277	0.119334
H128	H	-0.939052	0.081337	0.045297
H129	H	-0.856756	0.007230	0.015997
H130	H	-0.843710	0.254100	-0.024102
H131	H	-0.761492	0.179853	-0.053322
O132	O	-0.805343	0.087503	-0.088939
C133	C	-0.923808	-0.045066	-0.084360
C134	C	-0.833005	-0.020553	-0.108747
H135	H	-0.946200	-0.132422	-0.100386
H136	H	-0.946227	-0.029465	0.003060
H137	H	-0.946220	0.008575	-0.137775
H138	H	-0.810526	-0.074177	-0.055401
H139	H	-0.810640	-0.036122	-0.196190
O140	O	-0.847800	0.410711	-0.411110
C141	C	-0.839146	0.546523	-0.546458
C142	C	-0.793754	0.484747	-0.484809
H143	H	-0.795470	0.606411	-0.606041
H144	H	-0.877792	0.487993	-0.591167
H145	H	-0.877792	0.590953	-0.487739
H146	H	-0.755066	0.440314	-0.543455
H147	H	-0.755159	0.543329	-0.440083
H148	H	-1.050576	0.345279	-0.625349
