data_functionalizedCrystal
_audit_creation_method	'MofGen! by Chris Wilmer'
_symmetry_space_group_name_H-M	'P1'
_symmetry_Int_Tables_number	1
_symmetry_cell_setting	triclinic
loop_
_symmetry_equiv_pos_as_xyz
  x,y,z
_cell_length_a	14.853567
_cell_length_b	14.519709
_cell_length_c	13.930277
_cell_angle_alpha	89.994503
_cell_angle_beta	89.995755
_cell_angle_gamma	83.657538
loop_
_atom_site_label
_atom_site_type_symbol
_atom_site_fract_x
_atom_site_fract_y
_atom_site_fract_z
O1	O	1.196415	0.120405	-0.079767
O2	O	0.933961	0.134748	-0.079783
O3	O	1.072147	-0.006665	-0.079766
O4	O	1.058230	0.261817	-0.079784
O5	O	1.072128	-0.006668	0.079896
O6	O	0.933942	0.134745	0.079878
O7	O	1.196396	0.120402	0.079895
Zn8	Zn	1.065166	0.127573	0.105236
Zn9	Zn	1.065191	0.127577	-0.105125
O10	O	1.058210	0.261814	0.079878
C11	C	0.900363	0.134096	0.000045
C12	C	0.800278	0.132149	0.000039
C13	C	0.387709	0.039914	0.000067
C14	C	0.366493	0.207916	0.000055
C15	C	0.460527	0.209747	0.000052
C16	C	0.518157	0.126660	0.000055
C17	C	0.481752	0.041743	0.000061
C18	C	0.496939	0.294663	0.000035
C19	C	0.590979	0.296498	0.000031
C20	C	0.648610	0.213410	0.000041
C21	C	0.612200	0.128489	0.000049
C22	C	0.669830	0.045403	0.000052
C23	C	0.633422	-0.039520	0.000066
C24	C	0.539383	-0.041345	0.000071
C25	C	0.742649	0.215235	0.000036
C26	C	0.763873	0.047231	0.000046
C27	C	1.071488	-0.041026	0.000065
C28	C	1.069545	-0.143407	0.000065
C29	C	1.062390	-0.518299	0.000040
C30	C	1.064377	-0.413992	0.000047
C31	C	1.065967	-0.330856	0.000054
C32	C	1.067955	-0.226543	0.000059
C33	C	1.229994	0.121053	0.000064
C34	C	1.330079	0.123001	0.000064
C35	C	1.058869	0.296175	0.000044
C36	C	1.060812	0.398556	0.000038
N37	N	1.065155	0.127569	0.248803
N38	N	1.065209	0.127573	-0.248691
C39	C	1.004000	0.190170	0.701064
C40	C	1.126407	0.064977	0.701049
C41	C	1.126396	0.064974	0.600553
C42	C	1.065188	0.127571	0.550308
C43	C	1.003989	0.190171	0.600559
C44	C	1.187599	0.002381	0.550295
C45	C	1.187592	0.002376	0.449793
C46	C	1.126378	0.064970	0.399546
C47	C	1.065177	0.127571	0.449803
C48	C	1.003968	0.190168	0.399558
C49	C	0.942762	0.252767	0.449814
C50	C	0.942776	0.252764	0.550312
C51	C	1.126364	0.064972	0.299047
C52	C	1.003957	0.190169	0.299053
H53	H	0.772288	0.284378	0.000026
O54	O	0.626192	0.379066	0.000068
C55	C	0.595217	0.545510	0.000004
C56	C	0.555216	0.452067	-0.000019
H57	H	0.537851	0.604556	-0.000086
H58	H	0.638674	0.550627	0.066839
H59	H	0.638749	0.550520	-0.066797
H60	H	0.511643	0.446994	0.066737
H61	H	0.511810	0.446990	-0.066898
O62	O	0.819944	-0.033421	-0.000080
C63	C	0.938387	-0.128886	-0.082831
C64	C	0.874955	-0.037506	-0.082796
H65	H	0.982867	-0.132227	-0.149709
H66	H	0.983010	-0.132243	-0.016064
H67	H	0.896190	-0.189874	-0.082773
H68	H	0.917081	0.023534	-0.082888
H69	H	0.830330	-0.034230	-0.149557
H70	H	0.319566	0.275561	0.000044
O71	O	0.689499	-0.120166	-0.000061
C72	C	0.807954	-0.215613	-0.082815
C73	C	0.744509	-0.124242	-0.082778
H74	H	0.852432	-0.218947	-0.149695
H75	H	0.852577	-0.218963	-0.016049
H76	H	0.765767	-0.276610	-0.082756
H77	H	0.786623	-0.063194	-0.082871
H78	H	0.699881	-0.120974	-0.149538
H79	H	0.358060	-0.029228	0.000082
O80	O	0.504166	-0.123911	0.000115
C81	C	0.535129	-0.290356	0.000052
C82	C	0.575137	-0.196917	0.000032
H83	H	0.592490	-0.349406	-0.000036
H84	H	0.491659	-0.295481	0.066883
H85	H	0.491608	-0.295351	-0.066753
H86	H	0.618699	-0.191859	0.066791
H87	H	0.618556	-0.191832	-0.066844
H88	H	0.954110	0.241140	0.258150
H89	H	0.450011	0.362307	0.000023
O90	O	0.883340	0.313485	0.400853
C91	C	0.829133	0.369003	0.246023
C92	C	0.896458	0.300179	0.301355
H93	H	0.839728	0.358283	0.165569
H94	H	0.756889	0.356849	0.265714
H95	H	0.840984	0.442884	0.265831
H96	H	0.884690	0.226272	0.281576
H97	H	0.968679	0.312414	0.281659
H98	H	1.237428	-0.048595	0.408882
H99	H	0.892944	0.303730	0.591236
O100	O	0.944422	0.250881	0.749834
C101	C	0.787754	0.304654	0.780556
C102	C	0.855127	0.235834	0.725280
H103	H	0.715545	0.292525	0.760710
H104	H	0.798192	0.293901	0.861028
H105	H	0.799658	0.378536	0.760802
H106	H	0.843263	0.161924	0.744954
H107	H	0.844673	0.246668	0.644822
H108	H	1.176246	0.014016	0.741962
O109	O	1.246968	-0.058385	0.599249
C110	C	1.301263	-0.113829	0.754074
C111	C	1.233963	-0.044973	0.698748
H112	H	1.290785	-0.102996	0.834528
H113	H	1.289404	-0.187740	0.734396
H114	H	1.373475	-0.101681	0.734247
H115	H	1.161725	-0.057036	0.718546
H116	H	1.245901	0.028914	0.718431
H117	H	1.176201	0.014010	0.258134
