data_functionalizedCrystal
_audit_creation_method	'MofGen! by Chris Wilmer'
_symmetry_space_group_name_H-M	'P1'
_symmetry_Int_Tables_number	1
_symmetry_cell_setting	triclinic
loop_
_symmetry_equiv_pos_as_xyz
  x,y,z
_cell_length_a	11.026607
_cell_length_b	27.732048
_cell_length_c	9.482900
_cell_angle_alpha	99.251554
_cell_angle_beta	78.636152
_cell_angle_gamma	95.614336
loop_
_atom_site_label
_atom_site_type_symbol
_atom_site_fract_x
_atom_site_fract_y
_atom_site_fract_z
O1	O	1.625408	0.196163	-0.120955
O2	O	1.272533	0.173153	-0.120950
O3	O	1.459925	0.115249	-0.120925
O4	O	1.438015	0.254067	-0.120980
O5	O	1.421861	0.127071	0.120862
O6	O	1.234468	0.184975	0.120837
O7	O	1.587343	0.207985	0.120832
Cu8	Cu	1.407430	0.197559	0.142912
Cu9	Cu	1.452446	0.183578	-0.143030
O10	O	1.399950	0.265889	0.120807
C11	C	1.208369	0.174819	-0.000055
C12	C	1.073891	0.162164	-0.000052
C13	C	0.999433	0.197105	-0.000067
C14	C	0.860443	0.184027	-0.000064
C15	C	1.440432	0.103112	-0.000028
C16	C	1.439045	0.049333	-0.000016
C17	C	1.541074	-0.280305	-0.000092
C18	C	1.535937	-0.482429	-0.000112
O19	O	1.629234	-0.505292	-0.000177
N20	N	1.424818	-0.511552	-0.000109
C21	C	1.314976	-0.490142	-0.000110
O22	O	1.220347	-0.519552	-0.000123
C23	C	1.320117	-0.288020	-0.000101
C24	C	1.431241	-0.258899	-0.000089
C25	C	1.652189	-0.251184	-0.000082
C26	C	1.653471	-0.200656	-0.000069
C27	C	1.543638	-0.179249	-0.000066
C28	C	1.432523	-0.208371	-0.000076
C29	C	1.210279	-0.266612	-0.000113
C30	C	1.211574	-0.216078	-0.000114
C31	C	1.322698	-0.186957	-0.000102
C32	C	1.323971	-0.136436	-0.000060
N33	N	1.435090	-0.107312	-0.000063
C34	C	1.544923	-0.128719	-0.000066
C35	C	1.312285	-0.596259	-0.000113
C36	C	1.310999	-0.646789	-0.000113
C37	C	1.531960	-0.639072	-0.000117
C38	C	1.533243	-0.588540	-0.000106
C39	C	1.423404	-0.567135	-0.000116
C40	C	1.547607	-0.022606	-0.000037
C41	C	1.548878	0.027926	-0.000018
C42	C	1.327919	0.020204	-0.000022
C43	C	1.326646	-0.030324	-0.000033
C44	C	1.436501	-0.051728	-0.000046
O45	O	1.230726	-0.113540	-0.000011
O46	O	1.639544	-0.099302	-0.000085
C47	C	1.539792	-0.330833	-0.000105
C48	C	1.428677	-0.359955	-0.000115
C49	C	1.318844	-0.338548	-0.000112
C50	C	1.427391	-0.410485	-0.000115
C51	C	1.537224	-0.431892	-0.000117
C52	C	1.648343	-0.402768	-0.000120
C53	C	1.649625	-0.352240	-0.000107
C54	C	1.207725	-0.367672	-0.000109
C55	C	1.206451	-0.418199	-0.000120
C56	C	1.316285	-0.439606	-0.000123
C57	C	1.651507	0.206319	-0.000066
C58	C	1.785986	0.218973	-0.000079
C59	C	1.419444	0.278026	-0.000094
C60	C	1.420833	0.331805	-0.000115
N61	N	1.375777	0.207393	0.344028
N62	N	1.484109	0.173742	-0.344146
C63	C	1.443101	0.186476	0.416236
C64	C	1.416774	0.194662	0.583650
H65	H	1.639372	0.051636	-0.000005
O66	O	1.576143	0.145113	0.581992
C67	C	1.633650	0.127265	0.681639
H68	H	1.566986	0.127722	0.790191
H69	H	1.659493	0.088162	0.637561
H70	H	1.720969	0.151477	0.697742
O71	O	1.046228	0.244325	-0.000338
C72	C	1.138164	0.247598	-0.125542
H73	H	1.122441	0.215515	-0.213061
H74	H	1.132846	0.283460	-0.167587
H75	H	1.233545	0.246467	-0.097224
H76	H	1.520227	0.162505	0.354118
O77	O	1.218810	-0.058676	-0.000225
C78	C	1.231164	-0.094239	-0.125482
H79	H	1.333466	-0.100496	-0.167234
H80	H	1.179073	-0.130031	-0.097338
H81	H	1.190943	-0.080947	-0.213160
O82	O	1.758900	-0.272008	-0.000339
C83	C	1.784491	-0.307131	-0.125541
H84	H	1.735962	-0.298376	-0.213073
H85	H	1.888808	-0.306337	-0.167565
H86	H	1.749401	-0.345082	-0.097227
O87	O	1.027180	0.114919	-0.000294
C88	C	0.974669	0.099404	-0.125495
H89	H	1.017950	0.122931	-0.213029
H90	H	0.993226	0.059433	-0.167516
H91	H	0.870371	0.103302	-0.097184
O92	O	1.638757	-0.659789	-0.000064
C93	C	1.737130	-0.623258	-0.000115
H94	H	1.698471	-0.586130	0.045672
H95	H	1.802982	-0.631737	0.070064
H96	H	1.789485	-0.622365	-0.116119
O97	O	0.832766	0.266196	-0.000373
C98	C	0.924691	0.269464	-0.125589
H99	H	0.908970	0.237373	-0.213086
H100	H	0.919356	0.305320	-0.167659
H101	H	1.020078	0.268342	-0.097278
O102	O	1.102326	-0.294903	0.000118
C103	C	1.075240	-0.318261	0.125311
H104	H	1.124529	-0.296576	0.212856
H105	H	0.970893	-0.320189	0.167319
H106	H	1.108394	-0.356905	0.096992
O107	O	1.104751	-0.195362	-0.000058
C108	C	1.006414	-0.231907	-0.000109
H109	H	1.030683	-0.264560	0.045664
H110	H	0.918459	-0.216580	0.070083
H111	H	0.990579	-0.244132	-0.116111
H112	H	1.339635	0.218631	0.645764
O113	O	1.283675	0.235985	0.417898
C114	C	1.226209	0.253855	0.318255
H115	H	1.242058	0.228667	0.209722
H116	H	1.122439	0.255029	0.362367
H117	H	1.267661	0.292318	0.302101
H118	H	0.821304	0.144426	-0.000085
H119	H	1.743960	-0.176949	-0.000065
O120	O	1.654418	-0.043312	0.000020
C121	C	1.752759	-0.006767	-0.000004
H122	H	1.714061	0.030355	0.045775
H123	H	1.818607	-0.015235	0.070197
H124	H	1.805130	-0.005868	-0.115998
H125	H	1.623730	-0.564832	-0.000098
O126	O	1.202954	-0.675006	-0.000172
C127	C	1.106292	-0.645268	-0.000137
H128	H	1.146814	-0.610355	-0.045908
H129	H	1.039702	-0.665991	-0.070337
H130	H	1.054196	-0.635413	0.115861
H131	H	1.238495	0.037643	-0.000014
O132	O	1.205628	-0.575403	0.000081
C133	C	1.180022	-0.540297	0.125323
H134	H	1.269562	-0.527334	0.167067
H135	H	1.138587	-0.507776	0.097162
H136	H	1.111213	-0.557394	0.213012
H137	H	1.737772	-0.420206	-0.000116
O138	O	1.098506	-0.446477	-0.000388
C139	C	1.051326	-0.442574	-0.125597
H140	H	1.130111	-0.430700	-0.213107
H141	H	1.006981	-0.479604	-0.167652
H142	H	0.978735	-0.414262	-0.097282
O143	O	1.757502	-0.323922	0.000149
C144	C	1.745151	-0.288338	0.125354
H145	H	1.668288	-0.301474	0.212883
H146	H	1.836263	-0.282307	0.167381
H147	H	1.720916	-0.252458	0.097046
O148	O	1.101097	-0.346872	-0.000358
C149	C	1.114931	-0.323977	-0.125553
H150	H	1.191020	-0.341284	-0.213088
H151	H	1.023846	-0.328874	-0.167578
H152	H	1.141109	-0.283261	-0.097232
