data_functionalizedCrystal
_audit_creation_method	'MofGen! by Chris Wilmer'
_symmetry_space_group_name_H-M	'P1'
_symmetry_Int_Tables_number	1
_symmetry_cell_setting	triclinic
loop_
_symmetry_equiv_pos_as_xyz
  x,y,z
_cell_length_a	17.000371
_cell_length_b	17.038272
_cell_length_c	16.098571
_cell_angle_alpha	87.133130
_cell_angle_beta	86.758802
_cell_angle_gamma	83.355402
loop_
_atom_site_label
_atom_site_type_symbol
_atom_site_fract_x
_atom_site_fract_y
_atom_site_fract_z
O1	O	1.054623	0.025154	0.069260
O2	O	1.387956	0.358487	0.402593
O3	O	1.721289	0.691821	0.735926
O4	O	0.824802	0.053399	0.069261
O5	O	1.158136	0.386732	0.402594
O6	O	1.491469	0.720065	0.735927
O7	O	0.938347	-0.074445	0.069254
O8	O	1.271680	0.258888	0.402587
O9	O	1.605014	0.592221	0.735920
O10	O	0.941078	0.152998	0.069267
O11	O	1.274411	0.486331	0.402600
O12	O	1.607745	0.819665	0.735933
O13	O	0.945094	-0.068671	-0.069258
O14	O	1.278427	0.264662	0.264075
O15	O	1.611760	0.597995	0.597409
O16	O	0.831549	0.059173	-0.069251
O17	O	1.164882	0.392506	0.264082
O18	O	1.498216	0.725839	0.597416
O19	O	1.061369	0.030928	-0.069252
O20	O	1.394703	0.364261	0.264081
O21	O	1.728036	0.697594	0.597415
Zn22	Zn	0.947530	0.045967	-0.091243
Zn23	Zn	1.280864	0.379300	0.242090
Zn24	Zn	1.614197	0.712634	0.575423
Zn25	Zn	0.938641	0.038360	0.091252
Zn26	Zn	1.271975	0.371693	0.424585
Zn27	Zn	1.605308	0.705026	0.757919
O28	O	0.947825	0.158772	-0.069245
O29	O	1.281158	0.492105	0.264088
O30	O	1.614491	0.825438	0.597422
C31	C	0.798625	0.057803	0.000005
C32	C	1.131958	0.391136	0.333338
C33	C	1.465291	0.724469	0.666672
C34	C	0.710572	0.062314	0.000005
C35	C	1.043905	0.395647	0.333339
C36	C	1.377238	0.728981	0.666672
C37	C	0.673845	-0.007108	-0.000000
C38	C	1.007179	0.326226	0.333333
C39	C	1.340512	0.659559	0.666666
C40	C	0.591110	-0.002864	0.000006
C41	C	0.924443	0.330469	0.333339
C42	C	1.257776	0.663802	0.666673
C43	C	0.545101	0.070801	0.000012
C44	C	0.878435	0.404135	0.333345
C45	C	1.211768	0.737468	0.666678
C46	C	0.581833	0.140228	0.000020
C47	C	0.915166	0.473561	0.333353
C48	C	1.248499	0.806895	0.666686
C49	C	0.664567	0.135984	0.000019
C50	C	0.997900	0.469317	0.333353
C51	C	1.331234	0.802650	0.666686
C52	C	0.295065	0.087195	0.000018
C53	C	0.628399	0.420528	0.333352
C54	C	0.961732	0.753861	0.666685
C55	C	0.212326	0.091434	0.000016
C56	C	0.545659	0.424767	0.333349
C57	C	0.878992	0.758100	0.666683
C58	C	0.221608	-0.051659	0.000004
C59	C	0.554941	0.281674	0.333337
C60	C	0.888275	0.615008	0.666671
C61	C	0.304344	-0.055897	-0.000001
C62	C	0.637677	0.277437	0.333332
C63	C	0.971010	0.610770	0.666665
C64	C	0.341068	0.013530	0.000011
C65	C	0.674401	0.346863	0.333344
C66	C	1.007734	0.680196	0.666678
C67	C	0.460532	0.075140	0.000016
C68	C	0.793865	0.408474	0.333349
C69	C	1.127199	0.741807	0.666682
C70	C	0.425635	0.009190	0.000013
C71	C	0.758969	0.342523	0.333347
C72	C	1.092302	0.675856	0.666680
C73	C	0.939236	-0.100516	-0.000002
C74	C	1.272569	0.232817	0.333331
C75	C	1.605902	0.566150	0.666664
C76	C	0.931823	-0.186802	-0.000002
C77	C	1.265156	0.146532	0.333331
C78	C	1.598489	0.479865	0.666665
C79	C	0.999881	-0.241577	-0.000003
C80	C	1.333215	0.091756	0.333330
C81	C	1.666548	0.425090	0.666664
C82	C	0.992911	-0.322651	0.000005
C83	C	1.326244	0.010683	0.333338
C84	C	1.659578	0.344016	0.666671
C85	C	0.917882	-0.348947	0.000008
C86	C	1.251215	-0.015613	0.333341
C87	C	1.584548	0.317720	0.666675
C88	C	0.849818	-0.294165	0.000012
C89	C	1.183151	0.039169	0.333345
C90	C	1.516485	0.372502	0.666678
C91	C	0.856789	-0.213093	0.000010
C92	C	1.190122	0.120240	0.333343
C93	C	1.523455	0.453574	0.666676
C94	C	0.893255	-0.593018	0.000020
C95	C	1.226589	-0.259685	0.333353
C96	C	1.559922	0.073648	0.666686
C97	C	0.886290	-0.674097	0.000019
C98	C	1.219623	-0.340763	0.333352
C99	C	1.552957	-0.007430	0.666686
C100	C	1.029384	-0.702577	0.000014
C101	C	1.362717	-0.369244	0.333347
C102	C	1.696050	-0.035911	0.666680
C103	C	1.036348	-0.621503	0.000007
C104	C	1.369681	-0.288169	0.333340
C105	C	1.703015	0.045164	0.666673
C106	C	0.968284	-0.566728	0.000015
C107	C	1.301617	-0.233394	0.333348
C108	C	1.634951	0.099939	0.666681
C109	C	0.910755	-0.431816	0.000013
C110	C	1.244089	-0.098483	0.333347
C111	C	1.577422	0.234850	0.666680
C112	C	0.975411	-0.483860	0.000015
C113	C	1.308744	-0.150527	0.333349
C114	C	1.642077	0.182807	0.666682
C115	C	1.087547	0.026524	0.000005
C116	C	1.420880	0.359857	0.333339
C117	C	1.754213	0.693190	0.666672
C118	C	1.175600	0.022012	0.000011
C119	C	1.508933	0.355346	0.333344
C120	C	1.842266	0.688679	0.666677
C121	C	0.946936	0.184843	0.000013
C122	C	1.280269	0.518176	0.333346
C123	C	1.613603	0.851509	0.666679
C124	C	0.954348	0.271128	0.000018
C125	C	1.287682	0.604461	0.333351
C126	C	1.621015	0.937794	0.666684
N127	N	0.953602	0.051158	-0.215791
N128	N	1.286936	0.384491	0.117542
N129	N	1.620269	0.717824	0.450875
C130	C	0.981695	0.075269	-0.740606
C131	C	1.315028	0.408602	-0.407273
C132	C	1.648362	0.741935	-0.073940
C133	C	0.977451	0.071632	-0.653418
C134	C	1.310784	0.404965	-0.320085
C135	C	1.644117	0.738298	0.013249
C136	C	0.924090	0.025883	-0.609825
C137	C	1.257423	0.359216	-0.276492
C138	C	1.590756	0.692549	0.056841
C139	C	0.874965	-0.016225	-0.653425
C140	C	1.208298	0.317108	-0.320092
C141	C	1.541631	0.650441	0.013242
C142	C	0.879205	-0.012583	-0.740612
C143	C	1.212539	0.320750	-0.407278
C144	C	1.545872	0.654084	-0.073945
C145	C	0.908718	0.012692	-0.346578
C146	C	1.242051	0.346025	-0.013245
C147	C	1.575385	0.679359	0.320089
C148	C	0.904483	0.009051	-0.259385
C149	C	1.237816	0.342384	0.073948
C150	C	1.571149	0.675718	0.407281
C151	C	1.006968	0.096910	-0.259384
C152	C	1.340301	0.430243	0.073949
C153	C	1.673635	0.763576	0.407282
C154	C	1.011208	0.100544	-0.346572
C155	C	1.344541	0.433877	-0.013239
C156	C	1.677874	0.767211	0.320094
C157	C	0.962079	0.058439	-0.390165
C158	C	1.295413	0.391773	-0.056831
C159	C	1.628746	0.725106	0.276502
C160	C	0.919752	0.022162	-0.520705
C161	C	1.253085	0.355495	-0.187371
C162	C	1.586419	0.688828	0.145962
C163	C	0.966414	0.062165	-0.479284
C164	C	1.299747	0.395498	-0.145950
C165	C	1.633080	0.728832	0.187383
N166	N	0.932575	0.033162	0.215800
N167	N	1.265908	0.366495	0.549133
N168	N	1.599242	0.699829	0.882467
H169	H	0.694468	0.192514	0.000020
H170	H	1.027801	0.525848	0.333354
H171	H	1.361135	0.859181	0.666687
Br172	Br	0.736278	-0.107087	-0.000017
Br173	Br	1.069611	0.226246	0.333317
Br174	Br	1.402944	0.559579	0.666650
Br175	Br	0.541269	-0.097085	0.000028
Br176	Br	0.874602	0.236248	0.333361
Br177	Br	1.207935	0.569582	0.666695
Br178	Br	0.784458	-0.709783	0.000015
Br179	Br	1.117792	-0.376449	0.333348
Br180	Br	1.451125	-0.043116	0.666681
H181	H	0.463098	-0.050789	0.000013
H182	H	0.796432	0.282545	0.333347
H183	H	1.129765	0.615878	0.666680
Br184	Br	0.366779	-0.155875	-0.000019
Br185	Br	0.700112	0.177459	0.333314
Br186	Br	1.033445	0.510792	0.666647
Br187	Br	0.842042	-0.044449	-0.405728
Br188	Br	1.175376	0.288884	-0.072395
Br189	Br	1.508709	0.622218	0.260939
H190	H	0.191698	-0.108183	0.000003
H191	H	0.525031	0.225151	0.333336
H192	H	0.858365	0.558484	0.666670
H193	H	0.174868	0.151425	0.000017
H194	H	0.508201	0.484758	0.333350
H195	H	0.841534	0.818091	0.666684
H196	H	1.046964	0.131190	-0.223882
H197	H	1.380298	0.464523	0.109451
H198	H	1.713631	0.797856	0.442785
H199	H	0.544366	0.200208	0.000030
H200	H	0.877699	0.533541	0.333363
H201	H	1.211033	0.866874	0.666697
Br202	Br	0.398086	0.175112	0.000028
Br203	Br	0.731419	0.508446	0.333361
Br204	Br	1.064753	0.841779	0.666694
Br205	Br	0.832088	-0.053072	-0.200223
Br206	Br	1.165421	0.280261	0.133110
Br207	Br	1.498754	0.613594	0.466443
Br208	Br	1.101712	-0.205898	-0.000020
Br209	Br	1.435045	0.127436	0.333314
Br210	Br	1.768379	0.460769	0.666647
H211	H	0.324955	0.143726	0.000034
H212	H	0.658289	0.477060	0.333367
H213	H	0.991622	0.810393	0.666701
Br214	Br	0.802539	-0.078307	-0.594264
Br215	Br	1.135872	0.255027	-0.260931
Br216	Br	1.469206	0.588360	0.072402
Br217	Br	1.085281	-0.396987	0.000003
Br218	Br	1.418614	-0.063654	0.333337
Br219	Br	1.751947	0.269680	0.666670
H220	H	1.097444	-0.600099	0.000004
H221	H	1.430778	-0.266766	0.333337
H222	H	1.764111	0.066567	0.666671
Br223	Br	1.121751	-0.776917	0.000003
Br224	Br	1.455084	-0.443584	0.333336
Br225	Br	1.788417	-0.110251	0.666669
Br226	Br	0.800882	-0.518692	0.000036
Br227	Br	1.134215	-0.185358	0.333369
Br228	Br	1.467548	0.147975	0.666703
Br229	Br	0.747991	-0.329852	0.000030
Br230	Br	1.081324	0.003482	0.333363
Br231	Br	1.414657	0.336815	0.666697
Br232	Br	1.054123	0.137352	-0.799760
Br233	Br	1.387456	0.470686	-0.466426
Br234	Br	1.720790	0.804019	-0.133093
Br235	Br	1.044087	0.128813	-0.594258
Br236	Br	1.377420	0.462146	-0.260925
Br237	Br	1.710753	0.795479	0.072409
Br238	Br	1.083628	0.162634	-0.405728
Br239	Br	1.416962	0.495967	-0.072395
Br240	Br	1.750295	0.829301	0.260938
H241	H	0.801368	-0.168494	0.000011
H242	H	1.134701	0.164839	0.333344
H243	H	1.468035	0.498172	0.666678
Br244	Br	0.812535	-0.069725	-0.799776
Br245	Br	1.145868	0.263609	-0.466443
Br246	Br	1.479202	0.596942	-0.133109
H247	H	1.036498	-0.462447	0.000031
H248	H	1.369832	-0.129114	0.333364
H249	H	1.703165	0.204220	0.666698
H250	H	0.849666	-0.453236	0.000014
H251	H	1.183000	-0.119902	0.333348
H252	H	1.516333	0.213431	0.666681
H253	H	1.009856	0.099418	-0.514781
H254	H	1.343190	0.432751	-0.181447
H255	H	1.676523	0.766084	0.151886
H256	H	0.876307	-0.015089	-0.485202
H257	H	1.209641	0.318244	-0.151868
H258	H	1.542974	0.651577	0.181465
