data_functionalizedCrystal
_audit_creation_method	'MofGen! by Chris Wilmer'
_symmetry_space_group_name_H-M	'P1'
_symmetry_Int_Tables_number	1
_symmetry_cell_setting	triclinic
loop_
_symmetry_equiv_pos_as_xyz
  x,y,z
_cell_length_a	10.540539
_cell_length_b	27.732048
_cell_length_c	9.616153
_cell_angle_alpha	89.992780
_cell_angle_beta	89.995174
_cell_angle_gamma	83.584073
loop_
_atom_site_label
_atom_site_type_symbol
_atom_site_fract_x
_atom_site_fract_y
_atom_site_fract_z
O1	O	1.682934	0.068112	-0.115597
O2	O	1.313243	0.074530	-0.115616
O3	O	1.509570	0.000996	-0.115579
O4	O	1.486607	0.141645	-0.115634
O5	O	1.509544	0.000998	0.115712
O6	O	1.313216	0.074531	0.115676
O7	O	1.682908	0.068113	0.115694
Zn8	Zn	1.498058	0.071323	0.152407
Zn9	Zn	1.498093	0.071320	-0.152329
O10	O	1.486580	0.141647	0.115658
C11	C	1.265947	0.074049	0.000028
C12	C	1.125062	0.072609	0.000022
C13	C	0.944031	0.017434	0.000583
C14	C	1.090586	0.018894	0.000047
C15	C	1.062282	0.098458	-0.132062
C16	C	0.915817	0.096625	-0.132157
C17	C	0.915251	0.097720	0.130864
C18	C	1.062211	0.098214	0.132595
C19	C	1.509075	-0.017013	0.000070
C20	C	1.507623	-0.070677	0.000081
C21	C	1.614502	-0.408819	0.000015
C22	C	1.609117	-0.610513	-0.000004
O23	O	1.706850	-0.641153	-0.000060
N24	N	1.492703	-0.630369	-0.000009
C25	C	1.377627	-0.599799	-0.000018
O26	O	1.278486	-0.621317	-0.000036
C27	C	1.383013	-0.398107	-0.000008
C28	C	1.499435	-0.378253	0.000011
C29	C	1.730915	-0.388965	0.000033
C30	C	1.732260	-0.338544	0.000045
C31	C	1.617193	-0.307978	0.000040
C32	C	1.500780	-0.327832	0.000023
C33	C	1.267939	-0.367538	-0.000027
C34	C	1.269296	-0.317112	-0.000028
C35	C	1.385718	-0.297258	-0.000009
C36	C	1.387058	-0.246846	0.000031
N37	N	1.503472	-0.226989	0.000036
C38	C	1.618540	-0.257555	0.000040
C39	C	1.374807	-0.705691	-0.000020
C40	C	1.373460	-0.756114	-0.000020
C41	C	1.604950	-0.766824	-0.000009
C42	C	1.606296	-0.716400	0.000001
C43	C	1.491221	-0.685834	-0.000015
C44	C	1.621356	-0.151668	0.000068
C45	C	1.622691	-0.101243	0.000086
C46	C	1.391201	-0.090538	0.000068
C47	C	1.389865	-0.140959	0.000057
C48	C	1.504953	-0.171523	0.000052
O49	O	1.289377	-0.216177	0.000071
O50	O	1.717666	-0.236029	0.000028
C51	C	1.613157	-0.459239	0.000003
C52	C	1.496745	-0.479094	-0.000014
C53	C	1.381678	-0.448528	-0.000019
C54	C	1.495398	-0.529517	-0.000014
C55	C	1.610465	-0.560083	-0.000009
C56	C	1.726879	-0.540226	-0.000005
C57	C	1.728224	-0.489806	0.000008
C58	C	1.265264	-0.468384	-0.000023
C59	C	1.263928	-0.518805	-0.000034
C60	C	1.378995	-0.549371	-0.000030
C61	C	1.730203	0.068594	0.000048
C62	C	1.871089	0.070034	0.000044
C63	C	1.487075	0.159656	0.000005
C64	C	1.488527	0.213320	-0.000015
N65	N	1.498043	0.071324	0.360382
N66	N	1.498118	0.071316	-0.360303
C67	C	1.392711	0.110527	0.580733
C68	C	1.392932	0.110674	0.419565
C69	C	1.630268	0.082797	0.418833
C70	C	1.629691	0.083074	0.580051
C71	C	1.472477	0.020519	0.580311
C72	C	1.469416	0.020848	0.419084
H73	H	0.888448	0.077519	-0.230876
C74	C	1.136516	-0.254190	-0.118940
C75	C	1.142797	-0.283515	-0.000044
H76	H	1.058418	-0.233452	-0.118949
H77	H	1.206027	-0.235148	-0.118916
H78	H	1.140821	-0.274084	-0.199589
H79	H	1.138502	-0.263621	0.080606
H80	H	1.073267	-0.302558	-0.000055
C81	C	1.804195	0.023661	0.519034
C82	C	1.738669	0.046013	0.632714
H83	H	1.871473	0.000783	0.551546
H84	H	1.746937	0.007506	0.464337
H85	H	1.838632	0.047535	0.464136
H86	H	1.704223	0.022139	0.687607
H87	H	1.795937	0.062169	0.687435
H88	H	1.294081	0.103730	0.619542
C89	C	0.974924	0.182198	-0.136924
C90	C	1.090146	0.151710	-0.138732
H91	H	0.992132	0.215073	-0.141032
H92	H	0.924648	0.175221	-0.214806
H93	H	0.929860	0.176980	-0.053694
H94	H	1.135206	0.156926	-0.221967
H95	H	1.140443	0.158690	-0.060843
H96	H	1.297516	-0.065642	0.000069
C97	C	1.850311	-0.157176	0.000099
C98	C	1.747861	-0.185260	0.000075
H99	H	1.928407	-0.177915	0.000119
H100	H	1.846028	-0.137284	-0.080551
H101	H	1.845986	-0.137289	0.080763
H102	H	1.752180	-0.205145	-0.080595
H103	H	1.752146	-0.205161	0.080733
H104	H	1.409195	0.148361	0.380972
C105	C	1.864050	-0.439330	0.118919
C106	C	1.856200	-0.467987	0.000017
H107	H	1.943065	-0.425866	0.118924
H108	H	1.795732	-0.413907	0.118908
H109	H	1.858696	-0.458786	0.199564
H110	H	1.861545	-0.448530	-0.080629
H111	H	1.924537	-0.493414	0.000015
C112	C	1.313418	-0.035964	0.420371
C113	C	1.338121	0.009103	0.367516
H114	H	1.232358	-0.043211	0.388533
H115	H	1.377577	-0.060366	0.389324
H116	H	1.313545	-0.034874	0.519107
H117	H	1.338003	0.008012	0.268780
H118	H	1.273945	0.033511	0.398556
H119	H	1.710529	0.055017	0.380494
C120	C	1.307166	0.180572	0.711027
C121	C	1.414361	0.161116	0.635380
H122	H	1.320543	0.211801	0.744771
H123	H	1.234188	0.183227	0.652419
H124	H	1.294083	0.159884	0.787210
H125	H	1.427439	0.181802	0.559190
H126	H	1.487360	0.158463	0.693991
C127	C	1.868094	-0.288056	-0.118853
C128	C	1.860235	-0.316725	0.000044
H129	H	1.947103	-0.274587	-0.118852
H130	H	1.862754	-0.307501	-0.199493
H131	H	1.799762	-0.262632	-0.118835
H132	H	1.928562	-0.342152	0.000021
H133	H	1.865588	-0.297280	0.080705
H134	H	1.820571	-0.565122	0.000005
H135	H	1.701097	-0.700239	0.000015
C136	C	1.367958	-0.037805	0.709281
C137	C	1.345199	0.005786	0.635253
H138	H	1.289377	-0.046893	0.743207
H139	H	1.406679	-0.062485	0.649587
H140	H	1.423237	-0.033596	0.785272
H141	H	1.289927	0.001576	0.559257
H142	H	1.306459	0.030472	0.694952
C143	C	1.679117	0.162546	0.515959
C144	C	1.660383	0.133104	0.630787
H145	H	1.698055	0.193434	0.547279
H146	H	1.748198	0.147819	0.461758
H147	H	1.603793	0.166357	0.460976
H148	H	1.735711	0.129290	0.685765
H149	H	1.591296	0.147834	0.685010
C150	C	1.654152	-0.001196	0.277052
C151	C	1.566424	-0.020438	0.364729
H152	H	1.714054	-0.026684	0.243508
H153	H	1.610162	0.014746	0.200809
H154	H	1.697752	0.021393	0.327390
H155	H	1.522817	-0.043024	0.314388
H156	H	1.610419	-0.036388	0.440984
H157	H	1.134072	-0.001446	0.094731
H158	H	1.105661	0.080501	-0.230347
H159	H	1.103982	0.079331	0.230310
H160	H	0.884448	0.080337	0.230982
H161	H	1.169116	-0.534965	-0.000037
H162	H	0.866171	0.135257	-0.138167
H163	H	1.084736	0.137377	0.140555
H164	H	0.916356	-0.003786	0.095309
H165	H	0.866339	0.136518	0.131741
H166	H	1.824622	-0.413847	0.000031
H167	H	1.717499	-0.085081	0.000105
C168	C	1.705653	-0.848877	-0.000037
C169	C	1.731436	-0.800429	-0.000024
H170	H	1.783736	-0.869624	-0.000064
H171	H	1.657888	-0.854941	0.080622
H172	H	1.657864	-0.854926	-0.080692
H173	H	1.779217	-0.794379	0.080637
H174	H	1.779220	-0.794363	-0.080691
H175	H	1.294616	0.103771	0.380048
H176	H	1.295065	-0.157124	0.000081
H177	H	1.133231	-0.001590	-0.094785
H178	H	1.278658	-0.772274	-0.000011
H179	H	1.653575	0.119438	0.378430
H180	H	0.914752	-0.003698	-0.093599
H181	H	1.281093	-0.680808	-0.000033
C182	C	1.132138	-0.418008	-0.118970
C183	C	1.139962	-0.389352	-0.000064
H184	H	1.053127	-0.431476	-0.118990
H185	H	1.137505	-0.398555	-0.199604
H186	H	1.200467	-0.443434	-0.118943
H187	H	1.071638	-0.363924	-0.000096
H188	H	1.134582	-0.408806	0.080590
H189	H	1.171560	-0.443502	-0.000030
H190	H	1.549356	-0.008666	0.618442
