data_functionalizedCrystal
_audit_creation_method	'MofGen! by Chris Wilmer'
_symmetry_space_group_name_H-M	'P1'
_symmetry_Int_Tables_number	1
_symmetry_cell_setting	triclinic
loop_
_symmetry_equiv_pos_as_xyz
  x,y,z
_cell_length_a	27.732048
_cell_length_b	15.995350
_cell_length_c	15.072220
_cell_angle_alpha	90.008851
_cell_angle_beta	89.993868
_cell_angle_gamma	96.932485
loop_
_atom_site_label
_atom_site_type_symbol
_atom_site_fract_x
_atom_site_fract_y
_atom_site_fract_z
O1	O	0.062301	-1.110190	-0.073717
O2	O	0.562301	-0.610190	0.426283
O3	O	0.069995	-0.866315	-0.073737
O4	O	0.569995	-0.366315	0.426263
O5	O	-0.004216	-0.995827	-0.073709
O6	O	0.495784	-0.495827	0.426291
O7	O	0.136512	-0.980678	-0.073744
O8	O	0.636512	-0.480678	0.426256
O9	O	-0.004212	-0.995795	0.073856
O10	O	0.495788	-0.495795	0.573856
O11	O	0.069999	-0.866283	0.073828
O12	O	0.569999	-0.366283	0.573828
O13	O	0.062305	-1.110158	0.073848
O14	O	0.562305	-0.610158	0.573848
Zn15	Zn	0.066153	-0.988215	0.097267
Zn16	Zn	0.566153	-0.488215	0.597267
Zn17	Zn	0.066148	-0.988257	-0.097156
Zn18	Zn	0.566148	-0.488257	0.402844
O19	O	0.136516	-0.980646	0.073821
O20	O	0.636516	-0.480646	0.573821
C21	C	-0.022222	-0.995493	0.000076
C22	C	0.477778	-0.495493	0.500076
C23	C	-0.075881	-0.994535	0.000083
C24	C	0.424119	-0.494535	0.500083
C25	C	0.069679	-0.835108	0.000044
C26	C	0.569679	-0.335108	0.500044
C27	C	0.068726	-0.742170	0.000037
C28	C	0.568726	-0.242170	0.500037
C29	C	0.062621	-1.141364	0.000066
C30	C	0.562621	-0.641364	0.500066
C31	C	0.063575	-1.234302	0.000066
C32	C	0.563575	-0.734302	0.500066
C33	C	-0.414392	-1.065040	0.000043
C34	C	0.085608	-0.565040	0.500043
C35	C	-0.616067	-1.061487	0.000030
C36	C	-0.116067	-0.561487	0.500030
O37	O	-0.647045	-1.125959	-0.000004
O38	O	-0.147045	-0.625959	0.499996
N39	N	-0.635522	-0.984692	0.000025
N40	N	-0.135522	-0.484692	0.500025
C41	C	-0.604555	-0.908780	0.000017
C42	C	-0.104555	-0.408780	0.500017
O43	O	-0.625730	-0.843380	0.000003
O44	O	-0.125730	-0.343380	0.500003
C45	C	-0.402881	-0.912334	0.000023
C46	C	0.097119	-0.412334	0.500023
C47	C	-0.383429	-0.989134	0.000037
C48	C	0.116571	-0.489134	0.500037
C49	C	-0.394940	-1.141834	0.000056
C50	C	0.105060	-0.641834	0.500056
C51	C	-0.344524	-1.142721	0.000064
C52	C	0.155476	-0.642721	0.500064
C53	C	-0.313561	-1.066815	0.000059
C54	C	0.186439	-0.566815	0.500059
C55	C	-0.333013	-0.990021	0.000045
C56	C	0.166987	-0.490021	0.500045
C57	C	-0.371914	-0.836422	0.000009
C58	C	0.128086	-0.336422	0.500009
C59	C	-0.321493	-0.837317	0.000008
C60	C	0.178507	-0.337317	0.500008
C61	C	-0.302041	-0.914117	0.000023
C62	C	0.197959	-0.414117	0.500023
C63	C	-0.251634	-0.915002	0.000048
C64	C	0.248366	-0.415002	0.500048
N65	N	-0.232179	-0.991797	0.000053
N66	N	0.267821	-0.491797	0.500053
C67	C	-0.263142	-1.067703	0.000059
C68	C	0.236858	-0.567703	0.500059
C69	C	-0.710437	-0.906920	0.000015
C70	C	-0.210437	-0.406920	0.500015
C71	C	-0.760855	-0.906031	0.000015
C72	C	-0.260855	-0.406031	0.500015
C73	C	-0.772364	-1.058739	0.000027
C74	C	-0.272364	-0.558739	0.500027
C75	C	-0.721945	-1.059627	0.000033
C76	C	-0.221945	-0.559627	0.500033
C77	C	-0.690982	-0.983715	0.000021
C78	C	-0.190982	-0.483715	0.500021
C79	C	-0.157265	-1.069561	0.000076
C80	C	0.342735	-0.569561	0.500076
C81	C	-0.106844	-1.070442	0.000088
C82	C	0.393156	-0.570442	0.500088
C83	C	-0.095340	-0.917734	0.000072
C84	C	0.404660	-0.417734	0.500072
C85	C	-0.145756	-0.916853	0.000065
C86	C	0.354244	-0.416853	0.500065
C87	C	-0.176718	-0.992773	0.000064
C88	C	0.323282	-0.492773	0.500064
O89	O	-0.220628	-0.850565	0.000072
O90	O	0.279372	-0.350565	0.500072
O91	O	-0.241958	-1.133094	0.000053
O92	O	0.258042	-0.633094	0.500053
C93	C	-0.464808	-1.064153	0.000035
C94	C	0.035192	-0.564153	0.500035
C95	C	-0.484260	-0.987359	0.000022
C96	C	0.015740	-0.487359	0.500022
C97	C	-0.453297	-0.911452	0.000016
C98	C	0.046703	-0.411452	0.500016
C99	C	-0.534679	-0.986470	0.000022
C100	C	-0.034679	-0.486470	0.500022
C101	C	-0.565642	-1.062377	0.000027
C102	C	-0.065642	-0.562377	0.500027
C103	C	-0.546187	-1.139172	0.000032
C104	C	-0.046187	-0.639172	0.500032
C105	C	-0.495771	-1.140059	0.000040
C106	C	0.004229	-0.640059	0.500040
C107	C	-0.472752	-0.834657	0.000011
C108	C	0.027248	-0.334657	0.500011
C109	C	-0.523168	-0.833776	0.000004
C110	C	-0.023168	-0.333776	0.500004
C111	C	-0.554132	-0.909683	0.000009
C112	C	-0.054132	-0.409683	0.500009
C113	C	0.154523	-0.980980	0.000034
C114	C	0.654523	-0.480980	0.500034
C115	C	0.208182	-0.981938	0.000021
C116	C	0.708182	-0.481938	0.500021
N117	N	0.066156	-0.988193	0.229956
N118	N	0.566156	-0.488193	0.729956
C119	C	0.065301	-0.404467	0.000056
C120	C	0.565301	0.095533	0.500056
C121	C	0.012449	-0.452585	0.000399
C122	C	0.512449	0.047415	0.500399
C123	C	0.013403	-0.549263	0.000060
C124	C	0.513403	-0.049263	0.500060
C125	C	0.067000	-0.572006	0.000047
C126	C	0.567000	-0.072006	0.500047
C127	C	0.093065	-0.530599	-0.084223
C128	C	0.593065	-0.030599	0.415777
C129	C	0.091738	-0.433981	-0.084287
C130	C	0.591738	0.066019	0.415713
C131	C	0.092834	-0.433592	0.083522
C132	C	0.592834	0.066408	0.583522
C133	C	0.092822	-0.530537	0.084630
C134	C	0.592822	-0.030537	0.584630
C135	C	0.067962	-0.666691	0.000039
C136	C	0.567962	-0.166691	0.500039
C137	C	0.064340	-0.309782	0.000058
C138	C	0.564340	0.190218	0.500058
N139	N	0.066140	-0.988287	-0.229845
N140	N	0.566140	-0.488287	0.270155
C141	C	0.066146	-0.988256	0.589158
C142	C	0.566146	-0.488256	1.089158
C143	C	0.105721	-0.918727	0.551536
C144	C	0.605721	-0.418727	1.051536
C145	C	0.105866	-0.918884	0.448710
C146	C	0.605866	-0.418884	0.948710
C147	C	0.066151	-0.988224	0.410954
C148	C	0.566151	-0.488224	0.910954
C149	C	0.077167	-1.075446	0.448249
C150	C	0.577167	-0.575446	0.948249
C151	C	0.077448	-1.075056	0.551106
C152	C	0.577448	-0.575056	1.051106
C153	C	0.015437	-0.971342	0.551269
C154	C	0.515437	-0.471342	1.051269
C155	C	0.015775	-0.969333	0.448405
C156	C	0.515775	-0.469333	0.948405
C157	C	0.066153	-0.988211	0.310240
C158	C	0.566153	-0.488211	0.810240
C159	C	0.066145	-0.988274	0.689871
C160	C	0.566145	-0.488274	1.189871
H161	H	-0.091010	-1.132984	0.000102
H162	H	0.408990	-0.632984	0.500102
H163	H	0.132441	-0.544216	-0.087365
H164	H	0.632441	-0.044216	0.412635
H165	H	0.073794	-0.558086	0.146972
H166	H	0.573794	-0.058086	0.646972
H167	H	-0.571406	-1.200977	0.000040
H168	H	-0.071406	-0.700977	0.500040
H169	H	-0.685230	-0.845100	0.000005
H170	H	-0.185230	-0.345100	0.500005
H171	H	-0.014014	-1.022054	0.575598
H172	H	0.485986	-0.522054	1.075598
Br173	Br	0.001840	-0.862397	0.407783
Br174	Br	0.501840	-0.362397	0.907783
H175	H	0.131906	-0.545395	0.089710
H176	H	0.631906	-0.045395	0.589710
Br177	Br	-0.053309	-0.814724	0.000065
Br178	Br	0.446691	-0.314724	0.500065
H179	H	-0.328691	-1.205260	0.000072
H180	H	0.171309	-0.705260	0.500072
Br181	Br	-0.398300	-0.732187	-0.000014
Br182	Br	0.101700	-0.232187	0.499986
Br183	Br	0.031179	-1.163737	0.592590
Br184	Br	0.531179	-0.663737	1.092590
Br185	Br	-0.279475	-0.734288	-0.000013
Br186	Br	0.220525	-0.234288	0.499987
H187	H	-0.420146	-1.203650	0.000057
H188	H	0.079854	-0.703650	0.500057
H189	H	0.143496	-0.929616	0.424088
H190	H	0.643496	-0.429616	0.924088
Br191	Br	0.157782	-0.379817	0.084457
Br192	Br	0.657782	0.120183	0.584457
Br193	Br	0.168091	-0.936369	0.594567
Br194	Br	0.668091	-0.436369	1.094567
Br195	Br	-0.199277	-1.172596	0.000074
Br196	Br	0.300723	-0.672596	0.500074
H197	H	0.072726	-0.415932	-0.147272
H198	H	0.572726	0.084068	0.352728
Br199	Br	0.139085	-1.100064	0.591069
Br200	Br	0.639085	-0.600064	1.091069
Br201	Br	0.030401	-1.163699	0.407492
Br202	Br	0.530401	-0.663699	0.907492
H203	H	-0.161595	-0.854317	0.000078
H204	H	0.338405	-0.354317	0.500078
H205	H	-0.015055	-1.016735	0.422708
H206	H	0.484945	-0.516735	0.922708
Br207	Br	0.138102	-1.101085	0.405288
Br208	Br	0.638102	-0.601085	0.905288
Br209	Br	-0.469380	-1.244293	0.000054
Br210	Br	0.030620	-0.744293	0.500054
Br211	Br	-0.002209	-0.867677	0.594552
Br212	Br	0.497791	-0.367677	1.094552
H213	H	-0.706111	-1.122164	0.000044
H214	H	-0.206111	-0.622164	0.500044
H215	H	0.099266	-0.853661	0.576294
H216	H	0.599266	-0.353661	1.076294
Br217	Br	-0.549560	-0.729537	-0.000009
Br218	Br	-0.049560	-0.229537	0.499991
H219	H	-0.797583	-1.120545	0.000032
H220	H	-0.297583	-0.620545	0.500032
H221	H	-0.776688	-0.843493	0.000019
H222	H	-0.276688	-0.343493	0.500019
H223	H	-0.447546	-0.772844	0.000005
H224	H	0.052454	-0.272844	0.500005
H225	H	0.099303	-0.854029	0.423496
H226	H	0.599303	-0.354029	0.923496
Br227	Br	0.064038	-0.399719	0.189985
Br228	Br	0.564038	0.100281	0.689985
Br229	Br	-0.020748	-0.597072	0.100744
Br230	Br	0.479252	-0.097072	0.600744
Br231	Br	0.062887	-0.578301	-0.188742
Br232	Br	0.562887	-0.078301	0.311258
H233	H	-0.008675	-0.434323	0.060832
H234	H	0.491325	0.065677	0.560832
H235	H	-0.008581	-0.433276	-0.059692
H236	H	0.491419	0.066724	0.440308
H237	H	0.130541	-0.401231	-0.088120
H238	H	0.630541	0.098769	0.411880
Br239	Br	-0.020830	-0.596132	-0.100961
Br240	Br	0.479170	-0.096132	0.399039
