data_functionalizedCrystal
_audit_creation_method	'MofGen! by Chris Wilmer'
_symmetry_space_group_name_H-M	'P1'
_symmetry_Int_Tables_number	1
_symmetry_cell_setting	triclinic
loop_
_symmetry_equiv_pos_as_xyz
  x,y,z
_cell_length_a	15.698487
_cell_length_b	19.377372
_cell_length_c	19.376995
_cell_angle_alpha	82.760260
_cell_angle_beta	48.619720
_cell_angle_gamma	89.997013
loop_
_atom_site_label
_atom_site_type_symbol
_atom_site_fract_x
_atom_site_fract_y
_atom_site_fract_z
Zr1	Zr	0.637054	0.043994	0.796317
O2	O	0.491714	-0.033633	0.916645
O3	O	0.709173	0.050896	0.650135
O4	O	0.709175	-0.057997	0.759037
O5	O	0.460355	0.180374	0.846166
O6	O	0.849356	-0.057998	0.759039
O7	O	0.491712	0.075260	0.807743
O8	O	0.849352	0.136792	0.564233
O9	O	0.460358	-0.014415	1.040972
O10	O	0.811243	0.074250	0.719839
O11	O	0.683226	0.152697	0.748512
O12	O	0.683229	0.024489	0.876730
O13	O	0.555211	0.102935	0.905402
Zr14	Zr	0.810614	0.211637	0.857601
Zr15	Zr	0.860626	0.043992	0.796321
Zr16	Zr	0.587042	0.211639	0.857597
Zr17	Zr	0.587045	0.074643	0.994604
Zr18	Zr	0.860624	0.180987	0.659314
O19	O	0.738495	0.204734	1.003783
O20	O	0.809605	-0.033635	0.916650
O21	O	0.420604	0.204737	1.003778
O22	O	0.955954	0.289263	0.737273
O23	O	1.027064	0.050894	0.650140
O24	O	0.638063	0.289266	0.737267
O25	O	0.987314	0.075256	0.807752
O26	O	0.738493	0.313627	0.894881
O27	O	0.598312	0.313628	0.894879
O28	O	0.955956	0.180370	0.846175
O29	O	0.638069	-0.014417	1.040975
O30	O	0.809600	0.270047	0.612943
O31	O	0.987310	0.270046	0.612946
O32	O	1.027063	0.136790	0.564236
O33	O	0.420606	0.118840	1.089681
O34	O	0.598316	0.118839	1.089684
O35	O	0.764440	0.231141	0.777188
O36	O	0.892457	0.152695	0.748515
O37	O	0.764442	0.102934	0.905406
O38	O	0.636425	0.181380	0.934079
C39	C	0.444179	0.127817	0.826954
C40	C	0.349267	0.127818	0.826952
C41	C	0.786388	0.089477	0.578932
C42	C	0.807618	0.076465	0.494755
C43	C	0.661277	0.337513	0.903611
C44	C	0.640046	0.408683	0.929626
C45	C	0.175479	0.127814	0.826968
C46	C	0.272184	0.127815	0.826963
C47	C	1.003489	0.127813	0.826964
C48	C	1.098401	0.127812	0.826965
C49	C	0.786391	-0.081883	0.750307
C50	C	0.807623	-0.153053	0.724292
C51	C	0.904363	0.772622	0.605719
C52	C	0.884403	0.839490	0.630186
C53	C	0.750766	0.787534	0.793968
C54	C	0.770710	0.720660	0.769515
C55	C	0.847510	0.713210	0.675389
C56	C	0.713857	0.661248	0.839185
C57	C	0.733804	0.594381	0.814733
C58	C	0.810604	0.586924	0.720612
C59	C	0.867457	0.646343	0.650938
C60	C	0.637063	0.668699	0.933310
C61	C	0.580211	0.609288	1.002980
C62	C	0.600151	0.542419	0.978529
C63	C	0.676951	0.534962	0.884408
C64	C	0.543298	0.483000	1.048204
C65	C	0.563245	0.416133	1.023752
C66	C	0.696898	0.468095	0.859956
C67	C	0.904361	0.017181	0.361142
C68	C	0.884404	0.029412	0.440242
C69	C	0.750763	0.111309	0.470180
C70	C	0.770713	0.099088	0.391079
C71	C	0.847513	0.052023	0.336566
C72	C	0.713865	0.133929	0.366502
C73	C	0.733809	0.121705	0.287410
C74	C	0.810602	0.074641	0.232895
C75	C	0.867457	0.039799	0.257474
C76	C	0.637060	0.180990	0.421020
C77	C	0.580211	0.215831	0.396444
C78	C	0.600161	0.203612	0.317347
C79	C	0.676954	0.156547	0.262831
C80	C	0.543306	0.238454	0.292768
C81	C	0.563250	0.226230	0.213676
C82	C	0.696899	0.144324	0.183739
C83	C	0.661280	0.166153	1.074985
C84	C	0.640050	0.179165	1.159163
C85	C	1.066043	0.089475	0.578937
C86	C	1.182185	0.076462	0.494761
C87	C	0.723831	0.299175	0.655585
C88	C	0.723830	0.357333	0.597422
C89	C	1.003486	0.299173	0.655590
C90	C	1.098397	0.357330	0.597428
C91	C	0.444183	-0.043543	0.998328
C92	C	0.349271	-0.101700	1.056489
C93	C	0.381625	0.166156	1.074981
C94	C	0.265483	0.179168	1.159157
C95	C	0.723837	-0.043545	0.998333
C96	C	0.723838	-0.101703	1.056496
C97	C	1.194337	0.029397	0.440259
C98	C	1.303458	0.017157	0.361172
C99	C	1.400427	0.051986	0.336584
C100	C	1.388272	0.099053	0.391094
C101	C	1.279151	0.111289	0.470183
C102	C	0.766220	0.425599	0.585079
C103	C	0.766210	0.480253	0.530443
C104	C	0.723817	0.466639	0.488144
C105	C	0.681421	0.398366	0.500491
C106	C	0.681424	0.343715	0.555133
C107	C	1.209801	0.343693	0.555148
C108	C	1.298988	0.398334	0.500508
C109	C	1.276769	0.466609	0.488144
C110	C	1.165353	0.480246	0.530431
C111	C	1.076167	0.425607	0.585076
C112	C	0.237865	-0.088062	1.098779
C113	C	0.148672	-0.142698	1.153444
C114	C	0.170889	-0.210973	1.165812
C115	C	0.282307	-0.224611	1.123520
C116	C	0.371496	-0.169974	1.068862
C117	C	0.253332	0.226227	1.213664
C118	C	0.144210	0.238453	1.292766
C119	C	0.047241	0.203622	1.317356
C120	C	0.059397	0.156557	1.262844
C121	C	0.168517	0.144328	1.183747
C122	C	0.766241	-0.088067	1.098779
C123	C	0.766263	-0.142708	1.153421
C124	C	0.723875	-0.210983	1.165784
C125	C	0.681472	-0.224619	1.123494
C126	C	0.681458	-0.169979	1.068848
H127	H	0.759426	0.462030	0.783310
Cl128	Cl	0.128956	0.297625	1.361278
H129	H	0.300384	-0.280207	1.133597
Cl130	Cl	1.318713	-0.042012	0.292657
Cl131	Cl	0.723896	-0.279666	1.234490
Cl132	Cl	0.654223	0.796907	0.912293
Cl133	Cl	0.628136	0.257894	0.570634
Cl134	Cl	-0.062519	0.112778	1.293767
H135	H	1.349401	0.511093	0.443647
H136	H	-0.041605	0.213585	1.381765
Cl137	Cl	0.183773	0.085169	1.115226
H138	H	0.480768	0.276769	0.337169
Cl139	Cl	0.611989	0.752763	0.964049
Cl140	Cl	0.819537	-0.002241	1.083249
Cl141	Cl	0.511550	-0.187133	1.015694
H142	H	0.332276	0.254598	1.193653
Cl143	Cl	0.008617	-0.125539	1.206597
Cl144	Cl	0.835689	0.502861	0.689871
H145	H	0.985460	0.436720	0.619494
H146	H	0.800789	-0.131592	1.187851
Cl147	Cl	0.446766	0.492376	1.166527
Cl148	Cl	0.628134	0.381262	0.447306
H149	H	0.646961	-0.280216	1.133569
H150	H	0.646924	-0.181091	1.034426
Cl151	Cl	0.491778	0.341440	1.111338
H152	H	0.929985	0.640278	0.574291
H153	H	0.966891	0.766557	0.529073
H154	H	0.800738	0.535839	0.520397
Cl155	Cl	0.955915	0.914180	0.542590
H156	H	1.467239	0.127408	0.371062
H157	H	0.826834	0.064686	0.168497
Cl158	Cl	1.263895	0.170466	0.538687
Cl159	Cl	0.793478	0.085173	0.115185
Cl160	Cl	0.483668	0.618661	1.121305
H161	H	0.966908	-0.021139	0.316749
Cl162	Cl	0.964037	-0.019351	0.188919
H163	H	1.227914	0.288104	0.565204
Cl164	Cl	0.611985	0.196351	0.520454
H165	H	0.930703	0.001036	0.460246
Cl166	Cl	0.654219	0.170474	0.538717
Cl167	Cl	0.483666	0.274996	0.464981
H168	H	0.516956	0.254600	0.193668
Cl169	Cl	0.209905	-0.002235	1.083244
H170	H	0.800740	0.436698	0.619516
Cl171	Cl	1.439044	0.381174	0.447352
H172	H	1.115392	0.001025	0.460273
H173	H	1.489273	0.042017	0.272182
H174	H	0.723822	0.511146	0.443654
H175	H	1.147278	0.535843	0.520356
Cl176	Cl	0.058752	-0.279653	1.234526
