data_functionalizedCrystal
_audit_creation_method	'MofGen! by Chris Wilmer'
_symmetry_space_group_name_H-M	'P1'
_symmetry_Int_Tables_number	1
_symmetry_cell_setting	triclinic
loop_
_symmetry_equiv_pos_as_xyz
  x,y,z
_cell_length_a	16.625548
_cell_length_b	16.625546
_cell_length_c	11.169409
_cell_angle_alpha	89.961577
_cell_angle_beta	89.976847
_cell_angle_gamma	90.023536
loop_
_atom_site_label
_atom_site_type_symbol
_atom_site_fract_x
_atom_site_fract_y
_atom_site_fract_z
Zn1	Zn	1.232701	-0.320913	-0.678599
Zn2	Zn	1.232598	-0.455775	-0.477894
Zn3	Zn	1.097857	-0.320963	-0.477921
Zn4	Zn	1.097833	-0.455710	-0.678527
O5	O	1.165247	-0.388340	-0.578235
O6	O	1.345520	-0.338810	-0.651993
O7	O	1.214691	-0.437940	-0.309948
O8	O	1.115797	-0.208124	-0.504583
O9	O	1.345444	-0.437892	-0.504536
O10	O	1.214867	-0.208087	-0.652019
O11	O	1.115697	-0.338894	-0.309968
O12	O	0.985021	-0.338831	-0.504514
O13	O	1.115757	-0.437781	-0.846487
O14	O	0.985004	-0.437829	-0.651898
O15	O	1.214844	-0.338746	-0.846539
O16	O	1.214668	-0.568599	-0.504467
O17	O	1.115657	-0.568551	-0.651872
C18	C	0.955756	-0.388329	-0.578202
C19	C	0.866135	-0.388343	-0.578216
C20	C	0.537960	-0.388349	-0.578267
C21	C	0.629268	-0.388345	-0.578249
C22	C	0.702045	-0.388346	-0.578241
C23	C	0.793359	-0.388342	-0.578224
C24	C	1.165171	-0.597831	-0.578185
C25	C	1.165212	-0.687452	-0.578204
C26	C	1.165353	-1.015628	-0.578329
C27	C	1.165311	-0.924320	-0.578297
C28	C	1.165282	-0.851543	-0.578266
C29	C	1.165241	-0.760229	-0.578235
C30	C	1.375556	-0.388353	-0.578270
C31	C	1.465177	-0.388358	-0.578284
C32	C	1.165309	-0.388251	-0.891278
C33	C	1.165336	-0.388213	-1.024678
C34	C	1.165346	-0.178032	-0.578312
C35	C	1.165388	-0.088410	-0.578345
C36	C	1.165232	-0.388371	-0.266411
C37	C	1.165362	-0.388182	-0.133011
