data_functionalizedCrystal
_audit_creation_method	'MofGen! by Chris Wilmer'
_symmetry_space_group_name_H-M	'P1'
_symmetry_Int_Tables_number	1
_symmetry_cell_setting	triclinic
loop_
_symmetry_equiv_pos_as_xyz
  x,y,z
_cell_length_a	10.489711
_cell_length_b	9.565339
_cell_length_c	11.026607
_cell_angle_alpha	89.999834
_cell_angle_beta	83.443487
_cell_angle_gamma	89.998814
loop_
_atom_site_label
_atom_site_type_symbol
_atom_site_fract_x
_atom_site_fract_y
_atom_site_fract_z
O1	O	1.731760	0.116308	-0.171371
O2	O	1.364110	0.116299	-0.187511
O3	O	1.517465	0.116297	-0.002525
O4	O	1.578406	0.116309	-0.356357
O5	O	1.517474	-0.116223	-0.002530
O6	O	1.364120	-0.116221	-0.187517
O7	O	1.731770	-0.116213	-0.171376
Zn8	Zn	1.547946	-0.153134	-0.179447
Zn9	Zn	1.547934	0.153221	-0.179440
O10	O	1.578415	-0.116211	-0.356363
C11	C	1.316316	0.000038	-0.186303
C12	C	1.173888	0.000034	-0.182678
C13	C	1.015972	0.000054	-0.293924
C14	C	1.095889	0.114695	-0.238352
C15	C	1.095865	-0.114552	-0.238328
C16	C	1.000033	0.114799	-0.120589
C17	C	1.000003	-0.114550	-0.120581
C18	C	1.079874	0.000118	-0.064924
N19	N	1.547964	-0.362214	-0.179452
C20	C	1.618916	-0.453380	-0.093907
C21	C	1.498004	-0.546554	-0.069293
C22	C	1.668813	-0.546595	-0.203987
C23	C	1.426982	-0.453336	-0.154782
C24	C	1.597877	-0.453369	-0.289525
C25	C	1.476893	-0.546501	-0.264956
C26	C	1.779564	0.000052	-0.172585
C27	C	1.921992	0.000064	-0.176209
C28	C	1.506227	0.000039	0.042780
C29	C	1.472713	0.000043	0.177784
N30	N	1.547923	0.362300	-0.179426
C31	C	1.589653	0.000051	-0.401668
C32	C	1.623167	0.000056	-0.536672
C33	C	1.565251	0.000047	0.250790
C34	C	1.530615	0.000051	0.390324
H35	H	1.137786	-0.211473	-0.288158
H36	H	1.678836	-0.412492	-0.021528
H37	H	0.958037	-0.211479	-0.070817
H38	H	1.455764	-0.587487	0.023804
H39	H	1.728043	0.000163	0.422539
H40	H	1.367844	0.000050	0.218581
H41	H	1.324718	-0.412543	-0.133914
H42	H	1.416791	-0.587130	-0.337291
H43	H	0.987565	0.000171	-0.390676
H44	H	1.137837	0.211614	-0.288161
H45	H	1.425740	0.000058	0.431115
H46	H	1.640147	-0.412406	-0.382593
H47	H	1.771030	-0.587560	-0.224750
H48	H	1.108029	0.000173	0.031918
H49	H	0.958274	0.211833	-0.070826
H50	H	1.670120	0.000041	0.209993
