data_functionalizedCrystal
_audit_creation_method	'MofGen! by Chris Wilmer'
_symmetry_space_group_name_H-M	'P1'
_symmetry_Int_Tables_number	1
_symmetry_cell_setting	triclinic
loop_
_symmetry_equiv_pos_as_xyz
  x,y,z
_cell_length_a	14.519709
_cell_length_b	14.519731
_cell_length_c	10.868271
_cell_angle_alpha	89.995592
_cell_angle_beta	89.998940
_cell_angle_gamma	96.315501
loop_
_atom_site_label
_atom_site_type_symbol
_atom_site_fract_x
_atom_site_fract_y
_atom_site_fract_z
O1	O	-0.120985	1.223855	-0.102307
O2	O	-0.135201	0.955381	-0.102307
O3	O	0.006145	1.096736	-0.102319
O4	O	-0.262331	1.082500	-0.102296
O5	O	0.006150	1.096725	0.102326
O6	O	-0.135196	0.955369	0.102337
O7	O	-0.120980	1.223843	0.102337
Zn8	Zn	-0.128087	1.089604	0.134829
Zn9	Zn	-0.128094	1.089620	-0.134799
O10	O	-0.262326	1.082488	0.102349
C11	C	-0.134532	0.921016	0.000015
C12	C	-0.132536	0.818635	0.000014
C13	C	-0.130915	0.735491	0.000009
C14	C	-0.128888	0.631182	0.000008
C15	C	-0.127280	0.548043	0.000008
C16	C	-0.125253	0.443728	0.000005
C17	C	-0.296688	1.083157	0.000029
C18	C	-0.399070	1.085146	0.000037
C19	C	-0.773966	1.092465	-0.000012
C20	C	-0.669658	1.090432	0.000002
C21	C	-0.586521	1.088806	0.000014
C22	C	-0.482207	1.086773	0.000026
C23	C	0.040507	1.096067	-0.000002
C24	C	0.142889	1.094079	-0.000018
C25	C	-0.121649	1.258209	0.000012
C26	C	-0.123645	1.360589	0.000005
N27	N	-0.128081	1.089601	0.318843
N28	N	-0.128092	1.089631	-0.318813
C29	C	-0.128092	1.089615	0.569849
C30	C	-0.128089	1.089604	0.430172
