data_functionalizedCrystal
_audit_creation_method	'MofGen! by Chris Wilmer'
_symmetry_space_group_name_H-M	'P1'
_symmetry_Int_Tables_number	1
_symmetry_cell_setting	triclinic
loop_
_symmetry_equiv_pos_as_xyz
  x,y,z
_cell_length_a	19.077367
_cell_length_b	18.215405
_cell_length_c	18.215399
_cell_angle_alpha	90.030551
_cell_angle_beta	87.726474
_cell_angle_gamma	92.323608
loop_
_atom_site_label
_atom_site_type_symbol
_atom_site_fract_x
_atom_site_fract_y
_atom_site_fract_z
Zn1	Zn	-1.075970	0.247817	-0.371034
Zn2	Zn	-1.075882	0.370892	-0.247965
Zn3	Zn	-0.958274	0.252781	-0.252911
Zn4	Zn	-0.958241	0.375789	-0.375918
O5	O	-1.017092	0.311820	-0.311957
O6	O	-1.174448	0.260016	-0.350594
O7	O	-1.060258	0.355252	-0.145638
O8	O	-0.973936	0.149136	-0.268606
O9	O	-1.174384	0.350438	-0.260177
O10	O	-1.060407	0.145489	-0.355390
O11	O	-0.973852	0.268477	-0.149271
O12	O	-0.859780	0.273226	-0.273342
O13	O	-0.973881	0.358785	-0.478253
O14	O	-0.859756	0.363599	-0.363715
O15	O	-1.060376	0.264764	-0.474665
O16	O	-1.060227	0.474528	-0.264913
O17	O	-0.973796	0.478126	-0.358919
C18	C	-0.834230	0.319483	-0.319595
C19	C	-0.756001	0.322779	-0.322880
C20	C	-0.719241	0.277204	-0.277449
C21	C	-0.645737	0.280308	-0.280535
C22	C	-0.608994	0.328983	-0.329058
C23	C	-0.645759	0.374563	-0.374491
C24	C	-0.719262	0.371463	-0.371400
C25	C	-0.389164	0.343312	-0.343336
C26	C	-0.315656	0.346407	-0.346425
C27	C	-0.315639	0.252153	-0.252467
C28	C	-0.389143	0.249054	-0.249384
C29	C	-0.425902	0.294636	-0.294815
N30	N	-0.533861	0.332155	-0.332216
N31	N	-0.501034	0.291468	-0.291653
C32	C	-1.017017	0.503029	-0.311925
C33	C	-1.017050	0.584827	-0.311933
C34	C	-1.017134	0.311767	-0.503908
C35	C	-1.017153	0.311745	-0.585706
C36	C	-0.200667	0.304123	-0.304282
C37	C	-0.278896	0.300832	-0.300993
C38	C	-1.017185	0.119863	-0.312005
C39	C	-1.017225	0.038062	-0.312025
C40	C	-1.062160	0.771118	-0.263066
C41	C	-1.062191	0.847975	-0.263082
C42	C	-0.972113	0.851765	-0.360897
C43	C	-0.972086	0.774909	-0.360884
C44	C	-1.017108	0.734588	-0.311964
C45	C	-1.017167	0.888301	-0.311994
C46	C	-1.017201	0.971633	-0.312012
C47	C	-1.017076	0.651250	-0.311946
C48	C	-1.062207	0.262743	-0.772032
C49	C	-1.062215	0.262722	-0.848891
C50	C	-0.972148	0.360630	-0.852616
C51	C	-0.972137	0.360648	-0.775759
C52	C	-1.017170	0.311705	-0.735469
C53	C	-1.017190	0.311666	-0.889184
C54	C	-1.017199	0.311643	-0.972518
C55	C	-1.017161	0.311727	-0.652131
C56	C	-1.017089	0.311817	-0.120751
C57	C	-1.017208	0.311626	-0.038947
H58	H	-0.749152	0.237562	-0.237942
N59	N	-0.606134	0.427069	-0.426822
H60	H	-0.553992	0.422117	-0.421888
H61	H	-0.619010	0.415142	-0.478861
N62	N	-0.428771	0.196538	-0.197065
H63	H	-0.394330	0.168132	-0.168756
H64	H	-0.459254	0.225149	-0.161667
H65	H	-0.935457	0.884604	-0.400725
H66	H	-1.098888	0.222851	-0.878657
N67	N	-1.110780	0.209960	-0.728577
H68	H	-1.103945	0.217404	-0.674340
H69	H	-1.161038	0.219314	-0.739921
N70	N	-0.758915	0.420621	-0.420398
H71	H	-0.724486	0.451927	-0.451606
H72	H	-0.789437	0.389424	-0.453226
N73	N	-0.923568	0.413405	-0.896072
H74	H	-0.930406	0.405963	-0.950310
H75	H	-0.934485	0.465514	-0.882172
H76	H	-1.098821	0.738290	-0.223234
H77	H	-1.098878	0.877715	-0.223266
N78	N	-0.923545	0.413445	-0.736317
H79	H	-0.895018	0.444447	-0.773502
H80	H	-0.952163	0.446312	-0.703217
H81	H	-0.935399	0.745164	-0.400706
H82	H	-0.615810	0.243200	-0.243536
H83	H	-0.285742	0.386044	-0.385942
N84	N	-0.275992	0.203006	-0.203455
H85	H	-0.223853	0.212359	-0.212768
H86	H	-0.288821	0.213867	-0.150341
H87	H	-0.419085	0.380428	-0.380329
