data_functionalizedCrystal
_audit_creation_method	'MofGen! by Chris Wilmer'
_symmetry_space_group_name_H-M	'P1'
_symmetry_Int_Tables_number	1
_symmetry_cell_setting	triclinic
loop_
_symmetry_equiv_pos_as_xyz
  x,y,z
_cell_length_a	12.594516
_cell_length_b	19.077142
_cell_length_c	19.076919
_cell_angle_alpha	89.925643
_cell_angle_beta	92.277239
_cell_angle_gamma	92.288207
loop_
_atom_site_label
_atom_site_type_symbol
_atom_site_fract_x
_atom_site_fract_y
_atom_site_fract_z
Zn1	Zn	-0.514956	-1.058318	-0.440485
Zn2	Zn	-0.014956	-0.558318	0.059515
Zn3	Zn	-0.686095	-1.062974	-0.322990
Zn4	Zn	-0.186095	-0.562974	0.177010
Zn5	Zn	-0.500695	-0.945534	-0.318274
Zn6	Zn	-0.000695	-0.445534	0.181726
Zn7	Zn	-0.685450	-0.940795	-0.435738
Zn8	Zn	-0.185450	-0.440795	0.064262
O9	O	-0.596799	-1.001905	-0.379372
O10	O	-0.096799	-0.501905	0.120628
O11	O	-0.543896	-1.157267	-0.428860
O12	O	-0.043896	-0.657267	0.071140
O13	O	-0.655803	-1.051327	-0.224033
O14	O	-0.155803	-0.551327	0.275967
O15	O	-0.353644	-0.960530	-0.334499
O16	O	0.146356	-0.460530	0.165501
O17	O	-0.669631	-1.160688	-0.342536
O18	O	-0.169631	-0.660688	0.157464
O19	O	-0.364121	-1.043391	-0.424287
O20	O	0.135879	-0.543391	0.075713
O21	O	-0.519590	-0.965045	-0.220568
O22	O	-0.019590	-0.465045	0.279432
O23	O	-0.518965	-0.846573	-0.329896
O24	O	-0.018965	-0.346573	0.170104
O25	O	-0.668532	-0.952453	-0.534699
O26	O	-0.168532	-0.452453	-0.034699
O27	O	-0.654704	-0.843092	-0.416196
O28	O	-0.154704	-0.343092	0.083804
O29	O	-0.543271	-1.038796	-0.538187
O30	O	-0.043271	-0.538796	-0.038187
O31	O	-0.834952	-1.046732	-0.337932
O32	O	-0.334952	-0.546732	0.162068
O33	O	-0.834478	-0.956968	-0.420768
O34	O	-0.334478	-0.456968	0.079232
C35	C	-0.585217	-0.819336	-0.372019
C36	C	-0.085217	-0.319336	0.127981
C37	C	-0.580289	-0.741232	-0.368891
C38	C	-0.080289	-0.241232	0.131109
C39	C	-0.648745	-0.702747	-0.412282
C40	C	-0.148745	-0.202747	0.087718
C41	C	-0.644100	-0.629359	-0.409346
C42	C	-0.144100	-0.129359	0.090654
C43	C	-0.571005	-0.594458	-0.363014
C44	C	-0.071005	-0.094458	0.136986
C45	C	-0.502543	-0.632948	-0.319621
C46	C	-0.002543	-0.132948	0.180379
C47	C	-0.507182	-0.706334	-0.322561
C48	C	-0.007182	-0.206334	0.177439
C49	C	-0.549535	-0.375169	-0.349413
C50	C	-0.049535	0.124831	0.150587
C51	C	-0.544902	-0.301777	-0.346474
C52	C	-0.044902	0.198223	0.153526
C53	C	-0.686459	-0.298193	-0.436200
C54	C	-0.186459	0.201807	0.063800
C55	C	-0.691097	-0.371581	-0.439134
C56	C	-0.191097	0.128419	0.060866
C57	C	-0.622630	-0.410065	-0.395743
C58	C	-0.122630	0.089935	0.104257
N59	N	-0.566259	-0.519444	-0.360010
N60	N	-0.066259	-0.019444	0.139990
N61	N	-0.627373	-0.485077	-0.398751
N62	N	-0.127373	0.014923	0.101249
C63	C	-0.873337	-1.001859	-0.379363
C64	C	-0.373337	-0.501859	0.120637
C65	C	-0.991646	-1.001903	-0.379385
C66	C	-0.491646	-0.501903	0.120615
C67	C	-1.060678	-0.953077	-0.424407
C68	C	-0.560678	-0.453077	0.075593
C69	C	-1.126712	-0.938537	-0.359601
C70	C	-0.626712	-0.438537	0.140399
C71	C	-1.136416	-1.016508	-0.444205
C72	C	-0.636416	-0.516508	0.055795
C73	C	-1.056118	-0.987330	-0.314544
C74	C	-0.556118	-0.487330	0.185456
C75	C	-1.065820	-1.065329	-0.399193
C76	C	-0.565820	-0.565329	0.100807
C77	C	-1.131821	-1.050814	-0.334344
C78	C	-0.631821	-0.550814	0.165656
C79	C	-0.319184	-1.001970	-0.379397
C80	C	0.180816	-0.501970	0.120603
C81	C	-0.200880	-1.001997	-0.379407
C82	C	0.299120	-0.501997	0.120593
C83	C	-0.607420	-0.994577	-0.562652
C84	C	-0.107420	-0.494577	-0.062652
C85	C	-0.611947	-0.991454	-0.640756
C86	C	-0.111947	-0.491454	-0.140756
C87	C	-0.608420	-0.185188	-0.386745
C88	C	-0.108420	0.314812	0.113255
C89	C	-0.613357	-0.263292	-0.389866
C90	C	-0.113357	0.236708	0.110134
C91	C	-0.548859	-1.034939	-0.679266
C92	C	-0.048859	-0.534939	-0.179266
C93	C	-0.553108	-1.031996	-0.752652
C94	C	-0.053108	-0.531996	-0.252652
C95	C	-0.620450	-0.985571	-0.787526
C96	C	-0.120450	-0.485571	-0.287526
C97	C	-0.683539	-0.942082	-0.749011
C98	C	-0.183539	-0.442082	-0.249011
C99	C	-0.679285	-0.945021	-0.675626
C100	C	-0.179285	-0.445021	-0.175626
C101	C	-0.640162	-0.971955	-1.006808
C102	C	-0.140162	-0.471955	-0.506808
C103	C	-0.644414	-0.969020	-1.080198
C104	C	-0.144414	-0.469020	-0.580198
C105	C	-0.513981	-1.058933	-1.083834
C106	C	-0.013981	-0.558933	-0.583834
C107	C	-0.509737	-1.061872	-1.010448
C108	C	-0.009737	-0.561872	-0.510448
C109	C	-0.572822	-1.018380	-0.971939
C110	C	-0.072822	-0.518380	-0.471939
N111	N	-0.624796	-0.982563	-0.862539
N112	N	-0.124796	-0.482563	-0.362539
N113	N	-0.568469	-1.021385	-0.896928
N114	N	-0.068469	-0.521385	-0.396928
C115	C	-0.586144	-1.009246	-0.196806
C116	C	-0.086144	-0.509246	0.303194
C117	C	-0.581327	-1.012505	-0.118708
C118	C	-0.081327	-0.512505	0.381292
H119	H	-0.485367	-0.273363	-0.308749
H120	H	0.014633	0.226637	0.191251
H121	H	-1.153649	-0.884942	-0.342864
H122	H	-0.653649	-0.384942	0.157136
H123	H	-1.038886	-1.118910	-0.415959
H124	H	-0.538886	-0.618910	0.084041
H125	H	-0.699845	-0.598027	-0.444679
H126	H	-0.199845	-0.098027	0.055321
N127	N	-1.182922	-1.032825	-0.516803
N128	N	-0.682922	-0.532825	-0.016803
H129	H	-1.229587	-1.077060	-0.515273
H130	H	-0.729587	-0.577060	-0.015273
H131	H	-1.226761	-0.992559	-0.533884
H132	H	-0.726761	-0.492559	-0.033884
H133	H	-0.750621	-0.399992	-0.476860
H134	H	-0.250621	0.100008	0.023140
H135	H	-0.501738	-1.067407	-0.784004
H136	H	-0.001738	-0.567407	-0.284004
N137	N	-0.727591	-0.740388	-0.462250
N138	N	-0.227591	-0.240388	0.037750
H139	H	-0.770250	-0.704869	-0.489293
H140	H	-0.270250	-0.204869	0.010707
H141	H	-0.688157	-0.769548	-0.496037
H142	H	-0.188157	-0.269548	0.003963
H143	H	-0.454903	-1.099678	-0.982058
H144	H	0.045097	-0.599678	-0.482058
H145	H	-1.029441	-0.911718	-0.462419
H146	H	-0.529441	-0.411718	0.037581
H147	H	-1.021130	-0.974953	-0.259718
H148	H	-0.521130	-0.474953	0.240282
H149	H	-0.494026	-1.072745	-0.650876
H150	H	0.005974	-0.572745	-0.150876
H151	H	-0.493792	-0.406494	-0.314076
H152	H	0.006208	0.093506	0.185924
N153	N	-0.717012	-0.918919	-1.117812
N154	N	-0.217012	-0.418919	-0.617812
H155	H	-0.710125	-0.923654	-1.170144
H156	H	-0.210125	-0.423654	-0.670144
H157	H	-0.792989	-0.930326	-1.105428
H158	H	-0.292989	-0.430326	-0.605428
H159	H	-0.742199	-0.266852	-0.471527
H160	H	-0.242199	0.233148	0.028473
N161	N	-1.172933	-1.105567	-0.283871
N162	N	-0.672933	-0.605567	0.216129
H163	H	-1.143449	-1.094481	-0.234956
H164	H	-0.643449	-0.594481	0.265044
H165	H	-1.253156	-1.105560	-0.284512
H166	H	-0.753156	-0.605560	0.215488
N167	N	-0.445925	-1.105828	-1.125370
N168	N	0.054075	-0.605828	-0.625370
H169	H	-0.402617	-1.135681	-1.092141
H170	H	0.097383	-0.635681	-0.592141
H171	H	-0.493071	-1.137119	-1.157128
H172	H	0.006929	-0.637119	-0.657128
N173	N	-0.708165	-0.925025	-0.965278
N174	N	-0.208165	-0.425025	-0.465278
H175	H	-0.751460	-0.895165	-0.998508
H176	H	-0.251460	-0.395165	-0.498508
H177	H	-0.757482	-0.954810	-0.935963
H178	H	-0.257482	-0.454810	-0.435963
N179	N	-0.433342	-0.747847	-0.275766
N180	N	0.066658	-0.247847	0.224234
H181	H	-0.386332	-0.714603	-0.245968
H182	H	0.113668	-0.214603	0.254032
H183	H	-0.476622	-0.779587	-0.244418
H184	H	0.023378	-0.279587	0.255582
N185	N	-0.756149	-0.891993	-0.786621
N186	N	-0.256149	-0.391993	-0.286621
H187	H	-0.749269	-0.896725	-0.838954
H188	H	-0.249269	-0.396725	-0.338954
H189	H	-0.832120	-0.903412	-0.774232
H190	H	-0.332120	-0.403412	-0.274232
N191	N	-0.423723	-0.595304	-0.269638
N192	N	0.076277	-0.095304	0.230362
H193	H	-0.374199	-0.563716	-0.297018
H194	H	0.125801	-0.063716	0.202982
H195	H	-0.463191	-0.566196	-0.235824
H196	H	0.036809	-0.066196	0.264176
H197	H	-0.730646	-0.909604	-0.644272
H198	H	-0.230646	-0.409604	-0.144272
