data_functionalizedCrystal
_audit_creation_method	'MofGen! by Chris Wilmer'
_symmetry_space_group_name_H-M	'P1'
_symmetry_Int_Tables_number	1
_symmetry_cell_setting	triclinic
loop_
_symmetry_equiv_pos_as_xyz
  x,y,z
_cell_length_a	16.956995
_cell_length_b	15.944551
_cell_length_c	15.455313
_cell_angle_alpha	92.664316
_cell_angle_beta	87.515363
_cell_angle_gamma	79.776605
loop_
_atom_site_label
_atom_site_type_symbol
_atom_site_fract_x
_atom_site_fract_y
_atom_site_fract_z
O1	O	1.061537	0.030892	-0.072191
O2	O	0.829381	0.060381	-0.072180
O3	O	0.951798	-0.077078	-0.072178
O4	O	0.939119	0.168352	-0.072193
O5	O	0.944797	-0.069248	0.072084
O6	O	0.822380	0.068211	0.072082
O7	O	1.054536	0.038723	0.072071
Cu8	Cu	0.937819	0.054182	0.085249
Cu9	Cu	0.946098	0.044922	-0.085358
O10	O	0.932119	0.176182	0.072069
C11	C	0.796172	0.065806	-0.000048
C12	C	0.707652	0.070295	-0.000043
C13	C	0.947771	-0.104421	-0.000047
C14	C	0.946193	-0.197557	-0.000046
C15	C	0.208355	0.103873	-0.000078
C16	C	0.291530	0.099649	-0.000077
C17	C	0.342613	0.020359	-0.000065
C18	C	0.310519	-0.054712	-0.000064
C19	C	0.227345	-0.050487	-0.000071
C20	C	0.592384	-0.000552	-0.000049
C21	C	0.675562	-0.004770	-0.000039
C22	C	0.656568	0.149591	-0.000054
C23	C	0.573393	0.153809	-0.000056
C24	C	0.541306	0.078738	-0.000059
N25	N	0.427632	0.016040	-0.000062
N26	N	0.456290	0.083058	-0.000069
C27	C	0.866542	-0.406879	-0.000055
C28	C	0.900078	-0.466606	0.071073
C29	C	0.943339	-0.368085	-0.000053
C30	C	0.906998	-0.474311	-0.071158
C31	C	0.940576	-0.532806	-0.000063
C32	C	0.976893	-0.426582	0.071134
C33	C	0.983805	-0.434283	-0.071161
C34	C	1.017397	-0.493995	-0.000016
C35	C	0.944928	-0.273193	-0.000046
C36	C	0.938992	-0.627697	-0.000063
C37	C	1.087745	0.033297	-0.000064
C38	C	1.176265	0.028808	-0.000074
C39	C	0.936146	0.203524	-0.000064
C40	C	0.937724	0.296660	-0.000071
N41	N	0.932002	0.060694	0.205244
N42	N	0.951921	0.038402	-0.205353
C43	C	0.984027	0.002315	0.250639
C44	C	0.979635	0.007247	0.341447
C45	C	0.923222	0.070562	0.386858
C46	C	0.871191	0.128944	0.341457
C47	C	0.875579	0.124007	0.250650
C48	C	0.904279	0.091847	0.658439
C49	C	0.899896	0.096781	0.749252
C50	C	1.008340	-0.024917	0.749236
C51	C	1.012727	-0.029845	0.658428
C52	C	0.960693	0.028534	0.613034
N53	N	0.918733	0.075607	0.479678
N54	N	0.965179	0.023485	0.520216
H55	H	0.317653	0.160775	-0.000088
H56	H	0.531806	0.218375	-0.000068
N57	N	0.730660	-0.090296	-0.000033
H58	H	0.788218	-0.081577	-0.000022
H59	H	0.717665	-0.120357	0.053448
N60	N	1.035777	-0.055701	0.390397
H61	H	1.027384	-0.115553	0.374609
H62	H	1.093095	-0.050673	0.374534
N63	N	0.365608	-0.140235	-0.000051
H64	H	0.403145	-0.148336	-0.053523
H65	H	0.397882	-0.142468	0.053469
H66	H	0.833214	0.171544	0.213691
H67	H	0.682703	0.210710	-0.000053
N68	N	1.016018	-0.398772	0.150874
H69	H	1.016818	-0.335607	0.150400
H70	H	0.984604	-0.410804	0.204490
N71	N	0.853182	-0.485929	0.150725
H72	H	0.852905	-0.549234	0.150422
H73	H	0.879038	-0.467636	0.204404
H74	H	1.081196	-0.531585	0.000022
H75	H	1.029969	-0.049239	0.213671
H76	H	1.019178	-0.419672	-0.131300
H77	H	0.877424	-0.495394	-0.131295
N78	N	0.557781	-0.081517	-0.000045
H79	H	0.602764	-0.132385	-0.000031
H80	H	0.521083	-0.080219	0.053432
H81	H	1.058663	-0.081401	0.621456
N82	N	0.192730	-0.131450	-0.000071
H83	H	0.237711	-0.182321	-0.000062
H84	H	0.156031	-0.130155	0.053404
H85	H	0.802793	-0.369138	0.000019
N86	N	0.153264	0.189395	-0.000098
H87	H	0.095703	0.180684	-0.000101
H88	H	0.161054	0.225268	0.053377
N89	N	0.839044	0.165065	0.798242
H90	H	0.867696	0.202207	0.835898
H91	H	0.806758	0.201241	0.755659
H92	H	1.050702	-0.072447	0.786203
N93	N	0.848156	0.154806	0.609485
H94	H	0.811754	0.195663	0.652035
H95	H	0.880495	0.187795	0.571788
N96	N	0.810338	0.197230	0.390431
H97	H	0.815452	0.191501	0.454845
H98	H	0.820314	0.255322	0.374543
