data_functionalizedCrystal
_audit_creation_method	'MofGen! by Chris Wilmer'
_symmetry_space_group_name_H-M	'P1'
_symmetry_Int_Tables_number	1
_symmetry_cell_setting	triclinic
loop_
_symmetry_equiv_pos_as_xyz
  x,y,z
_cell_length_a	10.489741
_cell_length_b	10.489741
_cell_length_c	16.176319
_cell_angle_alpha	89.993511
_cell_angle_beta	89.995299
_cell_angle_gamma	84.539174
loop_
_atom_site_label
_atom_site_type_symbol
_atom_site_fract_x
_atom_site_fract_y
_atom_site_fract_z
O1	O	1.694059	0.179971	-0.068695
O2	O	1.322863	0.196864	-0.068708
O3	O	1.516907	0.002820	-0.068696
O4	O	1.500015	0.374015	-0.068707
O5	O	1.516880	0.002807	0.068797
O6	O	1.322836	0.196851	0.068785
O7	O	1.694032	0.179958	0.068798
Cu8	Cu	1.508431	0.188404	0.081346
Cu9	Cu	1.508463	0.188419	-0.081256
O10	O	1.499987	0.374003	0.068787
C11	C	1.275318	0.195582	0.000037
C12	C	1.133688	0.191765	0.000032
C13	C	1.065548	0.068300	0.000044
C14	C	0.973435	0.126630	-0.067748
C15	C	0.973442	0.126647	0.067810
C16	C	1.043440	0.250145	-0.067815
C17	C	1.043457	0.250145	0.067804
C18	C	0.951371	0.308564	-0.000004
C19	C	1.515618	-0.044718	0.000050
C20	C	1.511801	-0.186348	0.000048
C21	C	1.388336	-0.254488	0.000038
C22	C	1.446646	-0.346617	0.067831
C23	C	1.446702	-0.346579	-0.067726
C24	C	1.570162	-0.276611	0.067898
C25	C	1.570201	-0.276564	-0.067721
C26	C	1.628600	-0.368665	0.000089
C27	C	1.741577	0.181241	0.000051
C28	C	1.883206	0.185058	0.000051
C29	C	1.501277	0.421541	0.000039
C30	C	1.505094	0.563170	0.000035
N31	N	1.508418	0.188392	0.195711
N32	N	1.508487	0.188420	-0.195621
C33	C	1.594367	0.102505	0.238981
C34	C	1.594374	0.102504	0.325528
C35	C	1.508436	0.188397	0.368804
C36	C	1.422478	0.274288	0.325528
C37	C	1.422466	0.274282	0.238983
C38	C	1.422522	0.274313	0.674557
C39	C	1.422543	0.274314	0.761108
C40	C	1.594429	0.102534	0.761101
C41	C	1.594418	0.102528	0.674556
C42	C	1.508455	0.188414	0.631288
C43	C	1.508448	0.188413	0.537444
C44	C	1.508449	0.188405	0.462646
H45	H	0.942432	0.074394	-0.125058
C46	C	1.640657	-0.234977	0.145415
C47	C	1.781028	-0.286647	0.160728
C48	C	1.851518	-0.245008	0.238244
C49	C	1.781636	-0.151701	0.300448
C50	C	1.641257	-0.100026	0.285137
C51	C	1.570767	-0.141664	0.207620
H52	H	1.832766	-0.355723	0.114679
H53	H	1.955436	-0.283262	0.249578
H54	H	1.833817	-0.120878	0.357830
H55	H	1.589519	-0.030949	0.331186
H56	H	1.466849	-0.103411	0.196287
C57	C	1.327943	0.368774	0.373128
C58	C	1.328010	0.368853	0.468324
C59	C	1.233475	0.463345	0.515921
C60	C	1.138874	0.557759	0.468320
C61	C	1.138803	0.557684	0.373118
C62	C	1.233338	0.463191	0.325522
H63	H	1.398043	0.298959	0.503566
H64	H	1.233528	0.463400	0.586396
H65	H	1.068894	0.627708	0.503554
H66	H	1.068770	0.627578	0.337877
H67	H	1.233285	0.463136	0.255047
C68	C	1.376127	-0.388421	-0.145157
C69	C	1.446306	-0.480925	-0.207705
C70	C	1.375721	-0.522759	-0.285131
C71	C	1.234957	-0.472089	-0.300010
C72	C	1.164769	-0.379579	-0.237460
C73	C	1.235354	-0.337745	-0.160033
H74	H	1.550516	-0.518439	-0.196693
H75	H	1.427680	-0.591241	-0.331435
H76	H	1.182706	-0.503057	-0.357325
H77	H	1.060560	-0.342065	-0.248472
H78	H	1.183396	-0.269263	-0.113730
H79	H	1.730204	-0.418089	0.000130
H80	H	1.352530	0.344246	0.639335
H81	H	1.115238	-0.033196	-0.000038
C82	C	1.688902	0.008019	0.191381
C83	C	1.638165	-0.090028	0.131899
C84	C	1.732700	-0.184520	0.084302
C85	C	1.877971	-0.180965	0.096189
C86	C	1.928716	-0.082914	0.155674
C87	C	1.834181	0.011578	0.203270
H88	H	1.530619	-0.092663	0.123097
H89	H	1.695134	-0.257104	0.040267
H90	H	1.947952	-0.250914	0.060955
H91	H	2.036262	-0.080280	0.164475
H92	H	1.871747	0.084162	0.247305
H93	H	0.942453	0.074378	0.125122
C94	C	1.688948	0.008044	0.626952
C95	C	1.638201	-0.089998	0.567469
C96	C	1.732728	-0.184488	0.519865
C97	C	1.878002	-0.180937	0.531745
C98	C	1.928756	-0.082891	0.591230
C99	C	1.834229	0.011599	0.638834
H100	H	1.530654	-0.092630	0.558673
H101	H	1.695156	-0.257067	0.475830
H102	H	1.947977	-0.250884	0.496506
H103	H	2.036303	-0.080259	0.600026
H104	H	1.871801	0.084178	0.682869
H105	H	1.352476	0.344219	0.203754
C106	C	1.640731	-0.234602	-0.145145
C107	C	1.588932	-0.261756	-0.231810
C108	C	1.659450	-0.219789	-0.309242
C109	C	1.781766	-0.150668	-0.300010
C110	C	1.833571	-0.123510	-0.213342
C111	C	1.763053	-0.165477	-0.135909
H112	H	1.498381	-0.312927	-0.238647
H113	H	1.621100	-0.239894	-0.373399
H114	H	1.833968	-0.119602	-0.357330
H115	H	1.924122	-0.072339	-0.206504
H116	H	1.801403	-0.145373	-0.071752
H117	H	1.074280	0.302350	-0.125192
H118	H	0.901947	0.410168	-0.000044
C119	C	1.327998	0.368795	0.808715
C120	C	1.182726	0.365217	0.796842
C121	C	1.088188	0.459693	0.844448
C122	C	1.138922	0.557746	0.903928
C123	C	1.284201	0.561327	0.915804
C124	C	1.378739	0.466852	0.868197
H125	H	1.145163	0.292629	0.752809
H126	H	0.980643	0.457041	0.835657
H127	H	1.068940	0.627682	0.939169
H128	H	1.321764	0.633915	0.959837
H129	H	1.486284	0.469504	0.876988
H130	H	1.074492	0.302337	0.125117
H131	H	1.664359	0.032568	0.360757
H132	H	1.286824	-0.204837	0.000103
H133	H	1.394394	-0.377633	0.125142
H134	H	1.664421	0.032597	0.796339
