data_functionalizedCrystal
_audit_creation_method	'MofGen! by Chris Wilmer'
_symmetry_space_group_name_H-M	'P1'
_symmetry_Int_Tables_number	1
_symmetry_cell_setting	triclinic
loop_
_symmetry_equiv_pos_as_xyz
  x,y,z
_cell_length_a	19.077105
_cell_length_b	12.594516
_cell_length_c	19.076919
_cell_angle_alpha	92.277239
_cell_angle_beta	90.076224
_cell_angle_gamma	87.712633
loop_
_atom_site_label
_atom_site_type_symbol
_atom_site_fract_x
_atom_site_fract_y
_atom_site_fract_z
Zn1	Zn	1.058319	-0.514930	-0.440450
Zn2	Zn	1.558319	-0.014930	0.059550
Zn3	Zn	1.062975	-0.686069	-0.322954
Zn4	Zn	1.562975	-0.186069	0.177046
Zn5	Zn	0.945535	-0.500672	-0.318243
Zn6	Zn	1.445535	-0.000672	0.181757
Zn7	Zn	0.940797	-0.685427	-0.435707
Zn8	Zn	1.440797	-0.185427	0.064293
O9	O	1.001907	-0.596775	-0.379338
O10	O	1.501907	-0.096775	0.120662
O11	O	1.157269	-0.543868	-0.428821
O12	O	1.657269	-0.043868	0.071179
O13	O	1.051328	-0.655777	-0.223998
O14	O	1.551328	-0.155777	0.276002
O15	O	0.960531	-0.353620	-0.334467
O16	O	1.460531	0.146380	0.165533
O17	O	1.160690	-0.669603	-0.342497
O18	O	1.660690	-0.169603	0.157503
O19	O	1.043393	-0.364096	-0.424253
O20	O	1.543393	0.135904	0.075747
O21	O	0.965046	-0.519567	-0.220536
O22	O	1.465046	-0.019567	0.279464
O23	O	0.846574	-0.518944	-0.329868
O24	O	1.346574	-0.018944	0.170132
O25	O	0.952455	-0.668509	-0.534668
O26	O	1.452455	-0.168509	-0.034668
O27	O	0.843093	-0.654683	-0.416168
O28	O	1.343093	-0.154683	0.083832
O29	O	1.038798	-0.543246	-0.538153
O30	O	1.538798	-0.043246	-0.038153
O31	O	1.046733	-0.834927	-0.337898
O32	O	1.546733	-0.334927	0.162102
O33	O	0.956969	-0.834455	-0.420737
O34	O	1.456969	-0.334455	0.079263
C35	C	0.819337	-0.585197	-0.371992
C36	C	1.319337	-0.085197	0.128008
C37	C	0.741233	-0.580271	-0.368866
C38	C	1.241233	-0.080271	0.131134
C39	C	0.702747	-0.648728	-0.412259
C40	C	1.202747	-0.148728	0.087741
C41	C	0.629360	-0.644085	-0.409325
C42	C	1.129360	-0.144085	0.090675
C43	C	0.594459	-0.570991	-0.362994
C44	C	1.094459	-0.070991	0.137006
C45	C	0.632949	-0.502527	-0.319600
C46	C	1.132949	-0.002527	0.180400
C47	C	0.706335	-0.507165	-0.322538
C48	C	1.206335	-0.007165	0.177462
C49	C	0.375169	-0.549525	-0.349400
C50	C	0.875169	-0.049525	0.150600
C51	C	0.301778	-0.544895	-0.346464
C52	C	0.801778	-0.044895	0.153536
C53	C	0.298194	-0.686452	-0.436191
C54	C	0.798194	-0.186452	0.063809
C55	C	0.371582	-0.691088	-0.439121
C56	C	0.871582	-0.191088	0.060879
C57	C	0.410065	-0.622620	-0.395730
C58	C	0.910065	-0.122620	0.104270
N59	N	0.519445	-0.566246	-0.359993
N60	N	1.019445	-0.066246	0.140007
N61	N	0.485078	-0.627361	-0.398735
N62	N	0.985078	-0.127361	0.101265
C63	C	1.001861	-0.873312	-0.379330
C64	C	1.501861	-0.373312	0.120670
C65	C	1.001905	-0.991622	-0.379352
C66	C	1.501905	-0.491622	0.120648
C67	C	0.953079	-1.060655	-0.424375
C68	C	1.453079	-0.560655	0.075625
C69	C	0.938538	-1.126689	-0.359570
C70	C	1.438538	-0.626689	0.140430
C71	C	1.016509	-1.136391	-0.444171
C72	C	1.516509	-0.636391	0.055829
C73	C	0.987331	-1.056094	-0.314511
C74	C	1.487331	-0.556094	0.185489
C75	C	1.065330	-1.065794	-0.399157
C76	C	1.565330	-0.565794	0.100843
C77	C	1.050816	-1.131795	-0.334309
C78	C	1.550816	-0.631795	0.165691
C79	C	1.185189	-0.608398	-0.386714
C80	C	1.685189	-0.108398	0.113286
C81	C	1.263293	-0.613351	-0.389857
C82	C	1.763293	-0.113351	0.110143
C83	C	0.994578	-0.607396	-0.562619
C84	C	1.494578	-0.107396	-0.062619
C85	C	0.991455	-0.611923	-0.640723
C86	C	1.491455	-0.111923	-0.140723
C87	C	1.001971	-0.319159	-0.379363
C88	C	1.501971	0.180841	0.120637
C89	C	1.001998	-0.200856	-0.379374
C90	C	1.501998	0.299144	0.120626
C91	C	1.034940	-0.548834	-0.679231
C92	C	1.534940	-0.048834	-0.179231
C93	C	1.031997	-0.553083	-0.752617
C94	C	1.531997	-0.053083	-0.252617
C95	C	0.985572	-0.620426	-0.787494
C96	C	1.485572	-0.120426	-0.287494
C97	C	0.942083	-0.683517	-0.748980
C98	C	1.442083	-0.183517	-0.248980
C99	C	0.945023	-0.679262	-0.675595
C100	C	1.445023	-0.179262	-0.175595
C101	C	0.971956	-0.640139	-1.006776
C102	C	1.471956	-0.140139	-0.506776
C103	C	0.969021	-0.644391	-1.080166
C104	C	1.469021	-0.144391	-0.580166
C105	C	1.058935	-0.513955	-1.083799
C106	C	1.558935	-0.013955	-0.583799
C107	C	1.061873	-0.509711	-1.010412
C108	C	1.561873	-0.009711	-0.510412
C109	C	1.018381	-0.572798	-0.971905
C110	C	1.518381	-0.072798	-0.471905
N111	N	0.982565	-0.624772	-0.862506
N112	N	1.482565	-0.124772	-0.362506
N113	N	1.021386	-0.568445	-0.896894
N114	N	1.521386	-0.068445	-0.396894
C115	C	1.009247	-0.586120	-0.196772
C116	C	1.509247	-0.086120	0.303228
C117	C	1.012506	-0.581302	-0.118675
C118	C	1.512506	-0.081302	0.381325
H119	H	0.399993	-0.750611	-0.476847
H120	H	0.899993	-0.250611	0.023153
H121	H	0.598028	-0.699830	-0.444659
H122	H	1.098028	-0.199830	0.055341
N123	N	1.102674	-1.170720	-0.286506
N124	N	1.602674	-0.670720	0.213494
N125	N	1.139215	-1.106953	-0.252137
N126	N	1.639215	-0.606953	0.247863
H127	H	1.175838	-1.134444	-0.218374
H128	H	1.675838	-0.634444	0.281626
N129	N	0.258893	-0.756378	-0.480526
N130	N	0.758893	-0.256378	0.019474
N131	N	0.290064	-0.821631	-0.521892
N132	N	0.790064	-0.321631	-0.021892
H133	H	0.262309	-0.871017	-0.553209
H134	H	0.762309	-0.371017	-0.053209
H135	H	1.094343	-0.462592	-1.115159
H136	H	1.594343	0.037408	-0.615159
H137	H	1.067409	-0.501712	-0.783968
H138	H	1.567409	-0.001712	-0.283968
N139	N	0.266137	-0.470220	-0.299132
N140	N	0.766137	0.029780	0.200868
N141	N	0.300504	-0.409094	-0.260394
N142	N	0.800504	0.090906	0.239606
H143	H	0.275334	-0.356358	-0.226966
H144	H	0.775334	0.143642	0.273034
N145	N	0.597311	-0.427848	-0.272276
N146	N	1.097311	0.072152	0.227724
N147	N	0.605333	-0.330440	-0.277376
N148	N	1.105333	0.169560	0.222624
H149	H	0.580165	-0.277695	-0.243952
H150	H	1.080165	0.222305	0.256048
N151	N	1.132541	-1.031968	-0.420180
N152	N	1.632541	-0.531968	0.079820
N153	N	1.167475	-0.974817	-0.379309
N154	N	1.667475	-0.474817	0.120691
H155	H	1.214942	-0.950921	-0.394163
H156	H	1.714942	-0.450921	0.105837
N157	N	0.921570	-0.713154	-1.115781
N158	N	1.421570	-0.213154	-0.615781
N159	N	0.882726	-0.769451	-1.081391
N160	N	1.382726	-0.269451	-0.581391
H161	H	0.849207	-0.818000	-1.106543
H162	H	1.349207	-0.318000	-0.606543
N163	N	0.901189	-1.021457	-0.472052
N164	N	1.401189	-0.521457	0.027948
N165	N	0.852663	-0.959244	-0.450160
N166	N	1.352663	-0.459244	0.049840
H167	H	0.816014	-0.931559	-0.483828
H168	H	1.316014	-0.431559	0.016172
N169	N	0.871302	-1.160440	-0.338552
N170	N	1.371302	-0.660440	0.161448
N171	N	0.823103	-1.093035	-0.324046
N172	N	1.323103	-0.593035	0.175954
H173	H	0.775616	-1.116867	-0.309205
H174	H	1.275616	-0.616867	0.190795
N175	N	0.971783	-1.012220	-0.245735
N176	N	1.471783	-0.512220	0.254265
N177	N	0.914906	-1.030573	-0.217023
N178	N	1.414906	-0.530573	0.282977
H179	H	0.903920	-0.999588	-0.168450
H180	H	1.403920	-0.499588	0.331550
N181	N	1.031948	-1.180440	-0.512927
N182	N	1.531948	-0.680440	-0.012927
N183	N	0.992536	-1.158437	-0.563146
N184	N	1.492536	-0.658437	-0.063146
H185	H	1.003434	-1.189544	-0.611706
H186	H	1.503434	-0.689544	-0.111706
H187	H	0.731159	-0.708252	-0.449984
H188	H	1.231159	-0.208252	0.050016
N189	N	0.927527	-0.704585	-0.967458
N190	N	1.427527	-0.204585	-0.467458
N191	N	0.886083	-0.764709	-0.998609
N192	N	1.386083	-0.264709	-0.498609
H193	H	0.854703	-0.810229	-0.970839
H194	H	1.354703	-0.310229	-0.470839
N195	N	1.082371	-0.480045	-0.643621
N196	N	1.582371	0.019955	-0.143621
N197	N	1.121191	-0.423720	-0.678016
N198	N	1.621191	0.076280	-0.178016
H199	H	1.154690	-0.375133	-0.652868
H200	H	1.654690	0.124867	-0.152868
N201	N	1.109306	-0.440925	-0.974801
N202	N	1.609306	0.059075	-0.474801
N203	N	1.148132	-0.384605	-1.009193
N204	N	1.648132	0.115395	-0.509193
H205	H	1.181636	-0.336028	-0.984043
H206	H	1.681636	0.163972	-0.484043
N207	N	0.414463	-0.479589	-0.305069
N208	N	0.914463	0.020411	0.194931
N209	N	0.383290	-0.414339	-0.263703
N210	N	0.883290	0.085661	0.236297
H211	H	0.411043	-0.364945	-0.232389
H212	H	0.911043	0.135055	0.267611
H213	H	0.904280	-0.738345	-0.777382
H214	H	1.404280	-0.238345	-0.277382
H215	H	0.909606	-0.730624	-0.644242
H216	H	1.409606	-0.230624	-0.144242
H217	H	0.737669	-0.451416	-0.287206
H218	H	1.237669	0.048584	0.212794
