data_functionalizedCrystal
_audit_creation_method	'MofGen! by Chris Wilmer'
_symmetry_space_group_name_H-M	'P1'
_symmetry_Int_Tables_number	1
_symmetry_cell_setting	triclinic
loop_
_symmetry_equiv_pos_as_xyz
  x,y,z
_cell_length_a	20.919331
_cell_length_b	19.376995
_cell_length_c	19.377372
_cell_angle_alpha	62.052776
_cell_angle_beta	93.051658
_cell_angle_gamma	49.971399
loop_
_atom_site_label
_atom_site_type_symbol
_atom_site_fract_x
_atom_site_fract_y
_atom_site_fract_z
Zr1	Zr	0.509029	0.747006	0.090863
O2	O	0.358078	0.935362	-0.017601
O3	O	0.567645	0.593627	0.103644
O4	O	0.511549	0.794002	-0.037703
O5	O	0.444384	0.685718	0.258527
O6	O	0.618571	0.791287	-0.030276
O7	O	0.414174	0.734986	0.123746
O8	O	0.718916	0.432852	0.222568
O9	O	0.344039	1.044153	0.005683
O10	O	0.657602	0.641733	0.139367
O11	O	0.600279	0.606992	0.234410
O12	O	0.534233	0.842908	0.067992
O13	O	0.476910	0.808166	0.163035
Zr14	Zr	0.727898	0.664099	0.317667
Zr15	Zr	0.679716	0.742676	0.102708
Zr16	Zr	0.557210	0.668429	0.305822
Zr17	Zr	0.486638	0.920516	0.127997
Zr18	Zr	0.750288	0.490589	0.280532
O19	O	0.669282	0.817478	0.304886
O20	O	0.600774	0.929204	-0.000759
O21	O	0.426586	0.823635	0.288044
O22	O	0.878849	0.475743	0.426131
O23	O	0.810340	0.587469	0.120486
O24	O	0.636153	0.481901	0.409289
O25	O	0.792543	0.725387	0.150003
O26	O	0.725377	0.617103	0.446233
O27	O	0.618355	0.619818	0.438806
O28	O	0.822753	0.676119	0.284783
O29	O	0.479713	1.040711	0.015098
O30	O	0.757214	0.370394	0.393432
O31	O	0.892888	0.366952	0.402847
O32	O	0.854590	0.429410	0.231983
O33	O	0.382337	0.981695	0.176547
O34	O	0.518011	0.978253	0.185962
O35	O	0.702693	0.568197	0.340538
O36	O	0.760017	0.602939	0.245495
O37	O	0.636648	0.804113	0.174120
O38	O	0.579324	0.769371	0.269163
C39	C	0.646471	0.488518	0.157815
C40	C	0.655976	0.414859	0.142051
C41	C	0.404959	0.710969	0.189449
C42	C	0.332498	0.712808	0.184421
C43	C	0.699295	0.329170	0.070224
C44	C	0.690359	0.398383	0.085043
C45	C	0.630519	0.362117	0.184267
C46	C	0.639455	0.292895	0.169460
C47	C	0.673842	0.276429	0.112437
C48	C	0.614002	0.240153	0.211672
C49	C	0.622931	0.170943	0.196863
C50	C	0.657314	0.154474	0.139841
C51	C	0.682771	0.207218	0.097627
C52	C	0.579608	0.256628	0.268690
C53	C	0.554155	0.203886	0.310903
C54	C	0.563091	0.134667	0.296098
C55	C	0.597474	0.118198	0.239076
C56	C	0.537634	0.081923	0.338312
C57	C	0.546564	0.012712	0.323502
C58	C	0.606404	0.048988	0.224266
C59	C	0.315097	0.686527	0.256308
C60	C	0.247006	0.688263	0.251574
C61	C	0.196323	0.716272	0.174954
C62	C	0.213726	0.742558	0.103059
C63	C	0.281810	0.740830	0.107792
C64	C	-0.010085	0.722855	0.156947
C65	C	-0.078170	0.724578	0.152221
C66	C	-0.044886	0.670285	0.300736
C67	C	0.023202	0.668552	0.305464
C68	C	0.040595	0.694844	0.233568
C69	C	0.126726	0.718043	0.170114
C70	C	0.110187	0.693081	0.238405
C71	C	0.831967	0.700136	0.219081
C72	C	0.904429	0.698297	0.224109
C73	C	0.558195	0.803840	-0.064617
C74	C	0.537741	0.837198	-0.155872
C75	C	0.590456	0.922587	0.250715
C76	C	0.580951	0.996246	0.266479
C77	C	0.792427	0.421867	-0.269722
C78	C	0.773187	0.453239	-0.355481
C79	C	0.644399	0.663250	-0.429981
C80	C	0.663632	0.631895	-0.344227
C81	C	0.737647	0.511201	-0.264102
C82	C	0.608851	0.721229	-0.338608
C83	C	0.628080	0.689876	-0.252861
C84	C	0.702089	0.569189	-0.172733
C85	C	0.756875	0.479848	-0.178356
C86	C	0.534832	0.841922	-0.418734
C87	C	0.480052	0.931257	-0.413115
C88	C	0.499284	0.899904	-0.327366
C89	C	0.573293	0.779217	-0.247239
C90	C	0.444498	0.989245	-0.321744
C91	C	0.463726	0.957892	-0.235997
C92	C	0.592522	0.747864	-0.161492
C93	C	0.678731	0.607265	0.473146
C94	C	0.699186	0.573907	0.564402
C95	C	0.859975	0.483101	0.172631
C96	C	0.941941	0.407603	0.161895
C97	C	0.706739	0.390230	0.426697
C98	C	0.736698	0.283213	0.502188
C99	C	0.920243	0.384814	0.441513
C100	C	1.022664	0.275958	0.522032
C101	C	0.316684	1.026291	-0.032983
C102	C	0.214263	1.135147	-0.113503
C103	C	0.376952	0.928003	0.235899
C104	C	0.294985	1.003501	0.246635
C105	C	0.530188	1.020874	-0.018167
C106	C	0.500228	1.127892	-0.093658
C107	C	0.926972	0.392402	0.101447
C108	C	1.003976	0.321481	0.091340
C109	C	1.095951	0.265755	0.141688
C110	C	1.110918	0.280962	0.202139
C111	C	1.033912	0.351889	0.212240
C112	C	0.804229	0.212703	0.593046
C113	C	0.832377	0.112155	0.663988
C114	C	0.792998	0.082115	0.644070
C115	C	0.725459	0.152636	0.553203
C116	C	0.697307	0.253186	0.482263
C117	C	1.100691	0.242973	0.510234
C118	C	1.196930	0.140703	0.585886
C119	C	1.215140	0.071416	0.673333
C120	C	1.137103	0.104409	0.685130
C121	C	1.040866	0.206681	0.609480
C122	C	0.136234	1.168141	-0.101703
C123	C	0.039993	1.270431	-0.177349
C124	C	0.021782	1.339722	-0.264796
C125	C	0.099820	1.306725	-0.276594
C126	C	0.196059	1.204440	-0.200947
C127	C	0.309951	1.018713	0.307076
C128	C	0.232939	1.089662	0.317162
C129	C	0.140964	1.145391	0.266812
C130	C	0.125999	1.130179	0.206364
C131	C	0.203008	1.059238	0.196273
C132	C	0.539625	1.157898	-0.073712
C133	C	0.511493	1.258440	-0.144637
C134	C	0.443959	1.328978	-0.235507
C135	C	0.404562	1.298965	-0.255453
C136	C	0.432700	1.198420	-0.184529
H137	H	0.634415	0.035571	0.177840
Br138	Br	0.934979	0.251428	0.625508
H139	H	0.652796	0.649583	-0.096247
H140	H	0.190810	1.046857	0.147059
H141	H	0.991772	0.309111	0.042116
H142	H	0.400610	1.174002	-0.200783
Br143	Br	-0.108835	1.478535	-0.367451
H144	H	0.084980	1.363154	-0.347801
H145	H	0.727306	0.315754	0.023798
H146	H	0.852085	0.437781	0.060435
H147	H	0.421056	1.410846	-0.293248
Br148	Br	0.160922	1.074120	0.016965
H149	H	1.151945	0.047981	0.756339
H150	H	0.064469	0.645745	0.367854
Br151	Br	0.728179	0.526633	-0.056360
Br152	Br	0.312901	1.394717	-0.378781
H153	H	0.815930	0.000238	0.701842
Br154	Br	1.200449	0.169500	0.127969
Br155	Br	1.076004	0.336990	0.391566
Br156	Br	0.857359	0.316047	-0.069605
Br157	Br	0.490951	0.104297	0.415683
Br158	Br	0.892911	0.258065	-0.160971
Br159	Br	0.724903	0.469965	0.027745
H160	H	0.817799	0.380483	-0.360046
Br161	Br	0.583849	0.384475	0.261649
H162	H	0.384229	1.087512	-0.386993
Br163	Br	0.507484	0.226245	0.388285
H164	H	0.259588	1.177582	-0.210566
Br165	Br	1.302820	0.095949	0.569854
H166	H	1.293507	-0.011858	0.734924
Br167	Br	0.564968	1.299153	-0.117545
H168	H	-0.023536	1.297279	-0.167726
H169	H	-0.059055	0.648881	0.359270
Br170	Br	0.669424	0.060554	0.119733
Br171	Br	0.631281	1.062187	0.049605
H172	H	0.584134	0.761518	-0.495229
H173	H	0.384838	0.973338	0.348085
Br174	Br	1.054247	0.372501	0.294289
H175	H	0.245144	1.102032	0.366388
H176	H	0.078267	1.203153	0.275037
H177	H	0.710783	0.193802	0.051201
Br178	Br	0.512011	-0.058861	0.380784
H179	H	0.572334	0.312990	0.280742
Br180	Br	0.383883	0.648500	0.360303
Br181	Br	0.001169	1.205817	0.138040
H182	H	0.419115	1.030637	-0.231425
H183	H	1.185813	0.235581	0.243129
H184	H	-0.119436	0.747387	0.089824
Br185	Br	0.223385	0.652602	0.349135
Br186	Br	0.508732	0.884474	-0.535107
Br187	Br	0.013519	0.758533	0.059378
Br188	Br	0.857692	0.253441	0.620103
H189	H	0.172450	0.765371	0.040670
Br190	Br	0.305418	0.776510	0.010221
Br191	Br	0.379599	1.095049	-0.521860
H192	H	0.151451	0.670282	0.300788
H193	H	0.085455	0.740846	0.107729
H194	H	0.693403	0.128162	0.536998
Br195	Br	0.605658	0.348865	0.358956
Br196	Br	0.924038	0.016467	0.787298
