data_functionalizedCrystal
_audit_creation_method	'MofGen! by Chris Wilmer'
_symmetry_space_group_name_H-M	'P1'
_symmetry_Int_Tables_number	1
_symmetry_cell_setting	triclinic
loop_
_symmetry_equiv_pos_as_xyz
  x,y,z
_cell_length_a	23.532407
_cell_length_b	23.532361
_cell_length_c	22.010155
_cell_angle_alpha	89.997469
_cell_angle_beta	89.993714
_cell_angle_gamma	82.839173
loop_
_atom_site_label
_atom_site_type_symbol
_atom_site_fract_x
_atom_site_fract_y
_atom_site_fract_z
O1	O	0.068996	0.755276	0.050470
O2	O	0.568996	1.255276	0.550470
O3	O	0.079027	0.589409	0.050486
O4	O	0.579027	1.089409	0.550486
O5	O	-0.008921	0.677344	0.050466
O6	O	0.491079	1.177344	0.550466
O7	O	0.156944	0.667341	0.050490
O8	O	0.656944	1.167341	0.550490
O9	O	-0.008898	0.677338	-0.050584
O10	O	0.491102	1.177338	0.449416
O11	O	0.079050	0.589403	-0.050565
O12	O	0.579050	1.089403	0.449435
O13	O	0.069019	0.755270	-0.050580
O14	O	0.569019	1.255270	0.449420
Cu15	Cu	0.074036	0.672336	-0.059799
Cu16	Cu	0.574036	1.172336	0.440201
Cu17	Cu	0.074009	0.672343	0.059705
Cu18	Cu	0.574009	1.172343	0.559705
O19	O	0.156967	0.667335	-0.050561
O20	O	0.656967	1.167335	0.449439
C21	C	0.078787	0.568189	-0.000038
C22	C	0.578787	1.068189	0.499962
C23	C	0.078032	0.504971	-0.000032
C24	C	0.578032	1.004971	0.499968
C25	C	0.074716	0.231730	0.055046
C26	C	0.574716	0.731730	0.555046
C27	C	0.075431	0.291130	0.055048
C28	C	0.575431	0.791130	0.555048
O29	O	0.075770	0.321859	0.101892
O30	O	0.575770	0.821859	0.601892
N31	N	0.075804	0.320832	-0.000035
N32	N	0.575804	0.820832	0.499965
C33	C	0.075457	0.291133	-0.055123
C34	C	0.575457	0.791133	0.444877
O35	O	0.075840	0.321851	-0.101975
O36	O	0.575840	0.821851	0.398025
C37	C	0.074738	0.231735	-0.055124
C38	C	0.574738	0.731735	0.444876
C39	C	0.074370	0.202035	-0.000037
C40	C	0.574370	0.702035	0.499963
C41	C	0.074347	0.202030	0.110128
C42	C	0.574347	0.702030	0.610128
C43	C	0.073633	0.142635	0.110126
C44	C	0.573633	0.642635	0.610126
C45	C	0.073288	0.112939	0.055043
C46	C	0.573288	0.612939	0.555043
C47	C	0.073657	0.142639	-0.000039
C48	C	0.573657	0.642639	0.499961
C49	C	0.074387	0.202036	-0.110211
C50	C	0.574387	0.702036	0.389789
C51	C	0.073668	0.142634	-0.110207
C52	C	0.573668	0.642634	0.389793
C53	C	0.073300	0.112934	-0.055121
C54	C	0.573300	0.612934	0.444879
C55	C	0.072597	0.053547	-0.055125
C56	C	0.572597	0.553547	0.444875
N57	N	0.072224	0.023845	-0.000042
N58	N	0.572224	0.523845	0.499958
C59	C	0.072569	0.053541	0.055042
C60	C	0.572569	0.553541	0.555042
C61	C	0.076966	0.415873	-0.055117
C62	C	0.576966	0.915873	0.444883
C63	C	0.077689	0.475269	-0.055116
C64	C	0.577689	0.975269	0.444884
C65	C	0.077662	0.475263	0.055055
C66	C	0.577662	0.975263	0.555055
C67	C	0.076943	0.415865	0.055054
C68	C	0.576943	0.915865	0.555054
C69	C	0.076593	0.386171	-0.000034
C70	C	0.576593	0.886171	0.499966
C71	C	0.071070	-0.071195	0.055034
C72	C	0.571070	0.428805	0.555034
C73	C	0.070359	-0.130596	0.055027
C74	C	0.570359	0.369404	0.555027
C75	C	0.070384	-0.130584	-0.055144
C76	C	0.570384	0.369416	0.444856
C77	C	0.071098	-0.071188	-0.055137
C78	C	0.571098	0.428812	0.444863
C79	C	0.071440	-0.041495	-0.000044
C80	C	0.571440	0.458505	0.499956
O81	O	0.072255	0.022781	-0.101945
O82	O	0.572255	0.522781	0.398055
O83	O	0.072178	0.022816	0.101886
O84	O	0.572178	0.522816	0.601886
C85	C	-0.030126	0.677086	-0.000060
C86	C	0.469874	1.177086	0.499940
C87	C	-0.093343	0.676320	-0.000065
C88	C	0.406657	1.176320	0.499935
C89	C	-0.492454	0.723555	-0.000036
C90	C	0.007546	1.223555	0.499964
C91	C	-0.551854	0.722844	-0.000031
C92	C	-0.051854	1.222844	0.499969
O93	O	-0.588606	0.766630	-0.000013
O94	O	-0.088606	1.266630	0.499987
N95	N	-0.574471	0.670566	-0.000027
N96	N	-0.074471	1.170566	0.499973
C97	C	-0.537685	0.618997	-0.000021
C98	C	-0.037685	1.118997	0.499979
O99	O	-0.562377	0.574465	-0.000016
O100	O	-0.062377	1.074465	0.499984
C101	C	-0.478286	0.619709	-0.000021
C102	C	0.021714	1.119709	0.499979
C103	C	-0.455672	0.671990	-0.000032
C104	C	0.044328	1.171990	0.499968
C105	C	-0.469839	0.775832	-0.000046
C106	C	0.030161	1.275832	0.499954
C107	C	-0.410443	0.776543	-0.000052
C108	C	0.089557	1.276543	0.499948
C109	C	-0.373662	0.724977	-0.000048
C110	C	0.126338	1.224977	0.499952
C111	C	-0.396276	0.672701	-0.000038
C112	C	0.103724	1.172701	0.499962
C113	C	-0.441501	0.568140	-0.000011
C114	C	0.058499	1.068140	0.499989
C115	C	-0.382099	0.568857	-0.000011
C116	C	0.117901	1.068857	0.499989
C117	C	-0.359485	0.621137	-0.000021
C118	C	0.140515	1.121137	0.499979
C119	C	-0.300099	0.621847	-0.000039
C120	C	0.199901	1.121847	0.499961
N121	N	-0.277481	0.674124	-0.000044
N122	N	0.222519	1.174124	0.499956
C123	C	-0.314263	0.725690	-0.000048
C124	C	0.185737	1.225690	0.499952
C125	C	-0.662427	0.617505	-0.000019
C126	C	-0.162427	1.117505	0.499981
C127	C	-0.721825	0.616793	-0.000023
C128	C	-0.221825	1.116793	0.499977
C129	C	-0.735990	0.720640	-0.000032
C130	C	-0.235990	1.220640	0.499968
C131	C	-0.676591	0.721352	-0.000033
C132	C	-0.176591	1.221352	0.499967
C133	C	-0.639810	0.669783	-0.000024
C134	C	-0.139810	1.169783	0.499976
C135	C	-0.189526	0.727179	-0.000061
C136	C	0.310474	1.227179	0.499939
C137	C	-0.130124	0.727886	-0.000069
C138	C	0.369876	1.227886	0.499931
C139	C	-0.115965	0.624039	-0.000057
C140	C	0.384035	1.124039	0.499943
C141	C	-0.175361	0.623332	-0.000051
C142	C	0.324639	1.123332	0.499949
C143	C	-0.212141	0.674907	-0.000051
C144	C	0.287859	1.174907	0.499949
O145	O	-0.263312	0.578083	-0.000055
O146	O	0.236688	1.078083	0.499945
O147	O	-0.289562	0.770214	-0.000045
O148	O	0.210438	1.270214	0.499955
C149	C	0.178171	0.667592	-0.000033
C150	C	0.678171	1.167592	0.499967
C151	C	0.241388	0.668358	-0.000024
C152	C	0.741388	1.168358	0.499976
C153	C	0.069258	0.776489	-0.000055
C154	C	0.569258	1.276489	0.499945
C155	C	0.070014	0.839708	-0.000057
C156	C	0.570014	1.339708	0.499943
N157	N	0.074055	0.672335	-0.143851
N158	N	0.574055	1.172335	0.356149
C159	C	0.112953	0.633384	-0.436455
C160	C	0.612953	1.133384	0.063545
C161	C	0.112958	0.633382	-0.372847
C162	C	0.612958	1.133382	0.127153
O163	O	0.146054	0.600248	-0.339949
O164	O	0.646054	1.100248	0.160051
N165	N	0.074033	0.672330	-0.341036
N166	N	0.574033	1.172330	0.158964
C167	C	0.035097	0.711278	-0.372835
C168	C	0.535097	1.211278	0.127165
O169	O	0.001989	0.744406	-0.339936
O170	O	0.501989	1.244406	0.160064
C171	C	0.035090	0.711277	-0.436441
C172	C	0.535090	1.211277	0.063559
C173	C	0.074021	0.672330	-0.468250
C174	C	0.574021	1.172330	0.031750
C175	C	0.151881	0.594440	-0.468263
C176	C	0.651881	1.094440	0.031737
C177	C	0.151876	0.594442	-0.531866
C178	C	0.651876	1.094442	-0.031866
C179	C	0.112944	0.633389	-0.563661
C180	C	0.612944	1.133389	-0.063661
C181	C	0.074016	0.672332	-0.531853
C182	C	0.574016	1.172332	-0.031853
C183	C	-0.003849	0.750222	-0.468239
C184	C	0.496151	1.250222	0.031761
C185	C	-0.003853	0.750216	-0.531850
C186	C	0.496147	1.250216	-0.031850
C187	C	0.035078	0.711270	-0.563659
C188	C	0.535078	1.211270	-0.063659
C189	C	0.035080	0.711281	-0.627251
C190	C	0.535080	1.211281	-0.127251
N191	N	0.074004	0.672333	-0.659063
N192	N	0.574004	1.172333	-0.159063
C193	C	0.112937	0.633387	-0.627268
C194	C	0.612937	1.133387	-0.127268
C195	C	0.035115	0.711278	-0.239257
C196	C	0.535115	1.211278	0.260743
C197	C	0.035125	0.711283	-0.175652
C198	C	0.535125	1.211283	0.324348
C199	C	0.112985	0.633386	-0.175669
C200	C	0.612985	1.133386	0.324331
C201	C	0.112978	0.633385	-0.239275
C202	C	0.612978	1.133385	0.260725
C203	C	0.074040	0.672330	-0.271069
C204	C	0.574040	1.172330	0.228931
C205	C	0.112924	0.633395	-0.760839
C206	C	0.612924	1.133395	-0.260839
C207	C	0.112918	0.633402	-0.824448
C208	C	0.612918	1.133402	-0.324448
C209	C	0.035056	0.711297	-0.824426
C210	C	0.535056	1.211297	-0.324426
C211	C	0.035064	0.711292	-0.760822
C212	C	0.535064	1.211292	-0.260822
C213	C	0.074000	0.672336	-0.729031
C214	C	0.574000	1.172336	-0.229031
O215	O	0.001999	0.744397	-0.660190
O216	O	0.501999	1.244397	-0.160190
O217	O	0.146035	0.600260	-0.660174
O218	O	0.646035	1.100260	-0.160174
N219	N	0.073986	0.672349	0.143757
N220	N	0.573986	1.172349	0.643757
H221	H	0.070061	-0.154776	0.099887
H222	H	0.570061	0.345224	0.599887
C223	C	0.120883	-0.011069	-0.119050
C224	C	0.620883	0.488931	0.380950
C225	C	0.071509	-0.038542	-0.115689
C226	C	0.571509	0.461458	0.384311
H227	H	0.121133	0.009079	-0.156435
H228	H	0.621133	0.509079	0.343565
H229	H	0.121183	0.015121	-0.086250
H230	H	0.621183	0.515121	0.413750
H231	H	0.153817	-0.038777	-0.116752
H232	H	0.653817	0.461223	0.383248
H233	H	0.038574	-0.010833	-0.117982
H234	H	0.538574	0.489167	0.382018
H235	H	0.071203	-0.064733	-0.148498
H236	H	0.571203	0.435267	0.351502
H237	H	0.070105	-0.154774	-0.099991
H238	H	0.570105	0.345226	0.400009
C239	C	-0.045363	0.775097	-0.000085
C240	C	0.454637	1.275097	0.499915
C241	C	-0.105268	0.785357	-0.000079
C242	C	0.394732	1.285357	0.499921
H243	H	-0.030021	0.810576	-0.000094
H244	H	0.469979	1.310576	0.499906
H245	H	-0.032722	0.753886	0.035152
H246	H	0.467278	1.253886	0.535152
H247	H	-0.032722	0.753878	-0.035325
H248	H	0.467278	1.253878	0.464675
H249	H	-0.117910	0.806572	0.035164
H250	H	0.382090	1.306572	0.535164
H251	H	-0.117914	0.806577	-0.035319
H252	H	0.382086	1.306577	0.464681
H253	H	0.074626	0.226203	0.154986
H254	H	0.574626	0.726203	0.654986
C255	C	-0.618021	0.782404	0.051908
C256	C	-0.118021	1.282404	0.551908
C257	C	-0.651734	0.778819	-0.000038
C258	C	-0.151734	1.278819	0.499962
H259	H	-0.602675	0.817882	0.051902
H260	H	-0.102675	1.317882	0.551902
H261	H	-0.640904	0.779970	0.087139
H262	H	-0.140904	1.279970	0.587139
H263	H	-0.587612	0.751795	0.051905
H264	H	-0.087612	1.251795	0.551905
H265	H	-0.682145	0.809425	-0.000033
H266	H	-0.182145	1.309425	0.499967
H267	H	-0.628850	0.781258	-0.035278
H268	H	-0.128850	1.281258	0.464722
H269	H	-0.459902	0.525567	0.000001
H270	H	0.040098	1.025567	0.500001
C271	C	0.076990	0.421838	0.163950
C272	C	0.576990	0.921838	0.663950
C273	C	0.076533	0.383222	0.115606
C274	C	0.576533	0.883222	0.615606
H275	H	0.076733	0.401687	0.201333
H276	H	0.576733	0.901687	0.701333
H277	H	0.110485	0.440467	0.161661
H278	H	0.610485	0.940467	0.661661
H279	H	0.044053	0.449544	0.161647
H280	H	0.544053	0.949544	0.661647
H281	H	0.109472	0.355519	0.117906
H282	H	0.609472	0.855519	0.617906
H283	H	0.043035	0.364584	0.117896
H284	H	0.543035	0.864584	0.617896
C285	C	-0.063657	0.745247	-0.156163
C286	C	0.436343	1.245247	0.343837
C287	C	-0.007706	0.754097	-0.140740
C288	C	0.492294	1.254097	0.359260
H289	H	-0.090112	0.771676	-0.134623
H290	H	0.409888	1.271676	0.365377
H291	H	-0.069182	0.750791	-0.198600
H292	H	0.430818	1.250791	0.301400
H293	H	-0.069624	0.707273	-0.145716
H294	H	0.430376	1.207273	0.354284
H295	H	-0.001738	0.792070	-0.151191
H296	H	0.498262	1.292070	0.348809
H297	H	-0.002179	0.748558	-0.098293
H298	H	0.497821	1.248558	0.401707
C299	C	0.120825	-0.011090	0.118963
C300	C	0.620825	0.488910	0.618963
C301	C	0.071451	-0.038560	0.115591
C302	C	0.571451	0.461440	0.615591
H303	H	0.121060	0.009059	0.156346
H304	H	0.621060	0.509059	0.656346
H305	H	0.153755	-0.038796	0.116674
H306	H	0.653755	0.461204	0.616674
H307	H	0.121140	0.015103	0.086159
H308	H	0.621140	0.515103	0.586159
H309	H	0.071138	-0.064756	0.148393
H310	H	0.571138	0.435244	0.648393
H311	H	0.038512	-0.010851	0.117886
H312	H	0.538512	0.489149	0.617886
H313	H	-0.765949	0.762627	-0.000033
H314	H	-0.265949	1.262627	0.499967
H315	H	-0.740232	0.574220	-0.000025
H316	H	-0.240232	1.074220	0.499975
C317	C	-0.374068	0.466135	0.000005
C318	C	0.125932	0.966135	0.500005
C319	C	-0.341670	0.512168	-0.000003
C320	C	0.158330	1.012168	0.499997
H321	H	-0.349109	0.431140	0.000005
H322	H	0.150891	0.931140	0.500005
H323	H	-0.397531	0.468023	0.035243
H324	H	0.102469	0.968023	0.535243
H325	H	-0.397531	0.468020	-0.035234
H326	H	0.102469	0.968020	0.464766
H327	H	-0.318210	0.510286	0.035239
H328	H	0.181790	1.010286	0.535239
H329	H	-0.318197	0.510280	-0.035245
H330	H	0.181803	1.010280	0.464755
C331	C	0.189893	0.556404	-0.767262
C332	C	0.689893	1.056404	-0.267262
C333	C	0.155728	0.590579	-0.725900
C334	C	0.655728	1.090579	-0.225900
H335	H	0.216322	0.529977	-0.745691
H336	H	0.716322	1.029977	-0.245691
H337	H	0.166290	0.536055	-0.792062
H338	H	0.666290	1.036055	-0.292062
H339	H	0.210245	0.580005	-0.792078
H340	H	0.710245	1.080005	-0.292078
H341	H	0.135373	0.566979	-0.701087
H342	H	0.635373	1.066979	-0.201087
H343	H	0.179334	0.610929	-0.701090
H344	H	0.679334	1.110929	-0.201090
H345	H	0.077942	0.499452	0.099907
H346	H	0.577942	0.999452	0.599907
C347	C	0.122344	0.117675	0.204047
C348	C	0.622344	0.617675	0.704047
C349	C	0.073219	0.109998	0.170681
C350	C	0.573219	0.609998	0.670681
H351	H	0.122083	0.097532	0.241435
H352	H	0.622083	0.597532	0.741435
H353	H	0.155443	0.103397	0.181427
H354	H	0.655443	0.603397	0.681427
H355	H	0.122816	0.157304	0.211917
H356	H	0.622816	0.657304	0.711917
H357	H	0.072749	0.070369	0.162808
H358	H	0.572749	0.570369	0.662808
H359	H	0.040111	0.124273	0.193306
H360	H	0.540111	0.624273	0.693306
H361	H	0.077998	0.499445	-0.099973
H362	H	0.577998	0.999445	0.400027
H363	H	0.144685	0.601673	-0.149770
H364	H	0.644685	1.101673	0.350230
H365	H	-0.193774	0.580761	-0.000060
H366	H	0.306226	1.080761	0.499940
C367	C	-0.654402	0.514784	-0.000020
C368	C	-0.154402	1.014784	0.499980
C369	C	-0.622000	0.560815	-0.000021
C370	C	-0.122000	1.060815	0.499979
H371	H	-0.629445	0.479787	-0.000024
H372	H	-0.129445	0.979787	0.499976
H373	H	-0.677865	0.516669	0.035217
H374	H	-0.177865	1.016669	0.535217
H375	H	-0.677864	0.516675	-0.035260
H376	H	-0.177864	1.016675	0.464740
H377	H	-0.598540	0.558927	0.035221
H378	H	-0.098540	1.058927	0.535221
H379	H	-0.598527	0.558929	-0.035262
H380	H	-0.098527	1.058929	0.464738
H381	H	0.076689	0.391699	-0.099978
H382	H	0.576689	0.891699	0.400022
H383	H	-0.035550	0.781935	-0.442350
H384	H	0.464450	1.281935	0.057650
H385	H	-0.086007	0.582056	-0.000055
H386	H	0.413993	1.082056	0.499945
C387	C	-0.264534	0.786630	-0.052007
C388	C	0.235466	1.286630	0.447993
C389	C	-0.229950	0.783870	-0.000064
C390	C	0.270050	1.283870	0.499936
H391	H	-0.289492	0.821626	-0.052009
H392	H	0.210508	1.321626	0.447991
H393	H	-0.241065	0.784743	-0.087240
H394	H	0.258935	1.284743	0.412760
H395	H	-0.286508	0.755395	-0.051994
H396	H	0.213492	1.255395	0.448006
H397	H	-0.207974	0.815102	-0.000080
H398	H	0.292026	1.315102	0.499920
H399	H	-0.253422	0.785762	0.035178
H400	H	0.246578	1.285762	0.535178
H401	H	0.183576	0.562727	-0.557761
H402	H	0.683576	1.062727	-0.057761
C403	C	0.228845	0.517452	-0.474686
C404	C	0.728845	1.017452	0.025314
C405	C	0.194684	0.551628	-0.433322
C406	C	0.694684	1.051628	0.066678
H407	H	0.255276	0.491026	-0.453116
H408	H	0.755276	0.991026	0.046884
H409	H	0.205240	0.497103	-0.499482
H410	H	0.705240	0.997103	0.000518
H411	H	0.249195	0.541053	-0.499505
H412	H	0.749195	1.041053	0.000495
H413	H	0.174330	0.528029	-0.408505
H414	H	0.674330	1.028029	0.091495
H415	H	0.218292	0.571979	-0.408515
H416	H	0.718292	1.071979	0.091485
H417	H	0.144622	0.601687	-0.850344
H418	H	0.644622	1.101687	-0.350344
H419	H	0.074685	0.226208	-0.155068
H420	H	0.574685	0.726208	0.344932
H421	H	0.144679	0.601671	-0.265170
H422	H	0.644679	1.101671	0.234830
C423	C	-0.430429	0.879116	-0.000054
C424	C	0.069571	1.379116	0.499946
C425	C	-0.385591	0.834012	-0.000055
C426	C	0.114409	1.334012	0.499945
H427	H	-0.415088	0.914597	-0.000051
H428	H	0.084912	1.414597	0.499949
H429	H	-0.453296	0.876675	-0.035290
H430	H	0.046704	1.376675	0.464710
H431	H	-0.453305	0.876670	0.035187
H432	H	0.046695	1.376670	0.535187
H433	H	-0.362718	0.836456	-0.035299
H434	H	0.137282	1.336456	0.464701
H435	H	-0.362715	0.836455	0.035185
H436	H	0.137285	1.336455	0.535185
C437	C	-0.041919	0.788284	-0.818036
C438	C	0.458081	1.288284	-0.318036
C439	C	-0.007745	0.754099	-0.859382
C440	C	0.492255	1.254099	-0.359382
H441	H	-0.068343	0.814706	-0.839619
H442	H	0.431657	1.314706	-0.339619
H443	H	-0.062271	0.764693	-0.793218
H444	H	0.437729	1.264693	-0.293218
H445	H	-0.018317	0.808644	-0.793236
H446	H	0.481683	1.308644	-0.293236
H447	H	-0.031346	0.733736	-0.884179
H448	H	0.468654	1.233736	-0.384179
H449	H	0.012609	0.777693	-0.884210
H450	H	0.512609	1.277693	-0.384210
H451	H	-0.499782	0.817825	-0.000047
H452	H	0.000218	1.317825	0.499953
H453	H	0.003408	0.742997	-0.265141
H454	H	0.503408	1.242997	0.234859
C455	C	0.073762	0.148612	-0.219108
C456	C	0.573762	0.648612	0.280892
C457	C	0.073286	0.109995	-0.170763
C458	C	0.573286	0.609995	0.329237
H459	H	0.073531	0.128461	-0.256491
H460	H	0.573531	0.628461	0.243509
H461	H	0.040827	0.176311	-0.216818
H462	H	0.540827	0.676311	0.283182
H463	H	0.107258	0.167248	-0.216805
H464	H	0.607258	0.667248	0.283195
H465	H	0.039788	0.091363	-0.173063
H466	H	0.539788	0.591363	0.326937
H467	H	0.106225	0.082286	-0.173054
H468	H	0.606225	0.582286	0.326946
C469	C	-0.080823	0.827207	-0.525440
C470	C	0.419177	1.327207	-0.025440
C471	C	-0.046657	0.793027	-0.566797
C472	C	0.453343	1.293027	-0.066797
H473	H	-0.107246	0.853638	-0.547015
H474	H	0.392754	1.353638	-0.047015
H475	H	-0.101178	0.803615	-0.500626
H476	H	0.398822	1.303615	-0.000626
H477	H	-0.057216	0.847558	-0.500637
H478	H	0.442784	1.347558	-0.000637
H479	H	-0.070265	0.772674	-0.591597
H480	H	0.429735	1.272674	-0.091597
H481	H	-0.026302	0.816623	-0.591621
H482	H	0.473698	1.316623	-0.091621
H483	H	0.003368	0.743011	-0.734924
H484	H	0.503368	1.243011	-0.234924
