data_functionalizedCrystal
_audit_creation_method	'MofGen! by Chris Wilmer'
_symmetry_space_group_name_H-M	'P1'
_symmetry_Int_Tables_number	1
_symmetry_cell_setting	triclinic
loop_
_symmetry_equiv_pos_as_xyz
  x,y,z
_cell_length_a	12.759401
_cell_length_b	12.759400
_cell_length_c	12.759393
_cell_angle_alpha	89.974992
_cell_angle_beta	90.019011
_cell_angle_gamma	89.998021
loop_
_atom_site_label
_atom_site_type_symbol
_atom_site_fract_x
_atom_site_fract_y
_atom_site_fract_z
Zn1	Zn	-1.606337	-0.418245	-0.594045
Zn2	Zn	-1.106337	0.081755	-0.094045
Zn3	Zn	-1.606266	-0.593964	-0.418386
Zn4	Zn	-1.106266	-0.093964	0.081614
Zn5	Zn	-1.430639	-0.418295	-0.418383
Zn6	Zn	-0.930639	0.081705	0.081617
Zn7	Zn	-1.430662	-0.593878	-0.594025
Zn8	Zn	-0.930662	-0.093878	-0.094025
O9	O	-1.518476	-0.506095	-0.506210
O10	O	-1.018476	-0.006095	-0.006210
O11	O	-1.753349	-0.441569	-0.570753
O12	O	-1.253349	0.058431	-0.070753
O13	O	-1.582929	-0.570718	-0.271364
O14	O	-1.082929	-0.070718	0.228636
O15	O	-1.453966	-0.271267	-0.441692
O16	O	-0.953966	0.228733	0.058308
O17	O	-1.753297	-0.570669	-0.441697
O18	O	-1.253297	-0.070669	0.058303
O19	O	-1.583050	-0.271230	-0.570750
O20	O	-1.083050	0.228770	-0.070750
O21	O	-1.453897	-0.441655	-0.271362
O22	O	-0.953897	0.058345	0.228638
O23	O	-1.283621	-0.441571	-0.441673
O24	O	-0.783621	0.058429	0.058327
O25	O	-1.454005	-0.570523	-0.741049
O26	O	-0.954005	-0.070523	-0.241049
O27	O	-1.283638	-0.570571	-0.570717
O28	O	-0.783638	-0.070571	-0.070717
O29	O	-1.583073	-0.441486	-0.741064
O30	O	-1.083073	0.058514	-0.241064
O31	O	-1.582952	-0.740973	-0.441677
O32	O	-1.082952	-0.240973	0.058323
O33	O	-1.453936	-0.740910	-0.570719
O34	O	-0.953936	-0.240910	-0.070719
C35	C	-1.245509	-0.506068	-0.506193
C36	C	-0.745509	-0.006068	-0.006193
C37	C	-1.128732	-0.506082	-0.506211
C38	C	-0.628732	-0.006082	-0.006211
C39	C	-0.964175	-0.573365	-0.573304
C40	C	-0.464175	-0.073365	-0.073304
C41	C	-1.073899	-0.573357	-0.573294
C42	C	-0.573899	-0.073357	-0.073294
C43	C	-1.073835	-0.438818	-0.439125
C44	C	-0.573835	0.061182	0.060875
C45	C	-0.964113	-0.438833	-0.439131
C46	C	-0.464113	0.061167	0.060869
C47	C	-1.518467	-0.779063	-0.506219
C48	C	-1.018467	-0.279063	-0.006219
C49	C	-1.518560	-0.895839	-0.506259
C50	C	-1.018560	-0.395839	-0.006259
C51	C	-1.518549	-0.505989	-0.780243
C52	C	-1.018549	-0.005989	-0.280243
C53	C	-1.518581	-0.505944	-0.897020
C54	C	-1.018581	-0.005944	-0.397020
C55	C	-0.792509	-0.506116	-0.506225
C56	C	-0.292509	-0.006116	-0.006225
C57	C	-0.909286	-0.506105	-0.506226
C58	C	-0.409286	-0.006105	-0.006226
C59	C	-1.518514	-0.232062	-0.506223
C60	C	-1.018514	0.267938	-0.006223
C61	C	-1.518530	-0.115285	-0.506229
C62	C	-1.018530	0.384715	-0.006229
C63	C	-1.451333	-0.060441	-0.439041
C64	C	-0.951333	0.439559	0.060959
C65	C	-1.451345	0.049283	-0.439058
C66	C	-0.951345	0.549283	0.060942
C67	C	-1.585759	0.049309	-0.573454
C68	C	-1.085759	0.549309	-0.073454
C69	C	-1.585741	-0.060413	-0.573442
C70	C	-1.085741	0.439587	-0.073442
C71	C	-1.451418	-0.438728	-0.951880
C72	C	-0.951418	0.061272	-0.451880
C73	C	-1.451442	-0.438696	-1.061605
C74	C	-0.951442	0.061304	-0.561605
C75	C	-1.585802	-0.573098	-1.061598
C76	C	-1.085802	-0.073098	-0.561598
C77	C	-1.585771	-0.573134	-0.951876
C78	C	-1.085771	-0.073134	-0.451876
C79	C	-1.518464	-0.506125	-0.233242
C80	C	-1.018464	-0.006125	0.266758
C81	C	-1.518636	-0.505875	-0.116466
C82	C	-1.018636	-0.005875	0.383534
H83	H	-0.919538	-0.628143	-0.627936
H84	H	-0.419538	-0.128143	-0.127936
N85	N	-1.658283	-0.645556	-1.120757
N86	N	-1.158283	-0.145556	-0.620757
H87	H	-1.641947	-0.720626	-1.101654
H88	H	-1.141947	-0.220626	-0.601654
H89	H	-1.648087	-0.635247	-1.198573
H90	H	-1.148087	-0.135247	-0.698573
N91	N	-1.132970	-0.366261	-0.366764
N92	N	-0.632970	0.133739	0.133236
H93	H	-1.210808	-0.376454	-0.376940
H94	H	-0.710808	0.123546	0.123060
H95	H	-1.113788	-0.291249	-0.383239
H96	H	-0.613788	0.208751	0.116761
H97	H	-1.396603	-0.105115	-0.384314
H98	H	-0.896603	0.394885	0.115686
H99	H	-0.919421	-0.384060	-0.384503
H100	H	-0.419421	0.115940	0.115497
N101	N	-1.378870	0.108438	-0.366591
N102	N	-0.878870	0.608438	0.133409
H103	H	-1.336293	0.057024	-0.324013
H104	H	-0.836293	0.557024	0.175987
H105	H	-1.421634	0.153943	-0.317983
H106	H	-0.921634	0.653943	0.182017
N107	N	-1.658246	0.108492	-0.645947
N108	N	-1.158246	0.608492	-0.145947
H109	H	-1.648063	0.186323	-0.635761
H110	H	-1.148063	0.686323	-0.135761
H111	H	-1.733274	0.089299	-0.629604
H112	H	-1.233274	0.589299	-0.129604
H113	H	-1.640460	-0.105069	-0.628161
H114	H	-1.140460	0.394931	-0.128161
H115	H	-1.396750	-0.383963	-1.106267
H116	H	-0.896750	0.116037	-0.606267
N117	N	-1.133103	-0.645907	-0.645636
N118	N	-0.633103	-0.145907	-0.145636
H119	H	-1.081717	-0.688523	-0.688137
H120	H	-0.581717	-0.188523	-0.188137
H121	H	-1.178646	-0.603195	-0.694322
H122	H	-0.678646	-0.103195	-0.194322
N123	N	-1.378954	-0.366260	-0.892712
N124	N	-0.878954	0.133740	-0.392712
H125	H	-1.336411	-0.323675	-0.944120
H126	H	-0.836411	0.176325	-0.444120
H127	H	-1.330314	-0.409031	-0.847177
H128	H	-0.830314	0.090969	-0.347177
N129	N	-1.658209	-0.645641	-0.892696
N130	N	-1.158209	-0.145641	-0.392696
H131	H	-1.700783	-0.688195	-0.944096
H132	H	-1.200783	-0.188195	-0.444096
H133	H	-1.706823	-0.602898	-0.847176
H134	H	-1.206823	-0.102898	-0.347176
