data_functionalizedCrystal
_audit_creation_method	'MofGen! by Chris Wilmer'
_symmetry_space_group_name_H-M	'P1'
_symmetry_Int_Tables_number	1
_symmetry_cell_setting	triclinic
loop_
_symmetry_equiv_pos_as_xyz
  x,y,z
_cell_length_a	17.699083
_cell_length_b	17.038272
_cell_length_c	16.176319
_cell_angle_alpha	89.993159
_cell_angle_beta	89.998611
_cell_angle_gamma	87.197286
loop_
_atom_site_label
_atom_site_type_symbol
_atom_site_fract_x
_atom_site_fract_y
_atom_site_fract_z
O1	O	1.010620	0.098861	-0.068631
O2	O	1.510620	0.598861	0.431369
O3	O	0.791093	0.111723	-0.068658
O4	O	1.291093	0.611723	0.431342
O5	O	0.899552	-0.008521	-0.068638
O6	O	1.399552	0.491479	0.431362
O7	O	0.902161	0.219105	-0.068651
O8	O	1.402161	0.719105	0.431349
O9	O	0.899535	-0.008529	0.068855
O10	O	1.399535	0.491471	0.568855
O11	O	0.791077	0.111715	0.068835
O12	O	1.291077	0.611715	0.568835
O13	O	1.010604	0.098853	0.068862
O14	O	1.510604	0.598853	0.568862
Cu15	Cu	0.900839	0.105284	0.081403
Cu16	Cu	1.400839	0.605284	0.581403
Cu17	Cu	0.900858	0.105293	-0.081199
Cu18	Cu	1.400858	0.605293	0.418801
O19	O	0.902145	0.219098	0.068842
O20	O	1.402145	0.719098	0.568842
C21	C	0.762857	0.111258	0.000085
C22	C	1.262857	0.611258	0.500085
C23	C	0.678748	0.109876	0.000075
C24	C	1.178748	0.609876	0.500075
C25	C	0.634797	0.180457	0.000071
C26	C	1.134797	0.680457	0.500071
C27	C	0.555767	0.179153	0.000082
C28	C	1.055767	0.679153	0.500082
C29	C	0.520690	0.107267	0.000091
C30	C	1.020690	0.607267	0.500091
C31	C	0.564647	0.036681	0.000097
C32	C	1.064647	0.536681	0.500097
C33	C	0.643675	0.037986	0.000092
C34	C	1.143675	0.537986	0.500092
C35	C	0.245935	0.031418	0.000118
C36	C	0.745935	0.531418	0.500118
C37	C	0.166901	0.030119	0.000120
C38	C	0.666901	0.530119	0.500120
C39	C	0.158028	0.172585	0.000108
C40	C	0.658028	0.672585	0.500108
C41	C	0.237056	0.173890	0.000103
C42	C	0.737056	0.673890	0.500103
C43	C	0.281006	0.103304	0.000113
C44	C	0.781006	0.603304	0.500113
C45	C	0.366699	0.104719	0.000103
C46	C	0.866699	0.604719	0.500103
C47	C	0.434999	0.105852	0.000095
C48	C	0.934999	0.605852	0.500095
C49	C	0.897170	-0.037649	0.000108
C50	C	1.397170	0.462351	0.500108
C51	C	0.890090	-0.124431	0.000107
C52	C	1.390090	0.375569	0.500107
C53	C	0.955100	-0.174651	0.000116
C54	C	1.455100	0.325349	0.500116
C55	C	0.948442	-0.256191	0.000107
C56	C	1.448442	0.243809	0.500107
C57	C	0.876773	-0.287509	0.000096
C58	C	1.376773	0.212491	0.500096
C59	C	0.811758	-0.237282	0.000084
C60	C	1.311758	0.262718	0.500084
C61	C	0.818417	-0.155744	0.000087
C62	C	1.318417	0.344256	0.500087
C63	C	0.853251	-0.533228	0.000081
C64	C	1.353251	-0.033228	0.500081
C65	C	0.846597	-0.614773	0.000081
C66	C	1.346597	-0.114773	0.500081
C67	C	0.983282	-0.633676	0.000103
C68	C	1.483282	-0.133676	0.500103
C69	C	0.989934	-0.552135	0.000110
C70	C	1.489934	-0.052135	0.500110
C71	C	0.924919	-0.501916	0.000095
C72	C	1.424919	-0.001916	0.500095
C73	C	0.869967	-0.370855	0.000089
C74	C	1.369967	0.129145	0.500089
C75	C	0.931726	-0.418571	0.000095
C76	C	1.431726	0.081429	0.500095
C77	C	1.038840	0.099318	0.000117
C78	C	1.538840	0.599318	0.500117
C79	C	1.122949	0.100701	0.000122
C80	C	1.622949	0.600701	0.500122
C81	C	0.904526	0.248226	0.000094
C82	C	1.404526	0.748226	0.500094
C83	C	0.911607	0.335007	0.000090
C84	C	1.411607	0.835007	0.500090
N85	N	0.900830	0.105277	0.195768
N86	N	1.400830	0.605277	0.695768
N87	N	0.900872	0.105293	-0.195564
N88	N	1.400872	0.605293	0.304436
C89	C	0.948873	0.052054	0.239041
C90	C	1.448873	0.552054	0.739041
C91	C	0.948877	0.052054	0.325588
C92	C	1.448877	0.552054	0.825588
C93	C	0.900841	0.105280	0.368861
C94	C	1.400841	0.605280	0.868861
C95	C	0.852793	0.158505	0.325582
C96	C	1.352793	0.658505	0.825582
C97	C	0.852786	0.158501	0.239036
C98	C	1.352786	0.658501	0.739036
C99	C	0.852820	0.158519	0.674610
C100	C	1.352820	0.658519	1.174610
C101	C	0.852833	0.158520	0.761162
C102	C	1.352833	0.658520	1.261162
C103	C	0.948911	0.052072	0.761162
C104	C	1.448911	0.552072	1.261162
C105	C	0.948904	0.052068	0.674617
C106	C	1.448904	0.552068	1.174617
C107	C	0.900853	0.105290	0.631345
C108	C	1.400853	0.605290	1.131345
C109	C	0.900849	0.105289	0.537501
C110	C	1.400849	0.605289	1.037501
C111	C	0.900849	0.105285	0.462703
C112	C	1.400849	0.605285	0.962703
H113	H	1.013460	-0.149159	0.000131
H114	H	1.513460	0.350841	0.500131
H115	H	0.788233	-0.640268	0.000085
H116	H	1.288233	-0.140268	0.500085
H117	H	0.813714	0.201865	0.796393
H118	H	1.313714	0.701865	1.296393
N119	N	0.526808	-0.040849	0.000105
N120	N	1.026808	0.459151	0.500105
H121	H	0.542501	-0.071764	-0.050861
H122	H	1.042501	0.428236	0.449139
H123	H	0.542512	-0.071705	0.051110
H124	H	1.042512	0.428295	0.551110
H125	H	0.813698	0.201856	0.639385
H126	H	1.313698	0.701856	1.139385
H127	H	0.813678	0.201840	0.360819
H128	H	1.313678	0.701840	0.860819
N129	N	0.691080	-0.038142	0.000089
N130	N	1.191080	0.461858	0.500089
H131	H	0.746466	-0.026408	0.000087
H132	H	1.246466	0.473592	0.500087
H133	H	0.679205	-0.069478	0.051063
H134	H	1.179205	0.430522	0.551063
H135	H	0.800310	-0.492349	0.000069
H136	H	1.300310	0.007651	0.500069
N137	N	0.672628	0.257991	0.000052
N138	N	1.172628	0.757991	0.500052
H139	H	0.632790	0.302505	0.000052
H140	H	1.132790	0.802505	0.500052
H141	H	0.705227	0.261636	0.051019
H142	H	1.205227	0.761636	0.551019
H143	H	0.753404	-0.262788	0.000070
H144	H	1.253404	0.237212	0.500070
H145	H	0.813664	0.201839	0.203804
H146	H	1.313664	0.701839	0.703804
H147	H	1.001381	-0.297077	0.000116
H148	H	1.501381	0.202923	0.500116
N149	N	0.293323	-0.044716	0.000130
N150	N	0.793323	0.455284	0.500130
H151	H	0.281507	-0.076082	-0.050836
H152	H	0.781507	0.423918	0.449164
H153	H	0.348694	-0.032929	0.000162
H154	H	0.848694	0.467071	0.500162
N155	N	0.129065	-0.047418	0.000130
N156	N	0.629065	0.452582	0.500130
H157	H	0.168898	-0.091936	0.000139
H158	H	0.668898	0.408064	0.500139
H159	H	0.096468	-0.051057	0.051102
H160	H	0.596468	0.448943	0.551102
H161	H	0.765478	-0.114855	0.000080
H162	H	1.265478	0.385145	0.500080
N163	N	1.067235	-0.518361	0.000095
N164	N	1.567235	-0.018361	0.500095
H165	H	1.061588	-0.459086	0.000091
H166	H	1.561588	0.040914	0.500091
H167	H	1.095921	-0.536742	0.051062
H168	H	1.595921	-0.036742	0.551062
H169	H	1.036213	-0.674572	0.000114
H170	H	1.536213	-0.174572	0.500114
H171	H	0.990079	-0.393068	0.000086
H172	H	1.490079	0.106932	0.500086
N173	N	0.792666	-0.404631	0.000084
N174	N	1.292666	0.095369	0.500084
H175	H	0.786864	-0.438034	-0.050886
H176	H	1.286864	0.061966	0.449114
H177	H	0.786906	-0.438009	0.051085
H178	H	1.286906	0.061991	0.551085
N179	N	1.000688	-0.005350	0.192372
N180	N	1.500688	0.494650	0.692372
H181	H	1.031122	-0.039066	0.232921
H182	H	1.531122	0.460934	0.732921
H183	H	0.969491	-0.039875	0.156472
H184	H	1.469491	0.460125	0.656472
N185	N	1.000738	-0.005336	0.807833
N186	N	1.500738	0.494664	1.307833
H187	H	0.993454	0.002738	0.869226
H188	H	1.493454	0.502738	1.369226
H189	H	0.988430	-0.060785	0.792714
H190	H	1.488430	0.439215	1.292714
H191	H	0.987996	0.008715	0.360821
H192	H	1.487996	0.508715	0.860821
H193	H	0.519986	0.236627	0.000078
H194	H	1.019986	0.736627	0.500078
H195	H	0.265612	0.232426	0.000092
H196	H	0.765612	0.732426	0.500092
H197	H	0.988021	0.008729	0.639387
H198	H	1.488021	0.508729	1.139387
N199	N	0.110625	0.248721	0.000099
N200	N	0.610625	0.748721	0.500099
H201	H	0.055238	0.236991	0.000106
H202	H	0.555238	0.736991	0.500106
H203	H	0.122505	0.280056	0.051063
H204	H	0.622505	0.780056	0.551063
