data_functionalizedCrystal
_audit_creation_method	'MofGen! by Chris Wilmer'
_symmetry_space_group_name_H-M	'P1'
_symmetry_Int_Tables_number	1
_symmetry_cell_setting	triclinic
loop_
_symmetry_equiv_pos_as_xyz
  x,y,z
_cell_length_a	16.992694
_cell_length_b	10.723024
_cell_length_c	15.455313
_cell_angle_alpha	92.691723
_cell_angle_beta	87.142206
_cell_angle_gamma	87.568046
loop_
_atom_site_label
_atom_site_type_symbol
_atom_site_fract_x
_atom_site_fract_y
_atom_site_fract_z
O1	O	1.045219	0.259622	-0.072018
O2	O	0.816920	0.256716	-0.072044
O3	O	0.936335	0.077046	-0.072027
O4	O	0.925803	0.439291	-0.072035
O5	O	0.929506	0.087275	0.072234
O6	O	0.810091	0.266945	0.072217
O7	O	1.038390	0.269851	0.072243
Cu8	Cu	0.923617	0.269332	0.085402
Cu9	Cu	0.931693	0.257235	-0.085203
O10	O	0.918974	0.449520	0.072226
C11	C	0.784273	0.258094	0.000083
C12	C	0.697169	0.246945	0.000074
C13	C	0.647507	0.354505	0.000072
C14	C	0.565663	0.344024	0.000084
C15	C	0.533484	0.225982	0.000092
C16	C	0.583152	0.118414	0.000096
C17	C	0.664993	0.128896	0.000090
C18	C	0.289651	0.182535	0.000116
C19	C	0.207803	0.172061	0.000119
C20	C	0.190320	0.397673	0.000109
C21	C	0.272165	0.408144	0.000098
C22	C	0.321825	0.300577	0.000107
N23	N	0.449827	0.215266	0.000102
N24	N	0.405480	0.311295	0.000103
C25	C	0.932154	0.035595	0.000102
C26	C	0.929861	-0.103157	0.000099
C27	C	0.996680	-0.172386	0.000105
C28	C	0.994312	-0.315793	0.000102
C29	C	1.071037	0.268473	0.000114
C30	C	1.158141	0.279621	0.000118
C31	C	0.923155	0.490971	0.000095
C32	C	0.925449	0.629723	0.000093
N33	N	0.917942	0.277840	0.205397
N34	N	0.937374	0.248717	-0.205198
C35	C	0.968692	0.201542	0.250798
C36	C	0.964408	0.207989	0.341605
C37	C	0.909377	0.290741	0.387010
C38	C	0.858622	0.367042	0.341602
C39	C	0.862903	0.360588	0.250797
C40	C	0.890899	0.318564	0.658589
C41	C	0.886624	0.325015	0.749401
C42	C	0.992409	0.165960	0.749398
C43	C	0.996689	0.159518	0.658590
C44	C	0.945931	0.235815	0.613191
N45	N	0.904999	0.297335	0.479830
N46	N	0.950306	0.229213	0.520373
H47	H	0.298359	0.504266	0.000082
H48	H	1.005732	0.145860	0.378571
H49	H	1.055640	-0.125486	0.000117
O50	O	0.841715	0.392752	0.614405
C51	C	0.830765	0.554376	0.511928
C52	C	0.886556	0.470400	0.561898
H53	H	0.866996	0.617194	0.469478
H54	H	0.793295	0.493591	0.469365
H55	H	0.790691	0.614573	0.560002
H56	H	0.926679	0.410188	0.513886
H57	H	0.923971	0.531257	0.604474
O58	O	0.857228	-0.299262	-0.000068
C59	C	0.780478	-0.148153	-0.074786
C60	C	0.857763	-0.228544	-0.074722
H61	H	0.780892	-0.090938	-0.135127
H62	H	0.728234	-0.211432	-0.074851
H63	H	0.775115	-0.082507	-0.014384
H64	H	0.863202	-0.294199	-0.135113
H65	H	0.909969	-0.165191	-0.074612
H66	H	1.051514	-0.375300	0.000111
H67	H	0.870902	-0.150057	0.000087
O68	O	0.678631	0.469272	0.000102
C69	C	0.652646	0.691936	0.000046
C70	C	0.617296	0.562040	0.000029
H71	H	0.603074	0.766972	-0.000032
H72	H	0.687647	0.706851	0.060430
H73	H	0.693399	0.698140	-0.060316
H74	H	0.576509	0.555744	0.060350
H75	H	0.582342	0.547181	-0.060395
O76	O	1.022173	0.121048	0.206831
C77	C	1.126673	-0.035984	0.216422
C78	C	1.066132	0.055104	0.266320
H79	H	1.162242	-0.089305	0.264497
H80	H	1.094514	-0.104866	0.173944
H81	H	1.168123	0.018860	0.173875
H82	H	1.024666	0.000365	0.308914
H83	H	1.098343	0.123987	0.308743
O84	O	0.337774	0.077918	0.000082
C85	C	0.346467	-0.146959	0.000147
C86	C	0.291875	-0.028579	0.000163
H87	H	0.309379	-0.233091	0.000231
H88	H	0.388059	-0.152071	-0.060240
H89	H	0.382385	-0.143341	0.060506
H90	H	0.255906	-0.032116	-0.060155
H91	H	0.250334	-0.023510	0.060590
H92	H	0.149878	0.485248	0.000104
H93	H	1.041499	0.092135	0.621624
O94	O	1.041674	0.091657	0.793406
C95	C	1.085121	-0.118842	0.821245
C96	C	1.029303	-0.034829	0.771335
H97	H	1.075127	-0.221123	0.803432
H98	H	1.148903	-0.097633	0.803367
H99	H	1.072619	-0.099954	0.893940
H100	H	1.041734	-0.053670	0.698628
H101	H	0.965539	-0.056054	0.789284
O102	O	0.833086	0.405421	0.793374
C103	C	0.728626	0.562525	0.783800
C104	C	0.789205	0.471512	0.733893
H105	H	0.693143	0.616003	0.735731
H106	H	0.687101	0.507738	0.826299
H107	H	0.760831	0.631281	0.826327
H108	H	0.757066	0.402736	0.691318
H109	H	0.830727	0.526381	0.691449
O110	O	0.805056	0.447285	0.385669
C111	C	0.667731	0.508724	0.413430
C112	C	0.728309	0.417746	0.363488
H113	H	0.605669	0.484890	0.395501
H114	H	0.673322	0.500226	0.486140
H115	H	0.679367	0.608478	0.395575
H116	H	0.716713	0.317953	0.381270
H117	H	0.722704	0.426352	0.290790
O118	O	0.517351	0.448413	-0.000041
C119	C	0.418371	0.562247	-0.074816
C120	C	0.473028	0.443948	-0.074769
H121	H	0.382534	0.558689	-0.135236
H122	H	0.376715	0.567289	-0.014482
H123	H	0.455447	0.648393	-0.074788
H124	H	0.436015	0.357735	-0.074828
H125	H	0.514687	0.439016	-0.135098
O126	O	0.551864	0.003764	-0.000050
C127	C	0.473099	-0.144275	-0.074753
C128	C	0.508499	-0.014413	-0.074703
H129	H	0.438017	-0.159002	-0.135095
H130	H	0.522625	-0.219410	-0.074808
H131	H	0.432402	-0.150516	-0.014351
H132	H	0.549188	-0.008050	-0.135095
H133	H	0.458933	0.060661	-0.074604
H134	H	0.821576	0.422716	0.213832
H135	H	0.181606	0.075931	0.000125
H136	H	0.705428	0.041309	0.000091
