data_functionalizedCrystal
_audit_creation_method	'MofGen! by Chris Wilmer'
_symmetry_space_group_name_H-M	'P1'
_symmetry_Int_Tables_number	1
_symmetry_cell_setting	triclinic
loop_
_symmetry_equiv_pos_as_xyz
  x,y,z
_cell_length_a	8.559649
_cell_length_b	10.723024
_cell_length_c	7.088929
_cell_angle_alpha	83.718137
_cell_angle_beta	95.325015
_cell_angle_gamma	77.123267
loop_
_atom_site_label
_atom_site_type_symbol
_atom_site_fract_x
_atom_site_fract_y
_atom_site_fract_z
O1	O	2.103422	-0.027906	-0.158957
O2	O	1.638923	0.036470	-0.158966
O3	O	1.881888	-0.178393	-0.158954
O4	O	1.860458	0.186957	-0.158969
O5	O	1.914357	-0.207166	0.159022
O6	O	1.671392	0.007698	0.159011
O7	O	2.135892	-0.056678	0.159020
Cu8	Cu	1.906607	-0.027117	0.188049
Cu9	Cu	1.868208	0.006909	-0.187995
O10	O	1.892927	0.158185	0.159008
C11	C	1.595681	0.026962	0.000021
C12	C	1.418460	0.041484	0.000018
C13	C	1.896563	-0.239119	0.000032
C14	C	1.891897	-0.377194	0.000025
C15	C	2.027846	-0.466115	0.000025
C16	C	2.023026	-0.608824	0.000018
C17	C	2.179133	-0.047170	0.000028
C18	C	2.356353	-0.061691	0.000019
C19	C	1.878252	0.218911	0.000017
C20	C	1.882917	0.356987	0.000012
N21	N	1.933626	-0.051052	0.452538
N22	N	1.841202	0.030832	-0.452485
H23	H	1.336043	0.140934	0.000003
H24	H	2.147807	-0.436593	0.000039
O25	O	2.048034	-0.152328	0.549647
C26	C	2.129558	-0.224609	0.418574
H27	H	2.117530	-0.160872	0.275833
H28	H	2.262681	-0.261132	0.476533
H29	H	2.074388	-0.310270	0.397368
O30	O	1.454890	-0.180244	0.000108
C31	C	1.615831	-0.168837	0.000060
H32	H	1.629279	-0.076953	0.060257
H33	H	1.700007	-0.256010	0.092379
H34	H	1.648350	-0.164327	-0.152490
O35	O	2.161721	-0.700072	-0.000069
C36	C	2.126036	-0.822248	-0.000026
H37	H	1.994436	-0.809645	-0.060224
H38	H	2.207619	-0.881660	-0.092346
H39	H	2.147197	-0.874232	0.152523
O40	O	1.743924	-0.552019	-0.000245
C41	C	1.637644	-0.551177	-0.164959
H42	H	1.670001	-0.648599	-0.219867
H43	H	1.508397	-0.532496	-0.127928
H44	H	1.648593	-0.471757	-0.280270
O45	O	1.727118	0.132114	0.449910
C46	C	1.801840	0.211163	0.334141
H47	H	1.923098	0.152159	0.304327
H48	H	1.721172	0.249953	0.193311
H49	H	1.821669	0.295296	0.411165
H50	H	1.771936	-0.406717	0.000010
