data_functionalizedCrystal
_audit_creation_method	'MofGen! by Chris Wilmer'
_symmetry_space_group_name_H-M	'P1'
_symmetry_Int_Tables_number	1
_symmetry_cell_setting	triclinic
loop_
_symmetry_equiv_pos_as_xyz
  x,y,z
_cell_length_a	21.395362
_cell_length_b	16.625546
_cell_length_c	21.395356
_cell_angle_alpha	90.025578
_cell_angle_beta	90.035770
_cell_angle_gamma	90.038346
loop_
_atom_site_label
_atom_site_type_symbol
_atom_site_fract_x
_atom_site_fract_y
_atom_site_fract_z
Zn1	Zn	0.957845	-0.320697	0.354586
Zn2	Zn	1.457845	0.179303	0.854586
Zn3	Zn	0.957777	-0.455529	0.249808
Zn4	Zn	1.457777	0.044471	0.749808
Zn5	Zn	0.853075	-0.320751	0.249787
Zn6	Zn	1.353075	0.179249	0.749787
Zn7	Zn	0.853044	-0.455528	0.354513
Zn8	Zn	1.353044	0.044472	0.854513
O9	O	0.905435	-0.388126	0.302174
O10	O	1.405435	0.111874	0.802174
O11	O	1.045514	-0.338560	0.340726
O12	O	1.545514	0.161440	0.840726
O13	O	0.943873	-0.437673	0.162128
O14	O	1.443873	0.062327	0.662128
O15	O	0.867014	-0.207911	0.263710
O16	O	1.367014	0.292089	0.763710
O17	O	1.045464	-0.437620	0.263747
O18	O	1.545464	0.062380	0.763747
O19	O	0.943988	-0.207872	0.340705
O20	O	1.443988	0.292128	0.840705
O21	O	0.866948	-0.338652	0.162112
O22	O	1.366948	0.161348	0.662112
O23	O	0.765393	-0.338652	0.263640
O24	O	1.265393	0.161348	0.763640
O25	O	0.866961	-0.437620	0.442201
O26	O	1.366961	0.062380	0.942201
O27	O	0.765370	-0.437673	0.340582
O28	O	1.265370	0.062327	0.840582
O29	O	0.943958	-0.338560	0.442254
O30	O	1.443958	0.161440	0.942254
O31	O	0.943843	-0.568361	0.263676
O32	O	1.443843	-0.068361	0.763676
O33	O	0.866896	-0.568361	0.340602
O34	O	1.366896	-0.068361	0.840602
C35	C	0.742648	-0.388169	0.302101
C36	C	1.242648	0.111831	0.802101
C37	C	0.673006	-0.388207	0.302085
C38	C	1.173006	0.111793	0.802085
C39	C	0.905376	-0.597617	0.302147
C40	C	1.405376	-0.097617	0.802147
C41	C	0.905408	-0.687238	0.302157
C42	C	1.405408	-0.187238	0.802157
C43	C	0.640298	-0.439835	0.342088
C44	C	1.140298	0.060165	0.842088
C45	C	0.574862	-0.439815	0.342116
C46	C	1.074862	0.060185	0.842116
C47	C	0.542138	-0.388175	0.302129
C48	C	1.042138	0.111825	0.802129
C49	C	0.574854	-0.336537	0.262123
C50	C	1.074854	0.163463	0.762123
C51	C	0.640288	-0.336553	0.262101
C52	C	1.140288	0.163447	0.762101
C53	C	0.438421	-0.381689	0.245724
C54	C	0.938421	0.118311	0.745724
C55	C	0.372988	-0.381679	0.245745
C56	C	0.872988	0.118321	0.745745
C57	C	0.340317	-0.388123	0.302198
C58	C	0.840317	0.111877	0.802198
C59	C	0.373088	-0.394593	0.358632
C60	C	0.873088	0.105407	0.858632
C61	C	0.438522	-0.394609	0.358610
C62	C	0.938522	0.105391	0.858610
C63	C	0.471186	-0.388152	0.302149
C64	C	0.971186	0.111848	0.802149
C65	C	0.236656	-0.439732	0.342236
C66	C	0.736656	0.060268	0.842236
C67	C	0.171220	-0.439707	0.342265
C68	C	0.671220	0.060293	0.842265
C69	C	0.171213	-0.336433	0.262266
C70	C	0.671213	0.163567	0.762266
C71	C	0.236648	-0.336455	0.262242
C72	C	0.736648	0.163545	0.762242
C73	C	0.269366	-0.388108	0.302227
C74	C	0.769366	0.111892	0.802227
C75	C	0.905517	-1.015414	0.302222
C76	C	1.405517	-0.515414	0.802222
C77	C	0.905485	-0.924105	0.302206
C78	C	1.405485	-0.424105	0.802206
C79	C	0.905462	-0.851329	0.302189
C80	C	1.405462	-0.351329	0.802189
C81	C	0.905431	-0.760015	0.302174
C82	C	1.405431	-0.260015	0.802174
C83	C	1.068859	-0.388084	0.302247
C84	C	1.568859	0.111916	0.802247
C85	C	1.138500	-0.388066	0.302278
C86	C	1.638500	0.111934	0.802278
C87	C	0.905464	-0.388084	0.465597
C88	C	1.405464	0.111916	0.965597
C89	C	0.905476	-0.388066	0.535238
C90	C	1.405476	0.111934	1.035238
C91	C	0.905512	-0.177817	0.302214
C92	C	1.405512	0.322183	0.802214
C93	C	0.905544	-0.088196	0.302231
C94	C	1.405544	0.411804	0.802231
C95	C	0.905443	-0.388110	0.139386
C96	C	1.405443	0.111890	0.639386
C97	C	0.905552	-0.387901	0.069745
C98	C	1.405552	0.112099	0.569745
C99	C	0.945601	-0.439457	1.037043
C100	C	1.445601	0.060543	1.537043
C101	C	0.945590	-0.439482	0.971608
C102	C	1.445590	0.060518	1.471608
C103	C	0.905536	-0.387938	0.938877
C104	C	1.405536	0.112062	1.438877
C105	C	0.865479	-0.336379	0.971586
C106	C	1.365479	0.163621	1.471586
C107	C	0.865487	-0.336360	1.037021
C108	C	1.365487	0.163640	1.537021
C109	C	0.900602	-0.315324	0.835220
C110	C	1.400602	0.184676	1.335220
C111	C	0.900599	-0.315341	0.769787
C112	C	1.400599	0.184659	1.269787
C113	C	0.905508	-0.387995	0.737056
C114	C	1.405508	0.112005	1.237056
C115	C	0.910433	-0.460634	0.769766
C116	C	1.410433	0.039366	1.269766
C117	C	0.910441	-0.460616	0.835200
C118	C	1.410441	0.039384	1.335200
C119	C	0.905523	-0.387952	0.867924
C120	C	1.405523	0.112048	1.367924
C121	C	0.945547	-0.439583	0.633401
C122	C	1.445547	0.060417	1.133401
C123	C	0.945531	-0.439610	0.567965
C124	C	1.445531	0.060390	1.067965
C125	C	0.865424	-0.336499	0.567945
C126	C	1.365424	0.163501	1.067945
C127	C	0.865436	-0.336479	0.633380
C128	C	1.365436	0.163521	1.133380
C129	C	0.905501	-0.388020	0.666105
C130	C	1.405501	0.111980	1.166105
H131	H	0.548226	-0.481857	0.374694
H132	H	1.048226	0.018143	0.874694
H133	H	0.263297	-0.481788	0.374796
H134	H	0.763297	0.018212	0.874796
H135	H	0.465201	-0.399875	0.404560
H136	H	0.965201	0.100125	0.904560
H137	H	0.978141	-0.481600	0.541340
H138	H	1.478141	0.018400	1.041340
H139	H	0.346489	-0.399839	0.404602
H140	H	0.846489	0.100161	0.904602
O141	O	0.895298	-0.236996	0.734511
O142	O	1.395298	0.263004	1.234511
H143	H	0.850729	-0.206925	0.747046
H144	H	1.350729	0.293075	1.247046
H145	H	0.832809	-0.294532	0.541296
H146	H	1.332809	0.205468	1.041296
H147	H	0.144590	-0.481747	0.374844
H148	H	0.644590	0.018253	0.874844
O149	O	0.675573	-0.280881	0.218941
O150	O	1.175573	0.219119	0.718941
H151	H	0.641828	-0.244974	0.191134
H152	H	1.141828	0.255026	0.691134
H153	H	0.896646	-0.256151	0.861864
H154	H	1.396646	0.243849	1.361864
H155	H	0.914432	-0.519796	0.743118
H156	H	1.414432	-0.019796	1.243118
H157	H	0.144569	-0.294384	0.229711
H158	H	0.644569	0.205616	0.729711
O159	O	0.988747	-0.495181	0.668705
O160	O	1.488747	0.004819	1.168705
H161	H	1.016586	-0.531048	0.634969
H162	H	1.516586	-0.031048	1.134969
H163	H	0.832826	-0.294494	0.660006
H164	H	1.332826	0.205506	1.160006
H165	H	0.263280	-0.294417	0.229664
H166	H	0.763280	0.205583	0.729664
H167	H	0.346311	-0.376415	0.199794
H168	H	0.846311	0.123585	0.699794
H169	H	0.465015	-0.376438	0.199750
H170	H	0.965015	0.123562	0.699750
O171	O	0.915743	-0.538961	0.870477
O172	O	1.415743	-0.038961	1.370477
H173	H	0.958193	-0.537668	0.900308
H174	H	1.458193	-0.037668	1.400308
H175	H	0.548206	-0.294490	0.229566
H176	H	1.048206	0.205510	0.729566
O177	O	0.675583	-0.495543	0.385217
O178	O	1.175583	0.004457	0.885217
H179	H	0.726579	-0.486887	0.378479
H180	H	1.226579	0.013113	0.878479
H181	H	0.978223	-0.481427	1.063684
H182	H	1.478223	0.018573	1.563684
H183	H	0.832866	-0.294412	0.944933
H184	H	1.332866	0.205588	1.444933
O185	O	0.988794	-0.495081	0.936324
O186	O	1.488794	0.004919	1.436324
H187	H	1.016658	-0.530912	0.970073
H188	H	1.516658	-0.030912	1.470073
H189	H	0.832873	-0.294376	1.063646
H190	H	1.332873	0.205624	1.563646
