data_functionalizedCrystal
_audit_creation_method	'MofGen! by Chris Wilmer'
_symmetry_space_group_name_H-M	'P1'
_symmetry_Int_Tables_number	1
_symmetry_cell_setting	triclinic
loop_
_symmetry_equiv_pos_as_xyz
  x,y,z
_cell_length_a	10.654550
_cell_length_b	10.654551
_cell_length_c	9.130313
_cell_angle_alpha	90.001552
_cell_angle_beta	89.996220
_cell_angle_gamma	84.485132
loop_
_atom_site_label
_atom_site_type_symbol
_atom_site_fract_x
_atom_site_fract_y
_atom_site_fract_z
O1	O	1.667835	0.176393	-0.121910
O2	O	1.302356	0.193199	-0.121885
O3	O	1.493498	0.002057	-0.121899
O4	O	1.476693	0.367535	-0.121896
O5	O	1.493496	0.002062	0.121700
O6	O	1.302354	0.193204	0.121713
O7	O	1.667832	0.176398	0.121689
Cu8	Cu	1.485093	0.184802	0.143944
Cu9	Cu	1.485096	0.184796	-0.144140
O10	O	1.476691	0.367540	0.121703
C11	C	1.255557	0.191968	-0.000083
C12	C	1.116114	0.188276	-0.000074
C13	C	1.036629	0.300817	-0.000095
C14	C	0.905608	0.297341	-0.000120
C15	C	0.933570	0.068771	-0.000110
C16	C	1.064589	0.072249	-0.000074
C17	C	1.088154	0.416844	-0.000094
C18	C	1.008667	0.529395	-0.000116
C19	C	0.877647	0.525918	-0.000142
C20	C	0.826112	0.409891	-0.000145
C21	C	1.492263	-0.044739	-0.000103
C22	C	1.488570	-0.184182	-0.000112
C23	C	1.486839	-0.249696	-0.132895
C24	C	1.483359	-0.380717	-0.132888
C25	C	1.483346	-0.380697	0.132696
C26	C	1.486817	-0.249678	0.132688
C27	C	1.488592	-0.184201	-0.265696
C28	C	1.486863	-0.249716	-0.398490
C29	C	1.483382	-0.380736	-0.398483
C30	C	1.481632	-0.446241	-0.265682
C31	C	1.714632	0.177629	-0.000117
C32	C	1.854075	0.181321	-0.000135
C33	C	1.477926	0.414336	-0.000097
C34	C	1.481619	0.553779	-0.000097
N35	N	1.485100	0.184805	0.346566
N36	N	1.485098	0.184782	-0.346763
C37	C	1.569760	0.100196	0.423212
C38	C	1.569756	0.100181	0.576549
C39	C	1.400430	0.269395	0.576581
C40	C	1.400428	0.269403	0.423246
C41	C	1.654431	0.015599	0.346532
C42	C	1.739099	-0.069016	0.423178
C43	C	1.739095	-0.069031	0.576515
C44	C	1.654425	0.015569	0.653206
H45	H	0.719425	0.407069	-0.000143
C46	C	1.810978	-0.285772	0.623679
C47	C	1.832155	-0.162040	0.660764
H48	H	1.868440	-0.343189	0.675683
H49	H	1.727057	-0.300192	0.648820
H50	H	1.823095	-0.297853	0.521381
H51	H	1.820029	-0.149957	0.763061
H52	H	1.916096	-0.147615	0.635633
H53	H	1.129308	-0.019392	-0.000062
H54	H	1.331490	0.338298	0.360841
H55	H	1.478779	-0.552925	-0.265687
H56	H	1.654420	0.015541	0.778063
H57	H	1.808028	-0.137901	0.360729
C58	C	1.382984	-0.089212	-0.552560
C59	C	1.488761	-0.177722	-0.544464
H60	H	1.384155	-0.044767	-0.642680
H61	H	1.308537	-0.131389	-0.547019
H62	H	1.384536	-0.031441	-0.473481
H63	H	1.487204	-0.235500	-0.623538
H64	H	1.563227	-0.135544	-0.550019
C65	C	1.260617	0.546270	-0.000060
C66	C	1.232172	0.420668	-0.000059
H67	H	1.349528	0.548625	-0.000031
H68	H	1.225839	0.587670	-0.085014
H69	H	1.225789	0.587689	0.084883
H70	H	1.266992	0.379251	-0.085008
H71	H	1.266965	0.379251	0.084904
C72	C	1.025188	0.725283	-0.125337
C73	C	1.065303	0.656930	-0.000108
H74	H	1.060145	0.804023	-0.125323
H75	H	1.052430	0.678895	-0.210264
H76	H	0.935781	0.739305	-0.125338
H77	H	1.154710	0.642900	-0.000112
H78	H	1.038068	0.703329	0.084841
H79	H	0.891600	-0.025693	-0.000137
C80	C	1.183657	0.341109	0.623836
C81	C	1.307370	0.362384	0.660880
H82	H	1.126209	0.398515	0.675887
H83	H	1.171544	0.353232	0.521560
H84	H	1.169314	0.257154	0.648963
H85	H	1.321717	0.446337	0.635744
H86	H	1.319489	0.350272	0.763179
H87	H	1.654444	0.015606	0.221678
C88	C	0.714112	0.654594	-0.125404
C89	C	0.790271	0.649627	-0.000163
H90	H	0.660168	0.730968	-0.125415
H91	H	0.765826	0.651196	-0.210323
H92	H	0.664676	0.584995	-0.125394
H93	H	0.839715	0.719222	-0.000179
H94	H	0.738552	0.653038	0.084778
H95	H	1.491429	-0.077518	-0.265716
H96	H	1.481961	-0.434073	-0.506609
H97	H	1.481921	-0.434042	0.240816
H98	H	1.488200	-0.196331	0.240812
