data_functionalizedCrystal
_audit_creation_method	'MofGen! by Chris Wilmer'
_symmetry_space_group_name_H-M	'P1'
_symmetry_Int_Tables_number	1
_symmetry_cell_setting	triclinic
loop_
_symmetry_equiv_pos_as_xyz
  x,y,z
_cell_length_a	19.805407
_cell_length_b	19.805405
_cell_length_c	11.169409
_cell_angle_alpha	90.039857
_cell_angle_beta	90.022348
_cell_angle_gamma	90.023727
loop_
_atom_site_label
_atom_site_type_symbol
_atom_site_fract_x
_atom_site_fract_y
_atom_site_fract_z
Zn1	Zn	1.034766	-0.269457	0.678561
Zn2	Zn	1.034672	-0.382666	0.477851
Zn3	Zn	0.921572	-0.269491	0.477886
Zn4	Zn	0.921544	-0.382604	0.678487
O5	O	0.978138	-0.326054	0.578196
O6	O	1.129470	-0.284486	0.651952
O7	O	1.019641	-0.367693	0.309906
O8	O	0.936638	-0.174770	0.504552
O9	O	1.129401	-0.367660	0.504492
O10	O	1.019801	-0.174745	0.651986
O11	O	0.936547	-0.284544	0.309932
O12	O	0.826851	-0.284484	0.504480
O13	O	0.936591	-0.367554	0.846447
O14	O	0.826831	-0.367588	0.651861
O15	O	1.019775	-0.284426	0.846501
O16	O	1.019614	-0.477374	0.504421
O17	O	0.936500	-0.477329	0.651827
C18	C	0.802282	-0.326033	0.578167
C19	C	0.727050	-0.326041	0.578183
C20	C	0.691743	-0.282808	0.655083
C21	C	0.621055	-0.282812	0.655087
C22	C	0.585675	-0.326052	0.578198
C23	C	0.620987	-0.369286	0.501290
C24	C	0.691674	-0.369278	0.501280
C25	C	0.335914	-0.369316	0.501327
C26	C	0.265222	-0.369322	0.501345
C27	C	0.265294	-0.282850	0.655134
C28	C	0.335981	-0.282842	0.655124
C29	C	0.371287	-0.326074	0.578212
C30	C	0.447936	-0.326068	0.578207
C31	C	0.509028	-0.326061	0.578209
C32	C	0.978062	-0.501911	0.578138
C33	C	0.978092	-0.577142	0.578154
C34	C	1.021411	-0.612488	0.501479
C35	C	1.021440	-0.683176	0.501506
C36	C	0.978145	-0.718518	0.578202
C37	C	0.934824	-0.683168	0.654884
C38	C	0.934799	-0.612481	0.654863
C39	C	0.934923	-0.968241	0.654973
C40	C	0.934950	-1.038933	0.654986
C41	C	1.021565	-1.038937	0.501616
C42	C	1.021540	-0.968250	0.501595
C43	C	0.978221	-0.932905	0.578281
C44	C	0.978191	-0.856257	0.578253
C45	C	0.978171	-0.795165	0.578224
C46	C	1.154681	-0.326076	0.578226
C47	C	1.229913	-0.326086	0.578239
C48	C	0.978190	-0.325979	0.891239
C49	C	0.978213	-0.325947	1.024639
C50	C	0.978233	-0.149512	0.578281
C51	C	0.978274	-0.074280	0.578317
C52	C	0.978126	-0.326080	0.266372
C53	C	0.978235	-0.325922	0.132972
H54	H	0.236539	-0.247646	0.717755
H55	H	1.056792	-0.939477	0.439138
H56	H	0.364784	-0.247634	0.717739
C57	C	0.771278	-0.273500	0.816551
C58	C	0.730629	-0.235278	0.739606
H59	H	0.795280	-0.244154	0.868736
H60	H	0.802422	-0.299240	0.770753
H61	H	0.743697	-0.303019	0.862362
H62	H	0.758211	-0.205762	0.693788
H63	H	0.699482	-0.209527	0.785409
C64	C	0.925326	-0.532919	0.816263
C65	C	0.887182	-0.573625	0.739146
H66	H	0.895930	-0.508935	0.868304
H67	H	0.951102	-0.501760	0.770581
H68	H	0.954810	-0.560459	0.862220
H69	H	0.857701	-0.546084	0.693183
H70	H	0.861395	-0.604787	0.784833
H71	H	0.899575	-0.711948	0.717336
C72	C	0.684508	-0.454764	0.349276
C73	C	0.730487	-0.416805	0.416758
H74	H	0.708470	-0.484107	0.297099
H75	H	0.656936	-0.425248	0.303467
H76	H	0.656941	-0.480688	0.401502
H77	H	0.758051	-0.390877	0.364533
H78	H	0.758070	-0.446324	0.462571
C79	C	0.628226	-0.197342	0.807115
C80	C	0.582245	-0.235291	0.739621
H81	H	0.604265	-0.168006	0.859307
H82	H	0.655791	-0.171416	0.754907
H83	H	0.655799	-0.226868	0.852919
H84	H	0.554675	-0.205765	0.693809
H85	H	0.554668	-0.261218	0.791835
C86	C	0.849338	-1.031833	0.806620
C87	C	0.887363	-1.077782	0.739307
H88	H	0.819965	-1.055819	0.858677
H89	H	0.823449	-1.004309	0.754290
H90	H	0.878815	-1.004216	0.852561
H91	H	0.857886	-1.105396	0.693359
H92	H	0.913254	-1.105318	0.791644
C93	C	0.272247	-0.454791	0.349296
C94	C	0.226331	-0.416850	0.416813
H95	H	0.248236	-0.484128	0.297109
H96	H	0.299823	-0.480715	0.401490
H97	H	0.299815	-0.425260	0.303484
H98	H	0.198766	-0.446381	0.462631
H99	H	0.198743	-0.390924	0.364612
H100	H	1.056840	-1.067722	0.439179
C101	C	0.415365	-0.460345	0.484342
C102	C	0.374716	-0.416842	0.416797
H103	H	0.439323	-0.489684	0.432153
H104	H	0.387795	-0.486265	0.536549
H105	H	0.446553	-0.434584	0.530119
H106	H	0.343524	-0.442602	0.371026
H107	H	0.402288	-0.390919	0.364569
H108	H	0.592176	-0.404489	0.438679
H109	H	1.056664	-0.583717	0.439020
H110	H	0.899650	-0.939469	0.717412
C111	C	1.107045	-0.676080	0.349884
C112	C	1.069055	-0.722028	0.417216
H113	H	1.136438	-0.700067	0.297841
H114	H	1.132911	-0.648465	0.402204
H115	H	1.077547	-0.648554	0.303928
H116	H	1.098552	-0.749551	0.463179
H117	H	1.043186	-0.749654	0.364889
