data_functionalizedCrystal
_audit_creation_method	'MofGen! by Chris Wilmer'
_symmetry_space_group_name_H-M	'P1'
_symmetry_Int_Tables_number	1
_symmetry_cell_setting	triclinic
loop_
_symmetry_equiv_pos_as_xyz
  x,y,z
_cell_length_a	14.971486
_cell_length_b	19.188930
_cell_length_c	14.048226
_cell_angle_alpha	89.988446
_cell_angle_beta	89.998499
_cell_angle_gamma	83.379455
loop_
_atom_site_label
_atom_site_type_symbol
_atom_site_fract_x
_atom_site_fract_y
_atom_site_fract_z
O1	O	1.186466	0.090988	-0.079062
O2	O	1.686466	0.590988	0.420938
O3	O	0.926009	0.101884	-0.079090
O4	O	1.426009	0.601884	0.420910
O5	O	1.063754	-0.005196	-0.079057
O6	O	1.563754	0.494804	0.420943
O7	O	1.048721	0.198067	-0.079095
O8	O	1.548721	0.698067	0.420905
O9	O	1.063737	-0.005202	0.079265
O10	O	1.563737	0.494798	0.579265
O11	O	0.925992	0.101878	0.079232
O12	O	1.425992	0.601878	0.579232
O13	O	1.186450	0.090982	0.079259
O14	O	1.686450	0.590982	0.579259
Zn15	Zn	1.056218	0.096429	0.104382
Zn16	Zn	1.556218	0.596429	0.604382
Zn17	Zn	1.056240	0.096437	-0.104213
Zn18	Zn	1.556240	0.596437	0.395787
O19	O	1.048705	0.198061	0.079226
O20	O	1.548705	0.698061	0.579226
C21	C	0.892678	0.101393	0.000068
C22	C	1.392678	0.601393	0.500068
C23	C	0.793389	0.099933	0.000058
C24	C	1.293389	0.599933	0.500058
C25	C	0.735831	0.162839	0.000048
C26	C	1.235831	0.662839	0.500048
C27	C	0.642539	0.161463	0.000062
C28	C	1.142539	0.661463	0.500062
C29	C	0.606806	0.097180	0.000080
C30	C	1.106806	0.597180	0.500080
C31	C	0.664371	0.034269	0.000094
C32	C	1.164371	0.534269	0.500094
C33	C	0.757662	0.035646	0.000086
C34	C	1.257662	0.535646	0.500086
C35	C	0.469924	0.031403	0.000108
C36	C	0.969924	0.531403	0.500108
C37	C	0.376627	0.030026	0.000113
C38	C	0.876627	0.530026	0.500113
C39	C	0.354801	0.157221	0.000083
C40	C	0.854801	0.657221	0.500083
C41	C	0.448092	0.158598	0.000076
C42	C	0.948092	0.658598	0.500076
C43	C	0.505650	0.095686	0.000088
C44	C	1.005650	0.595686	0.500088
C45	C	1.063259	-0.031211	0.000107
C46	C	1.563259	0.468789	0.500107
C47	C	1.061797	-0.108721	0.000115
C48	C	1.561797	0.391279	0.500115
C49	C	1.142622	-0.153384	0.000128
C50	C	1.642622	0.346616	0.500128
C51	C	1.141249	-0.226213	0.000112
C52	C	1.641249	0.273787	0.500112
C53	C	1.059047	-0.254374	0.000103
C54	C	1.559047	0.245626	0.500103
C55	C	0.978212	-0.209700	0.000085
C56	C	1.478212	0.290300	0.500085
C57	C	0.979587	-0.136874	0.000091
C58	C	1.479587	0.363126	0.500091
N59	N	0.996208	-0.362583	0.053976
N60	N	1.496208	0.137417	0.553976
N61	N	0.994907	-0.431766	0.053973
N62	N	1.494907	0.068234	0.553973
C63	C	1.054899	-0.473796	0.000084
C64	C	1.554899	0.026204	0.500084
N65	N	1.116254	-0.444031	-0.053790
N66	N	1.616254	0.055969	0.446210
N67	N	1.117558	-0.374842	-0.053782
N68	N	1.617558	0.125158	0.446218
C69	C	1.057547	-0.333341	0.000096
C70	C	1.557547	0.166659	0.500096
C71	C	1.134240	-0.597429	0.000078
C72	C	1.634240	-0.097429	0.500078
C73	C	1.132864	-0.670258	0.000057
C74	C	1.632864	-0.170258	0.500057
C75	C	0.969825	-0.653744	0.000039
C76	C	1.469825	-0.153744	0.500039
C77	C	0.971203	-0.580916	0.000051
C78	C	1.471203	-0.080916	0.500051
C79	C	1.053413	-0.552763	0.000075
C80	C	1.553413	-0.052763	0.500075
C81	C	1.219780	0.091472	0.000100
C82	C	1.719780	0.591472	0.500100
C83	C	1.319070	0.092932	0.000103
C84	C	1.819070	0.592932	0.500103
C85	C	1.049200	0.224077	0.000061
C86	C	1.549200	0.724077	0.500061
C87	C	1.050661	0.301586	0.000046
C88	C	1.550661	0.801586	0.500046
N89	N	1.056210	0.096422	0.246743
N90	N	1.556210	0.596422	0.746743
N91	N	1.056256	0.096437	-0.246573
N92	N	1.556256	0.596437	0.253427
C93	C	1.117223	0.049027	0.296576
C94	C	1.617223	0.549027	0.796576
C95	C	1.117229	0.049027	0.396233
C96	C	1.617229	0.549027	0.896233
C97	C	1.056226	0.096426	0.446057
C98	C	1.556226	0.596426	0.946057
C99	C	0.995207	0.143823	0.396217
C100	C	1.495207	0.643823	0.896217
C101	C	0.995197	0.143819	0.296561
C102	C	1.495197	0.643819	0.796561
C103	C	0.995233	0.143828	0.603931
C104	C	1.495233	0.643828	1.103931
C105	C	0.995243	0.143833	0.703594
C106	C	1.495243	0.643833	1.203594
C107	C	1.117264	0.049035	0.703603
C108	C	1.617264	0.549035	1.203603
C109	C	1.117255	0.049032	0.603948
C110	C	1.617255	0.549032	1.103948
C111	C	1.056236	0.096430	0.554115
C112	C	1.556236	0.596430	1.054115
H113	H	0.516786	-0.019826	0.000119
H114	H	1.016786	0.480174	0.500119
H115	H	0.307932	0.208445	0.000078
H116	H	0.807932	0.708445	0.500078
N117	N	0.929426	0.194952	0.550177
N118	N	1.429426	0.694952	1.050177
H119	H	0.889926	0.168219	0.508846
H120	H	1.389926	0.668219	1.008846
H121	H	0.890845	0.224970	0.596918
H122	H	1.390845	0.724970	1.096918
N123	N	0.929408	0.194941	0.449957
N124	N	1.429408	0.694941	0.949957
H125	H	0.963467	0.225902	0.491287
H126	H	1.463467	0.725902	0.991287
H127	H	0.890767	0.224918	0.403207
H128	H	1.390767	0.724918	0.903207
H129	H	0.945513	0.182413	0.255988
H130	H	1.445513	0.682413	0.755988
H131	H	0.477182	0.210943	0.000052
H132	H	0.977182	0.710943	0.500052
H133	H	0.804525	-0.015579	0.000094
H134	H	1.304525	0.484421	0.500094
N135	N	0.774368	0.232174	0.000017
N136	N	1.274368	0.732174	0.500017
H137	H	0.723746	0.271816	0.000013
H138	H	1.223746	0.771816	0.500013
H139	H	0.812604	0.235516	0.058703
H140	H	1.312604	0.735516	0.558703
H141	H	0.595679	0.212688	0.000052
H142	H	1.095679	0.712688	0.500052
H143	H	0.913768	-0.100507	0.000080
H144	H	1.413768	0.399493	0.500080
N145	N	1.231283	-0.123013	0.000131
N146	N	1.731283	0.376987	0.500131
H147	H	1.235485	-0.093173	0.058820
H148	H	1.735485	0.406827	0.558820
H149	H	1.282230	-0.162398	0.000096
H150	H	1.782230	0.337602	0.500096
N151	N	0.929456	0.194952	0.757347
N152	N	1.429456	0.694952	1.257347
H153	H	0.939552	0.244520	0.739986
H154	H	1.439552	0.744520	1.239986
H155	H	0.866033	0.186767	0.740010
H156	H	1.366033	0.686767	1.240010
N157	N	1.228426	-0.274398	0.000125
N158	N	1.728426	0.225602	0.500125
H159	H	1.280713	-0.245512	0.000139
H160	H	1.780713	0.254488	0.500139
H161	H	1.231392	-0.304983	0.058816
H162	H	1.731392	0.195017	0.558816
N163	N	0.889550	-0.240069	0.000070
N164	N	1.389550	0.259931	0.500070
H165	H	0.900943	-0.292982	0.000071
H166	H	1.400943	0.207018	0.500071
H167	H	0.854186	-0.223743	0.058756
H168	H	1.354186	0.276257	0.558756
H169	H	0.635271	-0.018072	0.000122
H170	H	1.135271	0.481928	0.500122
N171	N	0.338083	-0.039306	0.000131
N172	N	0.838083	0.460694	0.500131
H173	H	0.388700	-0.078951	0.000144
H174	H	0.888700	0.421049	0.500144
H175	H	0.299850	-0.042644	0.058824
H176	H	0.799850	0.457356	0.558824
N177	N	1.183046	-0.002090	0.550204
N178	N	1.683046	0.497910	1.050204
H179	H	1.222534	0.024644	0.508842
H180	H	1.722534	0.524644	1.008842
H181	H	1.221640	-0.032106	0.596951
H182	H	1.721640	0.467894	1.096951
H183	H	1.198683	-0.706623	0.000063
H184	H	1.698683	-0.206623	0.500063
N185	N	1.222903	-0.567057	0.000101
N186	N	1.722903	-0.067057	0.500101
H187	H	1.273899	-0.606405	0.000099
H188	H	1.773899	-0.106405	0.500099
H189	H	1.227031	-0.537186	-0.058585
H190	H	1.727031	-0.037186	0.441415
H191	H	0.902894	-0.676672	0.000027
H192	H	1.402894	-0.176672	0.500027
H193	H	0.905387	-0.544550	0.000046
H194	H	1.405387	-0.044550	0.500046
N195	N	1.183025	-0.002092	0.242841
N196	N	1.683025	0.497908	0.742841
H197	H	1.221675	-0.032117	0.289536
H198	H	1.721675	0.467883	0.789536
H199	H	1.148904	-0.033005	0.201508
H200	H	1.648904	0.466995	0.701508
H201	H	1.166947	0.010442	0.744183
H202	H	1.666947	0.510442	1.244183
N203	N	1.183067	-0.002076	0.449969
N204	N	1.683067	0.497924	0.949969
H205	H	1.172992	-0.051650	0.432645
H206	H	1.672992	0.448350	0.932645
H207	H	1.246467	0.006136	0.432568
H208	H	1.746467	0.506136	0.932568
