data_functionalizedCrystal
_audit_creation_method	'MofGen! by Chris Wilmer'
_symmetry_space_group_name_H-M	'P1'
_symmetry_Int_Tables_number	1
_symmetry_cell_setting	triclinic
loop_
_symmetry_equiv_pos_as_xyz
  x,y,z
_cell_length_a	10.654550
_cell_length_b	27.731996
_cell_length_c	9.130313
_cell_angle_alpha	89.989531
_cell_angle_beta	89.999724
_cell_angle_gamma	83.553159
loop_
_atom_site_label
_atom_site_type_symbol
_atom_site_fract_x
_atom_site_fract_y
_atom_site_fract_z
O1	O	1.664953	0.067887	-0.121712
O2	O	1.299199	0.074355	-0.121741
O3	O	1.493469	0.000794	-0.121693
O4	O	1.470682	0.141449	-0.121759
O5	O	1.493456	0.000792	0.121905
O6	O	1.299186	0.074353	0.121858
O7	O	1.664940	0.067885	0.121887
Cu8	Cu	1.482062	0.071119	0.144115
Cu9	Cu	1.482077	0.071122	-0.143969
O10	O	1.470669	0.141447	0.121840
C11	C	1.252415	0.073879	0.000056
C12	C	1.113032	0.072458	0.000046
C13	C	1.031705	0.115770	0.000030
C14	C	0.900741	0.114432	0.000056
C15	C	0.932444	0.026467	0.000108
C16	C	1.063406	0.027805	0.000092
C17	C	1.492995	-0.017218	0.000111
C18	C	1.491585	-0.070883	0.000126
C19	C	1.482721	-0.403653	-0.132732
C20	C	1.477367	-0.605345	-0.132758
O21	O	1.476627	-0.631419	-0.245689
N22	N	1.476695	-0.630567	0.000026
C23	C	1.477353	-0.605363	0.132826
O24	O	1.476646	-0.631444	0.245767
C25	C	1.482698	-0.403672	0.132851
C26	C	1.483383	-0.378453	0.000058
C27	C	1.483405	-0.378434	-0.265515
C28	C	1.484750	-0.328014	-0.265507
C29	C	1.485412	-0.302814	-0.132716
C30	C	1.484729	-0.328033	0.000066
C31	C	1.483347	-0.378469	0.265650
C32	C	1.484681	-0.328042	0.265644
C33	C	1.485365	-0.302823	0.132851
C34	C	1.486736	-0.252413	0.132864
N35	N	1.487408	-0.227191	0.000079
C36	C	1.486746	-0.252391	-0.132711
C37	C	1.474550	-0.711254	0.132804
C38	C	1.473216	-0.761677	0.132798
C39	C	1.473227	-0.761654	-0.132787
C40	C	1.474570	-0.711231	-0.132780
C41	C	1.475222	-0.686031	0.000020
C42	C	1.489572	-0.146507	-0.132684
C43	C	1.490923	-0.096083	-0.132664
C44	C	1.490905	-0.096109	0.132920
C45	C	1.489561	-0.146529	0.132901
C46	C	1.488890	-0.171726	0.000087
O47	O	1.487463	-0.226307	0.245735
O48	O	1.487426	-0.226301	-0.245635
C49	C	1.481376	-0.454073	-0.132740
C50	C	1.480693	-0.479292	0.000042
C51	C	1.481354	-0.454092	0.132832
C52	C	1.479359	-0.529715	0.000036
C53	C	1.478697	-0.554915	-0.132754
C54	C	1.479369	-0.529692	-0.265538
C55	C	1.480714	-0.479273	-0.265530
C56	C	1.480682	-0.479314	0.265617
C57	C	1.479338	-0.529734	0.265598
C58	C	1.478677	-0.554934	0.132808
C59	C	1.711724	0.068361	0.000088
C60	C	1.851107	0.069782	0.000088
C61	C	1.471144	0.159458	0.000033
C62	C	1.472554	0.213123	0.000008
N63	N	1.482060	0.071117	0.346738
N64	N	1.482089	0.071120	-0.346591
C65	C	1.568111	0.038558	0.423411
C66	C	1.568123	0.038558	0.576747
C67	C	1.396029	0.103681	0.576725
C68	C	1.396012	0.103678	0.423391
H69	H	1.489020	-0.167016	-0.240834
O70	O	1.312279	0.135261	0.651128
C71	C	1.093380	0.162818	0.698000
C72	C	1.188087	0.127017	0.613678
H73	H	0.992950	0.156172	0.667730
H74	H	1.108066	0.157227	0.820780
H75	H	1.109022	0.201586	0.667839
H76	H	1.172502	0.088234	0.643716
H77	H	1.173377	0.132650	0.490919
H78	H	0.834528	0.149701	0.000046
H79	H	1.482792	-0.398994	0.373785
H80	H	1.478791	-0.550263	0.373742
H81	H	1.638175	0.012044	0.361003
O82	O	1.312540	0.135376	0.348970
C83	C	1.237216	0.219156	0.302060
C84	C	1.331833	0.183315	0.386406
H85	H	1.252763	0.257922	0.332319
H86	H	1.251979	0.213602	0.179284
H87	H	1.136786	0.212472	0.332213
H88	H	1.432301	0.189978	0.356376
H89	H	1.316960	0.188878	0.509161
H90	H	1.129627	-0.007467	0.000110
O91	O	1.472799	-0.786127	-0.261821
C92	C	1.581155	-0.806640	-0.488862
C93	C	1.581828	-0.778910	-0.342781
H94	H	1.669282	-0.800806	-0.554373
H95	H	1.580163	-0.847018	-0.466130
H96	H	1.493459	-0.792594	-0.554276
H97	H	1.669510	-0.792914	-0.277294
H98	H	1.582754	-0.738535	-0.365617
O99	O	1.491341	-0.071606	-0.261723
C100	C	1.382925	-0.051106	-0.488758
C101	C	1.382295	-0.078830	-0.342633
H102	H	1.294785	-0.056945	-0.554229
H103	H	1.383913	-0.010726	-0.466089
H104	H	1.470608	-0.065151	-0.554181
H105	H	1.294626	-0.064826	-0.277137
H106	H	1.381373	-0.119207	-0.365405
H107	H	1.485303	-0.307485	-0.373641
O108	O	0.884025	-0.016865	0.000076
C109	C	0.696323	-0.057913	0.000203
C110	C	0.750985	-0.008806	0.000210
H111	H	0.588755	-0.051414	0.000343
H112	H	0.729793	-0.079347	-0.101757
H113	H	0.729971	-0.079338	0.102135
H114	H	0.717362	0.012659	-0.101652
H115	H	0.717523	0.012591	0.102238
O116	O	1.079704	0.159186	0.000063
C117	C	1.034429	0.246294	-0.000063
C118	C	0.979908	0.197158	-0.000071
H119	H	0.953771	0.277008	-0.000203
H120	H	1.094912	0.249152	0.101897
H121	H	1.094984	0.249095	-0.101994
H122	H	0.919297	0.194324	0.101791
H123	H	0.919497	0.194321	-0.102099
H124	H	1.475126	-0.690701	-0.240912
H125	H	1.482861	-0.398946	-0.373654
O126	O	1.475254	-0.686856	0.261946
C127	C	1.475057	-0.692211	0.525366
C128	C	1.474273	-0.719898	0.379220
H129	H	1.474237	-0.718912	0.620220
H130	H	1.563619	-0.672753	0.532115
H131	H	1.387794	-0.664460	0.531948
H132	H	1.561476	-0.747673	0.372539
H133	H	1.385654	-0.739323	0.372533
H134	H	1.472677	-0.782207	0.240932
O135	O	1.485091	-0.303530	0.394609
C136	C	1.377795	-0.241476	0.548690
C137	C	1.377157	-0.269206	0.402608
H138	H	1.290554	-0.213712	0.555191
H139	H	1.376994	-0.268137	0.643653
H140	H	1.466375	-0.222026	0.555328
H141	H	1.288593	-0.288657	0.395826
H142	H	1.378025	-0.242522	0.307714
O143	O	1.488852	-0.170953	0.262024
C144	C	1.489053	-0.165650	0.525448
C145	C	1.489843	-0.137934	0.379322
H146	H	1.489880	-0.138968	0.620321
H147	H	1.400484	-0.185106	0.532177
H148	H	1.576309	-0.193406	0.532016
H149	H	1.402647	-0.110155	0.372655
H150	H	1.578469	-0.118512	0.372654
H151	H	1.481271	-0.458744	-0.373664
O152	O	1.478494	-0.554191	-0.394489
C153	C	1.368171	-0.606026	-0.548536
C154	C	1.369002	-0.578291	-0.402478
H155	H	1.279669	-0.625527	-0.555030
H156	H	1.368799	-0.579366	-0.643522
H157	H	1.455492	-0.633748	-0.555142
H158	H	1.281696	-0.550569	-0.395729
H159	H	1.368439	-0.604981	-0.307562
O160	O	1.651837	0.006913	0.651000
C161	C	1.822483	-0.057698	0.634830
C162	C	1.727762	-0.021877	0.550558
H163	H	1.883875	-0.080991	0.553660
H164	H	1.884884	-0.036629	0.706555
H165	H	1.768740	-0.082018	0.706679
H166	H	1.781402	0.002452	0.478629
H167	H	1.665363	-0.042976	0.478926
H168	H	1.491449	-0.075582	0.241034
H169	H	1.481223	-0.458801	0.373753
