data_functionalizedCrystal
_audit_creation_method	'MofGen! by Chris Wilmer'
_symmetry_space_group_name_H-M	'P1'
_symmetry_Int_Tables_number	1
_symmetry_cell_setting	triclinic
loop_
_symmetry_equiv_pos_as_xyz
  x,y,z
_cell_length_a	16.109317
_cell_length_b	15.186229
_cell_length_c	16.109301
_cell_angle_alpha	90.007249
_cell_angle_beta	96.535152
_cell_angle_gamma	90.004079
loop_
_atom_site_label
_atom_site_type_symbol
_atom_site_fract_x
_atom_site_fract_y
_atom_site_fract_z
O1	O	-1.103118	0.073138	0.106934
O2	O	-0.861058	0.073160	0.120219
O3	O	-0.988738	0.073139	-0.007454
O4	O	-0.975439	0.073158	0.234607
O5	O	-0.988737	-0.073318	-0.007462
O6	O	-0.861057	-0.073297	0.120212
O7	O	-1.103117	-0.073320	0.106927
Zn8	Zn	-0.982087	-0.096562	0.113568
Zn9	Zn	-0.982088	0.096402	0.113578
O10	O	-0.975438	-0.073299	0.234600
C11	C	-0.830083	-0.000066	0.119675
C12	C	-0.737788	-0.000057	0.118054
N13	N	-0.982092	-0.228254	0.113560
C14	C	-0.438715	0.079766	0.112824
C15	C	-0.525436	0.079770	0.114342
C16	C	-0.525454	-0.079906	0.114322
C17	C	-0.438735	-0.079909	0.112799
C18	C	-0.395367	-0.000070	0.112054
C19	C	-0.568808	-0.000063	0.115095
C20	C	-0.662835	-0.000059	0.116740
C21	C	-0.301335	-0.000073	0.110408
C22	C	-0.134092	-0.000087	0.107472
C23	C	-0.226387	-0.000076	0.109095
C24	C	-0.988199	-0.000090	-0.038433
C25	C	-0.986584	-0.000091	-0.130728
N26	N	-0.982090	0.228095	0.113579
C27	C	-1.038735	0.453808	0.057154
C28	C	-1.038738	0.545998	0.057152
C29	C	-0.925444	0.546026	0.169991
C30	C	-0.925446	0.453838	0.169996
C31	C	-0.982091	0.407731	0.113573
C32	C	-0.982091	0.592109	0.113566
C33	C	-0.982093	0.692065	0.113564
C34	C	-0.982090	0.307769	0.113576
C35	C	-1.058591	-0.000084	-0.352996
C36	C	-1.057067	-0.000076	-0.439717
C37	C	-0.905579	-0.000065	-0.419851
C38	C	-0.907104	-0.000067	-0.333132
C39	C	-0.983612	-0.000080	-0.299707
C40	C	-0.980563	-0.000072	-0.473147
C41	C	-0.978910	-0.000064	-0.567173
C42	C	-0.985266	-0.000086	-0.205675
C43	C	-0.975977	-0.000068	0.265578
C44	C	-0.977592	-0.000061	0.357874
H45	H	-0.560727	0.144781	0.114968
C46	C	-0.573160	-0.167725	0.115150
C47	C	-0.668546	-0.167726	0.116831
C48	C	-0.716249	-0.255548	0.117662
C49	C	-0.668566	-0.343367	0.116812
C50	C	-0.573174	-0.343368	0.115132
C51	C	-0.525471	-0.255547	0.114301
H52	H	-0.703850	-0.102714	0.117459
H53	H	-0.786865	-0.255546	0.118906
H54	H	-0.703878	-0.408378	0.117428
H55	H	-0.537870	-0.408381	0.114503
H56	H	-0.454855	-0.255549	0.113056
C57	C	-1.142747	-0.000090	-0.316227
C58	C	-1.225222	-0.000089	-0.374848
C59	C	-1.309381	-0.000092	-0.338082
C60	C	-1.311065	-0.000096	-0.242696
C61	C	-1.228588	-0.000097	-0.184070
C62	C	-1.144429	-0.000094	-0.220835
H63	H	-1.223978	-0.000085	-0.445464
H64	H	-1.370436	-0.000091	-0.381482
H65	H	-1.373365	-0.000099	-0.215480
H66	H	-1.229832	-0.000101	-0.113454
H67	H	-1.083373	-0.000095	-0.177436
H68	H	-0.879319	0.416319	0.215944
H69	H	-0.403441	-0.144925	0.112171
C70	C	-1.139545	-0.000083	-0.498334
C71	C	-1.202240	-0.076143	-0.494616
C72	C	-1.284722	-0.076148	-0.553233
C73	C	-1.304510	-0.000094	-0.615567
C74	C	-1.241814	0.075971	-0.619287
C75	C	-1.159331	0.075976	-0.560670
H76	H	-1.187593	-0.132447	-0.448471
H77	H	-1.331134	-0.132457	-0.550479
H78	H	-1.365569	-0.000098	-0.658959
H79	H	-1.256461	0.132275	-0.665432
H80	H	-1.112920	0.132285	-0.563424
H81	H	-0.843289	-0.000056	-0.447077
C82	C	-1.101049	0.403091	-0.004903
C83	C	-1.163388	0.453780	-0.066931
C84	C	-1.225706	0.403066	-0.128989
C85	C	-1.225685	0.301663	-0.129017
C86	C	-1.163345	0.250968	-0.066986
C87	C	-1.101027	0.301682	-0.004929
H88	H	-1.163405	0.528850	-0.066912
H89	H	-1.271854	0.440594	-0.174908
H90	H	-1.271817	0.264121	-0.174955
H91	H	-1.163328	0.175898	-0.067005
H92	H	-1.054878	0.264154	0.040990
C93	C	-0.863130	0.596743	0.232048
C94	C	-0.768486	0.584065	0.230435
C95	C	-0.706168	0.634779	0.292492
C96	C	-0.738494	0.698171	0.356162
C97	C	-0.833143	0.710852	0.357778
C98	C	-0.895461	0.660138	0.295721
H99	H	-0.744551	0.537136	0.183300
H100	H	-0.636102	0.625391	0.291296
H101	H	-0.692363	0.735713	0.402101
H102	H	-0.857078	0.757781	0.404913
H103	H	-0.965527	0.669526	0.296917
C104	C	-1.101045	0.596684	-0.004912
C105	C	-1.099860	0.583994	-0.099612
C106	C	-1.162170	0.634680	-0.161678
C107	C	-1.225667	0.698056	-0.129044
C108	C	-1.226855	0.710749	-0.034339
C109	C	-1.164544	0.660063	0.027727
H110	H	-1.052854	0.537076	-0.123775
H111	H	-1.161291	0.625283	-0.231786
H112	H	-1.271793	0.735577	-0.174989
H113	H	-1.273861	0.757666	-0.010176
H114	H	-1.165424	0.669460	0.097834
C115	C	-0.824623	-0.000064	-0.274506
C116	C	-0.804846	-0.076112	-0.212163
C117	C	-0.722369	-0.076105	-0.153537
C118	C	-0.659670	-0.000050	-0.157254
C119	C	-0.679445	0.076004	-0.219600
C120	C	-0.761922	0.075997	-0.278226
H121	H	-0.851261	-0.132417	-0.209410
H122	H	-0.707730	-0.132405	-0.107385
H123	H	-0.598616	-0.000044	-0.113856
H124	H	-0.633030	0.132310	-0.222353
H125	H	-0.776560	0.132297	-0.324378
H126	H	-0.403408	0.144776	0.112217
