data_functionalizedCrystal
_audit_creation_method	'MofGen! by Chris Wilmer'
_symmetry_space_group_name_H-M	'P1'
_symmetry_Int_Tables_number	1
_symmetry_cell_setting	triclinic
loop_
_symmetry_equiv_pos_as_xyz
  x,y,z
_cell_length_a	12.827893
_cell_length_b	18.101395
_cell_length_c	12.827885
_cell_angle_alpha	89.967435
_cell_angle_beta	89.980538
_cell_angle_gamma	90.031075
loop_
_atom_site_label
_atom_site_type_symbol
_atom_site_fract_x
_atom_site_fract_y
_atom_site_fract_z
Zn1	Zn	1.597557	-0.294793	-0.590830
Zn2	Zn	1.597403	-0.418653	-0.416082
Zn3	Zn	1.422798	-0.294829	-0.416103
Zn4	Zn	1.422736	-0.418597	-0.590782
O5	O	1.510124	-0.356718	-0.503449
O6	O	1.743773	-0.311231	-0.567660
O7	O	1.574203	-0.402266	-0.269849
O8	O	1.446071	-0.191192	-0.439310
O9	O	1.743660	-0.402230	-0.439274
O10	O	1.574466	-0.191165	-0.567681
O11	O	1.445921	-0.311293	-0.269865
O12	O	1.276554	-0.311239	-0.439264
O13	O	1.445965	-0.402136	-0.737025
O14	O	1.276508	-0.402171	-0.567600
O15	O	1.574406	-0.311177	-0.737060
O16	O	1.574143	-0.522278	-0.439228
O17	O	1.445816	-0.522237	-0.567579
C18	C	1.238614	-0.356704	-0.503430
C19	C	1.122461	-0.356715	-0.503446
C20	C	1.509984	-0.549129	-0.503419
C21	C	1.510020	-0.631443	-0.503440
C22	C	1.070681	-0.401782	-0.566852
C23	C	0.950631	-0.401795	-0.566871
C24	C	1.510249	-0.930534	-0.503497
C25	C	1.429696	-0.899214	-0.584452
C26	C	1.429314	-0.813596	-0.584199
C27	C	1.510135	-0.782151	-0.503470
C28	C	1.480315	-0.813310	-0.393335
C29	C	1.479796	-0.898955	-0.393820
C30	C	1.620798	-0.898875	-0.531706
C31	C	1.620148	-0.813224	-0.534121
C32	C	1.510073	-0.698292	-0.503448
C33	C	1.510309	-1.014393	-0.503511
C34	C	1.782694	-0.356733	-0.503470
C35	C	1.898847	-0.356739	-0.503479
C36	C	1.510196	-0.356646	-0.776020
C37	C	1.510227	-0.356616	-0.892173
C38	C	1.510293	-0.163556	-0.503503
C39	C	1.510365	-0.081242	-0.503526
C40	C	1.446690	-0.401606	-0.943940
C41	C	1.446721	-0.401576	-1.063991
C42	C	1.510112	-0.356736	-0.231940
C43	C	1.510284	-0.356558	-0.115787
H44	H	1.115227	-0.440352	-0.621127
C45	C	1.318619	-0.785999	-0.558952
C46	C	1.230295	-0.841891	-0.538951
C47	C	1.119596	-0.814295	-0.513701
C48	C	1.097220	-0.730807	-0.508451
C49	C	1.185547	-0.674909	-0.528452
C50	C	1.296246	-0.702505	-0.553703
H51	H	1.246857	-0.903699	-0.542837
H52	H	1.054211	-0.855674	-0.498895
H53	H	1.015274	-0.710378	-0.489759
H54	H	1.168985	-0.613101	-0.524567
H55	H	1.361631	-0.661126	-0.568509
H56	H	0.906101	-0.440380	-0.621152
C57	C	1.555592	-0.926960	-0.309542
C58	C	1.537996	-0.906191	-0.194480
C59	C	1.613779	-0.934195	-0.110195
C60	C	1.707157	-0.982968	-0.140973
C61	C	1.724757	-1.003740	-0.256041
C62	C	1.648974	-0.975736	-0.340326
H63	H	1.468869	-0.870083	-0.171691
H64	H	1.600750	-0.918817	-0.025014
H65	H	1.763256	-1.003698	-0.078580
H66	H	1.793885	-1.039847	-0.278830
H67	H	1.662003	-0.991113	-0.425507
C68	C	1.373231	-0.453615	-1.124123
C69	C	1.299603	-0.505761	-1.064212
C70	C	1.226110	-0.557802	-1.124347
C71	C	1.226245	-0.557697	-1.244392
C72	C	1.299876	-0.505550	-1.304310
C73	C	1.373369	-0.453508	-1.244176
H74	H	1.299500	-0.505840	-0.975341
H75	H	1.171604	-0.596406	-1.079991
H76	H	1.171842	-0.596221	-1.288908
H77	H	1.299978	-0.505470	-1.393181
H78	H	1.427875	-0.414905	-1.288531
H79	H	1.537140	-0.792943	-0.331373
C80	C	1.583777	-0.304517	-1.055661
C81	C	1.538459	-0.246439	-0.980613
C82	C	1.611952	-0.194398	-0.920478
C83	C	1.730762	-0.200434	-0.935393
C84	C	1.776086	-0.258514	-1.010445
C85	C	1.702593	-0.310555	-1.070579
H86	H	1.450503	-0.241969	-0.969569
H87	H	1.578399	-0.151404	-0.864920
H88	H	1.785166	-0.161910	-0.890877
H89	H	1.864042	-0.262984	-1.021488
H90	H	1.736146	-0.353550	-1.126137
H91	H	1.392277	-0.440150	-0.899384
C92	C	0.958987	-0.304611	-0.430135
C93	C	1.034103	-0.246546	-0.475617
C94	C	1.094251	-0.194418	-0.402273
C95	C	1.079284	-0.200354	-0.283449
C96	C	1.004164	-0.258421	-0.237962
C97	C	0.944016	-0.310549	-0.311305
H98	H	1.045185	-0.242150	-0.563583
H99	H	1.149859	-0.151433	-0.435947
H100	H	1.123809	-0.161765	-0.229156
H101	H	0.993082	-0.262817	-0.149995
H102	H	0.888408	-0.353534	-0.277631
C103	C	1.454450	-0.785126	-0.694535
C104	C	1.475019	-0.840321	-0.783492
C105	C	1.500122	-0.811855	-0.893840
C106	C	1.504657	-0.728195	-0.915230
C107	C	1.484088	-0.672995	-0.826270
C108	C	1.458984	-0.701461	-0.715922
H109	H	1.471663	-0.902255	-0.767660
H110	H	1.515349	-0.852718	-0.959694
H111	H	1.523240	-0.707124	-0.996917
H112	H	1.487444	-0.611061	-0.842103
H113	H	1.443758	-0.660598	-0.650069
H114	H	1.448169	-0.919756	-0.666380
H115	H	1.400360	-0.791926	-0.369010
H116	H	1.077915	-0.318140	-0.449179
H117	H	1.348253	-0.920801	-0.566002
H118	H	1.564648	-0.318077	-0.936730
H119	H	1.398985	-0.918999	-0.369923
H120	H	1.642635	-0.792856	-0.615174
C121	C	1.657529	-0.927973	-0.638352
C122	C	1.587602	-0.980862	-0.701189
C123	C	1.624320	-1.009961	-0.807839
C124	C	1.730965	-0.986170	-0.851651
C125	C	1.800899	-0.933277	-0.788813
C126	C	1.764181	-0.904179	-0.682163
H127	H	1.508651	-0.998476	-0.668758
H128	H	1.572550	-1.049115	-0.854355
H129	H	1.758146	-1.007710	-0.930599
H130	H	1.879850	-0.915663	-0.821244
H131	H	1.815951	-0.865024	-0.635647
H132	H	1.683339	-0.791815	-0.479455
H133	H	1.680813	-0.919129	-0.472743
