data_functionalizedCrystal
_audit_creation_method	'MofGen! by Chris Wilmer'
_symmetry_space_group_name_H-M	'P1'
_symmetry_Int_Tables_number	1
_symmetry_cell_setting	triclinic
loop_
_symmetry_equiv_pos_as_xyz
  x,y,z
_cell_length_a	29.839134
_cell_length_b	12.759400
_cell_length_c	29.839104
_cell_angle_alpha	90.122233
_cell_angle_beta	89.924472
_cell_angle_gamma	89.996161
loop_
_atom_site_label
_atom_site_type_symbol
_atom_site_fract_x
_atom_site_fract_y
_atom_site_fract_z
Zn1	Zn	0.687097	0.417568	-0.253992
Zn2	Zn	1.187097	0.917568	0.246008
Zn3	Zn	0.686977	0.593565	-0.178870
Zn4	Zn	1.186977	1.093565	0.321130
Zn5	Zn	0.611893	0.417868	-0.178879
Zn6	Zn	1.111893	0.917868	0.321121
Zn7	Zn	0.611963	0.593173	-0.253976
Zn8	Zn	1.111963	1.093173	0.246024
O9	O	0.649483	0.505543	-0.216429
O10	O	1.149483	1.005543	0.283571
O11	O	0.749948	0.440954	-0.244031
O12	O	1.249948	0.940954	0.255969
O13	O	0.676938	0.570548	-0.116004
O14	O	1.176938	1.070548	0.383996
O15	O	0.621890	0.270807	-0.188853
O16	O	1.121890	0.770807	0.311147
O17	O	0.749860	0.570258	-0.188839
O18	O	1.249860	1.070258	0.311161
O19	O	0.677142	0.270587	-0.244039
O20	O	1.177142	0.770587	0.255961
O21	O	0.621774	0.441464	-0.116010
O22	O	1.121774	0.941464	0.383990
O23	O	0.549035	0.441083	-0.188837
O24	O	1.049035	0.941083	0.311163
O25	O	0.622009	0.569589	-0.316845
O26	O	1.122009	1.069589	0.183155
O27	O	0.549086	0.569879	-0.244011
O28	O	1.049086	1.069879	0.255989
O29	O	0.677210	0.440573	-0.316858
O30	O	1.177210	0.940573	0.183142
O31	O	0.677006	0.740534	-0.188823
O32	O	1.177006	1.240534	0.311177
O33	O	0.621893	0.740246	-0.244003
O34	O	1.121893	1.240246	0.255997
C35	C	0.532760	0.505472	-0.216423
C36	C	1.032760	1.005472	0.283577
C37	C	0.482826	0.505466	-0.216431
C38	C	0.982826	1.005466	0.283569
C39	C	0.766661	0.505616	-0.216436
C40	C	1.266661	1.005616	0.283564
C41	C	0.816595	0.505647	-0.216439
C42	C	1.316595	1.005647	0.283561
C43	C	0.649456	0.778511	-0.216420
C44	C	1.149456	1.278511	0.283580
C45	C	0.649486	0.895287	-0.216431
C46	C	1.149486	1.395287	0.283569
C47	C	1.173213	0.572602	-0.245169
C48	C	1.673213	1.072602	0.254831
C49	C	0.985540	0.572654	-0.245168
C50	C	1.485540	1.072654	0.254832
O51	O	0.961301	0.629658	-0.269610
O52	O	1.461301	1.129658	0.230390
N53	N	0.962040	0.505604	-0.216442
N54	N	1.462040	1.005604	0.283558
C55	C	0.985462	0.438531	-0.187716
C56	C	1.485462	0.938531	0.312284
O57	O	0.961168	0.381495	-0.163286
O58	O	1.461168	0.881495	0.336714
C59	C	1.173134	0.438475	-0.187720
C60	C	1.673134	0.938475	0.312280
C61	C	1.196631	0.505537	-0.216445
C62	C	1.696631	1.005537	0.283555
C63	C	1.196710	0.639658	-0.273892
C64	C	1.696710	1.139658	0.226108
C65	C	1.243626	0.639649	-0.273890
C66	C	1.743626	1.139649	0.226110
C67	C	1.267044	0.572583	-0.245166
C68	C	1.767044	1.072583	0.254834
C69	C	1.243547	0.505528	-0.216443
C70	C	1.743547	1.005528	0.283557
C71	C	1.196555	0.371398	-0.158997
C72	C	1.696555	0.871398	0.341003
C73	C	1.243476	0.371388	-0.159001
C74	C	1.743476	0.871388	0.340999
C75	C	1.266973	0.438450	-0.187726
C76	C	1.766973	0.938450	0.312274
C77	C	1.313881	0.438453	-0.187717
C78	C	1.813881	0.938453	0.312283
N79	N	1.337380	0.505503	-0.216443
N80	N	1.837380	1.005503	0.283557
C81	C	1.313962	0.572568	-0.245167
C82	C	1.813962	1.072568	0.254833
C83	C	0.886932	0.438567	-0.187716
C84	C	1.386932	0.938567	0.312284
C85	C	0.840014	0.438582	-0.187714
C86	C	1.340014	0.938582	0.312286
C87	C	0.840095	0.572704	-0.245167
C88	C	1.340095	1.072704	0.254833
C89	C	0.887013	0.572693	-0.245166
C90	C	1.387013	1.072693	0.254834
C91	C	0.910431	0.505617	-0.216442
C92	C	1.410431	1.005617	0.283558
C93	C	1.412488	0.572544	-0.245161
C94	C	1.912488	1.072544	0.254839
C95	C	1.459407	0.572532	-0.245155
C96	C	1.959407	1.072532	0.254845
C97	C	1.459322	0.438406	-0.187705
C98	C	1.959322	0.938406	0.312295
C99	C	1.412407	0.438422	-0.187709
C100	C	1.912407	0.938422	0.312291
C101	C	1.388991	0.505495	-0.216440
C102	C	1.888991	1.005495	0.283560
O103	O	1.338148	0.381470	-0.163291
O104	O	1.838148	0.881470	0.336709
O105	O	1.338264	0.629580	-0.269601
O106	O	1.838264	1.129580	0.230399
C107	C	1.126298	0.572612	-0.245171
C108	C	1.626298	1.072612	0.254829
C109	C	1.102800	0.505556	-0.216448
C110	C	1.602800	1.005556	0.283552
C111	C	1.126219	0.438491	-0.187724
C112	C	1.626219	0.938491	0.312276
C113	C	1.055883	0.505571	-0.216447
C114	C	1.555883	1.005571	0.283553
C115	C	1.032464	0.572637	-0.245171
C116	C	1.532464	1.072637	0.254829
C117	C	1.055964	0.639687	-0.273897
C118	C	1.555964	1.139687	0.226103
C119	C	1.102879	0.639677	-0.273895
C120	C	1.602879	1.139677	0.226105
C121	C	1.102719	0.371441	-0.158998
C122	C	1.602719	0.871441	0.341002
C123	C	1.055804	0.371457	-0.159001
C124	C	1.555804	0.871457	0.340999
C125	C	1.032386	0.438522	-0.187726
C126	C	1.532386	0.938522	0.312274
C127	C	0.649630	0.505004	-0.333608
C128	C	1.149630	1.005004	0.166392
C129	C	0.649693	0.504774	-0.383543
C130	C	1.149693	1.004774	0.116457
C131	C	0.649522	0.231510	-0.216449
C132	C	1.149522	0.731510	0.283551
C133	C	0.649538	0.114733	-0.216457
C134	C	1.149538	0.614733	0.283543
C135	C	0.678215	0.950265	-0.187731
C136	C	1.178215	1.450265	0.312269
C137	C	0.678242	1.059989	-0.187745
C138	C	1.178242	1.559989	0.312255
C139	C	0.620808	1.059749	-0.245160
C140	C	1.120808	1.559749	0.254840
C141	C	0.620783	0.950027	-0.245148
C142	C	1.120783	1.450027	0.254852
C143	C	0.706918	0.895526	-0.159013
C144	C	1.206918	1.395526	0.340987
C145	C	0.735649	0.950503	-0.130310
C146	C	1.235649	1.450503	0.369690
C147	C	0.735676	1.060227	-0.130324
C148	C	1.235676	1.560227	0.369676
C149	C	0.706973	1.114974	-0.159041
C150	C	1.206973	1.614974	0.340959
C151	C	0.649361	0.506005	-0.099706
C152	C	1.149361	1.006005	0.400294
C153	C	0.649385	0.505939	-0.049772
C154	C	1.149385	1.005939	0.450228
C155	C	0.620603	0.438657	0.259849
C156	C	1.120603	0.938657	0.759849
C157	C	0.620689	0.438336	0.447522
C158	C	1.120689	0.938336	0.947522
O159	O	0.596112	0.381525	0.471768
O160	O	1.096112	0.881525	0.971768
N161	N	0.649628	0.505016	0.471012
N162	N	1.149628	1.005016	0.971012
C163	C	0.678549	0.571777	0.447582
C164	C	1.178549	1.071777	0.947582
O165	O	0.703168	0.628477	0.471868
O166	O	1.203168	1.128477	0.971868
C167	C	0.678464	0.572091	0.259910
C168	C	1.178464	1.072091	0.759910
C169	C	0.649520	0.505414	0.236422
C170	C	1.149520	1.005414	0.736422
C171	C	0.591662	0.371985	0.236361
C172	C	1.091662	0.871985	0.736361
C173	C	0.591639	0.372070	0.189445
C174	C	1.091639	0.872070	0.689445
C175	C	0.620556	0.438827	0.166018
C176	C	1.120556	0.938827	0.666018
C177	C	0.649497	0.505499	0.189506
C178	C	1.149497	1.005499	0.689506
C179	C	0.707387	0.638845	0.236480
C180	C	1.207387	1.138845	0.736480
C181	C	0.707364	0.638916	0.189559
C182	C	1.207364	1.138916	0.689559
C183	C	0.678420	0.572239	0.166071
C184	C	1.178420	1.072239	0.666071
C185	C	0.678392	0.572341	0.119164
C186	C	1.178392	1.072341	0.619164
N187	N	0.649454	0.505661	0.095673
N188	N	1.149454	1.005661	0.595673
C189	C	0.620536	0.438904	0.119100
C190	C	1.120536	0.938904	0.619100
C191	C	0.678590	0.571608	0.546112
C192	C	1.178590	1.071608	1.046112
C193	C	0.678611	0.571531	0.593030
C194	C	1.178611	1.071531	1.093030
C195	C	0.620752	0.438089	0.592967
C196	C	1.120752	0.938089	1.092967
C197	C	0.620730	0.438172	0.546048
C198	C	1.120730	0.938172	1.046048
C199	C	0.649652	0.504928	0.522622
C200	C	1.149652	1.004928	1.022622
C201	C	0.620489	0.439088	0.020575
C202	C	1.120489	0.939088	0.520575
C203	C	0.620467	0.439182	-0.026345
C204	C	1.120467	0.939182	0.473655
C205	C	0.678328	0.572619	-0.026277
C206	C	1.178328	1.072619	0.473723
C207	C	0.678348	0.572530	0.020638
C208	C	1.178348	1.072530	0.520638
C209	C	0.649427	0.505756	0.044063
C210	C	1.149427	1.005756	0.544063
O211	O	0.702960	0.629115	0.094889
O212	O	1.202960	1.129115	0.594889
O213	O	0.595927	0.382196	0.094806
O214	O	1.095927	0.882196	0.594806
C215	C	0.620626	0.438572	0.306764
C216	C	1.120626	0.938572	0.806764
C217	C	0.649567	0.505245	0.330252
C218	C	1.149567	1.005245	0.830252
C219	C	0.678484	0.572002	0.306825
C220	C	1.178484	1.072002	0.806825
C221	C	0.649587	0.505167	0.377170
C222	C	1.149587	1.005167	0.877170
C223	C	0.620669	0.438410	0.400597
C224	C	1.120669	0.938410	0.900597
C225	C	0.591731	0.371730	0.377107
C226	C	1.091731	0.871730	0.877107
C227	C	0.591708	0.371815	0.330192
C228	C	1.091708	0.871815	0.830192
C229	C	0.707423	0.638682	0.330316
C230	C	1.207423	1.138682	0.830316
C231	C	0.707443	0.638592	0.377231
C232	C	1.207443	1.138592	0.877231
C233	C	0.678525	0.571835	0.400658
C234	C	1.178525	1.071835	0.900658
H235	H	1.478536	0.627145	-0.268547
H236	H	1.978536	1.127145	0.231453
C237	C	0.588628	0.365824	-0.052179
C238	C	1.088628	0.865824	0.447821
N239	N	0.564649	0.310568	-0.071636
N240	N	1.064649	0.810568	0.428364
H241	H	1.121782	0.316827	-0.135606
H242	H	1.621782	0.816827	0.364394
H243	H	0.596940	0.384712	0.039642
H244	H	1.096940	0.884712	0.539642
H245	H	0.597389	0.905264	-0.268519
H246	H	1.097389	1.405264	0.231481
H247	H	0.568113	0.317618	0.255430
H248	H	1.068113	0.817618	0.755430
C249	C	1.029962	0.297675	-0.127401
C250	C	1.529962	0.797675	0.372599
N251	N	1.010500	0.242096	-0.103603
N252	N	1.510500	0.742096	0.396397
H253	H	0.597162	0.383876	0.526927
H254	H	1.097162	0.883876	1.026927
H255	H	1.177432	0.316792	-0.135605
H256	H	1.677432	0.816792	0.364395
H257	H	0.706897	0.806183	-0.158998
H258	H	1.206897	1.306183	0.341002
C259	C	0.767222	0.890280	-0.098725
C260	C	1.267222	1.390280	0.401275
N261	N	0.791003	0.844921	-0.074933
N262	N	1.291003	1.344921	0.425067
H263	H	1.478398	0.383807	-0.164317
H264	H	1.978398	0.883807	0.335683
C265	C	0.814172	0.364815	-0.156112
C266	C	1.314172	0.864815	0.343888
N267	N	0.794710	0.309245	-0.132311
N268	N	1.294710	0.809245	0.367689
H269	H	1.122006	0.694286	-0.297286
H270	H	1.622006	1.194286	0.202714
H271	H	0.759074	1.104986	-0.106956
H272	H	1.259074	1.604986	0.393044
C273	C	0.912685	0.364780	-0.156112
C274	C	1.412685	0.864780	0.343888
N275	N	0.932080	0.309207	-0.132306
N276	N	1.432080	0.809207	0.367694
H277	H	0.597206	0.383733	0.612049
H278	H	1.097206	0.883733	1.112049
H279	H	1.393274	0.383817	-0.164318
H280	H	1.893274	0.883817	0.335682
C281	C	0.559924	0.298291	0.402886
C282	C	1.059924	0.798291	0.902886
N283	N	0.535971	0.242973	0.422305
N284	N	1.035971	0.742973	0.922305
H285	H	0.568070	0.317773	0.170326
H286	H	1.068070	0.817773	0.670326
C287	C	0.707007	1.235674	-0.159056
C288	C	1.207007	1.735674	0.340944
N289	N	0.707031	1.326584	-0.159065
N290	N	1.207031	1.826584	0.340935
H291	H	0.702176	0.625835	0.612150
H292	H	1.202176	1.125835	1.112150
H293	H	1.036888	0.694297	-0.297284
H294	H	1.536888	1.194297	0.202716
C295	C	1.269466	0.713418	-0.305492
C296	C	1.769466	1.213418	0.194508
N297	N	1.288927	0.768982	-0.329297
N298	N	1.788927	1.268982	0.170703
H299	H	0.702144	0.625972	0.527043
H300	H	1.202144	1.125972	1.027043
H301	H	0.730953	0.693148	0.255596
H302	H	1.230953	1.193148	0.755596
C303	C	1.386737	0.646334	-0.276764
C304	C	1.886737	1.146334	0.223236
N305	N	1.367342	0.701920	-0.300565
N306	N	1.867342	1.201920	0.199435
H307	H	0.597438	1.104332	-0.268540
H308	H	1.097438	1.604332	0.231460
C309	C	1.170957	0.713453	-0.305489
C310	C	1.670957	1.213453	0.194511
N311	N	1.151563	0.769050	-0.329286
N312	N	1.651563	1.269050	0.170714
H313	H	0.730918	0.693275	0.170488
H314	H	1.230918	1.193275	0.670488
H315	H	1.262540	0.316759	-0.135613
H316	H	1.762540	0.816759	0.364387
H317	H	0.701920	0.626816	0.039763
H318	H	1.201920	1.126816	0.539763
H319	H	0.701870	0.626976	-0.045360
H320	H	1.201870	1.126976	0.454640
C321	C	0.559871	0.298455	0.304361
C322	C	1.059871	0.798455	0.804361
N323	N	0.535892	0.243193	0.284908
N324	N	1.035892	0.743193	0.784908
H325	H	0.730972	0.693043	0.311246
H326	H	1.230972	1.193043	0.811246
H327	H	0.731012	0.692897	0.396351
H328	H	1.231012	1.192897	0.896351
H329	H	0.821020	0.627311	-0.268555
H330	H	1.321020	1.127311	0.231445
C331	C	0.912856	0.646460	-0.276767
C332	C	1.412856	1.146460	0.223233
N333	N	0.932318	0.702022	-0.300572
N334	N	1.432318	1.202022	0.199428
