data_functionalizedCrystal
_audit_creation_method	'MofGen! by Chris Wilmer'
_symmetry_space_group_name_H-M	'P1'
_symmetry_Int_Tables_number	1
_symmetry_cell_setting	triclinic
loop_
_symmetry_equiv_pos_as_xyz
  x,y,z
_cell_length_a	19.288864
_cell_length_b	10.868271
_cell_length_c	19.288865
_cell_angle_alpha	90.010362
_cell_angle_beta	83.136245
_cell_angle_gamma	90.018163
loop_
_atom_site_label
_atom_site_type_symbol
_atom_site_fract_x
_atom_site_fract_y
_atom_site_fract_z
O1	O	0.921348	0.102731	0.086648
O2	O	1.254681	0.436064	0.419981
O3	O	1.588015	0.769398	0.753315
O4	O	0.719087	0.102649	0.098337
O5	O	1.052421	0.435982	0.431670
O6	O	1.385754	0.769315	0.765003
O7	O	0.826062	0.102668	-0.008638
O8	O	1.159395	0.436001	0.324695
O9	O	1.492729	0.769334	0.658029
O10	O	0.814373	0.102712	0.193623
O11	O	1.147707	0.436045	0.526956
O12	O	1.481040	0.769378	0.860289
O13	O	0.826053	-0.101977	-0.008642
O14	O	1.159387	0.231356	0.324691
O15	O	1.492720	0.564690	0.658025
O16	O	0.719079	-0.101996	0.098333
O17	O	1.052412	0.231337	0.431666
O18	O	1.385745	0.564671	0.764999
O19	O	0.921339	-0.101914	0.086644
O20	O	1.254673	0.231420	0.419977
O21	O	1.588006	0.564753	0.753311
Zn22	Zn	0.820208	-0.134447	0.092488
Zn23	Zn	1.153541	0.198887	0.425821
Zn24	Zn	1.486874	0.532220	0.759154
Zn25	Zn	0.820219	0.135181	0.092493
Zn26	Zn	1.153552	0.468515	0.425826
Zn27	Zn	1.486886	0.801848	0.759160
O28	O	0.814365	-0.101933	0.193619
O29	O	1.147698	0.231400	0.526952
O30	O	1.481031	0.564734	0.860285
C31	C	0.693207	0.000315	0.097959
C32	C	1.026540	0.333649	0.431292
C33	C	1.359873	0.666982	0.764625
C34	C	0.616103	0.000283	0.096830
C35	C	0.949436	0.333616	0.430163
C36	C	1.282770	0.666950	0.763496
C37	C	0.571407	0.000316	0.159598
C38	C	0.904740	0.333649	0.492931
C39	C	1.238073	0.666983	0.826264
C40	C	0.498960	0.000329	0.158537
C41	C	0.832293	0.333663	0.491870
C42	C	1.165626	0.666996	0.825204
C43	C	0.471212	0.000334	0.094705
C44	C	0.804545	0.333668	0.428038
C45	C	1.137879	0.667001	0.761371
C46	C	0.515918	0.000294	0.031929
C47	C	0.849252	0.333628	0.365262
C48	C	1.182585	0.666961	0.698595
C49	C	0.588364	0.000269	0.032991
C50	C	0.921697	0.333602	0.366324
C51	C	1.255030	0.666935	0.699658
C52	C	0.362953	0.072061	0.044527
C53	C	0.696286	0.405394	0.377860
C54	C	1.029620	0.738728	0.711194
C55	C	0.290509	0.072094	0.043467
C56	C	0.623842	0.405428	0.376801
C57	C	0.957175	0.738761	0.710134
C58	C	0.247767	0.000408	0.091425
C59	C	0.581100	0.333741	0.424758
C60	C	0.914433	0.667075	0.758092
C61	C	0.277476	-0.071295	0.140455
C62	C	0.610810	0.262038	0.473788
C63	C	0.944143	0.595371	0.807121
C64	C	0.349922	-0.071321	0.141517
C65	C	0.683255	0.262012	0.474850
C66	C	1.016588	0.595346	0.808184
C67	C	0.392658	0.000361	0.093546
C68	C	0.725991	0.333695	0.426879
C69	C	1.059325	0.667028	0.760212
C70	C	0.124514	0.000454	0.153047
C71	C	0.457848	0.333787	0.486381
C72	C	0.791181	0.667121	0.819714
C73	C	0.052066	0.000460	0.151984
C74	C	0.385400	0.333793	0.485317
C75	C	0.718733	0.667126	0.818651
C76	C	0.069026	0.000437	0.025374
C77	C	0.402360	0.333770	0.358707
C78	C	0.735693	0.667104	0.692040
C79	C	0.141473	0.000419	0.026439
C80	C	0.474806	0.333752	0.359772
C81	C	0.808140	0.667086	0.693106
C82	C	0.169212	0.000433	0.090278
C83	C	0.502546	0.333767	0.423611
C84	C	0.835879	0.667100	0.756944
N85	N	0.820205	-0.318461	0.092484
N86	N	1.153538	0.014873	0.425817
N87	N	1.486872	0.348206	0.759150
C88	C	0.820216	-0.569467	0.092492
C89	C	1.153549	-0.236133	0.425825
C90	C	1.486882	0.097200	0.759158
C91	C	0.820207	-0.429789	0.092489
C92	C	1.153541	-0.096456	0.425823
C93	C	1.486874	0.236877	0.759156
C94	C	0.947220	0.000422	0.087022
C95	C	1.280553	0.333755	0.420355
C96	C	1.613887	0.667089	0.753689
C97	C	1.024324	0.000463	0.088151
C98	C	1.357657	0.333796	0.421484
C99	C	1.690990	0.667129	0.754818
C100	C	0.825682	0.000342	-0.034516
C101	C	1.159015	0.333675	0.298817
C102	C	1.492348	0.667008	0.632150
C103	C	0.824553	0.000330	-0.111620
C104	C	1.157886	0.333664	0.221713
C105	C	1.491219	0.666997	0.555047
N106	N	0.820227	0.319196	0.092492
N107	N	1.153561	0.652529	0.425825
N108	N	1.486894	0.985862	0.759158
C109	C	0.887321	0.000350	-0.156316
C110	C	1.220654	0.333683	0.177017
C111	C	1.553987	0.667016	0.510350
C112	C	0.886260	0.000369	-0.228763
C113	C	1.219593	0.333702	0.104570
C114	C	1.552927	0.667036	0.437903
C115	C	0.822428	0.000344	-0.256511
C116	C	1.155761	0.333677	0.076822
C117	C	1.489094	0.667010	0.410156
C118	C	0.759652	0.000331	-0.211805
C119	C	1.092985	0.333664	0.121529
C120	C	1.426318	0.666998	0.454862
C121	C	0.760714	0.000324	-0.139359
C122	C	1.094047	0.333658	0.193974
C123	C	1.427381	0.666991	0.527307
C124	C	0.772245	-0.071359	-0.364800
C125	C	1.105578	0.261974	-0.031466
C126	C	1.438912	0.595307	0.301867
C127	C	0.771185	-0.071360	-0.437244
C128	C	1.104519	0.261973	-0.103911
C129	C	1.437852	0.595306	0.229422
C130	C	0.819148	0.000370	-0.479956
C131	C	1.152481	0.333703	-0.146623
C132	C	1.485815	0.667037	0.186710
C133	C	0.868183	0.072085	-0.450217
C134	C	1.201516	0.405418	-0.116884
C135	C	1.534849	0.738752	0.216450
C136	C	0.869245	0.072078	-0.377771
C137	C	1.202578	0.405412	-0.044438
C138	C	1.535912	0.738745	0.288895
C139	C	0.821269	0.000352	-0.335065
C140	C	1.154602	0.333685	-0.001732
C141	C	1.487935	0.667018	0.331602
C142	C	0.880770	0.000412	-0.603209
C143	C	1.214104	0.333745	-0.269875
C144	C	1.547437	0.667078	0.063458
C145	C	0.879707	0.000438	-0.675657
C146	C	1.213040	0.333772	-0.342323
C147	C	1.546374	0.667105	-0.008990
C148	C	0.753097	0.000388	-0.658697
C149	C	1.086430	0.333722	-0.325363
C150	C	1.419763	0.667055	0.007970
C151	C	0.754162	0.000374	-0.586250
C152	C	1.087495	0.333707	-0.252917
C153	C	1.420829	0.667041	0.080417
C154	C	0.818000	0.000380	-0.558511
C155	C	1.151334	0.333713	-0.225177
C156	C	1.484667	0.667047	0.108156
C157	C	0.814745	0.000396	0.219497
C158	C	1.148078	0.333729	0.552831
C159	C	1.481412	0.667063	0.886164
C160	C	0.815874	0.000415	0.296601
C161	C	1.149207	0.333749	0.629934
C162	C	1.482541	0.667082	0.963267
H163	H	0.015674	0.000479	0.203099
H164	H	0.349008	0.333813	0.536433
H165	H	0.682341	0.667146	0.869766
F166	F	0.635935	0.000233	-0.033818
F167	F	0.969268	0.333567	0.299515
F168	F	1.302602	0.666900	0.632848
H169	H	0.937375	0.000390	-0.265162
H170	H	1.270708	0.333723	0.068171
H171	H	1.604041	0.667056	0.401505
F172	F	0.258895	0.148418	-0.008708
F173	F	0.592229	0.481751	0.324625
F174	F	0.925562	0.815084	0.657958
F175	F	0.948712	0.000412	-0.573684
F176	F	1.282045	0.333745	-0.240351
F177	F	1.615378	0.667079	0.092983
F178	F	0.451382	0.000361	0.225346
F179	F	0.784715	0.333694	0.558679
F180	F	1.118048	0.667028	0.892012
H181	H	0.177866	0.000399	-0.024674
H182	H	0.511199	0.333732	0.308660
H183	H	0.844533	0.667065	0.641993
F184	F	0.691717	0.000312	-0.241336
F185	F	1.025050	0.333646	0.091997
F186	F	1.358384	0.666979	0.425330
F187	F	0.486386	0.000294	-0.036006
F188	F	0.819720	0.333627	0.297327
F189	F	1.153053	0.666961	0.630661
H190	H	0.733186	-0.129777	-0.330028
H191	H	1.066520	0.203556	0.003305
H192	H	1.399853	0.536889	0.336638
H193	H	0.374108	-0.129708	0.181437
H194	H	0.707442	0.203625	0.514770
H195	H	1.040775	0.536958	0.848103
H196	H	0.397749	0.130444	0.005472
H197	H	0.731082	0.463777	0.338806
H198	H	1.064415	0.797110	0.672139
H199	H	0.939303	0.000359	-0.133736
H200	H	1.272636	0.333692	0.199597
H201	H	1.605970	0.667025	0.532931
H202	H	0.909169	0.130474	-0.353560
H203	H	1.242502	0.463807	-0.020227
H204	H	1.575836	0.797140	0.313106
H205	H	0.701123	0.000374	-0.681288
H206	H	1.034457	0.333707	-0.347954
H207	H	1.367790	0.667041	-0.014621
H208	H	0.709599	0.000308	-0.102967
H209	H	1.042932	0.333641	0.230367
H210	H	1.376266	0.666975	0.563700
H211	H	0.046435	0.000518	-0.026600
H212	H	0.379769	0.333851	0.306734
H213	H	0.713102	0.667184	0.640067
H214	H	0.593987	0.000330	0.211580
H215	H	0.927320	0.333663	0.544913
H216	H	1.260654	0.666997	0.878247
F217	F	0.946517	0.000467	-0.723227
F218	F	1.279850	0.333800	-0.389893
F219	F	1.613184	0.667134	-0.056560
H220	H	0.242677	-0.129670	0.179506
H221	H	0.576010	0.203663	0.512840
H222	H	0.909343	0.536997	0.846173
F223	F	0.154039	0.000460	0.220989
F224	F	0.487372	0.333793	0.554322
F225	F	0.820706	0.667126	0.887655
H226	H	0.907238	0.130495	-0.484992
H227	H	1.240572	0.463829	-0.151659
H228	H	1.573905	0.797162	0.181674
H229	H	0.703049	0.000351	-0.549857
H230	H	1.036383	0.333685	-0.216524
H231	H	1.369716	0.667018	0.116810
H232	H	0.731256	-0.129748	-0.461452
H233	H	1.064589	0.203586	-0.128118
H234	H	1.397922	0.536919	0.205215
