data_functionalizedCrystal
_audit_creation_method	'MofGen! by Chris Wilmer'
_symmetry_space_group_name_H-M	'P1'
_symmetry_Int_Tables_number	1
_symmetry_cell_setting	triclinic
loop_
_symmetry_equiv_pos_as_xyz
  x,y,z
_cell_length_a	11.026607
_cell_length_b	10.654550
_cell_length_c	9.482900
_cell_angle_alpha	99.426343
_cell_angle_beta	78.636152
_cell_angle_gamma	96.535460
loop_
_atom_site_label
_atom_site_type_symbol
_atom_site_fract_x
_atom_site_fract_y
_atom_site_fract_z
O1	O	1.633381	0.511463	-0.120893
O2	O	1.279571	0.451467	-0.120895
O3	O	1.464610	0.300492	-0.120889
O4	O	1.448342	0.662438	-0.120899
O5	O	1.427025	0.331316	0.120903
O6	O	1.241986	0.482291	0.120896
O7	O	1.595797	0.542287	0.120898
Cu8	Cu	1.415460	0.515103	0.142975
Cu9	Cu	1.459908	0.478650	-0.142971
O10	O	1.410758	0.693262	0.120892
C11	C	1.215474	0.455811	0.000000
C12	C	1.080483	0.422816	-0.000001
C13	C	1.007444	0.513919	-0.000004
C14	C	0.867923	0.479820	-0.000005
C15	C	1.444623	0.268847	0.000005
C16	C	1.441050	0.128627	0.000000
C17	C	1.549998	0.072791	0.000005
C18	C	1.546634	-0.058961	-0.000005
C19	C	1.325364	-0.079031	-0.000019
C20	C	1.328730	0.052718	-0.000019
C21	C	1.662318	0.148701	0.000025
C22	C	1.771274	0.092866	0.000031
C23	C	1.767910	-0.038887	0.000021
C24	C	1.655590	-0.114805	0.000004
C25	C	1.659894	0.537943	-0.000000
C26	C	1.794887	0.570936	-0.000009
C27	C	1.430745	0.724907	-0.000005
C28	C	1.434319	0.865125	-0.000010
N29	N	1.384206	0.540743	0.344094
N30	N	1.491171	0.453003	-0.344091
C31	C	1.450681	0.486205	0.416295
C32	C	1.424686	0.507549	0.583712
H33	H	1.048204	0.617161	0.000001
C34	C	0.812869	0.340335	-0.000001
N35	N	0.771401	0.235277	-0.000000
C36	C	1.651897	-0.259738	-0.000015
N37	N	1.649116	-0.368899	-0.000023
C38	C	1.594067	0.368575	0.571992
N39	N	1.671570	0.304989	0.508784
H40	H	1.856630	-0.084345	0.000012
C41	C	0.849938	0.710421	-0.000014
N42	N	0.891404	0.815479	-0.000021
H43	H	1.039728	0.319570	-0.000035
C44	C	1.666028	0.293632	0.000036
N45	N	1.668821	0.402794	0.000046
H46	H	1.240015	0.098180	-0.000022
C47	C	1.201816	-0.162543	-0.000015
N48	N	1.108756	-0.225442	-0.000001
C49	C	1.553545	0.401749	0.332369
N50	N	1.631019	0.338128	0.269158
H51	H	1.348521	0.570043	0.645833
H52	H	1.862727	0.154682	0.000009
C53	C	1.281317	0.625168	0.428020
N54	N	1.203818	0.688758	0.491231
