data_functionalizedCrystal
_audit_creation_method	'MofGen! by Chris Wilmer'
_symmetry_space_group_name_H-M	'P1'
_symmetry_Int_Tables_number	1
_symmetry_cell_setting	triclinic
loop_
_symmetry_equiv_pos_as_xyz
  x,y,z
_cell_length_a	23.532407
_cell_length_b	15.538191
_cell_length_c	14.185569
_cell_angle_alpha	82.124202
_cell_angle_beta	76.924933
_cell_angle_gamma	114.939614
loop_
_atom_site_label
_atom_site_type_symbol
_atom_site_fract_x
_atom_site_fract_y
_atom_site_fract_z
O1	O	-0.167965	-1.230119	-0.083405
O2	O	-0.102078	-0.955241	-0.083414
O3	O	-0.219642	-1.100973	-0.083391
O4	O	-0.050401	-1.084386	-0.083428
O5	O	-0.254369	-1.144024	0.083451
O6	O	-0.136805	-0.998292	0.083427
O7	O	-0.202692	-1.273169	0.083436
Cu8	Cu	-0.172919	-1.139661	0.098666
Cu9	Cu	-0.131851	-1.088749	-0.098643
O10	O	-0.085128	-1.127437	0.083413
C11	C	-0.112548	-0.941606	0.000006
C12	C	-0.092014	-0.836839	0.000003
C13	C	-0.258136	-1.122077	0.000032
C14	C	-0.321097	-1.120810	0.000040
N15	N	-0.201806	-1.175477	0.237443
C16	C	-0.736103	-1.199074	-0.000012
C17	C	-0.795262	-1.197893	-0.000020
O18	O	-0.846751	-1.270447	-0.000055
N19	N	-0.800275	-1.111258	-0.000022
C20	C	-0.746122	-1.025796	-0.000027
O21	O	-0.755818	-0.951997	-0.000030
C22	C	-0.686963	-1.026976	-0.000026
C23	C	-0.681957	-1.113619	-0.000014
C24	C	-0.731095	-1.285710	-0.000001
C25	C	-0.671940	-1.286891	0.000008
C26	C	-0.617794	-1.201436	0.000007
C27	C	-0.622802	-1.114800	-0.000004
C28	C	-0.632810	-0.941513	-0.000038
C29	C	-0.573649	-0.942700	-0.000038
C30	C	-0.568643	-1.029343	-0.000026
C31	C	-0.509502	-1.030526	0.000003
N32	N	-0.504489	-1.117161	0.000006
C33	C	-0.558635	-1.202616	0.000007
C34	C	-0.870361	-1.023323	-0.000030
C35	C	-0.929521	-1.022144	-0.000023
C36	C	-0.978656	-1.194241	-0.000018
C37	C	-0.919497	-1.195421	-0.000017
C38	C	-0.865349	-1.109958	-0.000027
C39	C	-0.434404	-1.205090	0.000028
C40	C	-0.375243	-1.206265	0.000042
C41	C	-0.326112	-1.034167	0.000032
C42	C	-0.385269	-1.032993	0.000023
C43	C	-0.439415	-1.118462	0.000018
O44	O	-0.457984	-0.958009	0.000034
O45	O	-0.548925	-1.276399	-0.000003
C46	C	-0.046633	-1.106332	-0.000012
C47	C	0.016329	-1.107598	-0.000026
C48	C	-0.192222	-1.286804	0.000014
C49	C	-0.212754	-1.391568	0.000010
C50	C	-0.296010	-0.550965	0.000032
C51	C	-0.276701	-0.452518	0.000027
C52	C	-0.168092	-0.429052	0.000004
C53	C	-0.187393	-0.527501	0.000014
C54	C	-0.251353	-0.588450	0.000027
C55	C	-0.142735	-0.564986	0.000008
C56	C	-0.162034	-0.663425	0.000013
C57	C	-0.225991	-0.724379	0.000023
C58	C	-0.270652	-0.686889	0.000031
C59	C	-0.078774	-0.504034	-0.000012
C60	C	-0.034116	-0.541519	-0.000018
C61	C	-0.053416	-0.639961	-0.000006
C62	C	-0.117373	-0.700915	0.000004
C63	C	-0.008755	-0.677451	-0.000015
C64	C	-0.028054	-0.775890	-0.000010
C65	C	-0.136672	-0.799355	0.000009
N66	N	-0.102970	-1.052941	-0.237420
C67	C	-0.018124	-0.947714	0.605056
C68	C	-0.040003	-0.974850	0.710082
C69	C	-0.144083	-1.103922	0.710064
C70	C	-0.122214	-1.076793	0.605036
C71	C	-0.059234	-0.998689	0.552540
C72	C	-0.163323	-1.127769	0.552520
C73	C	-0.141454	-1.100645	0.447501
C74	C	-0.078476	-1.022546	0.394998
C75	C	-0.037365	-0.971565	0.447521
C76	C	-0.226302	-1.205877	0.605017
C77	C	-0.267411	-1.256852	0.552501
C78	C	-0.245544	-1.229724	0.447480
C79	C	-0.182566	-1.151625	0.394977
C80	C	-0.286655	-1.280705	0.394957
C81	C	-0.264786	-1.253581	0.289938
C82	C	-0.160697	-1.124502	0.289959
H83	H	-0.371174	-1.276824	0.000054
H84	H	-0.337932	-1.344304	0.437712
H85	H	-0.348094	-0.600596	0.000049
H86	H	-0.116014	-0.379414	-0.000011
C87	C	-0.638300	-0.846195	-0.000059
N88	N	-0.642431	-0.774395	-0.000077
H89	H	-0.063062	-0.423878	-0.000019
H90	H	0.008309	-0.806413	-0.000005
C91	C	0.051142	-0.861757	0.547305
N92	N	0.103307	-0.797006	0.503807
C93	C	-0.493960	-1.299112	0.000032
N94	N	-0.538818	-1.369932	0.000043
H95	H	-0.298262	-1.295092	0.247179
H96	H	-0.667871	-1.357443	0.000014
C97	C	-0.325834	-0.411289	0.000034
N98	N	-0.362839	-0.380236	0.000036
C99	C	-0.091430	-1.038545	0.232208
N100	N	-0.039265	-0.973794	0.188710
C101	C	0.036237	-0.474466	-0.000027
N102	N	0.089227	-0.423963	-0.000029
H103	H	0.043323	-0.627810	-0.000035
C104	C	0.031902	-0.885608	0.389771
N105	N	0.084067	-0.820857	0.346272
C106	C	0.005225	-0.918764	0.767846
N107	N	0.039291	-0.876521	0.811354
C108	C	-0.213361	-1.189832	0.767821
N109	N	-0.265544	-1.254538	0.811322
H110	H	-0.775177	-1.355300	-0.000003
H111	H	-0.060670	-1.000466	0.309485
C112	C	-0.935021	-0.926833	-0.000024
N113	N	-0.939160	-0.855040	-0.000031
H114	H	-0.529560	-0.873104	-0.000048
H115	H	-0.244104	-1.227961	0.690530
C116	C	-0.336689	-1.342762	0.610258
N117	N	-0.388872	-1.407468	0.653759
H118	H	-1.022753	-1.263822	-0.000020
C119	C	-0.810802	-0.929304	-0.000027
N120	N	-0.765945	-0.858489	-0.000027
H121	H	-0.915427	-1.265973	-0.000008
H122	H	-0.389350	-0.962449	0.000041
H123	H	-0.282017	-0.964593	0.000034
H124	H	-0.188756	-0.848985	0.000025
H125	H	-0.241700	-0.804531	0.000013
H126	H	-0.322736	-0.736520	0.000048
