data_functionalizedCrystal
_audit_creation_method	'MofGen! by Chris Wilmer'
_symmetry_space_group_name_H-M	'P1'
_symmetry_Int_Tables_number	1
_symmetry_cell_setting	triclinic
loop_
_symmetry_equiv_pos_as_xyz
  x,y,z
_cell_length_a	21.395362
_cell_length_b	12.594517
_cell_length_c	21.395355
_cell_angle_alpha	89.970651
_cell_angle_beta	90.020549
_cell_angle_gamma	89.975272
loop_
_atom_site_label
_atom_site_type_symbol
_atom_site_fract_x
_atom_site_fract_y
_atom_site_fract_z
Zn1	Zn	-0.249596	-1.627202	0.354333
Zn2	Zn	-0.354356	-1.627040	0.249552
Zn3	Zn	-0.249587	-1.449195	0.249561
Zn4	Zn	-0.354330	-1.449146	0.354283
O5	O	-0.301967	-1.538146	0.301932
O6	O	-0.263507	-1.776127	0.340450
O7	O	-0.340465	-1.603401	0.161875
O8	O	-0.161910	-1.472897	0.263484
O9	O	-0.340473	-1.776007	0.263468
O10	O	-0.161917	-1.603678	0.340459
O11	O	-0.263491	-1.472739	0.161882
O12	O	-0.263467	-1.300243	0.263435
O13	O	-0.340430	-1.472813	0.441967
O14	O	-0.340421	-1.300207	0.340374
O15	O	-0.263482	-1.603630	0.442004
O16	O	-0.442030	-1.603353	0.263420
O17	O	-0.442011	-1.472655	0.340365
C18	C	-0.301941	-1.261605	0.301901
C19	C	-0.301944	-1.143299	0.301902
C20	C	-0.260028	-1.074035	0.260132
C21	C	-0.317173	-1.003199	0.244710
C22	C	-0.244818	-1.003336	0.317325
C23	C	-0.359119	-1.074022	0.286451
C24	C	-0.286725	-1.074165	0.359092
C25	C	-0.343909	-1.003361	0.343692
C26	C	-0.464755	-1.538010	0.301900
C27	C	-0.534396	-1.538049	0.301907
C28	C	-0.567056	-1.606107	0.342017
C29	C	-0.632491	-1.606145	0.342032
C30	C	-0.665264	-1.538135	0.301926
C31	C	-0.632597	-1.470063	0.261814
C32	C	-0.567162	-1.470020	0.261804
C33	C	-0.768964	-1.529850	0.245487
C34	C	-0.834397	-1.529900	0.245496
C35	C	-0.867085	-1.538261	0.301957
C36	C	-0.834332	-1.546594	0.358411
C37	C	-0.768898	-1.546551	0.358401
C38	C	-0.736217	-1.538173	0.301933
C39	C	-0.970697	-1.606364	0.342086
C40	C	-1.036134	-1.606394	0.342103
C41	C	-1.036238	-1.470318	0.261879
C42	C	-0.970803	-1.470282	0.261868
C43	C	-0.938036	-1.538311	0.301971
C44	C	-0.138544	-1.538311	0.301978
C45	C	-0.068902	-1.538382	0.301998
C46	C	-0.301954	-1.538234	0.465355
C47	C	-0.301949	-1.538272	0.534997
C48	C	-0.301981	-0.815767	0.301952
C49	C	-0.301955	-0.934072	0.301931
C50	C	-0.301934	-1.538119	0.139144
C51	C	-0.301763	-1.538288	0.069503
C52	C	-0.261880	-1.606385	0.567730
C53	C	-0.261853	-1.606384	0.633165
C54	C	-0.301906	-1.538280	0.665865
C55	C	-0.341978	-1.470153	0.633124
C56	C	-0.341999	-1.470149	0.567690
C57	C	-0.358321	-1.529829	0.769528
C58	C	-0.358301	-1.529840	0.834961
C59	C	-0.301840	-1.538287	0.867686
C60	C	-0.245398	-1.546744	0.834970
C61	C	-0.245419	-1.546740	0.769535
C62	C	-0.301887	-1.538277	0.736817
C63	C	-0.261739	-1.606402	0.971372
C64	C	-0.261711	-1.606394	1.036808
C65	C	-0.341841	-1.470168	1.036766
C66	C	-0.341863	-1.470172	0.971330
C67	C	-0.301813	-1.538294	0.938637
H68	H	-0.659088	-1.661557	0.374701
H69	H	-0.742232	-1.553333	0.404367
C70	C	-0.870422	-1.520619	0.183405
C71	C	-0.834471	-1.511313	0.121305
C72	C	-0.870494	-1.501975	0.059216
C73	C	-0.942469	-1.501942	0.059227
C74	C	-0.978425	-1.511248	0.121330
C75	C	-0.942401	-1.520586	0.183419
H76	H	-0.781187	-1.511337	0.121295
H77	H	-0.843877	-1.495086	0.013243
H78	H	-0.969136	-1.495030	0.013265
H79	H	-1.031709	-1.511224	0.121340
H80	H	-0.969018	-1.527475	0.229391
H81	H	-0.229268	-1.661855	0.541115
H82	H	-0.330054	-0.972030	0.196359
H83	H	-0.407449	-1.104942	0.273365
H84	H	-0.273826	-1.105360	0.407429
C85	C	-0.391853	-0.961696	0.391431
C86	C	-0.461517	-0.989858	0.384242
C87	C	-0.509462	-0.948193	0.431979
C88	C	-0.487742	-0.878364	0.486904
C89	C	-0.418074	-0.850198	0.494096
C90	C	-0.370130	-0.891863	0.446359
H91	H	-0.477598	-1.041553	0.343581
H92	H	-0.561035	-0.969044	0.426655
H93	H	-0.523234	-0.847521	0.522242
H94	H	-0.401993	-0.798503	0.534757
H95	H	-0.318557	-0.871012	0.451683
C96	C	-0.668644	-1.395254	0.217695
C97	C	-0.632715	-1.320388	0.173572
C98	C	-0.668762	-1.245573	0.129453
C99	C	-0.740737	-1.245623	0.129458
C100	C	-0.776669	-1.320491	0.173583
C101	C	-0.740623	-1.395307	0.217701
H102	H	-0.579431	-1.320349	0.173567
H103	H	-0.642162	-1.190151	0.096789
H104	H	-0.767420	-1.190240	0.096799
H105	H	-0.829953	-1.320531	0.173588
H106	H	-0.767223	-1.450729	0.250366
C107	C	-0.179548	-0.961388	0.334936
C108	C	-0.122628	-0.989295	0.294081
C109	C	-0.057357	-0.947351	0.311686
C110	C	-0.049006	-0.877500	0.370146
C111	C	-0.105928	-0.849589	0.411005
C112	C	-0.171199	-0.891534	0.393399
H113	H	-0.128808	-1.041006	0.250802
H114	H	-0.015220	-0.968012	0.281440
H115	H	-0.000689	-0.846450	0.383178
H116	H	-0.099748	-0.797878	0.454283
H117	H	-0.213336	-0.870872	0.423646
H118	H	-0.540379	-1.661498	0.374672
C119	C	-1.072282	-1.395501	0.217765
C120	C	-1.063340	-1.274491	0.222809
C121	C	-1.099388	-1.199667	0.178697
C122	C	-1.144378	-1.245852	0.129541
C123	C	-1.153322	-1.366868	0.124494
C124	C	-1.117274	-1.441692	0.168607
H125	H	-1.030034	-1.240297	0.259199
H126	H	-1.092767	-1.110083	0.182432
H127	H	-1.171063	-1.190463	0.096886
H128	H	-1.186628	-1.401062	0.088104
H129	H	-1.123895	-1.531276	0.164871
C130	C	-0.870279	-1.555904	0.420518
C131	C	-0.942254	-1.556026	0.420530
C132	C	-0.978204	-1.565395	0.482632
C133	C	-0.942179	-1.574643	0.544721
C134	C	-0.870200	-1.574521	0.544711
C135	C	-0.834250	-1.565152	0.482610
H136	H	-0.968925	-1.549180	0.374566
H137	H	-1.031488	-1.565485	0.482639
H138	H	-0.968791	-1.581578	0.590693
H139	H	-0.843529	-1.581367	0.590676
H140	H	-0.780966	-1.565062	0.482603
C141	C	-0.934649	-1.681187	0.386200
C142	C	-0.970577	-1.756046	0.430328
C143	C	-0.934531	-1.830871	0.474440
C144	C	-0.862556	-1.830838	0.474426
C145	C	-0.826623	-1.755977	0.430297
C146	C	-0.862670	-1.681152	0.386184
H147	H	-1.023861	-1.756073	0.430340
H148	H	-0.961131	-1.886288	0.507108
H149	H	-0.835872	-1.886229	0.507081
H150	H	-0.773339	-1.755950	0.430284
H151	H	-0.836069	-1.625735	0.353517
C152	C	-0.531233	-1.395157	0.217677
C153	C	-0.540264	-1.403908	0.146456
C154	C	-0.504333	-1.329046	0.102327
C155	C	-0.459372	-1.245433	0.129419
C156	C	-0.450340	-1.236677	0.200643
C157	C	-0.486270	-1.311539	0.244772
H158	H	-0.573548	-1.465807	0.126398
H159	H	-0.511020	-1.335528	0.049602
H160	H	-0.432775	-1.190015	0.096752
H161	H	-0.417056	-1.174778	0.220701
H162	H	-0.479584	-1.305058	0.297497
H163	H	-1.062724	-1.661815	0.374768
C164	C	-0.217781	-1.681322	0.669182
C165	C	-0.173730	-1.756255	0.633221
C166	C	-0.129660	-1.831196	0.669236
C167	C	-0.129640	-1.831204	0.741211
C168	C	-0.173693	-1.756268	0.777176
C169	C	-0.217763	-1.681327	0.741161
H170	H	-0.173743	-1.756252	0.579938
H171	H	-0.097049	-1.886669	0.642612
H172	H	-0.097017	-1.886679	0.767871
H173	H	-0.173680	-1.756271	0.830459
H174	H	-0.250374	-1.625854	0.767785
H175	H	-0.199462	-1.553623	0.742900
H176	H	-0.944209	-1.414867	0.229204
H177	H	-0.224620	-1.105067	0.224768
C178	C	-0.420385	-1.520538	0.870946
C179	C	-0.420365	-1.520549	0.942921
C180	C	-0.482450	-1.511247	0.978904
C181	C	-0.544555	-1.501934	0.942912
C182	C	-0.544577	-1.501923	0.870933
C183	C	-0.482492	-1.511225	0.834950
H184	H	-0.374389	-1.527444	0.969568
H185	H	-0.482434	-1.511255	1.032188
H186	H	-0.590515	-1.495048	0.969548
H187	H	-0.590553	-1.495028	0.844285
H188	H	-0.482508	-1.511217	0.781666
C189	C	-0.217681	-1.681322	0.935402
C190	C	-0.146449	-1.672703	0.944393
C191	C	-0.102390	-1.747622	0.908425
C192	C	-0.129563	-1.831160	0.863467
C193	C	-0.200799	-1.839783	0.854474
C194	C	-0.244857	-1.764864	0.890442
H195	H	-0.126331	-1.610860	0.977676
H196	H	-0.049657	-1.741238	0.915083
H197	H	-0.096949	-1.886619	0.836841
H198	H	-0.220917	-1.901626	0.821191
H199	H	-0.297590	-1.771248	0.883784
C200	C	-0.217630	-1.681320	1.072818
C201	C	-0.173579	-1.756247	1.036853
C202	C	-0.129497	-1.831173	1.072863
C203	C	-0.129466	-1.831172	1.144838
C204	C	-0.173518	-1.756243	1.180807
C205	C	-0.217600	-1.681316	1.144797
H206	H	-0.173601	-1.756250	0.983569
H207	H	-0.096886	-1.886641	1.046236
H208	H	-0.096833	-1.886637	1.171495
H209	H	-0.173496	-1.756240	1.234091
H210	H	-0.250211	-1.625848	1.171424
H211	H	-0.742355	-1.523037	0.199507
H212	H	-0.199422	-1.553624	0.861613
C213	C	-0.385946	-1.395255	0.935319
C214	C	-0.430005	-1.320340	0.971284
C215	C	-0.474088	-1.245417	0.935273
C216	C	-0.474114	-1.245409	0.863298
C217	C	-0.430054	-1.320327	0.827329
C218	C	-0.385970	-1.395250	0.863340
H219	H	-0.429987	-1.320343	1.024567
H220	H	-0.506705	-1.189958	0.961899
H221	H	-0.506747	-1.189947	0.836640
H222	H	-0.430071	-1.320324	0.774046
H223	H	-0.353354	-1.450709	0.836714
C224	C	-0.386039	-1.395245	0.669092
C225	C	-0.457270	-1.403860	0.660093
C226	C	-0.501331	-1.328947	0.696061
C227	C	-0.474163	-1.245420	0.741029
C228	C	-0.402928	-1.236801	0.750031
C229	C	-0.358867	-1.311714	0.714062
H230	H	-0.477385	-1.465695	0.626803
H231	H	-0.554064	-1.335328	0.689397
H232	H	-0.506780	-1.189965	0.767655
H233	H	-0.382813	-1.174966	0.783321
H234	H	-0.306134	-1.305333	0.720726
C235	C	-0.386080	-1.395222	0.531681
C236	C	-0.380952	-1.274228	0.540643
C237	C	-0.425035	-1.199302	0.504634
C238	C	-0.474246	-1.245370	0.459663
C239	C	-0.479377	-1.366370	0.450699
C240	C	-0.435294	-1.441296	0.486708
H241	H	-0.344520	-1.240121	0.573935
H242	H	-0.421236	-1.109729	0.511270
H243	H	-0.506879	-1.189905	0.433006
H244	H	-0.515809	-1.400478	0.417407
H245	H	-0.439093	-1.530869	0.480072
H246	H	-0.374446	-1.414706	1.063389
H247	H	-0.404286	-1.522666	0.742889
