data_functionalizedCrystal
_audit_creation_method	'MofGen! by Chris Wilmer'
_symmetry_space_group_name_H-M	'P1'
_symmetry_Int_Tables_number	1
_symmetry_cell_setting	triclinic
loop_
_symmetry_equiv_pos_as_xyz
  x,y,z
_cell_length_a	21.295417
_cell_length_b	12.827893
_cell_length_c	12.827885
_cell_angle_alpha	89.980538
_cell_angle_beta	89.961900
_cell_angle_gamma	90.030667
loop_
_atom_site_label
_atom_site_type_symbol
_atom_site_fract_x
_atom_site_fract_y
_atom_site_fract_z
Zn1	Zn	-0.250576	1.597562	-0.590788
Zn2	Zn	-0.355858	1.597409	-0.416023
Zn3	Zn	-0.250607	1.422803	-0.416062
Zn4	Zn	-0.355812	1.422742	-0.590723
O5	O	-0.303213	1.510129	-0.503399
O6	O	-0.264548	1.743778	-0.567616
O7	O	-0.341929	1.574209	-0.269792
O8	O	-0.162514	1.446074	-0.439283
O9	O	-0.341899	1.743665	-0.439217
O10	O	-0.162491	1.574469	-0.567654
O11	O	-0.264601	1.445926	-0.269821
O12	O	-0.264556	1.276559	-0.439220
O13	O	-0.341819	1.445971	-0.736968
O14	O	-0.341850	1.276514	-0.567543
O15	O	-0.264503	1.574410	-0.737016
O16	O	-0.443941	1.574150	-0.439154
O17	O	-0.443907	1.445823	-0.567505
C18	C	-0.303202	1.238619	-0.503379
C19	C	-0.303212	1.122466	-0.503396
C20	C	-0.265004	1.070737	-0.567030
C21	C	-0.265014	0.950686	-0.567049
C22	C	-0.466765	1.509992	-0.503341
C23	C	-0.536733	1.510029	-0.503351
C24	C	-0.569596	1.576908	-0.436587
C25	C	-0.635339	1.576957	-0.436611
C26	C	-0.668215	1.510108	-0.503387
C27	C	-0.635344	1.443224	-0.570165
C28	C	-0.569603	1.443185	-0.570147
N29	N	-0.771481	1.418692	-0.511347
N30	N	-0.833932	1.418732	-0.511358
C31	C	-0.866290	1.510225	-0.503447
N32	N	-0.833837	1.601678	-0.495505
N33	N	-0.771380	1.601636	-0.495488
C34	C	-0.739501	1.510144	-0.503415
C35	C	-0.970439	1.577163	-0.436705
C36	C	-1.036183	1.577214	-0.436736
C37	C	-1.036187	1.443472	-0.570284
C38	C	-0.970444	1.443431	-0.570259
C39	C	-0.937574	1.510275	-0.503464
C40	C	-0.139023	1.510295	-0.503480
C41	C	-0.069055	1.510366	-0.503515
C42	C	-0.303153	1.510201	-0.775969
C43	C	-0.303127	1.510232	-0.892123
C44	C	-0.303225	1.782699	-0.503420
C45	C	-0.303230	1.898852	-0.503428
C46	C	-0.264855	1.446774	-0.943922
C47	C	-0.264828	1.446804	-1.063972
C48	C	-0.303228	1.510117	-0.231889
C49	C	-0.303076	1.510289	-0.115737
H50	H	-0.662102	1.631422	-0.382244
O51	O	-0.342104	1.575258	-1.062657
C52	C	-0.372689	1.752941	-1.029110
C53	C	-0.328441	1.679486	-1.089277
H54	H	-0.361668	1.837224	-1.050626
H55	H	-0.365745	1.741460	-0.941744
H56	H	-0.423449	1.734505	-1.050471
H57	H	-0.277665	1.697877	-1.068003
H58	H	-0.335440	1.690980	-1.176628
O59	O	-0.342290	0.952023	-0.438573
C60	C	-0.427218	1.075268	-0.424353
C61	C	-0.383014	1.015125	-0.497917
H62	H	-0.460164	1.126283	-0.472304
H63	H	-0.398282	1.126433	-0.369856
H64	H	-0.455964	1.017543	-0.376432
H65	H	-0.354259	1.072774	-0.545906
H66	H	-0.411986	0.963944	-0.552345
H67	H	-1.062954	1.389047	-0.624660
H68	H	-0.232113	1.392418	-0.899392
O69	O	-0.938475	1.641950	-0.371722
C70	C	-0.864286	1.656039	-0.230667
C71	C	-0.900455	1.582551	-0.304176
H72	H	-0.833528	1.608046	-0.176052
H73	H	-0.899040	1.703841	-0.182879
H74	H	-0.833479	1.710652	-0.278708
H75	H	-0.931263	1.527875	-0.256215
H76	H	-0.865667	1.534822	-0.351967
O77	O	-0.342283	1.574965	-0.945192
C78	C	-0.449333	1.625611	-0.978703
C79	C	-0.405061	1.552216	-0.918559
H80	H	-0.500098	1.607259	-0.957176
H81	H	-0.442404	1.614076	-1.066072
H82	H	-0.438265	1.709893	-0.957331
H83	H	-0.416102	1.467906	-0.939843
H84	H	-0.411998	1.563842	-0.831205
H85	H	-0.232059	1.392480	-1.108518
O86	O	-0.226061	1.123970	-0.632123
C87	C	-0.217752	1.247457	-0.773061
C88	C	-0.261928	1.187219	-0.699423
H89	H	-0.246732	1.298625	-0.827476
H90	H	-0.188996	1.189888	-0.821055
H91	H	-0.184814	1.298509	-0.725107
H92	H	-0.294904	1.136166	-0.747296
H93	H	-0.290639	1.244845	-0.651425
H94	H	-0.662116	1.388797	-0.624536
H95	H	-1.062939	1.631682	-0.382371
O96	O	-0.226009	0.897462	-0.631950
C97	C	-0.190501	0.729278	-0.691221
C98	C	-0.234697	0.789426	-0.617647
H99	H	-0.197520	0.641920	-0.679699
H100	H	-0.139702	0.750621	-0.673041
H101	H	-0.201596	0.750775	-0.775455
H102	H	-0.223659	0.767960	-0.533389
H103	H	-0.285483	0.768078	-0.635918
H104	H	-0.335928	1.077877	-0.448927
O105	O	-0.938587	1.378503	-0.635250
C106	C	-0.918381	1.327699	-0.812958
C107	C	-0.954508	1.401280	-0.739467
H108	H	-0.931230	1.346102	-0.897234
H109	H	-0.931376	1.243438	-0.794618
H110	H	-0.865750	1.339133	-0.801421
H111	H	-1.007147	1.389939	-0.750963
H112	H	-0.941462	1.485514	-0.757825
O113	O	-0.537765	1.641948	-0.371682
C114	C	-0.544703	1.774563	-0.239186
C115	C	-0.580831	1.700973	-0.312650
H116	H	-0.579506	1.822289	-0.191423
H117	H	-0.513891	1.829232	-0.287157
H118	H	-0.513957	1.726585	-0.184537
H119	H	-0.611610	1.748866	-0.367313
H120	H	-0.611603	1.646301	-0.264613
H121	H	-0.542845	1.388723	-0.624515
