data_functionalizedCrystal
_audit_creation_method	'MofGen! by Chris Wilmer'
_symmetry_space_group_name_H-M	'P1'
_symmetry_Int_Tables_number	1
_symmetry_cell_setting	triclinic
loop_
_symmetry_equiv_pos_as_xyz
  x,y,z
_cell_length_a	16.120490
_cell_length_b	16.120444
_cell_length_c	12.759393
_cell_angle_alpha	92.864729
_cell_angle_beta	87.082653
_cell_angle_gamma	90.165174
loop_
_atom_site_label
_atom_site_type_symbol
_atom_site_fract_x
_atom_site_fract_y
_atom_site_fract_z
Zn1	Zn	1.254487	-0.395628	-0.699338
Zn2	Zn	1.587820	-0.062295	-0.366005
Zn3	Zn	1.921153	0.271038	-0.032672
Zn4	Zn	1.247323	-0.534700	-0.532073
Zn5	Zn	1.580656	-0.201366	-0.198739
Zn6	Zn	1.913990	0.131967	0.134594
Zn7	Zn	1.115421	-0.388601	-0.514348
Zn8	Zn	1.448755	-0.055267	-0.181015
Zn9	Zn	1.782088	0.278066	0.152319
Zn10	Zn	1.108336	-0.527574	-0.698383
Zn11	Zn	1.441670	-0.194240	-0.365050
Zn12	Zn	1.775003	0.139093	-0.031716
O13	O	1.181392	-0.461626	-0.611035
O14	O	1.514725	-0.128292	-0.277702
O15	O	1.848059	0.205041	0.055631
O16	O	1.369902	-0.420000	-0.684968
O17	O	1.703236	-0.086666	-0.351635
O18	O	2.036569	0.246667	-0.018301
O19	O	1.229793	-0.515361	-0.382701
O20	O	1.563126	-0.182027	-0.049367
O21	O	1.896460	0.151306	0.283966
O22	O	1.139832	-0.273170	-0.531869
O23	O	1.473165	0.060163	-0.198536
O24	O	1.806499	0.393497	0.134797
O25	O	1.364639	-0.522175	-0.562078
O26	O	1.697972	-0.188842	-0.228745
O27	O	2.031306	0.144492	0.104588
O28	O	1.242003	-0.278333	-0.667781
O29	O	1.575336	0.055000	-0.334448
O30	O	1.908669	0.388333	-0.001114
O31	O	1.132885	-0.408022	-0.369679
O32	O	1.466219	-0.074689	-0.036345
O33	O	1.799552	0.258645	0.296988
O34	O	0.998116	-0.401112	-0.530943
O35	O	1.331449	-0.067779	-0.197610
O36	O	1.664782	0.265554	0.135724
O37	O	1.127757	-0.510030	-0.845530
O38	O	1.461090	-0.176696	-0.512197
O39	O	1.794423	0.156637	-0.178864
O40	O	0.992910	-0.503215	-0.666153
O41	O	1.326244	-0.169882	-0.332819
O42	O	1.659577	0.163451	0.000514
O43	O	1.235133	-0.413090	-0.846232
O44	O	1.568466	-0.079757	-0.512899
O45	O	1.901799	0.253577	-0.179566
O46	O	1.222923	-0.650117	-0.561152
O47	O	1.556256	-0.316784	-0.227819
O48	O	1.889590	0.016549	0.105515
O49	O	1.120810	-0.644882	-0.683340
O50	O	1.454143	-0.311548	-0.350006
O51	O	1.787477	0.021785	-0.016673
C52	C	0.965341	-0.450629	-0.596521
C53	C	1.298674	-0.117295	-0.263188
C54	C	1.632007	0.216038	0.070145
C55	C	0.872912	-0.445944	-0.590338
C56	C	1.206245	-0.112611	-0.257005
C57	C	1.539579	0.220723	0.076328
C58	C	1.170343	-0.677672	-0.624090
C59	C	1.503676	-0.344339	-0.290757
C60	C	1.837010	-0.011006	0.042577
C61	C	1.165692	-0.770102	-0.629715
C62	C	1.499026	-0.436768	-0.296382
C63	C	1.832359	-0.103435	0.036952
C64	C	0.659943	-0.485919	-0.643109
C65	C	0.993276	-0.152585	-0.309776
C66	C	1.326610	0.180748	0.023557
C67	C	0.703689	-0.437399	-0.579049
C68	C	1.037022	-0.104066	-0.245715
C69	C	1.370355	0.229268	0.087618
C70	C	0.797853	-0.442155	-0.585332
C71	C	1.131187	-0.108822	-0.251999
C72	C	1.464520	0.224512	0.081335
C73	C	0.565770	-0.481164	-0.636827
C74	C	0.899103	-0.147830	-0.303494
C75	C	1.232436	0.185503	0.029839
C76	C	1.205721	-0.983081	-0.582095
C77	C	1.539055	-0.649747	-0.248762
C78	C	1.872388	-0.316414	0.084572
C79	C	1.157217	-0.939327	-0.639997
C80	C	1.490550	-0.605994	-0.306664
C81	C	1.823883	-0.272661	0.026670
C82	C	1.161934	-0.845161	-0.634274
C83	C	1.495267	-0.511828	-0.300941
C84	C	1.828600	-0.178495	0.032392
C85	C	1.201005	-1.077255	-0.587816
C86	C	1.534338	-0.743922	-0.254483
C87	C	1.867672	-0.410588	0.078850
C88	C	1.398287	-0.472666	-0.625607
C89	C	1.731620	-0.139333	-0.292274
C90	C	2.064953	0.194000	0.041060
C91	C	1.490714	-0.477371	-0.631816
C92	C	1.824048	-0.144038	-0.298483
C93	C	2.157381	0.189296	0.034850
C94	C	1.181453	-0.461549	-0.885068
C95	C	1.514787	-0.128216	-0.551735
C96	C	1.848120	0.205118	-0.218401
C97	C	1.181480	-0.461516	-1.001844
C98	C	1.514813	-0.128183	-0.668511
C99	C	1.848146	0.205151	-0.335178
C100	C	1.192507	-0.244737	-0.597954
C101	C	1.525840	0.088597	-0.264621
C102	C	1.859173	0.421930	0.068712
C103	C	1.197243	-0.152311	-0.592380
C104	C	1.530576	0.181022	-0.259047
C105	C	1.863910	0.514355	0.074287
C106	C	1.231943	-0.517387	-1.063483
C107	C	1.565276	-0.184054	-0.730150
C108	C	1.898610	0.149280	-0.396817
C109	C	1.231970	-0.517353	-1.173207
C110	C	1.565303	-0.184020	-0.839874
C111	C	1.898637	0.149314	-0.506540
C112	C	1.131063	-0.405574	-1.159642
C113	C	1.464396	-0.072241	-0.826309
C114	C	1.797730	0.261093	-0.492976
C115	C	1.131041	-0.405605	-1.049921
C116	C	1.464374	-0.072272	-0.716587
C117	C	1.797708	0.261062	-0.383254
C118	C	1.290198	-0.581924	-1.071316
C119	C	1.623532	-0.248591	-0.737982
C120	C	1.956865	0.084742	-0.404649
C121	C	1.290225	-0.581890	-1.181039
C122	C	1.623558	-0.248557	-0.847706
C123	C	1.956892	0.084777	-0.514373
C124	C	1.181382	-0.461644	-0.338069
C125	C	1.514715	-0.128311	-0.004735
C126	C	1.848048	0.205022	0.328598
C127	C	1.181528	-0.461451	-0.221290
C128	C	1.514862	-0.128118	0.112044
C129	C	1.848195	0.205216	0.445377
H130	H	0.670420	-0.392288	-0.519486
H131	H	1.003754	-0.058955	-0.186152
H132	H	1.337087	0.274379	0.147181
H133	H	0.693209	-0.531027	-0.702667
H134	H	1.026543	-0.197693	-0.369334
H135	H	1.359876	0.135640	-0.036000
H136	H	1.112147	-0.972589	-0.693866
H137	H	1.445481	-0.639256	-0.360533
H138	H	1.778814	-0.305923	-0.027200
N139	N	1.262257	-0.941348	-0.514529
N140	N	1.595590	-0.608015	-0.181196
N141	N	1.928923	-0.274682	0.152137
N142	N	1.266053	-0.863803	-0.509924
N143	N	1.599386	-0.530470	-0.176591
N144	N	1.932720	-0.197136	0.156742
H145	H	1.305980	-0.834320	-0.462206
H146	H	1.639313	-0.500986	-0.128873
H147	H	1.972646	-0.167653	0.204461
H148	H	1.089956	-0.360103	-0.999738
H149	H	1.423289	-0.026770	-0.666404
H150	H	1.756623	0.306564	-0.333071
H151	H	1.269679	-0.645405	-1.213543
H152	H	1.603012	-0.312072	-0.880210
H153	H	1.936345	0.021262	-0.546877
H154	H	1.089998	-0.360053	-1.198800
H155	H	1.423332	-0.026719	-0.865466
H156	H	1.756665	0.306614	-0.532133
N157	N	1.372096	-0.564417	-1.038096
N158	N	1.705429	-0.231084	-0.704763
N159	N	2.038762	0.102250	-0.371429
N160	N	1.429814	-0.552050	-1.104670
N161	N	1.763147	-0.218717	-0.771337
N162	N	2.096481	0.114616	-0.438004
H163	H	1.487653	-0.539686	-1.081210
H164	H	1.820987	-0.206353	-0.747877
H165	H	2.154320	0.126981	-0.414543
H166	H	1.263994	-0.641938	-1.039423
H167	H	1.597328	-0.308604	-0.706090
H168	H	1.930661	0.024729	-0.372756
H169	H	1.352596	-0.561932	-1.217790
H170	H	1.685930	-0.228598	-0.884457
H171	H	2.019263	0.104735	-0.551124
