data_functionalizedCrystal
_audit_creation_method	'MofGen! by Chris Wilmer'
_symmetry_space_group_name_H-M	'P1'
_symmetry_Int_Tables_number	1
_symmetry_cell_setting	triclinic
loop_
_symmetry_equiv_pos_as_xyz
  x,y,z
_cell_length_a	12.759401
_cell_length_b	19.121449
_cell_length_c	12.759393
_cell_angle_alpha	87.524975
_cell_angle_beta	89.981298
_cell_angle_gamma	87.584348
loop_
_atom_site_label
_atom_site_type_symbol
_atom_site_fract_x
_atom_site_fract_y
_atom_site_fract_z
Zn1	Zn	1.624010	-0.279586	-0.576131
Zn2	Zn	1.631364	-0.397054	-0.392949
Zn3	Zn	1.448314	-0.279621	-0.400468
Zn4	Zn	1.455756	-0.396998	-0.568593
O5	O	1.539861	-0.338315	-0.484535
O6	O	1.772007	-0.295178	-0.551840
O7	O	1.607045	-0.381515	-0.246922
O8	O	1.465428	-0.181333	-0.430071
O9	O	1.777410	-0.381481	-0.417256
O10	O	1.594511	-0.181307	-0.559130
O11	O	1.472559	-0.295237	-0.252447
O12	O	1.302280	-0.295182	-0.422762
O13	O	1.478112	-0.381385	-0.716616
O14	O	1.307748	-0.381419	-0.546283
O15	O	1.601727	-0.295123	-0.722155
O16	O	1.614261	-0.495330	-0.409947
O17	O	1.485243	-0.495289	-0.538992
C18	C	1.266893	-0.338299	-0.484521
C19	C	1.150117	-0.338308	-0.484538
C20	C	0.982711	-0.293468	-0.554721
C21	C	1.092434	-0.293454	-0.554715
C22	C	1.098071	-0.383185	-0.414371
C23	C	0.988350	-0.383202	-0.414383
C24	C	1.551387	-0.520794	-0.472858
C25	C	1.556413	-0.598859	-0.467898
C26	C	1.491556	-0.635538	-0.532699
C27	C	1.496284	-0.708888	-0.528034
C28	C	1.565875	-0.745558	-0.458573
C29	C	1.630735	-0.708874	-0.393765
C30	C	1.626001	-0.635525	-0.398425
C31	C	1.583526	-0.967025	-0.441138
C32	C	1.588257	-1.040379	-0.436485
C33	C	1.453805	-1.040389	-0.570753
C34	C	1.449082	-0.967038	-0.575412
C35	C	1.513937	-0.930360	-0.510600
C36	C	1.570712	-0.820534	-0.453805
C37	C	1.509095	-0.855386	-0.515363
C38	C	1.813895	-0.338332	-0.484550
C39	C	1.930672	-0.338339	-0.484556
C40	C	1.539930	-0.338244	-0.758573
C41	C	1.539959	-0.338214	-0.875352
C42	C	1.528319	-0.155124	-0.496280
C43	C	1.523400	-0.077059	-0.501286
C44	C	1.469956	-0.293281	-0.933090
C45	C	1.469979	-0.293259	-1.042816
C46	C	1.610018	-0.383105	-1.037054
C47	C	1.609989	-0.383130	-0.927331
C48	C	1.539850	-0.338335	-0.211566
C49	C	1.540011	-0.338167	-0.094801
H50	H	0.945979	-0.419745	-0.357246
O51	O	1.143150	-0.249931	-0.622832
C52	C	1.309679	-0.210108	-0.684978
C53	C	1.252378	-0.259446	-0.607791
H54	H	1.397998	-0.217773	-0.672830
H55	H	1.289004	-0.222510	-0.768896
H56	H	1.284441	-0.153472	-0.670302
H57	H	1.277584	-0.316098	-0.622372
H58	H	1.273054	-0.246983	-0.523900
H59	H	1.667034	-0.419674	-1.079389
H60	H	1.412933	-0.256707	-0.890772
O61	O	1.698470	-0.744421	-0.326345
C62	C	1.878652	-0.766826	-0.274110
C63	C	1.802057	-0.726512	-0.350515
H64	H	1.962420	-0.752373	-0.293638
H65	H	1.859404	-0.752450	-0.190274
H66	H	1.870834	-0.825547	-0.281901
H67	H	1.809833	-0.667782	-0.342818
H68	H	1.821327	-0.740947	-0.434320
H69	H	1.412975	-0.256671	-1.089822
H70	H	1.678813	-0.605661	-0.345656
O71	O	1.646381	-0.931374	-0.378077
C72	C	1.655267	-0.848606	-0.241528
C73	C	1.583957	-0.888951	-0.312868
H74	H	1.604827	-0.814287	-0.188805
H75	H	1.705797	-0.887388	-0.191016
H76	H	1.707982	-0.814237	-0.292012
H77	H	1.531178	-0.923322	-0.262465
H78	H	1.533498	-0.850131	-0.363387
H79	H	1.145045	-0.419709	-0.357236
O80	O	0.926522	-0.249918	-0.622791
C81	C	0.754997	-0.210207	-0.685060
C82	C	0.818497	-0.259550	-0.607893
H83	H	0.667648	-0.217988	-0.673057
H84	H	0.772887	-0.153541	-0.670377
H85	H	0.777460	-0.222600	-0.768938
H86	H	0.796071	-0.247221	-0.523987
H87	H	0.800601	-0.316202	-0.622668
O88	O	1.678095	-0.426803	-0.871397
C89	C	1.816953	-0.515948	-0.877251
C90	C	1.739905	-0.466513	-0.940724
H91	H	1.866931	-0.548077	-0.933273
H92	H	1.869915	-0.483752	-0.827977
H93	H	1.770991	-0.552648	-0.823496
H94	H	1.785781	-0.429803	-0.994536
H95	H	1.686942	-0.498752	-0.989928
H96	H	1.443461	-0.738749	-0.580792
O97	O	1.423867	-0.600028	-0.600206
C98	C	1.291059	-0.607788	-0.732938
C99	C	1.367653	-0.648086	-0.656516
H100	H	1.245604	-0.646625	-0.778500
H101	H	1.233865	-0.573524	-0.686888
H102	H	1.337064	-0.573372	-0.790057
H103	H	1.321734	-0.682540	-0.599380
H104	H	1.424846	-0.682306	-0.702634
H105	H	1.401002	-1.070260	-0.623518
O106	O	1.381375	-0.931528	-0.642900
C107	C	1.248534	-0.939280	-0.775602
C108	C	1.325150	-0.979583	-0.699206
H109	H	1.203072	-0.978115	-0.821162
H110	H	1.191350	-0.905023	-0.729531
H111	H	1.294523	-0.904857	-0.832725
H112	H	1.279249	-1.014043	-0.642066
H113	H	1.382335	-1.013795	-0.745345
H114	H	1.452430	-0.825527	-0.571915
O115	O	1.655886	-1.075893	-0.368911
C116	C	1.788784	-1.068148	-0.236265
C117	C	1.712230	-1.027842	-0.312718
H118	H	1.834374	-1.029316	-0.190828
H119	H	1.742844	-1.102531	-0.179041
H120	H	1.845864	-1.102446	-0.282388
H121	H	1.655133	-0.993506	-0.266682
H122	H	1.758238	-0.993503	-0.369942
H123	H	1.627374	-0.850399	-0.397250
