data_functionalizedCrystal
_audit_creation_method	'MofGen! by Chris Wilmer'
_symmetry_space_group_name_H-M	'P1'
_symmetry_Int_Tables_number	1
_symmetry_cell_setting	triclinic
loop_
_symmetry_equiv_pos_as_xyz
  x,y,z
_cell_length_a	10.723024
_cell_length_b	14.519709
_cell_length_c	9.198806
_cell_angle_alpha	89.995869
_cell_angle_beta	89.996352
_cell_angle_gamma	84.074007
loop_
_atom_site_label
_atom_site_type_symbol
_atom_site_fract_x
_atom_site_fract_y
_atom_site_fract_z
O1	O	1.655978	0.129347	-0.120886
O2	O	1.292710	0.141728	-0.120892
O3	O	1.483976	0.001349	-0.120876
O4	O	1.464713	0.269727	-0.120902
O5	O	1.483960	0.001348	0.120909
O6	O	1.292695	0.141728	0.120893
O7	O	1.655963	0.129347	0.120899
Cu8	Cu	1.474328	0.135538	0.142973
Cu9	Cu	1.474345	0.135538	-0.142966
O10	O	1.464697	0.269727	0.120883
C11	C	1.246211	0.140827	0.000000
C12	C	1.107682	0.138132	-0.000001
C13	C	1.483070	-0.033016	0.000017
C14	C	1.480380	-0.135411	0.000018
C15	C	1.031965	0.216681	-0.000010
C16	C	0.888788	0.213896	-0.000012
C17	C	1.470476	-0.510357	-0.000020
C18	C	1.473227	-0.406035	-0.000009
C19	C	1.475428	-0.322887	0.000000
C20	C	1.478179	-0.218559	0.000008
C21	C	1.702462	0.130248	0.000003
C22	C	1.840991	0.132944	-0.000005
C23	C	1.465603	0.304091	-0.000013
C24	C	1.468293	0.406486	-0.000024
N25	N	1.474324	0.135537	0.344087
N26	N	1.474359	0.135532	-0.344080
C27	C	1.554633	0.076335	0.416290
C28	C	1.554653	0.076332	0.583703
H29	H	0.823726	0.281141	-0.000025
H30	H	1.405604	0.186222	0.593837
H31	H	1.623414	0.025651	0.645795
C32	C	0.927873	0.043343	-0.000223
C33	C	1.003479	0.039975	-0.124598
C34	C	1.083551	-0.042545	-0.124839
H35	H	0.879469	-0.007882	-0.000293
H36	H	0.979326	0.040884	0.084049
H37	H	0.952032	0.042425	-0.208848
H38	H	1.051910	0.091180	-0.124554
H39	H	1.135004	-0.045004	-0.040567
H40	H	1.035137	-0.093763	-0.124905
H41	H	1.134867	-0.044837	-0.209219
H42	H	1.073139	0.285991	-0.000009
C43	C	1.382597	0.202971	0.427093
C44	C	1.306001	0.153444	0.514524
C45	C	1.221495	0.215536	0.591021
H46	H	1.332087	0.240141	0.360253
H47	H	1.427748	0.241510	0.486544
H48	H	1.260853	0.114922	0.455079
H49	H	1.356476	0.116278	0.581391
H50	H	1.266646	0.254074	0.650471
H51	H	1.170994	0.252702	0.524170
H52	H	1.169523	0.181941	0.650361
H53	H	1.066508	0.068822	-0.000032
C54	C	1.646155	0.008624	0.333510
C55	C	1.625420	-0.082108	0.370370
C56	C	1.709697	-0.144500	0.294115
H57	H	1.729594	0.018894	0.358287
H58	H	1.633931	0.017568	0.231991
H59	H	1.637654	-0.091048	0.471866
H60	H	1.541998	-0.092408	0.345590
H61	H	1.697474	-0.135557	0.192596
H62	H	1.793131	-0.134221	0.318897
H63	H	1.695633	-0.206069	0.319103
