data_functionalizedCrystal
_audit_creation_method	'MofGen! by Chris Wilmer'
_symmetry_space_group_name_H-M	'P1'
_symmetry_Int_Tables_number	1
_symmetry_cell_setting	triclinic
loop_
_symmetry_equiv_pos_as_xyz
  x,y,z
_cell_length_a	6.394984
_cell_length_b	10.723023
_cell_length_c	9.198806
_cell_angle_alpha	89.996191
_cell_angle_beta	89.998362
_cell_angle_gamma	85.481450
loop_
_atom_site_label
_atom_site_type_symbol
_atom_site_fract_x
_atom_site_fract_y
_atom_site_fract_z
O1	O	0.293015	1.660294	-0.120883
O2	O	0.321064	1.297439	-0.120887
O3	O	0.003048	1.484021	-0.120881
O4	O	0.611031	1.473713	-0.120889
O5	O	0.003047	1.484006	0.120904
O6	O	0.321063	1.297424	0.120898
O7	O	0.293014	1.660279	0.120902
Cu8	Cu	0.307039	1.478850	0.142977
Cu9	Cu	0.307040	1.478868	-0.142962
O10	O	0.611030	1.473698	0.120896
C11	C	0.319023	1.250910	0.000005
C12	C	0.312917	1.112291	0.000004
C13	C	0.310195	1.050499	-0.125248
C14	C	0.303884	0.907229	-0.125253
C15	C	0.925200	1.481963	0.000016
C16	C	0.688873	1.475752	0.000013
C17	C	0.295055	1.706808	0.000006
C18	C	0.301161	1.845427	-0.000002
N19	N	0.307037	1.478847	0.344091
N20	N	0.307025	1.478881	-0.344076
C21	C	0.172922	1.557181	0.416290
C22	C	0.172915	1.557200	0.583703
H23	H	0.303492	0.898560	0.107237
C24	C	0.017790	1.647805	0.667579
N25	N	-0.099057	1.716049	0.730758
H26	H	0.058098	1.624228	0.354166
H27	H	0.421860	1.411817	0.593845
C28	C	0.462145	1.388257	0.428015
N29	N	0.578977	1.320022	0.491225
H30	H	0.301538	0.854089	-0.232486
C31	C	0.309754	1.040475	0.144873
N32	N	0.307368	0.986385	0.253992
C33	C	0.313355	1.122315	-0.270117
N34	N	0.315729	1.176406	-0.379236
