data_functionalizedCrystal
_audit_creation_method	'MofGen! by Chris Wilmer'
_symmetry_space_group_name_H-M	'P1'
_symmetry_Int_Tables_number	1
_symmetry_cell_setting	triclinic
loop_
_symmetry_equiv_pos_as_xyz
  x,y,z
_cell_length_a	15.995350
_cell_length_b	15.995292
_cell_length_c	16.176319
_cell_angle_alpha	89.996390
_cell_angle_beta	89.996232
_cell_angle_gamma	83.480495
loop_
_atom_site_label
_atom_site_type_symbol
_atom_site_fract_x
_atom_site_fract_y
_atom_site_fract_z
O1	O	1.110966	0.107932	-0.068671
O2	O	1.610966	0.607932	0.431329
O3	O	0.867188	0.121260	-0.068687
O4	O	1.367188	0.621260	0.431313
O5	O	0.995766	-0.007295	-0.068680
O6	O	1.495766	0.492705	0.431320
O7	O	0.982388	0.236487	-0.068678
O8	O	1.482388	0.736487	0.431322
O9	O	0.995749	-0.007304	0.068814
O10	O	1.495749	0.492696	0.568814
O11	O	0.867171	0.121251	0.068806
O12	O	1.367171	0.621251	0.568806
O13	O	1.110949	0.107923	0.068823
O14	O	1.610949	0.607923	0.568823
Cu15	Cu	0.989058	0.114587	0.081369
Cu16	Cu	1.489058	0.614587	0.581369
Cu17	Cu	0.989079	0.114596	-0.081233
Cu18	Cu	1.489079	0.614596	0.418767
O19	O	0.982370	0.236478	0.068815
O20	O	1.482370	0.736478	0.568815
C21	C	0.995213	-0.038495	0.000065
C22	C	1.495213	0.461505	0.500065
C23	C	0.993581	-0.131448	0.000059
C24	C	1.493581	0.368552	0.500059
C25	C	0.835985	0.120704	0.000058
C26	C	1.335985	0.620704	0.500058
C27	C	0.743035	0.119053	0.000051
C28	C	1.243035	0.619053	0.500051
C29	C	0.987580	-0.469186	0.000066
C30	C	1.487580	0.030814	0.500066
C31	C	1.080384	-0.445874	0.000379
C32	C	1.580384	0.054126	0.500379
C33	C	1.082148	-0.349199	0.000066
C34	C	1.582148	0.150801	0.500066
C35	C	0.990557	-0.301631	0.000063
C36	C	1.490557	0.198369	0.500063
C37	C	0.944170	-0.330727	-0.078453
C38	C	1.444170	0.169273	0.421547
C39	C	0.943052	-0.427517	-0.078516
C40	C	1.443052	0.072483	0.421484
C41	C	0.941137	-0.427384	0.077839
C42	C	1.441137	0.072616	0.577839
C43	C	0.944576	-0.330891	0.078874
C44	C	1.444576	0.169109	0.578874
C45	C	0.992235	-0.206934	0.000058
C46	C	1.492235	0.293066	0.500058
C47	C	0.985899	-0.563882	0.000065
C48	C	1.485899	-0.063882	0.500065
C49	C	0.405288	0.113120	0.000068
C50	C	0.905288	0.613120	0.500068
C51	C	0.452742	0.021566	0.000374
C52	C	0.952742	0.521566	0.500374
C53	C	0.549431	0.023218	0.000059
C54	C	1.049431	0.523218	0.500059
C55	C	0.572848	0.116063	0.000060
C56	C	1.072848	0.616063	0.500060
C57	C	0.531762	0.161225	-0.078452
C58	C	1.031762	0.661225	0.421548
C59	C	0.435127	0.158925	-0.078512
C60	C	0.935127	0.658925	0.421488
C61	C	0.434767	0.160808	0.077844
C62	C	0.934767	0.660808	0.577844
C63	C	0.531713	0.160786	0.078876
C64	C	1.031713	0.660786	0.578876
C65	C	0.667546	0.117731	0.000053
C66	C	1.167546	0.617731	0.500053
C67	C	0.310591	0.111455	0.000070
C68	C	0.810591	0.611455	0.500070
C69	C	1.142152	0.108479	0.000076
C70	C	1.642152	0.608479	0.500076
C71	C	1.235102	0.110130	0.000077
C72	C	1.735102	0.610130	0.500077
C73	C	0.982924	0.267678	0.000069
C74	C	1.482924	0.767678	0.500069
C75	C	0.984556	0.360631	0.000070
C76	C	1.484556	0.860631	0.500070
N77	N	0.989049	0.114579	0.195734
N78	N	1.489049	0.614579	0.695734
N79	N	0.989094	0.114597	-0.195598
N80	N	1.489094	0.614597	0.304402
C81	C	1.046001	0.057678	0.239001
C82	C	1.546001	0.557678	0.739001
C83	C	1.046005	0.057678	0.325548
C84	C	1.546005	0.557678	0.825548
C85	C	0.989061	0.114582	0.368827
C86	C	1.489061	0.614582	0.868827
C87	C	0.932104	0.171486	0.325553
C88	C	1.432104	0.671486	0.825553
C89	C	0.932096	0.171482	0.239008
C90	C	1.432096	0.671482	0.739008
C91	C	0.932132	0.171501	0.674581
C92	C	1.432132	0.671501	1.174581
C93	C	0.932146	0.171503	0.761133
C94	C	1.432146	0.671503	1.261133
C95	C	1.046041	0.057697	0.761122
C96	C	1.546041	0.557697	1.261122
C97	C	1.046034	0.057693	0.674577
C98	C	1.546034	0.557693	1.174577
C99	C	0.989074	0.114593	0.631311
C100	C	1.489074	0.614593	1.131311
C101	C	0.989069	0.114593	0.537467
C102	C	1.489069	0.614593	1.037467
C103	C	0.989070	0.114588	0.462669
C104	C	1.489070	0.614588	0.962669
H105	H	1.118478	-0.330177	0.056349
H106	H	1.618478	0.169823	0.556349
F107	F	0.428529	-0.026273	0.073968
F108	F	0.928529	0.473727	0.573968
H109	H	0.547063	0.228491	0.083619
H110	H	1.047063	0.728491	0.583619
F111	F	0.411213	0.115886	-0.155223
F112	F	0.911213	0.615886	0.344777
H113	H	0.402865	0.226143	-0.082074
H114	H	0.902865	0.726143	0.417926
H115	H	0.545873	0.229436	-0.081370
H116	H	1.045873	0.729436	0.418630
H117	H	0.975193	-0.454330	-0.137205
H118	H	1.475193	0.045670	0.362795
F119	F	0.585842	-0.023298	-0.073750
F120	F	1.085842	0.476702	0.426250
F121	F	0.407928	0.121679	0.155629
F122	F	0.907928	0.621679	0.655629
F123	F	0.427147	-0.026049	-0.072809
F124	F	0.927147	0.473951	0.427191
F125	F	0.851851	-0.445671	0.078529
F126	F	1.351851	0.054329	0.578529
H127	H	1.092375	0.011344	0.203770
H128	H	1.592375	0.511344	0.703770
F129	F	0.568865	0.120235	-0.154827
F130	F	1.068865	0.620235	0.345173
F131	F	0.871495	0.232045	0.371613
F132	F	1.371495	0.732045	0.871613
H133	H	0.402992	0.228310	0.078376
H134	H	0.902992	0.728310	0.578376
H135	H	1.116148	-0.473875	0.056686
H136	H	1.616148	0.026125	0.556686
F137	F	0.567333	0.117626	0.154794
F138	F	1.067333	0.617626	0.654794
F139	F	0.871478	0.232042	0.192960
F140	F	1.371478	0.732042	0.692960
F141	F	1.106618	-0.002883	0.371597
F142	F	1.606618	0.497117	0.871597
F143	F	1.106644	-0.002869	0.628520
F144	F	1.606644	0.497131	1.128520
H145	H	1.115963	-0.474889	-0.055607
H146	H	1.615963	0.025111	0.444393
F147	F	1.106662	-0.002865	0.807175
F148	F	1.606662	0.497135	1.307175
H149	H	0.970356	-0.455476	0.137354
H150	H	1.470356	0.044524	0.637354
F151	F	0.871514	0.232060	0.628541
F152	F	1.371514	0.732060	1.128541
F153	F	1.129931	-0.325134	-0.073624
F154	F	1.629931	0.174866	0.426376
F155	F	0.854116	-0.446538	-0.083182
F156	F	1.354116	0.053462	0.416818
F157	F	0.871535	0.232071	0.807191
F158	F	1.371535	0.732071	1.307191
F159	F	0.856076	-0.289071	-0.082278
F160	F	1.356076	0.210929	0.417722
H161	H	0.976397	-0.310663	-0.136881
H162	H	1.476397	0.189337	0.363119
F163	F	0.988720	-0.306624	0.154798
F164	F	1.488720	0.193376	0.654798
H165	H	0.577861	-0.012282	0.056339
H166	H	1.077861	0.487718	0.556339
F167	F	0.857193	-0.287801	0.085070
F168	F	1.357193	0.212199	0.585070
