data_functionalizedCrystal
_audit_creation_method	'MofGen! by Chris Wilmer'
_symmetry_space_group_name_H-M	'P1'
_symmetry_Int_Tables_number	1
_symmetry_cell_setting	triclinic
loop_
_symmetry_equiv_pos_as_xyz
  x,y,z
_cell_length_a	16.992701
_cell_length_b	27.731996
_cell_length_c	15.455313
_cell_angle_alpha	92.636264
_cell_angle_beta	87.136501
_cell_angle_gamma	86.644279
loop_
_atom_site_label
_atom_site_type_symbol
_atom_site_fract_x
_atom_site_fract_y
_atom_site_fract_z
O1	O	1.042582	0.100459	-0.072156
O2	O	0.814310	0.099336	-0.072156
O3	O	0.935556	0.029807	-0.072137
O4	O	0.921336	0.169988	-0.072175
O5	O	0.928623	0.033766	0.072124
O6	O	0.807377	0.103295	0.072105
O7	O	1.035649	0.104418	0.072105
Cu8	Cu	0.920880	0.104218	0.085277
Cu9	Cu	0.929079	0.099536	-0.085328
O10	O	0.914403	0.173947	0.072086
C11	C	0.781649	0.099870	-0.000025
C12	C	0.694659	0.095557	-0.000024
C13	C	0.206059	0.066574	-0.000020
C14	C	0.287794	0.070631	-0.000016
C15	C	0.318771	0.116311	-0.000032
C16	C	0.268007	0.157938	-0.000043
C17	C	0.186272	0.153880	-0.000041
C18	C	0.562159	0.133126	-0.000034
C19	C	0.643901	0.137180	-0.000039
C20	C	0.663683	0.049873	-0.000009
C21	C	0.581946	0.045820	-0.000013
C22	C	0.531189	0.087446	-0.000019
N23	N	0.402318	0.120459	-0.000030
N24	N	0.447643	0.083298	-0.000015
C25	C	0.931797	0.013766	-0.000004
C26	C	0.930917	-0.039928	0.000005
C27	C	0.929162	-0.375042	-0.078674
C28	C	0.925821	-0.576845	-0.078689
O29	O	0.928569	-0.604771	-0.145567
N30	N	0.921627	-0.599923	-0.000053
C31	C	0.918262	-0.572546	0.078592
O32	O	0.914610	-0.596804	0.145476
C33	C	0.921597	-0.370743	0.078606
C34	C	0.925800	-0.347669	-0.000035
C35	C	0.933363	-0.351968	-0.157309
C36	C	0.934202	-0.301520	-0.157304
C37	C	0.930841	-0.274147	-0.078665
C38	C	0.926639	-0.297221	-0.000030
C39	C	0.918227	-0.343367	0.157251
C40	C	0.919060	-0.292913	0.157247
C41	C	0.923262	-0.269839	0.078606
C42	C	0.924117	-0.219401	0.078614
N43	N	0.928311	-0.196323	-0.000022
C44	C	0.931673	-0.223697	-0.078661
C45	C	0.916513	-0.678495	0.078579
C46	C	0.915681	-0.728945	0.078576
C47	C	0.923238	-0.733242	-0.078706
C48	C	0.924076	-0.682790	-0.078702
C49	C	0.920707	-0.655418	-0.000057
C50	C	0.933436	-0.117753	-0.078646
C51	C	0.934279	-0.067301	-0.078634
C52	C	0.926717	-0.063009	0.078647
C53	C	0.925879	-0.113457	0.078636
C54	C	0.929236	-0.140828	-0.000018
O55	O	0.921362	-0.191444	0.145457
O56	O	0.935307	-0.199428	-0.145536
C57	C	0.928322	-0.425490	-0.078679
C58	C	0.924121	-0.448564	-0.000044
C59	C	0.920759	-0.421191	0.078595
C60	C	0.923289	-0.499015	-0.000047
C61	C	0.926651	-0.526388	-0.078687
C62	C	0.930845	-0.503310	-0.157323
C63	C	0.931684	-0.452863	-0.157318
C64	C	0.916565	-0.444268	0.157231
C65	C	0.915727	-0.494716	0.157220
C66	C	0.919089	-0.522089	0.078581
C67	C	1.068310	0.103884	-0.000028
C68	C	1.155301	0.108197	-0.000034
C69	C	0.918162	0.189988	-0.000049
C70	C	0.919043	0.243681	-0.000064
N71	N	0.915119	0.107510	0.205272
N72	N	0.934847	0.096240	-0.205323
C73	C	0.966646	0.077984	0.250674
C74	C	0.962296	0.080479	0.341481
C75	C	0.906422	0.112503	0.386885
C76	C	0.854890	0.142030	0.341476
C77	C	0.859236	0.139533	0.250671
C78	C	0.887661	0.123270	0.658463
C79	C	0.883319	0.125766	0.749275
C80	C	0.990725	0.064214	0.749274
C81	C	0.995070	0.061722	0.658467
C82	C	0.943535	0.091247	0.613066
N83	N	0.901976	0.115055	0.479704
N84	N	0.947978	0.088693	0.520248
H85	H	0.705018	0.015983	-0.000003
N86	N	0.550311	-0.000843	0.000034
N87	N	0.503993	-0.011174	0.060856
H88	H	0.481652	-0.044130	0.060891
N89	N	1.014904	0.050296	0.387849
N90	N	0.987961	0.020723	0.438507
H91	H	1.025109	-0.000605	0.471247
H92	H	0.669117	0.174380	-0.000039
H93	H	0.845700	0.147312	0.621505
H94	H	0.520842	0.167021	-0.000044
H95	H	0.809392	0.168103	0.378449
H96	H	0.817277	0.163575	0.213705
N97	N	0.299633	0.204603	-0.000066
N98	N	0.254302	0.241763	-0.000079
H99	H	0.276635	0.274722	-0.000096
H100	H	0.144945	0.187775	-0.000050
N101	N	0.921599	-0.137036	0.158958
N102	N	0.975547	-0.167036	0.176508
H103	H	0.972518	-0.183686	0.233237
H104	H	0.837818	0.151846	0.786238
H105	H	0.916305	-0.270628	0.221291
N106	N	0.923291	-0.035036	0.158964
N107	N	0.924039	0.010008	0.158946
H108	H	0.921616	0.029766	0.215670
N109	N	0.938578	-0.043740	-0.158976
N110	N	0.941579	-0.068190	-0.229182
H111	H	0.944615	-0.051552	-0.285922
N112	N	1.023687	0.045263	0.204271
N113	N	1.001581	0.012922	0.153625
H114	H	1.041857	-0.010191	0.120843
H115	H	0.933586	-0.525607	-0.221354
N116	N	1.043358	0.034046	0.795637
N117	N	1.093238	0.005453	0.755087
H118	H	1.130411	-0.015857	0.787829
H119	H	0.927497	-0.664007	-0.142738
H120	H	0.180845	0.029376	-0.000012
N121	N	0.936863	-0.145699	-0.158995
N122	N	0.940613	-0.125082	-0.229192
H123	H	0.943037	-0.144819	-0.285940
N124	N	0.913094	-0.650539	0.158918
N125	N	0.967983	-0.624234	0.176471
H126	H	0.965572	-0.604491	0.233211
H127	H	0.937622	-0.282738	-0.221342
N128	N	0.339645	0.028114	-0.000022
N129	N	0.390384	0.018970	-0.060830
H130	H	0.427005	-0.011059	-0.060834
N131	N	0.936793	-0.379916	-0.237652
N132	N	0.940541	-0.359298	-0.307848
H133	H	0.942968	-0.379033	-0.364597
H134	H	0.925976	-0.755537	-0.142737
H135	H	0.912271	-0.747728	0.142613
H136	H	0.914807	-0.362145	0.221289
N137	N	0.913150	-0.416312	0.237564
N138	N	0.968045	-0.390011	0.255115
H139	H	0.965638	-0.370268	0.311855
H140	H	0.935106	-0.434080	-0.221356
N141	N	1.052281	0.029095	0.612104
N142	N	1.098372	0.002792	0.652654
H143	H	1.138830	-0.020217	0.619911
H144	H	0.912311	-0.513499	0.221264
