data_functionalizedCrystal
_audit_creation_method	'MofGen! by Chris Wilmer'
_symmetry_space_group_name_H-M	'P1'
_symmetry_Int_Tables_number	1
_symmetry_cell_setting	triclinic
loop_
_symmetry_equiv_pos_as_xyz
  x,y,z
_cell_length_a	17.699083
_cell_length_b	23.532407
_cell_length_c	16.776229
_cell_angle_alpha	89.988688
_cell_angle_beta	89.998886
_cell_angle_gamma	83.065847
loop_
_atom_site_label
_atom_site_type_symbol
_atom_site_fract_x
_atom_site_fract_y
_atom_site_fract_z
O1	O	1.003713	0.072020	-0.066185
O2	O	0.783287	0.081390	-0.066212
O3	O	0.900147	-0.006208	-0.066183
O4	O	0.886853	0.159617	-0.066214
O5	O	0.900132	-0.006213	0.066394
O6	O	0.783272	0.081384	0.066365
O7	O	1.003698	0.072015	0.066392
Zn8	Zn	0.893482	0.076699	0.087428
Zn9	Zn	0.893503	0.076706	-0.087248
O10	O	0.886838	0.159612	0.066363
C11	C	0.755084	0.081051	0.000073
C12	C	0.671071	0.080044	0.000063
C13	C	0.622189	0.131462	0.000054
C14	C	0.543251	0.130512	0.000065
C15	C	0.513196	0.078144	0.000079
C16	C	0.562084	0.026722	0.000090
C17	C	0.641021	0.027672	0.000086
C18	C	0.243740	0.022888	0.000111
C19	C	0.164797	0.021942	0.000113
C20	C	0.145970	0.125728	0.000090
C21	C	0.224907	0.126678	0.000085
C22	C	0.273788	0.075257	0.000101
C23	C	0.359382	0.076287	0.000091
C24	C	0.427603	0.077113	0.000083
C25	C	0.899801	-0.027427	0.000107
C26	C	0.898783	-0.090647	0.000113
C27	C	0.961554	-0.489570	0.000077
C28	C	0.960609	-0.548973	0.000071
O29	O	1.018799	-0.585550	0.000049
N30	N	0.891136	-0.571799	0.000063
C31	C	0.822604	-0.535218	0.000053
O32	O	0.763424	-0.560088	0.000045
C33	C	0.823550	-0.475816	0.000054
C34	C	0.893028	-0.452994	0.000070
C35	C	1.031026	-0.466747	0.000093
C36	C	1.031972	-0.407348	0.000100
C37	C	0.963445	-0.370772	0.000093
C38	C	0.893973	-0.393595	0.000078
C39	C	0.755019	-0.439237	0.000038
C40	C	0.755971	-0.379832	0.000038
C41	C	0.825448	-0.357009	0.000054
C42	C	0.826391	-0.297620	0.000078
N43	N	0.895864	-0.274795	0.000086
C44	C	0.964391	-0.311371	0.000093
C45	C	0.820622	-0.659966	0.000051
C46	C	0.819674	-0.719367	0.000056
C47	C	0.957680	-0.733118	0.000073
C48	C	0.958626	-0.673716	0.000073
C49	C	0.890095	-0.637141	0.000059
C50	C	0.966371	-0.186628	0.000110
C51	C	0.967310	-0.127223	0.000121
C52	C	0.829305	-0.113478	0.000100
C53	C	0.828365	-0.172877	0.000094
C54	C	0.896904	-0.209452	0.000096
O55	O	0.768232	-0.261008	0.000097
O56	O	1.023560	-0.286493	0.000091
C57	C	1.031901	0.072353	0.000105
C58	C	1.115914	0.073360	0.000110
C59	C	0.887184	0.180832	0.000071
C60	C	0.888202	0.244052	0.000060
N61	N	0.893474	0.076693	0.206639
N62	N	0.893517	0.076706	-0.206459
C63	C	0.945235	0.037921	0.248369
C64	C	0.945239	0.037921	0.331821
C65	C	0.893485	0.076696	0.373542
C66	C	0.841719	0.115470	0.331806
C67	C	0.841712	0.115467	0.248355
C68	C	0.841746	0.115481	0.668353
C69	C	0.841759	0.115482	0.751810
C70	C	0.945274	0.037935	0.751819
C71	C	0.945267	0.037932	0.668368
C72	C	0.893498	0.076704	0.626640
C73	C	0.893493	0.076703	0.536151
C74	C	0.893493	0.076699	0.464029
H75	H	1.023889	-0.108645	0.000136
H76	H	0.987425	0.006362	0.785803
C77	C	0.751938	-0.197981	0.000073
C78	C	0.732322	-0.236905	-0.068790
C79	C	0.655892	-0.262002	-0.068825
C80	C	0.599078	-0.248175	0.000004
C81	C	0.618693	-0.209250	0.068872
C82	C	0.695123	-0.184153	0.068906
H83	H	0.774380	-0.247142	-0.119746
H84	H	0.641372	-0.290818	-0.119806
H85	H	0.542501	-0.266754	-0.000022
H86	H	0.576635	-0.199012	0.119827
H87	H	0.709643	-0.155337	0.119887
C88	C	0.678588	-0.464326	0.000016
C89	C	0.621778	-0.450484	0.068844
C90	C	0.545341	-0.475570	0.068819
C91	C	0.525712	-0.514498	-0.000033
C92	C	0.582523	-0.528343	-0.068866
C93	C	0.658961	-0.503257	-0.068842
H94	H	0.636307	-0.421664	0.119817
H95	H	0.503286	-0.465320	0.119775
H96	H	0.469129	-0.533068	-0.000051
H97	H	0.567995	-0.557162	-0.119839
H98	H	0.701016	-0.513506	-0.119797
H99	H	0.799595	0.147051	0.634384
C100	C	0.784774	0.158119	0.202450
C101	C	0.727872	0.200791	0.248338
C102	C	0.670930	0.243442	0.202434
C103	C	0.670891	0.243420	0.110642
C104	C	0.727796	0.200747	0.064748
C105	C	0.784737	0.158096	0.110652
H106	H	0.727899	0.200808	0.316293
H107	H	0.628806	0.275031	0.236408
H108	H	0.628739	0.274993	0.076661
H109	H	0.727768	0.200730	-0.003207
H110	H	0.826862	0.126506	0.076678
H111	H	1.088547	-0.388773	0.000110
H112	H	0.646653	0.174106	0.000042
C113	C	1.002166	-0.004733	0.202480
C114	C	1.059099	-0.047384	0.248387
C115	C	1.116030	-0.090041	0.202502
C116	C	1.116029	-0.090047	0.110709
C117	C	1.059094	-0.047395	0.064797
C118	C	1.002163	-0.004738	0.110683
H119	H	1.059102	-0.047381	0.316342
H120	H	1.158177	-0.121615	0.236489
H121	H	1.158173	-0.121624	0.076742
H122	H	1.059092	-0.047398	-0.003158
H123	H	0.960016	0.026837	0.076695
C124	C	1.002195	-0.004722	0.622475
C125	C	1.059130	-0.047375	0.668375
C126	C	1.116057	-0.090031	0.622482
C127	C	1.116049	-0.090034	0.530690
C128	C	1.059111	-0.047379	0.484785
C129	C	1.002185	-0.004723	0.530677
H130	H	1.059138	-0.047375	0.736330
H131	H	1.158206	-0.121607	0.656465
H132	H	1.158189	-0.121610	0.496717
H133	H	1.059103	-0.047379	0.416830
H134	H	0.960036	0.026853	0.496695
C135	C	0.784821	0.158134	0.797705
C136	C	0.698645	0.157251	0.786251
C137	C	0.641712	0.199901	0.832147
C138	C	0.670955	0.243433	0.889496
C139	C	0.757136	0.244317	0.900953
C140	C	0.814069	0.201667	0.855057
H141	H	0.676993	0.125025	0.743796
H142	H	0.577915	0.199246	0.823666
H143	H	0.628810	0.275004	0.923471
H144	H	0.778788	0.276543	0.943408
H145	H	0.877866	0.202322	0.863538
C146	C	0.297503	-0.033674	0.000125
C147	C	0.384332	-0.032637	0.000127
C148	C	0.438098	-0.089202	0.000142
C149	C	0.405036	-0.146805	0.000154
C150	C	0.318203	-0.147844	0.000151
C151	C	0.264436	-0.091279	0.000137
H152	H	0.408810	0.010005	0.000118
H153	H	0.502379	-0.088433	0.000143
H154	H	0.444838	-0.188678	0.000165
H155	H	0.293724	-0.190487	0.000161
H156	H	0.200156	-0.092048	0.000135
H157	H	0.503454	0.172382	0.000056
H158	H	0.537607	-0.015917	0.000113
C159	C	1.041763	-0.226854	0.000119
C160	C	1.098802	-0.224364	0.068977
C161	C	1.174194	-0.264590	0.068992
C162	C	1.192546	-0.307306	0.000150
C163	C	1.135505	-0.309798	-0.068713
C164	C	1.060114	-0.269572	-0.068729
H165	H	1.085218	-0.192742	0.119943
H166	H	1.216419	-0.262746	0.119969
H167	H	1.248355	-0.337084	0.000161
H168	H	1.149090	-0.341420	-0.119679
H169	H	1.017889	-0.271417	-0.119706
H170	H	0.249373	0.169322	0.000070
H171	H	0.987387	0.006349	0.365797
H172	H	1.086833	-0.496522	0.000096
H173	H	0.106161	0.167598	0.000081
H174	H	0.140330	-0.020705	0.000126
H175	H	0.680820	-0.014197	0.000093
H176	H	1.015201	-0.655139	0.000086
H177	H	1.013478	-0.762909	0.000076
H178	H	0.763099	-0.737943	0.000057
H179	H	0.764811	-0.630189	0.000046
H180	H	0.700163	-0.350054	0.000025
H181	H	0.799576	0.147039	0.365780
H182	H	0.773512	-0.083687	0.000097
