data_functionalizedCrystal
_audit_creation_method	'MofGen! by Chris Wilmer'
_symmetry_space_group_name_H-M	'P1'
_symmetry_Int_Tables_number	1
_symmetry_cell_setting	triclinic
loop_
_symmetry_equiv_pos_as_xyz
  x,y,z
_cell_length_a	10.654550
_cell_length_b	10.654541
_cell_length_c	9.130313
_cell_angle_alpha	89.995708
_cell_angle_beta	89.999724
_cell_angle_gamma	84.484430
loop_
_atom_site_label
_atom_site_type_symbol
_atom_site_fract_x
_atom_site_fract_y
_atom_site_fract_z
O1	O	1.667838	0.176399	-0.121689
O2	O	1.302359	0.193205	-0.121716
O3	O	1.493503	0.002063	-0.121693
O4	O	1.476694	0.367542	-0.121712
O5	O	1.493490	0.002057	0.121906
O6	O	1.302346	0.193200	0.121883
O7	O	1.667825	0.176393	0.121910
Cu8	Cu	1.485084	0.184796	0.144139
Cu9	Cu	1.485100	0.184803	-0.143945
O10	O	1.476681	0.367536	0.121887
C11	C	1.255555	0.191968	0.000080
C12	C	1.116112	0.188276	0.000070
C13	C	1.036625	0.300818	0.000068
C14	C	0.905604	0.297342	0.000094
C15	C	0.933569	0.068772	0.000117
C16	C	1.064588	0.072250	0.000102
C17	C	1.492263	-0.044738	0.000105
C18	C	1.488572	-0.184182	0.000103
C19	C	1.717137	-0.212153	0.000138
C20	C	1.829680	-0.291647	0.000158
C21	C	1.826204	-0.422665	0.000154
C22	C	1.710173	-0.474190	0.000124
C23	C	1.597630	-0.394696	0.000103
C24	C	1.601118	-0.263676	0.000113
C25	C	1.369069	-0.366725	0.000057
C26	C	1.372541	-0.235707	0.000073
C27	C	1.253037	-0.418251	0.000028
C28	C	1.140492	-0.338756	0.000018
C29	C	1.143972	-0.207731	0.000024
C30	C	1.259998	-0.156213	0.000052
C31	C	1.714629	0.177630	0.000110
C32	C	1.854072	0.181322	0.000111
C33	C	1.477921	0.414337	0.000085
C34	C	1.481612	0.553780	0.000078
N35	N	1.485082	0.184791	0.346761
N36	N	1.485111	0.184798	-0.346568
C37	C	1.569750	0.100189	0.423423
C38	C	1.569762	0.100189	0.576760
C39	C	1.400435	0.269404	0.576759
C40	C	1.400418	0.269397	0.423425
H41	H	0.840891	0.388985	0.000095
H42	H	0.891602	-0.025693	0.000151
H43	H	1.129309	-0.019401	0.000107
H44	H	1.719978	-0.105472	0.000162
H45	H	1.924150	-0.249680	0.000195
O46	O	1.027714	-0.388658	0.000179
C47	C	0.959033	-0.348186	0.126351
H48	H	0.994044	-0.257040	0.168437
H49	H	0.854607	-0.330909	0.097957
H50	H	0.972907	-0.423879	0.214684
O51	O	1.935442	-0.500019	0.000367
C52	C	1.940261	-0.576628	0.126547
H53	H	1.840508	-0.584110	0.168591
H54	H	1.986178	-0.674680	0.098178
H55	H	1.997992	-0.533047	0.214901
O56	O	1.652064	0.018181	0.651390
C57	C	1.730148	0.086168	0.740039
H58	H	1.680977	0.183979	0.763007
H59	H	1.749576	0.033932	0.847867
H60	H	1.823032	0.095569	0.680931
H61	H	1.638687	0.031295	0.361007
O62	O	1.318342	0.351643	0.348787
C63	C	1.386261	0.429767	0.260096
H64	H	1.484098	0.380658	0.237121
H65	H	1.334005	0.449141	0.152275
H66	H	1.395601	0.522673	0.319172
O67	O	1.249494	-0.545500	0.000213
C68	C	1.185648	-0.581612	0.126377
H69	H	1.120920	-0.497943	0.168428
H70	H	1.127136	-0.662383	0.097984
H71	H	1.257256	-0.613710	0.214735
O72	O	1.318151	0.351420	0.651399
C73	C	1.240086	0.283440	0.740094
H74	H	1.289260	0.185628	0.763070
H75	H	1.220688	0.335681	0.847915
H76	H	1.147187	0.274040	0.681022
H77	H	1.078571	0.395294	0.000053
H78	H	1.052325	-0.143012	0.000001
O79	O	1.706959	-0.601480	-0.000089
C80	C	1.768470	-0.652897	-0.126268
H81	H	1.837209	-0.585551	-0.168309
H82	H	1.822324	-0.747428	-0.097899
H83	H	1.695619	-0.667291	-0.214625
H84	H	1.262843	-0.049533	0.000067
