data_functionalizedCrystal
_audit_creation_method	'MofGen! by Chris Wilmer'
_symmetry_space_group_name_H-M	'P1'
_symmetry_Int_Tables_number	1
_symmetry_cell_setting	triclinic
loop_
_symmetry_equiv_pos_as_xyz
  x,y,z
_cell_length_a	14.519710
_cell_length_b	14.519731
_cell_length_c	13.596369
_cell_angle_alpha	89.993029
_cell_angle_beta	90.004381
_cell_angle_gamma	96.315501
loop_
_atom_site_label
_atom_site_type_symbol
_atom_site_fract_x
_atom_site_fract_y
_atom_site_fract_z
O1	O	1.223878	-0.120892	0.081772
O2	O	1.473878	0.129108	0.331772
O3	O	1.723878	0.379108	0.581772
O4	O	1.973878	0.629108	0.831772
O5	O	0.955402	-0.135128	0.081779
O6	O	1.205402	0.114872	0.331779
O7	O	1.455402	0.364872	0.581779
O8	O	1.705402	0.614872	0.831779
O9	O	1.096748	0.006227	0.081766
O10	O	1.346748	0.256227	0.331766
O11	O	1.596748	0.506227	0.581766
O12	O	1.846748	0.756227	0.831766
O13	O	1.082532	-0.262247	0.081785
O14	O	1.332532	-0.012247	0.331785
O15	O	1.582532	0.237753	0.581785
O16	O	1.832532	0.487753	0.831785
O17	O	1.096734	0.006235	-0.081816
O18	O	1.346734	0.256235	0.168184
O19	O	1.596734	0.506235	0.418184
O20	O	1.846734	0.756235	0.668184
O21	O	0.955388	-0.135120	-0.081804
O22	O	1.205388	0.114880	0.168196
O23	O	1.455388	0.364880	0.418196
O24	O	1.705388	0.614880	0.668196
O25	O	1.223864	-0.120884	-0.081811
O26	O	1.473864	0.129116	0.168189
O27	O	1.723864	0.379116	0.418189
O28	O	1.973864	0.629116	0.668189
Zn29	Zn	1.089623	-0.128001	-0.107780
Zn30	Zn	1.339623	0.121999	0.142220
Zn31	Zn	1.589623	0.371999	0.392220
Zn32	Zn	1.839623	0.621999	0.642220
Zn33	Zn	1.089642	-0.128011	0.107748
Zn34	Zn	1.339642	0.121989	0.357748
Zn35	Zn	1.589642	0.371989	0.607748
Zn36	Zn	1.839642	0.621989	0.857748
O37	O	1.082518	-0.262239	-0.081798
O38	O	1.332518	-0.012239	0.168202
O39	O	1.582518	0.237761	0.418202
O40	O	1.832518	0.487761	0.668202
C41	C	0.921035	-0.134461	-0.000012
C42	C	1.171035	0.115539	0.249988
C43	C	1.421035	0.365539	0.499988
C44	C	1.671035	0.615539	0.749988
C45	C	0.818654	-0.132473	-0.000009
C46	C	1.068654	0.117527	0.249991
C47	C	1.318654	0.367527	0.499991
C48	C	1.568654	0.617527	0.749991
N49	N	1.089617	-0.127994	-0.254871
N50	N	1.339617	0.122006	-0.004871
N51	N	1.589617	0.372006	0.245129
N52	N	1.839617	0.622006	0.495129
C53	C	1.096075	0.040591	-0.000025
C54	C	1.346075	0.290591	0.249975
C55	C	1.596075	0.540591	0.499975
C56	C	1.846075	0.790591	0.749975
C57	C	1.094079	0.142971	-0.000026
C58	C	1.344079	0.392971	0.249974
C59	C	1.594079	0.642971	0.499974
C60	C	1.844079	0.892971	0.749974
C61	C	1.258230	-0.121551	-0.000018
C62	C	1.508230	0.128449	0.249982
C63	C	1.758230	0.378449	0.499982
C64	C	2.008230	0.628449	0.749982
C65	C	1.360612	-0.123539	-0.000014
C66	C	1.610612	0.126461	0.249986
C67	C	1.860612	0.376461	0.499986
C68	C	2.110612	0.626461	0.749986
C69	C	1.735508	-0.130859	-0.000013
C70	C	1.985508	0.119141	0.249987
C71	C	2.235508	0.369141	0.499987
C72	C	2.485508	0.619141	0.749987
C73	C	1.631200	-0.128826	-0.000013
C74	C	1.881200	0.121174	0.249987
C75	C	2.131200	0.371174	0.499987
C76	C	2.381200	0.621174	0.749987
C77	C	1.548063	-0.127199	-0.000012
C78	C	1.798063	0.122801	0.249988
C79	C	2.048063	0.372801	0.499988
C80	C	2.298063	0.622801	0.749988
C81	C	1.443749	-0.125166	-0.000014
C82	C	1.693749	0.124834	0.249986
C83	C	1.943749	0.374834	0.499986
C84	C	2.193749	0.624834	0.749986
C85	C	1.083191	-0.296603	-0.000004
C86	C	1.333191	-0.046603	0.249996
C87	C	1.583191	0.203397	0.499996
C88	C	1.833191	0.453397	0.749996
C89	C	1.085187	-0.398983	0.000003
C90	C	1.335187	-0.148983	0.250003
C91	C	1.585187	0.101017	0.500003
C92	C	1.835187	0.351017	0.750003
C93	C	1.092457	0.226115	-0.000023
C94	C	1.342457	0.476115	0.249977
C95	C	1.592457	0.726115	0.499977
C96	C	1.842457	0.976115	0.749977
C97	C	1.090430	0.330424	-0.000016
C98	C	1.340430	0.580424	0.249984
C99	C	1.590430	0.830424	0.499984
C100	C	1.840430	1.080424	0.749984
C101	C	1.088822	0.413563	-0.000009
C102	C	1.338822	0.663563	0.249991
C103	C	1.588822	0.913563	0.499991
C104	C	1.838822	1.163563	0.749991
C105	C	1.086795	0.517878	-0.000004
C106	C	1.336795	0.767878	0.249996
C107	C	1.586795	1.017878	0.499996
C108	C	1.836795	1.267878	0.749996
C109	C	1.089641	-0.128012	-0.656162
C110	C	1.339641	0.121988	-0.406162
C111	C	1.589641	0.371988	-0.156162
C112	C	1.839641	0.621988	0.093838
C113	C	1.089632	-0.128010	-0.544511
C114	C	1.339632	0.121990	-0.294511
C115	C	1.589632	0.371990	-0.044511
C116	C	1.839632	0.621990	0.205489
C117	C	1.089630	-0.128004	-0.455520
C118	C	1.339630	0.121996	-0.205520
C119	C	1.589630	0.371996	0.044480
C120	C	1.839630	0.621996	0.294480
C121	C	1.089619	-0.128000	-0.343862
C122	C	1.339619	0.122000	-0.093862
C123	C	1.589619	0.372000	0.156138
C124	C	1.839619	0.622000	0.406138
N125	N	1.089655	-0.128011	0.254840
N126	N	1.339655	0.121989	0.504840
N127	N	1.589655	0.371989	0.754840
N128	N	1.839655	0.621989	1.004840
