data_functionalizedCrystal
_audit_creation_method	'MofGen! by Chris Wilmer'
_symmetry_space_group_name_H-M	'P1'
_symmetry_Int_Tables_number	1
_symmetry_cell_setting	triclinic
loop_
_symmetry_equiv_pos_as_xyz
  x,y,z
_cell_length_a	15.995350
_cell_length_b	15.944551
_cell_length_c	15.072220
_cell_angle_alpha	89.997918
_cell_angle_beta	89.991149
_cell_angle_gamma	83.495557
loop_
_atom_site_label
_atom_site_type_symbol
_atom_site_fract_x
_atom_site_fract_y
_atom_site_fract_z
O1	O	1.111002	0.108264	-0.073709
O2	O	0.867227	0.121634	-0.073728
O3	O	0.995772	-0.007326	-0.073710
O4	O	0.982458	0.237224	-0.073727
O5	O	0.995740	-0.007319	0.073855
O6	O	0.867196	0.121641	0.073837
O7	O	1.110970	0.108271	0.073856
Zn8	Zn	0.989078	0.114957	0.097276
Zn9	Zn	0.989120	0.114948	-0.097148
O10	O	0.982426	0.237232	0.073838
C11	C	0.836017	0.121085	0.000053
C12	C	0.743066	0.119428	0.000046
C13	C	0.405318	0.113477	0.000065
C14	C	0.452747	0.021634	0.000400
C15	C	0.549438	0.023291	0.000061
C16	C	0.572879	0.116429	0.000056
C17	C	0.531813	0.161725	-0.084211
C18	C	0.435177	0.159417	-0.084275
C19	C	0.434802	0.161323	0.083534
C20	C	0.531747	0.161301	0.084642
C21	C	0.667577	0.118102	0.000048
C22	C	0.310620	0.111806	0.000067
C23	C	0.995203	-0.038616	0.000073
C24	C	0.993546	-0.131862	0.000073
C25	C	0.909908	-0.346714	0.000054
C26	C	0.948731	-0.407730	0.072816
C27	C	0.990548	-0.302588	0.000066
C28	C	0.948781	-0.407721	-0.072672
C29	C	0.987647	-0.467501	0.000055
C30	C	1.029394	-0.362376	0.072888
C31	C	1.029433	-0.362360	-0.072665
C32	C	1.068315	-0.423358	0.000114
C33	C	0.992217	-0.207586	0.000073
C34	C	0.985984	-0.562502	0.000055
C35	C	1.142181	0.108821	0.000074
C36	C	1.235131	0.110478	0.000075
C37	C	0.982995	0.268522	0.000053
C38	C	0.984652	0.361768	0.000047
N39	N	0.989055	0.114963	0.229965
N40	N	0.989149	0.114935	-0.229836
C41	C	0.989118	0.114945	0.589166
C42	C	0.920105	0.183717	0.551550
C43	C	0.920264	0.183968	0.448724
C44	C	0.989086	0.114954	0.410962
C45	C	1.076452	0.134096	0.448258
C46	C	1.076065	0.134585	0.551116
C47	C	0.971544	0.026826	0.551271
C48	C	0.969539	0.027414	0.448407
C49	C	0.989074	0.114958	0.310249
C50	C	0.989136	0.114943	0.689879
H51	H	0.433164	-0.014912	-0.059693
Br52	Br	1.086257	-0.328814	-0.175190
H53	H	0.547115	0.229220	0.089727
Br54	Br	1.086178	-0.329063	0.175527
H55	H	0.403044	0.229038	0.084100
Br56	Br	0.400554	0.111282	0.189993
H57	H	0.842972	-0.313403	0.000122
Br58	Br	0.938560	0.292100	0.594588
Br59	Br	1.164144	0.054181	0.592594
H60	H	0.577307	-0.012561	-0.060445
H61	H	0.559048	0.128236	0.146982
Br62	Br	0.381430	0.271800	-0.090655
H63	H	1.016539	-0.026161	0.422706
H64	H	0.545942	0.230150	-0.087348
H65	H	0.914610	-0.427834	0.134325
Br66	Br	1.179974	-0.478634	0.000184
Br67	Br	0.891931	-0.441212	-0.175190
Br68	Br	0.579120	0.109282	-0.188734
H69	H	1.092308	0.197628	0.422486
Br70	Br	1.164095	0.052829	0.407496
Br71	Br	0.404676	0.104353	-0.189258
Br72	Br	0.812009	0.165018	0.406692
Br73	Br	0.811508	0.165008	0.592787
Br74	Br	0.938930	0.292970	0.407685
Br75	Br	1.101877	0.241696	0.591087
H76	H	0.909220	0.008419	0.577258
H77	H	1.021871	-0.024352	0.575596
Br78	Br	0.596801	-0.036054	0.100742
Br79	Br	0.421848	-0.039553	0.101125
H80	H	0.905272	0.012886	0.424031
