data_functionalizedCrystal
_audit_creation_method	'MofGen! by Chris Wilmer'
_symmetry_space_group_name_H-M	'P1'
_symmetry_Int_Tables_number	1
_symmetry_cell_setting	triclinic
loop_
_symmetry_equiv_pos_as_xyz
  x,y,z
_cell_length_a	18.215407
_cell_length_b	13.897447
_cell_length_c	18.215399
_cell_angle_alpha	90.025056
_cell_angle_beta	90.017368
_cell_angle_gamma	90.016973
loop_
_atom_site_label
_atom_site_type_symbol
_atom_site_fract_x
_atom_site_fract_y
_atom_site_fract_z
Zn1	Zn	1.125099	-0.384091	0.416082
Zn2	Zn	1.458433	-0.050757	0.749416
Zn3	Zn	1.791766	0.282576	1.082749
Zn4	Zn	1.125019	-0.545400	0.293022
Zn5	Zn	1.458353	-0.212067	0.626356
Zn6	Zn	1.791686	0.121266	0.959689
Zn7	Zn	1.002032	-0.384114	0.293035
Zn8	Zn	1.335365	-0.050780	0.626368
Zn9	Zn	1.668699	0.282553	0.959702
Zn10	Zn	1.002009	-0.545338	0.416052
Zn11	Zn	1.335343	-0.212005	0.749386
Zn12	Zn	1.668676	0.121329	1.082719
O13	O	1.063540	-0.464736	0.354548
O14	O	1.396873	-0.131402	0.687881
O15	O	1.730207	0.201931	1.021215
O16	O	1.228073	-0.405505	0.399765
O17	O	1.561406	-0.072172	0.733099
O18	O	1.894740	0.261162	1.066432
O19	O	1.108681	-0.524041	0.190040
O20	O	1.442014	-0.190708	0.523373
O21	O	1.775347	0.142626	0.856706
O22	O	1.018400	-0.249129	0.309375
O23	O	1.351733	0.084204	0.642709
O24	O	1.685067	0.417538	0.976042
O25	O	1.228014	-0.524019	0.309354
O26	O	1.561347	-0.190685	0.642687
O27	O	1.894681	0.142648	0.976020
O28	O	1.108817	-0.249112	0.399778
O29	O	1.442150	0.084221	0.733111
O30	O	1.775484	0.417555	1.066444
O31	O	1.018322	-0.405544	0.190049
O32	O	1.351656	-0.072211	0.523382
O33	O	1.684989	0.261122	0.856716
O34	O	0.899045	-0.405484	0.309346
O35	O	1.232378	-0.072151	0.642680
O36	O	1.565711	0.261183	0.976013
O37	O	1.018361	-0.523913	0.519041
O38	O	1.351695	-0.190579	0.852374
O39	O	1.685028	0.142754	1.185707
O40	O	0.899028	-0.523935	0.399727
O41	O	1.232361	-0.190602	0.733060
O42	O	1.565695	0.142732	1.066393
O43	O	1.108795	-0.405445	0.519063
O44	O	1.442129	-0.072111	0.852396
O45	O	1.775462	0.261222	1.185729
O46	O	1.108659	-0.680374	0.309325
O47	O	1.441992	-0.347040	0.642658
O48	O	1.775325	-0.013707	0.975991
O49	O	1.018284	-0.680328	0.399714
O50	O	1.351617	-0.346995	0.733048
O51	O	1.684950	-0.013661	1.066381
C52	C	0.872334	-0.464706	0.354535
C53	C	1.205667	-0.131373	0.687868
C54	C	1.539000	0.201961	1.021202
C55	C	0.790535	-0.464717	0.354547
C56	C	1.123868	-0.131383	0.687880
C57	C	1.457201	0.201950	1.021214
C58	C	0.602370	-0.403134	0.401699
C59	C	0.935704	-0.069800	0.735032
C60	C	1.269037	0.263533	1.068365
C61	C	0.525512	-0.403142	0.401701
C62	C	0.858845	-0.069809	0.735035
C63	C	1.192178	0.263525	1.068368
C64	C	0.525461	-0.526365	0.307410
C65	C	0.858795	-0.193031	0.640743
C66	C	1.192128	0.140302	0.974077
C67	C	0.602319	-0.526351	0.307404
C68	C	0.935652	-0.193018	0.640738
C69	C	1.268985	0.140316	0.974071
C70	C	0.640771	-0.464737	0.354553
C71	C	0.974105	-0.131403	0.687886
C72	C	1.307438	0.201930	1.021220
C73	C	0.487055	-0.464759	0.354561
C74	C	0.820389	-0.131426	0.687894
C75	C	1.153722	0.201908	1.021228
C76	C	0.403722	-0.464768	0.354563
C77	C	0.737055	-0.131435	0.687897
C78	C	1.070388	0.201898	1.021230
C79	C	0.724110	-0.464726	0.354550
C80	C	1.057444	-0.131393	0.687883
C81	C	1.390777	0.201941	1.021217
C82	C	1.063480	-0.715350	0.354531
C83	C	1.396813	-0.382017	0.687864
C84	C	1.730147	-0.048683	1.021198
C85	C	1.063522	-0.822564	0.354548
C86	C	1.396855	-0.489231	0.687882
C87	C	1.730188	-0.155897	1.021215
C88	C	1.063557	-0.909634	0.354565
C89	C	1.396891	-0.576300	0.687898
C90	C	1.730224	-0.242967	1.021232
C91	C	1.063609	-1.018866	0.354584
C92	C	1.396942	-0.685533	0.687917
C93	C	1.730276	-0.352199	1.021251
C94	C	1.255493	-0.464766	0.354561
C95	C	1.588826	-0.131433	0.687895
C96	C	1.922159	0.201901	1.021228
C97	C	1.337292	-0.464779	0.354567
C98	C	1.670625	-0.131446	0.687900
C99	C	2.003958	0.201888	1.021234
C100	C	1.063585	-0.464669	0.546501
C101	C	1.396918	-0.131336	0.879834
C102	C	1.730251	0.201997	1.213168
C103	C	1.063604	-0.464641	0.628300
C104	C	1.396937	-0.131308	0.961633
C105	C	1.730271	0.202026	1.294967
C106	C	1.063620	-0.213143	0.354581
C107	C	1.396953	0.120191	0.687914
C108	C	1.730287	0.453524	1.021248
C109	C	1.063654	-0.105929	0.354595
C110	C	1.396988	0.227405	0.687929
C111	C	1.730321	0.560738	1.021262
C112	C	1.063538	-0.464732	0.163342
C113	C	1.396871	-0.131399	0.496675
C114	C	1.730204	0.201934	0.830008
C115	C	1.063661	-0.464489	0.081543
C116	C	1.396994	-0.131156	0.414877
C117	C	1.730328	0.202178	0.748210
C118	C	1.110710	-0.402897	0.816507
C119	C	1.444043	-0.069564	1.149840
C120	C	1.777376	0.263770	1.483173
C121	C	1.110718	-0.402869	0.893365
C122	C	1.444052	-0.069535	1.226699
C123	C	1.777385	0.263798	1.560032
C124	C	1.016550	-0.526236	0.893331
C125	C	1.349883	-0.192902	1.226665
C126	C	1.683217	0.140431	1.559998
C127	C	1.016538	-0.526258	0.816474
C128	C	1.349872	-0.192925	1.149807
C129	C	1.683205	0.140409	1.483140
C130	C	1.063622	-0.464590	0.778063
C131	C	1.396955	-0.131257	1.111397
C132	C	1.730289	0.202076	1.444730
C133	C	1.063643	-0.464540	0.931780
C134	C	1.396976	-0.131206	1.265113
C135	C	1.730309	0.202127	1.598446
C136	C	1.063652	-0.464510	1.015113
C137	C	1.396985	-0.131176	1.348447
C138	C	1.730319	0.202157	1.681780
C139	C	1.063612	-0.464619	0.694724
C140	C	1.396945	-0.131285	1.028058
C141	C	1.730279	0.202048	1.361391
H142	H	0.633676	-0.352960	0.440088
H143	H	0.967010	-0.019627	0.773421
H144	H	1.300343	0.313706	1.106754
Cl145	Cl	0.477240	-0.325693	0.460972
Cl146	Cl	0.810573	0.007640	0.794305
Cl147	Cl	1.143906	0.340974	1.127639
Cl148	Cl	1.169898	-0.325368	0.768222
Cl149	Cl	1.503231	0.007965	1.101555
Cl150	Cl	1.836564	0.341299	1.434888
H151	H	1.149061	-0.352630	0.924662
H152	H	1.482394	-0.019297	1.257996
H153	H	1.815727	0.314036	1.591329
Cl154	Cl	0.957366	-0.603762	0.941624
Cl155	Cl	1.290700	-0.270428	1.274957
Cl156	Cl	1.624033	0.062905	1.608290
H157	H	0.494144	-0.576530	0.269024
H158	H	0.827477	-0.243196	0.602358
H159	H	1.160811	0.090137	0.935691
Cl160	Cl	0.650598	-0.603792	0.248123
Cl161	Cl	0.983931	-0.270458	0.581456
Cl162	Cl	1.317264	0.062875	0.914790
Cl163	Cl	0.957333	-0.603816	0.768142
Cl164	Cl	1.290667	-0.270483	1.101475
Cl165	Cl	1.624000	0.062850	1.434808
