data_functionalizedCrystal
_audit_creation_method	'MofGen! by Chris Wilmer'
_symmetry_space_group_name_H-M	'P1'
_symmetry_Int_Tables_number	1
_symmetry_cell_setting	triclinic
loop_
_symmetry_equiv_pos_as_xyz
  x,y,z
_cell_length_a	17.699083
_cell_length_b	7.088929
_cell_length_c	8.597249
_cell_angle_alpha	91.318776
_cell_angle_beta	95.686078
_cell_angle_gamma	83.803027
loop_
_atom_site_label
_atom_site_type_symbol
_atom_site_fract_x
_atom_site_fract_y
_atom_site_fract_z
O1	O	0.999756	0.123946	-0.211062
O2	O	0.779790	0.119823	-0.236464
O3	O	0.892325	0.158897	0.000957
O4	O	0.887220	0.084871	-0.448483
O5	O	0.907364	-0.153844	0.032758
O6	O	0.794828	-0.192919	-0.204663
O7	O	1.014794	-0.188796	-0.179262
Cu8	Cu	0.906184	-0.219413	-0.189059
Cu9	Cu	0.888400	0.150440	-0.226667
O10	O	0.902258	-0.227870	-0.416682
C11	C	0.759096	-0.036390	-0.219654
C12	C	0.675033	-0.035917	-0.216927
N13	N	0.918698	-0.479547	-0.162606
C14	C	0.628690	-0.058871	-0.356286
C15	C	0.549706	-0.058471	-0.353709
C16	C	0.517065	-0.035104	-0.211773
C17	C	0.563414	-0.012154	-0.072403
C18	C	0.642398	-0.012567	-0.074980
C19	C	0.244884	-0.010489	-0.062007
C20	C	0.165894	-0.010072	-0.059441
C21	C	0.152192	-0.056393	-0.340736
C22	C	0.231175	-0.056806	-0.343313
C23	C	0.277518	-0.033866	-0.203943
C24	C	0.363161	-0.034304	-0.206738
C25	C	0.431422	-0.034653	-0.208977
C26	C	1.035487	-0.032579	-0.196071
C27	C	1.119550	-0.033039	-0.198800
C28	C	0.898458	0.012003	0.074362
C29	C	0.894318	0.040238	0.245707
N30	N	0.875891	0.410577	-0.253107
C31	C	0.896125	-0.080971	-0.490087
C32	C	0.900265	-0.109195	-0.661434
H33	H	0.655259	-0.077898	-0.471867
H34	H	0.908524	-0.258720	0.286982
H35	H	0.511976	-0.077161	-0.467190
F36	F	0.265908	-0.081666	-0.494381
H37	H	0.886066	0.189774	0.297300
H38	H	0.114450	-0.075082	-0.454217
H39	H	0.139321	0.008955	0.056148
F40	F	0.294195	0.013926	0.086325
F41	F	0.528674	0.012703	0.078659
H42	H	0.680130	0.006125	0.038501
F43	F	0.817903	-0.502882	-0.375692
H44	H	0.963071	-0.545769	-0.068827
