data_functionalizedCrystal
_audit_creation_method	'MofGen! by Chris Wilmer'
_symmetry_space_group_name_H-M	'P1'
_symmetry_Int_Tables_number	1
_symmetry_cell_setting	triclinic
loop_
_symmetry_equiv_pos_as_xyz
  x,y,z
_cell_length_a	10.654550
_cell_length_b	9.565339
_cell_length_c	10.489694
_cell_angle_alpha	90.003996
_cell_angle_beta	95.497574
_cell_angle_gamma	90.007114
loop_
_atom_site_label
_atom_site_type_symbol
_atom_site_fract_x
_atom_site_fract_y
_atom_site_fract_z
O1	O	1.667895	0.116362	-0.179157
O2	O	1.302421	0.116339	-0.196226
O3	O	1.493505	0.116355	-0.002086
O4	O	1.476811	0.116346	-0.373297
O5	O	1.493490	-0.116165	-0.002098
O6	O	1.302406	-0.116181	-0.196238
O7	O	1.667880	-0.116158	-0.179169
Zn8	Zn	1.485140	-0.153087	-0.187705
Zn9	Zn	1.485160	0.153268	-0.187689
O10	O	1.476796	-0.116174	-0.373309
C11	C	1.255615	0.000076	-0.194979
C12	C	1.116171	0.000067	-0.191229
N13	N	1.485136	-0.362167	-0.187715
C14	C	1.036720	0.000085	-0.305536
C15	C	0.905698	0.000109	-0.302005
C16	C	0.933591	0.000104	-0.069850
C17	C	1.064611	0.000070	-0.073383
C18	C	1.020615	0.000094	-0.439569
C19	C	0.889593	0.000118	-0.436038
C20	C	1.396739	-0.453377	-0.277469
C21	C	1.510450	-0.546550	-0.303225
C22	C	1.371474	-0.546550	-0.161970
C23	C	1.598905	-0.453287	-0.213529
C24	C	1.459853	-0.453279	-0.072224
C25	C	1.573646	-0.546409	-0.097931
C26	C	1.714685	0.000108	-0.180416
C27	C	1.854130	0.000126	-0.184166
C28	C	1.492249	0.000099	0.045440
C29	C	1.488514	0.000111	0.187071
N30	N	1.485175	0.362347	-0.187669
C31	C	1.605691	0.000105	0.284802
C32	C	1.543790	0.114742	0.362140
C33	C	1.543748	-0.114505	0.362092
C34	C	1.426662	0.114842	0.262543
C35	C	1.426637	-0.114508	0.262490
C36	C	1.364650	0.000157	0.339778
C37	C	1.478072	0.000084	0.579167
C38	C	1.481866	0.000077	0.437544
H39	H	1.129296	0.000035	0.019697
H40	H	1.056290	0.100481	-0.482242
Cl41	Cl	0.868763	0.000107	0.078292
H42	H	1.531861	-0.587518	-0.400874
H43	H	1.695065	-0.412494	-0.235402
H44	H	0.847882	0.097434	-0.486534
Cl45	Cl	0.819077	-0.154862	-0.498586
H46	H	1.322054	-0.412529	-0.353441
Cl47	Cl	1.689209	-0.609093	0.019289
Cl48	Cl	1.207185	0.000236	0.377429
Cl49	Cl	1.350348	0.264646	0.195664
Cl50	Cl	1.350350	-0.264161	0.195220
Cl51	Cl	1.426743	-0.389970	0.078492
Cl52	Cl	1.065924	-0.150146	-0.520513
H53	H	1.593231	-0.211420	0.405584
H54	H	1.707606	0.000228	0.260175
Cl55	Cl	1.223046	-0.609801	-0.128377
H56	H	1.593261	0.211667	0.405664
