data_functionalizedCrystal
_audit_creation_method	'MofGen! by Chris Wilmer'
_symmetry_space_group_name_H-M	'P1'
_symmetry_Int_Tables_number	1
_symmetry_cell_setting	triclinic
loop_
_symmetry_equiv_pos_as_xyz
  x,y,z
_cell_length_a	19.288864
_cell_length_b	27.731989
_cell_length_c	17.766277
_cell_angle_alpha	90.012272
_cell_angle_beta	90.023209
_cell_angle_gamma	82.877471
loop_
_atom_site_label
_atom_site_type_symbol
_atom_site_fract_x
_atom_site_fract_y
_atom_site_fract_z
O1	O	-0.920959	-0.060302	-0.062845
O2	O	-0.718645	-0.068436	-0.062795
O3	O	-0.826106	0.006011	-0.062805
O4	O	-0.813497	-0.134749	-0.062835
O5	O	-0.826088	0.006015	0.062383
O6	O	-0.718626	-0.068432	0.062394
O7	O	-0.920940	-0.060298	0.062343
Cu8	Cu	-0.819781	-0.064365	0.073799
Cu9	Cu	-0.819803	-0.064369	-0.074251
O10	O	-0.813478	-0.134745	0.062354
C11	C	-0.692761	-0.068172	-0.000194
C12	C	-0.615662	-0.067387	-0.000174
C13	C	-0.825839	0.024021	-0.000209
C14	C	-0.825061	0.077680	-0.000201
C15	C	-0.946824	-0.060561	-0.000259
C16	C	-1.023923	-0.061347	-0.000284
C17	C	-0.570680	-0.111069	-0.000195
C18	C	-0.498238	-0.110331	-0.000203
C19	C	-0.470781	-0.065908	-0.000206
C20	C	-0.515773	-0.022220	-0.000180
C21	C	-0.588214	-0.022960	-0.000165
C22	C	-0.362754	-0.030988	-0.044083
C23	C	-0.290314	-0.030250	-0.044103
C24	C	-0.247350	-0.063626	-0.000251
C25	C	-0.276833	-0.097746	0.043612
C26	C	-0.349274	-0.098486	0.043628
C27	C	-0.392232	-0.065101	-0.000222
C28	C	-0.123818	-0.106510	-0.000279
C29	C	-0.051374	-0.105770	-0.000283
C30	C	-0.068911	-0.017658	-0.000268
C31	C	-0.141353	-0.018400	-0.000257
C32	C	-0.168801	-0.062827	-0.000266
N33	N	-0.819771	-0.064361	0.177930
C34	C	-0.820175	0.410410	-0.068477
C35	C	-0.817221	0.612078	-0.068490
O36	O	-0.816818	0.638148	-0.126527
N37	N	-0.816844	0.637298	-0.000251
C38	C	-0.817201	0.612098	0.067997
O39	O	-0.816805	0.638176	0.126039
C40	C	-0.820150	0.410431	0.068009
C41	C	-0.820534	0.385214	-0.000235
C42	C	-0.820559	0.385193	-0.136716
C43	C	-0.821301	0.334779	-0.136712
C44	C	-0.821660	0.309583	-0.068470
C45	C	-0.821277	0.334800	-0.000231
C46	C	-0.820502	0.385231	0.136256
C47	C	-0.821238	0.334811	0.136253
C48	C	-0.821622	0.309594	0.068009
C49	C	-0.822378	0.259190	0.068015
N50	N	-0.822756	0.233970	-0.000224
C51	C	-0.822397	0.259166	-0.068467
C52	C	-0.815653	0.717976	0.067986
C53	C	-0.814917	0.768393	0.067983
C54	C	-0.814936	0.768369	-0.068505
C55	C	-0.815677	0.717952	-0.068501
C56	C	-0.816030	0.692756	-0.000254
C57	C	-0.823956	0.153294	-0.068453
C58	C	-0.824702	0.102876	-0.068443
C59	C	-0.824679	0.102904	0.068044
C60	C	-0.823937	0.153318	0.068034
C61	C	-0.823574	0.178511	-0.000220
O62	O	-0.822774	0.233088	0.126021
O63	O	-0.822777	0.233078	-0.126500
C64	C	-0.819433	0.460823	-0.068481
C65	C	-0.819050	0.486041	-0.000243
C66	C	-0.819409	0.460844	0.068000
C67	C	-0.818313	0.536457	-0.000246
C68	C	-0.817954	0.561654	-0.068488
C69	C	-0.818332	0.536433	-0.136728
C70	C	-0.819074	0.486020	-0.136724
C71	C	-0.819031	0.486065	0.136239
C72	C	-0.818290	0.536478	0.136230
C73	C	-0.817931	0.561675	0.067987
C74	C	-0.813755	0.847246	-0.000245
C75	C	-0.814558	0.793589	-0.000260
N76	N	-0.819820	-0.064369	-0.178381
C77	C	-0.867370	-0.031412	0.217312
C78	C	-0.867374	-0.031410	0.296114
C79	C	-0.819785	-0.064365	0.335530
C80	C	-0.772177	-0.097317	0.296138
C81	C	-0.772170	-0.097315	0.217338
C82	C	-0.810199	-0.108409	0.460360
C83	C	-0.810211	-0.108412	0.539159
C84	C	-0.819804	-0.064371	0.578576
C85	C	-0.829400	-0.020326	0.539185
C86	C	-0.829393	-0.020324	0.460385
C87	C	-0.819788	-0.064371	0.420976
C88	C	-0.867410	-0.031417	0.703405
C89	C	-0.867409	-0.031414	0.782208
C90	C	-0.772216	-0.097325	0.782231
C91	C	-0.772214	-0.097323	0.703429
C92	C	-0.819814	-0.064370	0.664021
H93	H	-0.593024	-0.147245	-0.000204
N94	N	-0.918762	0.004118	0.824689
H95	H	-0.948920	0.024988	0.787763
H96	H	-0.949254	-0.014349	0.857352
N97	N	-0.720874	-0.132861	0.660947
H98	H	-0.690725	-0.153738	0.697872
H99	H	-0.747221	-0.154185	0.628227
H100	H	-0.819386	0.465492	-0.192295
H101	H	-0.821515	0.314298	0.191830
N102	N	-0.814517	0.795587	0.141591
H103	H	-0.771566	0.782802	0.171435
H104	H	-0.814024	0.831344	0.131181
H105	H	-0.733466	-0.124156	0.814323
N106	N	-0.636735	0.024157	-0.000139
H107	H	-0.608352	0.052412	-0.000138
H108	H	-0.667198	0.025769	-0.046541
N109	N	-0.189867	0.028718	-0.000246
H110	H	-0.220339	0.030374	-0.046646
H111	H	-0.220243	0.030351	0.046199
H112	H	-0.837204	0.015539	0.428316
H113	H	-0.802402	-0.144276	0.571226
H114	H	-0.461607	-0.145903	-0.000218
H115	H	-0.733408	-0.124146	0.185272
N116	N	-0.799852	-0.155913	0.417849
H117	H	-0.793783	-0.183814	0.454759
H118	H	-0.842015	-0.158657	0.385133
N119	N	-0.839751	0.027180	0.581686
H120	H	-0.838297	0.020497	0.637583
H121	H	-0.801360	0.047243	0.567938
H122	H	-0.823631	0.173851	0.123604
N123	N	-0.825119	0.075678	-0.142052
H124	H	-0.824777	0.099293	-0.185282
H125	H	-0.782352	0.050743	-0.145016
H126	H	-0.241853	-0.124923	0.079322
H127	H	-0.266315	-0.002469	-0.079822
H128	H	-0.906168	-0.004582	0.671317
H129	H	-0.824974	0.082380	0.123605
N130	N	-0.381074	-0.135278	0.090947
H131	H	-0.433484	-0.130679	0.084302
H132	H	-0.361661	-0.169146	0.074547
N133	N	-0.918704	0.004131	0.174806
H134	H	-0.967938	-0.001351	0.188492
H135	H	-0.911028	0.038409	0.188557
H136	H	-0.733429	-0.124148	0.328235
H137	H	-0.823657	0.173800	-0.124033
N138	N	-0.409088	0.005014	-0.091382
H139	H	-0.395617	0.000637	-0.146114
H140	H	-0.459436	-0.000649	-0.084654
H141	H	-0.815944	0.697467	0.123564
N142	N	-0.486157	0.025691	-0.000177
H143	H	-0.456519	0.027962	-0.046591
H144	H	-0.525684	0.053226	-0.000131
N145	N	-0.153430	-0.154425	-0.000286
H146	H	-0.113939	-0.181987	-0.000294
H147	H	-0.183082	-0.156649	0.046127
N148	N	-0.817962	0.563618	-0.210332
H149	H	-0.818322	0.539997	-0.253568
H150	H	-0.860738	0.588546	-0.213296
H151	H	-0.817982	0.557006	0.191807
N152	N	-0.821712	0.307584	-0.210318
H153	H	-0.821370	0.331202	-0.253544
H154	H	-0.778942	0.282651	-0.213282
H155	H	-0.820264	0.405702	-0.192290
H156	H	-0.014750	-0.141343	-0.000295
N157	N	-0.816092	0.690755	-0.142106
H158	H	-0.815754	0.714372	-0.185334
H159	H	-0.773321	0.665823	-0.145072
H160	H	-0.906136	-0.004578	0.328185
H161	H	-0.814644	0.788893	-0.124071
N162	N	-0.819421	0.458893	0.209847
H163	H	-0.819071	0.482524	0.253071
H164	H	-0.862807	0.441994	0.212811
H165	H	-0.046556	0.018511	-0.000316
N166	N	-0.820089	0.412421	0.209863
H167	H	-0.820424	0.388802	0.253088
H168	H	-0.776705	0.429323	0.212846
