data_functionalizedCrystal
_audit_creation_method	'MofGen! by Chris Wilmer'
_symmetry_space_group_name_H-M	'P1'
_symmetry_Int_Tables_number	1
_symmetry_cell_setting	triclinic
loop_
_symmetry_equiv_pos_as_xyz
  x,y,z
_cell_length_a	19.805407
_cell_length_b	18.101397
_cell_length_c	19.805399
_cell_angle_alpha	89.970675
_cell_angle_beta	89.980427
_cell_angle_gamma	90.020466
loop_
_atom_site_label
_atom_site_type_symbol
_atom_site_fract_x
_atom_site_fract_y
_atom_site_fract_z
Zn1	Zn	1.034764	-0.294847	-0.382711
Zn2	Zn	1.034690	-0.418690	-0.269520
Zn3	Zn	0.921578	-0.294867	-0.269536
Zn4	Zn	0.921554	-0.418651	-0.382667
O5	O	0.978146	-0.356764	-0.326108
O6	O	1.129470	-0.311283	-0.367708
O7	O	1.019665	-0.402290	-0.174805
O8	O	0.936634	-0.191232	-0.284575
O9	O	1.129417	-0.402270	-0.284547
O10	O	1.019790	-0.191217	-0.367724
O11	O	0.936562	-0.311318	-0.174817
O12	O	0.826858	-0.311279	-0.284531
O13	O	0.936591	-0.402203	-0.477389
O14	O	0.826840	-0.402223	-0.367648
O15	O	1.019766	-0.311245	-0.477422
O16	O	1.019641	-0.522318	-0.284503
O17	O	0.936520	-0.522289	-0.367632
C18	C	0.802290	-0.356750	-0.326087
C19	C	0.727058	-0.356761	-0.326093
C20	C	0.691722	-0.404187	-0.369302
C21	C	0.621034	-0.404188	-0.369311
C22	C	0.585683	-0.356767	-0.326108
C23	C	0.621024	-0.309336	-0.282898
C24	C	0.691711	-0.309332	-0.282892
C25	C	0.335950	-0.309353	-0.282920
C26	C	0.265258	-0.309362	-0.282928
C27	C	0.265274	-0.404209	-0.369339
C28	C	0.335961	-0.404205	-0.369334
C29	C	0.371295	-0.356771	-0.326126
C30	C	0.447944	-0.356770	-0.326117
C31	C	0.509036	-0.356772	-0.326113
C32	C	0.978088	-0.549174	-0.326076
C33	C	0.978126	-0.631488	-0.326084
C34	C	0.978212	-0.930579	-0.326146
C35	C	1.030364	-0.899242	-0.273704
C36	C	1.030544	-0.813623	-0.273840
C37	C	0.978169	-0.782197	-0.326115
C38	C	0.997504	-0.813206	-0.397460
C39	C	0.997908	-0.898851	-0.397174
C40	C	0.906586	-0.899088	-0.307861
C41	C	0.906940	-0.813438	-0.306268
C42	C	0.978144	-0.698337	-0.326101
C43	C	0.978239	-1.014439	-0.326164
C44	C	1.154689	-0.356779	-0.326131
C45	C	1.229921	-0.356785	-0.326140
C46	C	0.978184	-0.356717	-0.502651
C47	C	0.978201	-0.356697	-0.577883
C48	C	0.978223	-0.163602	-0.326156
C49	C	0.978256	-0.081288	-0.326177
C50	C	1.021511	-0.309333	-0.613246
C51	C	1.021518	-0.309311	-0.683934
C52	C	0.978217	-0.356659	-0.719259
C53	C	0.934902	-0.404025	-0.683892
C54	C	0.934893	-0.404042	-0.613204
C55	C	0.934941	-0.403956	-0.968965
C56	C	0.934955	-0.403937	-1.039657
C57	C	1.021566	-0.309225	-1.039695
C58	C	1.021556	-0.309242	-0.969008
C59	C	0.978239	-0.356606	-0.933646
C60	C	0.978231	-0.356627	-0.856998
C61	C	0.978228	-0.356641	-0.795906
C62	C	0.978148	-0.356757	-0.150252
C63	C	0.978263	-0.356568	-0.075021
H64	H	0.364740	-0.442822	-0.404512
H65	H	0.899644	-0.442573	-0.712659
C66	C	1.069139	-0.257247	-0.574395
H67	H	1.094928	-0.229030	-0.605582
H68	H	1.098616	-0.285579	-0.546816
H69	H	1.043248	-0.224982	-0.546826
H70	H	0.592235	-0.270722	-0.247724
H71	H	0.720480	-0.270709	-0.247711
C72	C	0.854089	-0.926467	-0.359452
H73	H	0.810913	-0.907252	-0.348142
H74	H	0.852529	-0.978912	-0.358707
H75	H	0.866439	-0.910116	-0.403340
H76	H	0.364711	-0.270735	-0.247733
H77	H	1.018448	-0.792660	-0.220938
H78	H	1.049274	-0.791699	-0.413210
H79	H	0.236477	-0.270742	-0.247747
H80	H	0.236496	-0.442829	-0.404524
C81	C	1.069175	-0.257230	-0.722833
H82	H	1.062979	-0.263999	-0.769991
H83	H	1.114640	-0.268093	-0.711248
H84	H	1.059300	-0.207466	-0.711265
H85	H	1.018413	-0.919883	-0.220644
H86	H	1.083130	-0.920710	-0.285663
H87	H	1.056818	-0.270690	-0.940250
C88	C	1.102216	-0.785865	-0.290187
H89	H	1.131334	-0.826933	-0.296778
H90	H	1.118450	-0.756741	-0.253756
H91	H	1.101083	-0.756807	-0.330127
H92	H	1.050263	-0.918770	-0.412663
C93	C	0.948833	-0.926856	-0.451765
H94	H	0.928741	-0.885889	-0.474022
H95	H	0.914626	-0.956064	-0.431283
H96	H	0.972865	-0.955884	-0.483681
C97	C	0.947767	-0.785701	-0.451668
H98	H	0.914690	-0.754986	-0.431222
H99	H	0.926280	-0.826823	-0.472301
H100	H	0.971648	-0.758311	-0.484919
H101	H	1.056834	-0.270657	-1.068494
C102	C	0.882825	-0.928338	-0.238796
H103	H	0.916370	-0.960033	-0.220465
H104	H	0.841897	-0.955044	-0.244283
H105	H	0.875565	-0.887979	-0.209025
C106	C	0.887237	-0.786065	-0.235344
H107	H	0.922268	-0.755720	-0.217897
H108	H	0.880669	-0.827253	-0.206333
H109	H	0.846623	-0.758316	-0.238052
C110	C	0.851621	-0.784552	-0.354087
H111	H	0.871331	-0.752924	-0.386931
H112	H	0.818965	-0.757851	-0.328831
H113	H	0.830448	-0.825066	-0.376015
C114	C	0.887318	-0.456016	-1.078513
H115	H	0.861513	-0.484221	-1.047330
H116	H	0.913198	-0.488281	-1.106085
H117	H	0.857845	-0.427667	-1.106090
H118	H	0.899679	-0.442533	-0.940182
H119	H	0.899618	-0.442604	-0.584413
H120	H	0.592267	-0.442808	-0.404496
C121	C	0.730603	-0.456350	-0.416827
H122	H	0.699431	-0.484589	-0.442566
H123	H	0.758159	-0.488579	-0.390882
H124	H	0.758196	-0.428055	-0.446366
