data_functionalizedCrystal
_audit_creation_method	'MofGen! by Chris Wilmer'
_symmetry_space_group_name_H-M	'P1'
_symmetry_Int_Tables_number	1
_symmetry_cell_setting	triclinic
loop_
_symmetry_equiv_pos_as_xyz
  x,y,z
_cell_length_a	27.440280
_cell_length_b	16.704486
_cell_length_c	16.704493
_cell_angle_alpha	60.347015
_cell_angle_beta	94.167076
_cell_angle_gamma	57.656690
loop_
_atom_site_label
_atom_site_type_symbol
_atom_site_fract_x
_atom_site_fract_y
_atom_site_fract_z
Zr1	Zr	0.419928	0.947464	-0.174225
O2	O	0.327880	1.128084	-0.315557
O3	O	0.454084	0.766858	-0.121780
O4	O	0.438119	0.947462	-0.302385
O5	O	0.349683	0.947476	-0.002861
O6	O	0.518323	0.947445	-0.302367
O7	O	0.343844	0.947479	-0.134953
O8	O	0.546881	0.624377	0.020702
O9	O	0.321125	1.270544	-0.325930
O10	O	0.521332	0.841126	-0.110417
O11	O	0.465834	0.841137	-0.011852
O12	O	0.447038	1.053775	-0.224491
O13	O	0.391540	1.053785	-0.125926
Zr14	Zr	0.557157	0.947433	0.036474
Zr15	Zr	0.547845	0.947437	-0.174197
Zr16	Zr	0.429240	0.947459	0.036445
Zr17	Zr	0.409156	1.174672	-0.190768
Zr18	Zr	0.567929	0.720224	0.053017
O19	O	0.523001	1.128039	-0.015971
O20	O	0.509761	1.128046	-0.315517
O21	O	0.341121	1.128077	-0.016011
O22	O	0.649205	0.766813	0.177806
O23	O	0.635965	0.766820	-0.121740
O24	O	0.467324	0.766851	0.177766
O25	O	0.627402	0.947420	-0.134890
O26	O	0.538966	0.947434	0.164634
O27	O	0.458762	0.947451	0.164616
O28	O	0.633241	0.947417	-0.002799
O29	O	0.422802	1.270523	-0.325908
O30	O	0.554283	0.624373	0.188157
O31	O	0.655960	0.624352	0.188179
O32	O	0.648558	0.624356	0.020724
O33	O	0.328527	1.270540	-0.158475
O34	O	0.430204	1.270519	-0.158453
O35	O	0.530047	0.841122	0.086740
O36	O	0.585545	0.841112	-0.011825
O37	O	0.511251	1.053760	-0.125899
O38	O	0.455753	1.053770	-0.027334
C39	C	0.502017	0.663245	-0.048182
C40	C	0.506591	0.566789	-0.041159
C41	C	0.412931	0.542546	-0.184983
C42	C	0.417225	0.451922	-0.178390
C43	C	0.519474	0.294917	-0.021384
C44	C	0.515180	0.385541	-0.027977
C45	C	0.461907	0.509355	-0.109779
C46	C	0.457611	0.599980	-0.116367
C47	C	0.559862	0.442974	0.040634
C48	C	0.564156	0.352350	0.047227
C49	C	0.328538	0.947482	-0.068911
C50	C	0.274234	0.947493	-0.068923
C51	C	-0.023676	0.836428	-0.009302
C52	C	-0.074694	0.836421	-0.009292
O53	O	-0.068099	0.742020	0.041379
N54	N	-0.138991	0.947420	-0.068839
C55	C	-0.152271	1.058433	-0.128390
O56	O	-0.211646	1.152846	-0.179037
C57	C	-0.101253	1.058439	-0.128393
C58	C	-0.036956	0.947432	-0.068851
C59	C	0.040618	0.725430	0.050236
C60	C	0.091632	0.725438	0.050225
C61	C	0.078352	0.836442	-0.009324
C62	C	0.014058	0.947440	-0.068862
C63	C	-0.114533	1.169450	-0.187937
C64	C	-0.063509	1.169446	-0.187934
C65	C	0.000789	1.058440	-0.128392
C66	C	0.051792	1.058451	-0.128422
N67	N	0.116089	0.947452	-0.068875
C68	C	0.129369	0.836448	-0.009326
C69	C	-0.259408	1.058413	-0.128378
C70	C	-0.310425	1.058409	-0.128382
C71	C	-0.232845	0.836396	-0.009283
C72	C	-0.181827	0.836402	-0.009285
C73	C	-0.195110	0.947414	-0.068832
C74	C	0.236500	0.836471	-0.009354
C75	C	0.287515	0.836488	-0.009374
C76	C	0.209930	1.058500	-0.128469
C77	C	0.158919	1.058484	-0.128454
C78	C	0.172209	0.947459	-0.068889
O79	O	0.045246	1.152805	-0.179063
O80	O	0.188745	0.742051	0.041323
C81	C	0.648547	0.947415	-0.068840
C82	C	0.702851	0.947404	-0.068828
C83	C	0.476894	0.947454	-0.332392
C84	C	0.472941	0.947457	-0.421827
C85	C	0.475068	1.231651	-0.089569
C86	C	0.470495	1.328107	-0.096592
C87	C	0.553902	0.947420	-0.589855
C88	C	0.550190	0.947421	-0.673887
C89	C	0.461809	0.947453	-0.673921
C90	C	0.465521	0.947451	-0.589888
C91	C	0.511568	0.947436	-0.547860
C92	C	0.515277	0.947443	-0.463831
C93	C	0.426899	0.947466	-0.463861
C94	C	0.423187	0.947468	-0.547893
C95	C	0.500191	0.947442	0.194641
C96	C	0.504144	0.947440	0.284076
C97	C	0.662022	0.663212	-0.048147
C98	C	0.720899	0.566745	-0.041112
C99	C	0.513665	0.663239	0.215334
C100	C	0.522192	0.566781	0.311793
C101	C	0.673670	0.663206	0.215370
C102	C	0.736500	0.566736	0.311840
C103	C	0.303416	1.231691	-0.353121
C104	C	0.240585	1.328160	-0.449591
C105	C	0.315064	1.231685	-0.089604
C106	C	0.256187	1.328152	-0.096640
C107	C	0.463420	1.231658	-0.353086
C108	C	0.454893	1.328116	-0.449544
C109	C	0.715029	0.521450	-0.089280
C110	C	0.770344	0.430822	-0.082691
C111	C	0.831529	0.385483	-0.027925
C112	C	0.837397	0.430786	0.020244
C113	C	0.782082	0.521419	0.013648
C114	C	0.559715	0.521476	0.408563
C115	C	0.567724	0.430856	0.499203
C116	C	0.538213	0.385537	0.493071
C117	C	0.500685	0.430851	0.396290
C118	C	0.492673	0.521475	0.305652
C119	C	0.794981	0.521428	0.305694
C120	C	0.854021	0.430798	0.396329
C121	C	0.854579	0.385471	0.493110
C122	C	0.796091	0.430788	0.499254
C123	C	0.737053	0.521423	0.408619
C124	C	0.182104	1.373480	-0.443446
C125	C	0.123063	1.464138	-0.534083
C126	C	0.122505	1.509470	-0.630864
C127	C	0.180992	1.464147	-0.637008
C128	C	0.240031	1.373496	-0.546372
C129	C	0.262055	1.373456	-0.048480
C130	C	0.206738	1.464109	-0.055095
C131	C	0.145553	1.509451	-0.109863
C132	C	0.139686	1.464144	-0.158029
C133	C	0.195002	1.373498	-0.151420
C134	C	0.484413	1.373406	-0.443378
C135	C	0.476414	1.464026	-0.534002
C136	C	0.438891	1.509361	-0.630791
C137	C	0.409371	1.464062	-0.636954
C138	C	0.417374	1.373437	-0.546331
H139	H	0.369545	0.643360	-0.251573
H140	H	0.287647	1.336598	-0.551388
H141	H	0.583748	0.558364	0.413576
C142	C	0.329353	1.323602	0.011766
N143	N	0.380040	1.286065	0.057140
H144	H	0.100517	1.583261	-0.115237
C145	C	0.411176	0.947426	-0.720143
N146	N	0.373043	0.947394	-0.754953
H147	H	0.180530	1.501067	-0.715818
H148	H	0.393332	1.336572	-0.551366
C149	C	0.796717	0.380905	0.605724
N150	N	0.797190	0.343323	0.685921
H151	H	0.591391	0.947419	-0.555641
C152	C	0.380329	0.947485	-0.417659
N153	N	0.345253	0.947501	-0.382860
H154	H	0.182547	1.336575	-0.364650
C155	C	0.072378	1.514017	-0.218254
N156	N	0.021680	1.551574	-0.263606
H157	H	0.598284	0.393971	0.577997
H158	H	0.599739	0.415953	0.101875
H159	H	0.901637	0.393909	0.391308
C160	C	0.188536	1.323660	-0.204389
N161	N	0.183662	1.286124	-0.244288
H162	H	0.143982	0.635045	0.098706
H163	H	0.765554	0.393947	-0.121917
H164	H	0.211528	1.500984	-0.015868
C165	C	0.672726	0.571250	0.415398
N166	N	0.624277	0.608777	0.420511
H167	H	0.544742	0.311745	0.566882
C168	C	0.596762	0.947397	-0.720076
N169	N	0.631843	0.947375	-0.754864
H170	H	0.887220	0.393858	0.064833
H171	H	0.051443	0.635032	0.098734
C172	C	0.525696	1.323548	-0.336918
N173	N	0.556795	1.285994	-0.256734
H174	H	0.385698	0.947476	-0.582120
H175	H	-0.362776	1.148802	-0.176880
H176	H	0.378820	1.500988	-0.715772
H177	H	0.476660	0.393939	0.391312
H178	H	0.074426	1.583283	-0.704657
H179	H	0.075447	1.501025	-0.529060
H180	H	0.500453	1.500899	-0.528963
C181	C	0.251127	0.714339	0.056162
N182	N	0.262145	0.622348	0.105503
H183	H	0.794539	0.558320	0.226898
H184	H	0.432380	1.583154	-0.704574
H185	H	0.902656	0.311670	0.566902
C186	C	0.399010	0.736176	-0.206352
N187	N	0.354872	0.838759	-0.274134
C188	C	0.578073	0.158714	0.068585
N189	N	0.622210	0.056124	0.136352
C190	C	0.363346	0.488441	-0.261115
N191	N	0.322760	0.515951	-0.323426
H192	H	0.607531	0.251531	0.113824
H193	H	0.339869	0.746090	0.039116
H194	H	0.665214	0.558364	-0.133888
H195	H	-0.129476	0.746011	0.039208
H196	H	0.786870	0.558286	0.052880
H197	H	0.876564	0.311682	-0.022561
H198	H	-0.222039	0.746010	0.039202
C199	C	0.451402	0.571288	0.199207
N200	N	0.420316	0.608801	0.119035
H201	H	-0.270233	1.148818	-0.176873
H202	H	0.106563	1.148874	-0.176950
H203	H	-0.074331	1.259848	-0.236413
H204	H	-0.166879	1.259844	-0.236422
C205	C	0.565931	0.947422	-0.417597
N206	N	0.604088	0.947400	-0.382774
H207	H	0.199127	1.148877	-0.176955
