data_functionalizedCrystal
_audit_creation_method	'MofGen! by Chris Wilmer'
_symmetry_space_group_name_H-M	'P1'
_symmetry_Int_Tables_number	1
_symmetry_cell_setting	triclinic
loop_
_symmetry_equiv_pos_as_xyz
  x,y,z
_cell_length_a	19.121368
_cell_length_b	19.121112
_cell_length_c	14.908308
_cell_angle_alpha	89.018539
_cell_angle_beta	90.698484
_cell_angle_gamma	90.107957
loop_
_atom_site_label
_atom_site_type_symbol
_atom_site_fract_x
_atom_site_fract_y
_atom_site_fract_z
Zn1	Zn	0.348403	1.034389	0.547672
Zn2	Zn	0.458919	1.036679	0.390910
Zn3	Zn	0.336716	0.924454	0.391453
Zn4	Zn	0.460047	0.912764	0.534877
O5	O	0.401021	0.977071	0.466228
O6	O	0.367483	1.132560	0.532004
O7	O	0.437346	1.027643	0.265354
O8	O	0.240400	0.942971	0.417758
O9	O	0.448679	1.134242	0.416832
O10	O	0.248987	1.023740	0.532531
O11	O	0.347563	0.945191	0.265753
O12	O	0.348656	0.825036	0.405352
O13	O	0.450601	0.923047	0.662203
O14	O	0.439267	0.816447	0.510724
O15	O	0.368576	1.012404	0.671603
O16	O	0.556935	1.016307	0.404426
O17	O	0.557763	0.925267	0.510198
C18	C	0.392817	0.795366	0.456709
C19	C	0.389324	0.717630	0.452657
C20	C	0.218609	0.984404	0.476632
C21	C	0.140875	0.987529	0.481066
C22	C	0.367170	0.278194	0.426995
C23	C	0.370455	0.351235	0.430807
C24	C	0.419344	0.383301	0.487477
C25	C	0.464945	0.342322	0.540346
C26	C	0.461656	0.269283	0.536538
C27	C	0.431636	0.603611	0.501718
C28	C	0.434924	0.676656	0.505520
C29	C	0.340432	0.685564	0.395981
C30	C	0.337150	0.612522	0.392175
C31	C	0.382749	0.571550	0.445047
C32	C	0.422705	0.457961	0.491373
C33	C	0.379384	0.496892	0.441155
C34	C	0.099884	0.946947	0.423395
C35	C	0.026846	0.949882	0.427570
C36	C	-0.005200	0.993402	0.489412
C37	C	0.035796	1.033984	0.547089
C38	C	0.108833	1.031046	0.542918
C39	C	-0.225502	1.004375	0.505000
C40	C	-0.298544	1.007312	0.509165
C41	C	-0.307490	0.923208	0.389646
C42	C	-0.234451	0.920276	0.385476
C43	C	-0.193461	0.960856	0.443157
C44	C	-0.079857	0.996404	0.493679
C45	C	-0.118805	0.957850	0.438894
C46	C	0.582726	0.969785	0.455885
C47	C	0.660465	0.966731	0.451493
C48	C	0.411018	0.966166	0.700388
C49	C	0.415278	0.961519	0.800173
C50	C	0.409259	1.159486	0.475785
C51	C	0.412769	1.237221	0.479858
C52	C	0.391015	0.987976	0.232984
C53	C	0.386564	0.992767	0.133218
C54	C	0.337855	1.045833	0.997470
C55	C	0.341855	1.041469	1.091227
C56	C	0.427275	0.948424	1.081446
C57	C	0.423274	0.952788	0.987689
C58	C	0.378564	1.001495	0.945704
C59	C	0.374568	1.005862	0.851945
C60	C	0.459983	0.912814	0.842166
C61	C	0.463983	0.908450	0.935923
H62	H	0.327360	0.252092	0.380846
O63	O	0.470619	0.901013	1.122191
C64	C	0.451221	0.832994	1.096475
H65	H	0.394093	0.832911	1.073697
H66	H	0.458313	0.795326	1.155977
H67	H	0.485571	0.815743	1.038960
H68	H	-0.105955	1.031840	0.544031
O69	O	0.499596	0.869703	0.792013
C70	C	0.539898	0.825766	0.849179
H71	H	0.546466	0.851204	0.917374
H72	H	0.593507	0.817348	0.818559
H73	H	0.512313	0.773217	0.857831
H74	H	-0.092710	0.922413	0.388546
H75	H	0.301453	1.085496	0.963286
H76	H	-0.340870	0.890169	0.342686
H77	H	0.333327	0.384593	0.387756
O78	O	0.004700	1.076175	0.607288
C79	C	0.025692	1.056012	0.694942
H80	H	0.043440	0.999123	0.695397
H81	H	-0.020174	1.061900	0.742352
H82	H	0.070783	1.090709	0.717957
O83	O	-0.329562	1.049595	0.569332
C84	C	-0.277723	1.084791	0.619338
H85	H	-0.226819	1.053910	0.617966
H86	H	-0.295469	1.089791	0.691667
H87	H	-0.268962	1.139131	0.588819
H88	H	0.339577	0.470780	0.395018
H89	H	0.462512	0.484077	0.537511
O90	O	0.289594	0.581487	0.337109
C91	C	0.250062	0.633315	0.291250
H92	H	0.251600	0.683770	0.330875
H93	H	0.193594	0.614859	0.283831
H94	H	0.273023	0.643226	0.221963
O95	O	0.302287	1.084614	1.141379
C96	C	0.261955	1.128524	1.084213
H97	H	0.287858	1.132906	1.015874
H98	H	0.258134	1.182665	1.114612
H99	H	0.207260	1.105508	1.075928
O100	O	0.507494	0.861234	0.976752
C101	C	0.556759	0.896714	1.030516
H102	H	0.562356	0.952939	1.004900
H103	H	0.609486	0.869212	1.027191
H104	H	0.538274	0.896682	1.102930
H105	H	0.338163	1.045523	0.817763
H106	H	0.303308	0.718931	0.352937
H107	H	0.125970	0.911511	0.373033
O108	O	-0.203360	0.877891	0.325497
C109	C	-0.223538	0.807996	0.342476
H110	H	-0.240707	0.801936	0.415158
H111	H	-0.177402	0.771868	0.330187
H112	H	-0.268820	0.793665	0.295812
H113	H	0.468768	0.570260	0.544767
O114	O	0.482434	0.707693	0.560657
C115	C	0.521986	0.655869	0.606493
H116	H	0.491137	0.604803	0.608580
H117	H	0.533497	0.673393	0.677880
H118	H	0.573305	0.647504	0.570085
H119	H	-0.192136	1.037426	0.551957
O120	O	0.512365	0.373436	0.595528
C121	C	0.500221	0.352031	0.684969
H122	H	0.443650	0.333976	0.691756
H123	H	0.510357	0.397764	0.731465
H124	H	0.536834	0.307045	0.704010
O125	O	0.505853	0.229445	0.587987
C126	C	0.466680	0.186085	0.646099
H127	H	0.412840	0.210045	0.656044
H128	H	0.494969	0.181032	0.713647
H129	H	0.460556	0.132116	0.615599
H130	H	-0.006529	0.916837	0.380610
O131	O	0.148688	1.070359	0.599026
C132	C	0.191623	1.026136	0.652490
H133	H	0.167355	0.971684	0.656404
H134	H	0.196552	1.048176	0.722859
H135	H	0.245681	1.022789	0.621443
