data_functionalizedCrystal
_audit_creation_method	'MofGen! by Chris Wilmer'
_symmetry_space_group_name_H-M	'P1'
_symmetry_Int_Tables_number	1
_symmetry_cell_setting	triclinic
loop_
_symmetry_equiv_pos_as_xyz
  x,y,z
_cell_length_a	19.288840
_cell_length_b	16.109301
_cell_length_c	18.366186
_cell_angle_alpha	89.993749
_cell_angle_beta	89.983729
_cell_angle_gamma	83.293800
loop_
_atom_site_label
_atom_site_type_symbol
_atom_site_fract_x
_atom_site_fract_y
_atom_site_fract_z
O1	O	0.921611	0.103617	-0.060671
O2	O	0.719382	0.117629	-0.060646
O3	O	0.826052	-0.010428	-0.060655
O4	O	0.814941	0.231674	-0.060663
O5	O	0.826034	-0.010434	0.060445
O6	O	0.719364	0.117623	0.060453
O7	O	0.921593	0.103610	0.060428
Zn8	Zn	0.820475	0.110616	0.079668
Zn9	Zn	0.820499	0.110624	-0.079886
O10	O	0.814923	0.231667	0.060437
C11	C	0.693495	0.117179	-0.000093
C12	C	0.616387	0.115836	-0.000083
C13	C	0.580192	0.115194	-0.066097
C14	C	0.507742	0.113923	-0.066105
C15	C	0.471492	0.113277	-0.000097
C16	C	0.507695	0.113923	0.065924
C17	C	0.580143	0.115203	0.065931
C18	C	0.362035	0.062549	0.050466
C19	C	0.289590	0.061264	0.050456
C20	C	0.248039	0.109334	-0.000116
C21	C	0.278944	0.158677	-0.050691
C22	C	0.351391	0.159957	-0.050684
C23	C	0.392934	0.111890	-0.000098
C24	C	0.133285	0.107315	-0.066144
C25	C	0.060833	0.106049	-0.066150
C26	C	0.060789	0.106041	0.065882
C27	C	0.133238	0.107315	0.065886
C28	C	0.169482	0.107948	-0.000129
C29	C	0.825593	-0.041404	-0.000105
C30	C	0.824243	-0.133694	-0.000106
C31	C	0.883128	-0.442900	-0.000126
C32	C	0.884402	-0.356185	-0.000122
C33	C	0.757842	-0.335865	-0.000096
C34	C	0.756568	-0.422579	-0.000095
C35	C	0.819213	-0.476095	-0.000114
C36	C	0.821761	-0.302665	-0.000111
C37	C	0.823143	-0.208644	-0.000106
C38	C	0.817832	-0.570122	-0.000117
C39	C	0.947480	0.104061	-0.000127
C40	C	1.024588	0.105404	-0.000141
C41	C	0.815382	0.262644	-0.000114
C42	C	0.816732	0.354934	-0.000118
N43	N	0.820464	0.110610	0.188559
N44	N	0.820516	0.110624	-0.188777
C45	C	0.867713	0.053934	0.226656
C46	C	0.867718	0.053930	0.302883
C47	C	0.820480	0.110617	0.341012
C48	C	0.773222	0.167297	0.302906
C49	C	0.773214	0.167293	0.226679
C50	C	0.811362	0.186371	0.461770
C51	C	0.811375	0.186376	0.537995
C52	C	0.820499	0.110627	0.576119
C53	C	0.829626	0.034870	0.538009
C54	C	0.829618	0.034867	0.461783
C55	C	0.820482	0.110626	0.423666
C56	C	0.867756	0.053942	0.696871
C57	C	0.867755	0.053937	0.773100
C58	C	0.773263	0.167311	0.773121
C59	C	0.773260	0.167309	0.696893
C60	C	0.820510	0.110625	0.658773
H61	H	0.478266	0.113402	-0.119863
C62	C	0.173154	0.108026	-0.138760
N63	N	0.203182	0.108565	-0.193456
H64	H	0.704518	-0.449605	-0.000082
H65	H	0.162709	0.107832	0.119641
C66	C	0.021019	0.105339	-0.138773
N67	N	-0.008969	0.104801	-0.193475
H68	H	0.031274	0.105520	0.119627
H69	H	0.609697	0.115710	-0.119851
H70	H	0.936448	-0.329163	-0.000131
H71	H	0.906195	0.007776	0.333907
C72	C	0.255600	0.006994	0.106094
N73	N	0.230001	-0.033880	0.148006
C74	C	0.952040	-0.501765	-0.000137
N75	N	1.003946	-0.546100	-0.000141
C76	C	0.233242	0.211564	-0.106321
N77	N	0.198817	0.251397	-0.148219
C78	C	0.721332	0.229718	0.654985
N79	N	0.682232	0.276746	0.623421
C80	C	0.688936	-0.276990	-0.000086
N81	N	0.637034	-0.232646	-0.000082
H82	H	0.395861	0.023403	0.091651
C83	C	0.801324	0.269706	0.419841
N84	N	0.793764	0.332472	0.388261
C85	C	0.919683	-0.008428	0.184727
N86	N	0.958826	-0.055402	0.153146
C87	C	0.385379	0.214278	-0.106282
N88	N	0.410977	0.255210	-0.148147
C89	C	0.919724	-0.008428	0.815006
N90	N	0.958865	-0.055407	0.846570
H91	H	0.734798	0.213463	0.804164
C92	C	0.801328	0.269709	0.579909
N93	N	0.793757	0.332477	0.611477
H94	H	0.837048	-0.026817	0.430756
H95	H	0.906228	0.007784	0.665832
C96	C	0.839662	-0.048460	0.579940
N97	N	0.847222	-0.111223	0.611525
H98	H	0.734759	0.213450	0.333954
H99	H	0.609612	0.115726	0.119689
H100	H	0.734737	0.213446	0.195661
H101	H	0.478175	0.113399	0.119669
