data_functionalizedCrystal
_audit_creation_method	'MofGen! by Chris Wilmer'
_symmetry_space_group_name_H-M	'P1'
_symmetry_Int_Tables_number	1
_symmetry_cell_setting	triclinic
loop_
_symmetry_equiv_pos_as_xyz
  x,y,z
_cell_length_a	35.277628
_cell_length_b	35.288095
_cell_length_c	35.277682
_cell_angle_alpha	59.997929
_cell_angle_beta	89.998958
_cell_angle_gamma	60.000166
loop_
_atom_site_label
_atom_site_type_symbol
_atom_site_fract_x
_atom_site_fract_y
_atom_site_fract_z
O1	O	-0.323087	-0.271234	0.011271
O2	O	-0.267964	-0.193634	-0.011228
O3	O	-0.267962	-0.271233	0.066395
O4	O	-0.323089	-0.193635	-0.066351
O5	O	-0.204915	-0.334261	0.066394
O6	O	-0.204918	-0.256661	-0.011228
O7	O	-0.260040	-0.334261	0.011271
Zn8	Zn	-0.222469	-0.305468	0.000022
Zn9	Zn	-0.305535	-0.222427	0.000022
O10	O	-0.260043	-0.256662	-0.066351
C11	C	-0.163481	-0.071298	-0.023519
C12	C	-0.186872	-0.024531	-0.020298
C13	C	-0.117860	-0.093995	-0.023838
C14	C	-0.163483	-0.139918	-0.023524
C15	C	-0.186875	-0.166518	-0.020308
C16	C	-0.117862	-0.162510	-0.023843
C17	C	-0.094838	-0.139921	-0.023519
C18	C	-0.044836	-0.166525	-0.020298
C19	C	-0.186401	-0.093991	-0.023843
C20	C	-0.004439	-0.188019	-0.017694
C21	C	-0.205769	0.013252	-0.017695
C22	C	-0.205774	-0.188010	-0.017709
C23	C	0.046241	-0.214983	-0.014429
C24	C	-0.229477	0.060653	-0.014430
C25	C	-0.229483	-0.214971	-0.014450
C26	C	-0.500364	-0.466062	0.034181
C27	C	-0.477341	-0.511990	0.034503
C28	C	-0.431722	-0.466060	0.034178
C29	C	-0.408804	-0.511988	0.034500
C30	C	-0.431721	-0.534685	0.034181
C31	C	-0.477342	-0.443470	0.034500
C32	C	-0.665895	-0.342485	0.021756
C33	C	-0.712772	-0.317221	0.018243
C34	C	-0.736287	-0.338907	0.016481
C35	C	-0.787116	-0.311512	0.012664
C36	C	-0.712921	-0.385861	0.018236
C37	C	-0.666047	-0.411125	0.021755
C38	C	-0.642533	-0.389434	0.023515
C39	C	-0.389805	-0.687746	0.021758
C40	C	-0.368199	-0.731097	0.018245
C41	C	-0.322995	-0.752841	0.016478
C42	C	-0.299567	-0.799839	0.012662
C43	C	-0.299393	-0.731235	0.018230
C44	C	-0.320995	-0.687892	0.021751
C45	C	-0.366205	-0.666148	0.023512
C46	C	-0.389808	-0.342477	0.021744
C47	C	-0.368205	-0.317208	0.018222
C48	C	-0.322998	-0.338892	0.016457
C49	C	-0.299573	-0.311495	0.012637
C50	C	-0.299398	-0.385842	0.018210
C51	C	-0.321003	-0.411107	0.021730
C52	C	-0.366208	-0.389423	0.023501
C53	C	-0.591706	-0.416830	0.027326
C54	C	-0.551191	-0.438667	0.030366
C55	C	-0.408299	-0.438663	0.030360
C56	C	-0.389629	-0.416824	0.027317
C57	C	-0.408298	-0.581682	0.030365
C58	C	-0.389627	-0.619146	0.027325
C59	C	-0.432024	-0.061845	-0.438511
C60	C	-0.477645	-0.015917	-0.461431
C61	C	-0.432025	-0.061844	-0.369869
C62	C	-0.477645	-0.015916	-0.392892
C63	C	-0.500668	0.006779	-0.438513
C64	C	-0.409106	-0.084435	-0.392891
C65	C	-0.320834	-0.185425	-0.480424
C66	C	-0.299076	-0.210690	-0.502029
C67	C	-0.322531	-0.189005	-0.547237
C68	C	-0.298945	-0.216401	-0.570661
C69	C	-0.367745	-0.142051	-0.570839
C70	C	-0.389497	-0.116787	-0.549237
C71	C	-0.366040	-0.138476	-0.504027
C72	C	-0.666200	0.159838	-0.549704
C73	C	-0.713077	0.203188	-0.571462
C74	C	-0.736595	0.224934	-0.548009
C75	C	-0.787423	0.271931	-0.571594
C76	C	-0.713230	0.203329	-0.502796
C77	C	-0.666353	0.159987	-0.481041
C78	C	-0.642841	0.138241	-0.504500
C79	C	-0.320836	-0.185423	-0.204335
C80	C	-0.299080	-0.210691	-0.157455
C81	C	-0.322536	-0.189006	-0.133940
C82	C	-0.298950	-0.216402	-0.083110
C83	C	-0.367748	-0.142056	-0.157305
C84	C	-0.389502	-0.116792	-0.204182
C85	C	-0.366040	-0.138478	-0.227695
C86	C	-0.389632	-0.111079	-0.480604
C87	C	-0.408436	-0.089241	-0.461934
C88	C	-0.408437	-0.089240	-0.319041
C89	C	-0.389634	-0.111078	-0.278525
C90	C	-0.551496	0.053776	-0.462102
C91	C	-0.592011	0.091239	-0.480906
O92	O	0.196122	-0.334274	0.011291
O93	O	0.063378	-0.256674	-0.011208
O94	O	0.140994	-0.334276	0.066414
O95	O	0.118506	-0.256671	-0.066331
O96	O	0.140996	-0.271251	0.066419
O97	O	0.063380	-0.193649	-0.011203
O98	O	0.196124	-0.271249	0.011296
Zn99	Zn	0.129752	-0.222442	0.000047
Zn100	Zn	0.129750	-0.305480	0.000041
O101	O	0.118508	-0.193647	-0.066327
O102	O	-0.260036	0.184774	0.011294
O103	O	-0.204910	0.074561	-0.011204
O104	O	-0.204913	0.074554	0.066418
O105	O	-0.260033	0.184781	-0.066328
O106	O	-0.267961	0.074557	0.066413
O107	O	-0.267958	0.074564	-0.011209
O108	O	-0.323083	0.184777	0.011289
Zn109	Zn	-0.305531	0.129671	0.000039
Zn110	Zn	-0.222463	0.129667	0.000046
O111	O	-0.323081	0.184784	-0.066333
O112	O	-0.936929	0.397535	-0.602582
O113	O	-0.804185	0.287317	-0.547454
O114	O	-0.881802	0.287315	-0.547452
O115	O	-0.859312	0.397537	-0.602584
O116	O	-0.881801	0.287314	-0.610498
O117	O	-0.804183	0.287316	-0.610500
O118	O	-0.936927	0.397533	-0.665628
Zn119	Zn	-0.870555	0.342425	-0.648073
Zn120	Zn	-0.870557	0.342426	-0.565008
O121	O	-0.859310	0.397536	-0.665629
O122	O	-0.267961	-0.271234	-0.665316
O123	O	-0.323086	-0.193638	-0.610192
O124	O	-0.323085	-0.271236	-0.610189
O125	O	-0.267962	-0.193636	-0.665319
O126	O	-0.260038	-0.334264	-0.547142
O127	O	-0.260039	-0.256666	-0.547145
O128	O	-0.204914	-0.334262	-0.602269
Zn129	Zn	-0.222466	-0.305471	-0.564697
Zn130	Zn	-0.305534	-0.222429	-0.647764
O131	O	-0.204915	-0.256664	-0.602272
C132	C	-0.094840	-0.456607	0.293255
C133	C	-0.044837	-0.503376	0.316647
C134	C	-0.117862	-0.433912	0.316174
C135	C	-0.163483	-0.387984	0.224612
C136	C	-0.186875	-0.361381	0.174609
C137	C	-0.186401	-0.365393	0.247634
C138	C	-0.163483	-0.387984	0.293255
C139	C	-0.186874	-0.361382	0.316646
C140	C	-0.117862	-0.433912	0.247635
C141	C	-0.205772	-0.339889	0.335543
C142	C	-0.004440	-0.541160	0.335545
C143	C	-0.205773	-0.339888	0.134212
C144	C	-0.229480	-0.312925	0.359250
C145	C	0.046239	-0.588562	0.359254
C146	C	-0.229481	-0.312924	0.083532
C147	C	0.153295	-0.388013	0.293279
C148	C	0.150076	-0.361413	0.316673
C149	C	0.153614	-0.433940	0.316196
C150	C	0.153297	-0.388008	0.224634
C151	C	0.150079	-0.361403	0.174632
C152	C	0.153616	-0.433935	0.247655
C153	C	0.153293	-0.456633	0.293275
C154	C	0.150072	-0.503401	0.316665
C155	C	0.153617	-0.365420	0.247659
C156	C	0.147469	-0.541185	0.335561
C157	C	0.147474	-0.339922	0.335572
C158	C	0.147479	-0.339908	0.134234
C159	C	0.144204	-0.588587	0.359267
C160	C	0.144211	-0.312962	0.359282
C161	C	0.144218	-0.312942	0.083555
C162	C	-0.163482	-0.139963	0.293267
C163	C	-0.186875	-0.166567	0.316654
C164	C	-0.117861	-0.162559	0.316187
C165	C	-0.163482	-0.071333	0.224628
C166	C	-0.186873	-0.024557	0.174627
C167	C	-0.117860	-0.094033	0.247653
C168	C	-0.094838	-0.139967	0.293272
C169	C	-0.044835	-0.166574	0.316665
C170	C	-0.186401	-0.094030	0.247648
C171	C	-0.004438	-0.188070	0.335563
C172	C	-0.205773	-0.188061	0.335549
C173	C	-0.205771	0.013233	0.134231
C174	C	0.046242	-0.215038	0.359273
C175	C	-0.229482	-0.215026	0.359253
C176	C	-0.229479	0.060643	0.083553
C177	C	0.095627	0.006487	-0.438489
C178	C	0.095306	-0.016206	-0.461409
C179	C	0.095623	-0.062137	-0.369847
C180	C	0.095303	-0.084726	-0.392871
C181	C	0.095625	-0.062133	-0.438492
C182	C	0.095305	-0.016210	-0.392868
C183	C	0.108059	0.159543	-0.480399
C184	C	0.111575	0.202893	-0.502003
C185	C	0.113340	0.224640	-0.547210
C186	C	0.117161	0.271637	-0.570634
C187	C	0.111587	0.203038	-0.570814
C188	C	0.108065	0.159695	-0.549212
C189	C	0.106302	0.137948	-0.504002
C190	C	0.108054	-0.116452	-0.549685
C191	C	0.111568	-0.141562	-0.571444
C192	C	0.113332	-0.188519	-0.547992
C193	C	0.117148	-0.215753	-0.571578
C194	C	0.111577	-0.210363	-0.502779
C195	C	0.108055	-0.185249	-0.481023
C196	C	0.106297	-0.138292	-0.504481
C197	C	0.108046	-0.116473	-0.204312
C198	C	0.111564	-0.141591	-0.157432
C199	C	0.113326	-0.188548	-0.133918
C200	C	0.117142	-0.215786	-0.083088
C201	C	0.111574	-0.210388	-0.157283
C202	C	0.108058	-0.185270	-0.204161
C203	C	0.106290	-0.138308	-0.227673
C204	C	0.102487	0.090947	-0.480580
C205	C	0.099445	0.053484	-0.461911
C206	C	0.099438	-0.089371	-0.319019
C207	C	0.102477	-0.111078	-0.278503
C208	C	0.099442	-0.089362	-0.462081
C209	C	0.102482	-0.111066	-0.480886
O210	O	0.118477	-0.256700	0.452885
O211	O	0.140984	-0.334299	0.397762
O212	O	0.063360	-0.256699	0.397752
O213	O	0.196101	-0.334300	0.452895
O214	O	0.063367	-0.193672	0.334708
O215	O	0.140992	-0.271271	0.334718
O216	O	0.118484	-0.193673	0.389842
Zn217	Zn	0.129739	-0.222465	0.352270
Zn218	Zn	0.129729	-0.305506	0.435333
O219	O	0.196108	-0.271272	0.389852
C220	C	-0.500364	0.533998	-0.438484
C221	C	-0.477341	0.556591	-0.461399
C222	C	-0.431721	0.465364	-0.369840
C223	C	-0.408802	0.488061	-0.392859
C224	C	-0.431720	0.533995	-0.438478
C225	C	-0.477342	0.488064	-0.392865
C226	C	-0.665898	0.588334	-0.480407
C227	C	-0.712776	0.613450	-0.502014
C228	C	-0.736291	0.660414	-0.547220
C229	C	-0.787122	0.687654	-0.570647
C230	C	-0.712926	0.682257	-0.570819
C231	C	-0.666050	0.657138	-0.549214
C232	C	-0.642536	0.610174	-0.504006
C233	C	-0.389802	0.657585	-0.549654
C234	C	-0.368196	0.682850	-0.571408
C235	C	-0.322990	0.661164	-0.547952
C236	C	-0.299561	0.688558	-0.571532
C237	C	-0.299388	0.614205	-0.502740
C238	C	-0.320990	0.588935	-0.480990
C239	C	-0.366202	0.610633	-0.504452
C240	C	-0.389804	0.312282	-0.204314
C241	C	-0.368201	0.268929	-0.157436
C242	C	-0.322993	0.247179	-0.133918
C243	C	-0.299567	0.200174	-0.083089
C244	C	-0.299392	0.268786	-0.157278
C245	C	-0.320998	0.312139	-0.204154
C246	C	-0.366204	0.333881	-0.227670
C247	C	-0.591708	0.582942	-0.480581
C248	C	-0.551193	0.561234	-0.461909
C249	C	-0.408297	0.418359	-0.319013
C250	C	-0.389626	0.380890	-0.278499
C251	C	-0.408296	0.561393	-0.462062
C252	C	-0.389624	0.583232	-0.480862
H253	H	-0.495827	-0.530983	0.035020
H254	H	-0.099381	-0.199518	0.353671
O255	O	-0.095850	-0.456483	0.360875
C256	C	-0.093540	-0.419031	0.363424
H257	H	-0.122155	-0.376723	0.332611
H258	H	-0.098320	-0.423683	0.397103
H259	H	-0.058278	-0.426404	0.362620
H260	H	-0.731792	-0.278991	0.016812
O261	O	0.113348	0.223873	-0.479098
C262	C	0.155276	0.219614	-0.474867
H263	H	0.169103	0.216399	-0.503089
H264	H	0.148781	0.256655	-0.478795
H265	H	0.181848	0.182345	-0.439299
O266	O	-0.390586	-0.120904	-0.614760
C267	C	-0.435158	-0.074055	-0.630955
H268	H	-0.435241	-0.056886	-0.610828
H269	H	-0.444667	-0.043217	-0.669477
H270	H	-0.461608	-0.084178	-0.625654
O271	O	-0.390489	-0.120954	-0.134468
C272	C	-0.365298	-0.108303	-0.117907
H273	H	-0.342123	-0.102539	-0.139460
H274	H	-0.390499	-0.069770	-0.120860
H275	H	-0.342905	-0.142369	-0.080009
O276	O	0.106327	0.138502	-0.436491
C277	C	0.108639	0.166854	-0.420288
H278	H	0.096568	0.208490	-0.451133
H279	H	0.085259	0.170711	-0.398203
H280	H	0.145958	0.144291	-0.398426
O281	O	-0.643424	0.138799	-0.572566
C282	C	-0.674098	0.167154	-0.617130
H283	H	-0.703673	0.208788	-0.627932
H284	H	-0.654577	0.171012	-0.643075
H285	H	-0.688848	0.144591	-0.616421
O286	O	-0.643280	0.678271	-0.572076
C287	C	-0.596867	0.646038	-0.543307
H288	H	-0.586538	0.603825	-0.516153
H289	H	-0.573175	0.644329	-0.565284
H290	H	-0.593357	0.663896	-0.525220
O291	O	0.154165	-0.456614	0.360893
C292	C	0.114385	-0.456839	0.363426
H293	H	0.100691	-0.454649	0.332613
H294	H	0.123801	-0.495278	0.397105
H295	H	0.086494	-0.420773	0.362607
O296	O	0.154287	-0.456683	0.225675
C297	C	0.194491	-0.509724	0.250509
H298	H	0.207465	-0.525148	0.288183
H299	H	0.185917	-0.536280	0.249172
H300	H	0.222600	-0.510633	0.234254
H301	H	0.154133	-0.328462	0.229178
H302	H	-0.732378	0.221040	-0.483702
H303	H	-0.099379	-0.074998	-0.024355
H304	H	0.106630	-0.203055	-0.223182
H305	H	-0.262268	-0.248920	-0.138435
O306	O	-0.231125	-0.071417	0.225668
C307	C	-0.246503	-0.101328	0.255776
H308	H	-0.224668	-0.124587	0.293284
H309	H	-0.284494	-0.073009	0.250291
H310	H	-0.242782	-0.130575	0.248101
H311	H	-0.099376	-0.075038	0.229168
H312	H	0.094785	-0.121682	-0.374387
O313	O	-0.231138	-0.071342	-0.024523
C314	C	-0.259352	-0.055972	-0.064734
H315	H	-0.237102	-0.080666	-0.077704
H316	H	-0.287260	-0.063200	-0.056171
H317	H	-0.276510	-0.011622	-0.092844
O318	O	0.113299	-0.120293	-0.615351
C319	C	0.110983	-0.073460	-0.631390
H320	H	0.123048	-0.074859	-0.600457
H321	H	0.134366	-0.070807	-0.653458
H322	H	0.073664	-0.036846	-0.653224
H323	H	-0.371321	-0.530978	0.035012
H324	H	-0.647332	0.142401	-0.444230
O325	O	-0.499453	-0.399391	0.035130
C326	C	-0.544748	-0.384212	0.035322
H327	H	-0.546171	-0.420285	0.049577
H328	H	-0.554416	-0.369056	0.058155
H329	H	-0.570283	-0.351020	-0.001611
H330	H	0.094791	0.002793	-0.498893
H331	H	-0.426314	-0.078564	-0.223203
O332	O	0.094664	0.006530	-0.370890
C333	C	0.094469	0.052006	-0.401001
H334	H	0.080226	0.067673	-0.438508
H335	H	0.071625	0.084502	-0.395516
H336	H	0.131399	0.040618	-0.393327
H337	H	-0.099372	-0.452898	0.229148
H338	H	-0.426617	-0.324814	0.023182
O339	O	-0.433710	0.678713	-0.572519
C340	C	-0.449910	0.725580	-0.617081
H341	H	-0.419064	0.724312	-0.627880
H342	H	-0.471995	0.728148	-0.643029
H343	H	-0.471770	0.762177	-0.616369
H344	H	-0.495826	0.593550	-0.498882
H345	H	-0.732070	-0.403516	0.016804
O346	O	0.113238	-0.120292	-0.134812
C347	C	0.110936	-0.073466	-0.165615
H348	H	0.093853	-0.056428	-0.202872
H349	H	0.089585	-0.042528	-0.158048
H350	H	0.147506	-0.083576	-0.160833
O351	O	-0.231112	-0.321291	0.225646
C352	C	-0.246494	-0.306145	0.255775
H353	H	-0.215274	-0.322380	0.283356
H354	H	-0.270094	-0.260567	0.235071
H355	H	-0.266551	-0.323238	0.273260
H356	H	-0.387425	-0.278978	0.016792
O357	O	0.106250	-0.070806	-0.227193
C358	C	0.064334	-0.029001	-0.264887
H359	H	0.037517	-0.038460	-0.258103
H360	H	0.050904	0.010172	-0.269034
H361	H	0.070687	-0.024910	-0.298005
H362	H	0.113022	0.220750	-0.607622
H363	H	0.106637	0.142110	-0.568432
H364	H	0.106619	-0.078217	-0.568789
H365	H	0.113006	-0.248593	-0.483685
O366	O	0.106375	-0.206549	-0.437098
C367	C	0.108673	-0.253371	-0.421064
H368	H	0.125758	-0.270409	-0.441278
H369	H	0.130019	-0.284311	-0.382548
H370	H	0.072101	-0.243256	-0.426402
O371	O	-0.735770	0.224246	-0.615406
C372	C	-0.752329	0.278631	-0.644710
H373	H	-0.730862	0.286102	-0.628926
H374	H	-0.749249	0.288895	-0.680243
H375	H	-0.790265	0.304873	-0.648657
O376	O	0.113198	-0.255947	-0.134450
C377	C	0.075349	-0.247311	-0.117894
H378	H	0.046414	-0.202592	-0.139448
H379	H	0.061997	-0.269543	-0.120852
H380	H	0.087028	-0.262814	-0.079995
O381	O	-0.364078	0.465320	-0.370747
C382	C	-0.348702	0.419841	-0.325454
H383	H	-0.370534	0.404172	-0.324035
H384	H	-0.310710	0.387348	-0.315790
H385	H	-0.352428	0.431226	-0.299914
H386	H	-0.495832	0.469078	-0.374381
H387	H	-0.262587	-0.403497	0.016771
O388	O	-0.643115	-0.321368	0.023501
C389	C	-0.673787	-0.274512	0.021198
H390	H	-0.703369	-0.275778	0.033256
H391	H	-0.654267	-0.271965	0.044593
H392	H	-0.688528	-0.237904	-0.016118
O393	O	-0.095835	-0.206640	-0.024397
C394	C	-0.093511	-0.248954	0.015387
H395	H	-0.122134	-0.231854	0.029086
H396	H	-0.098268	-0.273216	0.005971
H397	H	-0.058253	-0.276008	0.043274
H398	H	-0.387422	0.251343	-0.138417
H399	H	-0.426614	0.329984	-0.223458
O400	O	-0.643122	0.542703	-0.436501
C401	C	-0.673797	0.528816	-0.420304
H402	H	-0.703373	0.547591	-0.451152
H403	H	-0.654276	0.483364	-0.398224
H404	H	-0.688546	0.544263	-0.398438
H405	H	-0.731797	0.595663	-0.482796
O406	O	-0.391097	0.728508	-0.615296
C407	C	-0.395319	0.770384	-0.615253
H408	H	-0.367097	0.752765	-0.583810
H409	H	-0.391389	0.797009	-0.648374
H410	H	-0.430886	0.795238	-0.613541
H411	H	-0.647026	-0.449354	0.023185
O412	O	-0.735808	0.727929	-0.614696
C413	C	-0.773497	0.769726	-0.614586
H414	H	-0.766710	0.760250	-0.578301
H415	H	-0.777640	0.808900	-0.640330
H416	H	-0.806617	0.773825	-0.625037
H417	H	-0.301778	0.329728	-0.223172
O418	O	-0.297979	-0.206493	-0.227148
C419	C	-0.257126	-0.208306	-0.226316
H420	H	-0.246204	-0.208495	-0.195775
H421	H	-0.228270	-0.246229	-0.222415
H422	H	-0.263868	-0.171662	-0.260084
O423	O	-0.255505	0.593206	-0.479943
C424	C	-0.255605	0.630984	-0.475814
H425	H	-0.291884	0.660468	-0.478491
H426	H	-0.229851	0.609377	-0.440772
H427	H	-0.245160	0.653654	-0.504837
O428	O	-0.298007	0.543340	-0.437066
C429	C	-0.253469	0.529605	-0.421029
H430	H	-0.253510	0.566892	-0.441237
H431	H	-0.243869	0.512436	-0.382512
H432	H	-0.227015	0.498381	-0.426367
O433	O	-0.255505	0.247739	-0.134435
C434	C	-0.254511	0.287598	-0.135281
H435	H	-0.290824	0.320039	-0.140820
H436	H	-0.229614	0.268892	-0.100871
H437	H	-0.242289	0.306095	-0.164833
O438	O	-0.433712	-0.666708	0.023490
C439	C	-0.449912	-0.695064	0.021181
H440	H	-0.419066	-0.736698	0.033253
H441	H	-0.471996	-0.698923	0.044563
H442	H	-0.471774	-0.672502	-0.016138
H443	H	-0.387419	-0.748683	0.016816
H444	H	-0.301775	-0.670305	0.023178
O445	O	-0.255449	-0.752401	0.016604
C446	C	-0.225142	-0.771153	0.057342
H447	H	-0.240967	-0.779681	0.086190
H448	H	-0.190409	-0.809532	0.068417
H449	H	-0.219543	-0.739411	0.050363
O450	O	-0.298003	-0.456725	0.023453
C451	C	-0.253475	-0.470441	0.021131
H452	H	-0.242801	-0.451588	0.033202
H453	H	-0.227438	-0.515880	0.044506
H454	H	-0.254177	-0.454949	-0.016192
H455	H	-0.496124	0.003081	-0.498917
O456	O	-0.499623	0.006692	-0.370784
C457	C	-0.469512	-0.023217	-0.325489
H458	H	-0.432006	-0.046467	-0.324065
H459	H	-0.475001	0.005104	-0.315826
H460	H	-0.477181	-0.052470	-0.299950
O461	O	-0.364382	-0.128510	-0.370912
C462	C	-0.349005	-0.143688	-0.401023
H463	H	-0.370839	-0.107616	-0.438530
H464	H	-0.311013	-0.158835	-0.395536
H465	H	-0.352727	-0.176887	-0.393351
H466	H	-0.262264	-0.248919	-0.482808
O467	O	-0.297972	-0.206550	-0.436517
C468	C	-0.253407	-0.253412	-0.420315
H469	H	-0.242607	-0.252141	-0.451161
H470	H	-0.227464	-0.255974	-0.398230
H471	H	-0.254114	-0.290013	-0.398452
O472	O	-0.433383	-0.071127	-0.572172
C473	C	-0.433362	-0.029245	-0.576381
H474	H	-0.397078	-0.038705	-0.573619
H475	H	-0.459056	0.009861	-0.611483
H476	H	-0.443936	-0.025024	-0.547447
