data_functionalizedCrystal
_audit_creation_method	'MofGen! by Chris Wilmer'
_symmetry_space_group_name_H-M	'P1'
_symmetry_Int_Tables_number	1
_symmetry_cell_setting	triclinic
loop_
_symmetry_equiv_pos_as_xyz
  x,y,z
_cell_length_a	10.654541
_cell_length_b	15.944551
_cell_length_c	9.730217
_cell_angle_alpha	89.995798
_cell_angle_beta	89.999932
_cell_angle_gamma	83.991333
loop_
_atom_site_label
_atom_site_type_symbol
_atom_site_fract_x
_atom_site_fract_y
_atom_site_fract_z
O1	O	1.666312	0.117965	-0.114251
O2	O	1.300688	0.129208	-0.114263
O3	O	1.493484	0.001369	-0.114245
O4	O	1.473516	0.245804	-0.114270
O5	O	1.493478	0.001368	0.114335
O6	O	1.300682	0.129206	0.114317
O7	O	1.666306	0.117964	0.114329
Zn8	Zn	1.483493	0.123585	0.150615
Zn9	Zn	1.483501	0.123587	-0.150549
O10	O	1.473510	0.245802	0.114310
C11	C	1.253897	0.128382	0.000025
C12	C	1.114486	0.125914	0.000021
C13	C	1.084537	0.278779	-0.000012
C14	C	1.004069	0.354048	-0.000034
C15	C	0.873081	0.351724	-0.000035
C16	C	0.822560	0.274122	-0.000010
C17	C	0.903028	0.198852	0.000012
C18	C	1.034017	0.201185	0.000009
C19	C	0.932976	0.045989	0.000055
C20	C	1.063965	0.048311	0.000046
C21	C	0.882455	-0.031613	0.000080
C22	C	0.962924	-0.106885	0.000092
C23	C	1.093919	-0.104557	0.000091
C24	C	1.144433	-0.026958	0.000068
C25	C	1.492652	-0.029930	0.000046
C26	C	1.490167	-0.123190	0.000046
C27	C	1.364722	-0.338772	0.000023
C28	C	1.422972	-0.399453	0.112729
C29	C	1.485671	-0.293942	0.000036
C30	C	1.423006	-0.399436	-0.112633
C31	C	1.481319	-0.458880	0.000019
C32	C	1.543954	-0.353395	0.112834
C33	C	1.543971	-0.353371	-0.112629
C34	C	1.602309	-0.414034	0.000104
C35	C	1.488175	-0.198925	0.000046
C36	C	1.478825	-0.553896	0.000019
C37	C	1.713097	0.118790	0.000037
C38	C	1.852508	0.121258	0.000033
C39	C	1.474342	0.277102	0.000017
C40	C	1.476827	0.370362	0.000007
N41	N	1.483497	0.123584	0.356151
N42	N	1.483507	0.123582	-0.356086
C43	C	1.654288	0.010416	0.356159
C44	C	1.739691	-0.046165	0.428102
C45	C	1.739704	-0.046166	0.571982
C46	C	1.654302	0.010420	0.643921
C47	C	1.568898	0.067001	0.571978
C48	C	1.568897	0.066997	0.428095
C49	C	1.398103	0.180163	0.571971
C50	C	1.398094	0.180169	0.428091
C51	C	1.312700	0.236748	0.643910
C52	C	1.227301	0.293335	0.571967
C53	C	1.227292	0.293334	0.428078
C54	C	1.312691	0.236750	0.356147
H55	H	1.045218	0.417231	-0.000051
H56	H	1.371836	-0.419808	-0.207924
H57	H	1.654296	0.010418	0.239004
N58	N	1.355206	-0.426473	0.238942
H59	H	1.280149	-0.456104	0.210195
H60	H	1.414754	-0.466154	0.295352
N61	N	1.135180	0.354366	0.350490
H62	H	1.148128	0.345785	0.248425
H63	H	1.046101	0.344100	0.375648
N64	N	1.831772	-0.107214	0.350513
H65	H	1.818803	-0.098636	0.248449
H66	H	1.920866	-0.096969	0.375639
H67	H	0.807563	0.413015	-0.000043
H68	H	1.809243	-0.092242	0.630559
N69	N	1.225817	0.281281	-0.000013
H70	H	1.263245	0.251824	-0.084739
H71	H	1.245512	0.341878	0.000019
H72	H	1.251088	-0.025055	0.000051
H73	H	1.595086	-0.332944	-0.207914
H74	H	1.159430	-0.165851	0.000114
N75	N	1.231744	-0.295420	0.000150
H76	H	1.186217	-0.312062	0.085364
H77	H	1.234459	-0.232297	-0.000775
H78	H	0.715901	0.272236	0.000005
N79	N	1.611663	-0.326535	0.239187
H80	H	1.612886	-0.263283	0.238435
H81	H	1.566283	-0.343742	0.324137
N82	N	1.654300	0.010420	0.799105
H83	H	1.636039	-0.046766	0.833769
H84	H	1.739633	0.023209	0.833650
H85	H	1.702790	-0.446611	0.000171
H86	H	0.921778	-0.170062	0.000111
N87	N	1.135201	0.354356	0.649566
H88	H	1.149652	0.414065	0.624528
H89	H	1.046117	0.344051	0.624501
N90	N	1.312705	0.236749	0.799094
H91	H	1.379768	0.192322	0.833757
H92	H	1.330921	0.293968	0.833624
N93	N	0.741177	-0.034126	0.000106
H94	H	0.697865	0.025331	0.000090
H95	H	0.715604	-0.064740	-0.084617
H96	H	1.312696	0.236747	0.238993
