data_functionalizedCrystal
_audit_creation_method	'MofGen! by Chris Wilmer'
_symmetry_space_group_name_H-M	'P1'
_symmetry_Int_Tables_number	1
_symmetry_cell_setting	triclinic
loop_
_symmetry_equiv_pos_as_xyz
  x,y,z
_cell_length_a	15.995343
_cell_length_b	15.995292
_cell_length_c	10.868271
_cell_angle_alpha	89.998057
_cell_angle_beta	90.000003
_cell_angle_gamma	83.478900
loop_
_atom_site_label
_atom_site_type_symbol
_atom_site_fract_x
_atom_site_fract_y
_atom_site_fract_z
O1	O	1.110967	0.107899	-0.102190
O2	O	0.867188	0.121234	-0.102218
O3	O	0.995767	-0.007325	-0.102205
O4	O	0.982388	0.236457	-0.102203
O5	O	0.995756	-0.007330	0.102439
O6	O	0.867177	0.121229	0.102426
O7	O	1.110956	0.107894	0.102455
Zn8	Zn	0.989065	0.114560	0.134932
Zn9	Zn	0.989079	0.114567	-0.134696
O10	O	0.982378	0.236452	0.102442
C11	C	0.835988	0.120681	0.000100
C12	C	0.743037	0.119032	0.000089
C13	C	0.572852	0.116038	0.000105
C14	C	0.549525	0.023238	0.000104
C15	C	0.452848	0.021493	0.000576
C16	C	0.405292	0.113089	0.000120
C17	C	0.434368	0.159748	0.116750
C18	C	0.531161	0.160848	0.116841
C19	C	0.531083	0.162213	-0.115886
C20	C	0.434589	0.158787	-0.117412
C21	C	0.310595	0.111428	0.000133
C22	C	0.667549	0.117702	0.000101
C23	C	0.995217	-0.038523	0.000114
C24	C	0.993584	-0.131476	0.000104
C25	C	0.987583	-0.469214	0.000115
C26	C	1.080388	-0.445904	0.000583
C27	C	1.082152	-0.349229	0.000118
C28	C	0.990561	-0.301658	0.000110
C29	C	0.944169	-0.330755	-0.116753
C30	C	0.943052	-0.427546	-0.116847
C31	C	0.941145	-0.427408	0.115872
C32	C	0.944584	-0.330916	0.117413
C33	C	0.992239	-0.206962	0.000104
C34	C	0.985902	-0.563910	0.000113
C35	C	1.142156	0.108447	0.000133
C36	C	1.235107	0.110096	0.000137
C37	C	0.982927	0.267650	0.000120
C38	C	0.984560	0.360603	0.000121
N39	N	0.989062	0.114555	0.318946
N40	N	0.989089	0.114565	-0.318710
C41	C	0.989075	0.114565	0.569952
C42	C	0.989065	0.114562	0.430275
H43	H	0.416043	0.124809	-0.203697
H44	H	0.545082	0.230519	-0.117010
H45	H	0.401618	0.225622	-0.124815
F46	F	0.851858	-0.445693	0.116897
F47	F	0.408113	0.117899	0.230632
F48	F	1.129625	-0.324361	0.109628
H49	H	0.402508	0.227160	0.120761
F50	F	0.857201	-0.287823	0.126633
F51	F	0.428001	-0.026246	-0.108681
H52	H	0.970366	-0.455500	0.204454
H53	H	0.559363	0.132937	-0.204316
H54	H	0.978364	-0.312354	0.203867
F55	F	0.985063	-0.462598	-0.231018
H56	H	1.118708	-0.330823	-0.083793
H57	H	0.577545	-0.012729	-0.083519
F58	F	0.566177	0.119102	0.231227
F59	F	0.986289	-0.304538	-0.230424
H60	H	1.116155	-0.473905	0.084391
F61	F	1.126892	-0.483829	-0.108334
H62	H	0.875007	-0.442094	-0.122147
F63	F	0.856075	-0.289097	-0.122447
F64	F	0.428748	-0.026015	0.110505
F65	F	0.550193	0.249796	0.123348
F66	F	0.587411	-0.023016	0.109260
