data_functionalizedCrystal
_audit_creation_method	'MofGen! by Chris Wilmer'
_symmetry_space_group_name_H-M	'P1'
_symmetry_Int_Tables_number	1
_symmetry_cell_setting	triclinic
loop_
_symmetry_equiv_pos_as_xyz
  x,y,z
_cell_length_a	11.026644
_cell_length_b	10.065875
_cell_length_c	14.853576
_cell_angle_alpha	81.214094
_cell_angle_beta	96.111316
_cell_angle_gamma	100.713683
loop_
_atom_site_label
_atom_site_type_symbol
_atom_site_fract_x
_atom_site_fract_y
_atom_site_fract_z
O1	O	-1.593017	0.113519	-0.387944
O2	O	-1.093017	0.613519	0.112056
O3	O	-1.239639	0.113516	-0.344948
O4	O	-0.739639	0.613516	0.155052
O5	O	-1.425763	0.113512	-0.236738
O6	O	-0.925763	0.613512	0.263262
O7	O	-1.406894	0.113523	-0.496154
O8	O	-0.906894	0.613523	0.003846
O9	O	-1.461319	-0.113477	-0.216057
O10	O	-0.961319	0.386523	0.283943
O11	O	-1.275195	-0.113474	-0.324267
O12	O	-0.775195	0.386526	0.175733
O13	O	-1.628573	-0.113470	-0.367263
O14	O	-1.128573	0.386530	0.132737
Zn15	Zn	-1.457530	-0.149511	-0.342481
Zn16	Zn	-0.957530	0.350489	0.157519
Zn17	Zn	-1.410683	0.149557	-0.369730
Zn18	Zn	-0.910683	0.649557	0.130270
O19	O	-1.442450	-0.113467	-0.475472
O20	O	-0.942450	0.386533	0.024528
C21	C	-1.212193	0.000020	-0.326675
C22	C	-0.712193	0.500020	0.173325
C23	C	-1.077439	0.000019	-0.303029
C24	C	-0.577439	0.500019	0.196971
C25	C	-0.864469	0.000022	-0.343892
C26	C	-0.364469	0.500022	0.156108
C27	C	-1.003745	0.000022	-0.368333
C28	C	-0.503745	0.500022	0.131667
N29	N	-1.489510	-0.353618	-0.323885
N30	N	-0.989510	0.146382	0.176115
C31	C	-1.442684	0.000019	-0.192671
C32	C	-0.942684	0.500019	0.307329
C33	C	-1.440116	0.000024	-0.092174
C34	C	-0.940116	0.500024	0.407826
C35	C	-0.656020	0.000025	-0.385537
C36	C	-0.156020	0.500025	0.114463
C37	C	-0.790773	0.000025	-0.409186
C38	C	-0.290773	0.500025	0.090814
N39	N	-1.378712	0.353663	-0.388320
N40	N	-0.878712	0.853663	0.111680
C41	C	-1.446414	0.421441	-0.348956
C42	C	-0.946414	0.921441	0.151044
C43	C	-1.421799	0.578608	-0.363255
C44	C	-0.921799	1.078608	0.136745
C45	C	-1.425528	0.000030	-0.519540
C46	C	-0.925528	0.500030	-0.019540
C47	C	-1.428095	0.000034	-0.620038
C48	C	-0.928095	0.500034	-0.120038
C49	C	-1.419525	0.123762	-0.056238
C50	C	-0.919525	0.623762	0.443762
C51	C	-1.458304	-0.123711	-0.033679
C52	C	-0.958304	0.376289	0.466321
C53	C	-1.455898	-0.123711	0.060743
C54	C	-0.955898	0.376289	0.560743
C55	C	-1.435307	0.000027	0.096679
C56	C	-0.935307	0.500027	0.596679
C57	C	-1.417122	0.123765	0.038192
C58	C	-0.917122	0.623765	0.538192
C59	C	-1.474095	-0.247447	0.119236
C60	C	-0.974095	0.252553	0.619236
C61	C	-1.471691	-0.247452	0.213664
C62	C	-0.971691	0.252548	0.713664
C63	C	-1.451091	-0.123713	0.249602
C64	C	-0.951091	0.376287	0.749602
C65	C	-1.432904	0.000031	0.191109
C66	C	-0.932904	0.500031	0.691109
C67	C	-1.412313	0.123769	0.227045
C68	C	-0.912313	0.623769	0.727045
C69	C	-1.394117	0.247513	0.168555
C70	C	-0.894117	0.747513	0.668555
C71	C	-1.396522	0.247505	0.074130
C72	C	-0.896522	0.747505	0.574130
C73	C	-1.448686	-0.123704	0.344026
C74	C	-0.948686	0.376296	0.844026
C75	C	-1.409910	0.123772	0.321476
C76	C	-0.909910	0.623772	0.821476
H77	H	-1.043755	0.000017	-0.442332
H78	H	-0.543755	0.500017	0.057668
H79	H	-1.565704	0.588060	-0.279599
H80	H	-1.065704	1.088060	0.220401
H81	H	-0.824457	-0.000002	-0.269894
H82	H	-0.324457	0.499998	0.230106
H83	H	-1.302532	0.411991	-0.432611
H84	H	-0.802532	0.911991	0.067389
H85	H	-1.404706	0.224512	-0.103865
H86	H	-0.904706	0.724512	0.396135
H87	H	-1.037417	0.000106	-0.229036
H88	H	-0.537417	0.500106	0.270964
H89	H	-1.377360	0.348261	0.197825
H90	H	-0.877360	0.848261	0.697825
H91	H	-0.830790	0.000020	-0.483181
H92	H	-0.330790	0.500020	0.016819
H93	H	-1.522603	0.363115	-0.304673
H94	H	-1.022603	0.863115	0.195327
H95	H	-1.345613	0.636931	-0.407549
H96	H	-0.845613	1.136931	0.092451
H97	H	-1.393134	0.224536	0.350727
H98	H	-0.893134	0.724536	0.850727
H99	H	-1.381713	0.348251	0.026499
H100	H	-0.881713	0.848251	0.526499
H101	H	-1.475077	-0.224453	-0.062945
H102	H	-0.975077	0.275547	0.437055
H103	H	-1.490868	-0.348188	0.089969
H104	H	-0.990868	0.151812	0.589969
H105	H	-1.486506	-0.348213	0.261280
H106	H	-0.986506	0.151787	0.761280
H107	H	-1.463505	-0.224455	0.391645
H108	H	-0.963505	0.275545	0.891645
