data_functionalizedCrystal
_audit_creation_method	'MofGen! by Chris Wilmer'
_symmetry_space_group_name_H-M	'P1'
_symmetry_Int_Tables_number	1
_symmetry_cell_setting	triclinic
loop_
_symmetry_equiv_pos_as_xyz
  x,y,z
_cell_length_a	14.908571
_cell_length_b	16.120484
_cell_length_c	14.908803
_cell_angle_alpha	83.995202
_cell_angle_beta	89.810884
_cell_angle_gamma	89.787312
loop_
_atom_site_label
_atom_site_type_symbol
_atom_site_fract_x
_atom_site_fract_y
_atom_site_fract_z
Zn1	Zn	1.319948	-0.435107	0.609961
Zn2	Zn	1.653282	-0.101774	0.943295
Zn3	Zn	1.986615	0.231559	1.276628
Zn4	Zn	1.320927	-0.566886	0.466384
Zn5	Zn	1.654260	-0.233552	0.799717
Zn6	Zn	1.987593	0.099781	1.133051
Zn7	Zn	1.179230	-0.419051	0.450135
Zn8	Zn	1.512563	-0.085718	0.783469
Zn9	Zn	1.845897	0.247615	1.116802
Zn10	Zn	1.161977	-0.565938	0.607985
Zn11	Zn	1.495310	-0.232605	0.941318
Zn12	Zn	1.828644	0.100728	1.274652
O13	O	1.245521	-0.496746	0.533616
O14	O	1.578854	-0.163412	0.866950
O15	O	1.912187	0.169921	1.200283
O16	O	1.445490	-0.459704	0.598543
O17	O	1.778823	-0.126371	0.931876
O18	O	2.112157	0.206963	1.265209
O19	O	1.309760	-0.540952	0.338080
O20	O	1.643093	-0.207619	0.671414
O21	O	1.976427	0.125715	1.004747
O22	O	1.204708	-0.304559	0.465363
O23	O	1.538041	0.028774	0.798697
O24	O	1.871375	0.362108	1.132030
O25	O	1.446209	-0.556521	0.493057
O26	O	1.779542	-0.223188	0.826390
O27	O	2.112875	0.110146	1.159724
O28	O	1.308093	-0.316355	0.582787
O29	O	1.641426	0.016978	0.916120
O30	O	1.974760	0.350311	1.249454
O31	O	1.205656	-0.432339	0.326142
O32	O	1.538990	-0.099005	0.659476
O33	O	1.872323	0.234328	0.992809
O34	O	1.051530	-0.431420	0.463447
O35	O	1.384863	-0.098087	0.796780
O36	O	1.718196	0.235246	1.130114
O37	O	1.175302	-0.554906	0.734395
O38	O	1.508636	-0.221573	1.067729
O39	O	1.841969	0.111760	1.401062
O40	O	1.038854	-0.539338	0.579419
O41	O	1.372187	-0.206004	0.912752
O42	O	1.705520	0.127329	1.246085
O43	O	1.291363	-0.458786	0.735847
O44	O	1.624697	-0.125452	1.069181
O45	O	1.958030	0.207881	1.402514
O46	O	1.293030	-0.683382	0.491141
O47	O	1.626364	-0.350049	0.824474
O48	O	1.959697	-0.016716	1.157807
O49	O	1.176251	-0.682686	0.595174
O50	O	1.509584	-0.349353	0.928508
O51	O	1.842918	-0.016020	1.261841
C52	C	1.012674	-0.483535	0.519456
C53	C	1.346007	-0.150201	0.852789
C54	C	1.679340	0.183132	1.186122
C55	C	0.913058	-0.477904	0.513420
C56	C	1.246392	-0.144571	0.846753
C57	C	1.579725	0.188763	1.180087
C58	C	0.712719	-0.579855	0.622693
C59	C	1.046052	-0.246522	0.956027
C60	C	1.379386	0.086812	1.289360
C61	C	0.619121	-0.574567	0.617026
C62	C	0.952455	-0.241234	0.950359
C63	C	1.285788	0.092099	1.283692
C64	C	0.632263	-0.462037	0.496422
C65	C	0.965596	-0.128704	0.829755
C66	C	1.298929	0.204629	1.163089
C67	C	0.725861	-0.467325	0.502090
C68	C	1.059194	-0.133992	0.835423
C69	C	1.392527	0.199342	1.168756
C70	C	0.766085	-0.526237	0.565227
C71	C	1.099419	-0.192903	0.898560
C72	C	1.432752	0.140430	1.231893
C73	C	0.859685	-0.531528	0.570889
C74	C	1.193018	-0.198195	0.904223
C75	C	1.526352	0.135139	1.237556
C76	C	0.872825	-0.418994	0.450291
C77	C	1.206158	-0.085661	0.783624
C78	C	1.539491	0.247672	1.116957
C79	C	0.779227	-0.413707	0.444623
C80	C	1.112560	-0.080373	0.777956
C81	C	1.445893	0.252960	1.111290
C82	C	1.232898	-0.713275	0.544727
C83	C	1.566231	-0.379942	0.878061
C84	C	1.899564	-0.046609	1.211394
C85	C	1.227578	-0.805914	0.549516
C86	C	1.560911	-0.472581	0.882849
C87	C	1.894244	-0.139247	1.216183
C88	C	1.217869	-0.975527	0.558277
C89	C	1.551202	-0.642194	0.891611
C90	C	1.884536	-0.308860	1.224944
C91	C	1.273332	-1.017134	0.508980
C92	C	1.606665	-0.683801	0.842313
C93	C	1.939998	-0.350467	1.175647
C94	C	1.267930	-1.111512	0.513855
C95	C	1.601263	-0.778179	0.847188
C96	C	1.934596	-0.444846	1.180521
C97	C	1.223270	-0.881140	0.553404
C98	C	1.556603	-0.547807	0.886737
C99	C	1.889936	-0.214473	1.220070
C100	C	1.479277	-0.510009	0.547833
C101	C	1.812610	-0.176676	0.881166
C102	C	2.145943	0.156658	1.214500
C103	C	1.578890	-0.515661	0.553891
C104	C	1.912223	-0.182328	0.887225
C105	C	2.245556	0.151005	1.220558
C106	C	1.231299	-0.508531	0.768745
C107	C	1.564633	-0.175198	1.102078
C108	C	1.897966	0.158135	1.435411
C109	C	1.225239	-0.513554	0.868943
C110	C	1.558572	-0.180220	1.202276
C111	C	1.891906	0.153113	1.535609
C112	C	1.258216	-0.279373	0.522483
C113	C	1.591549	0.053961	0.855816
C114	C	1.924883	0.387294	1.189150
C115	C	1.263626	-0.186741	0.517739
C116	C	1.596959	0.146592	0.851072
C117	C	1.930293	0.479925	1.184405
C118	C	1.334704	-0.422881	1.058737
C119	C	1.668037	-0.089548	1.392071
C120	C	2.001371	0.243786	1.725404
C121	C	1.329013	-0.427597	1.152882
C122	C	1.662346	-0.094264	1.486215
C123	C	1.995679	0.239069	1.819549
C124	C	1.208162	-0.527697	1.151378
C125	C	1.541495	-0.194364	1.484711
C126	C	1.874828	0.138969	1.818045
C127	C	1.213853	-0.522981	1.057233
C128	C	1.547186	-0.189648	1.390567
C129	C	1.880520	0.143685	1.723900
C130	C	1.277127	-0.470572	1.010916
C131	C	1.610460	-0.137239	1.344250
C132	C	1.943794	0.196095	1.677583
C133	C	1.282822	-0.465861	0.916770
C134	C	1.616155	-0.132528	1.250104
C135	C	1.949489	0.200806	1.583437
C136	C	1.161967	-0.565956	0.915268
C137	C	1.495301	-0.232623	1.248601
C138	C	1.828634	0.100711	1.581934
C139	C	1.156276	-0.570672	1.009412
C140	C	1.489609	-0.237339	1.342746
C141	C	1.822943	0.095994	1.676079
C142	C	1.259680	-0.485025	1.299403
C143	C	1.593013	-0.151692	1.632736
C144	C	1.926347	0.181642	1.966070
C145	C	1.265745	-0.480005	1.199206
C146	C	1.599078	-0.146671	1.532539
C147	C	1.932411	0.186662	1.865872
H148	H	0.745471	-0.627827	0.674097
H149	H	1.078804	-0.294494	1.007431
H150	H	1.412137	0.038839	1.340764
H151	H	0.575673	-0.618227	0.663823
H152	H	0.909007	-0.284894	0.997156
H153	H	1.242340	0.048439	1.330489
H154	H	1.115086	-0.604792	0.876322
H155	H	1.448419	-0.271459	1.209655
H156	H	1.781753	0.061874	1.542989
F157	F	0.902494	-0.594228	0.638082
F158	F	1.235827	-0.260895	0.971415
F159	F	1.569161	0.072439	1.304749
F160	F	0.589437	-0.399334	0.429244
F161	F	0.922770	-0.066001	0.762577
F162	F	1.256104	0.267332	1.095911
H163	H	1.386228	-0.380212	1.021026
H164	H	1.719562	-0.046879	1.354359
H165	H	2.052895	0.286455	1.687692
F166	F	0.736407	-0.351009	0.377435
F167	F	1.069740	-0.017676	0.710769
F168	F	1.403073	0.315658	1.044102
F169	F	1.390293	-0.376837	1.203773
F170	F	1.723626	-0.043503	1.537107
F171	F	2.056959	0.289830	1.870440
F172	F	1.350165	-0.410086	0.867478
F173	F	1.683498	-0.076753	1.200811
F174	F	2.016832	0.256581	1.534145
H175	H	0.916286	-0.375336	0.403495
H176	H	1.249619	-0.042003	0.736828
H177	H	1.582952	0.291331	1.070162
H178	H	1.156647	-0.570366	1.189105
H179	H	1.489980	-0.237032	1.522439
H180	H	1.823314	0.096301	1.855772
H181	H	1.166332	-1.010784	0.604139
H182	H	1.499666	-0.677451	0.937472
H183	H	1.832999	-0.344117	1.270806
F184	F	1.340697	-0.971049	0.449027
F185	F	1.674030	-0.637716	0.782360
F186	F	2.007364	-0.304383	1.115693
F187	F	1.088938	-0.626445	1.058716
F188	F	1.422271	-0.293112	1.392049
F189	F	1.755604	0.040222	1.725382
