data_functionalizedCrystal
_audit_creation_method	'MofGen! by Chris Wilmer'
_symmetry_space_group_name_H-M	'P1'
_symmetry_Int_Tables_number	1
_symmetry_cell_setting	triclinic
loop_
_symmetry_equiv_pos_as_xyz
  x,y,z
_cell_length_a	17.038272
_cell_length_b	17.699083
_cell_length_c	16.098538
_cell_angle_alpha	92.736382
_cell_angle_beta	92.929602
_cell_angle_gamma	92.802714
loop_
_atom_site_label
_atom_site_type_symbol
_atom_site_fract_x
_atom_site_fract_y
_atom_site_fract_z
O1	O	0.102353	-1.007452	0.069140
O2	O	0.602353	-0.507452	0.569140
O3	O	0.115216	-0.787924	0.069168
O4	O	0.615216	-0.287924	0.569168
O5	O	-0.005029	-0.896383	0.069148
O6	O	0.494971	-0.396383	0.569148
O7	O	0.222598	-0.898992	0.069160
O8	O	0.722598	-0.398992	0.569160
O9	O	-0.012032	-0.902714	-0.069366
O10	O	0.487968	-0.402714	0.430634
O11	O	0.108213	-0.794254	-0.069346
O12	O	0.608213	-0.294254	0.430654
O13	O	0.095350	-1.013783	-0.069374
O14	O	0.595350	-0.513783	0.430626
Zn15	Zn	0.100669	-0.905024	-0.091352
Zn16	Zn	0.600669	-0.405024	0.408648
Zn17	Zn	0.109897	-0.896683	0.091146
Zn18	Zn	0.609897	-0.396683	0.591146
O19	O	0.215595	-0.905323	-0.069354
O20	O	0.715595	-0.405323	0.430646
C21	C	0.111254	-0.762861	-0.000086
C22	C	0.611254	-0.262861	0.499914
C23	C	0.109872	-0.678751	-0.000076
C24	C	0.609872	-0.178751	0.499924
C25	C	-0.037655	-0.897175	-0.000109
C26	C	0.462345	-0.397175	0.499891
C27	C	-0.124436	-0.890094	-0.000108
C28	C	0.375564	-0.390094	0.499892
N29	N	0.094372	-0.910721	-0.215902
N30	N	0.594372	-0.410721	0.284098
C31	C	-0.174657	-0.955105	-0.000117
C32	C	0.325343	-0.455105	0.499883
C33	C	-0.256196	-0.948447	-0.000108
C34	C	0.243804	-0.448447	0.499892
C35	C	-0.287513	-0.876778	-0.000096
C36	C	0.212487	-0.376778	0.499904
C37	C	-0.237286	-0.811762	-0.000085
C38	C	0.262714	-0.311762	0.499915
C39	C	-0.155748	-0.818421	-0.000088
C40	C	0.344252	-0.318421	0.499912
C41	C	-0.533232	-0.853254	-0.000082
C42	C	-0.033232	-0.353254	0.499918
C43	C	-0.614777	-0.846601	-0.000082
C44	C	-0.114777	-0.346601	0.499918
C45	C	-0.633681	-0.983286	-0.000103
C46	C	-0.133681	-0.483286	0.499897
C47	C	-0.552141	-0.989939	-0.000111
C48	C	-0.052141	-0.489939	0.499889
C49	C	-0.501921	-0.924923	-0.000095
C50	C	-0.001921	-0.424923	0.499905
C51	C	-0.370860	-0.869971	-0.000090
C52	C	0.129140	-0.369971	0.499910
C53	C	-0.418576	-0.931731	-0.000096
C54	C	0.081424	-0.431731	0.499904
C55	C	0.248221	-0.904531	-0.000095
C56	C	0.748221	-0.404531	0.499905
C57	C	0.335003	-0.911611	-0.000091
C58	C	0.835003	-0.411611	0.499909
C59	C	0.099312	-1.038845	-0.000118
C60	C	0.599312	-0.538845	0.499882
C61	C	0.100695	-1.122955	-0.000123
C62	C	0.600695	-0.622955	0.499877
C63	C	0.180453	-0.634800	-0.000072
C64	C	0.680453	-0.134800	0.499928
C65	C	0.179149	-0.555771	-0.000083
C66	C	0.679149	-0.055771	0.499917
C67	C	0.107263	-0.520694	-0.000091
C68	C	0.607263	-0.020694	0.499909
C69	C	0.036676	-0.564651	-0.000098
C70	C	0.536676	-0.064651	0.499902
C71	C	0.037981	-0.643679	-0.000093
C72	C	0.537981	-0.143679	0.499907
C73	C	0.031412	-0.245941	-0.000118
C74	C	0.531412	0.254059	0.499882
C75	C	0.030113	-0.166907	-0.000121
C76	C	0.530113	0.333093	0.499879
C77	C	0.172580	-0.158033	-0.000108
C78	C	0.672580	0.341967	0.499892
C79	C	0.173885	-0.237061	-0.000104
C80	C	0.673885	0.262939	0.499896
C81	C	0.103298	-0.281011	-0.000114
C82	C	0.603298	0.218989	0.499886
C83	C	0.104713	-0.366703	-0.000104
C84	C	0.604713	0.133297	0.499896
C85	C	0.105847	-0.435003	-0.000096
C86	C	0.605847	0.064997	0.499904
N87	N	0.116188	-0.890990	0.215696
N88	N	0.616188	-0.390990	0.715696
C89	C	0.065248	-0.937126	0.259273
C90	C	0.565248	-0.437126	0.759273
C91	C	0.069648	-0.933142	0.346463
C92	C	0.569648	-0.433142	0.846463
C93	C	0.124984	-0.883018	0.390074
C94	C	0.624984	-0.383018	0.890074
C95	C	0.175929	-0.836881	0.346492
C96	C	0.675929	-0.336881	0.846492
C97	C	0.171533	-0.840869	0.259303
C98	C	0.671533	-0.340869	0.759303
C99	C	0.140920	-0.868572	0.653327
C100	C	0.640920	-0.368572	1.153327
C101	C	0.145311	-0.864586	0.740521
C102	C	0.645311	-0.364586	1.240521
C103	C	0.039031	-0.960849	0.740486
C104	C	0.539031	-0.460849	1.240486
C105	C	0.034636	-0.964829	0.653296
C106	C	0.534636	-0.464829	1.153296
C107	C	0.085584	-0.918695	0.609721
C108	C	0.585584	-0.418695	1.109721
C109	C	0.129481	-0.878943	0.479196
C110	C	0.629481	-0.378943	0.979196
C111	C	0.081090	-0.922774	0.520601
C112	C	0.581090	-0.422774	1.020601
H113	H	-0.149165	-1.013466	-0.000132
H114	H	0.350835	-0.513466	0.499868
H115	H	0.020185	-0.977939	0.223770
H116	H	0.520185	-0.477939	0.723770
H117	H	0.230054	-0.122239	-0.000104
H118	H	0.730054	0.377761	0.499896
Cl119	Cl	-0.319328	-1.030180	-0.000122
Cl120	Cl	0.180672	-0.530180	0.499878
Cl121	Cl	-0.470109	-0.771519	-0.000060
Cl122	Cl	0.029891	-0.271519	0.499940
H123	H	-0.026064	-0.281716	-0.000128
H124	H	0.473936	0.218284	0.499872
Cl125	Cl	-0.696818	-1.065015	-0.000121
Cl126	Cl	-0.196818	-0.565015	0.499879
Cl127	Cl	-0.060265	-0.122811	-0.000132
Cl128	Cl	0.439735	0.377189	0.499868
H129	H	-0.021855	-0.536086	-0.000116
H130	H	0.478145	-0.036086	0.499884
Cl131	Cl	0.245500	-0.773871	0.401316
Cl132	Cl	0.745500	-0.273871	0.901316
Cl133	Cl	-0.512775	-1.080040	-0.000099
Cl134	Cl	-0.012775	-0.580040	0.499901
H135	H	0.182403	-0.831006	0.617855
H136	H	0.682403	-0.331006	1.117855
Cl137	Cl	0.214883	-0.801566	0.795341
Cl138	Cl	0.714883	-0.301566	1.295341
Cl139	Cl	0.235578	-0.782870	0.204522
Cl140	Cl	0.735578	-0.282870	0.704522
Cl141	Cl	0.011530	-0.985787	0.465775
Cl142	Cl	0.511530	-0.485787	0.965775
H143	H	0.236623	-0.519989	-0.000079
H144	H	0.736623	-0.019989	0.499921
H145	H	-0.019493	-0.679463	-0.000095
H146	H	0.480507	-0.179463	0.499905
H147	H	0.028169	-0.970710	0.381942
H148	H	0.528169	-0.470710	0.881942
Cl149	Cl	0.199044	-0.815930	0.534026
Cl150	Cl	0.699044	-0.315930	1.034026
H151	H	-0.002448	-0.998410	0.775973
H152	H	0.497552	-0.498410	1.275973
H153	H	-0.640272	-0.788237	-0.000086
H154	H	-0.140272	-0.288237	0.499914
Cl155	Cl	-0.034931	-1.027841	0.598470
Cl156	Cl	0.465069	-0.527841	1.098470
H157	H	-0.262791	-0.753407	-0.000070
H158	H	0.237209	-0.253407	0.499930
Cl159	Cl	-0.092613	-0.736689	-0.000073
Cl160	Cl	0.407387	-0.236689	0.499927
H161	H	-0.393073	-0.990083	-0.000087
H162	H	0.106927	-0.490083	0.499913
H163	H	-0.396367	-0.811617	-0.000082
H164	H	0.103633	-0.311617	0.499918
H165	H	0.238991	-0.663354	-0.000064
H166	H	0.738991	-0.163354	0.499936
H167	H	0.232422	-0.265616	-0.000093
H168	H	0.732422	0.234384	0.499907
