data_functionalizedCrystal
_audit_creation_method	'MofGen! by Chris Wilmer'
_symmetry_space_group_name_H-M	'P1'
_symmetry_Int_Tables_number	1
_symmetry_cell_setting	triclinic
loop_
_symmetry_equiv_pos_as_xyz
  x,y,z
_cell_length_a	10.686154
_cell_length_b	19.077068
_cell_length_c	19.076919
_cell_angle_alpha	85.529249
_cell_angle_beta	83.537031
_cell_angle_gamma	96.519987
loop_
_atom_site_label
_atom_site_type_symbol
_atom_site_fract_x
_atom_site_fract_y
_atom_site_fract_z
Zn1	Zn	-1.890234	0.212362	-0.325720
Zn2	Zn	-1.890077	0.325522	-0.212572
Zn3	Zn	-1.686757	0.216723	-0.216906
Zn4	Zn	-1.668907	0.340085	-0.340259
O5	O	-1.783994	0.273673	-0.273864
O6	O	-2.067930	0.219453	-0.302812
O7	O	-1.870511	0.306820	-0.114170
O8	O	-1.721285	0.117159	-0.227070
O9	O	-2.067815	0.302591	-0.219682
O10	O	-1.870779	0.113955	-0.307015
O11	O	-1.721132	0.226886	-0.117355
O12	O	-1.506673	0.241007	-0.241168
O13	O	-1.690863	0.327412	-0.437307
O14	O	-1.493559	0.331640	-0.331795
O15	O	-1.853471	0.233574	-0.426625
O16	O	-1.853203	0.426439	-0.233780
O17	O	-1.690710	0.437139	-0.327592
C18	C	-1.454036	0.288378	-0.288530
C19	C	-1.312876	0.294686	-0.294821
C20	C	-1.115241	0.258904	-0.259137
C21	C	-1.256402	0.252593	-0.252849
C22	C	-1.770036	0.457454	-0.281807
C23	C	-1.764179	0.536072	-0.285224
C24	C	-1.770193	0.281631	-0.458347
C25	C	-1.764312	0.285022	-0.536963
C26	C	-1.798040	0.089173	-0.265904
C27	C	-1.804026	0.010551	-0.262512
C28	C	-1.846089	0.567412	-0.238021
C29	C	-1.840587	0.641282	-0.241238
C30	C	-1.753169	0.683811	-0.291655
C31	C	-1.671255	0.652467	-0.338863
C32	C	-1.676764	0.578598	-0.335648
C33	C	-1.727621	0.905337	-0.306506
C34	C	-1.722116	0.979211	-0.309715
C35	C	-1.891450	0.968021	-0.212091
C36	C	-1.896946	0.894151	-0.208878
C37	C	-1.815037	0.862813	-0.256088
N38	N	-1.747541	0.759319	-0.294943
N39	N	-1.820672	0.787306	-0.252803
C40	C	-1.846206	0.237761	-0.568337
C41	C	-1.840665	0.240945	-0.642205
C42	C	-1.753235	0.291394	-0.684698
C43	C	-1.671332	0.338657	-0.653320
C44	C	-1.676868	0.335469	-0.579453
C45	C	-1.727594	0.306165	-0.906213
C46	C	-1.722066	0.309351	-0.980085
C47	C	-1.891398	0.211638	-0.968965
C48	C	-1.896932	0.208457	-0.895097
C49	C	-1.815025	0.255717	-0.863725
N50	N	-1.747571	0.294652	-0.760204
N51	N	-1.820683	0.252456	-0.788221
C52	C	-1.797818	0.265692	-0.090094
C53	C	-1.803960	0.262090	-0.011459
H54	H	-1.253227	0.335557	-0.335568
H55	H	-1.968129	0.859525	-0.167824
C56	C	-1.587908	0.386876	-0.545520
C57	C	-1.510185	0.431757	-0.598541
C58	C	-1.428232	0.479131	-0.567309
H59	H	-1.536670	0.361131	-0.517996
H60	H	-1.636284	0.414325	-0.515897
H61	H	-1.461813	0.404312	-0.628151
H62	H	-1.561388	0.457518	-0.626067
H63	H	-1.476608	0.506579	-0.537687
H64	H	-1.377003	0.453380	-0.539787
H65	H	-1.375495	0.509592	-0.603279
H66	H	-1.917269	0.532789	-0.196963
C67	C	-1.929578	0.675175	-0.189901
C68	C	-2.007285	0.622120	-0.145045
C69	C	-2.089272	0.653315	-0.097736
H70	H	-1.980826	0.702649	-0.215690
H71	H	-1.881227	0.704845	-0.162437
H72	H	-2.055632	0.592463	-0.172506
H73	H	-1.956072	0.594643	-0.119240
H74	H	-2.040920	0.682985	-0.070272
H75	H	-2.140510	0.680788	-0.123532
H76	H	-2.141997	0.617323	-0.067292
C77	C	-1.336077	0.198206	-0.198473
C78	C	-1.412600	0.232864	-0.151459
C79	C	-1.486034	0.182785	-0.101364
H80	H	-1.281875	0.172617	-0.172909
H81	H	-1.388205	0.166318	-0.221948
H82	H	-1.360476	0.264739	-0.127985
H83	H	-1.466827	0.258449	-0.177002
H84	H	-1.538163	0.150898	-0.124839
H85	H	-1.431822	0.157200	-0.075805
H86	H	-1.537972	0.206293	-0.069463
H87	H	-1.958137	0.993545	-0.173656
H88	H	-1.917405	0.196682	-0.533743
H89	H	-1.650944	1.013837	-0.350783
C90	C	-1.638522	0.871454	-0.357788
C91	C	-1.560757	0.924513	-0.402610
C92	C	-1.478642	0.893324	-0.449852
H93	H	-1.686740	0.841772	-0.385290
H94	H	-1.587333	0.843994	-0.331926
H95	H	-1.611941	0.951960	-0.428470
H96	H	-1.512513	0.954198	-0.375128
H97	H	-1.427452	0.865865	-0.423990
H98	H	-1.526870	0.863643	-0.477349
H99	H	-1.425861	0.929320	-0.480265
H100	H	-1.600083	0.687100	-0.379916
C101	C	-1.929736	0.189597	-0.676133
C102	C	-2.007517	0.144750	-0.623109
C103	C	-2.089599	0.097443	-0.654335
H104	H	-1.881495	0.162113	-0.705769
H105	H	-1.980916	0.215417	-0.703641
H106	H	-1.956342	0.118933	-0.595613
H107	H	-2.055785	0.172215	-0.593470
H108	H	-2.140780	0.123263	-0.681843
H109	H	-2.041348	0.069964	-0.683971
H110	H	-2.142391	0.067013	-0.618364
H111	H	-1.610066	0.553082	-0.374087
C112	C	-1.991898	0.153607	-0.849086
C113	C	-2.062411	0.112886	-0.892373
C114	C	-2.149898	0.062347	-0.850013
H115	H	-2.047449	0.176873	-0.818970
H116	H	-1.947853	0.123669	-0.821111
H117	H	-2.106455	0.142819	-0.920337
H118	H	-2.006895	0.089604	-0.922489
H119	H	-2.105853	0.032409	-0.822038
H120	H	-2.205440	0.085619	-0.819898
H121	H	-2.197744	0.034707	-0.879377
H122	H	-1.958081	0.173160	-0.994517
C123	C	-1.627003	0.364154	-1.026102
C124	C	-1.556433	0.404849	-0.982820
C125	C	-1.468846	0.455332	-1.025186
H126	H	-1.670933	0.394123	-1.054099
H127	H	-1.571509	0.340820	-1.056199
H128	H	-1.611919	0.428182	-0.952735
H129	H	-1.512475	0.374900	-0.954823
H130	H	-1.413352	0.431998	-1.055282
H131	H	-1.512787	0.485296	-1.053180
H132	H	-1.420946	0.482945	-0.995825
H133	H	-1.660917	0.344658	-0.880679
H134	H	-1.600140	0.379732	-0.687924
