data_functionalizedCrystal
_audit_creation_method	'MofGen! by Chris Wilmer'
_symmetry_space_group_name_H-M	'P1'
_symmetry_Int_Tables_number	1
_symmetry_cell_setting	triclinic
loop_
_symmetry_equiv_pos_as_xyz
  x,y,z
_cell_length_a	14.853567
_cell_length_b	10.540539
_cell_length_c	13.330367
_cell_angle_alpha	89.997527
_cell_angle_beta	89.995418
_cell_angle_gamma	84.080211
loop_
_atom_site_label
_atom_site_type_symbol
_atom_site_fract_x
_atom_site_fract_y
_atom_site_fract_z
O1	O	1.197288	0.165727	-0.083349
O2	O	0.934938	0.185470	-0.083366
O3	O	1.072099	-0.009174	-0.083356
O4	O	1.060128	0.360371	-0.083359
O5	O	1.072079	-0.009178	0.083491
O6	O	0.934918	0.185465	0.083481
O7	O	1.197268	0.165723	0.083498
Cu8	Cu	1.066092	0.175594	0.098724
Cu9	Cu	1.066115	0.175599	-0.098592
O10	O	1.060108	0.360367	0.083488
C11	C	0.901335	0.184573	0.000055
C12	C	0.801236	0.181892	0.000049
C13	C	0.387998	0.054938	0.000072
C14	C	0.368000	0.286179	0.000069
C15	C	0.462048	0.288700	0.000066
C16	C	0.519075	0.174338	0.000065
C17	C	0.482055	0.057455	0.000066
C18	C	0.499075	0.405580	0.000054
C19	C	0.593129	0.408105	0.000050
C20	C	0.650158	0.293742	0.000056
C21	C	0.613132	0.176855	0.000058
C22	C	0.670159	0.062493	0.000057
C23	C	0.633135	-0.054396	0.000067
C24	C	0.539084	-0.056908	0.000072
C25	C	0.744209	0.296254	0.000050
C26	C	0.764216	0.065010	0.000050
C27	C	1.071191	-0.056469	0.000066
C28	C	1.068505	-0.197388	0.000060
C29	C	0.965588	-0.379682	-0.000321
C30	C	0.968311	-0.233094	0.000055
C31	C	1.116712	-0.259578	0.095341
C32	C	1.113292	-0.406085	0.095421
C33	C	1.115353	-0.406621	-0.094315
C34	C	1.116276	-0.259649	-0.095575
C35	C	1.230872	0.166620	0.000074
C36	C	1.330971	0.169300	0.000074
C37	C	1.061016	0.407662	0.000064
C38	C	1.063702	0.548580	0.000063
N39	N	1.066081	0.175589	0.237505
N40	N	1.066133	0.175593	-0.237374
C41	C	1.005378	0.261753	0.710124
C42	C	1.126877	0.089435	0.710101
C43	C	1.126867	0.089431	0.605082
C44	C	1.066112	0.175591	0.552580
C45	C	1.005368	0.261754	0.605096
C46	C	1.187616	0.003277	0.552559
C47	C	1.187609	0.003271	0.447534
C48	C	1.126849	0.089426	0.395029
C49	C	1.066102	0.175592	0.447552
C50	C	1.005347	0.261752	0.395049
C51	C	0.944594	0.347913	0.447570
C52	C	0.944608	0.347909	0.552591
C53	C	1.126836	0.089430	0.290008
C54	C	1.005337	0.261753	0.290021
H55	H	0.774350	0.391423	0.000044
H56	H	0.930378	-0.190072	-0.068247
H57	H	0.955911	0.331901	0.752889
H58	H	0.926162	-0.409458	0.067619
C59	C	1.230352	-0.163888	0.188640
C60	C	1.216042	-0.230498	0.100144
H61	H	1.291677	-0.145943	0.191605
H62	H	1.191771	-0.086209	0.189511
H63	H	1.217328	-0.214352	0.244821
H64	H	1.229060	-0.180031	0.043963
H65	H	1.254636	-0.308190	0.099264
C66	C	0.376097	-0.142941	0.085850
C67	C	0.347306	-0.073542	0.000081
H68	H	0.350970	-0.222256	0.085856
H69	H	0.440264	-0.157801	0.085835
H70	H	0.356568	-0.095837	0.144028
H71	H	0.366842	-0.120642	-0.058097
H72	H	0.283126	-0.058686	0.000087
C73	C	0.890643	0.424420	0.286581
C74	C	0.877814	0.442619	0.389852
H75	H	0.849413	0.482881	0.250948
H76	H	0.950890	0.438367	0.269373
H77	H	0.880312	0.339669	0.269386
H78	H	0.888152	0.527366	0.407048
H79	H	0.817552	0.428681	0.407067
C80	C	0.890690	0.424433	0.713591
C81	C	0.877842	0.442623	0.610324
H82	H	0.849477	0.482914	0.749233
H83	H	0.880353	0.339701	0.730805
H84	H	0.950952	0.438371	0.730771
H85	H	0.817582	0.428676	0.593142
H86	H	0.888171	0.527375	0.593103
C87	C	0.728417	0.514648	0.000013
C88	C	0.633823	0.536584	0.000025
H89	H	0.753539	0.593967	-0.000013
H90	H	0.747935	0.467579	0.058199
H91	H	0.747930	0.467539	-0.058168
H92	H	0.614309	0.583686	0.058210
H93	H	0.614296	0.583673	-0.058167
H94	H	1.237076	-0.066887	0.404778
H95	H	1.189326	-0.236231	-0.101324
H96	H	0.810642	-0.028119	0.000053
H97	H	1.176346	0.019292	0.752851
C98	C	1.241567	-0.073235	0.713541
C99	C	1.254395	-0.091424	0.610269
H100	H	1.282791	-0.131710	0.749170
H101	H	1.251900	0.011499	0.730742
H102	H	1.181310	-0.087182	0.730748
H103	H	1.314649	-0.077468	0.593060
H104	H	1.244068	-0.176179	0.593061
H105	H	0.679579	-0.147509	0.000058
H106	H	1.176304	0.019284	0.247250
H107	H	0.321563	0.379287	0.000062
C108	C	0.527163	-0.254793	0.085840
C109	C	0.498386	-0.185384	0.000071
H110	H	0.502030	-0.334104	0.085838
H111	H	0.591330	-0.269661	0.085834
H112	H	0.507630	-0.207692	0.144018
H113	H	0.517925	-0.232481	-0.058107
H114	H	0.434206	-0.170519	0.000069
C115	C	0.346022	0.504384	0.000082
C116	C	0.436392	0.531280	0.000063
H117	H	0.307323	0.581991	0.000097
H118	H	0.334720	0.456478	-0.058096
H119	H	0.334735	0.456458	0.058271
H120	H	0.447681	0.579198	-0.058131
H121	H	0.447699	0.579207	0.058247
C122	C	0.886168	-0.309173	-0.150382
C123	C	0.912165	-0.417701	-0.092561
H124	H	0.853193	-0.332654	-0.207333
H125	H	0.849143	-0.249220	-0.111253
H126	H	0.938541	-0.272055	-0.171787
H127	H	0.859791	-0.454814	-0.071150
H128	H	0.949192	-0.477675	-0.131697
H129	H	0.930096	-0.190919	0.068465
H130	H	1.083208	-0.216612	0.166242
H131	H	1.185351	-0.454847	0.099748
C132	C	1.039676	-0.334207	0.248538
C133	C	1.065164	-0.443635	0.191556
H134	H	1.009956	-0.357386	0.307885
H135	H	1.091998	-0.294309	0.265945
H136	H	0.999774	-0.276722	0.210432
H137	H	1.105071	-0.501116	0.229660
H138	H	1.012834	-0.483553	0.174151
H139	H	1.082934	-0.437815	-0.166532
H140	H	1.081004	-0.218401	-0.166061
H141	H	1.187723	-0.454643	-0.094951
H142	H	0.955860	0.331911	0.247280
