data_functionalizedCrystal
_audit_creation_method	'MofGen! by Chris Wilmer'
_symmetry_space_group_name_H-M	'P1'
_symmetry_Int_Tables_number	1
_symmetry_cell_setting	triclinic
loop_
_symmetry_equiv_pos_as_xyz
  x,y,z
_cell_length_a	25.639239
_cell_length_b	17.640112
_cell_length_c	17.640968
_cell_angle_alpha	92.139080
_cell_angle_beta	78.768464
_cell_angle_gamma	101.264534
loop_
_atom_site_label
_atom_site_type_symbol
_atom_site_fract_x
_atom_site_fract_y
_atom_site_fract_z
Zn1	Zn	-0.015023	1.247772	-0.195080
Zn2	Zn	-0.122900	1.221955	-0.068097
Zn3	Zn	-0.049036	1.095089	-0.093726
Zn4	Zn	-0.116017	1.120698	-0.220679
O5	O	-0.075744	1.171378	-0.144396
O6	O	-0.017980	1.350621	-0.156796
O7	O	-0.130216	1.183603	0.034776
O8	O	0.028654	1.115429	-0.107183
O9	O	-0.097236	1.331654	-0.063503
O10	O	0.053643	1.227605	-0.181647
O11	O	-0.075949	1.090396	0.015947
O12	O	-0.069275	0.992212	-0.132006
O13	O	-0.085505	1.159077	-0.323556
O14	O	-0.118486	1.011027	-0.225278
O15	O	-0.011306	1.252437	-0.304749
O16	O	-0.195165	1.208436	-0.088325
O17	O	-0.190109	1.134044	-0.200427
C18	C	-0.096825	0.974064	-0.184201
C19	C	-0.105853	0.889655	-0.201248
C20	C	-0.007149	0.563036	-0.014898
C21	C	-0.015641	0.483723	-0.030927
C22	C	-0.067003	0.503336	-0.127883
C23	C	-0.058513	0.582653	-0.111865
C24	C	-0.028586	0.612496	-0.055372
C25	C	-0.079950	0.632112	-0.152339
C26	C	-0.071463	0.711421	-0.136319
C27	C	-0.041539	0.741270	-0.079826
C28	C	-0.020099	0.691804	-0.039352
C29	C	-0.109880	0.602267	-0.208829
C30	C	-0.131317	0.651727	-0.249302
C31	C	-0.122827	0.731038	-0.233287
C32	C	-0.092903	0.760887	-0.176794
C33	C	-0.144267	0.780503	-0.273761
C34	C	-0.135780	0.859812	-0.257742
C35	C	-0.084416	0.840196	-0.160774
C36	C	-0.211606	1.171241	-0.144385
C37	C	-0.269717	1.171257	-0.144392
C38	C	-0.518277	1.132630	-0.202753
C39	C	-0.463677	1.132600	-0.202750
O40	O	-0.433219	1.099628	-0.252371
N41	N	-0.438975	1.171361	-0.144412
C42	C	-0.468874	1.210160	-0.086078
O43	O	-0.442849	1.243127	-0.036458
C44	C	-0.523472	1.210194	-0.086085
C45	C	-0.548172	1.171425	-0.144422
C46	C	-0.542978	1.093864	-0.261086
C47	C	-0.597574	1.093893	-0.261088
C48	C	-0.627470	1.132688	-0.202757
C49	C	-0.602769	1.171454	-0.144425
C50	C	-0.553368	1.248998	-0.027755
C51	C	-0.607970	1.249029	-0.027767
C52	C	-0.632671	1.210260	-0.086104
C53	C	-0.687261	1.210277	-0.086096
N54	N	-0.711963	1.171516	-0.144434
C55	C	-0.682068	1.132722	-0.202764
C56	C	-0.354214	1.210087	-0.086069
C57	C	-0.299618	1.210049	-0.086059
C58	C	-0.294425	1.132489	-0.202731
C59	C	-0.349023	1.132524	-0.202738
C60	C	-0.378917	1.171326	-0.144407
C61	C	-0.796724	1.132785	-0.202764
C62	C	-0.851326	1.132814	-0.202759
C63	C	-0.856514	1.210377	-0.086089
C64	C	-0.801917	1.210344	-0.086091
C65	C	-0.772023	1.171547	-0.144435
O66	O	-0.717752	1.243235	-0.036502
O67	O	-0.708098	1.099769	-0.252382
C68	C	0.060654	1.171540	-0.144419
C69	C	0.118778	1.171609	-0.144428
C70	C	-0.043844	1.211494	-0.342479
C71	C	-0.030250	1.228589	-0.426890
C72	C	-0.054581	1.369464	-0.104435
C73	C	-0.045563	1.453876	-0.087406
C74	C	-0.178701	1.041802	-0.753462
C75	C	-0.165919	1.057882	-0.832776
C76	C	-0.088661	1.155089	-0.813183
C77	C	-0.101435	1.139016	-0.733866
C78	C	-0.146456	1.082372	-0.704013
C79	C	-0.069191	1.179585	-0.684417
C80	C	-0.081966	1.163515	-0.605106
C81	C	-0.126985	1.106876	-0.575246
C82	C	-0.159231	1.066302	-0.624702
C83	C	-0.024172	1.236232	-0.714271
C84	C	0.008072	1.276802	-0.664821
C85	C	-0.004700	1.260728	-0.585510
C86	C	-0.049720	1.204089	-0.555650
C87	C	0.027546	1.301302	-0.536054
C88	C	0.014771	1.285232	-0.456744
C89	C	-0.062494	1.188019	-0.476340
C90	C	-0.107478	1.131463	0.052926
C91	C	-0.120909	1.114515	0.137366
H92	H	-0.153236	0.900084	-0.290700
O93	O	-0.140777	1.089545	-0.489703
H94	H	-0.139705	1.028038	-0.480348
O95	O	0.025130	0.595235	0.046035
H96	H	0.038611	0.547520	0.071492
H97	H	-0.052007	1.201210	-0.837501
H98	H	-0.270074	1.100902	-0.250228
H99	H	-0.192180	1.024841	-0.873037
O100	O	-0.877966	1.090991	-0.265682
H101	H	-0.920957	1.097518	-0.255884
H102	H	0.001823	0.443456	0.002031
O103	O	-0.764488	1.090927	-0.265680
H104	H	-0.790846	1.063969	-0.306232
H105	H	-0.099144	1.141876	-0.452035
O106	O	0.056632	1.337893	-0.697015
H107	H	0.093824	1.321822	-0.684415
H108	H	-0.378552	1.241682	-0.038563
H109	H	-0.617681	1.062321	-0.308591
H110	H	-0.632306	1.280631	0.019732
H111	H	-0.781808	1.241904	-0.038582
H112	H	-0.195881	1.020159	-0.600398
H113	H	-0.013774	1.249316	-0.778851
H114	H	-0.880865	1.241959	-0.038596
O115	O	-0.099277	0.471149	-0.188819
H116	H	-0.101574	0.407691	-0.193164
H117	H	-0.518641	1.062274	-0.308589
H118	H	-0.155686	0.627417	-0.295297
H119	H	-0.116790	0.537688	-0.221870
O120	O	-0.176545	0.748313	-0.334692
H121	H	-0.178844	0.684855	-0.339032
H122	H	-0.369130	1.100959	-0.250245
H123	H	-0.279513	1.241608	-0.038549
O124	O	-0.526732	1.290825	0.035159
H125	H	-0.556698	1.317813	0.075705
O126	O	-0.227257	0.980705	-0.721252
H127	H	-0.247536	0.955191	-0.768961
H128	H	0.064198	1.347426	-0.560372
O129	O	0.049549	1.328982	-0.403401
H130	H	0.083004	1.371063	-0.437485
H131	H	-0.034630	0.805849	-0.066783
O132	O	-0.052135	0.872387	-0.099841
H133	H	-0.016215	0.915441	-0.126602
O134	O	0.012180	0.724004	0.021581
H135	H	0.025661	0.676288	0.047038
