data_functionalizedCrystal
_audit_creation_method	'MofGen! by Chris Wilmer'
_symmetry_space_group_name_H-M	'P1'
_symmetry_Int_Tables_number	1
_symmetry_cell_setting	triclinic
loop_
_symmetry_equiv_pos_as_xyz
  x,y,z
_cell_length_a	13.897449
_cell_length_b	12.645330
_cell_length_c	12.645318
_cell_angle_alpha	89.942319
_cell_angle_beta	89.958403
_cell_angle_gamma	90.018972
loop_
_atom_site_label
_atom_site_type_symbol
_atom_site_fract_x
_atom_site_fract_y
_atom_site_fract_z
Zn1	Zn	1.474901	-0.421651	-0.599409
Zn2	Zn	1.474737	-0.599041	-0.422149
Zn3	Zn	1.313532	-0.421796	-0.422157
Zn4	Zn	1.313572	-0.598877	-0.599368
O5	O	1.394185	-0.510341	-0.510771
O6	O	1.609861	-0.445191	-0.575908
O7	O	1.453266	-0.575658	-0.273802
O8	O	1.334990	-0.273429	-0.445690
O9	O	1.609740	-0.575518	-0.445676
O10	O	1.453547	-0.273323	-0.575916
O11	O	1.334830	-0.445437	-0.273809
O12	O	1.178555	-0.445278	-0.445651
O13	O	1.335059	-0.575239	-0.747721
O14	O	1.178585	-0.575379	-0.575848
O15	O	1.453587	-0.445032	-0.747751
O16	O	1.453306	-0.747367	-0.445637
O17	O	1.334899	-0.747246	-0.575839
C18	C	1.143571	-0.510327	-0.510747
C19	C	1.036357	-0.510347	-0.510761
C20	C	0.840062	-0.510350	-0.510789
C21	C	0.949295	-0.510345	-0.510771
C22	C	1.394115	-0.785771	-0.510756
C23	C	1.394173	-0.903601	-0.510785
C24	C	1.319991	-1.071133	-0.592948
C25	C	1.319611	-0.948574	-0.592684
C26	C	1.366617	-0.948260	-0.399064
C27	C	1.366164	-1.070858	-0.399562
C28	C	1.496365	-1.070672	-0.539437
C29	C	1.495740	-0.948063	-0.541880
C30	C	1.645778	-0.510356	-0.510796
C31	C	1.752992	-0.510363	-0.510806
C32	C	1.394346	-0.510101	-0.787276
C33	C	1.394414	-0.509999	-0.905107
C34	C	1.394282	-0.233836	-0.510809
C35	C	1.394324	-0.116006	-0.510825
C36	C	1.394081	-0.510504	-0.235341
C37	C	1.394200	-0.510308	-0.117511
C38	C	1.319191	-0.428910	-0.072695
C39	C	1.319024	-0.428976	0.049865
C40	C	1.367811	-0.622082	0.050731
C41	C	1.367144	-0.621791	-0.071867
C42	C	1.496051	-0.480532	-0.072613
C43	C	1.495613	-0.477893	0.049987
H44	H	1.336856	-0.918372	-0.675525
H45	H	1.551746	-1.099692	-0.479624
H46	H	1.554476	-0.532672	0.080622
H47	H	1.515683	-0.395404	0.078813
H48	H	1.551930	-0.539797	-0.101599
H49	H	1.244815	-1.102047	-0.574234
H50	H	1.337078	-1.100497	-0.676061
H51	H	1.243963	-0.919352	-0.573728
H52	H	1.291570	-1.099565	-0.375324
H53	H	1.292727	-0.646873	-0.100242
H54	H	1.520389	-0.400236	-0.103783
H55	H	1.419039	-0.919136	-0.336204
H56	H	1.417953	-1.100550	-0.336288
H57	H	1.516521	-0.918865	-0.624101
H58	H	1.335462	-0.345668	-0.102417
H59	H	1.554041	-0.917443	-0.486422
H60	H	1.420861	-0.684330	0.079912
H61	H	1.521495	-1.101469	-0.619520
H62	H	1.292800	-0.917665	-0.374387
H63	H	1.244138	-0.448478	-0.103295
H64	H	1.335557	-0.345906	0.079709
H65	H	1.243604	-0.448695	0.079403
H66	H	1.294276	-0.647494	0.081654
H67	H	1.419461	-0.684559	-0.101497
