data_functionalizedCrystal
_audit_creation_method	'MofGen! by Chris Wilmer'
_symmetry_space_group_name_H-M	'P1'
_symmetry_Int_Tables_number	1
_symmetry_cell_setting	triclinic
loop_
_symmetry_equiv_pos_as_xyz
  x,y,z
_cell_length_a	10.686220
_cell_length_b	21.295417
_cell_length_c	10.686551
_cell_angle_alpha	85.588773
_cell_angle_beta	90.308082
_cell_angle_gamma	94.411800
loop_
_atom_site_label
_atom_site_type_symbol
_atom_site_fract_x
_atom_site_fract_y
_atom_site_fract_z
Zn1	Zn	1.972206	-0.153472	-0.562356
Zn2	Zn	1.955916	-0.267412	-0.352576
Zn3	Zn	1.746316	-0.169576	-0.368671
Zn4	Zn	1.762347	-0.266137	-0.578354
O5	O	1.859196	-0.214149	-0.465489
O6	O	2.145590	-0.162381	-0.521098
O7	O	1.914586	-0.261707	-0.179164
O8	O	1.776389	-0.079345	-0.394404
O9	O	2.133622	-0.246092	-0.366973
O10	O	1.942350	-0.067514	-0.536704
O11	O	1.760594	-0.189827	-0.190989
O12	O	1.572897	-0.188590	-0.409916
O13	O	1.803712	-0.243918	-0.751778
O14	O	1.584676	-0.259533	-0.563969
O15	O	1.957894	-0.161144	-0.740025
O16	O	1.930131	-0.355338	-0.382485
O17	O	1.787916	-0.354401	-0.548363
C18	C	1.533270	-0.225671	-0.490426
C19	C	1.393839	-0.230614	-0.501124
C20	C	1.859032	-0.377709	-0.465438
C21	C	1.859079	-0.447675	-0.465449
C22	C	1.945453	-0.474323	-0.539605
C23	C	1.945500	-0.540063	-0.539633
C24	C	1.859184	-0.579152	-0.465481
C25	C	1.772794	-0.552497	-0.391320
C26	C	1.772741	-0.486758	-0.391304
N27	N	1.841275	-0.687283	-0.356418
N28	N	1.841332	-0.749732	-0.356436
C29	C	1.859335	-0.777219	-0.465526
N30	N	1.877303	-0.739899	-0.574598
N31	N	1.877252	-0.677444	-0.574578
C32	C	1.859231	-0.650436	-0.465490
C33	C	1.945764	-0.875150	-0.539719
C34	C	1.945802	-0.940891	-0.539749
C35	C	1.773102	-0.953324	-0.391424
C36	C	1.773058	-0.887584	-0.391406
C37	C	1.859396	-0.848500	-0.465551
C38	C	2.186396	-0.202583	-0.440455
C39	C	2.325829	-0.197654	-0.429788
C40	C	1.884408	-0.200593	-0.792692
C41	C	1.895152	-0.194816	-0.932126
C42	C	1.859398	-0.049948	-0.465565
C43	C	1.859484	0.020024	-0.465598
C44	C	1.834155	-0.227605	-0.139554
C45	C	1.823654	-0.233196	-0.000101
H46	H	1.345390	-0.262620	-0.570380
H47	H	1.702512	-0.584328	-0.330948
H48	H	1.374271	-0.165654	-0.360528
C49	C	1.729852	-0.283557	-0.934624
H50	H	1.734686	-0.280960	-0.846356
H51	H	1.749784	-0.324329	-0.954613
H52	H	1.647204	-0.276440	-0.962491
H53	H	2.015752	-0.442503	-0.599982
C54	C	1.988962	-0.144452	-0.997603
H55	H	2.032381	-0.121151	-0.936260
H56	H	1.944907	-0.116625	-1.052408
H57	H	2.047490	-0.164513	-1.044519
H58	H	2.015827	-0.561764	-0.600036
C59	C	2.040819	-0.970204	-0.621325
H60	H	2.092235	-0.937510	-0.665468
H61	H	1.997024	-0.995294	-0.679632
H62	H	2.091840	-0.995886	-0.569191
H63	H	1.702404	-0.465062	-0.330916
C64	C	2.040694	-0.832156	-0.621314
H65	H	2.092124	-0.857444	-0.665508
H66	H	2.091691	-0.806540	-0.569207
H67	H	1.996816	-0.805966	-0.679597
H68	H	1.702814	-0.985150	-0.331057
H69	H	1.702729	-0.865886	-0.331015
