data_functionalizedCrystal
_audit_creation_method	'MofGen! by Chris Wilmer'
_symmetry_space_group_name_H-M	'P1'
_symmetry_Int_Tables_number	1
_symmetry_cell_setting	triclinic
loop_
_symmetry_equiv_pos_as_xyz
  x,y,z
_cell_length_a	19.288864
_cell_length_b	27.732048
_cell_length_c	17.766277
_cell_angle_alpha	89.988664
_cell_angle_beta	89.976791
_cell_angle_gamma	82.889449
loop_
_atom_site_label
_atom_site_type_symbol
_atom_site_fract_x
_atom_site_fract_y
_atom_site_fract_z
O1	O	0.920977	0.060300	-0.062844
O2	O	1.420977	0.560300	0.437156
O3	O	0.718666	0.068434	-0.062793
O4	O	1.218666	0.568434	0.437207
O5	O	0.826105	-0.006011	-0.062806
O6	O	1.326105	0.493989	0.437194
O7	O	0.813538	0.134745	-0.062831
O8	O	1.313538	0.634745	0.437169
O9	O	0.826086	-0.006014	0.062383
O10	O	1.326086	0.493986	0.562383
O11	O	0.718647	0.068430	0.062395
O12	O	1.218647	0.568430	0.562395
O13	O	0.920958	0.060296	0.062345
O14	O	1.420958	0.560296	0.562345
Cu15	Cu	0.819801	0.064363	0.073801
Cu16	Cu	1.319801	0.564363	0.573801
Cu17	Cu	0.819823	0.064367	-0.074249
Cu18	Cu	1.319823	0.564367	0.425751
O19	O	0.813519	0.134741	0.062357
O20	O	1.313519	0.634741	0.562357
C21	C	0.692781	0.068171	-0.000192
C22	C	1.192781	0.568171	0.499808
C23	C	0.615683	0.067385	-0.000172
C24	C	1.115683	0.567385	0.499828
C25	C	0.570714	0.111066	-0.000192
C26	C	1.070714	0.611066	0.499808
C27	C	0.498271	0.110328	-0.000200
C28	C	0.998271	0.610328	0.499800
C29	C	0.470801	0.065906	-0.000204
C30	C	0.970801	0.565906	0.499796
C31	C	0.515780	0.022219	-0.000180
C32	C	1.015780	0.522219	0.499820
C33	C	0.588220	0.022959	-0.000164
C34	C	1.088220	0.522959	0.499836
C35	C	0.362763	0.030987	-0.044082
C36	C	0.862763	0.530987	0.455918
C37	C	0.290324	0.030250	-0.044102
C38	C	0.790324	0.530250	0.455898
C39	C	0.247370	0.063624	-0.000249
C40	C	0.747370	0.563624	0.499751
C41	C	0.276863	0.097744	0.043615
C42	C	0.776863	0.597744	0.543615
C43	C	0.349304	0.098483	0.043631
C44	C	0.849304	0.598483	0.543631
C45	C	0.392252	0.065099	-0.000220
C46	C	0.892252	0.565099	0.499780
C47	C	0.123850	0.106507	-0.000277
C48	C	0.623850	0.606507	0.499723
C49	C	0.051406	0.105767	-0.000280
C50	C	0.551406	0.605767	0.499720
C51	C	0.068916	0.017658	-0.000267
C52	C	0.568916	0.517658	0.499733
C53	C	0.141358	0.018399	-0.000256
C54	C	0.641358	0.518399	0.499744
C55	C	0.168820	0.062825	-0.000264
C56	C	0.668820	0.562825	0.499736
C57	C	0.825831	-0.024020	-0.000209
C58	C	1.325831	0.475980	0.499791
C59	C	0.825037	-0.077678	-0.000203
C60	C	1.325037	0.422322	0.499797
C61	C	0.883526	-0.416316	-0.000256
C62	C	1.383526	0.083684	0.499744
C63	C	0.880579	-0.617985	-0.000266
C64	C	1.380579	-0.117985	0.499734
O65	O	0.934063	-0.649079	-0.000312
O66	O	1.434063	-0.149079	0.499688
N67	N	0.816872	-0.637301	-0.000249
N68	N	1.316872	-0.137301	0.499751
C69	C	0.753897	-0.606196	-0.000235
C70	C	1.253897	-0.106196	0.499765
O71	O	0.699643	-0.627253	-0.000229
O72	O	1.199643	-0.127253	0.499771
C73	C	0.756845	-0.404529	-0.000231
C74	C	1.256845	0.095471	0.499769
C75	C	0.820556	-0.385216	-0.000240
C76	C	1.320556	0.114784	0.499760
C77	C	0.947232	-0.397002	-0.000266
C78	C	1.447232	0.102998	0.499734
C79	C	0.947968	-0.346588	-0.000259
C80	C	1.447968	0.153412	0.499741
C81	C	0.884998	-0.315488	-0.000243
C82	C	1.384998	0.184512	0.499757
C83	C	0.821292	-0.334801	-0.000233
C84	C	1.321292	0.165199	0.499767
C85	C	0.693871	-0.373425	-0.000222
C86	C	1.193871	0.126575	0.499778
C87	C	0.694614	-0.323006	-0.000223
C88	C	1.194614	0.176994	0.499777
C89	C	0.758325	-0.303693	-0.000232
C90	C	1.258325	0.196307	0.499768
C91	C	0.759059	-0.253287	-0.000210
C92	C	1.259059	0.246713	0.499790
N93	N	0.822766	-0.233971	-0.000227
N94	N	1.322766	0.266029	0.499773
C95	C	0.885735	-0.265071	-0.000243
C96	C	1.385735	0.234929	0.499757
C97	C	0.752354	-0.712075	-0.000236
C98	C	1.252354	-0.212075	0.499764
C99	C	0.751617	-0.762492	-0.000236
C100	C	1.251617	-0.262492	0.499764
C101	C	0.878299	-0.774276	-0.000268
C102	C	1.378299	-0.274276	0.499732
C103	C	0.879035	-0.723859	-0.000263
C104	C	1.379035	-0.223859	0.499737
C105	C	0.816061	-0.692759	-0.000253
C106	C	1.316061	-0.192759	0.499747
C107	C	0.887276	-0.159197	-0.000229
C108	C	1.387276	0.340803	0.499771
C109	C	0.888007	-0.108778	-0.000219
C110	C	1.388007	0.391222	0.499781
C111	C	0.761325	-0.096998	-0.000191
C112	C	1.261325	0.403002	0.499809
C113	C	0.760595	-0.147412	-0.000197
C114	C	1.260595	0.352588	0.499803
C115	C	0.823576	-0.178511	-0.000218
C116	C	1.323576	0.321489	0.499782
O117	O	0.705603	-0.222164	-0.000172
O118	O	1.205603	0.277836	0.499828
O119	O	0.939982	-0.244005	-0.000266
O120	O	1.439982	0.255995	0.499734
C121	C	0.882790	-0.466730	-0.000263
C122	C	1.382790	0.033270	0.499737
C123	C	0.819084	-0.486044	-0.000253
C124	C	1.319084	0.013956	0.499747
C125	C	0.756114	-0.454943	-0.000236
C126	C	1.256114	0.045057	0.499764
C127	C	0.818347	-0.536461	-0.000253
C128	C	1.318347	-0.036461	0.499747
C129	C	0.881317	-0.567561	-0.000269
C130	C	1.381317	-0.067561	0.499731
C131	C	0.945023	-0.548245	-0.000285
C132	C	1.445023	-0.048245	0.499715
C133	C	0.945760	-0.497831	-0.000279
C134	C	1.445760	0.002169	0.499721
C135	C	0.692407	-0.474260	-0.000220
C136	C	1.192407	0.025740	0.499780
C137	C	0.691676	-0.524674	-0.000226
C138	C	1.191676	-0.024674	0.499774
C139	C	0.754646	-0.555775	-0.000242
C140	C	1.254646	-0.055775	0.499758
C141	C	0.946842	0.060560	-0.000258
C142	C	1.446842	0.560560	0.499742
C143	C	1.023941	0.061345	-0.000282
C144	C	1.523941	0.561345	0.499718
N145	N	0.819790	0.064359	0.177931
N146	N	1.319790	0.564359	0.677931
C147	C	0.813792	0.152751	-0.000241
C148	C	1.313792	0.652751	0.499759
C149	C	0.814587	0.206408	-0.000252
C150	C	1.314587	0.706408	0.499748
N151	N	0.819839	0.064367	-0.178379
N152	N	1.319839	0.564367	0.321621
C153	C	0.867380	0.031411	0.217313
C154	C	1.367380	0.531411	0.717313
C155	C	0.867384	0.031409	0.296114
C156	C	1.367384	0.531409	0.796114
C157	C	0.819805	0.064363	0.335532
C158	C	1.319805	0.564363	0.835532
C159	C	0.772207	0.097314	0.296141
C160	C	1.272207	0.597314	0.796141
C161	C	0.772200	0.097312	0.217341
C162	C	1.272200	0.597312	0.717341
C163	C	0.810231	0.108406	0.460363
C164	C	1.310231	0.608406	0.960363
C165	C	0.810244	0.108408	0.539162
C166	C	1.310244	0.608408	1.039162
C167	C	0.819823	0.064369	0.578578
C168	C	1.319823	0.564369	1.078578
C169	C	0.829406	0.020325	0.539186
C170	C	1.329406	0.520325	1.039186
C171	C	0.829399	0.020323	0.460385
C172	C	1.329399	0.520323	0.960385
C173	C	0.819807	0.064369	0.420977
C174	C	1.319807	0.564369	0.920977
C175	C	0.867420	0.031416	0.703405
C176	C	1.367420	0.531416	1.203405
C177	C	0.867419	0.031413	0.782209
C178	C	1.367419	0.531413	1.282209
C179	C	0.772245	0.097322	0.782234
C180	C	1.272245	0.597322	1.282234
C181	C	0.772243	0.097321	0.703432
C182	C	1.272243	0.597321	1.203432
C183	C	0.819834	0.064368	0.664023
C184	C	1.319834	0.564368	1.164023
H185	H	0.397731	0.003809	-0.079797
H186	H	0.897731	0.503809	0.420203
O187	O	0.726040	0.129389	0.179116
O188	O	1.226040	0.629389	0.679116
C189	C	0.684404	0.213512	0.155035
C190	C	1.184404	0.713512	0.655035
C191	C	0.736726	0.177237	0.198358
C192	C	1.236726	0.677237	0.698358
H193	H	0.693015	0.252205	0.170588
H194	H	1.193015	0.752205	0.670588
H195	H	0.692572	0.207894	0.091935
H196	H	1.192572	0.707894	0.591935
H197	H	0.628848	0.207286	0.170549
H198	H	1.128848	0.707286	0.670549
H199	H	0.792302	0.183441	0.182907
H200	H	1.292302	0.683441	0.682907
H201	H	0.728497	0.182863	0.261447
H202	H	1.228497	0.682863	0.761447
O203	O	0.801056	0.151179	0.577461
O204	O	1.301056	0.651179	1.077461
C205	C	0.849414	0.203452	0.666424
C206	C	1.349414	0.703452	1.166424
C207	C	0.859920	0.155005	0.623085
C208	C	1.359920	0.655005	1.123085
H209	H	0.896990	0.206557	0.703333
H210	H	1.396990	0.706557	1.203333
H211	H	0.842593	0.234950	0.624757
H212	H	1.342593	0.734950	1.124757
H213	H	0.800848	0.204701	0.703308
H214	H	1.300848	0.704701	1.203308
H215	H	0.908488	0.153708	0.586200
H216	H	1.408488	0.653708	1.086200
H217	H	0.866699	0.123529	0.664793
H218	H	1.366699	0.623529	1.164793
H219	H	0.146211	0.142682	-0.000272
H220	H	0.646211	0.642682	0.499728
O221	O	0.913678	-0.000619	0.334264
O222	O	1.413678	0.499381	0.834264
C223	C	1.008045	-0.066011	0.325929
C224	C	1.508045	0.433989	0.825929
C225	C	0.955669	-0.029758	0.282635
C226	C	1.455669	0.470242	0.782635
H227	H	1.041998	-0.089587	0.284205
H228	H	1.541998	0.410413	0.784205
H229	H	1.042567	-0.045228	0.362776
H230	H	1.542567	0.454772	0.862776
H231	H	0.978304	-0.090082	0.362865
H232	H	1.478304	0.409918	0.862865
H233	H	0.985353	-0.005677	0.245657
H234	H	1.485353	0.494323	0.745657
H235	H	0.921148	-0.050571	0.245835
H236	H	1.421148	0.449429	0.745835
H237	H	0.906170	0.004580	0.814274
H238	H	1.406170	0.504580	1.314274
H239	H	0.266316	0.002469	-0.079822
H240	H	0.766316	0.502469	0.420178
H241	H	0.373314	0.126263	0.079349
H242	H	0.873314	0.626263	0.579349
H243	H	0.997640	-0.482111	-0.000286
H244	H	1.497640	0.017889	0.499714
O245	O	0.185074	-0.024020	-0.000115
O246	O	0.685074	0.475980	0.499885
C247	C	0.277020	-0.074308	0.064737
C248	C	0.777020	0.425692	0.564737
C249	C	0.227540	-0.026254	0.064678
C250	C	0.727540	0.473746	0.564678
H251	H	0.311377	-0.076126	0.117108
H252	H	0.811377	0.423874	0.617108
H253	H	0.244982	-0.106205	0.064780
H254	H	0.744982	0.393795	0.564780
H255	H	0.311368	-0.076154	0.012328
H256	H	0.811368	0.423846	0.512328
H257	H	0.193182	-0.024361	0.117078
H258	H	0.693182	0.475639	0.617078
H259	H	0.259621	0.005620	0.064595
H260	H	0.759621	0.505620	0.564595
H261	H	0.493409	-0.013949	-0.000193
H262	H	0.993409	0.486051	0.499807
O263	O	0.007820	0.148246	-0.000331
O264	O	0.507820	0.648246	0.499669
C265	C	-0.001899	0.235715	-0.000309
C266	C	0.498101	0.735715	0.499691
C267	C	0.047543	0.187644	-0.000270
C268	C	0.547543	0.687644	0.499730
H269	H	0.030197	0.267580	-0.000244
H270	H	0.530197	0.767580	0.499756
H271	H	-0.036213	0.237604	-0.052718
H272	H	0.463787	0.737604	0.447282
H273	H	-0.036292	0.237546	0.052064
H274	H	0.463708	0.737546	0.552064
H275	H	0.081979	0.185781	-0.052608
H276	H	0.581979	0.685781	0.447392
H277	H	0.081809	0.185775	0.052174
H278	H	0.581809	0.685775	0.552174
H279	H	0.929571	-0.799607	-0.000281
H280	H	1.429571	-0.299607	0.499719
O281	O	0.838678	-0.022501	0.422236
O282	O	1.338678	0.477499	0.922236
C283	C	0.857718	-0.109867	0.430565
C284	C	1.357718	0.390133	0.930565
C285	C	0.847204	-0.061404	0.473863
C286	C	1.347204	0.438596	0.973863
H287	H	0.864628	-0.141332	0.472286
H288	H	1.364628	0.358668	0.972286
H289	H	0.810117	-0.113037	0.393723
H290	H	1.310117	0.386963	0.893723
H291	H	0.906245	-0.111106	0.393624
H292	H	1.406245	0.388894	0.893624
H293	H	0.798702	-0.060132	0.510845
H294	H	1.298702	0.439868	1.010845
H295	H	0.894841	-0.058254	0.510657
H296	H	1.394841	0.441746	1.010657
H297	H	0.643331	-0.297686	-0.000216
H298	H	1.143331	0.202314	0.499784
O299	O	0.698752	-0.166235	-0.000282
O300	O	1.198752	0.333765	0.499718
C301	C	0.624394	-0.216278	-0.065160
C302	C	1.124394	0.283722	0.434840
C303	C	0.694461	-0.195007	-0.065139
C304	C	1.194461	0.304993	0.434861
H305	H	0.620895	-0.239537	-0.117599
H306	H	1.120895	0.260463	0.382401
H307	H	0.620863	-0.239631	-0.012810
H308	H	1.120863	0.260369	0.487190
H309	H	0.579525	-0.185381	-0.065107
H310	H	1.079525	0.314619	0.434893
H311	H	0.739370	-0.225874	-0.065219
H312	H	1.239370	0.274126	0.434781
H313	H	0.697931	-0.171642	-0.117485
H314	H	1.197931	0.328358	0.382515
H315	H	0.710057	-0.071667	-0.000175
H316	H	1.210057	0.428333	0.499825
O317	O	0.631808	-0.019519	-0.000183
O318	O	1.131808	0.480481	0.499817
C319	C	0.641531	-0.106988	-0.000126
C320	C	1.141531	0.393012	0.499874
C321	C	0.592087	-0.058918	-0.000119
C322	C	1.092087	0.441082	0.499881
H323	H	0.609436	-0.138854	-0.000057
H324	H	1.109436	0.361146	0.499943
H325	H	0.675897	-0.108876	-0.052524
H326	H	1.175897	0.391124	0.447476
H327	H	0.675872	-0.108819	0.052259
H328	H	1.175872	0.391181	0.552259
H329	H	0.557702	-0.057055	-0.052467
H330	H	1.057702	0.442945	0.447533
H331	H	0.557769	-0.057050	0.052314
H332	H	1.057769	0.442950	0.552314
H333	H	0.461651	0.145899	-0.000214
H334	H	0.961651	0.645899	0.499786
H335	H	0.906129	0.004578	0.185228
H336	H	1.406129	0.504578	0.685228
H337	H	0.802418	0.144270	0.428277
H338	H	1.302418	0.644270	0.928277
H339	H	0.046551	-0.018511	-0.000317
H340	H	0.546551	0.481489	0.499683
H341	H	0.593069	0.147241	-0.000200
H342	H	1.093069	0.647241	0.499800
H343	H	0.998512	-0.422320	-0.000282
H344	H	1.498512	0.077680	0.499718
O345	O	0.949960	-0.090099	-0.000264
O346	O	1.449960	0.409901	0.499736
C347	C	1.075533	-0.107118	-0.000253
C348	C	1.575533	0.392882	0.499747
C349	C	1.005424	-0.128334	-0.000217
C350	C	1.505424	0.371666	0.499783
H351	H	1.120393	-0.138021	-0.000199
H352	H	1.620393	0.361979	0.499801
H353	H	1.079101	-0.083818	-0.052655
H354	H	1.579101	0.416182	0.447345
H355	H	1.079002	-0.083801	0.052128
H356	H	1.579002	0.416199	0.552128
H357	H	1.001907	-0.151673	-0.052563
H358	H	1.501907	0.348327	0.447437
H359	H	1.001885	-0.151606	0.052219
H360	H	1.501885	0.348394	0.552219
O361	O	0.948437	-0.189422	-0.000379
O362	O	1.448437	0.310578	0.499621
C363	C	1.021136	-0.253189	-0.065228
C364	C	1.521136	0.246811	0.434772
C365	C	0.951856	-0.218980	-0.065167
C366	C	1.451856	0.281020	0.434833
H367	H	1.023917	-0.277102	-0.117595
H368	H	1.523917	0.222898	0.382405
H369	H	1.066817	-0.230741	-0.065280
H370	H	1.566817	0.269259	0.434720
H371	H	1.023943	-0.277072	-0.012815
H372	H	1.523943	0.222928	0.487185
H373	H	0.948981	-0.195089	-0.117571
H374	H	1.448981	0.304911	0.382429
H375	H	0.906208	-0.241456	-0.065074
H376	H	1.406208	0.258544	0.434926
O377	O	0.913668	-0.000643	0.665234
O378	O	1.413668	0.499357	1.165234
C379	C	1.008091	-0.065997	0.673525
C380	C	1.508091	0.434003	1.173525
C381	C	0.955743	-0.029724	0.716844
C382	C	1.455743	0.470276	1.216844
H383	H	1.042132	-0.089511	0.715232
H384	H	1.542132	0.410489	1.215232
H385	H	0.978398	-0.090124	0.636676
H386	H	1.478398	0.409876	1.136676
H387	H	1.042530	-0.045179	0.636587
H388	H	1.542530	0.454821	1.136587
H389	H	0.921290	-0.050501	0.753821
H390	H	1.421290	0.449499	1.253821
H391	H	0.985479	-0.005597	0.753645
H392	H	1.485479	0.494403	1.253645
H393	H	0.996296	-0.573576	-0.000295
H394	H	1.496296	-0.073576	0.499705
H395	H	0.241891	0.124920	0.079325
H396	H	0.741891	0.624920	0.579325
H397	H	0.999848	-0.330868	-0.000270
H398	H	1.499848	0.169132	0.499730
H399	H	0.837207	-0.015536	0.571276
H400	H	1.337207	0.484464	1.071276
O401	O	0.725962	0.129260	0.334511
O402	O	1.225962	0.629260	0.834511
C403	C	0.630977	0.139717	0.423497
C404	C	1.130977	0.639717	0.923497
C405	C	0.683326	0.103487	0.380104
C406	C	1.183326	0.603487	0.880104
H407	H	0.596483	0.118894	0.460357
H408	H	1.096483	0.618894	0.960357
H409	H	0.660670	0.163807	0.460413
H410	H	1.160670	0.663807	0.960413
H411	H	0.596992	0.163277	0.381797
H412	H	1.096992	0.663277	0.881797
H413	H	0.717325	0.079895	0.421749
H414	H	1.217325	0.579895	0.921749
H415	H	0.653591	0.079430	0.343177
H416	H	1.153591	0.579430	0.843177
H417	H	0.930914	-0.708138	-0.000271
H418	H	1.430914	-0.208138	0.499729
H419	H	0.699737	-0.778212	-0.000215
H420	H	1.199737	-0.278212	0.499785
O421	O	0.629721	-0.543351	-0.000249
O422	O	1.129721	-0.043351	0.499751
C423	C	0.504149	-0.526327	-0.000188
C424	C	1.004149	-0.026327	0.499812
C425	C	0.574260	-0.505113	-0.000169
C426	C	1.074260	-0.005113	0.499831
H427	H	0.459291	-0.495422	-0.000107
H428	H	0.959291	0.004578	0.499893
H429	H	0.500598	-0.549608	-0.052596
H430	H	1.000598	-0.049608	0.447404
H431	H	0.500658	-0.549663	0.052187
H432	H	1.000658	-0.049663	0.552187
H433	H	0.577799	-0.481756	-0.052508
H434	H	1.077799	0.018244	0.447492
H435	H	0.577781	-0.481861	0.052274
H436	H	1.077781	0.018139	0.552274
O437	O	0.691113	-0.681936	-0.000186
O438	O	1.191113	-0.181936	0.499814
C439	C	0.565386	-0.675582	-0.000190
C440	C	1.065386	-0.175582	0.499810
C441	C	0.634689	-0.709766	-0.000234
C442	C	1.134689	-0.209766	0.499766
H443	H	0.519749	-0.698068	-0.000245
H444	H	1.019749	-0.198068	0.499755
H445	H	0.562505	-0.651699	0.052216
H446	H	1.062505	-0.151699	0.552216
H447	H	0.562600	-0.651666	-0.052567
H448	H	1.062600	-0.151666	0.447433
H449	H	0.637522	-0.733712	0.052107
H450	H	1.137522	-0.233712	0.552107
H451	H	0.637540	-0.733615	-0.052674
H452	H	1.137540	-0.233615	0.447326
H453	H	0.641128	-0.448942	-0.000208
H454	H	1.141128	0.051058	0.499792
H455	H	0.733503	0.124152	0.814327
H456	H	1.233503	0.624152	1.314327
O457	O	0.631920	-0.392098	-0.000250
O458	O	1.131920	0.107902	0.499750
C459	C	0.506349	-0.375066	-0.000191
C460	C	1.006349	0.124934	0.499809
C461	C	0.576464	-0.353857	-0.000175
C462	C	1.076464	0.146143	0.499825
H463	H	0.461494	-0.344158	-0.000114
H464	H	0.961494	0.155842	0.499886
H465	H	0.502796	-0.398348	-0.052597
H466	H	1.002796	0.101652	0.447403
H467	H	0.502854	-0.398398	0.052186
H468	H	1.002854	0.101602	0.552186
H469	H	0.580006	-0.330502	-0.052516
H470	H	1.080006	0.169498	0.447484
H471	H	0.579987	-0.330602	0.052265
H472	H	1.079987	0.169398	0.552265
O473	O	0.725993	0.129378	0.665289
O474	O	1.225993	0.629378	1.165289
C475	C	0.631569	0.194730	0.673632
C476	C	1.131569	0.694730	1.173632
C477	C	0.683924	0.158459	0.716922
C478	C	1.183924	0.658459	1.216922
H479	H	0.597533	0.218245	0.715358
H480	H	1.097533	0.718245	1.215358
H481	H	0.661256	0.218858	0.636735
H482	H	1.161256	0.718858	1.136735
H483	H	0.597126	0.173911	0.636746
H484	H	1.097126	0.673911	1.136746
H485	H	0.718382	0.179238	0.753849
H486	H	1.218382	0.679238	1.253849
H487	H	0.654194	0.134332	0.753771
H488	H	1.154194	0.634332	1.253771
