data_functionalizedCrystal
_audit_creation_method	'MofGen! by Chris Wilmer'
_symmetry_space_group_name_H-M	'P1'
_symmetry_Int_Tables_number	1
_symmetry_cell_setting	triclinic
loop_
_symmetry_equiv_pos_as_xyz
  x,y,z
_cell_length_a	6.394989
_cell_length_b	19.288865
_cell_length_c	17.766277
_cell_angle_alpha	90.011603
_cell_angle_beta	90.008787
_cell_angle_gamma	84.816979
loop_
_atom_site_label
_atom_site_type_symbol
_atom_site_fract_x
_atom_site_fract_y
_atom_site_fract_z
O1	O	-2.770439	-0.113783	-0.062598
O2	O	-2.162256	-0.119515	-0.062602
O3	O	-2.483921	-0.015691	-0.062585
O4	O	-2.448774	-0.217607	-0.062615
O5	O	-2.483865	-0.015685	0.062604
O6	O	-2.162200	-0.119509	0.062587
O7	O	-2.770382	-0.113777	0.062591
Cu8	Cu	-2.466286	-0.116643	0.074019
Cu9	Cu	-2.466353	-0.116650	-0.074030
O10	O	-2.448718	-0.217601	0.062574
C11	C	-2.482762	0.010200	0.000012
C12	C	-2.479367	0.087336	0.000018
C13	C	-2.449877	-0.243492	-0.000024
C14	C	-2.453271	-0.320629	-0.000036
N15	N	-2.466254	-0.116637	0.178150
C16	C	-2.084417	-0.118379	-0.000004
C17	C	-1.848215	-0.114915	0.000000
N18	N	-2.466401	-0.116650	-0.178161
C19	C	-2.668105	0.130184	0.000023
C20	C	-2.664916	0.202663	0.000011
C21	C	-2.472977	0.232290	0.000010
C22	C	-2.284214	0.189433	0.000001
C23	C	-2.287409	0.116956	0.000005
C24	C	-2.322072	0.342057	0.043860
C25	C	-2.318885	0.414533	0.043860
C26	C	-2.463116	0.455832	-0.000007
C27	C	-2.610569	0.424648	-0.043865
C28	C	-2.613764	0.352171	-0.043861
C29	C	-2.469492	0.310878	0.000004
C30	C	-2.648409	0.577270	-0.000016
C31	C	-2.645212	0.649749	-0.000033
C32	C	-2.264505	0.636517	-0.000036
C33	C	-2.267707	0.564040	-0.000027
C34	C	-2.459665	0.534420	-0.000014
C35	C	-2.608733	-0.070688	0.217544
C36	C	-2.608745	-0.070684	0.296346
C37	C	-2.466298	-0.116643	0.335750
C38	C	-2.323793	-0.162596	0.296346
C39	C	-2.323771	-0.162593	0.217546
C40	C	-2.438338	-0.179657	0.460579
C41	C	-2.438374	-0.179661	0.539378
C42	C	-2.466354	-0.116652	0.578797
C43	C	-2.494342	-0.053637	0.539407
C44	C	-2.494320	-0.053634	0.460607
C45	C	-2.466305	-0.116651	0.421196
C46	C	-2.608854	-0.070695	0.703637
C47	C	-2.608852	-0.070691	0.782440
C48	C	-2.323909	-0.162609	0.782439
C49	C	-2.323901	-0.162607	0.703638
C50	C	-2.466385	-0.116651	0.664241
H51	H	-2.824412	0.106073	0.000032
H52	H	-2.798912	0.684635	-0.000033
N53	N	-2.083819	0.070744	0.000011
H54	H	-2.076644	0.040393	0.046424
H55	H	-2.076789	0.040408	-0.046422
H56	H	-2.207745	-0.200012	0.185471
N57	N	-2.868504	0.248882	0.000027
H58	H	-2.875616	0.279254	0.046435
H59	H	-2.875590	0.279196	-0.046411
H60	H	-2.733822	0.326784	-0.079572
N61	N	-2.762398	-0.021121	0.175052
H62	H	-2.852659	0.007990	0.211971
H63	H	-2.682730	0.010303	0.142375
N64	N	-2.408170	-0.247624	0.581857
H65	H	-2.534978	-0.252891	0.614537
H66	H	-2.390351	-0.287495	0.544881
N67	N	-2.762419	-0.021121	0.338849
H68	H	-2.852673	0.007993	0.301934
H69	H	-2.854489	-0.048543	0.371527
H70	H	-2.804712	0.553152	-0.000009
H71	H	-2.415517	-0.230970	0.428490
N72	N	-2.766155	0.469181	-0.091181
H73	H	-2.741757	0.519826	-0.084534
H74	H	-2.747214	0.455817	-0.145886
N75	N	-2.524502	0.014326	0.418121
H76	H	-2.408688	0.044322	0.431848
H77	H	-2.520295	0.004701	0.362236
N78	N	-2.057480	0.668462	-0.000046
H79	H	-2.084091	0.720878	-0.000051
H80	H	-1.974890	0.652917	0.046362
N81	N	-2.064145	0.517816	-0.000023
H82	H	-1.980389	0.527526	-0.046432
H83	H	-1.980519	0.527568	0.046414
H84	H	-2.204616	0.308437	0.079585
N85	N	-2.159879	0.448166	0.091170
H86	H	-2.068982	0.411007	0.118955
H87	H	-2.069018	0.475122	0.057529
H88	H	-2.127937	0.213560	-0.000002
H89	H	-2.517125	-0.002329	0.571500
N90	N	-2.170140	-0.212163	0.338841
H91	H	-2.191776	-0.205194	0.394739
H92	H	-2.193780	-0.261650	0.325051
H93	H	-2.724867	-0.033273	0.671559
N94	N	-2.762567	-0.021140	0.824934
H95	H	-2.852838	0.007965	0.788016
H96	H	-2.854616	-0.048577	0.857606
N97	N	-2.170249	-0.212174	0.824929
H98	H	-2.249753	-0.243644	0.857610
H99	H	-2.080025	-0.241236	0.787962
N100	N	-2.170225	-0.212167	0.661142
H101	H	-2.079982	-0.241282	0.698059
H102	H	-2.249868	-0.243587	0.628429
