data_functionalizedCrystal
_audit_creation_method	'MofGen! by Chris Wilmer'
_symmetry_space_group_name_H-M	'P1'
_symmetry_Int_Tables_number	1
_symmetry_cell_setting	triclinic
loop_
_symmetry_equiv_pos_as_xyz
  x,y,z
_cell_length_a	29.839134
_cell_length_b	16.994747
_cell_length_c	29.839125
_cell_angle_alpha	89.991363
_cell_angle_beta	90.021980
_cell_angle_gamma	90.005924
loop_
_atom_site_label
_atom_site_type_symbol
_atom_site_fract_x
_atom_site_fract_y
_atom_site_fract_z
Zn1	Zn	0.686814	-0.314247	0.254207
Zn2	Zn	1.186814	0.185753	0.754207
Zn3	Zn	0.686786	-0.446127	0.179112
Zn4	Zn	1.186786	0.053873	0.679112
Zn5	Zn	0.611697	-0.314229	0.179077
Zn6	Zn	1.111697	0.185771	0.679077
Zn7	Zn	0.611685	-0.446101	0.254200
Zn8	Zn	1.111685	0.053899	0.754200
O9	O	0.649246	-0.380176	0.216649
O10	O	1.149246	0.119824	0.716649
O11	O	0.749678	-0.331759	0.244263
O12	O	1.249678	0.168241	0.744263
O13	O	0.676819	-0.428635	0.116240
O14	O	1.176819	0.071365	0.616240
O15	O	0.621679	-0.203850	0.189031
O16	O	1.121679	0.296150	0.689031
O17	O	0.749657	-0.428651	0.189091
O18	O	1.249657	0.071349	0.689091
O19	O	0.676867	-0.203863	0.244230
O20	O	1.176867	0.296137	0.744230
O21	O	0.621651	-0.331730	0.116214
O22	O	1.121651	0.168270	0.616214
O23	O	0.548828	-0.331704	0.189025
O24	O	1.048828	0.168296	0.689025
O25	O	0.621657	-0.428606	0.317068
O26	O	1.121657	0.071394	0.817068
O27	O	0.548819	-0.428589	0.244217
O28	O	1.048819	0.071411	0.744217
O29	O	0.676855	-0.331734	0.317074
O30	O	1.176855	0.168266	0.817074
O31	O	0.676807	-0.556505	0.189084
O32	O	1.176807	-0.056505	0.689084
O33	O	0.621630	-0.556486	0.244251
O34	O	1.121630	-0.056486	0.744251
C35	C	0.532523	-0.380143	0.216617
C36	C	1.032523	0.119857	0.716617
C37	C	0.482589	-0.380147	0.216613
C38	C	0.982589	0.119853	0.716613
C39	C	0.649220	-0.585116	0.216669
C40	C	1.149220	-0.085116	0.716669
C41	C	0.649223	-0.674438	0.216668
C42	C	1.149223	-0.174438	0.716668
Zn43	Zn	0.611710	-0.945316	0.179064
Zn44	Zn	1.111710	-0.445316	0.679064
Zn45	Zn	0.686834	-0.945312	0.254188
Zn46	Zn	1.186834	-0.445312	0.754188
Zn47	Zn	0.611700	-0.813493	0.254193
Zn48	Zn	1.111700	-0.313493	0.754193
Zn49	Zn	0.686795	-0.813382	0.179097
Zn50	Zn	1.186795	-0.313382	0.679097
O51	O	0.649260	-0.879376	0.216635
O52	O	1.149260	-0.379376	0.716635
O53	O	0.621696	-1.055697	0.189014
O54	O	1.121696	-0.555697	0.689014
O55	O	0.676880	-0.927870	0.317055
O56	O	1.176880	-0.427870	0.817055
O57	O	0.548834	-0.831028	0.244215
O58	O	1.048834	-0.331028	0.744215
O59	O	0.676890	-1.055693	0.244206
O60	O	1.176890	-0.555693	0.744206
O61	O	0.548842	-0.927877	0.189019
O62	O	1.048842	-0.427877	0.689019
O63	O	0.621679	-0.831024	0.317059
O64	O	1.121679	-0.331024	0.817059
O65	O	0.621641	-0.703097	0.244247
O66	O	1.121641	-0.203097	0.744247
O67	O	0.676822	-0.830839	0.116226
O68	O	1.176822	-0.330839	0.616226
O69	O	0.676812	-0.703016	0.189075
O70	O	1.176812	-0.203016	0.689075
O71	O	0.621658	-0.927770	0.116202
O72	O	1.121658	-0.427770	0.616202
O73	O	0.749696	-0.927763	0.244238
O74	O	1.249696	-0.427763	0.744238
O75	O	0.749667	-0.830835	0.189070
O76	O	1.249667	-0.330835	0.689070
C77	C	0.172950	-0.430699	0.245353
C78	C	0.672950	0.069301	0.745353
C79	C	-0.014723	-0.430721	0.245373
C80	C	0.485277	0.069279	0.745373
O81	O	-0.038984	-0.473665	0.269789
O82	O	0.461016	0.026335	0.769789
N83	N	-0.038196	-0.380205	0.216683
N84	N	0.461804	0.119795	0.716683
C85	C	-0.014749	-0.329676	0.187988
C86	C	0.485251	0.170324	0.687988
O87	O	-0.039020	-0.286704	0.163589
O88	O	0.460980	0.213296	0.663589
C89	C	0.172924	-0.329650	0.187971
C90	C	0.672924	0.170350	0.687971
C91	C	0.196395	-0.380176	0.216659
C92	C	0.696395	0.119824	0.716659
C93	C	0.196421	-0.481219	0.274039
C94	C	0.696421	0.018781	0.774039
C95	C	0.243337	-0.481216	0.274032
C96	C	0.743337	0.018784	0.774032
C97	C	0.266781	-0.430693	0.245339
C98	C	0.766781	0.069307	0.745339
C99	C	0.243310	-0.380172	0.216652
C100	C	0.743310	0.119828	0.716652
C101	C	0.196371	-0.279118	0.159279
C102	C	0.696371	0.220882	0.659279
C103	C	0.243292	-0.279115	0.159278
C104	C	0.743292	0.220885	0.659278
C105	C	0.266762	-0.329640	0.187966
C106	C	0.766762	0.170360	0.687966
C107	C	0.313670	-0.329646	0.187952
C108	C	0.813670	0.170354	0.687952
N109	N	0.337143	-0.380162	0.216642
N110	N	0.837143	0.119838	0.716642
C111	C	0.313699	-0.430686	0.245335
C112	C	0.813699	0.069314	0.745335
C113	C	-0.113279	-0.329694	0.187999
C114	C	0.386721	0.170306	0.687999
C115	C	-0.160197	-0.329701	0.188002
C116	C	0.339803	0.170299	0.688002
C117	C	-0.160168	-0.430746	0.245388
C118	C	0.339832	0.069254	0.745388
C119	C	-0.113250	-0.430742	0.245381
C120	C	0.386750	0.069258	0.745381
C121	C	-0.089806	-0.380210	0.216688
C122	C	0.410194	0.119790	0.716688
C123	C	0.412225	-0.430676	0.245318
C124	C	0.912225	0.069324	0.745318
C125	C	0.459144	-0.430671	0.245307
C126	C	0.959144	0.069329	0.745307
C127	C	0.459111	-0.329624	0.187924
C128	C	0.959111	0.170376	0.687924
C129	C	0.412196	-0.329632	0.187933
C130	C	0.912196	0.170368	0.687933
C131	C	0.388754	-0.380160	0.216633
C132	C	0.888754	0.119840	0.716633
O133	O	0.337960	-0.286719	0.163552
O134	O	0.837960	0.213281	0.663552
O135	O	0.337979	-0.473639	0.269737
O136	O	0.837979	0.026361	0.769737
C137	C	0.126035	-0.430702	0.245360
C138	C	0.626035	0.069298	0.745360
C139	C	0.102564	-0.380182	0.216673
C140	C	0.602564	0.119818	0.716673
C141	C	0.126008	-0.329658	0.187980
C142	C	0.626008	0.170342	0.687980
C143	C	0.055646	-0.380189	0.216677
C144	C	0.555646	0.119811	0.716677
C145	C	0.032201	-0.430712	0.245371
C146	C	0.532201	0.069288	0.745371
C147	C	0.055675	-0.481228	0.274060
C148	C	0.555675	0.018772	0.774060
C149	C	0.102590	-0.481225	0.274053
C150	C	0.602590	0.018775	0.774053
C151	C	0.102535	-0.279142	0.159290
C152	C	0.602535	0.220858	0.659290
C153	C	0.055619	-0.279150	0.159299
C154	C	0.555619	0.220850	0.659299
C155	C	0.032175	-0.329673	0.187992
C156	C	0.532175	0.170327	0.687992
C157	C	0.766424	-0.380210	0.216682
C158	C	1.266424	0.119790	0.716682
C159	C	0.816358	-0.380225	0.216696
C160	C	1.316358	0.119775	0.716696
C161	C	0.649258	-0.380169	0.333827
C162	C	1.149258	0.119831	0.833827
C163	C	0.649263	-0.380166	0.383762
C164	C	1.149263	0.119834	0.883762
C165	C	0.649274	-0.174436	0.216626
C166	C	1.149274	0.325564	0.716626
C167	C	0.649288	-0.085114	0.216617
C168	C	1.149288	0.414886	0.716617
C169	C	0.649259	-0.380126	0.099927
C170	C	1.149259	0.119874	0.599927
C171	C	0.649341	-0.379907	0.049992
C172	C	1.149341	0.120093	0.549992
C173	C	0.678035	-0.329592	0.693411
C174	C	1.178035	0.170408	1.193411
C175	C	0.678057	-0.329525	0.881084
C176	C	1.178057	0.170475	1.381084
O177	O	0.702486	-0.286600	0.905354
O178	O	1.202486	0.213400	1.405354
N179	N	0.649323	-0.379955	0.904547
N180	N	1.149323	0.120045	1.404547
C181	C	0.620579	-0.430401	0.881089
C182	C	1.120579	0.069599	1.381089
O183	O	0.596136	-0.473287	0.905352
O184	O	1.096136	0.026713	1.405352
C185	C	0.620554	-0.430464	0.693417
C186	C	1.120554	0.069536	1.193417
C187	C	0.649294	-0.380037	0.669956
C188	C	1.149294	0.119963	1.169956
C189	C	0.706771	-0.279168	0.669951
C190	C	1.206771	0.220832	1.169951
C191	C	0.706767	-0.279189	0.623035
C192	C	1.206767	0.220811	1.123035
C193	C	0.678026	-0.329633	0.599580
C194	C	1.178026	0.170367	1.099580
C195	C	0.649290	-0.380057	0.623041
C196	C	1.149290	0.119943	1.123041
C197	C	0.591809	-0.480906	0.669959
C198	C	1.091809	0.019094	1.169959
C199	C	0.591804	-0.480916	0.623038
C200	C	1.091804	0.019084	1.123038
C201	C	0.620544	-0.430488	0.599578
C202	C	1.120544	0.069512	1.099578
C203	C	0.620545	-0.430521	0.552670
C204	C	1.120545	0.069479	1.052670
N205	N	0.649279	-0.380092	0.529207
N206	N	1.149279	0.119908	1.029207
C207	C	0.678020	-0.329648	0.552662
C208	C	1.178020	0.170352	1.052662
C209	C	0.620594	-0.430366	0.979620
C210	C	1.120594	0.069634	1.479620
C211	C	0.620601	-0.430351	1.026537
C212	C	1.120601	0.069649	1.526537
C213	C	0.678078	-0.329474	1.026530
C214	C	1.178078	0.170526	1.526530
C215	C	0.678074	-0.329493	0.979611
C216	C	1.178074	0.170507	1.479611
C217	C	0.649328	-0.379936	0.956157
C218	C	1.149328	0.120064	1.456157
C219	C	0.678009	-0.329695	0.454136
C220	C	1.178009	0.170305	0.954136
C221	C	0.678004	-0.329722	0.407217
C222	C	1.178004	0.170278	0.907217
C223	C	0.620525	-0.430596	0.407229
C224	C	1.120525	0.069404	0.907229
C225	C	0.620531	-0.430572	0.454144
C226	C	1.120531	0.069428	0.954144
C227	C	0.649275	-0.380115	0.477597
C228	C	1.149275	0.119885	0.977597
O229	O	0.596125	-0.473418	0.528372
O230	O	1.096125	0.026582	1.028372
O231	O	0.702452	-0.286755	0.528391
O232	O	1.202452	0.213245	1.028391
C233	C	0.678039	-0.329572	0.740327
C234	C	1.178039	0.170428	1.240327
C235	C	0.649302	-0.379996	0.763787
C236	C	1.149302	0.120004	1.263787
C237	C	0.620561	-0.430440	0.740332
C238	C	1.120561	0.069560	1.240332
C239	C	0.649309	-0.379981	0.810705
C240	C	1.149309	0.120019	1.310705
C241	C	0.678049	-0.329537	0.834160
C242	C	1.178049	0.170463	1.334160
C243	C	0.706784	-0.279107	0.810697
C244	C	1.206784	0.220893	1.310697
C245	C	0.706779	-0.279128	0.763782
C246	C	1.206779	0.220872	1.263782
C247	C	0.591827	-0.480870	0.763795
C248	C	1.091827	0.019130	1.263795
C249	C	0.591834	-0.480846	0.810711
C250	C	1.091834	0.019154	1.310711
C251	C	0.620575	-0.430402	0.834166
C252	C	1.120575	0.069598	1.334166
C253	C	0.765982	-0.879289	0.216658
C254	C	1.265982	-0.379289	0.716658
C255	C	0.815917	-0.879274	0.216681
C256	C	1.315917	-0.379274	0.716681
C257	C	0.649237	-0.879293	0.099457
C258	C	1.149237	-0.379293	0.599457
C259	C	0.649227	-0.879257	0.049523
C260	C	1.149227	-0.379257	0.549523
C261	C	0.532081	-0.879465	0.216614
C262	C	1.032081	-0.379465	0.716614
C263	C	0.482147	-0.879504	0.216605
C264	C	0.982147	-0.379504	0.716605
C265	C	0.649251	-0.879503	0.333358
C266	C	1.149251	-0.379503	0.833358
C267	C	0.649135	-0.879690	0.383292
C268	C	1.149135	-0.379690	0.883292
C269	C	0.839369	-0.929780	0.245392
C270	C	1.339369	-0.429780	0.745392
C271	C	0.886287	-0.929782	0.245413
C272	C	1.386287	-0.429782	0.745413
C273	C	0.909753	-0.879274	0.216726
C274	C	1.409753	-0.379274	0.716726
C275	C	0.886298	-0.828766	0.188012
C276	C	1.386298	-0.328766	0.688012
C277	C	0.839380	-0.828769	0.187989
C278	C	1.339380	-0.328769	0.687989
C279	C	0.620497	-0.929708	0.026058
C280	C	1.120497	-0.429708	0.526058
C281	C	0.620479	-0.929675	-0.020861
C282	C	1.120479	-0.429675	0.479139
C283	C	0.649193	-0.879194	-0.044314
C284	C	1.149193	-0.379194	0.455686
C285	C	0.677923	-0.828738	-0.020846
C286	C	1.177923	-0.328738	0.479154
C287	C	0.677939	-0.828768	0.026072
C288	C	1.177939	-0.328768	0.526072
C289	C	0.458691	-0.829091	0.245338
C290	C	0.958691	-0.329091	0.745338
C291	C	0.411772	-0.829111	0.245330
C292	C	0.911772	-0.329111	0.745330
C293	C	0.388311	-0.879549	0.216589
C294	C	0.888311	-0.379549	0.716589
C295	C	0.411770	-0.929964	0.187852
C296	C	0.911770	-0.429964	0.687852
C297	C	0.458688	-0.929939	0.187859
C298	C	0.958688	-0.429939	0.687859
C299	C	0.620547	-0.828988	0.406724
C300	C	1.120547	-0.328988	0.906724
C301	C	0.620430	-0.829163	0.453643
C302	C	1.120430	-0.329163	0.953643
C303	C	0.648904	-0.880035	0.477128
C304	C	1.148904	-0.380035	0.977128
C305	C	0.677494	-0.930741	0.453693
C306	C	1.177494	-0.430741	0.953693
C307	C	0.677608	-0.930570	0.406775
C308	C	1.177608	-0.430570	0.906775
H309	H	0.393144	-0.471819	0.268690
H310	H	0.893144	0.028181	0.768690
N311	N	0.708931	-0.774363	0.051382
N312	N	1.208931	-0.274363	0.551382
H313	H	0.690677	-0.737832	0.070853
H314	H	1.190677	-0.237832	0.570853
H315	H	0.727113	-0.742436	0.029377
H316	H	1.227113	-0.242436	0.529377
N317	N	0.589515	-0.984150	0.051340
N318	N	1.089515	-0.484150	0.551340
H319	H	0.568696	-0.952115	0.070805
H320	H	1.068696	-0.452115	0.570805
H321	H	0.607804	-1.020707	0.070780
H322	H	1.107804	-0.520707	0.570780
H323	H	0.701301	-0.787639	-0.039948
H324	H	1.201301	-0.287639	0.460052
H325	H	0.701414	-0.288605	0.473226
H326	H	1.201414	0.211395	0.973226
N327	N	0.589594	-0.774465	0.478911
N328	N	1.089594	-0.274465	0.978911
H329	H	0.607946	-0.738204	0.498471
H330	H	1.107946	-0.238204	0.998471
H331	H	0.568603	-0.806393	0.498255
H332	H	1.068603	-0.306393	0.998255
H333	H	0.700891	-0.971855	0.387700
H334	H	1.200891	-0.471855	0.887700
N335	N	0.814090	-0.774281	0.157025
N336	N	1.314090	-0.274281	0.657025
H337	H	0.780806	-0.781939	0.161359
H338	H	1.280806	-0.281939	0.661359
H339	H	0.822296	-0.786487	0.124936
H340	H	1.322296	-0.286487	0.624936
H341	H	-0.179265	-0.471884	0.268751
H342	H	0.320735	0.028116	0.768751
N343	N	0.560796	-0.535316	0.597742
N344	N	1.060796	-0.035316	1.097742
H345	H	0.542592	-0.567254	0.619726
H346	H	1.042592	-0.067254	1.119726
H347	H	0.579070	-0.571838	0.578287
H348	H	1.079070	-0.071838	1.078287
N349	N	0.814065	-0.984260	0.276335
N350	N	1.314065	-0.484260	0.776335
H351	H	0.836047	-1.016254	0.294523
H352	H	1.336047	-0.516254	0.794523
H353	H	0.794600	-1.020726	0.258015
H354	H	1.294600	-0.520726	0.758015
H355	H	0.700675	-0.972161	0.472822
H356	H	1.200675	-0.472161	0.972822
N357	N	0.589828	-0.774123	0.381401
N358	N	1.089828	-0.274123	0.881401
H359	H	0.594234	-0.781700	0.348122
H360	H	1.094234	-0.281700	0.848122
H361	H	0.597019	-0.717903	0.389686
H362	H	1.097019	-0.217903	0.889686
H363	H	0.947957	-0.879279	0.216750
H364	H	1.447957	-0.379279	0.716750
N365	N	0.484459	-0.485171	0.276249
N366	N	0.984459	0.014829	0.776249
H367	H	0.462485	-0.517175	0.294427
H368	H	0.962485	-0.017175	0.794427
H369	H	0.503939	-0.453120	0.297062
H370	H	1.003939	0.046880	0.797062
N371	N	0.268648	-0.535710	0.304976
N372	N	0.768648	-0.035710	0.804976
H373	H	0.246671	-0.567711	0.323152
H374	H	0.746671	-0.067711	0.823152
H375	H	0.288125	-0.503657	0.325791
H376	H	0.788125	-0.003657	0.825791
N377	N	0.649168	-0.879181	-0.094918
N378	N	1.149168	-0.379181	0.405082
H379	H	0.679984	-0.893655	-0.106224
H380	H	1.179984	-0.393655	0.393776
H381	H	0.640875	-0.825063	-0.106184
H382	H	1.140875	-0.325063	0.393816
H383	H	0.568406	-0.521969	0.689053
H384	H	1.068406	-0.021969	1.189053
H385	H	0.350107	-0.879558	0.216587
H386	H	0.850107	-0.379558	0.716587
H387	H	0.177338	-0.522362	0.297407
H388	H	0.677338	-0.022362	0.797407
H389	H	0.730182	-0.238064	0.744684
H390	H	1.230182	0.261936	1.244684
N391	N	0.589485	-0.984088	-0.046167
N392	N	1.089485	-0.484088	0.453833
H393	H	0.571301	-1.016071	-0.024188
H394	H	1.071301	-0.516071	0.475812
H395	H	0.607767	-1.020567	-0.065641
H396	H	1.107767	-0.520567	0.434359
N397	N	0.483987	-0.774689	0.276343
N398	N	0.983987	-0.274689	0.776343
H399	H	0.503459	-0.806748	0.297164
H400	H	1.003459	-0.306748	0.797164
H401	H	0.461972	-0.742776	0.294510
H402	H	0.961972	-0.242776	0.794510
H403	H	0.392678	-0.788057	0.268732
H404	H	0.892678	-0.288057	0.768732
H405	H	-0.094143	-0.471883	0.268743
H406	H	0.405857	0.028117	0.768743
H407	H	0.905378	-0.970911	0.268798
H408	H	1.405378	-0.470911	0.768798
H409	H	0.648807	-0.880165	0.515331
H410	H	1.148807	-0.380165	1.015331
N411	N	-0.185510	-0.275219	0.157053
N412	N	0.314490	0.224781	0.657053
H413	H	-0.163534	-0.243213	0.138878
H414	H	0.336466	0.256787	0.638878
H415	H	-0.204967	-0.238764	0.175369
H416	H	0.295033	0.261236	0.675369
N417	N	0.589525	-0.485002	0.381929
N418	N	1.089525	0.014998	0.881929
H419	H	0.607774	-0.521568	0.362474
H420	H	1.107774	-0.021568	0.862474
H421	H	0.568718	-0.452884	0.362477
H422	H	1.068718	0.047116	0.862477
N423	N	0.737784	-0.224695	0.835996
N424	N	1.237784	0.275305	1.335996
H425	H	0.758599	-0.256748	0.855476
H426	H	1.258599	0.243252	1.355476
H427	H	0.719499	-0.188142	0.855422
H428	H	1.219499	0.311858	1.355422
N429	N	0.911612	-0.774284	0.157078
N430	N	1.411612	-0.274284	0.657078
H431	H	0.889640	-0.742282	0.138885
H432	H	1.389640	-0.242282	0.638885
H433	H	0.931083	-0.806342	0.136279
H434	H	1.431083	-0.306342	0.636279
N435	N	-0.087997	-0.275181	0.157054
N436	N	0.412003	0.224819	0.657054
H437	H	-0.109990	-0.243184	0.138883
H438	H	0.390010	0.256816	0.638883
H439	H	-0.068538	-0.307220	0.136234
H440	H	0.431462	0.192780	0.636234
H441	H	0.392660	-0.971027	0.164452
H442	H	0.892660	-0.471027	0.664452
H443	H	0.262377	-0.237960	0.135914
H444	H	0.762377	0.262040	0.635914
N445	N	0.171063	-0.224623	0.128335
N446	N	0.671063	0.275377	0.628335
H447	H	0.193041	-0.192618	0.110162
H448	H	0.693041	0.307382	0.610162
H449	H	0.151608	-0.188169	0.146653
H450	H	0.651608	0.311831	0.646653
N451	N	0.483984	-0.984317	0.156867
N452	N	0.983984	-0.484317	0.656867
H453	H	0.461999	-1.016270	0.138662
H454	H	0.961999	-0.516270	0.638662
H455	H	0.503458	-1.020825	0.175151
H456	H	1.003458	-0.520825	0.675151
H457	H	0.036513	-0.238007	0.135933
H458	H	0.536513	0.261993	0.635933
N459	N	0.386873	-0.275166	0.156979
N460	N	0.886873	0.224834	0.656979
H461	H	0.367413	-0.238659	0.175260
H462	H	0.867413	0.261341	0.675260
H463	H	0.367425	-0.307247	0.136151
H464	H	0.867425	0.192753	0.636151
N465	N	0.484402	-0.275134	0.156976
N466	N	0.984402	0.224866	0.656976
H467	H	0.517685	-0.282801	0.161329
H468	H	1.017685	0.217199	0.661329
H469	H	0.476208	-0.218820	0.164015
H470	H	0.976208	0.281180	0.664015
H471	H	0.121696	-0.522368	0.297415
H472	H	0.621696	-0.022368	0.797415
N473	N	0.030384	-0.535727	0.305007
N474	N	0.530384	-0.035727	0.805007
H475	H	-0.002899	-0.528057	0.300654
H476	H	0.497101	-0.028057	0.800654
H477	H	0.038599	-0.523535	0.337101
H478	H	0.538599	-0.023535	0.837101
H479	H	0.701409	-0.288657	0.388117
H480	H	1.201409	0.211343	0.888117
N481	N	0.127818	-0.224637	0.128346
N482	N	0.627818	0.275363	0.628346
H483	H	0.105824	-0.192637	0.110176
H484	H	0.605824	0.307363	0.610176
H485	H	0.147274	-0.256680	0.107524
H486	H	0.647274	0.243320	0.607524
H487	H	0.730176	-0.238086	0.689043
H488	H	1.230176	0.261914	1.189043
N489	N	0.737763	-0.224797	0.597735
N490	N	1.237763	0.275203	1.097735
H491	H	0.755968	-0.192840	0.619718
H492	H	1.255968	0.307160	1.119718
H493	H	0.719480	-0.188292	0.578257
H494	H	1.219480	0.311708	1.078257
N495	N	0.709069	-0.275051	1.051833
N496	N	1.209069	0.224949	1.551833
H497	H	0.727270	-0.243096	1.029855
H498	H	1.227270	0.256904	1.529855
H499	H	0.729858	-0.307148	1.071315
H500	H	1.229858	0.192852	1.571315
N501	N	0.709071	-0.275105	0.954309
N502	N	1.209071	0.224895	1.454309
H503	H	0.727278	-0.243151	0.976291
H504	H	1.227278	0.256849	1.476291
H505	H	0.690788	-0.238598	0.934832
H506	H	1.190788	0.261402	1.434832
H507	H	0.597186	-0.471448	0.960528
H508	H	1.097186	0.028552	1.460528
N509	N	0.589610	-0.484751	1.051839
N510	N	1.089610	0.015249	1.551839
H511	H	0.571402	-0.516706	1.029856
H512	H	1.071402	-0.016706	1.529856
H513	H	0.568825	-0.452633	1.071294
H514	H	1.068825	0.047367	1.571294
N515	N	0.589541	-0.484969	0.479452
N516	N	1.089541	0.015031	0.979452
H517	H	0.571335	-0.516931	0.457472
H518	H	1.071335	-0.016931	0.957472
H519	H	0.568755	-0.452847	0.498903
H520	H	1.068755	0.047153	0.998903
H521	H	0.568423	-0.521949	0.744703
H522	H	1.068423	-0.021949	1.244703
N523	N	0.560837	-0.535244	0.836012
N524	N	1.060837	-0.035244	1.336012
H525	H	0.542630	-0.567199	0.814030
H526	H	1.042630	-0.067199	1.314030
H527	H	0.540052	-0.503119	0.855463
H528	H	1.040052	-0.003119	1.355463
