data_functionalizedCrystal
_audit_creation_method	'MofGen! by Chris Wilmer'
_symmetry_space_group_name_H-M	'P1'
_symmetry_Int_Tables_number	1
_symmetry_cell_setting	triclinic
loop_
_symmetry_equiv_pos_as_xyz
  x,y,z
_cell_length_a	30.711293
_cell_length_b	30.700791
_cell_length_c	30.700862
_cell_angle_alpha	89.998029
_cell_angle_beta	59.999649
_cell_angle_gamma	60.000191
loop_
_atom_site_label
_atom_site_type_symbol
_atom_site_fract_x
_atom_site_fract_y
_atom_site_fract_z
O1	O	-0.311648	-0.371257	0.012946
O2	O	-0.222486	-0.307915	-0.012905
O3	O	-0.311647	-0.307914	0.076286
O4	O	-0.222487	-0.371258	-0.076244
O5	O	-0.384064	-0.235471	0.076281
O6	O	-0.294903	-0.235472	-0.012909
O7	O	-0.384065	-0.298814	0.012941
Zn8	Zn	-0.350982	-0.255641	0.000015
Zn9	Zn	-0.255569	-0.351088	0.000022
O10	O	-0.294905	-0.298815	-0.076249
C11	C	-0.215946	-0.155921	-0.018773
C12	C	-0.246517	-0.098464	-0.015067
C13	C	-0.241901	-0.182377	-0.019145
C14	C	-0.137093	-0.234800	-0.018780
C15	C	-0.083353	-0.261680	-0.015083
C16	C	-0.163168	-0.261136	-0.019153
C17	C	-0.215940	-0.234800	-0.018783
C18	C	-0.246504	-0.261681	-0.015089
C19	C	-0.163173	-0.182377	-0.019143
C20	C	-0.535506	-0.574966	0.039266
C21	C	-0.588276	-0.548513	0.039633
C22	C	-0.535503	-0.496092	0.039261
C23	C	-0.588273	-0.469758	0.039628
C24	C	-0.614351	-0.496093	0.039261
C25	C	-0.509547	-0.548512	0.039633
C26	C	-0.393517	-0.765171	0.024998
C27	C	-0.364490	-0.819035	0.020964
C28	C	-0.389408	-0.846056	0.018939
C29	C	-0.357931	-0.904462	0.014555
C30	C	-0.443357	-0.819209	0.020953
C31	C	-0.472384	-0.765347	0.024994
C32	C	-0.447462	-0.738328	0.027016
C33	C	-0.790217	-0.447931	0.024977
C34	C	-0.840027	-0.423106	0.020938
C35	C	-0.865011	-0.371162	0.018906
C36	C	-0.919010	-0.344244	0.014518
C37	C	-0.840185	-0.344042	0.020919
C38	C	-0.790385	-0.368863	0.024968
C39	C	-0.765401	-0.420813	0.026993
C40	C	-0.393506	-0.447926	0.024978
C41	C	-0.364472	-0.423102	0.020932
C42	C	-0.389387	-0.371157	0.018902
C43	C	-0.357907	-0.344239	0.014513
C44	C	-0.443332	-0.344040	0.020913
C45	C	-0.472361	-0.368866	0.024957
C46	C	-0.447446	-0.420809	0.026994
C47	C	-0.478939	-0.679924	0.031393
C48	C	-0.504029	-0.633370	0.034884
C49	C	-0.504023	-0.469176	0.034874
C50	C	-0.478931	-0.447722	0.031379
C51	C	-0.668351	-0.469178	0.034874
C52	C	-0.711396	-0.447725	0.031378
C53	C	-0.071062	-0.496430	-0.503877
C54	C	-0.018292	-0.548850	-0.530210
C55	C	-0.071062	-0.496430	-0.425001
C56	C	-0.018292	-0.548851	-0.451454
C57	C	0.007785	-0.575305	-0.503874
C58	C	-0.097019	-0.470095	-0.451457
C59	C	-0.213054	-0.368667	-0.552046
C60	C	-0.242083	-0.343666	-0.576874
C61	C	-0.217167	-0.370617	-0.628819
C62	C	-0.248645	-0.343515	-0.655738
C63	C	-0.163218	-0.422570	-0.655937
C64	C	-0.134190	-0.447564	-0.631112
C65	C	-0.159110	-0.420611	-0.579165
C66	C	0.183647	-0.765510	-0.631630
C67	C	0.233456	-0.819374	-0.656629
C68	C	0.258441	-0.846398	-0.629678
C69	C	0.312440	-0.904802	-0.656775
C70	C	0.233618	-0.819550	-0.577726
C71	C	0.183818	-0.765686	-0.552731
C72	C	0.158832	-0.738669	-0.579689
C73	C	-0.213052	-0.368669	-0.234798
C74	C	-0.242085	-0.343671	-0.180932
C75	C	-0.217169	-0.370623	-0.153909
C76	C	-0.248646	-0.343521	-0.095503
C77	C	-0.163224	-0.422573	-0.180754
C78	C	-0.134196	-0.447569	-0.234618
C79	C	-0.159113	-0.420610	-0.261638
C80	C	-0.127632	-0.447719	-0.552248
C81	C	-0.102540	-0.469326	-0.530793
C82	C	-0.102539	-0.469327	-0.366598
C83	C	-0.127630	-0.447721	-0.320044
C84	C	0.061784	-0.633709	-0.530976
C85	C	0.104829	-0.680263	-0.552580
O86	O	0.063309	-0.298819	0.012947
O87	O	-0.063337	-0.235469	-0.012895
O88	O	-0.063332	-0.235483	0.076292
O89	O	0.063304	-0.298804	-0.076240
O90	O	-0.063327	-0.307931	0.076282
O91	O	-0.063332	-0.307917	-0.012905
O92	O	0.063314	-0.371267	0.012938
Zn93	Zn	-0.000008	-0.351094	0.000015
Zn94	Zn	-0.000015	-0.255641	0.000028
O95	O	0.063309	-0.371252	-0.076249
O96	O	-0.384087	0.076278	0.012980
O97	O	-0.294919	-0.076256	-0.012883
O98	O	-0.384078	0.012923	0.076312
O99	O	-0.294928	-0.012900	-0.076216
O100	O	-0.311659	0.012923	0.076315
O101	O	-0.222500	-0.076255	-0.012880
O102	O	-0.311668	0.076279	0.012982
Zn103	Zn	-0.255586	0.000012	0.000051
Zn104	Zn	-0.351001	0.000011	0.000048
O105	O	-0.222509	-0.012900	-0.076213
O106	O	0.456756	-1.076592	-0.692373
O107	O	0.330119	-0.924062	-0.629035
O108	O	0.330115	-1.013250	-0.629031
O109	O	0.456760	-0.987404	-0.692377
O110	O	0.330114	-1.013248	-0.701476
O111	O	0.330117	-0.924060	-0.701479
O112	O	0.456755	-1.076591	-0.764818
Zn113	Zn	0.393436	-1.000325	-0.744651
Zn114	Zn	0.393438	-1.000327	-0.649202
O115	O	0.456758	-0.987402	-0.764821
O116	O	-0.311647	-0.307914	-0.764507
O117	O	-0.222491	-0.371255	-0.701160
O118	O	-0.311650	-0.371255	-0.701160
O119	O	-0.222488	-0.307914	-0.764507
O120	O	-0.384068	-0.298811	-0.628718
O121	O	-0.294909	-0.298811	-0.628719
O122	O	-0.384066	-0.235470	-0.692065
Zn123	Zn	-0.350985	-0.255638	-0.648890
Zn124	Zn	-0.255571	-0.351087	-0.744335
O125	O	-0.294906	-0.235469	-0.692065
C126	C	-0.469459	-0.155927	0.234817
C127	C	-0.523196	-0.098472	0.261693
C128	C	-0.443383	-0.182382	0.261154
C129	C	-0.390613	-0.234802	0.155945
C130	C	-0.360047	-0.261680	0.098491
C131	C	-0.364656	-0.261137	0.182401
C132	C	-0.390613	-0.234802	0.234821
C133	C	-0.360047	-0.261680	0.261701
C134	C	-0.443383	-0.182382	0.182398
C135	C	-0.215937	-0.234835	0.234815
C136	C	-0.246501	-0.261718	0.261687
C137	C	-0.241898	-0.182415	0.261154
C138	C	-0.137088	-0.234825	0.155948
C139	C	-0.083347	-0.261698	0.098494
C140	C	-0.163169	-0.182405	0.182407
C141	C	-0.215942	-0.155956	0.234826
C142	C	-0.246513	-0.098501	0.261708
C143	C	-0.163163	-0.261164	0.182396
C144	C	-0.390614	0.018780	0.234847
C145	C	-0.360045	0.015077	0.261724
C146	C	-0.443383	0.019144	0.261180
C147	C	-0.390620	0.018793	0.155974
C148	C	-0.360058	0.015103	0.098520
C149	C	-0.443389	0.019157	0.182427
C150	C	-0.469462	0.018780	0.234845
C151	C	-0.523197	0.015076	0.261721
C152	C	-0.364661	0.019157	0.182428
C153	C	0.464517	-0.574918	-0.503872
C154	C	0.490473	-0.548459	-0.530201
C155	C	0.385663	-0.496049	-0.424994
C156	C	0.411739	-0.469710	-0.451443
C157	C	0.464512	-0.496040	-0.503862
C158	C	0.411744	-0.548469	-0.451453
C159	C	0.526952	-0.765127	-0.552055
C160	C	0.555809	-0.818991	-0.576885
C161	C	0.609766	-0.846007	-0.628829
C162	C	0.641064	-0.904413	-0.655751
C163	C	0.634860	-0.819155	-0.655943
C164	C	0.605999	-0.765293	-0.631116
C165	C	0.552042	-0.738279	-0.579169
C166	C	0.606502	-0.447857	-0.631603
C167	C	0.635529	-0.423027	-0.656598
C168	C	0.610613	-0.371084	-0.629644
C169	C	0.642085	-0.344159	-0.656737
C170	C	0.556661	-0.343969	-0.577693
C171	C	0.527630	-0.368794	-0.552703
C172	C	0.552560	-0.420744	-0.579664
C173	C	0.209790	-0.447905	-0.234797
C174	C	0.159982	-0.423087	-0.180932
C175	C	0.134993	-0.371141	-0.153906
C176	C	0.080990	-0.344230	-0.095501
C177	C	0.159816	-0.344019	-0.180746
C178	C	0.209624	-0.368840	-0.234610
C179	C	0.234604	-0.420783	-0.261633
C180	C	0.520753	-0.679876	-0.552249
C181	C	0.495810	-0.633322	-0.530792
C182	C	0.331660	-0.469140	-0.366591
C183	C	0.288612	-0.447690	-0.320038
C184	C	0.495988	-0.469120	-0.530959
C185	C	0.521078	-0.447662	-0.552560
O186	O	-0.311682	0.076246	0.298846
O187	O	-0.222503	-0.076287	0.235498
O188	O	-0.311678	0.012896	0.235508
O189	O	-0.222507	-0.012937	0.298837
O190	O	-0.384084	0.012882	0.307954
O191	O	-0.294908	-0.076301	0.307945
O192	O	-0.384088	0.076231	0.371293
Zn193	Zn	-0.350994	-0.000037	0.351121
Zn194	Zn	-0.255597	-0.000018	0.255670
O195	O	-0.294913	-0.012952	0.371283
C196	C	0.007393	-0.039139	-0.503833
C197	C	-0.018687	-0.039504	-0.530167
C198	C	-0.071449	-0.039152	-0.424962
C199	C	-0.097408	-0.039517	-0.451416
C200	C	-0.071456	-0.039140	-0.503834
C201	C	-0.018680	-0.039516	-0.451415
C202	C	0.183255	-0.024850	-0.551992
C203	C	0.233063	-0.020808	-0.576817
C204	C	0.258044	-0.018773	-0.628760
C205	C	0.312042	-0.014380	-0.655676
C206	C	0.233217	-0.020784	-0.655880
C207	C	0.183418	-0.024833	-0.631058
C208	C	0.158437	-0.026866	-0.579112
C209	C	-0.133891	-0.024840	-0.631591
C210	C	-0.162748	-0.020798	-0.656591
C211	C	-0.216700	-0.018774	-0.629643
C212	C	-0.247997	-0.014384	-0.656741
C213	C	-0.241792	-0.020797	-0.577692
C214	C	-0.212931	-0.024848	-0.552697
C215	C	-0.158978	-0.026866	-0.579652
C216	C	-0.133856	-0.024902	-0.234761
C217	C	-0.162710	-0.020866	-0.180895
C218	C	-0.216662	-0.018844	-0.153875
C219	C	-0.247951	-0.014466	-0.095471
C220	C	-0.241761	-0.020853	-0.180721
C221	C	-0.212907	-0.024887	-0.234584
C222	C	-0.158950	-0.026916	-0.261601
C223	C	0.104434	-0.031251	-0.552199
C224	C	0.061391	-0.034749	-0.530746
C225	C	-0.102733	-0.034776	-0.366559
C226	C	-0.127669	-0.031290	-0.320006
C227	C	-0.102748	-0.034750	-0.530937
C228	C	-0.127690	-0.031253	-0.552542
H229	H	-0.141350	-0.161136	-0.019736
O230	O	-0.614255	-0.418365	0.040366
C231	C	-0.609389	-0.342461	0.041392
C232	C	-0.579906	-0.400658	0.040561
H233	H	-0.581624	-0.328132	0.041539
H234	H	-0.658667	-0.316161	0.078734
H235	H	-0.609681	-0.340020	0.004477
H236	H	-0.579570	-0.403151	0.077451
H237	H	-0.530644	-0.426932	0.003195
O238	O	-0.312074	-0.845040	0.018985
C239	C	-0.236928	-0.839177	0.019443
C240	C	-0.296285	-0.809666	0.021679
H241	H	-0.224151	-0.810588	0.021631
H242	H	-0.197929	-0.874189	-0.019491
H243	H	-0.244787	-0.854598	0.054575
H244	H	-0.288487	-0.794211	-0.013426
H245	H	-0.335264	-0.774681	0.060635
O246	O	-0.138935	-0.448735	-0.706429
C247	C	-0.051417	-0.491700	-0.798445
C248	C	-0.078850	-0.462060	-0.741290
H249	H	-0.002830	-0.502492	-0.826644
H250	H	-0.081387	-0.464923	-0.811572
H251	H	-0.049713	-0.529666	-0.799423
H252	H	-0.080557	-0.424095	-0.740268
H253	H	-0.048871	-0.488876	-0.728187
H254	H	-0.610099	-0.569754	0.040226
H255	H	-0.467082	-0.569754	0.040224
H256	H	-0.141347	-0.161163	0.161169
H257	H	-0.322198	0.019752	0.161192
O258	O	-0.292626	-0.156987	-0.019755
C259	C	-0.398652	-0.082282	0.025158
C260	C	-0.341259	-0.110985	0.025919
H261	H	-0.437983	-0.045078	0.062075
H262	H	-0.412850	-0.110184	0.024986
H263	H	-0.387596	-0.070319	-0.012180
H264	H	-0.352268	-0.122952	0.063251
H265	H	-0.327076	-0.083066	0.026063
H266	H	-0.516310	-0.743491	0.026635
H267	H	0.536369	-0.301671	-0.555749
O268	O	-0.292508	-0.157159	0.312559
C269	C	-0.336135	-0.156987	0.403225
C270	C	-0.278784	-0.185651	0.345031
H271	H	-0.325056	-0.180006	0.429496
H272	H	-0.375508	-0.154814	0.405702
H273	H	-0.350291	-0.114894	0.417563
H274	H	-0.264573	-0.227757	0.330655
H275	H	-0.239448	-0.187782	0.342587
O276	O	0.385610	-0.418322	-0.426032
C277	C	0.303855	-0.342435	-0.345250
C278	C	0.333370	-0.400624	-0.373967
H279	H	0.261622	-0.328112	-0.303147
H280	H	0.289510	-0.316119	-0.368235
H281	H	0.338617	-0.340008	-0.343100
H282	H	0.298641	-0.403102	-0.376123
H283	H	0.347729	-0.426913	-0.350971
H284	H	-0.769881	-0.490228	0.026630
O285	O	-0.081728	-0.497991	-0.657463
C286	C	0.025788	-0.555157	-0.692130
C287	C	-0.033577	-0.498021	-0.662294
H288	H	0.064730	-0.555203	-0.696035
H289	H	0.038665	-0.570146	-0.733540
H290	H	0.017902	-0.582431	-0.668867
H291	H	-0.025738	-0.470707	-0.685513
H292	H	-0.046436	-0.483077	-0.620882
O293	O	-0.237261	-0.342405	-0.261014
C294	C	-0.266734	-0.265790	-0.289834
C295	C	-0.239332	-0.295466	-0.260113
H296	H	-0.268406	-0.227840	-0.289125
H297	H	-0.315320	-0.254986	-0.269484
H298	H	-0.236718	-0.292601	-0.332933
H299	H	-0.269301	-0.268685	-0.217012
H300	H	-0.190738	-0.306278	-0.280505
O301	O	-0.312089	-0.449511	0.019005
C302	C	-0.236916	-0.530561	0.019421
C303	C	-0.296249	-0.500709	0.021619
H304	H	-0.224083	-0.571963	0.021521
H305	H	-0.244751	-0.507334	0.054571
H306	H	-0.197960	-0.534494	-0.019499
H307	H	-0.335233	-0.496768	0.060516
H308	H	-0.288362	-0.523948	-0.013558
O309	O	0.257935	-0.845746	-0.551556
C310	C	0.306969	-0.850210	-0.508590
C311	C	0.279464	-0.820501	-0.538233
H312	H	0.324371	-0.829805	-0.497800
H313	H	0.346858	-0.893317	-0.535365
H314	H	0.269995	-0.849483	-0.470622
H315	H	0.316394	-0.821186	-0.576200
H316	H	0.239561	-0.777409	-0.511420
O317	O	-0.369316	-0.498410	0.026884
C318	C	-0.327312	-0.589177	-0.014407
C319	C	-0.354709	-0.532026	-0.016619
H320	H	-0.315482	-0.616374	-0.049580
H321	H	-0.362342	-0.589196	0.024499
H322	H	-0.283786	-0.604277	-0.016519
H323	H	-0.398228	-0.516891	-0.014528
H324	H	-0.319639	-0.532040	-0.055522
H325	H	-0.373220	-0.743176	0.026647
O326	O	-0.137079	-0.312576	0.157103
C327	C	-0.089955	-0.403238	0.156946
C328	C	-0.119471	-0.345041	0.185639
H329	H	-0.075722	-0.429500	0.180011
H330	H	-0.047650	-0.417626	0.114867
H331	H	-0.124685	-0.405663	0.154734
H332	H	-0.084788	-0.342571	0.187891
H333	H	-0.161786	-0.330678	0.227701
O334	O	-0.467464	-0.845541	0.018958
C335	C	-0.457720	-0.928589	0.012765
C336	C	-0.430341	-0.898837	0.015007
H337	H	-0.427725	-0.971681	0.009581
H338	H	-0.459439	-0.927894	-0.023489
H339	H	-0.506297	-0.908202	0.050585
H340	H	-0.381754	-0.919202	-0.022787
H341	H	-0.428670	-0.899528	0.051285
O342	O	-0.237229	-0.342414	-0.501624
C343	C	-0.266796	-0.265744	-0.443322
C344	C	-0.239396	-0.295429	-0.500448
H345	H	-0.268570	-0.227745	-0.442349
H346	H	-0.236794	-0.292487	-0.430207
H347	H	-0.315356	-0.255007	-0.415106
H348	H	-0.190842	-0.306170	-0.528702
H349	H	-0.269443	-0.268670	-0.513518
H350	H	-0.465218	0.019761	0.161188
O351	O	0.159753	-0.739558	-0.502305
C352	C	0.137265	-0.666675	-0.445141
C353	C	0.164553	-0.696222	-0.502276
H354	H	0.141125	-0.631625	-0.445097
H355	H	0.163677	-0.695204	-0.430151
H356	H	0.086747	-0.651301	-0.417867
H357	H	0.215067	-0.711598	-0.529591
H358	H	0.138094	-0.667674	-0.517222
H359	H	0.483702	-0.346714	-0.510406
O360	O	-0.469332	0.019744	0.312528
C361	C	-0.455768	-0.025183	0.373669
C362	C	-0.426311	-0.025932	0.315498
H363	H	-0.420995	-0.062102	0.376090
H364	H	-0.498023	-0.025020	0.388038
H365	H	-0.470085	0.012153	0.399952
H366	H	-0.411956	-0.063262	0.289173
H367	H	-0.384082	-0.026067	0.301172
O368	O	-0.467475	-0.293570	0.018966
C369	C	-0.457698	-0.220288	0.012713
C370	C	-0.430296	-0.277440	0.014922
H371	H	-0.427644	-0.207234	0.009432
H372	H	-0.506254	-0.192043	0.050547
H373	H	-0.459461	-0.219292	-0.023517
H374	H	-0.428490	-0.278488	0.051128
H375	H	-0.381756	-0.305660	-0.022936
O376	O	-0.864048	-0.449533	0.018964
C377	C	-0.858658	-0.530561	0.019439
C378	C	-0.831385	-0.500698	0.021666
H379	H	-0.832271	-0.571929	0.021634
H380	H	-0.854738	-0.534566	-0.019495
H381	H	-0.909192	-0.507276	0.054571
H382	H	-0.780844	-0.523957	-0.013439
H383	H	-0.835353	-0.496687	0.060622
H384	H	0.003530	-0.570088	-0.430211
H385	H	0.532935	-0.569695	-0.573272
O386	O	-0.766328	-0.342454	0.026894
C387	C	-0.771760	-0.261404	0.026480
C388	C	-0.799057	-0.291255	0.024284
H389	H	-0.798218	-0.220001	0.024383
H390	H	-0.721240	-0.284630	-0.008672
H391	H	-0.775640	-0.257474	0.065398
H392	H	-0.795222	-0.295193	-0.014611
H393	H	-0.849565	-0.268017	0.059464
O394	O	0.474584	-0.738964	-0.501570
C395	C	0.427178	-0.734470	-0.409545
C396	C	0.486521	-0.764158	-0.466694
H397	H	0.436812	-0.754821	-0.381330
H398	H	0.389941	-0.735224	-0.408517
H399	H	0.410856	-0.691357	-0.396475
H400	H	0.502898	-0.807284	-0.479800
H401	H	0.523720	-0.763361	-0.467691
H402	H	0.003536	-0.570083	-0.573284
O403	O	-0.138317	-0.018803	-0.707040
C404	C	-0.056868	-0.019235	-0.782661
C405	C	-0.084476	-0.021493	-0.725527
H406	H	-0.013327	-0.021420	-0.797630
H407	H	-0.091798	0.019705	-0.782728
H408	H	-0.045022	-0.054360	-0.809940
H409	H	-0.096321	0.013605	-0.698216
H410	H	-0.049530	-0.060455	-0.725503
O411	O	0.687333	-0.845443	-0.706362
C412	C	0.794772	-0.918513	-0.763420
C413	C	0.735390	-0.888785	-0.706294
H414	H	0.833638	-0.953568	-0.763386
H415	H	0.807798	-0.890101	-0.778545
H416	H	0.786826	-0.933899	-0.790630
H417	H	0.743288	-0.873397	-0.679044
H418	H	0.722382	-0.917218	-0.691213
O419	O	0.385744	-0.573816	-0.426062
C420	C	0.355918	-0.605141	-0.351335
C421	C	0.385389	-0.576443	-0.380044
H422	H	0.355609	-0.607264	-0.314118
H423	H	0.383639	-0.647250	-0.379224
H424	H	0.306642	-0.582119	-0.339391
H425	H	0.434661	-0.599421	-0.391991
H426	H	0.357621	-0.534332	-0.352137
H427	H	-0.141336	-0.304210	-0.019753
O428	O	0.630778	-0.498308	-0.657879
C429	C	0.712083	-0.574111	-0.738770
C430	C	0.684653	-0.516975	-0.709083
H431	H	0.755652	-0.589224	-0.780169
H432	H	0.677082	-0.574117	-0.742694
H433	H	0.723843	-0.601306	-0.715404
H434	H	0.672895	-0.489746	-0.732424
H435	H	0.719670	-0.517011	-0.705153
H436	H	-0.286007	-0.301367	-0.554790
H437	H	0.139780	-0.445177	-0.159080
H438	H	-0.860531	-0.301746	0.019268
O439	O	-0.524776	-0.342438	0.026934
C440	C	-0.599916	-0.261409	0.026466
C441	C	-0.540561	-0.291273	0.024234
H442	H	-0.612690	-0.220040	0.024273
H443	H	-0.638918	-0.257405	0.065401
H444	H	-0.592056	-0.284692	-0.008665
H445	H	-0.548361	-0.268015	0.059338
H446	H	-0.501580	-0.295282	-0.014723
O447	O	0.234005	-0.498375	-0.260961
C448	C	0.228898	-0.574172	-0.255468
C449	C	0.201421	-0.517022	-0.225770
H450	H	0.202558	-0.589261	-0.227032
H451	H	0.279427	-0.601405	-0.270861
H452	H	0.225027	-0.574143	-0.290515
H453	H	0.205248	-0.516999	-0.190702
H454	H	0.150904	-0.489814	-0.210416
O455	O	-0.081783	-0.498023	-0.260621
C456	C	-0.006643	-0.573655	-0.254754
C457	C	-0.065996	-0.516513	-0.225246
H458	H	0.006132	-0.588626	-0.226164
H459	H	0.032360	-0.573736	-0.289767
H460	H	-0.014506	-0.600923	-0.270172
H461	H	-0.058194	-0.489213	-0.209793
H462	H	-0.104978	-0.516475	-0.190259
O463	O	0.159473	-0.739339	-0.657901
C464	C	0.164548	-0.744857	-0.738789
C465	C	0.191995	-0.774558	-0.709107
H466	H	0.190821	-0.773322	-0.780190
H467	H	0.168460	-0.709835	-0.742710
H468	H	0.114006	-0.729431	-0.715421
H469	H	0.242545	-0.790019	-0.732449
H470	H	0.188035	-0.809554	-0.705180
H471	H	0.679457	-0.445107	-0.698895
O472	O	0.531541	-0.845150	-0.550573
C473	C	0.547231	-0.917996	-0.515845
C474	C	0.574794	-0.888429	-0.545661
H475	H	0.582183	-0.952986	-0.511853
H476	H	0.535381	-0.933442	-0.539104
H477	H	0.503699	-0.889421	-0.474466
H478	H	0.618343	-0.916972	-0.587040
H479	H	0.586600	-0.872974	-0.522361
O480	O	-0.313939	-0.312491	0.156991
C481	C	-0.207881	-0.373606	0.082331
C482	C	-0.265282	-0.315436	0.111042
H483	H	-0.168523	-0.376005	0.045182
H484	H	-0.218846	-0.399929	0.070294
H485	H	-0.193768	-0.387945	0.110290
H486	H	-0.279424	-0.301048	0.083113
H487	H	-0.254284	-0.289149	0.123089
H488	H	-0.142937	-0.444519	-0.158749
O489	O	-0.294154	-0.018904	-0.551595
C490	C	-0.343606	-0.060202	-0.550874
C491	C	-0.284268	-0.062406	-0.580489
H492	H	-0.335630	-0.095375	-0.574217
H493	H	-0.382519	-0.021297	-0.547008
H494	H	-0.356587	-0.062320	-0.509447
H495	H	-0.271231	-0.060310	-0.621931
H496	H	-0.245391	-0.101309	-0.584313
O497	O	0.630470	-0.739297	-0.657518
C498	C	0.711903	-0.745133	-0.738560
C499	C	0.684261	-0.774641	-0.708717
H500	H	0.755390	-0.773693	-0.779964
H501	H	0.723823	-0.729751	-0.715329
H502	H	0.676929	-0.710095	-0.742492
H503	H	0.719205	-0.809701	-0.704779
H504	H	0.672327	-0.789984	-0.731961
H505	H	-0.139480	-0.427024	-0.430222
O506	O	-0.469416	-0.157109	0.157036
C507	C	-0.516631	-0.156883	0.113585
C508	C	-0.487147	-0.185573	0.142280
H509	H	-0.530987	-0.179878	0.101656
H510	H	-0.481904	-0.154715	0.076370
H511	H	-0.558874	-0.114787	0.141522
H512	H	-0.444911	-0.227682	0.114385
H513	H	-0.521915	-0.187698	0.179501
O514	O	0.257563	-0.845530	-0.707060
C515	C	0.279966	-0.918372	-0.764200
C516	C	0.252660	-0.888807	-0.707065
H517	H	0.275999	-0.953361	-0.764221
H518	H	0.330508	-0.933819	-0.791505
H519	H	0.253563	-0.889794	-0.779170
H520	H	0.279014	-0.917352	-0.692047
H521	H	0.202113	-0.873351	-0.679796
O522	O	0.233642	-0.342408	-0.260608
C523	C	0.228242	-0.261376	-0.254734
C524	C	0.200973	-0.291245	-0.225231
H525	H	0.201849	-0.220009	-0.226141
H526	H	0.224325	-0.257369	-0.289749
H527	H	0.278775	-0.284658	-0.270149
H528	H	0.150433	-0.267988	-0.209781
H529	H	0.204938	-0.295257	-0.190242
O530	O	0.135454	-0.293553	-0.154423
C531	C	0.058676	-0.220284	-0.071356
C532	C	0.086194	-0.277430	-0.101104
H533	H	0.018853	-0.207235	-0.028239
H534	H	0.041175	-0.192030	-0.091679
H535	H	0.095663	-0.219294	-0.072121
H536	H	0.049239	-0.278471	-0.100348
H537	H	0.103710	-0.305659	-0.080772
H538	H	-0.465211	-0.161141	0.304225
H539	H	-0.286009	-0.301372	-0.159078
H540	H	-0.139870	-0.040113	-0.430176
O541	O	0.007382	-0.040144	-0.581529
C542	C	0.089119	-0.041120	-0.657416
C543	C	0.059670	-0.040407	-0.599256
H544	H	0.131406	-0.041344	-0.671770
H545	H	0.054382	-0.004165	-0.659835
H546	H	0.103392	-0.078422	-0.683714
H547	H	0.045397	-0.003130	-0.572923
H548	H	0.094426	-0.077387	-0.596880
H549	H	0.003121	-0.040070	-0.430164
O550	O	-0.138232	-0.018946	-0.154905
C551	C	-0.056793	-0.019365	-0.160756
C552	C	-0.084443	-0.021552	-0.190255
H553	H	-0.013307	-0.021460	-0.189321
H554	H	-0.044868	-0.054522	-0.145376
H555	H	-0.091764	0.019550	-0.125716
H556	H	-0.049502	-0.060443	-0.225316
H557	H	-0.096382	0.013632	-0.205596
H558	H	-0.089923	-0.026552	-0.256755
H559	H	0.162921	-0.026506	-0.509696
H560	H	0.253271	-0.019169	-0.554732
H561	H	0.253562	-0.019130	-0.698173
O562	O	0.159359	-0.026757	-0.657466
C563	C	0.164788	-0.026335	-0.738513
C564	C	0.192086	-0.024142	-0.708664
H565	H	0.191243	-0.024233	-0.779916
H566	H	0.114267	0.008816	-0.715285
H567	H	0.168669	-0.065254	-0.742448
H568	H	0.188249	0.014754	-0.704722
H569	H	0.242595	-0.059320	-0.731904
H570	H	-0.089960	-0.026487	-0.653543
O571	O	-0.237398	-0.026784	-0.502226
C572	C	-0.318822	-0.026389	-0.426617
C573	C	-0.291185	-0.024181	-0.483769
H574	H	-0.362306	-0.024296	-0.411682
H575	H	-0.330746	0.008762	-0.399302
H576	H	-0.283843	-0.065308	-0.426572
H577	H	-0.326134	0.014716	-0.483866
H578	H	-0.279246	-0.059359	-0.511060
O579	O	-0.237355	-0.026853	-0.260586
C580	C	-0.318835	-0.026370	-0.254719
C581	C	-0.291200	-0.024157	-0.225213
H582	H	-0.362380	-0.024180	-0.226129
H583	H	-0.283921	-0.065298	-0.289737
H584	H	-0.330681	0.008770	-0.270129
H585	H	-0.279355	-0.059270	-0.209768
H586	H	-0.326130	0.014793	-0.190220
H587	H	-0.285693	-0.019206	-0.158718
