data_functionalizedCrystal
_audit_creation_method	'MofGen! by Chris Wilmer'
_symmetry_space_group_name_H-M	'P1'
_symmetry_Int_Tables_number	1
_symmetry_cell_setting	triclinic
loop_
_symmetry_equiv_pos_as_xyz
  x,y,z
_cell_length_a	10.654550
_cell_length_b	12.811415
_cell_length_c	9.130313
_cell_angle_alpha	84.564622
_cell_angle_beta	89.999724
_cell_angle_gamma	84.263450
loop_
_atom_site_label
_atom_site_type_symbol
_atom_site_fract_x
_atom_site_fract_y
_atom_site_fract_z
O1	O	1.667074	0.147427	-0.141269
O2	O	2.167074	0.647427	0.358731
O3	O	1.301522	0.161472	-0.143161
O4	O	1.801522	0.661472	0.356839
O5	O	1.493494	0.001724	-0.121922
O6	O	1.993494	0.501724	0.378078
O7	O	1.475102	0.307175	-0.162508
O8	O	1.975102	0.807175	0.337492
O9	O	1.493481	0.001719	0.121677
O10	O	1.993481	0.501719	0.621677
O11	O	1.301509	0.161468	0.100438
O12	O	1.801509	0.661468	0.600438
O13	O	1.667061	0.147422	0.102331
O14	O	2.167061	0.647422	0.602331
Cu15	Cu	1.484284	0.154444	0.123627
Cu16	Cu	1.984284	0.654444	0.623627
Cu17	Cu	1.484299	0.154450	-0.164457
Cu18	Cu	1.984299	0.654450	0.335543
O19	O	1.475089	0.307171	0.081092
O20	O	1.975089	0.807171	0.581092
C21	C	1.254723	0.160439	-0.021228
C22	C	1.754723	0.660439	0.478772
C23	C	1.115296	0.157353	-0.020828
C24	C	1.615296	0.657353	0.479172
C25	C	1.035322	0.251411	-0.033321
C26	C	1.535322	0.751411	0.466679
C27	C	0.904316	0.248505	-0.032910
C28	C	1.404316	0.748505	0.467090
C29	C	0.933271	0.057477	-0.007517
C30	C	1.433271	0.557477	0.492483
C31	C	1.064275	0.060383	-0.007918
C32	C	1.564275	0.560383	0.492082
C33	C	1.492457	-0.037390	0.005071
C34	C	1.992457	0.462610	0.505071
C35	C	1.489370	-0.153931	0.020546
C36	C	1.989370	0.346069	0.520546
C37	C	1.483562	-0.372907	-0.215978
C38	C	1.983562	0.127093	0.284022
C39	C	1.480662	-0.482407	-0.201445
C40	C	1.980662	0.017593	0.298555
C41	C	1.480660	-0.482433	0.064143
C42	C	1.980660	0.017567	0.564143
C43	C	1.483561	-0.372933	0.049610
C44	C	1.983561	0.127067	0.549610
C45	C	1.485013	-0.318174	-0.090455
C46	C	1.985013	0.181826	0.409545
C47	C	1.487922	-0.208672	-0.104986
C48	C	1.987922	0.291328	0.395014
C49	C	1.487912	-0.208699	0.160600
C50	C	1.987912	0.291301	0.660600
C51	C	1.485012	-0.318200	0.175133
C52	C	1.985012	0.181800	0.675133
C53	C	1.713860	0.148456	-0.019606
C54	C	2.213860	0.648456	0.480394
C55	C	1.853287	0.151541	-0.020015
C56	C	2.353287	0.651541	0.479985
C57	C	1.476126	0.346285	-0.045905
C58	C	1.976126	0.846285	0.454095
C59	C	1.479213	0.462825	-0.061389
C60	C	1.979213	0.962825	0.438611
N61	N	1.484282	0.154440	0.326250
N62	N	1.984282	0.654440	0.826250
N63	N	1.484311	0.154446	-0.367080
N64	N	1.984311	0.654446	0.132920
C65	C	1.569316	0.083733	0.412303
C66	C	2.069316	0.583733	0.912303
C67	C	1.569328	0.083733	0.565640
C68	C	2.069328	0.583733	1.065640
C69	C	1.399268	0.225156	0.546857
C70	C	1.899268	0.725156	1.046857
C71	C	1.399251	0.225150	0.393524
C72	C	1.899251	0.725150	0.893524
H73	H	0.839205	0.325096	-0.043080
H74	H	1.339205	0.825096	0.456920
Cl75	Cl	1.478833	-0.551211	-0.359253
Cl76	Cl	1.978833	-0.051211	0.140747
H77	H	1.076859	0.330370	-0.043822
H78	H	1.576859	0.830370	0.456178
Cl79	Cl	0.869120	-0.064422	0.008703
Cl80	Cl	1.369120	0.435578	0.508703
Cl81	Cl	1.164821	-0.057871	0.007801
Cl82	Cl	1.664821	0.442129	0.507801
H83	H	1.489109	-0.164089	-0.219035
H84	H	1.989109	0.335911	0.280965
Cl85	Cl	1.478798	-0.551287	0.240209
Cl86	Cl	1.978798	-0.051287	0.740209
Cl87	Cl	1.485407	-0.304065	-0.392054
Cl88	Cl	1.985407	0.195935	0.107946
H89	H	1.483825	-0.362799	0.289170
H90	H	1.983825	0.137201	0.789170
Cl91	Cl	1.676207	-0.005164	0.327738
Cl92	Cl	2.176207	0.494836	0.827738
H93	H	1.489099	-0.164124	0.262811
H94	H	1.989099	0.335876	0.762811
Cl95	Cl	1.676229	-0.005161	0.673816
Cl96	Cl	2.176229	0.494839	1.173816
Cl97	Cl	1.292381	0.314049	0.631435
Cl98	Cl	1.792381	0.814049	1.131435
Cl99	Cl	1.292337	0.314040	0.285334
Cl100	Cl	1.792337	0.814040	0.785334
