data_functionalizedCrystal
_audit_creation_method	'MofGen! by Chris Wilmer'
_symmetry_space_group_name_H-M	'P1'
_symmetry_Int_Tables_number	1
_symmetry_cell_setting	triclinic
loop_
_symmetry_equiv_pos_as_xyz
  x,y,z
_cell_length_a	11.792254
_cell_length_b	17.038272
_cell_length_c	10.868271
_cell_angle_alpha	89.994627
_cell_angle_beta	89.995741
_cell_angle_gamma	87.655077
loop_
_atom_site_label
_atom_site_type_symbol
_atom_site_fract_x
_atom_site_fract_y
_atom_site_fract_z
O1	O	1.516298	0.107254	-0.102323
O2	O	1.849631	0.440588	0.231011
O3	O	2.182965	0.773921	0.564344
O4	O	1.186926	0.118293	-0.102326
O5	O	1.520260	0.451626	0.231008
O6	O	1.853593	0.784960	0.564341
O7	O	1.349655	-0.001050	-0.102314
O8	O	1.682988	0.332283	0.231019
O9	O	2.016321	0.665616	0.564352
O10	O	1.353570	0.226598	-0.102334
O11	O	1.686903	0.559931	0.230999
O12	O	2.020236	0.893264	0.564333
O13	O	1.349640	-0.001055	0.102330
O14	O	1.682973	0.332278	0.435664
O15	O	2.016307	0.665612	0.768997
O16	O	1.186911	0.118288	0.102319
O17	O	1.520245	0.451622	0.435652
O18	O	1.853578	0.784955	0.768986
O19	O	1.516283	0.107250	0.102322
O20	O	1.849617	0.440583	0.435655
O21	O	2.182950	0.773916	0.768989
Zn22	Zn	1.351595	0.112768	0.134812
Zn23	Zn	1.684928	0.446102	0.468146
Zn24	Zn	2.018262	0.779435	0.801479
Zn25	Zn	1.351614	0.112774	-0.134816
Zn26	Zn	1.684948	0.446108	0.198517
Zn27	Zn	2.018281	0.779441	0.531851
O28	O	1.353555	0.226593	0.102311
O29	O	1.686888	0.559926	0.435644
O30	O	2.020222	0.893260	0.768977
C31	C	1.144567	0.117595	-0.000004
C32	C	1.477901	0.450929	0.333330
C33	C	1.811234	0.784262	0.666663
C34	C	1.018372	0.115514	-0.000004
C35	C	1.351705	0.448847	0.333329
C36	C	1.685038	0.782181	0.666662
C37	C	0.915887	0.113823	-0.000009
C38	C	1.249220	0.447156	0.333324
C39	C	1.582554	0.780490	0.666657
C40	C	0.787315	0.111708	-0.000010
C41	C	1.120648	0.445042	0.333323
C42	C	1.453982	0.778375	0.666657
C43	C	1.346086	-0.030197	0.000008
C44	C	1.679420	0.303137	0.333341
C45	C	2.012753	0.636470	0.666674
C46	C	1.335462	-0.117037	0.000007
C47	C	1.668796	0.216296	0.333341
C48	C	2.002129	0.549630	0.666674
C49	C	1.433002	-0.166717	0.000009
C50	C	1.766335	0.166616	0.333343
C51	C	2.099669	0.499950	0.666676
C52	C	1.423013	-0.248312	-0.000002
C53	C	1.756346	0.085021	0.333331
C54	C	2.089680	0.418355	0.666664
C55	C	1.315483	-0.280225	-0.000007
C56	C	1.648817	0.053108	0.333326
C57	C	1.982150	0.386441	0.666659
C58	C	1.217937	-0.230539	-0.000013
C59	C	1.551270	0.102794	0.333320
C60	C	1.884603	0.436128	0.666653
C61	C	1.227927	-0.148946	-0.000010
C62	C	1.561260	0.184388	0.333323
C63	C	1.894593	0.517721	0.666656
C64	C	1.280190	-0.526140	-0.000025
C65	C	1.613524	-0.192807	0.333309
C66	C	1.946857	0.140526	0.666642
C67	C	1.270208	-0.607740	-0.000024
C68	C	1.603541	-0.274407	0.333310
C69	C	1.936874	0.058926	0.666643
C70	C	1.475285	-0.625508	-0.000015
C71	C	1.808618	-0.292174	0.333318
C72	C	2.141952	0.041159	0.666651
C73	C	1.485266	-0.543912	-0.000005
C74	C	1.818599	-0.210579	0.333328
C75	C	2.151932	0.122755	0.666662
C76	C	1.387719	-0.494233	-0.000017
C77	C	1.721052	-0.160899	0.333316
C78	C	2.054385	0.172434	0.666650
C79	C	1.305271	-0.363628	-0.000016
C80	C	1.638604	-0.030295	0.333318
C81	C	1.971937	0.303038	0.666651
C82	C	1.397933	-0.410831	-0.000018
C83	C	1.731266	-0.077498	0.333316
C84	C	2.064599	0.255835	0.666649
C85	C	1.558642	0.107947	-0.000003
C86	C	1.891976	0.441281	0.333331
C87	C	2.225309	0.774614	0.666664
C88	C	1.684838	0.110029	-0.000010
C89	C	2.018171	0.443362	0.333323
C90	C	2.351504	0.776695	0.666657
C91	C	1.357123	0.255740	-0.000014
C92	C	1.690457	0.589073	0.333319
C93	C	2.023790	0.922406	0.666653
C94	C	1.367747	0.342580	-0.000022
C95	C	1.701080	0.675913	0.333312
C96	C	2.034414	1.009246	0.666645
N97	N	1.351590	0.112764	0.318826
N98	N	1.684923	0.446097	0.652160
N99	N	2.018257	0.779430	0.985493
N100	N	1.351628	0.112773	-0.318830
N101	N	1.684961	0.446106	0.014503
N102	N	2.018295	0.779440	0.347837
C103	C	1.351608	0.112773	0.569832
C104	C	1.684942	0.446106	0.903166
C105	C	2.018275	0.779439	1.236499
C106	C	1.351595	0.112770	0.430155
C107	C	1.684928	0.446103	0.763488
C108	C	2.018261	0.779437	1.096822
H109	H	1.520564	-0.140740	0.000021
H110	H	1.853897	0.192593	0.333354
H111	H	2.187231	0.525927	0.666688
H112	H	1.200760	-0.485701	-0.000034
H113	H	1.534093	-0.152368	0.333299
H114	H	1.867427	0.180966	0.666632
H115	H	1.554702	-0.665965	-0.000008
H116	H	1.888035	-0.332632	0.333326
H117	H	2.221368	0.000702	0.666659
H118	H	1.485483	-0.384844	-0.000041
H119	H	1.818816	-0.051511	0.333292
H120	H	2.152149	0.281823	0.666626
H121	H	1.182640	-0.633720	-0.000008
H122	H	1.515973	-0.300387	0.333325
H123	H	1.849307	0.032946	0.666659
H124	H	1.130384	-0.256529	-0.000025
H125	H	1.463717	0.076804	0.333308
H126	H	1.797050	0.410137	0.666642
H127	H	1.502440	-0.288759	0.000002
H128	H	1.835774	0.044574	0.333335
H129	H	2.169107	0.377908	0.666669
H130	H	1.572827	-0.517935	-0.000001
H131	H	1.906161	-0.184601	0.333333
H132	H	2.239494	0.148732	0.666666
H133	H	1.148499	-0.108496	-0.000012
H134	H	1.481833	0.224837	0.333321
H135	H	1.815166	0.558170	0.666654
H136	H	1.217719	-0.389621	-0.000017
H137	H	1.551053	-0.056288	0.333316
H138	H	1.884386	0.277045	0.666650
