data_functionalizedCrystal
_audit_creation_method	'MofGen! by Chris Wilmer'
_symmetry_space_group_name_H-M	'P1'
_symmetry_Int_Tables_number	1
_symmetry_cell_setting	triclinic
loop_
_symmetry_equiv_pos_as_xyz
  x,y,z
_cell_length_a	19.288840
_cell_length_b	11.792241
_cell_length_c	17.766277
_cell_angle_alpha	90.006477
_cell_angle_beta	90.016585
_cell_angle_gamma	83.659716
loop_
_atom_site_label
_atom_site_type_symbol
_atom_site_fract_x
_atom_site_fract_y
_atom_site_fract_z
O1	O	0.922168	0.141447	0.062720
O2	O	0.720013	0.160576	0.062694
O3	O	0.825996	-0.014234	0.062703
O4	O	0.816185	0.316257	0.062712
O5	O	0.825977	-0.014243	-0.062486
O6	O	0.719994	0.160567	-0.062494
O7	O	0.922149	0.141438	-0.062468
Cu8	Cu	0.821070	0.151002	-0.073912
Cu9	Cu	0.821092	0.151012	0.074138
O10	O	0.816166	0.316248	-0.062477
C11	C	0.694124	0.159961	0.000097
C12	C	0.617009	0.158127	0.000087
C13	C	0.580810	0.157251	0.068329
C14	C	0.508354	0.155516	0.068338
C15	C	0.472100	0.154634	0.000101
C16	C	0.508306	0.155516	-0.068150
C17	C	0.580761	0.157263	-0.068157
C18	C	0.362371	0.085385	-0.052169
C19	C	0.289918	0.083632	-0.052159
C20	C	0.248625	0.149251	0.000121
C21	C	0.279795	0.216610	0.052403
C22	C	0.352250	0.218357	0.052396
C23	C	0.393535	0.152740	0.000101
C24	C	0.133861	0.146495	0.068377
C25	C	0.061403	0.144767	0.068384
C26	C	0.061357	0.144756	-0.068106
C27	C	0.133814	0.146495	-0.068111
C28	C	0.170062	0.147360	0.000133
C29	C	0.825370	-0.056520	0.000109
C30	C	0.823526	-0.182506	0.000109
C31	C	0.820134	-0.413166	0.000121
C32	C	0.822018	-0.284810	0.000115
C33	C	0.948038	0.142053	0.000131
C34	C	1.025153	0.143887	0.000146
C35	C	0.816792	0.358534	0.000119
C36	C	0.818636	0.484519	0.000124
N37	N	0.821059	0.150994	-0.178042
C38	C	0.868004	0.073625	-0.217425
C39	C	0.868008	0.073620	-0.296227
C40	C	0.821074	0.151003	-0.335643
C41	C	0.774121	0.228377	-0.296250
C42	C	0.774113	0.228372	-0.217450
C43	C	0.812363	0.254415	-0.460479
C44	C	0.812375	0.254421	-0.539277
C45	C	0.821093	0.151016	-0.578689
C46	C	0.829813	0.047601	-0.539292
C47	C	0.829806	0.047597	-0.460492
C48	C	0.821077	0.151016	-0.421088
C49	C	0.868044	0.073636	-0.703518
C50	C	0.868043	0.073629	-0.782322
C51	C	0.774159	0.228395	-0.782343
C52	C	0.774157	0.228392	-0.703541
C53	C	0.821103	0.151014	-0.664134
N54	N	0.821108	0.151011	0.178268
H55	H	0.031931	0.144061	0.123957
H56	H	0.735942	0.291397	-0.814434
Br57	Br	0.630001	0.158426	0.160945
H58	H	0.163287	0.147201	-0.123681
H59	H	0.163375	0.147211	0.123946
H60	H	0.031840	0.144044	-0.123666
Br61	Br	0.247621	-0.007754	-0.123128
H62	H	0.395986	0.031947	-0.094746
Br63	Br	0.931712	-0.031389	-0.163943
H64	H	0.377625	0.273205	0.094964
Br65	Br	0.841654	-0.092744	-0.592769
Br66	Br	0.710445	0.333400	-0.650086
Br67	Br	0.710419	0.333389	-0.349740
Br68	Br	0.459216	0.154330	0.160959
H69	H	0.478783	0.154801	-0.123709
Br70	Br	0.629890	0.158454	-0.160779
H71	H	0.906237	0.010615	-0.328299
Br72	Br	0.841633	-0.092744	-0.407027
Br73	Br	0.931753	-0.031388	-0.835775
Br74	Br	0.800548	0.394767	-0.592737
H75	H	0.246176	0.270048	0.094972
H76	H	0.906269	0.010626	-0.671431
H77	H	0.805251	0.338624	-0.428396
Br78	Br	0.710397	0.333378	-0.163996
