data_functionalizedCrystal
_audit_creation_method	'MofGen! by Chris Wilmer'
_symmetry_space_group_name_H-M	'P1'
_symmetry_Int_Tables_number	1
_symmetry_cell_setting	triclinic
loop_
_symmetry_equiv_pos_as_xyz
  x,y,z
_cell_length_a	13.897448
_cell_length_b	18.215407
_cell_length_c	13.897431
_cell_angle_alpha	90.048994
_cell_angle_beta	89.924096
_cell_angle_gamma	89.986687
loop_
_atom_site_label
_atom_site_type_symbol
_atom_site_fract_x
_atom_site_fract_y
_atom_site_fract_z
Zn1	Zn	-0.383666	-1.125335	-0.545363
Zn2	Zn	0.116334	-0.625335	-0.045363
Zn3	Zn	-0.545115	-1.125192	-0.384064
Zn4	Zn	-0.045115	-0.625192	0.115936
Zn5	Zn	-0.383823	-1.002201	-0.384083
Zn6	Zn	0.116177	-0.502201	0.115917
Zn7	Zn	-0.544908	-1.002249	-0.545319
Zn8	Zn	-0.044908	-0.502249	-0.045319
O9	O	-0.464378	-1.063745	-0.464707
O10	O	0.035622	-0.563745	0.035293
O11	O	-0.405103	-1.228301	-0.523976
O12	O	0.094897	-0.728301	-0.023976
O13	O	-0.523872	-1.108797	-0.249084
O14	O	-0.023872	-0.608797	0.250916
O15	O	-0.248821	-1.018575	-0.405503
O16	O	0.251179	-0.518575	0.094497
O17	O	-0.523719	-1.228196	-0.405471
O18	O	-0.023719	-0.728196	0.094529
O19	O	-0.248705	-1.109041	-0.523995
O20	O	0.251295	-0.609041	-0.023995
O21	O	-0.405371	-1.018436	-0.249098
O22	O	0.094629	-0.518436	0.250902
O23	O	-0.405171	-0.899223	-0.405461
O24	O	0.094829	-0.399223	0.094539
O25	O	-0.523366	-1.018657	-0.680307
O26	O	-0.023366	-0.518657	-0.180307
O27	O	-0.523519	-0.899259	-0.523920
O28	O	-0.023519	-0.399259	-0.023920
O29	O	-0.404902	-1.109088	-0.680339
O30	O	0.095098	-0.609088	-0.180339
O31	O	-0.680069	-1.108844	-0.405428
O32	O	-0.180069	-0.608844	0.094572
O33	O	-0.679917	-1.018518	-0.523902
O34	O	-0.179917	-0.518518	-0.023902
C35	C	-0.464340	-0.872538	-0.464688
C36	C	0.035660	-0.372538	0.035312
C37	C	-0.464347	-0.790739	-0.464703
C38	C	0.035653	-0.290739	0.035297
C39	C	-0.402703	-0.602599	-0.526505
C40	C	0.097297	-0.102599	-0.026505
C41	C	-0.402708	-0.525741	-0.526507
C42	C	0.097292	-0.025741	-0.026507
C43	C	-0.526038	-0.525642	-0.402917
C44	C	-0.026038	-0.025642	0.097083
C45	C	-0.526027	-0.602499	-0.402910
C46	C	-0.026027	-0.102499	0.097090
C47	C	-0.464361	-0.640976	-0.464710
C48	C	0.035639	-0.140976	0.035290
C49	C	-0.464377	-0.487260	-0.464719
C50	C	0.035623	0.012740	0.035281
C51	C	-0.464383	-0.403926	-0.464721
C52	C	0.035617	0.096074	0.035279
C53	C	-0.464354	-0.724315	-0.464706
C54	C	0.035646	-0.224315	0.035294
C55	C	-0.714992	-1.063691	-0.464679
C56	C	-0.214992	-0.563691	0.035321
C57	C	-0.822206	-1.063735	-0.464699
C58	C	-0.322206	-0.563735	0.035301
C59	C	-1.018501	-1.063812	-0.464760
C60	C	-0.518501	-0.563812	0.035240
C61	C	-0.909269	-1.063767	-0.464729
C62	C	-0.409269	-0.563767	0.035271
C63	C	-0.212785	-1.063819	-0.464756
C64	C	0.287215	-0.563819	0.035244
C65	C	-0.105571	-1.063850	-0.464777
C66	C	0.394429	-0.563850	0.035223
C67	C	-0.464094	-1.063894	-0.716301
C68	C	0.035906	-0.563894	-0.216301
C69	C	-0.463973	-1.063958	-0.823515
C70	C	0.036027	-0.563958	-0.323515
C71	C	-0.464406	-0.255697	-0.464724
C72	C	0.035594	0.244303	0.035276
C73	C	-0.464391	-0.337496	-0.464725
C74	C	0.035609	0.162504	0.035275
C75	C	-0.464591	-1.063638	-0.214092
C76	C	0.035409	-0.563638	0.285908
C77	C	-0.464441	-1.063717	-0.106879
C78	C	0.035559	-0.563717	0.393121
C79	C	-0.464304	-1.063793	-0.019809
C80	C	0.035696	-0.563793	0.480191
C81	C	-0.464122	-1.063887	0.089423
C82	C	0.035878	-0.563887	0.589423
H83	H	-0.352488	-0.633925	-0.576823
H84	H	0.147512	-0.133925	-0.076823
H85	H	-0.352498	-0.494498	-0.576826
H86	H	0.147502	0.005502	-0.076826
H87	H	-0.576245	-0.494305	-0.352603
H88	H	-0.076245	0.005695	0.147397
H89	H	-0.576238	-0.633746	-0.352584
H90	H	-0.076238	-0.133746	0.147416
