data_functionalizedCrystal
_audit_creation_method	'MofGen! by Chris Wilmer'
_symmetry_space_group_name_H-M	'P1'
_symmetry_Int_Tables_number	1
_symmetry_cell_setting	triclinic
loop_
_symmetry_equiv_pos_as_xyz
  x,y,z
_cell_length_a	19.805407
_cell_length_b	19.805405
_cell_length_c	12.759393
_cell_angle_alpha	90.037628
_cell_angle_beta	90.027260
_cell_angle_gamma	90.025657
loop_
_atom_site_label
_atom_site_type_symbol
_atom_site_fract_x
_atom_site_fract_y
_atom_site_fract_z
Zn1	Zn	1.034756	-0.269437	0.594183
Zn2	Zn	1.534756	0.230563	1.094183
Zn3	Zn	1.034665	-0.382642	0.418484
Zn4	Zn	1.534665	0.117358	0.918484
Zn5	Zn	0.921565	-0.269470	0.418495
Zn6	Zn	1.421565	0.230530	0.918495
Zn7	Zn	0.921534	-0.382588	0.594099
Zn8	Zn	1.421534	0.117412	1.094099
O9	O	0.978130	-0.326034	0.506315
O10	O	1.478130	0.173966	1.006315
O11	O	1.129461	-0.284462	0.570906
O12	O	1.629461	0.215538	1.070906
O13	O	1.019637	-0.367666	0.271465
O14	O	1.519637	0.132334	0.771465
O15	O	0.936631	-0.174749	0.441840
O16	O	1.436631	0.325251	0.941840
O17	O	1.129394	-0.367633	0.441821
O18	O	1.629394	0.132367	0.941821
O19	O	1.019792	-0.174725	0.570917
O20	O	1.519792	0.325275	1.070917
O21	O	0.936542	-0.284519	0.271473
O22	O	1.436542	0.215481	0.771473
O23	O	0.826844	-0.284467	0.441759
O24	O	1.326844	0.215533	0.941759
O25	O	0.936579	-0.367541	0.741131
O26	O	1.436579	0.132459	1.241131
O27	O	0.826822	-0.367574	0.570774
O28	O	1.326822	0.132426	1.070774
O29	O	1.019762	-0.284410	0.741193
O30	O	1.519762	0.215590	1.241193
O31	O	1.019607	-0.477351	0.441740
O32	O	1.519607	0.022649	0.941740
O33	O	0.936490	-0.477311	0.570763
O34	O	1.436490	0.022689	1.070763
C35	C	0.802274	-0.326019	0.506259
C36	C	1.302274	0.173981	1.006259
C37	C	0.727042	-0.326029	0.506260
C38	C	1.227042	0.173971	1.006260
C39	C	0.265257	-0.369389	0.573455
C40	C	0.765257	0.130611	1.073455
C41	C	0.335946	-0.369388	0.573433
C42	C	0.835946	0.130612	1.073433
C43	C	0.371280	-0.326050	0.506356
C44	C	0.871280	0.173950	1.006356
C45	C	0.335923	-0.282716	0.439290
C46	C	0.835923	0.217284	0.939290
C47	C	0.265236	-0.282721	0.439308
C48	C	0.765236	0.217279	0.939308
C49	C	0.620996	-0.282695	0.439216
C50	C	1.120996	0.217305	0.939216
C51	C	0.691688	-0.282692	0.439206
C52	C	1.191688	0.217308	0.939206
C53	C	0.691706	-0.369362	0.573341
C54	C	1.191706	0.130638	1.073341
C55	C	0.621019	-0.369367	0.573359
C56	C	1.121019	0.130633	1.073359
C57	C	0.585668	-0.326036	0.506289
C58	C	1.085668	0.173964	1.006289
C59	C	0.509019	-0.326038	0.506313
C60	C	1.009019	0.173962	1.006313
C61	C	0.447927	-0.326044	0.506337
C62	C	0.947927	0.173956	1.006337
C63	C	0.978054	-0.501890	0.506264
C64	C	1.478054	-0.001890	1.006264
C65	C	0.978083	-0.577122	0.506278
C66	C	1.478083	-0.077122	1.006278
C67	C	1.021404	-0.612464	0.439166
C68	C	1.521404	-0.112464	0.939166
C69	C	1.021433	-0.683153	0.439189
C70	C	1.521433	-0.183153	0.939189
C71	C	0.978137	-0.718498	0.506320
C72	C	1.478137	-0.218498	1.006320
C73	C	0.934814	-0.683150	0.573439
C74	C	1.434814	-0.183150	1.073439
C75	C	0.934789	-0.612463	0.573421
C76	C	1.434789	-0.112463	1.073421
C77	C	0.934914	-0.968224	0.573517
C78	C	1.434914	-0.468224	1.073517
C79	C	0.934941	-1.038916	0.573528
C80	C	1.434941	-0.538916	1.073528
C81	C	1.021557	-1.038913	0.439286
C82	C	1.521557	-0.538913	0.939286
C83	C	1.021533	-0.968226	0.439267
C84	C	1.521533	-0.468226	0.939267
C85	C	0.978213	-0.932885	0.506390
C86	C	1.478213	-0.432885	1.006390
C87	C	0.978183	-0.856237	0.506365
C88	C	1.478183	-0.356237	1.006365
C89	C	0.978163	-0.795145	0.506340
C90	C	1.478163	-0.295145	1.006340
C91	C	1.154673	-0.326050	0.506372
C92	C	1.654673	0.173950	1.006372
C93	C	1.229905	-0.326057	0.506396
C94	C	1.729905	0.173943	1.006396
C95	C	0.978177	-0.325966	0.780349
C96	C	1.478177	0.174034	1.280349
C97	C	0.978198	-0.325937	0.897125
C98	C	1.478198	0.174063	1.397125
C99	C	0.978225	-0.149491	0.506389
C100	C	1.478225	0.350509	1.006389
C101	C	0.978265	-0.074259	0.506421
C102	C	1.478265	0.425741	1.006421
C103	C	0.978122	-0.326053	0.233348
C104	C	1.478122	0.173947	0.733348
C105	C	0.978233	-0.325892	0.116572
C106	C	1.478233	0.174108	0.616572
C107	C	1.021517	-0.282646	0.952021
C108	C	1.521517	0.217354	1.452021
C109	C	1.021533	-0.282622	1.061745
C110	C	1.521533	0.217378	1.561745
C111	C	0.934908	-0.369184	1.061668
C112	C	1.434908	0.130816	1.561668
C113	C	0.934889	-0.369205	0.951946
C114	C	1.434889	0.130795	1.451946
C115	C	1.071532	-0.232672	0.952067
C116	C	1.571532	0.267328	1.452067
C117	C	1.071548	-0.232647	1.061791
C118	C	1.571548	0.267353	1.561791
H119	H	0.720456	-0.247399	0.384582
H120	H	1.220456	0.252601	0.884582
C121	C	1.142360	-0.251622	1.102039
C122	C	1.642360	0.248378	1.602039
N123	N	1.195693	-0.265915	1.132353
N124	N	1.695693	0.234085	1.632353
H125	H	0.236493	-0.404676	0.628083
H126	H	0.736493	0.095324	1.128083
C127	C	1.069032	-0.573592	0.365313
C128	C	1.569032	-0.073592	0.865313
N129	N	1.104909	-0.544315	0.309687
N130	N	1.604909	-0.044315	0.809687
C131	C	1.138785	-0.258040	0.906092
C132	C	1.638785	0.241960	1.406092
N133	N	1.189443	-0.277144	0.871464
N134	N	1.689443	0.222856	1.371464
C135	C	0.226349	-0.235050	0.365540
C136	C	0.726349	0.264950	0.865540
N137	N	0.197060	-0.199144	0.309975
N138	N	0.697060	0.300856	0.809975
C139	C	0.582155	-0.417048	0.647140
C140	C	1.082155	0.082952	1.147140
N141	N	0.552883	-0.452966	0.702706
N142	N	1.052883	0.047034	1.202706
C143	C	0.887133	-0.573587	0.647250
C144	C	1.387133	-0.073587	1.147250
N145	N	0.851239	-0.544307	0.702863
N146	N	1.351239	-0.044307	1.202863
C147	C	1.069085	-0.722026	0.365354
C148	C	1.569085	-0.222026	0.865354
N149	N	1.104978	-0.751305	0.309736
N150	N	1.604978	-0.251305	0.809736
H151	H	1.056786	-0.939451	0.384599
H152	H	1.556786	-0.439451	0.884599
C153	C	0.730599	-0.417035	0.647110
C154	C	1.230599	0.082965	1.147110
N155	N	0.759891	-0.452941	0.702671
N156	N	1.259891	0.047059	1.202671
C157	C	1.069214	-1.077795	0.365453
C158	C	1.569214	-0.577795	0.865453
N159	N	1.105107	-1.107079	0.309842
N160	N	1.605107	-0.607079	0.809842
H161	H	0.899647	-0.404410	1.106317
H162	H	1.399647	0.095590	1.606317
C163	C	0.582119	-0.235020	0.365452
C164	C	1.082119	0.264980	0.865452
N165	N	0.552835	-0.199105	0.309893
N166	N	1.052835	0.300895	0.809893
C167	C	0.887313	-1.077794	0.647386
C168	C	1.387313	-0.577794	1.147386
N169	N	0.851442	-1.107077	0.703014
N170	N	1.351442	-0.607077	1.203014
C171	C	0.887186	-0.722032	0.647280
C172	C	1.387186	-0.222032	1.147280
N173	N	0.851308	-0.751318	0.702895
N174	N	1.351308	-0.251318	1.202895
C175	C	0.887295	-0.929358	0.647408
C176	C	1.387295	-0.429358	1.147408
N177	N	0.851439	-0.900081	0.703086
N178	N	1.351439	-0.400081	1.203086
C179	C	0.374794	-0.235039	0.365513
C180	C	0.874794	0.264961	0.865513
N181	N	0.404071	-0.199124	0.309948
N182	N	0.904071	0.300876	0.809948
C183	C	0.374830	-0.417060	0.647200
C184	C	0.874830	0.082940	1.147200
N185	N	0.404117	-0.452969	0.702762
N186	N	0.904117	0.047031	1.202762
C187	C	0.887224	-0.416818	0.891565
C188	C	1.387224	0.083182	1.391565
N189	N	0.851319	-0.452680	0.846085
N190	N	1.351319	0.047320	1.346085
H191	H	1.057518	-0.180254	0.922316
H192	H	1.557518	0.319746	1.422316
C193	C	1.046255	-0.165352	1.107799
C194	C	1.546255	0.334648	1.607799
N195	N	1.027212	-0.114663	1.142453
N196	N	1.527212	0.385337	1.642453
