data_functionalizedCrystal
_audit_creation_method	'MofGen! by Chris Wilmer'
_symmetry_space_group_name_H-M	'P1'
_symmetry_Int_Tables_number	1
_symmetry_cell_setting	triclinic
loop_
_symmetry_equiv_pos_as_xyz
  x,y,z
_cell_length_a	12.759401
_cell_length_b	29.839131
_cell_length_c	12.759393
_cell_angle_alpha	89.954455
_cell_angle_beta	89.980903
_cell_angle_gamma	90.035212
loop_
_atom_site_label
_atom_site_type_symbol
_atom_site_fract_x
_atom_site_fract_y
_atom_site_fract_z
Zn1	Zn	1.606106	-0.178827	-0.593896
Zn2	Zn	1.605937	-0.253966	-0.418173
Zn3	Zn	1.430407	-0.178850	-0.418234
Zn4	Zn	1.430333	-0.253931	-0.593813
O5	O	1.518196	-0.216393	-0.506029
O6	O	1.753104	-0.188799	-0.570596
O7	O	1.582613	-0.244026	-0.271160
O8	O	1.453816	-0.115980	-0.441596
O9	O	1.752980	-0.244003	-0.441493
O10	O	1.582900	-0.115963	-0.570654
O11	O	1.453652	-0.188839	-0.271204
O12	O	1.283377	-0.188805	-0.441515
O13	O	1.453689	-0.243944	-0.740845
O14	O	1.283322	-0.243966	-0.570512
O15	O	1.582828	-0.188765	-0.740906
O16	O	1.582541	-0.316828	-0.441412
O17	O	1.453526	-0.316802	-0.570454
C18	C	1.245228	-0.216385	-0.506012
C19	C	1.128452	-0.216392	-0.506029
C20	C	0.963924	-0.187705	-0.573366
C21	C	1.073648	-0.187699	-0.573357
C22	C	1.073525	-0.245096	-0.438715
C23	C	0.963803	-0.245105	-0.438730
C24	C	0.909127	-0.159007	-0.640690
C25	C	0.964046	-0.130302	-0.708006
C26	C	1.073770	-0.130296	-0.707997
C27	C	1.128575	-0.158994	-0.640671
C28	C	1.518036	-0.333116	-0.505940
C29	C	1.518063	-0.383050	-0.505938
C30	C	1.585395	-0.692650	-0.573325
C31	C	1.585509	-0.880323	-0.573389
O32	O	1.642601	-0.904551	-0.630618
N33	N	1.518374	-0.903835	-0.506146
C34	C	1.451201	-0.880427	-0.438887
O35	O	1.394093	-0.904732	-0.381702
C36	C	1.451082	-0.692755	-0.438830
C37	C	1.518229	-0.669245	-0.506070
C38	C	1.652536	-0.669140	-0.640561
C39	C	1.652511	-0.622224	-0.640540
C40	C	1.585345	-0.598819	-0.573284
C41	C	1.518204	-0.622329	-0.506049
C42	C	1.383904	-0.669347	-0.371577
C43	C	1.383879	-0.622426	-0.371571
C44	C	1.451026	-0.598916	-0.438811
C45	C	1.451013	-0.552008	-0.438773
N46	N	1.518148	-0.528496	-0.506016
C47	C	1.585314	-0.551901	-0.573272
C48	C	1.451269	-0.978957	-0.438920
C49	C	1.451300	-1.025875	-0.438933
C50	C	1.585608	-1.025768	-0.573436
C51	C	1.585581	-0.978850	-0.573417
C52	C	1.518404	-0.955445	-0.506163
C53	C	1.585257	-0.453375	-0.573223
C54	C	1.585229	-0.406456	-0.573193
C55	C	1.450918	-0.406567	-0.438694
C56	C	1.450950	-0.453482	-0.438720
C57	C	1.518123	-0.476886	-0.505992
O58	O	1.393943	-0.527752	-0.381582
O59	O	1.642397	-0.527588	-0.630465
C60	C	1.585421	-0.739565	-0.573346
C61	C	1.518280	-0.763075	-0.506111
C62	C	1.451114	-0.739670	-0.438855
C63	C	1.518310	-0.809993	-0.506123
C64	C	1.585477	-0.833399	-0.573379
C65	C	1.652612	-0.809886	-0.640622
C66	C	1.652587	-0.762971	-0.640602
C67	C	1.383978	-0.763182	-0.371612
C68	C	1.384010	-0.810098	-0.371637
C69	C	1.451176	-0.833503	-0.438893
C70	C	1.792229	-0.216402	-0.506047
C71	C	1.909006	-0.216406	-0.506054
C72	C	1.518269	-0.216348	-0.780062
C73	C	1.518301	-0.216329	-0.896839
C74	C	1.518385	-0.099215	-0.506141
C75	C	1.518466	-0.049281	-0.506189
C76	C	1.585553	-0.187595	-0.951735
C77	C	1.585578	-0.187578	-1.061459
C78	C	1.451096	-0.245034	-1.061382
C79	C	1.451066	-0.245048	-0.951660
C80	C	1.652787	-0.158876	-0.896914
C81	C	1.720046	-0.130139	-0.951809
C82	C	1.720071	-0.130123	-1.061534
C83	C	1.652837	-0.158843	-1.116362
C84	C	1.518183	-0.216406	-0.233062
C85	C	1.518355	-0.216299	-0.116286
H86	H	0.819784	-0.159006	-0.640701
H87	H	1.329172	-0.603372	-0.316805
H88	H	1.217920	-0.158984	-0.640662
H89	H	1.118156	-0.268461	-0.383901
Br90	Br	1.652855	-0.158812	-1.265275
H91	H	0.919416	-0.106940	-0.762826
Br92	Br	0.889263	-0.284066	-0.347398
Br93	Br	1.359859	-0.284010	-1.135792
H94	H	1.396288	-0.268439	-0.906963
Br95	Br	1.359837	-0.485390	-0.347449
Br96	Br	1.676423	-0.485130	-0.664521
Br97	Br	1.148301	-0.091347	-0.799365
H98	H	1.639912	-0.387315	-0.627948
Br99	Br	1.743637	-0.590325	-0.731807
H100	H	1.774828	-0.106722	-1.106227
Br101	Br	1.676713	-0.946948	-0.664674
Br102	Br	1.743697	-0.700896	-0.731855
Br103	Br	1.811265	-0.091156	-0.877403
H104	H	1.640298	-1.044833	-0.628197
H105	H	1.396633	-1.045013	-0.384168
H106	H	1.329226	-0.688481	-0.316823
Br107	Br	1.360086	-0.947201	-0.347642
Br108	Br	1.743770	-0.841660	-0.731892
Br109	Br	1.359770	-0.374793	-0.347421
Br110	Br	1.292807	-0.731425	-0.280334
Br111	Br	1.292878	-0.841999	-0.280368
H112	H	1.707264	-0.743832	-0.695355
Br113	Br	1.652764	-0.158899	-0.748003
