data_functionalizedCrystal
_audit_creation_method	'MofGen! by Chris Wilmer'
_symmetry_space_group_name_H-M	'P1'
_symmetry_Int_Tables_number	1
_symmetry_cell_setting	triclinic
loop_
_symmetry_equiv_pos_as_xyz
  x,y,z
_cell_length_a	15.944499
_cell_length_b	15.944499
_cell_length_c	14.750779
_cell_angle_alpha	102.637720
_cell_angle_beta	77.362387
_cell_angle_gamma	83.477610
loop_
_atom_site_label
_atom_site_type_symbol
_atom_site_fract_x
_atom_site_fract_y
_atom_site_fract_z
O1	O	0.126366	1.096284	-0.079875
O2	O	0.626366	1.596284	0.420125
O3	O	0.139765	0.851728	-0.079863
O4	O	0.639765	1.351728	0.420137
O5	O	0.010787	0.980707	-0.079871
O6	O	0.510787	1.480707	0.420129
O7	O	0.255344	0.967306	-0.079867
O8	O	0.755344	1.467306	0.420133
O9	O	-0.025670	1.017167	0.079777
O10	O	0.474330	1.517167	0.579777
O11	O	0.103308	0.888189	0.079785
O12	O	0.603308	1.388189	0.579785
O13	O	0.089909	1.132744	0.079774
O14	O	0.589909	1.632744	0.579774
Zn15	Zn	0.090820	1.016256	0.105127
Zn16	Zn	0.590820	1.516256	0.605127
Zn17	Zn	0.138854	0.968217	-0.105216
Zn18	Zn	0.638854	1.468217	0.394784
O19	O	0.218887	1.003766	0.079781
O20	O	0.718887	1.503766	0.579781
C21	C	0.120988	0.838664	-0.000038
C22	C	0.620988	1.338664	0.499962
C23	C	0.119342	0.745417	-0.000033
C24	C	0.619342	1.245417	0.499967
C25	C	0.194279	0.453864	-0.000047
C26	C	0.694279	0.953864	0.499953
C27	C	0.173302	0.496923	-0.078764
C28	C	0.673302	0.996923	0.421236
C29	C	0.113370	0.409777	-0.000056
C30	C	0.613370	0.909777	0.499944
C31	C	0.137337	0.532856	0.078637
C32	C	0.637337	1.032856	0.578637
C33	C	0.116308	0.574688	-0.000043
C34	C	0.616308	1.074688	0.499957
C35	C	0.092386	0.451593	-0.078838
C36	C	0.592386	0.951593	0.421162
C37	C	0.056416	0.487536	0.078633
C38	C	0.556416	0.987536	0.578633
C39	C	0.035384	0.530573	-0.000103
C40	C	0.535384	1.030573	0.499897
C41	C	0.111681	0.314775	-0.000064
C42	C	0.611681	0.814775	0.499936
C43	C	0.117994	0.669687	-0.000042
C44	C	0.617994	1.169687	0.499958
C45	C	-0.038736	0.998388	-0.000049
C46	C	0.461264	1.498388	0.499951
C47	C	-0.131982	0.996741	-0.000056
C48	C	0.368018	1.496741	0.499944
C49	C	-0.423532	1.071675	-0.000054
C50	C	0.076468	1.571675	0.499946
C51	C	-0.380476	1.050701	0.078666
C52	C	0.119524	1.550701	0.578666
C53	C	-0.467620	0.990767	-0.000045
C54	C	0.032380	1.490767	0.499955
C55	C	-0.344539	1.014732	-0.078735
C56	C	0.155461	1.514732	0.421265
C57	C	-0.302710	0.993706	-0.000052
C58	C	0.197290	1.493706	0.499948
C59	C	-0.425807	0.969785	0.078740
C60	C	0.074193	1.469785	0.578740
C61	C	-0.389860	0.933811	-0.078731
C62	C	0.110140	1.433811	0.421269
C63	C	-0.346825	0.912782	0.000009
C64	C	0.153175	1.412782	0.500009
C65	C	-0.562621	0.989077	-0.000040
C66	C	-0.062621	1.489077	0.499960
C67	C	-0.207712	0.995392	-0.000050
C68	C	0.292288	1.495392	0.499950
C69	C	0.268410	0.986085	-0.000042
C70	C	0.768410	1.486085	0.499958
C71	C	0.361658	0.987730	-0.000042
C72	C	0.861658	1.487730	0.499958
C73	C	0.108687	1.145808	-0.000054
C74	C	0.608687	1.645808	0.499946
C75	C	0.110334	1.239053	-0.000064
C76	C	0.610334	1.739053	0.499936
N77	N	0.058039	1.049047	0.248681
N78	N	0.558039	1.549047	0.748681
N79	N	0.171629	0.935433	-0.248770
N80	N	0.671629	1.435433	0.251230
C81	C	0.263147	0.843852	0.600511
C82	C	0.763147	1.343852	1.100511
C83	C	0.240181	0.866836	0.701009
C84	C	0.740181	1.366836	1.201009
C85	C	0.126013	0.981070	0.700965
C86	C	0.626013	1.481070	1.200965
C87	C	0.148966	0.958092	0.600465
C88	C	0.648966	1.458092	1.100465
C89	C	0.217535	0.889484	0.550246
C90	C	0.717535	1.389484	1.050246
C91	C	0.103354	1.003724	0.550200
C92	C	0.603354	1.503724	1.050200
C93	C	0.126309	0.980751	0.449709
C94	C	0.626309	1.480751	0.949709
C95	C	0.194876	0.912147	0.399483
C96	C	0.694876	1.412147	0.899483
C97	C	0.240489	0.866511	0.449755
C98	C	0.740489	1.366511	0.949755
C99	C	0.034790	1.072337	0.600421
C100	C	0.534790	1.572337	1.100421
C101	C	-0.010822	1.117968	0.550156
C102	C	0.489178	1.617968	1.050156
C103	C	0.012129	1.094992	0.449663
C104	C	0.512129	1.594992	0.949663
C105	C	0.080696	1.026388	0.399437
C106	C	0.580696	1.526388	0.899437
C107	C	-0.033485	1.140628	0.399391
C108	C	0.466515	1.640628	0.899391
C109	C	-0.010530	1.117655	0.298900
C110	C	0.489470	1.617655	0.798900
C111	C	0.103651	1.003415	0.298946
C112	C	0.603651	1.503415	0.798946
H113	H	-0.031814	0.563753	-0.000146
H114	H	0.468186	1.063753	0.499854
O115	O	-0.297821	1.039946	-0.166885
O116	O	0.202179	1.539946	0.333115
H117	H	-0.243904	0.986302	-0.210152
H118	H	0.256096	1.486302	0.289848
O119	O	0.289383	0.817608	0.755219
O120	O	0.789383	1.317608	1.255219
H121	H	0.319775	0.863422	0.800986
H122	H	0.819775	1.363422	1.300986
O123	O	-0.009014	0.481034	0.166786
O124	O	0.490986	0.981034	0.666786
H125	H	-0.059818	0.445021	0.144641
H126	H	0.440182	0.945021	0.644641
H127	H	0.159480	0.947541	0.258056
H128	H	0.659480	1.447541	0.758056
O129	O	-0.059741	1.166837	0.244665
O130	O	0.440259	1.666837	0.744665
H131	H	-0.013917	1.197190	0.198860
H132	H	0.486083	1.697190	0.698860
O133	O	-0.302859	0.823780	0.000073
O134	O	0.197141	1.323780	0.500073
H135	H	-0.233344	0.825513	-0.000550
H136	H	0.266656	1.325513	0.499450
H137	H	0.213568	0.893446	0.317657
H138	H	0.713568	1.393446	0.817657
H139	H	0.156376	0.568123	0.145184
H140	H	0.656376	1.068123	0.645184
H141	H	-0.375588	1.100122	0.145213
H142	H	0.124412	1.600122	0.645213
O143	O	-0.467733	1.160634	0.000035
O144	O	0.032267	1.660634	0.500035
H145	H	-0.464651	1.208966	0.065477
H146	H	0.035349	1.708966	0.565477
O147	O	0.314433	0.792492	0.395597
O148	O	0.814433	1.292492	0.895597
H149	H	0.289491	0.741216	0.349841
H150	H	0.789491	1.241216	0.849841
H151	H	0.261443	0.420505	-0.000122
H152	H	0.761443	0.920505	0.499878
O153	O	0.337102	0.769851	0.546332
O154	O	0.837102	1.269851	1.046332
H155	H	0.364968	0.741977	0.598165
H156	H	0.864968	1.241977	1.098165
O157	O	0.238756	0.503411	-0.166913
O158	O	0.738756	1.003411	0.333087
H159	H	0.304660	0.472427	-0.166750
H160	H	0.804660	0.972427	0.333250
O161	O	0.067252	0.404993	-0.167095
O162	O	0.567252	0.904993	0.332905
H163	H	0.066243	0.335637	-0.166427
H164	H	0.566243	0.835637	0.333573
O165	O	0.052056	1.055065	0.755130
O166	O	0.552056	1.555065	1.255130
H167	H	0.043752	1.063371	0.833453
H168	H	0.543752	1.563371	1.333453
O169	O	-0.396415	0.868408	-0.166877
O170	O	0.103585	1.368408	0.333123
H171	H	-0.363597	0.887231	-0.232128
H172	H	0.136403	1.387231	0.267872
H173	H	-0.460996	0.950806	0.145362
H174	H	0.039004	1.450806	0.645362
O175	O	0.010025	1.097124	0.708809
O176	O	0.510025	1.597124	1.208809
H177	H	-0.009510	1.040448	0.735329
H178	H	0.490490	1.540448	1.235329
O179	O	-0.084779	1.191964	0.604321
O180	O	0.415221	1.691964	1.104321
H181	H	-0.093083	1.200270	0.682644
H182	H	0.406917	1.700270	1.182644
O183	O	-0.107436	1.214628	0.453558
O184	O	0.392564	1.714628	0.953558
H185	H	-0.115735	1.222935	0.531880
H186	H	0.384265	1.722935	1.031880
