data_functionalizedCrystal
_audit_creation_method	'MofGen! by Chris Wilmer'
_symmetry_space_group_name_H-M	'P1'
_symmetry_Int_Tables_number	1
_symmetry_cell_setting	triclinic
loop_
_symmetry_equiv_pos_as_xyz
  x,y,z
_cell_length_a	18.215407
_cell_length_b	14.908520
_cell_length_c	18.215399
_cell_angle_alpha	86.730636
_cell_angle_beta	90.019833
_cell_angle_gamma	93.321174
loop_
_atom_site_label
_atom_site_type_symbol
_atom_site_fract_x
_atom_site_fract_y
_atom_site_fract_z
Zn1	Zn	1.108178	-0.359158	0.433017
Zn2	Zn	1.100989	-0.510027	0.317051
Zn3	Zn	0.985109	-0.359188	0.309966
Zn4	Zn	0.977982	-0.509977	0.440073
O5	O	1.043064	-0.434588	0.375027
O6	O	1.210208	-0.379180	0.417646
O7	O	1.085592	-0.490052	0.213128
O8	O	1.007425	-0.232939	0.320371
O9	O	1.204927	-0.490023	0.332446
O10	O	1.097843	-0.232917	0.410776
O11	O	1.000455	-0.379230	0.207923
O12	O	0.881180	-0.379182	0.327213
O13	O	0.995278	-0.489937	0.542120
O14	O	0.875943	-0.489966	0.422802
O15	O	1.090932	-0.379131	0.536936
O16	O	1.078681	-0.636266	0.339288
O17	O	0.988308	-0.636229	0.429672
C18	C	0.851859	-0.434572	0.375005
C19	C	0.770059	-0.434587	0.375014
C20	C	0.579154	-0.492363	0.424733
C21	C	0.502295	-0.492366	0.424742
C22	C	0.507726	-0.376828	0.325338
C23	C	0.584584	-0.376822	0.325333
C24	C	0.620295	-0.434594	0.375029
C25	C	0.466579	-0.434604	0.375044
C26	C	0.383245	-0.434606	0.375053
C27	C	0.703635	-0.434591	0.375021
C28	C	1.031961	-0.668981	0.386030
C29	C	1.027278	-0.769256	0.390762
C30	C	1.112681	-0.957660	0.305613
C31	C	1.108284	-1.051877	0.310057
C32	C	1.014091	-1.051908	0.404097
C33	C	1.018488	-0.957691	0.399653
C34	C	1.067784	-0.910570	0.350409
C35	C	1.072177	-0.816352	0.345962
C36	C	0.977988	-0.816385	0.440005
C37	C	0.973591	-0.910602	0.444449
C38	C	1.235017	-0.434604	0.375049
C39	C	1.316815	-0.434611	0.375059
C40	C	1.043112	-0.434526	0.566977
C41	C	1.043133	-0.434499	0.648775
C42	C	1.054231	-0.199279	0.363996
C43	C	1.058990	-0.099004	0.359296
C44	C	1.043062	-0.434585	0.183820
C45	C	1.043196	-0.434357	0.102011
C46	C	1.092959	-0.376748	0.834268
C47	C	1.092969	-0.376722	0.911126
C48	C	0.993364	-0.492110	0.916513
C49	C	0.993351	-0.492131	0.839656
C50	C	1.043153	-0.434452	0.798536
C51	C	1.043176	-0.434404	0.952250
C52	C	1.043186	-0.434376	1.035582
C53	C	1.043142	-0.434478	0.715198
H54	H	0.618083	-0.329773	0.284858
O55	O	0.472993	-0.320844	0.276991
C56	C	0.386723	-0.308557	0.177110
C57	C	0.426019	-0.372062	0.231810
H58	H	0.348723	-0.349941	0.140577
H59	H	0.429296	-0.267278	0.141532
H60	H	0.353018	-0.261425	0.208767
H61	H	0.459722	-0.419249	0.200212
H62	H	0.383408	-0.413279	0.267388
H63	H	1.144846	-1.090213	0.273581
O64	O	1.120124	-0.770716	0.298111
C65	C	1.213056	-0.780633	0.205276
C66	C	1.158799	-0.832424	0.259446
H67	H	1.244329	-0.830502	0.173989
H68	H	1.253625	-0.736478	0.236982
H69	H	1.181338	-0.736566	0.164713
H70	H	1.190456	-0.876540	0.300021
H71	H	1.118231	-0.876522	0.227691
H72	H	0.941427	-0.778034	0.476478
O73	O	0.945025	-0.548268	0.956384
C74	C	0.902061	-0.701722	0.987116
C75	C	0.956833	-0.638221	0.941909
H76	H	0.911599	-0.774463	0.975441
H77	H	0.843452	-0.685957	0.971242
H78	H	0.910617	-0.691751	1.048179
H79	H	0.948344	-0.648157	0.880834
H80	H	1.015422	-0.654002	0.957844
H81	H	1.133509	-0.329780	0.800790
O82	O	0.966226	-1.097829	0.451866
C83	C	0.917749	-1.242995	0.500419
C84	C	0.971976	-1.191103	0.446276
H85	H	0.922390	-1.318416	0.495929
H86	H	0.859256	-1.224620	0.486568
H87	H	0.931494	-1.224357	0.558886
H88	H	0.958299	-1.209713	0.387790
H89	H	1.030453	-1.209482	0.460190
H90	H	0.933457	-0.948981	0.484544
H91	H	1.133525	-0.329733	0.940215
O92	O	0.945068	-0.548233	0.804862
C93	C	0.929380	-0.670088	0.723822
C94	C	0.984139	-0.606603	0.763169
H95	H	0.960947	-0.717308	0.690116
H96	H	0.892868	-0.628724	0.685845
H97	H	0.893777	-0.711273	0.766424
H98	H	1.019791	-0.565404	0.720620
H99	H	1.020600	-0.648019	0.801159
H100	H	0.608228	-0.539403	0.465200
O101	O	0.462413	-0.548441	0.473122
C102	C	0.436840	-0.592397	0.600315
C103	C	0.482065	-0.528849	0.545602
H104	H	0.452701	-0.576567	0.658927
H105	H	0.448515	-0.665135	0.590768
H106	H	0.375776	-0.582494	0.591750
H107	H	0.543143	-0.538672	0.554135
H108	H	0.470328	-0.456134	0.555163
O109	O	1.160622	-0.912021	0.257758
C110	C	1.253539	-0.921929	0.164906
C111	C	1.199293	-0.973725	0.219084
H112	H	1.284808	-0.971794	0.133612
H113	H	1.294112	-0.877773	0.196607
H114	H	1.221813	-0.877863	0.124350
H115	H	1.230958	-1.017840	0.259652
H116	H	1.158721	-1.017824	0.187335
