data_functionalizedCrystal
_audit_creation_method	'MofGen! by Chris Wilmer'
_symmetry_space_group_name_H-M	'P1'
_symmetry_Int_Tables_number	1
_symmetry_cell_setting	triclinic
loop_
_symmetry_equiv_pos_as_xyz
  x,y,z
_cell_length_a	13.339070
_cell_length_b	14.519709
_cell_length_c	11.804365
_cell_angle_alpha	101.851959
_cell_angle_beta	74.875130
_cell_angle_gamma	99.654719
loop_
_atom_site_label
_atom_site_type_symbol
_atom_site_fract_x
_atom_site_fract_y
_atom_site_fract_z
O1	O	1.363544	0.449147	-0.099080
O2	O	1.068905	0.388436	-0.099072
O3	O	1.224034	0.286542	-0.099066
O4	O	1.208414	0.551041	-0.099087
O5	O	1.183194	0.313329	0.098989
O6	O	1.028065	0.415223	0.098982
O7	O	1.322704	0.475934	0.098974
Cu8	Cu	1.171656	0.448024	0.117062
Cu9	Cu	1.219953	0.416345	-0.117160
O10	O	1.167575	0.577828	0.098968
C11	C	1.010777	0.391574	-0.000044
C12	C	0.898419	0.361005	-0.000040
C13	C	0.534064	0.598691	-0.000078
C14	C	0.639630	0.627415	-0.000085
C15	C	0.704332	0.560815	-0.000073
C16	C	0.663459	0.465486	-0.000055
C17	C	0.557884	0.436759	-0.000058
C18	C	0.728152	0.398882	-0.000053
C19	C	0.687279	0.303554	-0.000035
C20	C	0.581714	0.274831	-0.000037
C21	C	0.517012	0.341431	-0.000048
C22	C	0.833727	0.427610	-0.000051
C23	C	0.857547	0.265677	-0.000031
C24	C	0.751981	0.236954	-0.000024
C25	C	1.202886	0.265390	-0.000038
C26	C	1.200704	0.162454	-0.000038
C27	C	1.192677	-0.214489	-0.000068
C28	C	1.194906	-0.109613	-0.000059
C29	C	1.196690	-0.026021	-0.000052
C30	C	1.198920	0.078862	-0.000045
C31	C	1.380832	0.472796	-0.000057
C32	C	1.493192	0.503364	-0.000068
C33	C	1.188723	0.598979	-0.000062
C34	C	1.190907	0.701915	-0.000071
N35	N	1.137693	0.470307	0.281801
N36	N	1.253924	0.394058	-0.281899
C37	C	1.335480	0.340531	0.655758
C38	C	1.361172	0.323670	0.531097
C39	C	1.305304	0.360328	0.468767
C40	C	1.223741	0.413850	0.531110
C41	C	1.198052	0.430719	0.655783
C42	C	1.167876	0.450515	0.468792
C43	C	1.086313	0.504037	0.531135
C44	C	1.060628	0.520903	0.655795
C45	C	1.116496	0.484245	0.718126
C46	C	1.193565	0.433646	0.344119
C47	C	1.056137	0.523834	0.344144
C48	C	1.030445	0.540695	0.468805
H49	H	1.259973	0.390069	0.293371
O50	O	0.541855	0.182278	0.000127
C51	C	0.460362	0.174687	0.102712
H52	H	0.427154	0.245307	0.136904
H53	H	0.492108	0.155513	0.174543
C54	C	0.414103	0.010166	0.029554
C55	C	0.373311	0.096900	0.071544
H56	H	0.360408	-0.037819	0.010332
H57	H	0.469009	0.015278	-0.039558
H58	H	0.440558	-0.005800	0.089421
H59	H	0.346870	0.112871	0.011673
H60	H	0.318398	0.091789	0.140646
H61	H	0.866995	0.505227	-0.000061
O62	O	0.951159	0.592671	0.529186
C63	C	0.907368	0.621433	0.447452
H64	H	0.924471	0.571295	0.358586
H65	H	0.943075	0.696607	0.434185
C66	C	0.767188	0.680611	0.605283
C67	C	0.788187	0.619026	0.496139
H68	H	0.693673	0.679131	0.635316
H69	H	0.796693	0.661238	0.660350
H70	H	0.796952	0.743251	0.594212
H71	H	0.758434	0.556387	0.507214
H72	H	0.758674	0.638389	0.441075
H73	H	1.095575	0.497970	0.819635
O74	O	0.806862	0.588621	0.000085
C75	C	0.827501	0.567708	0.102685
H76	H	0.766564	0.508506	0.136890
H77	H	0.823887	0.633704	0.174501
C78	C	1.012084	0.608399	0.029530
C79	C	0.937246	0.535680	0.071536
H80	H	1.079782	0.588647	0.010320
H81	H	0.998180	0.622492	-0.039591
H82	H	1.009060	0.663389	0.089384
H83	H	0.940263	0.480696	0.011677
H84	H	0.951154	0.521577	0.140647
H85	H	0.672904	0.705029	-0.000109
O86	O	1.389719	0.304769	0.716179
C87	C	1.379356	0.205094	0.685763
H88	H	1.359007	0.182955	0.595251
H89	H	1.314459	0.173145	0.755938
C90	C	1.508182	0.196466	0.791177
C91	C	1.483197	0.169276	0.680004
H92	H	1.572234	0.174371	0.787630
H93	H	1.515161	0.263619	0.811674
H94	H	1.454093	0.169841	0.849645
H95	H	1.537279	0.195911	0.621542
H96	H	1.476229	0.102127	0.659497
H97	H	0.481377	0.652905	-0.000097
H98	H	0.431050	0.318049	-0.000042
O99	O	1.440099	0.271394	0.470358
C100	C	1.450617	0.264163	0.346961
H101	H	1.416865	0.325724	0.329809
H102	H	1.406555	0.194315	0.311920
C103	C	1.608676	0.191847	0.303741
C104	C	1.567229	0.267462	0.282674
H105	H	1.680607	0.193877	0.264083
H106	H	1.601588	0.196714	0.386875
H107	H	1.571948	0.133648	0.274539
H108	H	1.603949	0.325659	0.311888
H109	H	1.574326	0.262604	0.199542
O110	O	0.712266	0.144336	-0.000226
C111	C	0.673043	0.109012	-0.102784
H112	H	0.712888	0.153915	-0.174483
H113	H	0.585052	0.112138	-0.079596
C114	C	0.646296	-0.049603	-0.061223
C115	C	0.695241	0.005543	-0.149288
H116	H	0.659984	-0.113429	-0.089906
H117	H	0.672718	-0.025805	0.007876
H118	H	0.572974	-0.046987	-0.041907
H119	H	0.768562	0.002936	-0.168591
H120	H	0.668832	-0.018258	-0.218391
H121	H	0.910229	0.211445	-0.000026
O122	O	0.981276	0.572766	0.716301
C123	C	0.887344	0.527972	0.685844
H124	H	0.893779	0.449338	0.651585
H125	H	0.872618	0.561697	0.613480
C126	C	0.788031	0.636282	0.838680
C127	C	0.795932	0.539701	0.796613
H128	H	0.731642	0.643521	0.907005
H129	H	0.851315	0.666464	0.859198
H130	H	0.775763	0.664376	0.778367
H131	H	0.808212	0.511613	0.856920
H132	H	0.732647	0.509515	0.776108
H133	H	1.326226	0.346597	0.367263
H134	H	1.010646	0.553686	0.293396
