data_functionalizedCrystal
_audit_creation_method	'MofGen! by Chris Wilmer'
_symmetry_space_group_name_H-M	'P1'
_symmetry_Int_Tables_number	1
_symmetry_cell_setting	triclinic
loop_
_symmetry_equiv_pos_as_xyz
  x,y,z
_cell_length_a	13.339070
_cell_length_b	12.837943
_cell_length_c	11.295483
_cell_angle_alpha	85.461227
_cell_angle_beta	95.212346
_cell_angle_gamma	105.229117
loop_
_atom_site_label
_atom_site_type_symbol
_atom_site_fract_x
_atom_site_fract_y
_atom_site_fract_z
O1	O	0.264173	1.458416	-0.098995
O2	O	0.250811	1.152768	-0.099002
O3	O	0.106847	1.270513	-0.098996
O4	O	0.408137	1.340670	-0.099001
O5	O	0.119470	1.260165	0.099055
O6	O	0.263434	1.142420	0.099048
O7	O	0.276796	1.448068	0.099056
Cu8	Cu	0.271267	1.294299	0.117135
Cu9	Cu	0.256339	1.306537	-0.117082
O10	O	0.420760	1.330322	0.099049
C11	C	0.252608	1.107675	0.000022
C12	C	0.239146	0.988726	0.000019
C13	C	0.400986	0.794315	0.000033
C14	C	0.388342	0.682553	0.000031
C15	C	0.201215	0.653436	0.000022
C16	C	0.213859	0.765199	0.000024
C17	C	0.313748	0.835635	0.000028
C18	C	0.326391	0.947400	0.000021
C19	C	0.139265	0.918281	0.000020
C20	C	0.126621	0.806518	0.000018
C21	C	0.074327	1.253488	0.000027
C22	C	-0.041381	1.218164	0.000022
C23	C	-0.379696	1.492830	0.000029
C24	C	-0.270983	1.526022	0.000041
C25	C	-0.213577	1.449060	0.000036
C26	C	-0.264895	1.338901	0.000019
C27	C	-0.373618	1.305705	0.000017
C28	C	-0.207499	1.261935	0.000024
C29	C	-0.258817	1.151776	0.000007
C30	C	-0.367530	1.118585	0.000004
C31	C	-0.424936	1.195547	0.000009
C32	C	-0.098776	1.295131	0.000026
C33	C	-0.092698	1.108006	0.000014
C34	C	-0.201411	1.074814	0.000002
C35	C	0.453280	1.347347	0.000023
C36	C	0.568987	1.382672	0.000021
C37	C	0.274998	1.493161	0.000029
C38	C	0.288460	1.612110	0.000024
N39	N	0.281767	1.285699	0.281871
N40	N	0.245832	1.315142	-0.281818
C41	C	0.170190	1.377032	0.531166
C42	C	0.178133	1.370543	0.655829
C43	C	0.305590	1.266225	0.655863
C44	C	0.297647	1.272714	0.531200
C45	C	0.229946	1.328121	0.468856
C46	C	0.222009	1.334616	0.344190
C47	C	0.349460	1.230293	0.344227
C48	C	0.357403	1.223804	0.468890
H49	H	-0.057004	1.384823	0.000040
O50	O	0.054447	0.958284	0.000175
C51	C	-0.095052	0.962295	0.102799
C52	C	0.000950	0.916889	0.102766
H53	H	-0.138319	0.928864	0.185748
H54	H	-0.149024	0.937434	0.019969
H55	H	-0.068837	1.054275	0.102739
H56	H	-0.025170	0.824907	0.102868
H57	H	0.054900	0.941834	0.185589
H58	H	-0.513460	1.168527	-0.000005
H59	H	0.360703	1.221105	0.706641
H60	H	-0.125058	1.476092	0.000046
O61	O	0.156161	1.388435	0.283810
C62	C	0.030620	1.491265	0.296940
C63	C	0.105138	1.430330	0.365463
H64	H	-0.010637	1.525173	0.362926
H65	H	-0.029601	1.433347	0.238618
H66	H	0.076994	1.560454	0.238531
H67	H	0.058851	1.361142	0.423936
H68	H	0.165359	1.488318	0.423709
O69	O	0.423041	1.169810	0.529406
C70	C	0.468515	0.999967	0.567540
C71	C	0.394090	1.060977	0.498955
H72	H	0.445149	0.911970	0.542926
H73	H	0.463917	1.003635	0.667357
H74	H	0.551635	1.039161	0.543046
H75	H	0.310937	1.021828	0.523348
H76	H	0.398778	1.057315	0.399154
H77	H	-0.426445	1.555480	0.000043
O78	O	-0.417220	1.011537	-0.000054
C79	C	-0.399711	0.829435	0.000012
C80	C	-0.343309	0.950631	0.000047
H81	H	-0.339977	0.780156	0.000119
H82	H	-0.455709	0.813487	-0.082891
H83	H	-0.445207	0.804935	0.082876
H84	H	-0.297755	0.975214	-0.082761
H85	H	-0.287371	0.966512	0.083005
H86	H	-0.229207	1.615714	0.000056
O87	O	0.104121	0.585155	0.000070
C88	C	-0.080156	0.568059	-0.000020
C89	C	0.029745	0.645507	-0.000044
H90	H	-0.140321	0.616825	-0.000138
H91	H	-0.085540	0.510696	0.082884
H92	H	-0.095971	0.519314	-0.082883
H93	H	0.045631	0.694324	0.082763
H94	H	0.035074	0.702799	-0.083003
H95	H	0.115073	1.422155	0.480404
H96	H	0.407725	1.004748	0.000026
O97	O	-0.251234	0.967806	-0.000219
C98	C	-0.285799	0.803068	-0.102802
C99	C	-0.229338	0.924247	-0.102713
H100	H	-0.268099	0.767809	-0.185647
H101	H	-0.373375	0.792511	-0.102882
H102	H	-0.257661	0.759155	-0.019883
H103	H	-0.257389	0.968237	-0.185617
H104	H	-0.141769	0.934724	-0.102571
H105	H	0.398120	1.190470	0.293480
O106	O	0.029533	0.738208	-0.000149
C107	C	-0.140780	0.684443	-0.102814
C108	C	-0.030873	0.761886	-0.102752
H109	H	-0.189642	0.703544	-0.185773
H110	H	-0.179234	0.694919	-0.019994
H111	H	-0.134802	0.597472	-0.102756
H112	H	-0.036758	0.848888	-0.102853
H113	H	0.007540	0.751316	-0.185566
O114	O	0.119933	1.417976	0.716228
C115	C	-0.052507	1.426382	0.754412
C116	C	0.013285	1.372594	0.685915
H117	H	-0.138744	1.389696	0.729949
H118	H	-0.032325	1.516962	0.729860
H119	H	-0.035148	1.412257	0.854216
H120	H	-0.004037	1.386635	0.586096
H121	H	-0.006906	1.282032	0.710566
H122	H	0.482319	0.851666	0.000035
H123	H	0.459381	0.648916	0.000039
H124	H	-0.045958	1.045336	0.000015
