data_functionalizedCrystal
_audit_creation_method	'MofGen! by Chris Wilmer'
_symmetry_space_group_name_H-M	'P1'
_symmetry_Int_Tables_number	1
_symmetry_cell_setting	triclinic
loop_
_symmetry_equiv_pos_as_xyz
  x,y,z
_cell_length_a	10.489741
_cell_length_b	14.044220
_cell_length_c	13.101018
_cell_angle_alpha	93.664400
_cell_angle_beta	86.605995
_cell_angle_gamma	88.864026
loop_
_atom_site_label
_atom_site_type_symbol
_atom_site_fract_x
_atom_site_fract_y
_atom_site_fract_z
O1	O	-1.714058	-0.128656	0.085154
O2	O	-1.214058	0.371344	0.585154
O3	O	-1.344138	-0.141217	0.085170
O4	O	-0.844138	0.358783	0.585170
O5	O	-1.523545	0.003085	0.085152
O6	O	-1.023545	0.503085	0.585152
O7	O	-1.534651	-0.272959	0.085172
O8	O	-1.034651	0.227041	0.585172
O9	O	-1.510658	-0.007277	-0.085277
O10	O	-1.010658	0.492723	0.414723
O11	O	-1.331251	-0.151580	-0.085259
O12	O	-0.831251	0.348420	0.414741
O13	O	-1.701171	-0.139018	-0.085275
O14	O	-1.201171	0.360982	0.414725
Zn15	Zn	-1.514165	-0.146945	-0.112326
Zn16	Zn	-1.014165	0.353055	0.387674
Zn17	Zn	-1.531144	-0.133291	0.112221
Zn18	Zn	-1.031144	0.366709	0.612221
O19	O	-1.521764	-0.283321	-0.085257
O20	O	-1.021764	0.216679	0.414743
C21	C	-1.290067	-0.145450	-0.000043
C22	C	-0.790067	0.354550	0.499957
C23	C	-1.148150	-0.142611	-0.000037
C24	C	-0.648150	0.357389	0.499963
C25	C	-1.512240	0.033252	-0.000063
C26	C	-1.012240	0.533252	0.499937
C27	C	-1.497740	0.138576	-0.000063
C28	C	-0.997740	0.638576	0.499937
C29	C	-1.755243	-0.134786	-0.000060
C30	C	-1.255243	0.365214	0.499940
C31	C	-1.897160	-0.137625	-0.000060
C32	C	-1.397160	0.362375	0.499940
C33	C	-1.070696	-0.050795	-0.000053
C34	C	-0.570696	0.449205	0.499947
C35	C	-0.989322	-0.089059	0.083978
C36	C	-0.489322	0.410941	0.583978
C37	C	-0.976653	-0.099298	-0.084051
C38	C	-0.476653	0.400702	0.415949
C39	C	-1.068651	-0.180908	0.084064
C40	C	-0.568651	0.319092	0.584064
C41	C	-1.055983	-0.191138	-0.084041
C42	C	-0.555983	0.308862	0.415959
C43	C	-0.974646	-0.229468	0.000011
C44	C	-0.474646	0.270532	0.500011
C45	C	-1.533069	-0.313487	-0.000040
C46	C	-1.033069	0.186513	0.499960
C47	C	-1.547569	-0.418812	-0.000033
C48	C	-1.047569	0.081188	0.499967
N49	N	-1.502586	-0.156262	-0.265574
N50	N	-1.002586	0.343738	0.234426
C51	C	-1.471233	0.331420	-0.000047
C52	C	-0.971233	0.831420	0.499953
C53	C	-1.574071	0.388351	-0.000049
C54	C	-1.074071	0.888351	0.499951
C55	C	-1.559322	0.495655	-0.000040
C56	C	-1.059322	0.995655	0.499960
C57	C	-1.485980	0.224105	-0.000056
C58	C	-0.985980	0.724105	0.499944
C59	C	-1.558479	-0.111286	-0.525489
C60	C	-1.058479	0.388714	-0.025489
C61	C	-1.486843	-0.168939	-0.474609
C62	C	-0.986843	0.331061	0.025391
C63	C	-1.495605	-0.161884	-0.358291
C64	C	-0.995605	0.338116	0.141709
C65	C	-1.549719	-0.118340	-0.641818
C66	C	-1.049719	0.381660	-0.141818
N67	N	-1.542733	-0.123967	0.265469
N68	N	-1.042733	0.376033	0.765469
H69	H	-0.959739	-0.045890	0.155017
H70	H	-0.459739	0.454110	0.655017
O71	O	-1.705372	0.346177	-0.000056
O72	O	-1.205372	0.846177	0.499944
H73	H	-1.752696	0.365945	-0.069519
H74	H	-1.252696	0.865945	0.430481
H75	H	-1.372122	0.363266	-0.000041
H76	H	-0.872122	0.863266	0.499959
O77	O	-1.396899	-0.241353	-0.532612
O78	O	-0.896899	0.258647	-0.032612
H79	H	-1.404054	-0.235613	-0.616195
H80	H	-0.904054	0.264387	-0.116195
H81	H	-1.626385	-0.056633	-0.481696
H82	H	-1.126385	0.443367	0.018304
H83	H	-1.112738	0.024689	0.000047
H84	H	-0.612738	0.524689	0.500047
H85	H	-1.108794	-0.215403	0.155186
H86	H	-0.608794	0.284597	0.655186
H87	H	-0.932889	-0.305023	0.000062
H88	H	-0.432889	0.194977	0.500062
H89	H	-0.936361	-0.064751	-0.155094
H90	H	-0.436361	0.435249	0.344906
O91	O	-1.095242	-0.248274	-0.178137
O92	O	-0.595242	0.251726	0.321863
H93	H	-1.058380	-0.214250	-0.247796
H94	H	-0.558380	0.285750	0.252204
