data_functionalizedCrystal
_audit_creation_method	'MofGen! by Chris Wilmer'
_symmetry_space_group_name_H-M	'P1'
_symmetry_Int_Tables_number	1
_symmetry_cell_setting	triclinic
loop_
_symmetry_equiv_pos_as_xyz
  x,y,z
_cell_length_a	12.477989
_cell_length_b	14.560438
_cell_length_c	14.560438
_cell_angle_alpha	90.001144
_cell_angle_beta	55.725512
_cell_angle_gamma	64.370240
loop_
_atom_site_label
_atom_site_type_symbol
_atom_site_fract_x
_atom_site_fract_y
_atom_site_fract_z
Zr1	Zr	1.178079	-0.054595	0.818846
O2	O	1.402616	-0.188679	0.659633
O3	O	0.953540	-0.022204	0.876365
O4	O	1.178075	-0.201241	0.863801
O5	O	1.178084	0.141497	0.672199
O6	O	1.178073	-0.201239	1.014941
O7	O	1.178081	-0.009642	0.672198
O8	O	0.776422	0.119026	1.037417
O9	O	1.579736	-0.178768	0.649723
O10	O	1.045895	0.002138	1.003165
O11	O	1.045899	0.114930	0.890371
O12	O	1.310259	-0.095863	0.875578
O13	O	1.310263	0.016928	0.762784
Zr14	Zr	1.178081	0.186456	1.059898
Zr15	Zr	1.178076	-0.054593	1.059897
Zr16	Zr	1.178083	0.186453	0.818847
Zr17	Zr	1.460564	-0.038789	0.803040
Zr18	Zr	0.895595	0.170649	1.075704
O19	O	1.402619	0.154064	1.002379
O20	O	1.402612	-0.188675	1.002378
O21	O	1.402623	0.154061	0.659635
O22	O	0.953543	0.320539	1.219111
O23	O	0.953537	-0.022200	1.219109
O24	O	0.953547	0.320536	0.876367
O25	O	1.178075	-0.009636	1.206546
O26	O	1.178084	0.333102	1.014943
O27	O	1.178086	0.333100	0.863803
O28	O	1.178078	0.141502	1.206546
O29	O	1.579734	-0.178766	0.841327
O30	O	0.776425	0.310627	1.037418
O31	O	0.776423	0.310629	1.229021
O32	O	0.776420	0.119028	1.229021
O33	O	1.579740	0.012833	0.649724
O34	O	1.579737	0.012835	0.841327
O35	O	1.045900	0.227724	1.003166
O36	O	1.045896	0.114932	1.115960
O37	O	1.310260	0.016931	0.988373
O38	O	1.310264	0.129722	0.875579
C39	C	0.824733	0.046159	0.959143
C40	C	0.704810	0.039449	0.965853
C41	C	1.178083	0.065927	0.637854
C42	C	1.178084	0.065926	0.535521
C43	C	1.178086	0.367445	0.939373
C44	C	1.178088	0.469776	0.939374
C45	C	1.531426	0.085702	0.919601
C46	C	1.651349	0.092412	0.912891
C47	C	1.178074	-0.235584	0.939371
C48	C	1.178072	-0.337916	0.939371
C49	C	1.316080	0.466699	0.872777
C50	C	1.316073	0.562853	0.872771
C51	C	1.040068	0.665159	1.005970
C52	C	1.040077	0.569006	1.005968
C53	C	1.178086	-0.017339	0.487444
C54	C	1.178076	-0.017333	0.391297
C55	C	1.178069	0.149208	0.391309
C56	C	1.178068	0.149205	0.487460
C57	C	1.178076	0.065933	1.240891
C58	C	1.178075	0.065934	1.343223
C59	C	0.824729	0.046162	1.260662
C60	C	0.704806	0.039453	1.369704
C61	C	0.824739	0.347674	0.959144
C62	C	0.704818	0.443295	0.965855
C63	C	0.824735	0.347677	1.260663
C64	C	0.704814	0.443299	1.369706
C65	C	1.531424	-0.215816	0.618081
C66	C	1.651345	-0.311438	0.509038
C67	C	1.531430	0.085699	0.618083
C68	C	1.651353	0.092408	0.509040
C69	C	1.531420	-0.215813	0.919600
C70	C	1.651341	-0.311434	0.912889
C71	C	0.648503	0.547087	1.027884
C72	C	0.535840	0.636943	1.034184
C73	C	0.479488	0.623004	0.978461
C74	C	0.535814	0.519202	0.916424
C75	C	0.648482	0.429348	0.910118
C76	C	0.648495	0.429328	1.479801
C77	C	0.535832	0.519167	1.582267
C78	C	0.479481	0.622975	1.574636
C79	C	0.535810	0.636944	1.464529
C80	C	0.648480	0.547107	1.362065
C81	C	1.707678	-0.297467	0.398942
C82	C	1.820376	-0.387303	0.296474
C83	C	1.876733	-0.491112	0.304105
C84	C	1.820396	-0.505081	0.414213
C85	C	1.707707	-0.415245	0.516678
C86	C	1.707658	-0.297461	0.968626
C87	C	1.820321	-0.387299	0.962343
C88	C	1.876673	-0.491108	0.900317
C89	C	1.820345	-0.505079	0.844580
C90	C	1.707676	-0.415243	0.850870
C91	C	0.550898	0.114109	1.426374
C92	C	0.438201	0.107808	1.528822
C93	C	0.479415	0.026854	1.574604
C94	C	0.633338	-0.047810	1.517925
C95	C	0.746032	-0.041512	1.415474
C96	C	1.610092	0.173374	0.463291
C97	C	1.722757	0.179700	0.360845
C98	C	1.876684	0.105054	0.304144
C99	C	1.917945	0.024084	0.349901
C100	C	1.805280	0.017763	0.452350
H101	H	0.697332	0.142883	0.862407
Cl102	Cl	1.178057	0.253893	0.330881
Cl103	Cl	1.178097	-0.122029	0.547865
Cl104	Cl	0.866585	0.572875	1.089690
Cl105	Cl	2.111460	-0.069752	0.278601
Cl106	Cl	0.633834	-0.038496	1.043788
Cl107	Cl	1.178073	-0.122012	0.330863
H108	H	0.517311	0.180033	1.389113
Cl109	Cl	1.857179	-0.084039	0.509843
H110	H	1.178062	0.217015	0.526609
H111	H	0.694372	0.558457	1.073262
H112	H	1.428458	0.385906	0.818548
Cl113	Cl	1.636893	-0.432829	0.655080
H114	H	1.428441	0.560338	0.818539
Cl115	Cl	1.636852	-0.166975	0.389318
H116	H	0.489992	0.721455	1.084705
H117	H	0.489980	0.507773	1.671912
H118	H	0.312878	0.168613	1.574958
H119	H	0.387738	0.696117	1.658078
H120	H	0.387746	0.696178	0.983605
Cl121	Cl	0.866579	0.789907	1.089689
Cl122	Cl	0.719256	0.298869	0.832139
Cl123	Cl	0.719323	0.298837	1.489425
Cl124	Cl	0.464951	0.767454	1.454955
Cl125	Cl	0.719257	0.564689	1.223665
H126	H	0.489915	0.507868	0.871058
H127	H	1.866226	-0.375908	0.206831
H128	H	1.968491	-0.564253	0.220663
H129	H	1.866297	-0.589612	0.420412
H130	H	1.866171	-0.375902	1.007730
H131	H	1.661794	-0.212942	1.019133
H132	H	1.866244	-0.589613	0.794078
Cl133	Cl	2.018321	-0.604036	0.892416
Cl134	Cl	1.636906	-0.432827	0.780779
H135	H	0.387637	0.021736	1.658025
H136	H	0.666875	-0.113721	1.555216
Cl137	Cl	0.939516	-0.135381	1.344241
H138	H	1.484764	0.234160	0.509442
H139	H	1.968407	0.110212	0.220723
H140	H	1.689132	0.245634	0.323602
