data_functionalizedCrystal
_audit_creation_method	'MofGen! by Chris Wilmer'
_symmetry_space_group_name_H-M	'P1'
_symmetry_Int_Tables_number	1
_symmetry_cell_setting	triclinic
loop_
_symmetry_equiv_pos_as_xyz
  x,y,z
_cell_length_a	17.077402
_cell_length_b	12.759401
_cell_length_c	17.077396
_cell_angle_alpha	89.984247
_cell_angle_beta	90.030619
_cell_angle_gamma	89.981514
loop_
_atom_site_label
_atom_site_type_symbol
_atom_site_fract_x
_atom_site_fract_y
_atom_site_fract_z
Zn1	Zn	-0.312594	-1.606151	0.443804
Zn2	Zn	-0.443871	-1.606033	0.312535
Zn3	Zn	-0.312613	-1.430466	0.312556
Zn4	Zn	-0.443811	-1.430416	0.443762
O5	O	-0.378222	-1.518266	0.378164
O6	O	-0.330025	-1.753156	0.426400
O7	O	-0.426492	-1.582715	0.202691
O8	O	-0.202763	-1.453841	0.329992
O9	O	-0.426473	-1.753070	0.329957
O10	O	-0.202749	-1.582916	0.426420
O11	O	-0.330057	-1.453727	0.202706
O12	O	-0.330000	-1.283438	0.329951
O13	O	-0.426373	-1.453756	0.553615
O14	O	-0.426391	-1.283402	0.426348
O15	O	-0.329967	-1.582867	0.553646
O16	O	-0.553710	-1.582667	0.329917
O17	O	-0.553666	-1.453642	0.426329
C18	C	-0.378191	-1.245299	0.378148
C19	C	-0.378197	-1.128522	0.378160
C20	C	-0.328078	-0.963969	0.428457
C21	C	-0.328068	-1.073693	0.428454
C22	C	-0.428346	-1.073622	0.327871
C23	C	-0.428360	-0.963900	0.327879
C24	C	-0.582170	-1.518165	0.378133
C25	C	-0.669420	-1.518218	0.378146
C26	C	-0.710406	-1.585470	0.327998
C27	C	-0.792387	-1.585521	0.328018
C28	C	-0.833379	-1.518314	0.378183
C29	C	-0.792387	-1.451059	0.428336
C30	C	-0.710408	-1.451014	0.428319
C31	C	-0.963257	-1.451157	0.428366
C32	C	-1.045241	-1.451200	0.428382
C33	C	-1.045236	-1.585664	0.328065
C34	C	-0.963257	-1.585618	0.328048
C35	C	-0.922270	-1.518362	0.378200
C36	C	-0.173478	-1.518397	0.378213
C37	C	-0.086228	-1.518452	0.378234
C38	C	-0.378161	-1.518319	0.582909
C39	C	-0.378135	-1.518342	0.670159
C40	C	-0.378242	-0.792300	0.378177
C41	C	-0.378221	-0.909076	0.378171
C42	C	-0.378226	-1.518274	0.174217
C43	C	-0.378031	-1.518455	0.086967
C44	C	-0.327916	-1.451198	0.711156
C45	C	-0.327898	-1.451215	0.793136
C46	C	-0.378096	-1.518382	0.834118
C47	C	-0.428321	-1.585529	0.793115
C48	C	-0.428343	-1.585506	0.711136
C49	C	-0.428272	-1.585574	0.963985
C50	C	-0.428250	-1.585599	1.045970
C51	C	-0.327828	-1.451284	1.045986
C52	C	-0.327849	-1.451260	0.964007
C53	C	-0.378073	-1.518409	0.923009
H54	H	-0.469166	-1.118273	0.286923
C55	C	-0.273553	-0.904390	0.482935
C56	C	-0.223175	-0.841407	0.438588
C57	C	-0.172930	-0.786523	0.488748
H58	H	-0.303539	-0.861512	0.517101
H59	H	-0.243644	-0.952768	0.512871
H60	H	-0.253081	-0.793034	0.408665
H61	H	-0.193171	-0.884258	0.404423
H62	H	-0.143021	-0.834901	0.518684
H63	H	-0.202922	-0.743651	0.522912
H64	H	-0.138738	-0.743790	0.458666
H65	H	-0.825755	-1.640284	0.287182
H66	H	-0.469197	-0.919205	0.286929
C67	C	-0.273512	-1.378094	0.666706
C68	C	-0.290605	-1.274139	0.686623
C69	C	-0.240513	-1.206762	0.645686
H70	H	-0.220740	-1.393365	0.680122
H71	H	-0.280722	-1.387625	0.612002
H72	H	-0.283388	-1.264614	0.741314
H73	H	-0.343368	-1.258836	0.673205
H74	H	-0.247723	-1.216293	0.590982
H75	H	-0.187744	-1.222042	0.659105
H76	H	-0.252108	-1.136221	0.659188
H77	H	-0.929881	-1.640338	0.287197
H78	H	-0.677036	-1.640192	0.287145
C79	C	-0.666046	-1.377886	0.482799
C80	C	-0.719490	-1.319020	0.526722
C81	C	-0.678654	-1.251639	0.576915
H82	H	-0.634019	-1.417920	0.517089
H83	H	-0.634127	-1.332057	0.452757
H84	H	-0.751395	-1.364843	0.556762
H85	H	-0.751518	-1.278965	0.492453
H86	H	-0.646735	-1.205810	0.546873
H87	H	-0.646628	-1.291681	0.611200
H88	H	-0.714909	-1.211684	0.606718
C89	C	-1.089873	-1.658781	0.273798
C90	C	-1.170440	-1.644522	0.284609
C91	C	-1.211587	-1.711921	0.234683
H92	H	-1.076633	-1.643630	0.220978
H93	H	-1.076380	-1.729332	0.285430
H94	H	-1.183927	-1.573987	0.272971
H95	H	-1.183703	-1.659681	0.337418
H96	H	-1.198094	-1.782472	0.246314
H97	H	-1.198341	-1.696764	0.181866
H98	H	-1.266256	-1.702262	0.242016
H99	H	-0.825769	-1.396343	0.469184
H100	H	-0.929888	-1.396393	0.469208
C101	C	-0.273317	-1.378225	0.919652
C102	C	-0.229343	-1.319404	0.973099
C103	C	-0.179108	-1.252101	0.932269
H104	H	-0.239061	-1.418314	0.887680
H105	H	-0.303331	-1.332365	0.887678
H106	H	-0.199330	-1.365258	1.005060
H107	H	-0.263578	-1.279293	1.005073
H108	H	-0.209122	-1.206241	0.900294
H109	H	-0.144857	-1.292199	0.900298
H110	H	-0.149271	-1.212176	0.968526
H111	H	-1.078615	-1.396494	0.469245
C112	C	-0.482899	-1.658518	0.666763
C113	C	-0.526844	-1.717364	0.720197
C114	C	-0.577107	-1.784639	0.679351
H115	H	-0.517173	-1.618408	0.634771
H116	H	-0.452907	-1.704363	0.634807
H117	H	-0.556834	-1.671524	0.752139
H118	H	-0.492591	-1.757495	0.752190
H119	H	-0.547115	-1.830485	0.647395
H120	H	-0.611376	-1.744521	0.647360
H121	H	-0.606924	-1.824581	0.715599
H122	H	-0.469126	-1.640293	1.079335
H123	H	-0.286932	-1.396610	1.079370
C124	C	-0.482835	-1.658588	0.919614
C125	C	-0.526778	-1.717436	0.973048
C126	C	-0.577038	-1.784715	0.932201
H127	H	-0.517109	-1.618481	0.887621
H128	H	-0.452840	-1.704433	0.887659
H129	H	-0.556770	-1.671597	1.004988
H130	H	-0.492524	-1.757564	1.005042
H131	H	-0.547044	-1.830560	0.900247
H132	H	-0.611308	-1.744600	0.900210
H133	H	-0.606855	-1.824658	0.968450
H134	H	-0.287007	-1.396536	0.826513
H135	H	-0.469198	-1.640212	0.826489
H136	H	-0.287236	-1.118382	0.469403
