data_functionalizedCrystal
_audit_creation_method	'MofGen! by Chris Wilmer'
_symmetry_space_group_name_H-M	'P1'
_symmetry_Int_Tables_number	1
_symmetry_cell_setting	triclinic
loop_
_symmetry_equiv_pos_as_xyz
  x,y,z
_cell_length_a	23.532407
_cell_length_b	14.586319
_cell_length_c	16.109301
_cell_angle_alpha	90.005214
_cell_angle_beta	96.844921
_cell_angle_gamma	90.001839
loop_
_atom_site_label
_atom_site_type_symbol
_atom_site_fract_x
_atom_site_fract_y
_atom_site_fract_z
O1	O	0.755631	-0.076129	-0.100925
O2	O	1.088964	0.257204	0.232409
O3	O	1.422298	0.590538	0.565742
O4	O	0.589822	-0.076156	-0.115528
O5	O	0.923155	0.257177	0.217806
O6	O	1.256488	0.590510	0.551139
O7	O	0.677281	-0.076132	0.012841
O8	O	1.010615	0.257201	0.346174
O9	O	1.343948	0.590534	0.679507
O10	O	0.668171	-0.076153	-0.229293
O11	O	1.001505	0.257181	0.104040
O12	O	1.334838	0.590514	0.437374
O13	O	0.677275	0.076348	0.012843
O14	O	1.010609	0.409682	0.346176
O15	O	1.343942	0.743015	0.679509
O16	O	0.589816	0.076325	-0.115526
O17	O	0.923149	0.409658	0.217808
O18	O	1.256482	0.742991	0.551141
O19	O	0.755625	0.076352	-0.100923
O20	O	1.088958	0.409685	0.232411
O21	O	1.422292	0.743019	0.565744
Cu22	Cu	0.672720	0.090261	-0.108224
Cu23	Cu	1.006053	0.423594	0.225109
Cu24	Cu	1.339386	0.756928	0.558443
Cu25	Cu	0.672727	-0.090065	-0.108226
Cu26	Cu	1.006060	0.243268	0.225107
Cu27	Cu	1.339394	0.576601	0.558440
O28	O	0.668165	0.076328	-0.229291
O29	O	1.001499	0.409662	0.104042
O30	O	1.334832	0.742995	0.437376
C31	C	0.568601	0.000081	-0.115155
C32	C	0.901935	0.333414	0.218178
C33	C	1.235268	0.666747	0.551512
C34	C	0.505380	0.000071	-0.114037
C35	C	0.838713	0.333404	0.219297
C36	C	1.172047	0.666737	0.552630
N37	N	0.672719	0.217093	-0.108222
N38	N	1.006052	0.550426	0.225111
N39	N	1.339386	0.883759	0.558445
N40	N	0.672732	-0.216897	-0.108222
N41	N	1.006066	0.116436	0.225112
N42	N	1.339399	0.449770	0.558445
C43	C	0.106531	0.000107	-0.182990
C44	C	0.439865	0.333440	0.150343
C45	C	0.773198	0.666773	0.483677
C46	C	0.047127	0.000112	-0.181951
C47	C	0.380461	0.333446	0.151382
C48	C	0.713794	0.666779	0.484715
O49	O	0.010619	0.000140	-0.245872
O50	O	0.343952	0.333474	0.087462
O51	O	0.677285	0.666807	0.420795
N52	N	0.024220	0.000117	-0.105636
N53	N	0.357553	0.333450	0.227697
N54	N	0.690886	0.666784	0.561030
C55	C	0.060719	0.000126	-0.030355
C56	C	0.394053	0.333459	0.302978
C57	C	0.727386	0.666792	0.636311
O58	O	0.035780	0.000131	0.034652
O59	O	0.369113	0.333464	0.367985
O60	O	0.702447	0.666798	0.701319
C61	C	0.120122	0.000126	-0.031395
C62	C	0.453456	0.333460	0.301939
C63	C	0.786789	0.666793	0.635272
C64	C	0.143027	0.000112	-0.107715
C65	C	0.476360	0.333446	0.225619
C66	C	0.809693	0.666779	0.558952
C67	C	0.129436	0.000093	-0.259304
C68	C	0.462769	0.333427	0.074030
C69	C	0.796103	0.666760	0.407363
C70	C	0.188836	0.000086	-0.260342
C71	C	0.522169	0.333419	0.072991
C72	C	0.855503	0.666753	0.406325
C73	C	0.225331	0.000092	-0.185066
C74	C	0.558665	0.333425	0.148267
C75	C	0.891998	0.666758	0.481600
C76	C	0.202427	0.000105	-0.108753
C77	C	0.535760	0.333438	0.224581
C78	C	0.869093	0.666771	0.557914
C79	C	0.156621	0.000141	0.043886
C80	C	0.489954	0.333475	0.377219
C81	C	0.823288	0.666808	0.710552
C82	C	0.216027	0.000143	0.042840
C83	C	0.549361	0.333476	0.376173
C84	C	0.882694	0.666810	0.709506
C85	C	0.238932	0.000129	-0.033480
C86	C	0.572265	0.333462	0.299853
C87	C	0.905598	0.666795	0.633186
C88	C	0.298322	0.000103	-0.034516
C89	C	0.631655	0.333436	0.298818
C90	C	0.964988	0.666770	0.632151
N91	N	0.321229	0.000098	-0.110831
N92	N	0.654563	0.333432	0.222503
N93	N	0.987896	0.666765	0.555836
C94	C	0.284734	0.000093	-0.186106
C95	C	0.618068	0.333426	0.147227
C96	C	0.951401	0.666759	0.480561
C97	C	-0.064031	0.000125	-0.028178
C98	C	0.269302	0.333459	0.305155
C99	C	0.602635	0.666792	0.638489
C100	C	-0.123433	0.000118	-0.027138
C101	C	0.209900	0.333451	0.306196
C102	C	0.543234	0.666785	0.639529
C103	C	-0.137021	0.000106	-0.178734
C104	C	0.196312	0.333440	0.154599
C105	C	0.529646	0.666773	0.487933
C106	C	-0.077618	0.000107	-0.179774
C107	C	0.255715	0.333440	0.153560
C108	C	0.589049	0.666774	0.486893
C109	C	-0.041123	0.000120	-0.104493
C110	C	0.292210	0.333454	0.228840
C111	C	0.625543	0.666787	0.562174
C112	C	0.409479	0.000076	-0.188281
C113	C	0.742812	0.333410	0.145053
C114	C	1.076146	0.666743	0.478386
C115	C	0.468885	0.000065	-0.189312
C116	C	0.802218	0.333398	0.144021
C117	C	1.135552	0.666732	0.477354
C118	C	0.482468	0.000081	-0.037716
C119	C	0.815801	0.333415	0.295617
C120	C	1.149134	0.666748	0.628950
C121	C	0.423067	0.000088	-0.036684
C122	C	0.756400	0.333421	0.296649
C123	C	1.089734	0.666754	0.629983
C124	C	0.386574	0.000088	-0.111973
C125	C	0.719907	0.333422	0.221360
C126	C	1.053240	0.666755	0.554694
O127	O	0.334865	0.000079	0.029371
O128	O	0.668198	0.333412	0.362704
O129	O	1.001532	0.666746	0.696038
O130	O	0.309682	0.000099	-0.251102
O131	O	0.643015	0.333432	0.082231
O132	O	0.976349	0.666766	0.415564
C133	C	0.776846	0.000113	-0.101295
C134	C	1.110179	0.333446	0.232038
C135	C	1.443512	0.666780	0.565371
C136	C	0.840067	0.000117	-0.102414
C137	C	1.173400	0.333450	0.230920
C138	C	1.506733	0.666784	0.564253
C139	C	0.676909	0.000108	0.043814
C140	C	1.010243	0.333442	0.377147
C141	C	1.343576	0.666775	0.710480
C142	C	0.675803	0.000110	0.136100
C143	C	1.009136	0.333443	0.469434
C144	C	1.342470	0.666776	0.802767
C145	C	0.711459	0.452110	-0.051399
C146	C	1.044792	0.785443	0.281934
C147	C	1.378125	1.118776	0.615267
C148	C	0.711460	0.548091	-0.051397
C149	C	1.044794	0.881424	0.281936
C150	C	1.378127	1.214758	0.615269
C151	C	0.633988	0.548079	-0.165047
C152	C	0.967322	0.881413	0.168286
C153	C	1.300655	1.214746	0.501620
C154	C	0.633984	0.452100	-0.165045
C155	C	0.967318	0.785433	0.168289
C156	C	1.300651	1.118767	0.501622
C157	C	0.672723	0.404117	-0.108222
C158	C	1.006056	0.737451	0.225112
C159	C	1.339389	1.070784	0.558445
C160	C	0.672728	0.596078	-0.108222
C161	C	1.006062	0.929412	0.225111
C162	C	1.339395	1.262745	0.558445
C163	C	0.672730	0.700145	-0.108220
C164	C	1.006063	1.033479	0.225113
C165	C	1.339397	1.366812	0.558446
C166	C	0.672721	0.300044	-0.108222
C167	C	1.006054	0.633377	0.225111
C168	C	1.339387	0.966710	0.558445
C169	C	0.668537	0.000085	-0.260264
C170	C	1.001871	0.333419	0.073069
C171	C	1.335204	0.666752	0.406403
C172	C	0.669644	0.000078	-0.352551
C173	C	1.002977	0.333412	-0.019217
C174	C	1.336310	0.666745	0.314116
C175	C	0.725127	0.000103	0.358760
C176	C	1.058461	0.333436	0.692094
C177	C	1.391794	0.666770	1.025427
C178	C	0.724083	0.000095	0.445473
C179	C	1.057417	0.333429	0.778806
C180	C	1.390750	0.666762	1.112139
C181	C	0.620315	0.000082	0.424782
C182	C	0.953649	0.333415	0.758116
C183	C	1.286982	0.666749	1.091449
C184	C	0.621360	0.000083	0.338072
C185	C	0.954693	0.333416	0.671405
C186	C	1.288027	0.666750	1.004739
C187	C	0.673768	0.000098	0.305063
C188	C	1.007101	0.333432	0.638397
C189	C	1.340434	0.666765	0.971730
C190	C	0.671679	0.000089	0.478486
C191	C	1.005012	0.333423	0.811820
C192	C	1.338346	0.666756	1.145153
C193	C	0.670547	0.000081	0.572503
C194	C	1.003880	0.333414	0.905837
C195	C	1.337213	0.666748	1.239170
C196	C	0.674900	0.000105	0.211040
C197	C	1.008234	0.333438	0.544374
C198	C	1.341567	0.666772	0.877707
H199	H	0.487530	0.000053	-0.251464
H200	H	0.820863	0.333386	0.081870
H201	H	1.154196	0.666720	0.415203
F202	F	-0.147802	0.000112	0.054092
F203	F	0.185531	0.333446	0.387426
F204	F	0.518864	0.666779	0.720759
F205	F	0.370648	0.000077	-0.268412
F206	F	0.703981	0.333411	0.064921
F207	F	1.037315	0.666744	0.398255
H208	H	0.579534	0.000076	0.294349
H209	H	0.912867	0.333410	0.627682
H210	H	1.246201	0.666743	0.961016
F211	F	-0.025195	0.000131	0.051952
F212	F	0.308138	0.333464	0.385285
F213	F	0.641472	0.666797	0.718618
H214	H	-0.058974	0.000101	-0.241920
H215	H	0.274359	0.333434	0.091413
H216	H	0.607693	0.666767	0.424747
H217	H	0.765906	0.000097	0.489190
H218	H	1.099239	0.333431	0.822523
H219	H	1.432572	0.666764	1.155857
H220	H	0.137983	0.000154	0.106033
H221	H	0.471317	0.333487	0.439367
H222	H	0.804650	0.666820	0.772700
H223	H	0.245739	0.000154	0.104144
H224	H	0.579073	0.333488	0.437477
H225	H	0.912406	0.666821	0.770811
H226	H	0.577647	0.000071	0.451669
H227	H	0.910980	0.333405	0.785002
H228	H	1.244314	0.666738	1.118335
H229	H	0.207479	0.000074	-0.322489
H230	H	0.540812	0.333407	0.010844
H231	H	0.874145	0.666741	0.344177
F232	F	0.752687	0.599165	0.009082
F233	F	1.086021	0.932498	0.342415
F234	F	1.419354	1.265831	0.675749
H235	H	0.602438	0.413022	-0.211316
H236	H	0.935771	0.746355	0.122017
H237	H	1.269105	1.079689	0.455350
H238	H	-0.166747	0.000106	-0.240027
H239	H	0.166587	0.333439	0.093306
H240	H	0.499920	0.666773	0.426639
F241	F	0.090603	0.000087	-0.339430
F242	F	0.423936	0.333421	-0.006096
F243	F	0.757270	0.666754	0.327237
F244	F	0.780904	0.000118	0.323633
F245	F	1.114237	0.333452	0.656967
F246	F	1.447571	0.666785	0.990300
F247	F	0.592763	0.599152	-0.225521
F248	F	0.926097	0.932485	0.107812
F249	F	1.259430	1.265818	0.441145
H250	H	0.512193	0.000083	0.023571
H251	H	0.845526	0.333416	0.356904
H252	H	1.178859	0.666749	0.690238
F253	F	0.752686	0.401047	0.009079
F254	F	1.086020	0.734380	0.342412
F255	F	1.419353	1.067714	0.675746
F256	F	0.398690	0.000103	0.044543
F257	F	0.732023	0.333437	0.377877
F258	F	1.065357	0.666770	0.711210
