data_functionalizedCrystal
_audit_creation_method	'MofGen! by Chris Wilmer'
_symmetry_space_group_name_H-M	'P1'
_symmetry_Int_Tables_number	1
_symmetry_cell_setting	triclinic
loop_
_symmetry_equiv_pos_as_xyz
  x,y,z
_cell_length_a	14.853567
_cell_length_b	15.995292
_cell_length_c	13.330367
_cell_angle_alpha	89.998548
_cell_angle_beta	89.995418
_cell_angle_gamma	83.551773
loop_
_atom_site_label
_atom_site_type_symbol
_atom_site_fract_x
_atom_site_fract_y
_atom_site_fract_z
O1	O	1.196197	0.109320	-0.083347
O2	O	0.933717	0.122343	-0.083363
O3	O	1.072159	-0.006051	-0.083356
O4	O	1.057755	0.237714	-0.083354
O5	O	1.072139	-0.006054	0.083491
O6	O	0.933697	0.122340	0.083484
O7	O	1.196177	0.109317	0.083500
Cu8	Cu	1.064935	0.115828	0.098726
Cu9	Cu	1.064959	0.115831	-0.098590
O10	O	1.057734	0.237711	0.083493
C11	C	0.900119	0.121751	0.000058
C12	C	0.800038	0.119983	0.000051
C13	C	0.387636	0.036239	0.000073
C14	C	0.366115	0.188774	0.000074
C15	C	0.460146	0.190437	0.000070
C16	C	0.517927	0.115000	0.000067
C17	C	0.481676	0.037900	0.000067
C18	C	0.496404	0.267535	0.000060
C19	C	0.590441	0.269201	0.000056
C20	C	0.648223	0.193763	0.000060
C21	C	0.611967	0.116660	0.000061
C22	C	0.669747	0.041223	0.000058
C23	C	0.633493	-0.035881	0.000066
C24	C	0.539459	-0.037539	0.000071
C25	C	0.742258	0.195420	0.000055
C26	C	0.763788	0.042883	0.000051
C27	C	1.071563	-0.037249	0.000065
C28	C	1.069805	-0.130204	0.000057
C29	C	1.063344	-0.467950	0.000066
C30	C	1.163268	-0.444522	0.000445
C31	C	1.165167	-0.347844	0.000065
C32	C	1.066550	-0.300390	0.000062
C33	C	1.016604	-0.329548	-0.095216
C34	C	1.015401	-0.426340	-0.095292
C35	C	1.013338	-0.426203	0.094444
C36	C	1.017041	-0.329706	0.095700
C37	C	1.068357	-0.205692	0.000057
C38	C	1.061534	-0.562648	0.000065
C39	C	1.229775	0.109908	0.000077
C40	C	1.329856	0.111677	0.000076
C41	C	1.058331	0.268909	0.000070
C42	C	1.060088	0.361864	0.000071
N43	N	1.064925	0.115825	0.237508
N44	N	1.064976	0.115828	-0.237371
C45	C	1.003654	0.172662	0.710128
C46	C	1.126288	0.058994	0.710102
C47	C	1.126278	0.058992	0.605084
C48	C	1.064956	0.115826	0.552582
C49	C	1.003644	0.172663	0.605100
C50	C	1.187595	0.002162	0.552559
C51	C	1.187588	0.002158	0.447534
C52	C	1.126260	0.058988	0.395031
C53	C	1.064945	0.115827	0.447554
C54	C	1.003623	0.172661	0.395053
C55	C	0.942303	0.229496	0.447575
C56	C	0.942316	0.229494	0.552596
C57	C	1.126247	0.058991	0.290009
C58	C	1.003613	0.172662	0.290025
H59	H	0.358114	-0.026537	0.000084
N60	N	0.941008	0.230702	0.763772
N61	N	0.885060	0.204033	0.822380
H62	H	0.840814	0.245023	0.860268
N63	N	1.188863	0.000943	0.236345
N64	N	1.188843	0.000947	0.142576
H65	H	1.233067	-0.040054	0.104673
H66	H	0.449353	0.328952	0.000053
N67	N	0.692506	-0.112944	0.000075
N68	N	0.660133	-0.181780	0.000089
H69	H	0.701813	-0.236205	0.000097
N70	N	0.925576	-0.289659	-0.099686
N71	N	0.900196	-0.244298	-0.173007
H72	H	0.835908	-0.216122	-0.176164
H73	H	1.237517	-0.044121	0.404777
H74	H	0.892392	0.275767	0.595366
H75	H	0.509931	-0.100312	0.000101
N76	N	1.052592	-0.461582	0.185053
N77	N	1.021588	-0.436069	0.268118
H78	H	1.049320	-0.461055	0.332108
H79	H	0.953673	0.218940	0.247285
N80	N	0.822793	-0.034185	0.000061
N81	N	0.790409	-0.103015	0.000073
H82	H	0.832080	-0.157445	0.000082
H83	H	0.319065	0.250192	0.000068
N84	N	0.627484	0.347949	0.000072
N85	N	0.711444	0.349424	0.000079
H86	H	0.737609	0.405040	0.000095
H87	H	1.050008	-0.453115	-0.166512
H88	H	0.771772	0.258197	0.000050
H89	H	1.204284	-0.328774	0.068363
H90	H	1.053409	-0.311099	0.166186
H91	H	1.201775	-0.472475	0.068773
H92	H	1.201577	-0.473494	-0.067495
H93	H	1.204531	-0.329392	-0.068348
N94	N	1.250229	-0.055900	0.606169
N95	N	1.304970	-0.106640	0.559268
H96	H	1.349207	-0.147651	0.597133
H97	H	1.051304	-0.309446	-0.166119
N98	N	0.923491	-0.444693	-0.100710
N99	N	0.860439	-0.386038	-0.104430
H100	H	0.795527	-0.398996	-0.108256
H101	H	0.945060	-0.296820	0.101452
N102	N	0.921070	-0.443862	0.095236
N103	N	0.892159	-0.486992	0.026667
H104	H	0.826997	-0.499468	0.027217
H105	H	1.176219	0.012726	0.752852
N106	N	0.879679	0.287551	0.393926
N107	N	0.879693	0.287544	0.300157
H108	H	0.835468	0.328545	0.262262
