data_functionalizedCrystal
_audit_creation_method	'MofGen! by Chris Wilmer'
_symmetry_space_group_name_H-M	'P1'
_symmetry_Int_Tables_number	1
_symmetry_cell_setting	triclinic
loop_
_symmetry_equiv_pos_as_xyz
  x,y,z
_cell_length_a	19.288864
_cell_length_b	9.065218
_cell_length_c	18.366186
_cell_angle_alpha	89.995673
_cell_angle_beta	89.977106
_cell_angle_gamma	84.076066
loop_
_atom_site_label
_atom_site_type_symbol
_atom_site_fract_x
_atom_site_fract_y
_atom_site_fract_z
O1	O	0.922782	0.184031	-0.060781
O2	O	0.720714	0.208857	-0.060731
O3	O	0.825924	-0.018345	-0.060755
O4	O	0.817571	0.411233	-0.060756
O5	O	0.825906	-0.018356	0.060344
O6	O	0.720696	0.208846	0.060369
O7	O	0.922763	0.184020	0.060319
Zn8	Zn	0.821727	0.196431	0.079571
Zn9	Zn	0.821751	0.196446	-0.079983
O10	O	0.817553	0.411222	0.060343
C11	C	0.694822	0.208053	-0.000174
C12	C	0.617700	0.205655	-0.000155
C13	C	0.825112	-0.073309	-0.000206
C14	C	0.822712	-0.237067	-0.000209
C15	C	0.574039	0.338966	-0.000167
C16	C	0.501574	0.336713	-0.000175
C17	C	0.472774	0.201142	-0.000186
C18	C	0.516445	0.067812	-0.000170
C19	C	0.588908	0.070069	-0.000155
C20	C	0.363691	0.094571	-0.042637
C21	C	0.291229	0.092320	-0.042657
C22	C	0.249274	0.194176	-0.000230
C23	C	0.279789	0.298308	0.042207
C24	C	0.352252	0.300565	0.042222
C25	C	0.394201	0.198680	-0.000202
C26	C	0.127038	0.325054	-0.000250
C27	C	0.054572	0.322796	-0.000253
C28	C	0.069445	0.053891	-0.000256
C29	C	0.141909	0.056153	-0.000245
C30	C	0.170701	0.191739	-0.000245
C31	C	0.948655	0.184825	-0.000239
C32	C	1.025777	0.187223	-0.000263
C33	C	0.818365	0.466186	-0.000207
C34	C	0.820765	0.629945	-0.000209
N35	N	0.821715	0.196420	0.188462
N36	N	0.821767	0.196445	-0.188874
C37	C	0.868318	0.095865	0.226552
C38	C	0.868323	0.095858	0.302779
C39	C	0.821731	0.196433	0.340915
C40	C	0.775119	0.296996	0.302816
C41	C	0.775111	0.296990	0.226590
C42	C	0.813476	0.330848	0.461676
C43	C	0.813489	0.330856	0.537901
C44	C	0.821751	0.196451	0.576022
C45	C	0.830015	0.062032	0.537909
C46	C	0.830007	0.062026	0.461683
C47	C	0.821734	0.196450	0.423570
C48	C	0.868361	0.095880	0.696767
C49	C	0.868361	0.095871	0.772996
C50	C	0.775160	0.297022	0.773031
C51	C	0.775157	0.297018	0.696803
C52	C	0.821761	0.196448	0.658676
H53	H	0.466018	0.445275	-0.000183
H54	H	0.266389	0.007535	-0.077214
N55	N	0.485384	-0.078410	-0.000190
H56	H	0.524043	-0.162525	-0.000180
H57	H	0.455615	-0.085208	0.044695
N58	N	0.804570	0.475829	0.579004
H59	H	0.846808	0.484378	0.610607
H60	H	0.799304	0.560883	0.543242
N61	N	0.804566	0.475823	0.420563
H62	H	0.799340	0.560974	0.456272
H63	H	0.846812	0.484198	0.388915
N64	N	0.605099	0.485191	-0.000155
H65	H	0.634860	0.492122	-0.045039
H66	H	0.566405	0.569225	-0.000134
H67	H	0.737182	0.378883	0.333870
N68	N	0.007457	0.466562	-0.000257
H69	H	-0.022957	0.471581	0.044634
H70	H	0.036724	0.552739	-0.000281
N71	N	0.385167	0.412861	0.087992
H72	H	0.347598	0.477050	0.114869
H73	H	0.418213	0.359500	0.124235
N74	N	0.838930	-0.082948	0.579013
H75	H	0.837678	-0.062555	0.633085
H76	H	0.799932	-0.144179	0.565710
H77	H	0.245631	0.381248	0.076755
H78	H	0.045997	-0.056494	-0.000310
N79	N	0.918580	-0.012612	0.185432
H80	H	0.891630	-0.077794	0.153823
H81	H	0.949668	0.043706	0.153828
N82	N	0.189006	-0.087634	-0.000232
H83	H	0.159768	-0.173863	-0.000239
H84	H	0.219423	-0.092555	-0.045117
H85	H	0.737160	0.378875	0.195577
H86	H	0.906307	0.013986	0.665722
N87	N	0.158099	0.471283	-0.000246
H88	H	0.119441	0.555397	-0.000249
H89	H	0.187819	0.478069	0.044651
H90	H	0.624457	-0.038493	-0.000146
N91	N	0.408939	-0.015299	-0.088397
H92	H	0.378614	-0.081597	-0.115287
H93	H	0.436023	0.039928	-0.124628
H94	H	0.906274	0.013971	0.333798
N95	N	0.838917	-0.082940	0.420574
H96	H	0.844153	-0.168091	0.456284
H97	H	0.796666	-0.091324	0.388970
H98	H	0.906308	0.013979	0.804009
H99	H	0.737221	0.378906	0.804081
H100	H	0.737211	0.378905	0.665789
