data_functionalizedCrystal
_audit_creation_method	'MofGen! by Chris Wilmer'
_symmetry_space_group_name_H-M	'P1'
_symmetry_Int_Tables_number	1
_symmetry_cell_setting	triclinic
loop_
_symmetry_equiv_pos_as_xyz
  x,y,z
_cell_length_a	17.077404
_cell_length_b	13.897447
_cell_length_c	17.077396
_cell_angle_alpha	89.972301
_cell_angle_beta	89.980997
_cell_angle_gamma	90.017777
loop_
_atom_site_label
_atom_site_type_symbol
_atom_site_fract_x
_atom_site_fract_y
_atom_site_fract_z
Zn1	Zn	1.200054	-0.384045	-0.443896
Zn2	Zn	1.700054	0.115955	0.056104
Zn3	Zn	1.199974	-0.545362	-0.312636
Zn4	Zn	1.699974	-0.045362	0.187364
Zn5	Zn	1.068791	-0.384078	-0.312640
Zn6	Zn	1.568791	0.115922	0.187360
Zn7	Zn	1.068762	-0.545295	-0.443855
Zn8	Zn	1.568762	-0.045295	0.056145
O9	O	1.134395	-0.464695	-0.378257
O10	O	1.634395	0.035305	0.121743
O11	O	1.309890	-0.405458	-0.426500
O12	O	1.809890	0.094542	0.073500
O13	O	1.182552	-0.524009	-0.202789
O14	O	1.682552	-0.024009	0.297211
O15	O	1.086250	-0.249092	-0.330070
O16	O	1.586250	0.250908	0.169930
O17	O	1.309832	-0.523977	-0.330064
O18	O	1.809832	-0.023977	0.169936
O19	O	1.182688	-0.249067	-0.426504
O20	O	1.682688	0.250933	0.073496
O21	O	1.086172	-0.405514	-0.202792
O22	O	1.586172	0.094486	0.297208
O23	O	0.958941	-0.405449	-0.330030
O24	O	1.458941	0.094551	0.169970
O25	O	1.086199	-0.523862	-0.553707
O26	O	1.586199	-0.023862	-0.053707
O27	O	0.958919	-0.523894	-0.426433
O28	O	1.458919	-0.023894	0.073567
O29	O	1.182659	-0.405393	-0.553738
O30	O	1.682659	0.094607	-0.053738
O31	O	1.182523	-0.680335	-0.330023
O32	O	1.682523	-0.180335	0.169977
O33	O	1.086121	-0.680285	-0.426429
O34	O	1.586121	-0.180285	0.073571
C35	C	0.930447	-0.464669	-0.378228
C36	C	1.430447	0.035331	0.121772
C37	C	0.843198	-0.464681	-0.378235
C38	C	1.343198	0.035319	0.121765
C39	C	0.467411	-0.403119	-0.428580
C40	C	0.967411	0.096881	0.071420
C41	C	0.549391	-0.403112	-0.428571
C42	C	1.049391	0.096888	0.071429
C43	C	0.590349	-0.464715	-0.378277
C44	C	1.090349	0.035285	0.121723
C45	C	0.549322	-0.526336	-0.327993
C46	C	1.049322	-0.026336	0.172007
C47	C	0.467343	-0.526347	-0.328006
C48	C	0.967343	-0.026347	0.171994
C49	C	0.720192	-0.526306	-0.327967
C50	C	1.220192	-0.026306	0.172033
C51	C	0.802176	-0.526294	-0.327953
C52	C	1.302176	-0.026294	0.172047
C53	C	0.802240	-0.403072	-0.428533
C54	C	1.302240	0.096928	0.071467
C55	C	0.720261	-0.403083	-0.428546
C56	C	1.220261	0.096917	0.071454
C57	C	0.679240	-0.464703	-0.378261
C58	C	1.179240	0.035297	0.121739
C59	C	1.134332	-0.715309	-0.378239
C60	C	1.634332	-0.215309	0.121761
C61	C	1.134376	-0.822523	-0.378257
C62	C	1.634376	-0.322523	0.121743
C63	C	1.134414	-0.909593	-0.378275
C64	C	1.634414	-0.409593	0.121725
C65	C	1.134469	-1.018825	-0.378295
C66	C	1.634469	-0.518825	0.121705
C67	C	1.339140	-0.464722	-0.378286
C68	C	1.839140	0.035278	0.121714
C69	C	1.426389	-0.464733	-0.378298
C70	C	1.926389	0.035267	0.121702
C71	C	1.134434	-0.464617	-0.583001
C72	C	1.634434	0.035383	-0.083001
C73	C	1.134451	-0.464583	-0.670251
C74	C	1.634451	0.035417	-0.170251
C75	C	1.134481	-0.213102	-0.378292
C76	C	1.634481	0.286898	0.121708
C77	C	1.134517	-0.105888	-0.378307
C78	C	1.634517	0.394112	0.121693
C79	C	1.184707	-0.526171	-1.046066
C80	C	1.684707	-0.026171	-0.546066
C81	C	1.184687	-0.526199	-0.964086
C82	C	1.684687	-0.026199	-0.464086
C83	C	1.134501	-0.464515	-0.923100
C84	C	1.634501	0.035485	-0.423100
C85	C	1.084326	-0.402806	-0.964099
C86	C	1.584326	0.097194	-0.464099
C87	C	1.084343	-0.402783	-1.046078
C88	C	1.584343	0.097217	-0.546078
C89	C	1.084297	-0.402855	-0.793229
C90	C	1.584297	0.097145	-0.293229
C91	C	1.084281	-0.402877	-0.711244
C92	C	1.584281	0.097123	-0.211244
C93	C	1.184641	-0.526272	-0.711237
C94	C	1.684641	-0.026272	-0.211237
C95	C	1.184658	-0.526249	-0.793216
C96	C	1.684658	-0.026249	-0.293216
C97	C	1.134484	-0.464538	-0.834209
C98	C	1.634484	0.035462	-0.334209
C99	C	1.134402	-0.464703	-0.174309
C100	C	1.634402	0.035297	0.325691
C101	C	1.134537	-0.464464	-0.087060
C102	C	1.634537	0.035536	0.412940
H103	H	0.686916	-0.352917	-0.469497
H104	H	1.186916	0.147083	0.030503
C105	C	0.847360	-0.335302	-0.483854
C106	C	1.347360	0.164698	0.016146
H107	H	0.902050	-0.344126	-0.476652
H108	H	1.402050	0.155874	0.023348
H109	H	0.833934	-0.270474	-0.472464
H110	H	1.333934	0.229526	0.027536
H111	H	0.833943	-0.349512	-0.536578
H112	H	1.333943	0.150488	-0.036578
H113	H	0.835522	-0.576459	-0.287001
H114	H	1.335522	-0.076459	0.212999
H115	H	0.686794	-0.576488	-0.287023
H116	H	1.186794	-0.076488	0.212977
C117	C	1.239912	-0.594021	-1.091148
C118	C	1.739912	-0.094021	-0.591148
H119	H	1.232743	-0.585166	-1.145843
H120	H	1.732743	-0.085166	-0.645843
H121	H	1.228398	-0.658833	-1.077698
H122	H	1.728398	-0.158833	-0.577698
H123	H	1.292659	-0.579911	-1.077721
H124	H	1.792659	-0.079911	-0.577721
C125	C	1.029109	-0.334972	-0.838320
C126	C	1.529109	0.165028	-0.338320
H127	H	0.999224	-0.298230	-0.802170
H128	H	1.499224	0.201770	-0.302170
H129	H	0.994898	-0.371850	-0.870290
H130	H	1.494898	0.128150	-0.370290
H131	H	1.059168	-0.292938	-0.870310
H132	H	1.559168	0.207062	-0.370310
H133	H	1.043461	-0.352586	-0.930722
H134	H	1.543461	0.147414	-0.430722
H135	H	0.582676	-0.576497	-0.287045
H136	H	1.082676	-0.076497	0.212955
C137	C	1.029159	-0.334903	-1.091170
C138	C	1.529159	0.165097	-0.591170
H139	H	0.999273	-0.298162	-1.055021
H140	H	1.499273	0.201838	-0.555021
H141	H	0.994950	-0.371785	-1.123138
H142	H	1.494950	0.128215	-0.623138
H143	H	1.059214	-0.292868	-1.123162
H144	H	1.559214	0.207132	-0.623162
C145	C	0.594512	-0.335329	-0.483875
C146	C	1.094512	0.164671	0.016125
H147	H	0.558378	-0.298633	-0.513822
H148	H	1.058378	0.201367	-0.013822
H149	H	0.626504	-0.372269	-0.518023
H150	H	1.126504	0.127731	-0.018023
H151	H	0.626482	-0.293250	-0.453893
H152	H	1.126482	0.206750	0.046107
C153	C	0.422219	-0.594120	-0.272694
C154	C	0.922219	-0.094120	0.227306
H155	H	0.458352	-0.630801	-0.242733
H156	H	0.958352	-0.130801	0.257267
H157	H	0.390247	-0.636199	-0.302667
H158	H	0.890247	-0.136199	0.197333
H159	H	0.390229	-0.557166	-0.238547
H160	H	0.890229	-0.057166	0.261453
H161	H	1.225530	-0.576459	-0.930713
H162	H	1.725530	-0.076459	-0.430713
C163	C	1.239858	-0.594102	-0.838299
C164	C	1.739858	-0.094102	-0.338299
H165	H	1.269732	-0.630866	-0.802145
H166	H	1.769732	-0.130866	-0.302145
H167	H	1.274079	-0.557204	-0.870294
H168	H	1.774079	-0.057204	-0.370294
H169	H	1.209811	-0.636117	-0.870263
H170	H	1.709811	-0.136117	-0.370263
H171	H	1.225495	-0.576519	-0.677856
H172	H	1.725495	-0.076519	-0.177856
H173	H	0.434069	-0.352949	-0.469531
H174	H	0.934069	0.147051	0.030469
H175	H	1.043418	-0.352645	-0.677876
H176	H	1.543418	0.147355	-0.177876
