data_functionalizedCrystal
_audit_creation_method	'MofGen! by Chris Wilmer'
_symmetry_space_group_name_H-M	'P1'
_symmetry_Int_Tables_number	1
_symmetry_cell_setting	triclinic
loop_
_symmetry_equiv_pos_as_xyz
  x,y,z
_cell_length_a	27.732048
_cell_length_b	14.519710
_cell_length_c	12.996460
_cell_angle_alpha	90.004639
_cell_angle_beta	90.011092
_cell_angle_gamma	83.161400
loop_
_atom_site_label
_atom_site_type_symbol
_atom_site_fract_x
_atom_site_fract_y
_atom_site_fract_z
O1	O	0.063362	1.222766	0.085556
O2	O	0.070824	0.954160	0.085564
O3	O	-0.003264	1.096805	0.085540
O4	O	0.137450	1.080121	0.085580
O5	O	-0.003268	1.096791	-0.085594
O6	O	0.070820	0.954145	-0.085569
O7	O	0.063358	1.222752	-0.085578
Cu8	Cu	0.067089	1.088447	-0.101200
Cu9	Cu	0.067093	1.088464	0.101186
O10	O	0.137446	1.080106	-0.085554
C11	C	-0.021274	1.096448	-0.000029
C12	C	-0.074934	1.095393	-0.000038
C13	C	0.070474	0.919799	-0.000002
C14	C	0.069432	0.817435	0.000001
C15	C	0.063708	1.257113	-0.000009
C16	C	0.064750	1.359476	-0.000005
C17	C	-0.413378	1.173048	0.000013
C18	C	-0.615057	1.169135	0.000027
O19	O	-0.645973	1.240145	0.000070
N20	N	-0.634585	1.084552	0.000029
C21	C	-0.603690	1.000941	0.000033
O22	O	-0.624927	0.928909	0.000046
C23	C	-0.402012	1.004855	0.000026
C24	C	-0.382487	1.089444	0.000014
C25	C	-0.393853	1.257630	0.000002
C26	C	-0.343436	1.258607	-0.000008
C27	C	-0.312545	1.175003	-0.000006
C28	C	-0.332071	1.090421	0.000005
C29	C	-0.371118	0.921246	0.000039
C30	C	-0.320696	0.922232	0.000039
C31	C	-0.301171	1.006820	0.000027
C32	C	-0.250763	1.007794	-0.000002
N33	N	-0.231235	1.092377	-0.000004
C34	C	-0.262126	1.175981	-0.000006
C35	C	-0.709573	0.998893	0.000035
C36	C	-0.759993	0.997914	0.000035
C37	C	-0.771356	1.166108	0.000031
C38	C	-0.720936	1.167086	0.000023
C39	C	-0.690045	1.083476	0.000034
C40	C	-0.156247	1.178028	-0.000026
C41	C	-0.105825	1.178997	-0.000040
C42	C	-0.094466	1.010804	-0.000030
C43	C	-0.144883	1.009833	-0.000022
C44	C	-0.175773	1.093453	-0.000016
O45	O	-0.219818	0.936822	-0.000034
O46	O	-0.240879	1.248004	0.000005
C47	C	-0.463795	1.172071	0.000022
C48	C	-0.483320	1.087489	0.000033
C49	C	-0.452429	1.003885	0.000034
C50	C	-0.533740	1.086510	0.000033
C51	C	-0.564631	1.170115	0.000031
C52	C	-0.545103	1.254698	0.000029
C53	C	-0.494686	1.255675	0.000020
C54	C	-0.471957	0.919302	0.000036
C55	C	-0.522375	0.918331	0.000044
C56	C	-0.553266	1.001936	0.000042
C57	C	0.155456	1.080464	0.000018
C58	C	0.209116	1.081518	0.000033
N59	N	0.067085	1.088442	-0.243547
C60	C	0.068586	1.734305	-0.000003
C61	C	0.067521	1.630016	-0.000004
C62	C	0.066668	1.546894	-0.000003
C63	C	0.065603	1.442598	-0.000005
C64	C	0.067094	1.088463	-0.663361
C65	C	0.067093	1.088454	-0.546556
C66	C	0.067090	1.088453	-0.453457
C67	C	0.067088	1.088443	-0.336645
N68	N	0.067093	1.088477	0.243533
H69	H	-0.089931	1.247882	-0.000052
C70	C	-0.392590	0.828199	0.000049
C71	C	-0.425680	0.804400	0.088916
C72	C	-0.447152	0.711348	0.088924
C73	C	-0.435535	0.642095	0.000065
C74	C	-0.402443	0.665892	-0.088809
C75	C	-0.380971	0.758944	-0.088817
H76	H	-0.434281	0.855667	0.154701
H77	H	-0.471649	0.693733	0.154714
H78	H	-0.451430	0.573213	0.000071
H79	H	-0.393842	0.614625	-0.154593
H80	H	-0.356474	0.776559	-0.154607
C81	C	-0.781468	0.904866	0.000034
C82	C	-0.814558	0.881066	0.088899
C83	C	-0.836031	0.788015	0.088903
C84	C	-0.824414	0.718765	0.000041
C85	C	-0.791322	0.742563	-0.088831
C86	C	-0.769849	0.835614	-0.088835
H87	H	-0.823159	0.932331	0.154685
H88	H	-0.860528	0.770398	0.154692
H89	H	-0.840309	0.649883	0.000044
H90	H	-0.782720	0.691298	-0.154617
H91	H	-0.745352	0.853230	-0.154624
C92	C	-0.060481	0.918841	-0.000020
C93	C	-0.062727	0.849307	-0.088871
C94	C	-0.028741	0.757343	-0.088850
C95	C	0.007491	0.734913	0.000022
C96	C	0.009738	0.804448	0.088880
C97	C	-0.024248	0.896412	0.088859
H98	H	-0.089549	0.865910	-0.154665
H99	H	-0.030404	0.705869	-0.154629
H100	H	0.032649	0.666836	0.000037
H101	H	0.036559	0.787845	0.154674
H102	H	-0.022585	0.947887	0.154638
C103	C	-0.579089	1.346664	0.000030
C104	C	-0.576864	1.416175	-0.088836
C105	C	-0.610853	1.508135	-0.088828
C106	C	-0.647067	1.530585	0.000045
C107	C	-0.649294	1.461072	0.088917
C108	C	-0.615305	1.369111	0.088910
H109	H	-0.550055	1.399558	-0.154631
H110	H	-0.609205	1.559593	-0.154618
H111	H	-0.672228	1.598659	0.000050
H112	H	-0.676103	1.477688	0.154712
H113	H	-0.616953	1.317653	0.154699
C114	C	-0.543847	0.825275	0.000057
C115	C	-0.532233	0.756016	-0.088798
C116	C	-0.553703	0.662962	-0.088775
C117	C	-0.586787	0.639167	0.000103
C118	C	-0.598403	0.708427	0.088964
C119	C	-0.576933	0.801481	0.088941
H120	H	-0.507740	0.773629	-0.154597
H121	H	-0.545104	0.611691	-0.154557
H122	H	-0.602680	0.570283	0.000120
H123	H	-0.622895	0.690814	0.154763
H124	H	-0.585532	0.852752	0.154723
C125	C	-0.321965	1.351659	-0.000006
C126	C	-0.288878	1.375478	-0.088869
C127	C	-0.267412	1.468535	-0.088861
C128	C	-0.279033	1.537774	0.000010
C129	C	-0.312121	1.513957	0.088880
C130	C	-0.333587	1.420899	0.088872
H131	H	-0.280274	1.324221	-0.154662
H132	H	-0.242918	1.486166	-0.154649
H133	H	-0.263142	1.606661	0.000016
H134	H	-0.320725	1.565214	0.154673
H135	H	-0.358082	1.403269	0.154660
H136	H	-0.181392	1.246119	-0.000018
H137	H	-0.705043	1.235965	0.000014
H138	H	-0.419000	1.325714	0.000004
H139	H	-0.796516	1.234182	0.000029
H140	H	-0.446810	0.851220	0.000040
H141	H	-0.684426	0.930803	0.000043
C142	C	-0.286717	0.830257	0.000047
C143	C	-0.288953	0.760756	0.088920
C144	C	-0.254975	0.668783	0.088925
C145	C	-0.218760	0.646310	0.000059
C146	C	-0.216522	0.715812	-0.088820
C147	C	-0.250500	0.807786	-0.088826
H148	H	-0.315763	0.777390	0.154710
H149	H	-0.256632	0.617333	0.154720
H150	H	-0.193607	0.578226	0.000063
H151	H	-0.189712	0.699178	-0.154611
H152	H	-0.248843	0.859236	-0.154620
H153	H	-0.160781	0.940955	-0.000040
H154	H	-0.478794	1.324556	0.000011
