data_functionalizedCrystal
_audit_creation_method	'MofGen! by Chris Wilmer'
_symmetry_space_group_name_H-M	'P1'
_symmetry_Int_Tables_number	1
_symmetry_cell_setting	triclinic
loop_
_symmetry_equiv_pos_as_xyz
  x,y,z
_cell_length_a	16.109301
_cell_length_b	15.944551
_cell_length_c	15.186229
_cell_angle_alpha	89.995303
_cell_angle_beta	89.999362
_cell_angle_gamma	83.480109
loop_
_atom_site_label
_atom_site_type_symbol
_atom_site_fract_x
_atom_site_fract_y
_atom_site_fract_z
O1	O	1.103166	0.107966	-0.073175
O2	O	1.603166	0.607966	0.426825
O3	O	0.861108	0.121402	-0.073189
O4	O	1.361108	0.621402	0.426811
O5	O	0.988747	-0.007593	-0.073174
O6	O	1.488747	0.492407	0.426826
O7	O	0.975527	0.236961	-0.073190
O8	O	1.475527	0.736961	0.426810
O9	O	0.988738	-0.007594	0.073284
O10	O	1.488738	0.492406	0.573284
O11	O	0.861099	0.121401	0.073268
O12	O	1.361099	0.621401	0.573268
O13	O	1.103157	0.107964	0.073282
O14	O	1.603157	0.607964	0.573282
Zn15	Zn	0.982127	0.114682	0.096529
Zn16	Zn	1.482127	0.614682	0.596529
Zn17	Zn	0.982138	0.114685	-0.096435
Zn18	Zn	1.482138	0.614685	0.403565
O19	O	0.975518	0.236960	0.073267
O20	O	1.475518	0.736960	0.573267
C21	C	0.830129	0.120857	0.000038
C22	C	1.330129	0.620857	0.500038
C23	C	0.737833	0.119226	0.000033
C24	C	1.237833	0.619226	0.500033
C25	C	0.515584	0.191975	0.000038
C26	C	1.015584	0.691975	0.500038
C27	C	0.428863	0.190435	0.000044
C28	C	0.928863	0.690435	0.500044
C29	C	0.448688	0.037387	0.000050
C30	C	0.948688	0.537387	0.500050
C31	C	0.535407	0.038927	0.000051
C32	C	1.035407	0.538927	0.500051
C33	C	0.568853	0.116224	0.000040
C34	C	1.068853	0.616224	0.500040
C35	C	0.395412	0.113143	0.000045
C36	C	0.895412	0.613143	0.500045
C37	C	0.301386	0.111473	0.000052
C38	C	0.801386	0.611473	0.500052
C39	C	0.662885	0.117894	0.000036
C40	C	1.162885	0.617894	0.500036
C41	C	0.988194	-0.038887	0.000055
C42	C	1.488194	0.461113	0.500055
C43	C	0.986548	-0.132133	0.000056
C44	C	1.486548	0.367867	0.500056
C45	C	0.903499	-0.346962	0.000039
C46	C	1.403499	0.153038	0.500039
C47	C	0.942060	-0.407993	0.072253
C48	C	1.442060	0.092007	0.572253
C49	C	0.983572	-0.302858	0.000049
C50	C	1.483572	0.197142	0.500049
C51	C	0.942087	-0.407975	-0.072142
C52	C	1.442087	0.092025	0.427858
C53	C	0.980691	-0.467769	0.000038
C54	C	1.480691	0.032231	0.500038
C55	C	1.022155	-0.362660	0.072323
C56	C	1.522155	0.137340	0.572323
C57	C	1.022171	-0.362636	-0.072137
C58	C	1.522171	0.137364	0.427863
C59	C	1.060790	-0.423649	0.000095
C60	C	1.560790	0.076351	0.500095
C61	C	0.985229	-0.207856	0.000055
C62	C	1.485229	0.292144	0.500055
C63	C	0.979039	-0.562770	0.000038
C64	C	1.479039	-0.062770	0.500038
C65	C	1.134136	0.108510	0.000054
C66	C	1.634136	0.608510	0.500054
C67	C	1.226432	0.110141	0.000053
C68	C	1.726432	0.610141	0.500053
C69	C	0.976071	0.268254	0.000036
C70	C	1.476071	0.768254	0.500036
C71	C	0.977717	0.361500	0.000030
C72	C	1.477717	0.861500	0.500030
N73	N	0.982125	0.114680	0.228221
N74	N	1.482125	0.614680	0.728221
N75	N	0.982146	0.114680	-0.228128
N76	N	1.482146	0.614680	0.271872
C77	C	1.038663	0.057580	0.453951
C78	C	1.538663	0.557580	0.953951
C79	C	1.038666	0.057578	0.546141
C80	C	1.538666	0.557578	1.046141
C81	C	0.925603	0.171783	0.546136
C82	C	1.425603	0.671783	1.046136
C83	C	0.925597	0.171780	0.453948
C84	C	1.425597	0.671780	0.953948
C85	C	0.982132	0.114680	0.407858
C86	C	1.482132	0.614680	0.907858
C87	C	0.982140	0.114680	0.592236
C88	C	1.482140	0.614680	1.092236
C89	C	0.982143	0.114679	0.692192
C90	C	1.482143	0.614679	1.192192
C91	C	0.982128	0.114680	0.307895
C92	C	1.482128	0.614680	0.807895
H93	H	0.542812	0.254914	0.000036
H94	H	1.042812	0.754914	0.500036
N95	N	1.144244	-0.465267	0.000154
N96	N	1.644244	0.034733	0.500154
N97	N	1.192585	-0.453570	0.062213
N98	N	1.692585	0.046430	0.562213
H99	H	1.251524	-0.482963	0.062259
H100	H	1.751524	0.017037	0.562259
N101	N	1.064643	-0.337394	-0.148714
N102	N	1.564643	0.162606	0.351286
N103	N	1.138991	-0.366143	-0.162293
N104	N	1.638991	0.133857	0.337707
H105	H	1.168983	-0.348316	-0.216381
H106	H	1.668983	0.151684	0.283619
N107	N	0.867858	0.230119	0.593204
N108	N	1.367858	0.730119	1.093204
N109	N	0.817385	0.281095	0.552036
N110	N	1.317385	0.781095	1.052036
H111	H	0.776601	0.322297	0.585275
H112	H	1.276601	0.822297	1.085275
H113	H	0.385495	0.252119	0.000044
H114	H	0.885495	0.752119	0.500044
N115	N	1.096394	-0.000761	0.593228
N116	N	1.596394	0.499239	1.093228
N117	N	1.070005	-0.052911	0.644664
N118	N	1.570005	0.447089	1.144664
H119	H	1.110774	-0.094122	0.677918
H120	H	1.610774	0.405878	1.177918
N121	N	1.064608	-0.337621	0.149000
N122	N	1.564608	0.162379	0.649000
N123	N	1.139127	-0.365959	0.162233
N124	N	1.639127	0.134041	0.662233
H125	H	1.169108	-0.348274	0.216387
H126	H	1.669108	0.151726	0.716387
N127	N	0.899579	-0.433160	-0.148720
N128	N	1.399579	0.066840	0.351280
N129	N	0.824853	-0.405362	-0.161570
N130	N	1.324853	0.094638	0.338430
H131	H	0.794825	-0.423147	-0.215649
H132	H	1.294825	0.076853	0.284351
H133	H	0.421446	-0.025546	0.000064
H134	H	0.921446	0.474454	0.500064
H135	H	0.879558	0.218278	0.416417
H136	H	1.379558	0.718278	0.916417
N137	N	0.589814	-0.038463	0.000062
N138	N	1.089814	0.461537	0.500062
N139	N	0.559944	-0.107471	0.000067
N140	N	1.059944	0.392529	0.500067
H141	H	0.598368	-0.162126	0.000079
H142	H	1.098368	0.337874	0.500079
N143	N	0.820119	-0.305157	0.000126
N144	N	1.320119	0.194843	0.500126
N145	N	0.771655	-0.316999	0.062033
N146	N	1.271655	0.183001	0.562033
H147	H	0.712769	-0.287475	0.062098
H148	H	1.212769	0.212525	0.562098
N149	N	1.096365	-0.000800	0.406884
N150	N	1.596365	0.499200	0.906884
N151	N	1.146801	-0.051812	0.448054
N152	N	1.646801	0.448188	0.948054
H153	H	1.187535	-0.093066	0.414816
H154	H	1.687535	0.406934	0.914816
H155	H	0.908189	-0.428091	0.133301
H156	H	1.408189	0.071909	0.633301
