data_functionalizedCrystal
_audit_creation_method	'MofGen! by Chris Wilmer'
_symmetry_space_group_name_H-M	'P1'
_symmetry_Int_Tables_number	1
_symmetry_cell_setting	triclinic
loop_
_symmetry_equiv_pos_as_xyz
  x,y,z
_cell_length_a	13.032721
_cell_length_b	17.077404
_cell_length_c	17.077396
_cell_angle_alpha	89.980499
_cell_angle_beta	82.846305
_cell_angle_gamma	82.795243
loop_
_atom_site_label
_atom_site_type_symbol
_atom_site_fract_x
_atom_site_fract_y
_atom_site_fract_z
Zn1	Zn	-0.416035	-1.160375	0.483523
Zn2	Zn	-0.590801	-1.143613	0.368926
Zn3	Zn	-0.416072	-1.029103	0.352275
Zn4	Zn	-0.590739	-1.012412	0.500144
O5	O	-0.503412	-1.086376	0.426217
O6	O	-0.439229	-1.267997	0.468335
O7	O	-0.567664	-1.128394	0.256874
O8	O	-0.269828	-1.060517	0.355761
O9	O	-0.567629	-1.255683	0.384141
O10	O	-0.269801	-1.156961	0.452188
O11	O	-0.439292	-1.044264	0.244641
O12	O	-0.439231	-0.917043	0.371877
O13	O	-0.567523	-1.032069	0.607782
O14	O	-0.567559	-0.904780	0.480516
O15	O	-0.439169	-1.140777	0.595571
O16	O	-0.737032	-1.112209	0.400257
O17	O	-0.736987	-1.015816	0.496662
C18	C	-0.503393	-0.882430	0.426193
C19	C	-0.503410	-0.795178	0.426204
C20	C	-0.774928	-1.060404	0.452087
C21	C	-0.891083	-1.049365	0.463180
C22	C	-0.503335	-1.086431	0.630954
C23	C	-0.503302	-1.086454	0.718201
C24	C	-0.942857	-1.092179	0.420462
C25	C	-1.062910	-1.080770	0.431927
C26	C	-0.230836	-1.112470	0.400263
C27	C	-0.114681	-1.123590	0.389203
C28	C	-0.503432	-1.291118	0.426241
C29	C	-0.503440	-1.378367	0.426251
C30	C	-0.570331	-0.747814	0.482702
C31	C	-0.570333	-0.665833	0.482715
C32	C	-0.503419	-0.631218	0.426226
C33	C	-0.436491	-0.678589	0.369726
C34	C	-0.436484	-0.760569	0.369717
C35	C	-0.436512	-0.507717	0.369747
C36	C	-0.436519	-0.425732	0.369754
C37	C	-0.570361	-0.412982	0.482744
C38	C	-0.570354	-0.494961	0.482735
C39	C	-0.503427	-0.542326	0.426234
C40	C	-0.503413	-1.086374	0.222269
C41	C	-0.503152	-1.086530	0.134995
C42	C	-0.436463	-1.143060	0.752833
C43	C	-0.436428	-1.143073	0.834811
C44	C	-0.503239	-1.086482	0.882154
C45	C	-0.570081	-1.029870	0.847516
C46	C	-0.570110	-1.029855	0.765540
C47	C	-0.570018	-1.029908	1.018380
C48	C	-0.569991	-1.029924	1.100362
C49	C	-0.436336	-1.143126	1.087651
C50	C	-0.436365	-1.143111	1.005675
C51	C	-0.503209	-1.086499	0.971042
H52	H	-0.898306	-1.137283	0.375405
C53	C	-1.123082	-1.019837	0.492806
C54	C	-1.108092	-1.027604	0.580627
C55	C	-1.168266	-0.966672	0.641505
C56	C	-1.243430	-0.897972	0.614561
C57	C	-1.258424	-0.890201	0.526735
C58	C	-1.198250	-0.951134	0.465858
H59	H	-1.052448	-1.078463	0.600577
H60	H	-1.157166	-0.972424	0.706519
H61	H	-1.287974	-0.852866	0.659626
H62	H	-1.314068	-0.839343	0.506785
H63	H	-1.209350	-0.945381	0.400843
H64	H	-0.382003	-0.546281	0.323743
C65	C	-0.643496	-0.967669	1.152426
C66	C	-0.598208	-0.910380	1.204466
C67	C	-0.671721	-0.848123	1.256523
C68	C	-0.790523	-0.843155	1.256539
C69	C	-0.835817	-0.900445	1.204497
C70	C	-0.762303	-0.962702	1.152441
H71	H	-0.510258	-0.914056	1.204456
H72	H	-0.638191	-0.805713	1.295048
H73	H	-0.844942	-0.797069	1.295075
H74	H	-0.923766	-0.896769	1.204508
H75	H	-0.795833	-1.005113	1.113916
C76	C	-0.643960	-0.533038	0.544873
C77	C	-0.762752	-0.510406	0.549643
C78	C	-0.836356	-0.548482	0.611783
C79	C	-0.791170	-0.609191	0.669153
C80	C	-0.672372	-0.631826	0.664385
C81	C	-0.598767	-0.593750	0.602245
H82	H	-0.796207	-0.465463	0.507173
H83	H	-0.924298	-0.531726	0.615313
H84	H	-0.845656	-0.637377	0.715153
H85	H	-0.638917	-0.676769	0.706855
H86	H	-0.510825	-0.610506	0.598715
H87	H	-0.382004	-0.650399	0.323735
C88	C	-1.054513	-1.184523	0.328321
C89	C	-0.979547	-1.157617	0.259551
C90	C	-0.919381	-1.218547	0.198669
C91	C	-0.934181	-1.306384	0.206556
C92	C	-1.009150	-1.333295	0.275329
C93	C	-1.069316	-1.272364	0.336211
H94	H	-0.968588	-1.092591	0.253710
H95	H	-0.863883	-1.198625	0.147758
H96	H	-0.889642	-1.351488	0.161487
H97	H	-1.020109	-1.398321	0.281170
H98	H	-1.124814	-1.292286	0.387122
C99	C	-0.362870	-0.812675	0.307570
C100	C	-0.244082	-0.812763	0.302809
C101	C	-0.170461	-0.864870	0.240665
C102	C	-0.215627	-0.916888	0.183281
C103	C	-0.334422	-0.916801	0.188040
C104	C	-0.408043	-0.864695	0.250185
H105	H	-0.210641	-0.774255	0.345290
H106	H	-0.082521	-0.864934	0.237142
H107	H	-0.161128	-0.955460	0.137278
H108	H	-0.367862	-0.955310	0.145560
H109	H	-0.495983	-0.864631	0.253707
C110	C	-0.362968	-1.205312	0.700758
C111	C	-0.244163	-1.210279	0.700718
C112	C	-0.170663	-1.272531	0.648645
C113	C	-0.215969	-1.329816	0.596612
C114	C	-0.334781	-1.324851	0.596651
C115	C	-0.408280	-1.262599	0.648724
H116	H	-0.210619	-1.167871	0.739237
H117	H	-0.082711	-1.276206	0.648616
H118	H	-0.161561	-1.375898	0.558065
H119	H	-0.368324	-1.367258	0.558132
H120	H	-0.496232	-1.258924	0.648753
C121	C	-0.951260	-0.988434	0.524056
C122	C	-0.936269	-0.996202	0.611877
C123	C	-0.996443	-0.935269	0.672755
C124	C	-1.071607	-0.866569	0.645811
C125	C	-1.086601	-0.858799	0.557985
C126	C	-1.026428	-0.919731	0.497108
H127	H	-0.880625	-1.047060	0.631827
H128	H	-0.985343	-0.941022	0.737769
H129	H	-1.116151	-0.821464	0.690876
H130	H	-1.142245	-0.807941	0.538035
H131	H	-1.037527	-0.913979	0.432093
H132	H	-0.624824	-0.775990	0.528699
H133	H	-0.624476	-0.983790	0.886069
C134	C	-0.643982	-0.360884	0.544897
C135	C	-0.643993	-0.270709	0.544914
C136	C	-0.717617	-0.218607	0.607061
C137	C	-0.791230	-0.256680	0.669191
C138	C	-0.791223	-0.346860	0.669177
C139	C	-0.717598	-0.398961	0.607030
H140	H	-0.589497	-0.242521	0.498920
H141	H	-0.717622	-0.151850	0.607072
H142	H	-0.845732	-0.218111	0.715196
H143	H	-0.845718	-0.375048	0.715171
H144	H	-0.717593	-0.465718	0.607019
C145	C	-0.362885	-0.387656	0.307637
C146	C	-0.289240	-0.439754	0.245505
C147	C	-0.215593	-0.401679	0.183395
C148	C	-0.215591	-0.311505	0.183416
C149	C	-0.289239	-0.259402	0.245550
C150	C	-0.362885	-0.297477	0.307660
H151	H	-0.289239	-0.506510	0.245488
H152	H	-0.161075	-0.440250	0.137400
H153	H	-0.161073	-0.283320	0.137438
H154	H	-0.289239	-0.192645	0.245568
H155	H	-0.417404	-0.258906	0.353656
H156	H	-0.624434	-0.983798	0.990184
H157	H	-0.382003	-1.189169	0.863004
H158	H	-0.381968	-1.189196	0.967130
H159	H	-0.624527	-0.983753	0.737343
H160	H	-0.624828	-0.627272	0.528720
H161	H	-0.381907	-1.189220	1.115852
