data_functionalizedCrystal
_audit_creation_method	'MofGen! by Chris Wilmer'
_symmetry_space_group_name_H-M	'P1'
_symmetry_Int_Tables_number	1
_symmetry_cell_setting	triclinic
loop_
_symmetry_equiv_pos_as_xyz
  x,y,z
_cell_length_a	16.625548
_cell_length_b	11.169416
_cell_length_c	11.169409
_cell_angle_alpha	90.030816
_cell_angle_beta	89.976108
_cell_angle_gamma	89.988592
loop_
_atom_site_label
_atom_site_type_symbol
_atom_site_fract_x
_atom_site_fract_y
_atom_site_fract_z
Zn1	Zn	1.232775	0.477676	-0.678662
Zn2	Zn	1.566108	0.811010	-0.345328
Zn3	Zn	1.899442	1.144343	-0.011995
Zn4	Zn	1.232699	0.678417	-0.477984
Zn5	Zn	1.566032	1.011750	-0.144650
Zn6	Zn	1.899365	1.345083	0.188683
Zn7	Zn	1.097929	0.477750	-0.477984
Zn8	Zn	1.431262	0.811083	-0.144651
Zn9	Zn	1.764596	1.144417	0.188682
Zn10	Zn	1.097936	0.678320	-0.678617
Zn11	Zn	1.431269	1.011653	-0.345283
Zn12	Zn	1.764602	1.344987	-0.011950
O13	O	1.165335	0.578041	-0.578312
O14	O	1.498668	0.911374	-0.244978
O15	O	1.832001	1.244707	0.088355
O16	O	1.345597	0.504315	-0.652060
O17	O	1.678930	0.837648	-0.318726
O18	O	2.012264	1.170981	0.014607
O19	O	1.214787	0.651869	-0.310034
O20	O	1.548120	0.985202	0.023300
O21	O	1.881453	1.318536	0.356633
O22	O	1.115845	0.309791	-0.504624
O23	O	1.449179	0.643124	-0.171290
O24	O	1.782512	0.976457	0.162043
O25	O	1.345541	0.651798	-0.504622
O26	O	1.678875	0.985131	-0.171289
O27	O	2.012208	1.318464	0.162044
O28	O	1.214916	0.309736	-0.652060
O29	O	1.548250	0.643070	-0.318727
O30	O	1.881583	0.976403	0.014606
O31	O	1.115772	0.504440	-0.310034
O32	O	1.449105	0.837774	0.023299
O33	O	1.782438	1.171107	0.356632
O34	O	0.985097	0.504346	-0.504580
O35	O	1.318431	0.837680	-0.171247
O36	O	1.651764	1.171013	0.162087
O37	O	1.115857	0.651633	-0.846573
O38	O	1.449190	0.984966	-0.513239
O39	O	1.782524	1.318299	-0.179906
O40	O	0.985102	0.651704	-0.651984
O41	O	1.318436	0.985037	-0.318651
O42	O	1.651769	1.318371	0.014683
O43	O	1.214923	0.504221	-0.846605
O44	O	1.548256	0.837554	-0.513272
O45	O	1.881589	1.170887	-0.179939
O46	O	1.214793	0.846354	-0.504579
O47	O	1.548127	1.179687	-0.171246
O48	O	1.881460	1.513020	0.162088
O49	O	1.115783	0.846282	-0.651983
O50	O	1.449117	1.179616	-0.318650
O51	O	1.782450	1.512949	0.014683
C52	C	1.165303	0.889865	-0.578302
C53	C	1.498636	1.223199	-0.244969
C54	C	1.831969	1.556532	0.088364
C55	C	1.165363	1.023265	-0.578339
C56	C	1.498696	1.356599	-0.245005
C57	C	1.832029	1.689932	0.088328
C58	C	0.955844	0.578024	-0.578278
C59	C	1.289177	0.911357	-0.244945
C60	C	1.622510	1.244690	0.088389
C61	C	0.866223	0.578045	-0.578292
C62	C	1.199556	0.911378	-0.244959
C63	C	1.532889	1.244712	0.088375
C64	C	1.165399	0.577908	-0.891354
C65	C	1.498733	0.911241	-0.558021
C66	C	1.832066	1.244574	-0.224687
C67	C	1.165427	0.577851	-1.024754
C68	C	1.498760	0.911184	-0.691421
C69	C	1.832093	1.244518	-0.358088
C70	C	0.538047	0.578053	-0.578343
C71	C	0.871380	0.911386	-0.245010
C72	C	1.204714	1.244720	0.088323
C73	C	0.629355	0.578048	-0.578325
C74	C	0.962689	0.911381	-0.244992
C75	C	1.296022	1.244714	0.088341
C76	C	0.702132	0.578050	-0.578317
C77	C	1.035465	0.911383	-0.244983
C78	C	1.368799	1.244716	0.088350
C79	C	0.793446	0.578043	-0.578301
C80	C	1.126779	0.911376	-0.244967
C81	C	1.460113	1.244710	0.088366
C82	C	1.375643	0.578059	-0.578346
C83	C	1.708977	0.911392	-0.245013
C84	C	2.042310	1.244725	0.088321
C85	C	1.465265	0.578067	-0.578361
C86	C	1.798598	0.911400	-0.245027
C87	C	2.131931	1.244733	0.088306
C88	C	1.165389	0.264998	-0.578347
C89	C	1.498722	0.598332	-0.245014
C90	C	1.832055	0.931665	0.088320
C91	C	1.165412	0.131598	-0.578362
C92	C	1.498745	0.464932	-0.245029
C93	C	1.832078	0.798265	0.088305
C94	C	1.165317	0.578087	-0.266487
C95	C	1.498650	0.911420	0.066847
C96	C	1.831983	1.244753	0.400180
C97	C	1.165445	0.577805	-0.133087
C98	C	1.498779	0.911138	0.200246
C99	C	1.832112	1.244472	0.533579
