data_functionalizedCrystal
_audit_creation_method	'MofGen! by Chris Wilmer'
_symmetry_space_group_name_H-M	'P1'
_symmetry_Int_Tables_number	1
_symmetry_cell_setting	triclinic
loop_
_symmetry_equiv_pos_as_xyz
  x,y,z
_cell_length_a	18.215407
_cell_length_b	14.908520
_cell_length_c	18.215399
_cell_angle_alpha	93.269364
_cell_angle_beta	89.980167
_cell_angle_gamma	93.321174
loop_
_atom_site_label
_atom_site_type_symbol
_atom_site_fract_x
_atom_site_fract_y
_atom_site_fract_z
Zn1	Zn	1.108178	-0.359158	-0.433017
Zn2	Zn	1.608178	0.140842	0.066983
Zn3	Zn	1.100989	-0.510027	-0.317051
Zn4	Zn	1.600989	-0.010027	0.182949
Zn5	Zn	0.985109	-0.359188	-0.309966
Zn6	Zn	1.485109	0.140812	0.190034
Zn7	Zn	0.977982	-0.509977	-0.440073
Zn8	Zn	1.477982	-0.009977	0.059927
O9	O	1.043064	-0.434588	-0.375027
O10	O	1.543064	0.065412	0.124973
O11	O	1.210208	-0.379180	-0.417646
O12	O	1.710208	0.120820	0.082354
O13	O	1.085592	-0.490052	-0.213128
O14	O	1.585592	0.009948	0.286872
O15	O	1.007425	-0.232939	-0.320371
O16	O	1.507425	0.267061	0.179629
O17	O	1.204927	-0.490023	-0.332446
O18	O	1.704927	0.009977	0.167554
O19	O	1.097843	-0.232917	-0.410776
O20	O	1.597843	0.267083	0.089224
O21	O	1.000455	-0.379230	-0.207923
O22	O	1.500455	0.120770	0.292077
O23	O	0.881180	-0.379182	-0.327213
O24	O	1.381180	0.120818	0.172787
O25	O	0.995278	-0.489937	-0.542120
O26	O	1.495278	0.010063	-0.042120
O27	O	0.875943	-0.489966	-0.422802
O28	O	1.375943	0.010034	0.077198
O29	O	1.090932	-0.379131	-0.536936
O30	O	1.590932	0.120869	-0.036936
O31	O	1.078681	-0.636266	-0.339288
O32	O	1.578681	-0.136266	0.160712
O33	O	0.988308	-0.636229	-0.429672
O34	O	1.488308	-0.136229	0.070328
C35	C	0.851859	-0.434572	-0.375005
C36	C	1.351859	0.065428	0.124995
C37	C	0.770059	-0.434587	-0.375014
C38	C	1.270059	0.065413	0.124986
C39	C	1.031961	-0.668981	-0.386030
C40	C	1.531961	-0.168981	0.113970
C41	C	1.027278	-0.769256	-0.390762
C42	C	1.527278	-0.269256	0.109238
C43	C	0.579154	-0.492363	-0.424733
C44	C	1.079154	0.007637	0.075267
C45	C	0.502295	-0.492366	-0.424742
C46	C	1.002295	0.007634	0.075258
C47	C	0.507726	-0.376828	-0.325338
C48	C	1.007726	0.123172	0.174662
C49	C	0.584584	-0.376822	-0.325333
C50	C	1.084584	0.123178	0.174667
C51	C	0.620295	-0.434594	-0.375029
C52	C	1.120295	0.065406	0.124971
C53	C	0.466579	-0.434604	-0.375044
C54	C	0.966579	0.065396	0.124956
C55	C	0.383245	-0.434606	-0.375053
C56	C	0.883245	0.065394	0.124947
C57	C	0.703635	-0.434591	-0.375021
C58	C	1.203635	0.065409	0.124979
C59	C	1.112681	-0.957660	-0.305613
C60	C	1.612681	-0.457660	0.194387
C61	C	1.108284	-1.051877	-0.310057
C62	C	1.608284	-0.551877	0.189943
C63	C	1.014091	-1.051908	-0.404097
C64	C	1.514091	-0.551908	0.095903
C65	C	1.018488	-0.957691	-0.399653
C66	C	1.518488	-0.457691	0.100347
C67	C	1.067784	-0.910570	-0.350409
C68	C	1.567784	-0.410570	0.149591
C69	C	1.072177	-0.816352	-0.345962
C70	C	1.572177	-0.316352	0.154038
C71	C	0.977988	-0.816385	-0.440005
C72	C	1.477988	-0.316385	0.059995
C73	C	0.973591	-0.910602	-0.444449
C74	C	1.473591	-0.410602	0.055551
C75	C	1.235017	-0.434604	-0.375049
C76	C	1.735017	0.065396	0.124951
C77	C	1.316815	-0.434611	-0.375059
C78	C	1.816815	0.065389	0.124941
C79	C	1.043112	-0.434526	-0.566977
C80	C	1.543112	0.065474	-0.066977
C81	C	1.043133	-0.434499	-0.648775
C82	C	1.543133	0.065501	-0.148775
C83	C	1.054231	-0.199279	-0.363996
C84	C	1.554231	0.300721	0.136004
C85	C	1.058990	-0.099004	-0.359296
C86	C	1.558990	0.400996	0.140704
C87	C	1.092959	-0.376748	-0.834268
C88	C	1.592959	0.123252	-0.334268
C89	C	1.092969	-0.376722	-0.911126
C90	C	1.592969	0.123278	-0.411126
C91	C	0.993364	-0.492110	-0.916513
C92	C	1.493364	0.007890	-0.416513
C93	C	0.993351	-0.492131	-0.839656
C94	C	1.493351	0.007869	-0.339656
C95	C	1.043153	-0.434452	-0.798536
C96	C	1.543153	0.065548	-0.298536
C97	C	1.043176	-0.434404	-0.952250
C98	C	1.543176	0.065596	-0.452250
C99	C	1.043186	-0.434376	-1.035582
C100	C	1.543186	0.065624	-0.535582
C101	C	1.043142	-0.434478	-0.715198
C102	C	1.543142	0.065522	-0.215198
C103	C	1.043062	-0.434585	-0.183820
C104	C	1.543062	0.065415	0.316180
C105	C	1.043196	-0.434357	-0.102011
C106	C	1.543196	0.065643	0.397989
H107	H	0.608228	-0.539403	-0.465200
H108	H	1.108228	-0.039403	0.034800
H109	H	0.468801	-0.539406	-0.465216
H110	H	0.968801	-0.039406	0.034784
H111	H	0.952819	-0.539073	-0.950002
H112	H	1.452819	-0.039073	-0.450002
H113	H	1.133509	-0.329780	-0.800790
H114	H	1.633509	0.170220	-0.300790
C115	C	0.491281	-0.224011	-0.282519
C116	C	0.991281	0.275989	0.217481
C117	C	0.468471	-0.313331	-0.270709
C118	C	0.968471	0.186669	0.229291
H119	H	0.467044	-0.184811	-0.248794
H120	H	0.967044	0.315189	0.251206
H121	H	0.542937	-0.215746	-0.275402
H122	H	1.042937	0.284254	0.224598
H123	H	0.479320	-0.210896	-0.331369
H124	H	0.979320	0.289104	0.168631
H125	H	0.480436	-0.326447	-0.221860
H126	H	0.980436	0.173553	0.278140
H127	H	0.416803	-0.321599	-0.277820
H128	H	0.916803	0.178401	0.222180
C129	C	1.191429	-0.262680	-0.898076
C130	C	1.691429	0.237320	-0.398076
C131	C	1.147721	-0.313297	-0.950402
C132	C	1.647721	0.186703	-0.450402
H133	H	1.225234	-0.223526	-0.922325
H134	H	1.725234	0.276474	-0.422325
H135	H	1.160998	-0.228179	-0.866477
H136	H	1.660998	0.271821	-0.366477
H137	H	1.217706	-0.302009	-0.869947
H138	H	1.717706	0.197991	-0.369947
H139	H	1.121440	-0.273968	-0.978528
H140	H	1.621440	0.226032	-0.478528
H141	H	1.178156	-0.347800	-0.982014
H142	H	1.678156	0.152200	-0.482014
H143	H	0.618083	-0.329773	-0.284858
H144	H	1.118083	0.170227	0.215142
H145	H	1.144846	-1.090213	-0.273581
H146	H	1.644846	-0.590213	0.226419
C147	C	1.164845	-0.825788	-0.253459
C148	C	1.664845	-0.325788	0.246541
C149	C	1.126364	-0.764554	-0.291835
C150	C	1.626364	-0.264554	0.208165
H151	H	1.198302	-0.793809	-0.220047
H152	H	1.698302	-0.293809	0.279953
H153	H	1.131083	-0.862590	-0.227014
H154	H	1.631083	-0.362590	0.272986
H155	H	1.191259	-0.862482	-0.287291
H156	H	1.691259	-0.362482	0.212709
H157	H	1.099945	-0.727864	-0.258003
H158	H	1.599945	-0.227864	0.241997
H159	H	1.160131	-0.727736	-0.318282
H160	H	1.660131	-0.227736	0.181718
C161	C	0.965533	-1.196355	-0.452659
C162	C	1.465533	-0.696355	0.047341
C163	C	0.959907	-1.103715	-0.458221
C164	C	1.459907	-0.603715	0.041779
H165	H	0.932078	-1.228336	-0.486071
H166	H	1.432078	-0.728336	0.013929
H167	H	1.014250	-1.211723	-0.464206
H168	H	1.514250	-0.711723	0.035794
H169	H	0.954074	-1.211835	-0.403929
H170	H	1.454074	-0.711835	0.096071
H171	H	0.971372	-1.088234	-0.506951
H172	H	1.471372	-0.588234	-0.006951
H173	H	0.911179	-1.088341	-0.446679
H174	H	1.411179	-0.588341	0.053321
H175	H	0.952788	-0.539119	-0.810563
H176	H	1.452788	-0.039119	-0.310563
C177	C	0.880929	-0.901169	-0.536958
C178	C	1.380929	-0.401169	-0.036958
C179	C	0.919408	-0.962401	-0.498578
C180	C	1.419408	-0.462401	0.001422
H181	H	0.847481	-0.933148	-0.570378
H182	H	1.347481	-0.433148	-0.070378
H183	H	0.854512	-0.864481	-0.503134
H184	H	1.354512	-0.364481	-0.003134
H185	H	0.914699	-0.864360	-0.563401
H186	H	1.414699	-0.364360	-0.063401
H187	H	0.885637	-0.999206	-0.472130
H188	H	1.385637	-0.499206	0.027870
H189	H	0.945826	-0.999105	-0.532406
H190	H	1.445826	-0.499105	-0.032406
C191	C	0.942902	-0.671973	-0.474953
C192	C	1.442902	-0.171973	0.025047
C193	C	0.928635	-0.764622	-0.489251
C194	C	1.428635	-0.264622	0.010749
H195	H	0.912435	-0.640019	-0.505358
H196	H	1.412435	-0.140019	-0.005358
H197	H	0.932879	-0.656589	-0.424776
H198	H	1.432879	-0.156589	0.075224
H199	H	0.993067	-0.656477	-0.485043
H200	H	1.493067	-0.156477	0.014957
H201	H	0.878471	-0.780119	-0.479156
H202	H	1.378471	-0.280119	0.020844
H203	H	0.938652	-0.780013	-0.539440
H204	H	1.438652	-0.280013	-0.039440
H205	H	1.152815	-0.919293	-0.265511
H206	H	1.652815	-0.419293	0.234489
