data_functionalizedCrystal
_audit_creation_method	'MofGen! by Chris Wilmer'
_symmetry_space_group_name_H-M	'P1'
_symmetry_Int_Tables_number	1
_symmetry_cell_setting	triclinic
loop_
_symmetry_equiv_pos_as_xyz
  x,y,z
_cell_length_a	26.809956
_cell_length_b	14.519709
_cell_length_c	14.519709
_cell_angle_alpha	83.680145
_cell_angle_beta	90.003406
_cell_angle_gamma	89.996771
loop_
_atom_site_label
_atom_site_type_symbol
_atom_site_fract_x
_atom_site_fract_y
_atom_site_fract_z
O1	O	0.041416	-1.223875	-0.120878
O2	O	0.291416	-0.973875	0.129122
O3	O	0.541416	-0.723875	0.379122
O4	O	0.791416	-0.473875	0.629122
O5	O	0.041431	-0.955398	-0.135115
O6	O	0.291431	-0.705398	0.114885
O7	O	0.541431	-0.455398	0.364885
O8	O	0.791431	-0.205398	0.614885
O9	O	0.041419	-1.096755	0.006242
O10	O	0.291419	-0.846755	0.256242
O11	O	0.541419	-0.596755	0.506242
O12	O	0.791419	-0.346755	0.756242
O13	O	0.041428	-1.082518	-0.262235
O14	O	0.291428	-0.832518	-0.012235
O15	O	0.541428	-0.582518	0.237765
O16	O	0.791428	-0.332518	0.487765
O17	O	-0.041541	-1.096728	0.006220
O18	O	0.208459	-0.846728	0.256220
O19	O	0.458459	-0.596728	0.506220
O20	O	0.708459	-0.346728	0.756220
O21	O	-0.041528	-0.955371	-0.135136
O22	O	0.208472	-0.705371	0.114864
O23	O	0.458472	-0.455371	0.364864
O24	O	0.708472	-0.205371	0.614864
O25	O	-0.041544	-1.223848	-0.120900
O26	O	0.208456	-0.973848	0.129100
O27	O	0.458456	-0.723848	0.379100
O28	O	0.708456	-0.473848	0.629100
Zn29	Zn	-0.054707	-1.089605	-0.128021
Zn30	Zn	0.195293	-0.839605	0.121979
Zn31	Zn	0.445293	-0.589605	0.371979
Zn32	Zn	0.695293	-0.339605	0.621979
Zn33	Zn	0.054595	-1.089641	-0.127993
Zn34	Zn	0.304595	-0.839641	0.122007
Zn35	Zn	0.554595	-0.589641	0.372007
Zn36	Zn	0.804595	-0.339641	0.622007
O37	O	-0.041531	-1.082491	-0.262257
O38	O	0.208469	-0.832491	-0.012257
O39	O	0.458469	-0.582491	0.237743
O40	O	0.708469	-0.332491	0.487743
C41	C	-0.000047	-0.921025	-0.134462
C42	C	0.249953	-0.671025	0.115538
C43	C	0.499953	-0.421025	0.365538
C44	C	0.749953	-0.171025	0.615538
C45	C	-0.000041	-0.818643	-0.132474
C46	C	0.249959	-0.568643	0.117526
C47	C	0.499959	-0.318643	0.367526
C48	C	0.749959	-0.068643	0.617526
C49	C	-0.000061	-1.096078	0.040591
C50	C	0.249939	-0.846078	0.290591
C51	C	0.499939	-0.596078	0.540591
C52	C	0.749939	-0.346078	0.790591
C53	C	-0.000061	-1.094089	0.142972
C54	C	0.249939	-0.844089	0.392972
C55	C	0.499939	-0.594089	0.642972
C56	C	0.749939	-0.344089	0.892972
N57	N	-0.129303	-1.089588	-0.128040
N58	N	0.120697	-0.839588	0.121960
N59	N	0.370697	-0.589588	0.371960
N60	N	0.620697	-0.339588	0.621960
C61	C	-0.473935	-1.152225	-0.065416
C62	C	-0.223935	-0.902225	0.184584
C63	C	0.026065	-0.652225	0.434584
C64	C	0.276065	-0.402225	0.684584
C65	C	-0.682813	-1.152247	-0.065402
C66	C	-0.432813	-0.902247	0.184598
C67	C	-0.182813	-0.652247	0.434598
C68	C	0.067187	-0.402247	0.684598
O69	O	-0.709821	-1.205466	-0.012162
O70	O	-0.459821	-0.955466	0.237838
O71	O	-0.209821	-0.705466	0.487838
O72	O	0.040179	-0.455466	0.737838
N73	N	-0.708930	-1.089645	-0.127973
N74	N	-0.458930	-0.839645	0.122027
N75	N	-0.208930	-0.589645	0.372027
N76	N	0.041070	-0.339645	0.622027
C77	C	-0.682826	-1.027030	-0.190548
C78	C	-0.432826	-0.777030	0.059452
C79	C	-0.182826	-0.527030	0.309452
C80	C	0.067174	-0.277030	0.559452
O81	O	-0.709833	-0.973777	-0.243761
O82	O	-0.459833	-0.723777	0.006239
O83	O	-0.209833	-0.473777	0.256239
O84	O	0.040167	-0.223777	0.506239
C85	C	-0.473949	-1.027004	-0.190556
C86	C	-0.223949	-0.777004	0.059444
C87	C	0.026051	-0.527004	0.309444
C88	C	0.276051	-0.277004	0.559444
C89	C	-0.447834	-1.089616	-0.127988
C90	C	-0.197834	-0.839616	0.122012
C91	C	0.052166	-0.589616	0.372012
C92	C	0.302166	-0.339616	0.622012
C93	C	-0.447820	-1.214831	-0.002851
C94	C	-0.197820	-0.964831	0.247149
C95	C	0.052180	-0.714831	0.497149
C96	C	0.302180	-0.464831	0.747149
C97	C	-0.395604	-1.214829	-0.002859
C98	C	-0.145604	-0.964829	0.247141
C99	C	0.104396	-0.714829	0.497141
C100	C	0.354396	-0.464829	0.747141
C101	C	-0.369502	-1.152220	-0.065431
C102	C	-0.119502	-0.902220	0.184569
C103	C	0.130498	-0.652220	0.434569
C104	C	0.380498	-0.402220	0.684569
C105	C	-0.395618	-1.089614	-0.127995
C106	C	-0.145618	-0.839614	0.122005
C107	C	0.104382	-0.589614	0.372005
C108	C	0.354382	-0.339614	0.622005
C109	C	-0.447845	-0.964385	-0.253126
C110	C	-0.197845	-0.714385	-0.003126
C111	C	0.052155	-0.464385	0.246874
C112	C	0.302155	-0.214385	0.496874
C113	C	-0.395622	-0.964383	-0.253121
C114	C	-0.145622	-0.714383	-0.003121
C115	C	0.104378	-0.464383	0.246879
C116	C	0.354378	-0.214383	0.496879
C117	C	-0.369507	-1.026995	-0.190553
C118	C	-0.119507	-0.776995	0.059447
C119	C	0.130493	-0.526995	0.309447
C120	C	0.380493	-0.276995	0.559447
C121	C	-0.317300	-1.027002	-0.190575
C122	C	-0.067300	-0.777002	0.059425
C123	C	0.182700	-0.527002	0.309425
C124	C	0.432700	-0.277002	0.559425
N125	N	-0.291182	-1.089604	-0.128004
N126	N	-0.041182	-0.839604	0.121996
N127	N	0.208818	-0.589604	0.371996
N128	N	0.458818	-0.339604	0.621996
C129	C	-0.317283	-1.152213	-0.065432
C130	C	-0.067283	-0.902213	0.184568
C131	C	0.182717	-0.652213	0.434568
C132	C	0.432717	-0.402213	0.684568
C133	C	-0.792489	-1.027049	-0.190540
C134	C	-0.542489	-0.777049	0.059460
C135	C	-0.292489	-0.527049	0.309460
C136	C	-0.042489	-0.277049	0.559460
C137	C	-0.844708	-1.027056	-0.190539
C138	C	-0.594708	-0.777056	0.059461
C139	C	-0.344708	-0.527056	0.309461
C140	C	-0.094708	-0.277056	0.559461
C141	C	-0.844691	-1.152273	-0.065392
C142	C	-0.594691	-0.902273	0.184608
C143	C	-0.344691	-0.652273	0.434608
C144	C	-0.094691	-0.402273	0.684608
C145	C	-0.792471	-1.152269	-0.065398
C146	C	-0.542471	-0.902269	0.184602
C147	C	-0.292471	-0.652269	0.434602
C148	C	-0.042471	-0.402269	0.684602
C149	C	-0.766371	-1.089651	-0.127969
C150	C	-0.516371	-0.839651	0.122031
C151	C	-0.266371	-0.589651	0.372031
C152	C	-0.016371	-0.339651	0.622031
C153	C	-0.207625	-1.152203	-0.065453
C154	C	0.042375	-0.902203	0.184547
C155	C	0.292375	-0.652203	0.434547
C156	C	0.542375	-0.402203	0.684547
C157	C	-0.155405	-1.152197	-0.065468
C158	C	0.094595	-0.902197	0.184532
C159	C	0.344595	-0.652197	0.434532
C160	C	0.594595	-0.402197	0.684532
C161	C	-0.155426	-1.026978	-0.190612
C162	C	0.094574	-0.776978	0.059388
C163	C	0.344574	-0.526978	0.309388
C164	C	0.594574	-0.276978	0.559388
C165	C	-0.207642	-1.026986	-0.190600
C166	C	0.042358	-0.776986	0.059400
C167	C	0.292358	-0.526986	0.309400
C168	C	0.542358	-0.276986	0.559400
C169	C	-0.233741	-1.089602	-0.128013
C170	C	0.016259	-0.839602	0.121987
C171	C	0.266259	-0.589602	0.371987
C172	C	0.516259	-0.339602	0.621987
O173	O	-0.290259	-0.973804	-0.243780
O174	O	-0.040259	-0.723804	0.006220
O175	O	0.209741	-0.473804	0.256220
O176	O	0.459741	-0.223804	0.506220
O177	O	-0.290267	-1.205443	-0.012212
O178	O	-0.040267	-0.955443	0.237788
O179	O	0.209733	-0.705443	0.487788
O180	O	0.459733	-0.455443	0.737788
C181	C	-0.526151	-1.152228	-0.065408
C182	C	-0.276151	-0.902228	0.184592
C183	C	-0.026151	-0.652228	0.434592
C184	C	0.223849	-0.402228	0.684592
C185	C	-0.552266	-1.089622	-0.127973
C186	C	-0.302266	-0.839622	0.122027
C187	C	-0.052266	-0.589622	0.372027
C188	C	0.197734	-0.339622	0.622027
C189	C	-0.526165	-1.027013	-0.190545
C190	C	-0.276165	-0.777013	0.059455
C191	C	-0.026165	-0.527013	0.309455
C192	C	0.223835	-0.277013	0.559455
C193	C	-0.604485	-1.089629	-0.127972
C194	C	-0.354485	-0.839629	0.122028
C195	C	-0.104485	-0.589629	0.372028
C196	C	0.145515	-0.339629	0.622028
C197	C	-0.630587	-1.152238	-0.065400
C198	C	-0.380587	-0.902238	0.184600
C199	C	-0.130587	-0.652238	0.434600
C200	C	0.119413	-0.402238	0.684600
C201	C	-0.604469	-1.214840	-0.002829
C202	C	-0.354469	-0.964840	0.247171
C203	C	-0.104469	-0.714840	0.497171
C204	C	0.145531	-0.464840	0.747171
C205	C	-0.552252	-1.214837	-0.002836
C206	C	-0.302252	-0.964837	0.247164
C207	C	-0.052252	-0.714837	0.497164
C208	C	0.197748	-0.464837	0.747164
C209	C	-0.552283	-0.964411	-0.253116
C210	C	-0.302283	-0.714411	-0.003116
C211	C	-0.052283	-0.464411	0.246884
C212	C	0.197717	-0.214411	0.496884
C213	C	-0.604499	-0.964420	-0.253104
C214	C	-0.354499	-0.714420	-0.003104
C215	C	-0.104499	-0.464420	0.246896
C216	C	0.145501	-0.214420	0.496896
C217	C	-0.630601	-1.027029	-0.190532
C218	C	-0.380601	-0.777029	0.059468
C219	C	-0.130601	-0.527029	0.309468
C220	C	0.119399	-0.277029	0.559468
N221	N	0.129191	-1.089665	-0.127967
N222	N	0.379191	-0.839665	0.122033
N223	N	0.629191	-0.589665	0.372033
N224	N	0.879191	-0.339665	0.622033
C225	C	-0.000065	-1.258221	-0.121553
C226	C	0.249935	-1.008221	0.128447
C227	C	0.499935	-0.758221	0.378447
C228	C	0.749935	-0.508221	0.628447
C229	C	-0.000067	-1.360602	-0.123541
C230	C	0.249933	-1.110602	0.126459
C231	C	0.499933	-0.860602	0.376459
C232	C	0.749933	-0.610602	0.626459
C233	C	-0.000064	-0.443748	-0.125154
C234	C	0.249936	-0.193748	0.124846
C235	C	0.499936	0.056252	0.374846
C236	C	0.749936	0.306252	0.624846
C237	C	-0.000057	-0.548056	-0.127187
C238	C	0.249943	-0.298056	0.122813
C239	C	0.499943	-0.048056	0.372813
C240	C	0.749943	0.201944	0.622813
C241	C	-0.000052	-0.631192	-0.128814
C242	C	0.249948	-0.381192	0.121186
C243	C	0.499948	-0.131192	0.371186
C244	C	0.749948	0.118808	0.621186
C245	C	-0.000046	-0.735507	-0.130847
C246	C	0.249954	-0.485507	0.119153
C247	C	0.499954	-0.235507	0.369153
C248	C	0.749954	0.014493	0.619153
C249	C	-0.000050	-1.083168	-0.296606
C250	C	0.249950	-0.833168	-0.046606
C251	C	0.499950	-0.583168	0.203394
C252	C	0.749950	-0.333168	0.453394
C253	C	-0.000047	-1.085156	-0.398987
C254	C	0.249953	-0.835156	-0.148987
C255	C	0.499953	-0.585156	0.101013
C256	C	0.749953	-0.335156	0.351013
C257	C	-0.000048	-1.086770	0.517868
C258	C	0.249952	-0.836770	0.767868
C259	C	0.499952	-0.586770	1.017868
C260	C	0.749952	-0.336770	1.267868
C261	C	-0.000052	-1.088803	0.413560
C262	C	0.249948	-0.838803	0.663560
C263	C	0.499948	-0.588803	0.913560
C264	C	0.749948	-0.338803	1.163560
C265	C	-0.000055	-1.090430	0.330423
C266	C	0.249945	-0.840430	0.580423
C267	C	0.499945	-0.590430	0.830423
C268	C	0.749945	-0.340430	1.080423
C269	C	-0.000058	-1.092463	0.226109
C270	C	0.249942	-0.842463	0.476109
C271	C	0.499942	-0.592463	0.726109
C272	C	0.749942	-0.342463	0.976109
H273	H	-0.134143	-1.203186	-0.014517
H274	H	0.115857	-0.953186	0.235483
H275	H	0.365857	-0.703186	0.485483
H276	H	0.615857	-0.453186	0.735483
H277	H	-0.469101	-0.913400	-0.304075
H278	H	-0.219101	-0.663400	-0.054075
H279	H	0.030899	-0.413400	0.195925
H280	H	0.280899	-0.163400	0.445925
Br281	Br	-0.757035	-1.237245	0.019520
Br282	Br	-0.507035	-0.987245	0.269520
Br283	Br	-0.257035	-0.737245	0.519520
Br284	Br	-0.007035	-0.487245	0.769520
H285	H	-0.374374	-0.913388	-0.304073
H286	H	-0.124374	-0.663388	-0.054073
H287	H	0.125626	-0.413388	0.195927
H288	H	0.375626	-0.163388	0.445927
Br289	Br	-0.119994	-0.942014	-0.275531
Br290	Br	0.130006	-0.692014	-0.025531
Br291	Br	0.380006	-0.442014	0.224469
Br292	Br	0.630006	-0.192014	0.474469
Br293	Br	-0.483234	-1.299810	0.082080
Br294	Br	-0.233234	-1.049810	0.332080
Br295	Br	0.016766	-0.799810	0.582080
Br296	Br	0.266766	-0.549810	0.832080
Br297	Br	-0.880125	-1.237241	0.019526
Br298	Br	-0.630125	-0.987241	0.269526
Br299	Br	-0.380125	-0.737241	0.519526
Br300	Br	-0.130125	-0.487241	0.769526
H301	H	-0.865967	-0.976082	-0.241498
H302	H	-0.615967	-0.726082	0.008502
H303	H	-0.365967	-0.476082	0.258502
H304	H	-0.115967	-0.226082	0.508502
H305	H	-0.228905	-0.976011	-0.241558
H306	H	0.021095	-0.726011	0.008442
H307	H	0.271095	-0.476011	0.258442
H308	H	0.521095	-0.226011	0.508442
H309	H	-0.771242	-0.976056	-0.241495
H310	H	-0.521242	-0.726056	0.008505
H311	H	-0.271242	-0.476056	0.258505
H312	H	-0.021242	-0.226056	0.508505
H313	H	-0.530993	-1.265821	0.048113
H314	H	-0.280993	-1.015821	0.298113
H315	H	-0.030993	-0.765821	0.548113
H316	H	0.219007	-0.515821	0.798113
H317	H	-0.625729	-1.265822	0.048117
H318	H	-0.375729	-1.015822	0.298117
H319	H	-0.125729	-0.765822	0.548117
H320	H	0.124271	-0.515822	0.798117
Br321	Br	-0.639936	-0.879444	-0.338032
Br322	Br	-0.389936	-0.629444	-0.088032
Br323	Br	-0.139936	-0.379444	0.161968
Br324	Br	0.110064	-0.129444	0.411968
H325	H	-0.228869	-1.203189	-0.014487
H326	H	0.021131	-0.953189	0.235513
H327	H	0.271131	-0.703189	0.485513
H328	H	0.521131	-0.453189	0.735513
Br329	Br	-0.360167	-1.299800	0.082063
Br330	Br	-0.110167	-1.049800	0.332063
Br331	Br	0.139833	-0.799800	0.582063
Br332	Br	0.389833	-0.549800	0.832063
Br333	Br	-0.516867	-0.879434	-0.338042
Br334	Br	-0.266867	-0.629434	-0.088042
Br335	Br	-0.016867	-0.379434	0.161958
Br336	Br	0.233133	-0.129434	0.411958
