data_functionalizedCrystal
_audit_creation_method	'MofGen! by Chris Wilmer'
_symmetry_space_group_name_H-M	'P1'
_symmetry_Int_Tables_number	1
_symmetry_cell_setting	triclinic
loop_
_symmetry_equiv_pos_as_xyz
  x,y,z
_cell_length_a	17.038272
_cell_length_b	16.098538
_cell_length_c	14.044220
_cell_angle_alpha	87.028703
_cell_angle_beta	92.150217
_cell_angle_gamma	92.930266
loop_
_atom_site_label
_atom_site_type_symbol
_atom_site_fract_x
_atom_site_fract_y
_atom_site_fract_z
O1	O	1.055067	0.069155	0.203030
O2	O	1.555067	0.569155	0.703030
O3	O	0.827207	0.069179	0.199741
O4	O	1.327207	0.569179	0.699741
O5	O	0.937717	0.069159	0.063125
O6	O	1.437717	0.569159	0.563125
O7	O	0.944558	0.069175	0.339645
O8	O	1.444558	0.569175	0.839645
O9	O	0.931259	-0.069353	0.071072
O10	O	1.431259	0.430647	0.571072
O11	O	0.820750	-0.069333	0.207688
O12	O	1.320750	0.430667	0.707688
O13	O	1.048609	-0.069357	0.210976
O14	O	1.548609	0.430643	0.710976
Zn15	Zn	0.933654	-0.091337	0.210594
Zn16	Zn	1.433654	0.408663	0.710594
Zn17	Zn	0.942162	0.091158	0.200124
Zn18	Zn	1.442162	0.591158	0.700124
O19	O	0.938100	-0.069337	0.347592
O20	O	1.438100	0.430663	0.847592
C21	C	0.794641	-0.000074	0.200725
C22	C	1.294641	0.499926	0.700725
C23	C	0.707225	-0.000065	0.191805
C24	C	1.207225	0.499935	0.691805
C25	C	0.662840	-0.000061	0.273693
C26	C	1.162840	0.499939	0.773693
C27	C	0.580702	-0.000073	0.265308
C28	C	1.080702	0.499927	0.765308
C29	C	0.542951	-0.000083	0.175033
C30	C	1.042951	0.499917	0.675033
C31	C	0.587342	-0.000089	0.093139
C32	C	1.087342	0.499911	0.593139
C33	C	0.669478	-0.000083	0.101526
C34	C	1.169478	0.499917	0.601526
C35	C	0.295119	-0.000107	0.145405
C36	C	0.795119	0.499893	0.645405
C37	C	0.212977	-0.000110	0.137024
C38	C	0.712977	0.499890	0.637024
C39	C	0.206342	-0.000095	0.309194
C40	C	0.706342	0.499905	0.809194
C41	C	0.288481	-0.000084	0.317572
C42	C	0.788481	0.499916	0.817572
C43	C	0.332864	-0.000095	0.235678
C44	C	0.832864	0.499905	0.735678
C45	C	0.458993	-0.000092	0.166460
C46	C	0.958993	0.499908	0.666460
C47	C	0.416820	-0.000091	0.244253
C48	C	0.916820	0.499909	0.744253
N49	N	0.927853	-0.215885	0.217740
N50	N	1.427853	0.284115	0.717740
C51	C	0.974778	-0.259478	0.159778
C52	C	1.474778	0.240522	0.659778
C53	C	0.970728	-0.346667	0.164786
C54	C	1.470728	0.153333	0.664786
C55	C	0.919756	-0.390260	0.227762
C56	C	1.419756	0.109740	0.727762
C57	C	0.872826	-0.346660	0.285726
C58	C	1.372826	0.153340	0.785726
C59	C	0.876873	-0.259473	0.280712
C60	C	1.376873	0.240527	0.780712
C61	C	0.905086	-0.653507	0.245921
C62	C	1.405086	-0.153507	0.745921
C63	C	0.901044	-0.740700	0.250933
C64	C	1.401044	-0.240700	0.750933
C65	C	0.998945	-0.740700	0.129991
C66	C	1.498945	-0.240700	0.629991
C67	C	1.002991	-0.653512	0.124987
C68	C	1.502991	-0.153512	0.624987
C69	C	0.956058	-0.609920	0.182947
C70	C	1.456058	-0.109920	0.682947
C71	C	0.915617	-0.479380	0.232885
C72	C	1.415617	0.020620	0.732885
C73	C	0.960193	-0.520801	0.177819
C74	C	1.460193	-0.020801	0.677819
C75	C	1.081175	-0.000103	0.209993
C76	C	1.581175	0.499897	0.709993
C77	C	1.168592	-0.000106	0.218912
C78	C	1.668592	0.499894	0.718912
C79	C	0.931493	-0.000097	0.031543
C80	C	1.431493	0.499903	0.531543
C81	C	0.922562	-0.000097	-0.074403
C82	C	1.422562	0.499903	0.425597
N83	N	0.947969	0.215707	0.192971
N84	N	1.447969	0.715707	0.692971
C85	C	0.906234	-0.000083	-0.268382
C86	C	1.406234	0.499917	0.231618
C87	C	0.969579	-0.000088	-0.320907
C88	C	1.469579	0.499912	0.179093
C89	C	0.960494	-0.000080	-0.428843
C90	C	1.460494	0.499920	0.071157
C91	C	0.915318	-0.000091	-0.160435
C92	C	1.415318	0.499909	0.339565
C93	C	0.944323	-0.000079	0.379175
C94	C	1.444323	0.499921	0.879175
C95	C	0.953255	-0.000074	0.485120
C96	C	1.453255	0.499926	0.985120
H97	H	0.556598	-0.000109	0.019636
H98	H	1.056598	0.499891	0.519636
F99	F	0.703009	-0.000045	0.369777
F100	F	1.203009	0.499955	0.869777
F101	F	0.533467	-0.000065	0.352465
F102	F	1.033467	0.499935	0.852465
H103	H	1.008937	-0.382160	0.117589
H104	H	1.508937	0.117840	0.617589
H105	H	0.428246	-0.000124	0.092959
H106	H	0.928246	0.499876	0.592959
H107	H	0.845185	-0.000075	-0.304475
H108	H	1.345185	0.499925	0.195525
H109	H	0.319212	-0.000066	0.391083
H110	H	0.819212	0.499934	0.891083
H111	H	0.705616	-0.000086	0.034844
H112	H	1.205616	0.499914	0.534844
H113	H	0.170196	-0.000088	0.375867
H114	H	0.670196	0.499912	0.875867
H115	H	0.331247	-0.000116	0.078720
H116	H	0.831247	0.499884	0.578720
F117	F	0.172801	-0.000135	0.040938
F118	F	0.672801	0.499865	0.540938
H119	H	0.447560	-0.000088	0.317755
H120	H	0.947560	0.499912	0.817755
F121	F	1.029033	-0.213092	0.092755
F122	F	1.529033	0.286908	0.592755
F123	F	1.057241	-0.607118	0.057963
F124	F	1.557241	-0.107118	0.557963
H125	H	0.859535	-0.776189	0.302219
H126	H	1.359535	-0.276189	0.802219
F127	F	1.048890	-0.787099	0.068308
F128	F	1.548890	-0.287099	0.568308
F129	F	1.049382	-0.000103	-0.273731
F130	F	1.549382	0.499897	0.226269
F131	F	0.855139	-0.607120	0.307609
F132	F	1.355139	-0.107120	0.807609
H133	H	0.838661	-0.223980	0.327909
H134	H	1.338661	0.276020	0.827909
F135	F	0.818574	-0.393056	0.352745
F136	F	1.318574	0.106944	0.852745
H137	H	1.001691	-0.485305	0.126541
H138	H	1.501691	0.014695	0.626541
H139	H	0.874116	-0.514881	0.284163
H140	H	1.374116	-0.014881	0.784163
