data_functionalizedCrystal
_audit_creation_method	'MofGen! by Chris Wilmer'
_symmetry_space_group_name_H-M	'P1'
_symmetry_Int_Tables_number	1
_symmetry_cell_setting	triclinic
loop_
_symmetry_equiv_pos_as_xyz
  x,y,z
_cell_length_a	8.597187
_cell_length_b	10.489711
_cell_length_c	7.088929
_cell_angle_alpha	83.717074
_cell_angle_beta	88.663715
_cell_angle_gamma	84.931269
loop_
_atom_site_label
_atom_site_type_symbol
_atom_site_fract_x
_atom_site_fract_y
_atom_site_fract_z
O1	O	2.034974	0.230555	-0.494174
O2	O	1.585628	0.239147	-0.420159
O3	O	1.820549	0.049441	-0.458860
O4	O	1.800053	0.420262	-0.455473
O5	O	1.851944	0.024029	-0.146056
O6	O	1.617023	0.213736	-0.107356
O7	O	2.066369	0.205144	-0.181370
Cu8	Cu	1.844562	0.207119	-0.115802
Cu9	Cu	1.807435	0.237171	-0.485728
O10	O	1.831448	0.394850	-0.142670
C11	C	1.543787	0.224103	-0.254280
C12	C	1.372341	0.217118	-0.226041
C13	C	1.834708	-0.010825	-0.302210
C14	C	1.830104	-0.152540	-0.301468
C15	C	1.971380	-0.332319	-0.324719
C16	C	1.916290	-0.254007	-0.158868
C17	C	1.885300	-0.228978	-0.467262
C18	C	1.766753	-0.326733	-0.134090
C19	C	1.735769	-0.301702	-0.442625
C20	C	1.680575	-0.223423	-0.276719
C21	C	2.108210	0.220188	-0.347253
C22	C	2.279655	0.227174	-0.375505
C23	C	1.817289	0.455117	-0.299324
C24	C	1.821892	0.596833	-0.300078
N25	N	1.870687	0.185982	0.144383
N26	N	1.781322	0.258299	-0.745914
H27	H	1.331472	0.241127	-0.525071
N28	N	1.303723	0.198635	-0.027931
H29	H	1.389928	0.192914	0.067800
H30	H	1.225970	0.274038	-0.007677
N31	N	1.993394	0.086720	0.232317
H32	H	1.971069	-0.001524	0.201265
H33	H	2.099712	0.107077	0.179987
N34	N	2.134147	-0.395154	-0.351344
H35	H	2.202115	-0.378315	-0.243999
H36	H	2.129584	-0.490993	-0.351873
N37	N	2.017403	-0.225422	0.000035
H38	H	2.127245	-0.265348	-0.018174
H39	H	2.018858	-0.129179	-0.001008
H40	H	1.716652	-0.369314	0.006853
H41	H	1.557603	-0.176236	-0.256377
H42	H	1.659481	-0.323296	-0.562609
H43	H	1.935494	-0.186257	-0.608069
H44	H	1.688707	0.333241	0.187697
