data_functionalizedCrystal
_audit_creation_method	'MofGen! by Chris Wilmer'
_symmetry_space_group_name_H-M	'P1'
_symmetry_Int_Tables_number	1
_symmetry_cell_setting	triclinic
loop_
_symmetry_equiv_pos_as_xyz
  x,y,z
_cell_length_a	16.120484
_cell_length_b	18.215407
_cell_length_c	18.215399
_cell_angle_alpha	90.017777
_cell_angle_beta	92.869789
_cell_angle_gamma	87.078910
loop_
_atom_site_label
_atom_site_type_symbol
_atom_site_fract_x
_atom_site_fract_y
_atom_site_fract_z
Zn1	Zn	-0.332012	-1.110208	-0.430925
Zn2	Zn	-0.471433	-1.103874	-0.314094
Zn3	Zn	-0.332028	-0.987140	-0.307877
Zn4	Zn	-0.471375	-0.980867	-0.437121
O5	O	-0.401712	-1.045522	-0.372504
O6	O	-0.350525	-1.212351	-0.415436
O7	O	-0.452972	-1.088364	-0.210286
O8	O	-0.215360	-1.008741	-0.319005
O9	O	-0.452957	-1.207698	-0.329601
O10	O	-0.215349	-1.099158	-0.409407
O11	O	-0.350551	-1.002599	-0.205719
O12	O	-0.350495	-0.883324	-0.325013
O13	O	-0.452858	-0.998050	-0.539282
O14	O	-0.452873	-0.878716	-0.419968
O15	O	-0.350468	-1.093076	-0.534730
O16	O	-0.588091	-1.082281	-0.335609
O17	O	-0.588048	-0.991908	-0.425996
C18	C	-0.401680	-0.854317	-0.372488
C19	C	-0.401686	-0.772518	-0.372500
C20	C	-0.348453	-0.586742	-0.417272
C21	C	-0.348457	-0.509883	-0.417274
C22	C	-0.454959	-0.505055	-0.327742
C23	C	-0.454950	-0.581913	-0.327736
C24	C	-0.401698	-0.622754	-0.372506
C25	C	-0.401712	-0.469037	-0.372513
C26	C	-0.401717	-0.385704	-0.372515
C27	C	-0.401692	-0.706093	-0.372503
C28	C	-0.618320	-1.035747	-0.382165
C29	C	-0.710985	-1.031632	-0.386323
C30	C	-0.880647	-1.024125	-0.393929
C31	C	-0.921937	-1.067052	-0.351092
C32	C	-1.016343	-1.062874	-0.355324
C33	C	-0.786233	-1.028301	-0.389698
C34	C	-0.184259	-1.055356	-0.362822
C35	C	-0.091593	-1.059546	-0.358695
C36	C	-0.401655	-1.045570	-0.564455
C37	C	-0.401630	-1.045590	-0.646252
C38	C	-0.401736	-0.237474	-0.372518
C39	C	-0.401724	-0.319273	-0.372519
C40	C	-0.348266	-1.095089	-0.832075
C41	C	-0.348242	-1.095099	-0.908933
C42	C	-0.454865	-0.996148	-0.913662
C43	C	-0.454885	-0.996136	-0.836805
C44	C	-0.401587	-1.045610	-0.796014
C45	C	-0.401543	-1.045633	-0.949728
C46	C	-0.401517	-1.045643	-1.033061
C47	C	-0.401611	-1.045599	-0.712676
C48	C	-0.401709	-1.045520	-0.181298
C49	C	-0.401499	-1.045653	-0.099490
H50	H	-0.305098	-0.480565	-0.453726
H51	H	-0.304865	-1.135372	-0.798865
H52	H	-0.498316	-0.471793	-0.291293
H53	H	-0.305089	-0.619992	-0.453724
C54	C	-0.513526	-0.621530	-0.278493
H55	H	-0.545251	-0.586199	-0.251839
H56	H	-0.481586	-0.652938	-0.245047
H57	H	-0.549888	-0.649885	-0.308220
H58	H	-0.498304	-0.955839	-0.807444
H59	H	-0.304822	-1.135389	-0.938290
H60	H	-0.886387	-1.106939	-0.311239
H61	H	-0.498261	-0.955870	-0.946884
H62	H	-0.916195	-0.984239	-0.433777
