data_functionalizedCrystal
_audit_creation_method	'MofGen! by Chris Wilmer'
_symmetry_space_group_name_H-M	'P1'
_symmetry_Int_Tables_number	1
_symmetry_cell_setting	triclinic
loop_
_symmetry_equiv_pos_as_xyz
  x,y,z
_cell_length_a	19.188933
_cell_length_b	23.532357
_cell_length_c	18.266242
_cell_angle_alpha	89.988103
_cell_angle_beta	89.992377
_cell_angle_gamma	82.986930
loop_
_atom_site_label
_atom_site_type_symbol
_atom_site_fract_x
_atom_site_fract_y
_atom_site_fract_z
O1	O	0.925906	0.071109	-0.060865
O2	O	1.425906	0.571109	0.439135
O3	O	0.722562	0.080679	-0.060873
O4	O	1.222562	0.580679	0.439127
O5	O	0.830384	-0.007027	-0.060854
O6	O	1.330384	0.492973	0.439146
O7	O	0.818084	0.158815	-0.060885
O8	O	1.318084	0.658815	0.439115
O9	O	0.830366	-0.007031	0.060908
O10	O	1.330366	0.492969	0.560908
O11	O	0.722544	0.080675	0.060889
O12	O	1.222544	0.580675	0.560889
O13	O	0.925888	0.071104	0.060897
O14	O	1.425888	0.571104	0.560897
Zn15	Zn	0.824213	0.075889	0.080225
Zn16	Zn	1.324213	0.575889	0.580225
Zn17	Zn	0.824237	0.075895	-0.080202
Zn18	Zn	1.324237	0.575895	0.419798
O19	O	0.818066	0.158810	0.060877
O20	O	1.318066	0.658810	0.560877
C21	C	0.696543	0.080367	0.000007
C22	C	1.196543	0.580367	0.500007
C23	C	0.619042	0.079436	0.000004
C24	C	1.119042	0.579436	0.500004
C25	C	0.830067	-0.028246	0.000029
C26	C	1.330067	0.471754	0.500029
C27	C	0.829142	-0.091467	0.000036
C28	C	1.329142	0.408533	0.500036
C29	C	0.065819	0.072794	-0.066359
C30	C	0.565819	0.572794	0.433641
C31	C	0.138640	0.073666	-0.066362
C32	C	0.638640	0.573666	0.433638
C33	C	0.175046	0.074102	0.000010
C34	C	0.675046	0.574102	0.500010
C35	C	0.138627	0.073651	0.066390
C36	C	0.638627	0.573651	0.566390
C37	C	0.065808	0.072774	0.066391
C38	C	0.565808	0.572774	0.566391
N39	N	0.283943	0.107885	0.049408
N40	N	0.783943	0.607885	0.549408
N41	N	0.353118	0.108719	0.049402
N42	N	0.853118	0.608719	0.549402
C43	C	0.394445	0.076743	0.000011
C44	C	0.894445	0.576743	0.500011
N45	N	0.363984	0.043908	-0.049386
N46	N	0.863984	0.543908	0.450614
N47	N	0.294802	0.043076	-0.049382
N48	N	0.794802	0.543076	0.450618
C49	C	0.254006	0.075052	0.000016
C50	C	0.754006	0.575052	0.500016
C51	C	0.509818	0.078133	-0.066368
C52	C	1.009818	0.578133	0.433632
C53	C	0.582641	0.079001	-0.066368
C54	C	1.082641	0.579001	0.433632
C55	C	0.582625	0.078993	0.066386
C56	C	1.082625	0.578993	0.566386
C57	C	0.509804	0.078119	0.066384
C58	C	1.009804	0.578119	0.566384
C59	C	0.473404	0.077692	0.000005
C60	C	0.973404	0.577692	0.500005
C61	C	0.823345	-0.483488	-0.066376
C62	C	1.323345	0.016512	0.433624
C63	C	0.822466	-0.542889	-0.066380
C64	C	1.322466	-0.042889	0.433620
O65	O	0.821996	-0.573604	-0.122828
O66	O	1.321996	-0.073604	0.377172
N67	N	0.822020	-0.572604	-0.000009
N68	N	1.322020	-0.072604	0.499991
C69	C	0.822446	-0.542913	0.066371
C70	C	1.322446	-0.042913	0.566371
O71	O	0.821985	-0.573642	0.122825
O72	O	1.321985	-0.073642	0.622825
C73	C	0.823320	-0.483512	0.066375
C74	C	1.323320	0.016488	0.566375
C75	C	0.823773	-0.453802	-0.000001
C76	C	1.323773	0.046198	0.499999
C77	C	0.823797	-0.453777	-0.132747
C78	C	1.323797	0.046223	0.367253
C79	C	0.824678	-0.394380	-0.132742
C80	C	1.324678	0.105620	0.367258
C81	C	0.825106	-0.364694	-0.066367
C82	C	1.325106	0.135306	0.433633
C83	C	0.824654	-0.394404	0.000003
C84	C	1.324654	0.105596	0.500003
C85	C	0.823742	-0.453822	0.132754
C86	C	1.323742	0.046178	0.632754
C87	C	0.824615	-0.394417	0.132752
C88	C	1.324615	0.105583	0.632752
C89	C	0.825068	-0.364707	0.066376
C90	C	1.325068	0.135293	0.566376
C91	C	0.825963	-0.305321	0.066383
C92	C	1.325963	0.194679	0.566383
N93	N	0.826409	-0.275607	0.000011
N94	N	1.326409	0.224393	0.500011
C95	C	0.825980	-0.305293	-0.066364
C96	C	1.325980	0.194707	0.433636
C97	C	0.820609	-0.667658	0.066359
C98	C	1.320609	-0.167658	0.566359
C99	C	0.819740	-0.727059	0.066356
C100	C	1.319740	-0.227059	0.566356
C101	C	0.819758	-0.727031	-0.066396
C102	C	1.319758	-0.227031	0.433604
C103	C	0.820632	-0.667630	-0.066392
C104	C	1.320632	-0.167630	0.433608
C105	C	0.821055	-0.637944	-0.000013
C106	C	1.321055	-0.137944	0.499987
C107	C	0.827830	-0.180555	-0.066349
C108	C	1.327830	0.319445	0.433651
C109	C	0.828714	-0.121153	-0.066339
C110	C	1.328714	0.378847	0.433661
C111	C	0.828692	-0.121186	0.066412
C112	C	1.328692	0.378814	0.566412
C113	C	0.827812	-0.180583	0.066403
C114	C	1.327812	0.319417	0.566403
C115	C	0.827379	-0.210266	0.000016
C116	C	1.327379	0.289734	0.500016
O117	O	0.826431	-0.274568	0.122801
O118	O	1.326431	0.225432	0.622801
O119	O	0.826432	-0.274556	-0.122808
O120	O	1.326432	0.225444	0.377192
C121	C	0.951907	0.071417	0.000015
C122	C	1.451907	0.571417	0.500015
C123	C	1.029408	0.072348	0.000012
C124	C	1.529408	0.572348	0.500012
C125	C	0.818382	0.180030	-0.000008
C126	C	1.318382	0.680030	0.499992
C127	C	0.819307	0.243250	-0.000019
C128	C	1.319307	0.743250	0.499981
N129	N	0.824202	0.075885	0.189712
N130	N	1.324202	0.575885	0.689712
N131	N	0.824254	0.075895	-0.189689
N132	N	1.324254	0.575895	0.310311
C133	C	0.871961	0.037067	0.228029
C134	C	1.371961	0.537067	0.728029
C135	C	0.871965	0.037065	0.304674
C136	C	1.371965	0.537065	0.804674
C137	C	0.824217	0.075889	0.342999
C138	C	1.324217	0.575889	0.842999
C139	C	0.776449	0.114709	0.304672
C140	C	1.276449	0.614709	0.804672
C141	C	0.776441	0.114707	0.228029
C142	C	1.276441	0.614707	0.728029
N143	N	0.814970	0.126305	0.463322
N144	N	1.314970	0.626305	0.963322
N145	N	0.814981	0.126306	0.536130
N146	N	1.314981	0.626306	1.036130
C147	C	0.824237	0.075897	0.573921
C148	C	1.324237	0.575897	1.073921
N149	N	0.833494	0.025487	0.536154
N150	N	1.333494	0.525487	1.036154
N151	N	0.833486	0.025487	0.463339
N152	N	1.333486	0.525487	0.963339
C153	C	0.824220	0.075896	0.426106
C154	C	1.324220	0.575896	0.926106
C155	C	0.872003	0.037074	0.695346
C156	C	1.372003	0.537074	1.195346
C157	C	0.872003	0.037071	0.771992
C158	C	1.372003	0.537071	1.271992
C159	C	0.776490	0.114720	0.771989
C160	C	1.276490	0.614720	1.271989
C161	C	0.776487	0.114719	0.695344
C162	C	1.276487	0.614719	1.195344
C163	C	0.824247	0.075896	0.657027
C164	C	1.324247	0.575896	1.157027
H165	H	0.036187	0.072445	-0.120410
H166	H	0.536187	0.572445	0.379590
Br167	Br	0.711681	0.167405	0.823994
Br168	Br	1.211681	0.667405	1.323994
H169	H	0.737571	0.146320	0.335880
H170	H	1.237571	0.646320	0.835880
H171	H	0.737600	0.146329	0.664144
H172	H	1.237600	0.646329	1.164144
Br173	Br	0.632027	0.079572	0.156464
Br174	Br	1.132027	0.579572	0.656464
Br175	Br	0.188066	0.074272	-0.156444
Br176	Br	0.688066	0.574272	0.343556
H177	H	0.480158	0.077757	0.120431
H178	H	0.980158	0.577757	0.620431
Br179	Br	0.632059	0.079599	-0.156452
Br180	Br	1.132059	0.579599	0.343548
Br181	Br	0.936817	-0.015615	0.643342
Br182	Br	1.436817	0.484385	1.143342
Br183	Br	0.188033	0.074238	0.156468
Br184	Br	0.688033	0.574238	0.656468
H185	H	0.829084	-0.096965	-0.120393
H186	H	1.329084	0.403035	0.379607
H187	H	0.827450	-0.204775	0.120451
H188	H	1.327450	0.295225	0.620451
Br189	Br	0.829275	-0.080886	0.156488
Br190	Br	1.329275	0.419114	0.656488
Br191	Br	0.711620	0.167391	0.176022
Br192	Br	1.211620	0.667391	0.676022
Br193	Br	0.827242	-0.220829	-0.156446
Br194	Br	1.327242	0.279171	0.343554
H195	H	0.825044	-0.370194	-0.186792
H196	H	1.325044	0.129806	0.313208
Br197	Br	0.823215	-0.494054	-0.222840
Br198	Br	1.323215	0.005946	0.277160
H199	H	0.823374	-0.478003	0.186804
H200	H	1.323374	0.021997	0.686804
Br201	Br	0.016389	0.072169	0.156474
Br202	Br	0.516389	0.572169	0.656474
Br203	Br	0.936817	-0.015619	0.823999
Br204	Br	1.436817	0.484381	1.323999
Br205	Br	0.460414	0.077551	-0.156451
Br206	Br	0.960414	0.577551	0.343549
H207	H	0.821000	-0.643443	-0.120441
H208	H	1.321000	-0.143443	0.379559
H209	H	0.819407	-0.751212	-0.120442
H210	H	1.319407	-0.251212	0.379558
H211	H	0.910848	0.005455	0.196834
H212	H	1.410848	0.505455	0.696834
Br213	Br	0.936785	-0.015621	0.356686
Br214	Br	1.436785	0.484379	0.856686
H215	H	0.820955	-0.643492	0.120416
H216	H	1.320955	-0.143492	0.620416
Br217	Br	0.819142	-0.767375	0.156441
Br218	Br	1.319142	-0.267375	0.656441
H219	H	0.824949	-0.370249	0.186807
H220	H	1.324949	0.129751	0.686807
