data_functionalizedCrystal
_audit_creation_method	'MofGen! by Chris Wilmer'
_symmetry_space_group_name_H-M	'P1'
_symmetry_Int_Tables_number	1
_symmetry_cell_setting	triclinic
loop_
_symmetry_equiv_pos_as_xyz
  x,y,z
_cell_length_a	15.297327
_cell_length_b	18.215407
_cell_length_c	18.215399
_cell_angle_alpha	90.017587
_cell_angle_beta	99.645421
_cell_angle_gamma	80.292992
loop_
_atom_site_label
_atom_site_type_symbol
_atom_site_fract_x
_atom_site_fract_y
_atom_site_fract_z
Zn1	Zn	-0.359154	-1.074337	-0.466807
Zn2	Zn	-0.510031	-1.052947	-0.365029
Zn3	Zn	-0.359188	-0.951271	-0.343757
Zn4	Zn	-0.509973	-0.929939	-0.488044
O5	O	-0.434587	-1.002124	-0.415909
O6	O	-0.379178	-1.174482	-0.453320
O7	O	-0.490060	-1.039436	-0.259228
O8	O	-0.232937	-0.985475	-0.342290
O9	O	-0.490027	-1.158768	-0.378544
O10	O	-0.232912	-1.075891	-0.432694
O11	O	-0.379237	-0.964734	-0.243600
O12	O	-0.379181	-0.845458	-0.362883
O13	O	-0.489928	-0.949118	-0.588206
O14	O	-0.489961	-0.829786	-0.468890
O15	O	-0.379122	-1.055206	-0.572603
O16	O	-0.636270	-1.018751	-0.399137
O17	O	-0.636228	-0.928377	-0.489516
C18	C	-0.434569	-0.810920	-0.415883
C19	C	-0.434583	-0.729119	-0.415892
C20	C	-0.492356	-0.532771	-0.471041
C21	C	-0.492357	-0.455912	-0.471050
C22	C	-0.376823	-0.472227	-0.360781
C23	C	-0.376817	-0.549085	-0.360776
C24	C	-0.434589	-0.579355	-0.415906
C25	C	-0.434596	-0.425637	-0.415919
C26	C	-0.434598	-0.342304	-0.415928
C27	C	-0.434586	-0.662694	-0.415898
C28	C	-0.668983	-0.968948	-0.448955
C29	C	-0.769259	-0.954823	-0.463117
C30	C	-1.051883	-1.103381	-0.314943
C31	C	-0.957669	-1.116652	-0.301634
C32	C	-0.910562	-1.076196	-0.342003
C33	C	-0.957678	-1.022467	-0.395685
C34	C	-1.051901	-1.009191	-0.408992
C35	C	-0.910580	-0.982006	-0.436052
C36	C	-0.957696	-0.928276	-0.489734
C37	C	-1.051910	-0.915003	-0.503038
C38	C	-1.099017	-0.955459	-0.462668
C39	C	-0.816357	-0.995282	-0.422745
C40	C	-0.816375	-0.901091	-0.516794
C41	C	-0.910589	-0.887821	-0.530103
C42	C	-0.199275	-1.035448	-0.382750
C43	C	-0.098999	-1.049649	-0.368620
C44	C	-0.434515	-1.002168	-0.607852
C45	C	-0.434484	-1.002188	-0.689647
C46	C	-0.434602	-0.194074	-0.415932
C47	C	-0.434602	-0.275873	-0.415933
C48	C	-0.376739	-0.963336	-0.869699
C49	C	-0.376721	-0.963351	-0.946555
C50	C	-0.492121	-1.041142	-0.962818
C51	C	-0.492143	-1.041122	-0.885963
C52	C	-0.434447	-1.002221	-0.839405
C53	C	-0.434407	-1.002256	-0.993116
C54	C	-0.434388	-1.002273	-1.076447
C55	C	-0.434467	-1.002203	-0.756069
C56	C	-0.434593	-1.002130	-0.224704
C57	C	-0.434370	-1.002290	-0.142874
H58	H	-0.329789	-0.447572	-0.315895
N59	N	-0.314514	-0.599341	-0.301307
H60	H	-0.272752	-0.637148	-0.325385
H61	H	-0.277979	-0.568454	-0.266395
H62	H	-0.329730	-0.931686	-0.971216
H63	H	-0.539396	-0.417986	-0.515947
H64	H	-0.778003	-1.039029	-0.379037
H65	H	-0.833848	-1.087004	-0.331163
N66	N	-0.906852	-1.174606	-0.243747
H67	H	-0.950988	-1.198224	-0.220196
H68	H	-0.867706	-1.214157	-0.268214
N69	N	-0.554351	-1.083095	-1.013034
H70	H	-0.545582	-1.077209	-1.066318
H71	H	-0.540322	-1.137640	-0.997629
N72	N	-1.102688	-1.146998	-0.271393
H73	H	-1.169524	-1.130430	-0.287966
H74	H	-1.086169	-1.201883	-0.280553
H75	H	-0.778021	-0.868147	-0.549665
H76	H	-1.175734	-0.944658	-0.473504
H77	H	-0.329759	-0.931660	-0.831793
H78	H	-0.539394	-0.557414	-0.515933
H79	H	-1.090270	-0.871244	-0.546741
H80	H	-0.948964	-0.844073	-0.573811
N81	N	-0.554393	-1.083060	-0.853285
H82	H	-0.590936	-1.107710	-0.894440
H83	H	-0.517683	-1.122307	-0.816226
