data_functionalizedCrystal
_audit_creation_method	'MofGen! by Chris Wilmer'
_symmetry_space_group_name_H-M	'P1'
_symmetry_Int_Tables_number	1
_symmetry_cell_setting	triclinic
loop_
_symmetry_equiv_pos_as_xyz
  x,y,z
_cell_length_a	15.298068
_cell_length_b	16.625546
_cell_length_c	15.296720
_cell_angle_alpha	99.642470
_cell_angle_beta	88.354818
_cell_angle_gamma	99.681772
loop_
_atom_site_label
_atom_site_type_symbol
_atom_site_fract_x
_atom_site_fract_y
_atom_site_fract_z
Zn1	Zn	1.253380	-0.239861	-0.727351
Zn2	Zn	1.753380	0.260139	-0.227351
Zn3	Zn	1.278643	-0.348150	-0.580877
Zn4	Zn	1.778643	0.151850	-0.080877
Zn5	Zn	1.132260	-0.232027	-0.555519
Zn6	Zn	1.632260	0.267973	-0.055519
Zn7	Zn	1.106872	-0.393352	-0.701898
Zn8	Zn	1.606872	0.106648	-0.201898
O9	O	1.192789	-0.303347	-0.641411
O10	O	1.692789	0.196653	-0.141411
O11	O	1.379307	-0.238588	-0.729186
O12	O	1.879307	0.261412	-0.229186
O13	O	1.280422	-0.310550	-0.454952
O14	O	1.780422	0.189450	0.045048
O15	O	1.148379	-0.120232	-0.578353
O16	O	1.648379	0.379768	-0.078353
O17	O	1.397867	-0.318147	-0.621572
O18	O	1.897867	0.181853	-0.121572
O19	O	1.237365	-0.125988	-0.704597
O20	O	1.737365	0.374012	-0.204597
O21	O	1.172875	-0.225235	-0.436322
O22	O	1.672875	0.274765	0.063678
O23	O	1.006316	-0.269065	-0.553671
O24	O	1.506316	0.230935	-0.053671
O25	O	1.105109	-0.395187	-0.827835
O26	O	1.605109	0.104813	-0.327835
O27	O	0.987664	-0.387590	-0.661215
O28	O	1.487664	0.112410	-0.161215
O29	O	1.212748	-0.282418	-0.846535
O30	O	1.712748	0.217582	-0.346535
O31	O	1.255805	-0.466980	-0.596890
O32	O	1.755805	0.033020	-0.096890
O33	O	1.129606	-0.500190	-0.685804
O34	O	1.629606	-0.000190	-0.185804
C35	C	0.965208	-0.332383	-0.601930
C36	C	1.465208	0.167617	-0.101930
C37	C	0.867844	-0.344828	-0.585061
C38	C	1.367844	0.155172	-0.085061
C39	C	0.554679	-0.214606	-0.761981
C40	C	1.054679	0.285394	-0.261981
C41	C	0.646156	-0.202916	-0.777836
C42	C	1.146156	0.297084	-0.277836
C43	C	0.701583	-0.238393	-0.729643
C44	C	1.201583	0.261607	-0.229643
C45	C	0.665523	-0.285561	-0.665594
C46	C	1.165523	0.214439	-0.165594
C47	C	0.574036	-0.297257	-0.649742
C48	C	1.074036	0.202743	-0.149742
C49	C	0.720939	-0.321044	-0.617404
C50	C	1.220939	0.178956	-0.117404
C51	C	0.684880	-0.368213	-0.553355
C52	C	1.184880	0.131787	-0.053355
C53	C	0.593402	-0.379906	-0.537506
C54	C	1.093402	0.120094	-0.037506
C55	C	0.537975	-0.344429	-0.585698
C56	C	1.037975	0.155571	-0.085698
C57	C	0.812426	-0.309348	-0.633256
C58	C	1.312426	0.190652	-0.133256
C59	C	0.831783	-0.392000	-0.521017
C60	C	1.331783	0.108000	-0.021017
C61	C	0.740306	-0.403689	-0.505162
C62	C	1.240306	0.096311	-0.005162
C63	C	1.192712	-0.512842	-0.641360
C64	C	1.692712	-0.012842	-0.141360
C65	C	1.192754	-0.602460	-0.641381
C66	C	1.692754	-0.102460	-0.141381
C67	C	1.192892	-0.930633	-0.641499
C68	C	1.692892	-0.430633	-0.141499
C69	C	1.192850	-0.839326	-0.641468
C70	C	1.692850	-0.339326	-0.141468
C71	C	1.192822	-0.766549	-0.641440
C72	C	1.692822	-0.266549	-0.141440
C73	C	1.192782	-0.675237	-0.641410
C74	C	1.692782	-0.175237	-0.141410
C75	C	1.421258	-0.274199	-0.681047
C76	C	1.921258	0.225801	-0.181047
C77	C	1.518618	-0.261778	-0.697937
C78	C	2.018618	0.238222	-0.197937
C79	C	1.153279	-0.344718	-0.869852
C80	C	1.653279	0.155282	-0.369852
C81	C	1.136442	-0.362348	-0.967200
C82	C	1.636442	0.137652	-0.467200
C83	C	1.192886	-0.093035	-0.641486
C84	C	1.692886	0.406965	-0.141486
C85	C	1.192928	-0.003412	-0.641517
C86	C	1.692928	0.496588	-0.141517
C87	C	1.313156	-0.177198	-1.280555
C88	C	1.813156	0.322802	-0.780555
C89	C	1.328981	-0.160635	-1.189093
C90	C	1.828981	0.339365	-0.689093
C91	C	1.280847	-0.211062	-1.133615
C92	C	1.780847	0.288938	-0.633615
C93	C	1.216887	-0.278055	-1.169609
C94	C	1.716887	0.221945	-0.669609
C95	C	1.201066	-0.294624	-1.261081
C96	C	1.701066	0.205376	-0.761081
C97	C	1.168757	-0.328487	-1.114141
C98	C	1.668757	0.171513	-0.614141
C99	C	1.104797	-0.395481	-1.150134
C100	C	1.604797	0.104519	-0.650134
C101	C	1.088978	-0.412046	-1.241598
C102	C	1.588978	0.087954	-0.741598
C103	C	1.137111	-0.361620	-1.297075
C104	C	1.637111	0.138380	-0.797075
C105	C	1.184578	-0.311918	-1.022669
C106	C	1.684578	0.188082	-0.522669
C107	C	1.072488	-0.429344	-1.003195
C108	C	1.572488	0.070656	-0.503195
C109	C	1.056663	-0.445907	-1.094657
C110	C	1.556663	0.054093	-0.594657
C111	C	1.232195	-0.262073	-0.413868
C112	C	1.732195	0.237927	0.086132
C113	C	1.249202	-0.244194	-0.316550
C114	C	1.749202	0.255806	0.183450
H115	H	0.876911	-0.420892	-0.481778
H116	H	1.376911	0.079108	0.018222
C117	C	0.437343	-0.357284	-0.568260
C118	C	0.937343	0.142716	-0.068260
N119	N	0.361546	-0.366965	-0.555128
N120	N	0.861546	0.133035	-0.055128
H121	H	1.124231	-0.375102	-1.371552
H122	H	1.624231	0.124898	-0.871552
C123	C	1.399327	-0.086938	-1.149505
C124	C	1.899327	0.413062	-0.649505
N125	N	1.452313	-0.031423	-1.119687
N126	N	1.952313	0.468577	-0.619687
H127	H	1.352344	-0.136152	-1.325733
H128	H	1.852344	0.363848	-0.825733
H129	H	0.564044	-0.418321	-0.485359
H130	H	1.064044	0.081679	0.014641
C131	C	0.986307	-0.519598	-1.134262
C132	C	1.486307	-0.019598	-0.634262
N133	N	0.933313	-0.575100	-1.164093
N134	N	1.433313	-0.075100	-0.664093
C135	C	0.493707	-0.175575	-0.814974
C136	C	0.993707	0.324425	-0.314974
N137	N	0.447783	-0.146169	-0.854887
N138	N	0.947783	0.353831	-0.354887
H139	H	1.036904	-0.466603	-1.270902
H140	H	1.536904	0.033397	-0.770902
C141	C	1.019535	-0.484816	-0.942172
C142	C	1.519535	0.015184	-0.442172
N143	N	0.979656	-0.526594	-0.896205
N144	N	1.479656	-0.026594	-0.396205
H145	H	1.236654	-0.257371	-0.993372
H146	H	1.736654	0.242629	-0.493372
C147	C	0.700627	-0.455578	-0.434713
C148	C	1.200627	0.044422	0.065287
N149	N	0.670740	-0.494661	-0.381651
N150	N	1.170740	0.005339	0.118349
H151	H	0.841777	-0.270942	-0.685405
H152	H	1.341777	0.229058	-0.185405
C153	C	0.802211	-0.225524	-0.747078
C154	C	1.302211	0.274476	-0.247078
N155	N	0.878009	-0.215824	-0.760208
N156	N	1.378009	0.284176	-0.260208
H157	H	0.675509	-0.164515	-0.829988
H158	H	1.175509	0.335485	-0.329988
C159	C	1.298250	-0.192833	-1.033003
C160	C	1.798250	0.307167	-0.533003
N161	N	1.311356	-0.179097	-0.957218
N162	N	1.811356	0.320903	-0.457218
