data_functionalizedCrystal
_audit_creation_method	'MofGen! by Chris Wilmer'
_symmetry_space_group_name_H-M	'P1'
_symmetry_Int_Tables_number	1
_symmetry_cell_setting	triclinic
loop_
_symmetry_equiv_pos_as_xyz
  x,y,z
_cell_length_a	17.038272
_cell_length_b	22.010155
_cell_length_c	17.019234
_cell_angle_alpha	93.885805
_cell_angle_beta	87.240293
_cell_angle_gamma	90.010089
loop_
_atom_site_label
_atom_site_type_symbol
_atom_site_fract_x
_atom_site_fract_y
_atom_site_fract_z
O1	O	1.037223	0.059415	0.171287
O2	O	1.537223	0.559415	0.671287
O3	O	0.809595	0.059290	0.168567
O4	O	1.309595	0.559290	0.668567
O5	O	0.929766	0.053360	0.055520
O6	O	1.429766	0.553360	0.555520
O7	O	0.917053	0.065345	0.284335
O8	O	1.417053	0.565345	0.784335
O9	O	0.929730	-0.047691	0.055517
O10	O	1.429730	0.452309	0.555517
O11	O	0.809559	-0.041760	0.168565
O12	O	1.309559	0.458240	0.668565
O13	O	1.037187	-0.041636	0.171285
O14	O	1.537187	0.458364	0.671285
Cu15	Cu	0.923370	-0.050925	0.169925
Cu16	Cu	1.423370	0.449075	0.669925
Cu17	Cu	0.923413	0.068579	0.169928
Cu18	Cu	1.423413	0.568579	0.669928
O19	O	0.917016	-0.035705	0.284332
O20	O	1.417016	0.464295	0.784332
C21	C	0.780451	0.008638	0.166092
C22	C	1.280451	0.508638	0.666092
C23	C	0.693665	0.008258	0.158712
C24	C	1.193665	0.508258	0.658712
C25	C	0.643489	0.011807	0.226473
C26	C	1.143489	0.511807	0.726473
C27	C	0.561945	0.011435	0.219533
C28	C	1.061945	0.511435	0.719533
C29	C	0.530578	0.007519	0.144832
C30	C	1.030578	0.507519	0.644832
C31	C	0.580761	0.003968	0.077067
C32	C	1.080761	0.503968	0.577067
C33	C	0.662303	0.004335	0.084007
C34	C	1.162303	0.504335	0.584007
C35	C	0.284843	0.006218	0.120314
C36	C	0.784843	0.506218	0.620314
C37	C	0.203293	0.005853	0.113379
C38	C	0.703293	0.505853	0.613379
C39	C	0.184483	0.013319	0.255847
C40	C	0.684483	0.513319	0.755847
C41	C	0.266028	0.013690	0.262781
C42	C	0.766028	0.513690	0.762781
C43	C	0.316204	0.010136	0.195015
C44	C	0.816204	0.510136	0.695015
C45	C	0.447227	0.007140	0.137738
C46	C	0.947227	0.507140	0.637738
C47	C	0.399553	0.010510	0.202110
C48	C	0.899553	0.510510	0.702110
N49	N	0.923345	-0.134977	0.169922
N50	N	1.423345	0.365023	0.669922
C51	C	0.970772	-0.552087	0.220970
C52	C	1.470772	-0.052087	0.720970
C53	C	0.970781	-0.615695	0.220968
C54	C	1.470781	-0.115695	0.720968
O55	O	1.011076	-0.646317	0.264364
O56	O	1.511076	-0.146317	0.764364
N57	N	0.923428	-0.650185	0.169920
N58	N	1.423428	-0.150185	0.669920
C59	C	0.876069	-0.621064	0.118863
C60	C	1.376069	-0.121064	0.618863
O61	O	0.835793	-0.656241	0.075442
O62	O	1.335793	-0.156241	0.575442
C63	C	0.876064	-0.557458	0.118861
C64	C	1.376064	-0.057458	0.618861
C65	C	0.923414	-0.522971	0.169919
C66	C	1.423414	-0.022971	0.669919
C67	C	1.018118	-0.517600	0.272023
C68	C	1.518118	-0.017600	0.772023
C69	C	1.018108	-0.453997	0.272025
C70	C	1.518108	0.046003	0.772025
C71	C	0.970751	-0.424880	0.220974
C72	C	1.470751	0.075120	0.720974
C73	C	0.923404	-0.459367	0.169921
C74	C	1.423404	0.040633	0.669921
C75	C	0.828710	-0.528339	0.067802
C76	C	1.328710	-0.028339	0.567802
C77	C	0.828710	-0.464728	0.067804
C78	C	1.328710	0.035272	0.567804
C79	C	0.876060	-0.430241	0.118861
C80	C	1.376060	0.069759	0.618861
C81	C	0.876036	-0.366648	0.118872
C82	C	1.376036	0.133352	0.618872
N83	N	0.923389	-0.332158	0.169921
N84	N	1.423389	0.167842	0.669921
C85	C	0.970746	-0.361274	0.220972
C86	C	1.470746	0.138726	0.720972
C87	C	0.876083	-0.754642	0.118870
C88	C	1.376083	-0.254642	0.618870
C89	C	0.876082	-0.818247	0.118876
C90	C	1.376082	-0.318247	0.618876
C91	C	0.970796	-0.812873	0.220980
C92	C	1.470796	-0.312873	0.720980
C93	C	0.970791	-0.749266	0.220978
C94	C	1.470791	-0.249266	0.720978
C95	C	0.923436	-0.720152	0.169919
C96	C	1.423436	-0.220152	0.669919
C97	C	0.970720	-0.227703	0.220973
C98	C	1.470720	0.272297	0.720973
C99	C	0.970703	-0.164094	0.220973
C100	C	1.470703	0.335906	0.720973
C101	C	0.875993	-0.169473	0.118866
C102	C	1.375993	0.330527	0.618866
C103	C	0.876006	-0.233076	0.118869
C104	C	1.376006	0.266924	0.618869
C105	C	0.923376	-0.262189	0.169925
C106	C	1.423376	0.237811	0.669925
O107	O	0.835763	-0.335984	0.075497
O108	O	1.335763	0.164016	0.575497
O109	O	1.011023	-0.326090	0.264379
O110	O	1.511023	0.173910	0.764379
C111	C	1.066331	0.009018	0.173760
C112	C	1.566331	0.509018	0.673760
C113	C	1.153117	0.009402	0.181140
C114	C	1.653117	0.509402	0.681140
C115	C	0.929268	0.001295	0.026097
C116	C	1.429268	0.501295	0.526097
C117	C	0.927828	-0.003293	-0.061572
C118	C	1.427828	0.496707	0.438428
N119	N	0.923443	0.152631	0.169924
N120	N	1.423443	0.652631	0.669924
C121	C	0.919614	-0.031977	-0.557401
C122	C	1.419614	0.468023	-0.057401
C123	C	0.920974	-0.027669	-0.475028
C124	C	1.420974	0.472331	0.024972
C125	C	0.921680	0.029568	-0.433832
C126	C	1.421680	0.529568	0.066168
C127	C	0.921018	0.082502	-0.475013
C128	C	1.421018	0.582502	0.024987
C129	C	0.919652	0.078194	-0.557384
C130	C	1.419652	0.578194	-0.057384
C131	C	0.925800	0.045332	-0.185123
C132	C	1.425800	0.545332	0.314877
C133	C	0.927168	0.049637	-0.102747
C134	C	1.427168	0.549637	0.397253
C135	C	0.927123	-0.060535	-0.102768
C136	C	1.427123	0.439465	0.397232
C137	C	0.925762	-0.064838	-0.185141
C138	C	1.425762	0.435162	0.314859
C139	C	0.925096	-0.011905	-0.226314
C140	C	1.425096	0.488095	0.273686
C141	C	0.923073	0.033973	-0.349634
C142	C	1.423073	0.533973	0.150366
C143	C	0.923697	-0.016310	-0.310510
C144	C	1.423697	0.483690	0.189490
C145	C	0.917515	0.016361	0.313756
C146	C	1.417515	0.516361	0.813756
C147	C	0.918954	0.020952	0.401424
C148	C	1.418954	0.520952	0.901424
H149	H	0.177759	0.002664	0.052546
H150	H	0.677759	0.502664	0.552546
N151	N	1.069194	-0.549007	0.327087
N152	N	1.569194	-0.049007	0.827087
H153	H	1.107503	-0.577055	0.295338
H154	H	1.607503	-0.077055	0.795338
H155	H	1.099136	-0.517469	0.359417
H156	H	1.599136	-0.017469	0.859417
H157	H	0.927665	-0.103631	-0.069236
H158	H	1.427665	0.396369	0.430764
N159	N	0.921786	0.144237	-0.430582
N160	N	1.421786	0.644237	0.069418
H161	H	0.921160	0.177114	-0.469167
H162	H	1.421160	0.677114	0.030833
H163	H	0.873915	0.148597	-0.393251
H164	H	1.373915	0.648597	0.106749
N165	N	1.021863	-0.712072	0.276044
N166	N	1.521863	-0.212072	0.776044
H167	H	1.051861	-0.740175	0.308383
H168	H	1.551861	-0.240175	0.808383
H169	H	1.060123	-0.687344	0.244240
H170	H	1.560123	-0.187344	0.744240
N171	N	0.925204	0.102422	-0.229534
N172	N	1.425204	0.602422	0.270466
H173	H	0.925903	0.139333	-0.190937
H174	H	1.425903	0.639333	0.309063
H175	H	0.973120	0.102801	-0.266815
H176	H	1.473120	0.602801	0.233185
N177	N	0.825009	-0.855438	0.063808
N178	N	1.325009	-0.355438	0.563808
H179	H	0.859098	-0.883721	0.027504
H180	H	1.359098	-0.383721	0.527504
H181	H	0.786711	-0.880137	0.095610
H182	H	1.286711	-0.380137	0.595610
N183	N	1.021877	-0.844283	0.276044
N184	N	1.521877	-0.344283	0.776044
H185	H	1.014693	-0.889810	0.268292
H186	H	1.514693	-0.389810	0.768292
H187	H	1.078751	-0.833771	0.264307
H188	H	1.578751	-0.333771	0.764307
N189	N	0.918953	0.135281	-0.601799
N190	N	1.418953	0.635281	-0.101799
H191	H	0.919614	0.172196	-0.563204
H192	H	1.419614	0.672196	-0.063204
H193	H	0.966833	0.135715	-0.639122
H194	H	1.466833	0.635715	-0.139122
H195	H	0.837512	-0.730940	0.077295
H196	H	1.337512	-0.230940	0.577295
N197	N	0.777658	-0.565526	0.012713
N198	N	1.277658	-0.065526	0.512713
H199	H	0.747672	-0.537421	-0.019632
H200	H	1.247672	-0.037421	0.480368
H201	H	0.811813	-0.593799	-0.023535
H202	H	1.311813	-0.093799	0.476465
H203	H	0.790146	-0.441026	0.026224
H204	H	1.290146	0.058974	0.526224
N205	N	0.824925	-0.138061	0.063800
N206	N	1.324925	0.361939	0.563800
H207	H	0.794929	-0.169557	0.031452
H208	H	1.294929	0.330443	0.531452
H209	H	0.786663	-0.110009	0.095602
H210	H	1.286663	0.389991	0.595602
N211	N	0.546925	-0.000263	-0.003501
N212	N	1.046925	0.499737	0.496499
H213	H	0.513519	0.036877	-0.009558
H214	H	1.013519	0.536877	0.490442
H215	H	0.591127	-0.002479	-0.045329
H216	H	1.091127	0.497521	0.454671
N217	N	0.338960	0.002396	0.047232
N218	N	0.838960	0.502396	0.547232
H219	H	0.373206	-0.035077	0.046933
H220	H	0.873206	0.464923	0.546933
H221	H	0.306665	-0.000111	-0.001105
H222	H	0.806665	0.499889	0.498895
H223	H	0.923652	0.080576	-0.316083
H224	H	1.423652	0.580576	0.183917
N225	N	0.824922	-0.270277	0.063817
N226	N	1.324922	0.229723	0.563817
H227	H	0.794915	-0.242177	0.031482
H228	H	1.294915	0.257823	0.531482
H229	H	0.859054	-0.298559	0.027558
H230	H	1.359054	0.201441	0.527558
H231	H	0.923118	-0.062913	-0.344056
H232	H	1.423118	0.437087	0.155944
N233	N	0.716419	0.000509	0.010918
N234	N	1.216419	0.500509	0.510918
H235	H	0.750679	0.037953	0.010620
H236	H	1.250679	0.537953	0.510620
H237	H	0.750611	-0.036988	0.010665
H238	H	1.250611	0.463012	0.510665
H239	H	0.425095	0.013695	0.262931
H240	H	0.925095	0.513695	0.762931
N241	N	0.918860	-0.093713	-0.601832
N242	N	1.418860	0.406287	-0.101832
H243	H	0.919484	-0.126589	-0.563245
H244	H	1.419484	0.373411	-0.063245
H245	H	0.869852	-0.097730	-0.632859
H246	H	1.369852	0.402270	-0.132859
H247	H	0.925191	-0.111448	-0.218678
H248	H	1.425191	0.388552	0.281322
H249	H	1.009261	-0.136017	0.262554
H250	H	1.509261	0.363983	0.762554
N251	N	0.921696	-0.084758	-0.430618
N252	N	1.421696	0.415242	0.069382
H253	H	0.873820	-0.085261	-0.393293
H254	H	1.373820	0.414739	0.106707
H255	H	0.921076	-0.121638	-0.469268
H256	H	1.421076	0.378362	0.030732
N257	N	0.927809	0.111351	-0.058243
N258	N	1.427809	0.611351	0.441757
H259	H	0.976782	0.115459	-0.027169
H260	H	1.476782	0.615459	0.472831
H261	H	0.927110	0.144231	-0.096817
H262	H	1.427110	0.644231	0.403183
N263	N	0.677317	0.016038	0.307044
N264	N	1.177317	0.516038	0.807044
H265	H	0.633154	0.018229	0.348916
H266	H	1.133154	0.518229	0.848916
H267	H	0.710736	-0.021106	0.313029
H268	H	1.210736	0.478894	0.813029
N269	N	0.507825	0.015194	0.292618
N270	N	1.007825	0.515194	0.792618
H271	H	0.540069	0.017712	0.340993
H272	H	1.040069	0.517712	0.840993
H273	H	0.473543	0.052644	0.292898
H274	H	0.973543	0.552644	0.792898
N275	N	0.299858	0.017925	0.343351
N276	N	0.799858	0.517925	0.843351
H277	H	0.255697	0.020120	0.385226
H278	H	0.755697	0.520120	0.885226
H279	H	0.333280	-0.019216	0.349343
H280	H	0.833280	0.480784	0.849343
N281	N	0.413386	0.002915	0.057173
N282	N	0.913386	0.502915	0.557173
H283	H	0.379974	0.040054	0.051123
H284	H	0.879974	0.540054	0.551123
H285	H	0.457581	0.000702	0.015339
H286	H	0.957581	0.500702	0.515339
H287	H	1.056669	-0.425923	0.313598
H288	H	1.556669	0.074077	0.813598
N289	N	0.130367	0.017151	0.328934
N290	N	0.630367	0.517151	0.828934
H291	H	0.073950	0.016324	0.313206
H292	H	0.573950	0.516324	0.813206
H293	H	0.140508	-0.018616	0.361252
H294	H	0.640508	0.481384	0.861252
N295	N	1.021818	-0.259098	0.276031
N296	N	1.521818	0.240902	0.776031
H297	H	1.051808	-0.227592	0.308368
H298	H	1.551808	0.272408	0.808368
H299	H	0.987698	-0.283599	0.312289
H300	H	1.487698	0.216401	0.812289
