data_functionalizedCrystal
_audit_creation_method	'MofGen! by Chris Wilmer'
_symmetry_space_group_name_H-M	'P1'
_symmetry_Int_Tables_number	1
_symmetry_cell_setting	triclinic
loop_
_symmetry_equiv_pos_as_xyz
  x,y,z
_cell_length_a	25.639242
_cell_length_b	19.805407
_cell_length_c	19.805398
_cell_angle_alpha	90.013121
_cell_angle_beta	89.982692
_cell_angle_gamma	89.993815
loop_
_atom_site_label
_atom_site_type_symbol
_atom_site_fract_x
_atom_site_fract_y
_atom_site_fract_z
Zn1	Zn	0.208158	1.034788	0.382773
Zn2	Zn	0.295593	1.034755	0.269607
Zn3	Zn	0.208174	0.921615	0.269597
Zn4	Zn	0.295564	0.921606	0.382754
O5	O	0.251872	0.978191	0.326183
O6	O	0.219762	1.129500	0.367773
O7	O	0.284016	1.019737	0.174889
O8	O	0.135006	0.936645	0.284614
O9	O	0.284000	1.129476	0.284631
O10	O	0.134994	1.019793	0.367764
O11	O	0.219789	0.936614	0.174882
O12	O	0.219760	0.826897	0.284596
O13	O	0.283950	0.936629	0.477473
O14	O	0.283966	0.826890	0.367731
O15	O	0.219733	1.019784	0.477487
O16	O	0.368754	1.019728	0.284612
O17	O	0.368733	0.936598	0.367740
C18	C	0.251862	0.802335	0.326161
C19	C	0.251870	0.727103	0.326167
C20	C	0.115499	0.978224	0.326190
C21	C	0.057385	0.978237	0.326193
C22	C	0.285352	0.691773	0.369386
C23	C	0.285353	0.621085	0.369396
C24	C	0.251874	0.585727	0.326183
C25	C	0.218389	0.621062	0.282962
C26	C	0.218386	0.691749	0.282957
C27	C	0.218400	0.335989	0.282985
C28	C	0.218407	0.265297	0.282992
C29	C	0.285368	0.265324	0.369424
C30	C	0.285365	0.336011	0.369418
C31	C	0.251877	0.371340	0.326200
C32	C	0.251876	0.447988	0.326191
C33	C	0.251878	0.509080	0.326188
C34	C	-0.302978	0.934932	0.282919
C35	C	-0.357582	0.934932	0.282923
O36	O	-0.385818	0.898101	0.246125
N37	N	-0.384898	0.978224	0.326213
C38	C	-0.357606	1.021515	0.369508
O39	O	-0.385854	1.058338	0.406330
C40	C	-0.303003	1.021512	0.369507
C41	C	-0.275690	0.978222	0.326209
C42	C	-0.275665	0.891645	0.239625
C43	C	-0.221064	0.891647	0.239621
C44	C	-0.193777	0.934936	0.282911
C45	C	-0.221089	0.978224	0.326205
C46	C	-0.275712	1.064800	0.412805
C47	C	-0.221105	1.064792	0.412801
C48	C	-0.193792	1.021502	0.369503
C49	C	-0.139201	1.021515	0.369491
N50	N	-0.111886	0.978222	0.326201
C51	C	-0.139173	0.934933	0.282911
C52	C	-0.472277	1.021518	0.369506
C53	C	-0.526879	1.021525	0.369503
C54	C	-0.526851	0.934940	0.282919
C55	C	-0.472248	0.934937	0.282919
C56	C	-0.444961	0.978225	0.326216
C57	C	-0.024508	0.934940	0.282905
C58	C	0.030097	0.934948	0.282903
C59	C	0.030065	1.021530	0.369490
C60	C	-0.024536	1.021525	0.369490
C61	C	-0.051821	0.978225	0.326195
O62	O	-0.110930	1.058325	0.406272
O63	O	-0.110919	0.898110	0.246101
C64	C	0.387715	0.978177	0.326190
C65	C	0.445829	0.978233	0.326216
C66	C	0.251837	0.978209	0.502725
C67	C	0.251822	0.978217	0.577957
C68	C	0.251882	1.154734	0.326205
C69	C	0.251887	1.229966	0.326215
C70	C	0.251869	0.978212	0.150327
C71	C	0.251737	0.978335	0.075095
C72	C	0.285181	1.021606	1.039750
C73	C	0.285195	1.021587	0.969061
C74	C	0.251763	0.978301	0.933719
C75	C	0.218317	0.935025	0.969069
C76	C	0.218306	0.935041	1.039757
C77	C	0.218362	0.934960	0.683996
C78	C	0.218374	0.934949	0.613304
C79	C	0.285251	1.021506	0.613301
C80	C	0.285240	1.021522	0.683988
C81	C	0.251797	0.978244	0.719332
C82	C	0.251783	0.978264	0.795980
C83	C	0.251774	0.978284	0.857072
H84	H	0.312616	0.720556	0.404573
N85	N	-0.053932	0.888240	0.236210
H86	H	-0.028338	0.860822	0.208786
H87	H	-0.076583	0.915787	0.204890
N88	N	0.182259	0.888333	0.930955
H89	H	0.187339	0.894890	0.880811
H90	H	0.144917	0.898879	0.943317
N91	N	0.321239	1.068298	1.077866
H92	H	0.342428	1.095705	1.044746
H93	H	0.345428	1.040748	1.107192
N94	N	0.321473	0.582981	0.416003
H95	H	0.300264	0.553665	0.447423
H96	H	0.342676	0.616152	0.443325
H97	H	-0.198831	0.856394	0.204365
H98	H	0.191127	0.592269	0.247780
N99	N	-0.191682	1.111488	0.459504
H100	H	-0.169024	1.142857	0.432005
H101	H	-0.169062	1.083939	0.490859
H102	H	0.191072	0.899807	1.068534
H103	H	0.191137	0.364745	0.247789
H104	H	0.312484	1.056743	0.584515
H105	H	-0.549079	0.899691	0.247671
H106	H	0.191118	0.720514	0.247767
H107	H	0.052333	0.899695	0.247642
N108	N	-0.054004	1.068218	0.416181
H109	H	-0.044507	1.116579	0.405675
H110	H	-0.044496	1.057654	0.464521
H111	H	-0.297878	0.856390	0.204373
N112	N	0.321268	1.068255	0.930936
H113	H	0.342444	1.095682	0.964050
H114	H	0.299991	1.099573	0.901608
H115	H	-0.549113	1.056783	0.404753
H116	H	0.312463	1.056772	0.712760
N117	N	0.182310	0.888264	0.575182
H118	H	0.161122	0.860850	0.608298
H119	H	0.203595	0.856933	0.545846
N120	N	-0.442791	0.888246	0.236219
H121	H	-0.468368	0.860827	0.208796
H122	H	-0.420141	0.856921	0.263763
N123	N	0.182292	0.888285	0.722112
H124	H	0.161114	0.860864	0.688995
H125	H	0.158093	0.915846	0.751445
H126	H	-0.450063	1.056773	0.404764
H127	H	0.312628	0.364796	0.404604
N128	N	0.059502	1.068221	0.416178
H129	H	0.098236	1.061647	0.409604
H130	H	0.049950	1.057688	0.464517
N131	N	0.321485	0.227216	0.416039
H132	H	0.300273	0.197900	0.447455
H133	H	0.342688	0.260383	0.443364
N134	N	0.182297	0.227159	0.236381
H135	H	0.161081	0.260265	0.209003
H136	H	0.158134	0.197838	0.263989
N137	N	-0.305162	1.111489	0.459509
H138	H	-0.279582	1.138904	0.486932
H139	H	-0.327819	1.083937	0.490830
