data_functionalizedCrystal
_audit_creation_method	'MofGen! by Chris Wilmer'
_symmetry_space_group_name_H-M	'P1'
_symmetry_Int_Tables_number	1
_symmetry_cell_setting	triclinic
loop_
_symmetry_equiv_pos_as_xyz
  x,y,z
_cell_length_a	13.339070
_cell_length_b	17.038272
_cell_length_c	12.376457
_cell_angle_alpha	102.103643
_cell_angle_beta	75.589755
_cell_angle_gamma	103.370425
loop_
_atom_site_label
_atom_site_type_symbol
_atom_site_fract_x
_atom_site_fract_y
_atom_site_fract_z
O1	O	1.395122	0.388434	-0.094053
O2	O	1.096082	0.336008	-0.094045
O3	O	1.243823	0.248021	-0.094040
O4	O	1.247381	0.476421	-0.094058
O5	O	1.206898	0.269979	0.093971
O6	O	1.059157	0.357966	0.093966
O7	O	1.358198	0.410392	0.093958
Zn8	Zn	1.202815	0.387665	0.123813
Zn9	Zn	1.251465	0.358734	-0.123900
O10	O	1.210456	0.498379	0.093953
C11	C	1.039168	0.338131	-0.000039
C12	C	0.924594	0.311734	-0.000035
C13	C	0.577472	0.516981	-0.000069
C14	C	0.685120	0.541784	-0.000076
C15	C	0.744994	0.484274	-0.000065
C16	C	0.697208	0.401956	-0.000049
C17	C	0.589551	0.377149	-0.000051
C18	C	0.757073	0.344442	-0.000047
C19	C	0.709288	0.262125	-0.000031
C20	C	0.601640	0.237322	-0.000033
C21	C	0.541767	0.294832	-0.000043
C22	C	0.864731	0.369249	-0.000045
C23	C	0.876810	0.229417	-0.000027
C24	C	0.769161	0.204614	-0.000021
C25	C	1.222128	0.229169	-0.000034
C26	C	1.212482	0.140282	-0.000034
C27	C	1.301039	0.109396	-0.000036
C28	C	1.291972	0.025875	-0.000046
C29	C	1.194346	-0.026757	-0.000047
C30	C	1.105783	0.004133	-0.000050
C31	C	1.114852	0.087652	-0.000047
C32	C	1.162306	-0.279475	-0.000062
C33	C	1.153242	-0.362998	-0.000061
C34	C	1.339433	-0.341250	-0.000060
C35	C	1.348493	-0.257730	-0.000050
C36	C	1.259931	-0.226847	-0.000059
C37	C	1.185075	-0.112129	-0.000055
C38	C	1.269204	-0.141478	-0.000059
C39	C	1.415112	0.408268	-0.000051
C40	C	1.529688	0.434664	-0.000061
C41	C	1.232152	0.517230	-0.000055
C42	C	1.241799	0.606116	-0.000062
N43	N	1.169620	0.407411	0.292870
N44	N	1.284667	0.338984	-0.292957
C45	C	1.361722	0.293132	0.647862
C46	C	1.384949	0.279311	0.529523
C47	C	1.331119	0.311334	0.470354
C48	C	1.254057	0.357182	0.529535
C49	C	1.230833	0.371011	0.647886
C50	C	1.200230	0.389213	0.470378
C51	C	1.123169	0.435061	0.529560
C52	C	1.099948	0.448886	0.647899
C53	C	1.153779	0.416863	0.707068
C54	C	1.223454	0.375385	0.352027
C55	C	1.092565	0.453263	0.352052
C56	C	1.069338	0.467084	0.470391
H57	H	0.730240	0.137588	-0.000017
H58	H	1.348696	-0.098624	-0.000083
H59	H	0.832647	0.504474	-0.000073
H60	H	1.427990	-0.214880	-0.000049
H61	H	0.903626	0.436273	-0.000054
O62	O	1.459627	0.234557	0.472271
C63	C	1.514938	0.104851	0.436704
C64	C	1.430302	0.155501	0.501473
H65	H	1.491271	0.040931	0.460307
H66	H	1.522440	0.100257	0.341894
H67	H	1.593809	0.135897	0.460021
H68	H	1.351385	0.124496	0.478251
H69	H	1.422893	0.160099	0.596267
O70	O	0.519396	0.572844	-0.000285
C71	C	0.495292	0.673414	-0.097682
C72	C	0.561139	0.610157	-0.097588
H73	H	0.529030	0.703611	-0.176331
H74	H	0.410144	0.641574	-0.097759
H75	H	0.497997	0.721930	-0.018970
H76	H	0.558521	0.561624	-0.176287
H77	H	0.646256	0.642055	-0.097452
O78	O	0.731615	0.621708	-0.000310
C79	C	0.865294	0.719467	-0.097742
C80	C	0.812721	0.628921	-0.097618
H81	H	0.930893	0.725326	-0.176395
H82	H	0.804060	0.756332	-0.097829
H83	H	0.899896	0.743773	-0.019034
H84	H	0.778122	0.604542	-0.176312
H85	H	0.873996	0.592113	-0.097472
O86	O	0.934953	0.173491	-0.000215
C87	C	0.997307	0.050167	-0.097571
C88	C	0.931438	0.113448	-0.097507
H89	H	0.994469	0.001597	-0.176211
H90	H	1.082486	0.081984	-0.097641
H91	H	0.963666	0.020041	-0.018851
H92	H	0.964986	0.143594	-0.176214
H93	H	0.846267	0.081586	-0.097379
O94	O	1.076346	-0.249469	-0.000263
C95	C	0.997665	-0.179138	-0.097633
C96	C	1.095081	-0.213099	-0.097560
H97	H	1.012787	-0.149710	-0.176277
H98	H	0.926314	-0.231084	-0.097703
H99	H	0.981799	-0.131424	-0.018917
H100	H	1.111045	-0.260801	-0.176263
H101	H	1.166376	-0.161109	-0.097432
O102	O	1.025158	0.493437	0.705564
C103	C	0.931327	0.549207	0.887889
C104	C	1.016068	0.498757	0.822727
H105	H	0.923935	0.553509	0.982627
H106	H	0.954794	0.613249	0.864696
H107	H	0.852456	0.518159	0.864573
H108	H	1.094969	0.529734	0.846009
H109	H	0.992512	0.434716	0.845926
H110	H	1.073735	-0.405849	-0.000044
H111	H	1.026294	-0.038728	-0.000058
H112	H	0.454110	0.274642	-0.000038
H113	H	1.042740	0.112797	-0.000047
O114	O	0.994550	0.511636	0.528060
C115	C	0.900728	0.567404	0.710391
C116	C	0.985464	0.516952	0.645222
H117	H	0.893339	0.571703	0.805128
H118	H	0.924196	0.631447	0.687202
H119	H	0.821855	0.536360	0.687078
H120	H	1.064368	0.547925	0.668500
H121	H	0.961906	0.452910	0.668417
H122	H	0.562739	0.170292	-0.000032
O123	O	1.378091	-0.003986	0.000011
C124	C	1.563733	0.026393	-0.000038
C125	C	1.466279	0.060320	-0.000076
H126	H	1.635062	0.078365	-0.000132
H127	H	1.548751	-0.002949	0.078661
H128	H	1.579542	-0.021374	-0.078703
H129	H	1.450416	0.108117	0.078536
H130	H	1.481309	0.089611	-0.078827
O131	O	1.425450	-0.371189	0.000136
C132	C	1.562729	-0.366751	0.097489
C133	C	1.465309	-0.332789	0.097428
H134	H	1.594997	-0.335707	0.176128
H135	H	1.539529	-0.435478	0.097557
H136	H	1.625832	-0.354170	0.018768
H137	H	1.402165	-0.345311	0.176136
H138	H	1.488592	-0.264071	0.097301
O139	O	1.090154	-0.163158	0.000101
C140	C	0.909132	-0.195966	0.097543
C141	C	1.016561	-0.138101	0.097500
H142	H	0.849609	-0.175739	0.176293
H143	H	0.880377	-0.194077	0.018918
H144	H	0.917904	-0.260963	0.097481
H145	H	1.007876	-0.073078	0.097601
H146	H	1.045279	-0.140061	0.176118
H147	H	1.380536	0.152246	-0.000027
O148	O	1.298169	0.330701	0.294636
C149	C	1.353732	0.201065	0.258620
C150	C	1.269029	0.251588	0.323638
H151	H	1.330214	0.137097	0.282062
H152	H	1.361119	0.196579	0.163848
H153	H	1.432619	0.232143	0.281874
H154	H	1.190096	0.220550	0.300479
H155	H	1.261735	0.256078	0.418394
O156	O	1.353866	0.297941	0.355400
C157	C	1.486453	0.315615	0.185544
C158	C	1.460841	0.330828	0.315733
H159	H	1.572936	0.342211	0.153434
H160	H	1.470658	0.247074	0.153369
H161	H	1.434693	0.346348	0.153448
H162	H	1.512583	0.300144	0.347926
H163	H	1.476605	0.399379	0.347832
O164	O	1.414162	0.262126	0.705281
C165	C	1.582297	0.258581	0.741403
C166	C	1.523033	0.293779	0.676330
H167	H	1.670332	0.284145	0.718003
H168	H	1.552552	0.276357	0.836166
H169	H	1.567880	0.189127	0.718155
H170	H	1.537424	0.363236	0.699483
H171	H	1.552788	0.275939	0.581583
O172	O	1.040367	0.484512	0.294640
C173	C	0.998929	0.605682	0.258477
C174	C	1.058104	0.570403	0.323553
H175	H	1.013230	0.675128	0.281847
H176	H	1.028767	0.587990	0.163714
H177	H	0.910909	0.580032	0.281754
H178	H	1.146133	0.596035	0.300371
H179	H	1.028180	0.588088	0.418299
H180	H	1.134865	0.428113	0.803429
