data_functionalizedCrystal
_audit_creation_method	'MofGen! by Chris Wilmer'
_symmetry_space_group_name_H-M	'P1'
_symmetry_Int_Tables_number	1
_symmetry_cell_setting	triclinic
loop_
_symmetry_equiv_pos_as_xyz
  x,y,z
_cell_length_a	14.971486
_cell_length_b	13.101039
_cell_length_c	14.971486
_cell_angle_alpha	86.633875
_cell_angle_beta	83.614129
_cell_angle_gamma	93.356744
loop_
_atom_site_label
_atom_site_type_symbol
_atom_site_fract_x
_atom_site_fract_y
_atom_site_fract_z
O1	O	1.191853	0.085097	0.111638
O2	O	1.691853	0.585097	0.611638
O3	O	0.931455	0.085125	0.125595
O4	O	1.431455	0.585125	0.625595
O5	O	1.068633	0.085103	-0.011583
O6	O	1.568633	0.585103	0.488417
O7	O	1.054675	0.085119	0.248816
O8	O	1.554675	0.585119	0.748816
O9	O	1.058790	-0.085326	-0.001724
O10	O	1.558790	0.414674	0.498276
O11	O	0.921612	-0.085304	0.135454
O12	O	1.421612	0.414696	0.635454
O13	O	1.182011	-0.085332	0.121497
O14	O	1.682011	0.414668	0.621497
Zn15	Zn	1.050249	-0.112377	0.130041
Zn16	Zn	1.550249	0.387623	0.630041
Zn17	Zn	1.063217	0.112170	0.117051
Zn18	Zn	1.563217	0.612170	0.617051
O19	O	1.044833	-0.085310	0.258675
O20	O	1.544833	0.414690	0.758675
C21	C	0.893209	-0.000086	0.129900
C22	C	1.393209	0.499914	0.629900
C23	C	0.793912	-0.000075	0.128029
C24	C	1.293912	0.499925	0.628029
N25	N	1.041405	-0.265624	0.138905
N26	N	1.541405	0.234376	0.638905
C27	C	0.736687	-0.000072	0.208618
C28	C	1.236687	0.499928	0.708618
C29	C	0.643387	-0.000087	0.206856
C30	C	1.143387	0.499913	0.706856
C31	C	0.607314	-0.000099	0.124503
C32	C	1.107314	0.499901	0.624503
C33	C	0.664546	-0.000105	0.043908
C34	C	1.164546	0.499895	0.543908
C35	C	0.757844	-0.000097	0.045672
C36	C	1.257844	0.499903	0.545672
C37	C	0.470083	-0.000120	0.040238
C38	C	0.970083	0.499880	0.540238
C39	C	0.376779	-0.000126	0.038474
C40	C	0.876779	0.499874	0.538474
C41	C	0.355626	-0.000110	0.201422
C42	C	0.855626	0.499890	0.701422
C43	C	0.448924	-0.000102	0.203185
C44	C	0.948924	0.499898	0.703185
C45	C	0.506150	-0.000106	0.122590
C46	C	1.006150	0.499894	0.622590
C47	C	1.029373	-0.474664	0.150973
C48	C	1.529373	0.025336	0.650973
C49	C	1.084096	-0.525549	0.096115
C50	C	1.584096	-0.025549	0.596115
C51	C	1.077402	-0.641866	0.102830
C52	C	1.577402	-0.141866	0.602830
C53	C	1.036067	-0.358337	0.144259
C54	C	1.536067	0.141663	0.644259
C55	C	1.220257	-0.000119	0.117192
C56	C	1.720257	0.499881	0.617192
C57	C	1.319553	-0.000122	0.119063
C58	C	1.819553	0.499878	0.619063
C59	C	1.063087	-0.000111	-0.039978
C60	C	1.563087	0.499889	0.460022
C61	C	1.061217	-0.000110	-0.139276
C62	C	1.561217	0.499890	0.360724
N63	N	1.072067	0.265417	0.108180
N64	N	1.572067	0.765417	0.608180
C65	C	1.141805	-0.000119	-0.196500
C66	C	1.641805	0.499881	0.303500
C67	C	1.140043	-0.000109	-0.289800
C68	C	1.640043	0.499891	0.210200
C69	C	1.057690	-0.000096	-0.325873
C70	C	1.557690	0.499904	0.174127
C71	C	0.977096	-0.000084	-0.268642
C72	C	1.477096	0.499916	0.231358
C73	C	0.978860	-0.000087	-0.175344
C74	C	1.478860	0.499913	0.324656
C75	C	0.973425	-0.000080	-0.463104
C76	C	1.473425	0.499920	0.036896
C77	C	0.971661	-0.000078	-0.556408
C78	C	1.471661	0.499922	-0.056408
C79	C	1.134608	-0.000102	-0.577561
C80	C	1.634608	0.499898	-0.077561
C81	C	1.136372	-0.000105	-0.484263
C82	C	1.636372	0.499895	0.015737
C83	C	1.055777	-0.000094	-0.427037
C84	C	1.555777	0.499906	0.072963
C85	C	1.050378	-0.000093	0.287070
C86	C	1.550378	0.499907	0.787070
C87	C	1.052249	-0.000088	0.386367
C88	C	1.552249	0.499912	0.886367
H89	H	0.596797	-0.000083	0.272479
H90	H	1.096797	0.499917	0.772479
H91	H	1.208866	-0.000136	-0.167137
H92	H	1.708866	0.499864	0.332863
N93	N	0.886506	-0.000073	-0.401368
N94	N	1.386506	0.499927	0.098632
H95	H	0.854221	0.063105	-0.416622
H96	H	1.354221	0.563105	0.083378
H97	H	0.847003	-0.063292	-0.409352
H98	H	1.347003	0.436708	0.090648
N99	N	0.960661	-0.532670	0.219861
N100	N	1.460661	-0.032670	0.719861
H101	H	0.992443	-0.577181	0.261978
H102	H	1.492443	-0.077181	0.761978
H103	H	0.925088	-0.482447	0.255479
H104	H	1.425088	0.017553	0.755479
H105	H	1.205666	-0.000119	-0.336390
H106	H	1.705666	0.499881	0.163610
H107	H	0.904601	-0.000085	-0.585775
H108	H	1.404601	0.499915	-0.085775
H109	H	1.200232	-0.000107	-0.624159
H110	H	1.700232	0.499893	-0.124159
N111	N	1.225192	-0.000131	-0.445351
N112	N	1.725192	0.499869	0.054649
H113	H	1.275981	-0.000136	-0.495759
H114	H	1.775981	0.499864	0.004241
H115	H	1.233121	0.063046	-0.410751
H116	H	1.733121	0.563046	0.089249
H117	H	0.910043	-0.000067	-0.298020
H118	H	1.410043	0.499933	0.201980
N119	N	0.891940	-0.000071	-0.113618
N120	N	1.391940	0.499929	0.386382
H121	H	0.839502	-0.000063	-0.150626
H122	H	1.339502	0.499937	0.349374
H123	H	0.885471	-0.063249	-0.070794
H124	H	1.385471	0.436751	0.429206
N125	N	0.487836	-0.000070	0.292004
N126	N	0.987836	0.499930	0.792004
H127	H	0.437428	-0.000066	0.342794
H128	H	0.937428	0.499934	0.842794
H129	H	0.522449	-0.063242	0.299944
H130	H	1.022449	0.436758	0.799944
H131	H	0.766050	-0.000062	0.275679
H132	H	1.266050	0.499938	0.775679
H133	H	0.309027	-0.000110	0.267046
H134	H	0.809027	0.499890	0.767046
N135	N	0.337856	-0.000147	-0.050340
N136	N	0.837856	0.499853	0.449660
H137	H	0.362353	0.063023	-0.089318
H138	H	0.862353	0.563023	0.410682
H139	H	0.355075	-0.063374	-0.081918
H140	H	0.855075	0.436626	0.418082
N141	N	0.531808	-0.000132	-0.046688
N142	N	1.031808	0.499868	0.453312
H143	H	0.494801	-0.000137	-0.099126
H144	H	0.994801	0.499863	0.400874
H145	H	0.574618	0.063051	-0.053159
H146	H	1.074618	0.563051	0.446841
H147	H	0.635168	-0.000130	-0.023144
H148	H	1.135168	0.499870	0.476856
H149	H	1.135975	-0.481755	0.044106
H150	H	1.635975	0.018245	0.544106
N151	N	0.819570	-0.000109	-0.041248
N152	N	1.319570	0.499891	0.458752
H153	H	0.782563	-0.000117	-0.093687
H154	H	1.282563	0.499883	0.406313
H155	H	0.862384	0.063071	-0.047724
H156	H	1.362384	0.563071	0.452276
