data_functionalizedCrystal
_audit_creation_method	'MofGen! by Chris Wilmer'
_symmetry_space_group_name_H-M	'P1'
_symmetry_Int_Tables_number	1
_symmetry_cell_setting	triclinic
loop_
_symmetry_equiv_pos_as_xyz
  x,y,z
_cell_length_a	16.992701
_cell_length_b	19.188924
_cell_length_c	16.053802
_cell_angle_alpha	92.554672
_cell_angle_beta	87.243340
_cell_angle_gamma	86.904567
loop_
_atom_site_label
_atom_site_type_symbol
_atom_site_fract_x
_atom_site_fract_y
_atom_site_fract_z
O1	O	1.043198	0.145255	-0.069442
O2	O	0.814918	0.143633	-0.069442
O3	O	0.935648	0.043174	-0.069432
O4	O	0.922468	0.245714	-0.069452
O5	O	0.929003	0.048679	0.069426
O6	O	0.808273	0.149138	0.069416
O7	O	1.036553	0.150760	0.069417
Zn8	Zn	0.921358	0.150823	0.091463
Zn9	Zn	0.930113	0.143570	-0.091489
O10	O	0.915823	0.251219	0.069407
C11	C	0.782390	0.144297	-0.000013
C12	C	0.695367	0.138064	-0.000012
C13	C	0.206553	0.096189	-0.000011
C14	C	0.288318	0.102051	-0.000007
C15	C	0.319634	0.168051	-0.000017
C16	C	0.269178	0.228195	-0.000023
C17	C	0.187414	0.222333	-0.000022
C18	C	0.563147	0.192346	-0.000017
C19	C	0.644918	0.198203	-0.000021
C20	C	0.664053	0.072058	-0.000003
C21	C	0.582286	0.066202	-0.000007
C22	C	0.531837	0.126346	-0.000008
N23	N	0.403212	0.174044	-0.000015
N24	N	0.448261	0.120353	-0.000004
C25	C	0.931899	0.019890	-0.000002
C26	C	0.930621	-0.057689	0.000000
C27	C	0.933646	-0.097124	-0.075692
C28	C	0.932434	-0.170018	-0.075698
C29	C	0.928212	-0.203475	-0.000008
C30	C	0.925181	-0.164031	0.075694
C31	C	0.926386	-0.091138	0.075698
N32	N	0.968236	-0.318405	0.056326
N33	N	0.967094	-0.387651	0.056317
C34	C	0.924581	-0.423097	-0.000016
N35	N	0.883264	-0.386683	-0.056353
N36	N	0.884410	-0.317431	-0.056346
C37	C	0.926905	-0.282515	-0.000004
C38	C	0.926291	-0.541572	-0.075720
C39	C	0.925074	-0.614466	-0.075723
C40	C	0.917829	-0.608478	0.075671
C41	C	0.919039	-0.535585	0.075672
C42	C	0.923273	-0.502136	-0.000026
C43	C	1.069081	0.150096	-0.000014
C44	C	1.156103	0.156328	-0.000020
C45	C	0.919571	0.274502	-0.000025
C46	C	0.920850	0.352082	-0.000033
N47	N	0.915388	0.155773	0.216323
N48	N	0.936089	0.138614	-0.216348
C49	C	0.966777	0.113045	0.260021
C50	C	0.962609	0.116515	0.347428
C51	C	0.907054	0.162717	0.391134
C52	C	0.855659	0.205447	0.347430
C53	C	0.859825	0.201973	0.260025
C54	C	0.888859	0.177871	0.652543
C55	C	0.884699	0.181343	0.739953
C56	C	0.991648	0.092409	0.739945
C57	C	0.995812	0.088943	0.652539
C58	C	0.944414	0.131670	0.608842
N59	N	0.902794	0.166266	0.480478
N60	N	0.948672	0.128117	0.519500
H61	H	0.146338	0.271305	-0.000026
H62	H	0.937092	-0.069894	-0.137331
Br63	Br	1.032350	0.058523	0.406735
Br64	Br	0.164062	0.006612	-0.000004
Br65	Br	0.356783	0.020430	0.000013
Br66	Br	1.071211	0.026243	0.593221
Br67	Br	0.929171	-0.667987	-0.178458
H68	H	0.916581	-0.503477	0.137308
H69	H	0.934893	-0.202131	-0.137337
H70	H	0.670411	0.251952	-0.000017
Br71	Br	0.919441	-0.209434	0.178417
Br72	Br	1.061397	0.034424	0.799250
H73	H	0.839458	0.218969	0.775535
H74	H	0.847011	0.212662	0.616972
H75	H	0.923919	-0.059030	0.137337
H76	H	0.929735	-0.514336	-0.137358
H77	H	0.817977	0.236766	0.224447
Br78	Br	0.912091	-0.653876	0.178395
H79	H	1.012019	0.075426	0.224441
Br80	Br	0.732522	-0.009560	0.000004
Br81	Br	0.539794	-0.023375	-0.000029
Br82	Br	0.494692	0.273970	-0.000030
H83	H	0.294682	0.281935	-0.000027
Br84	Br	0.780256	0.268145	0.406743
