data_functionalizedCrystal
_audit_creation_method	'MofGen! by Chris Wilmer'
_symmetry_space_group_name_H-M	'P1'
_symmetry_Int_Tables_number	1
_symmetry_cell_setting	triclinic
loop_
_symmetry_equiv_pos_as_xyz
  x,y,z
_cell_length_a	21.295420
_cell_length_b	21.295417
_cell_length_c	19.120904
_cell_angle_alpha	92.408338
_cell_angle_beta	92.422698
_cell_angle_gamma	90.028757
loop_
_atom_site_label
_atom_site_type_symbol
_atom_site_fract_x
_atom_site_fract_y
_atom_site_fract_z
Zn1	Zn	0.947123	-0.265835	-0.397096
Zn2	Zn	1.447123	0.234165	0.102904
Zn3	Zn	0.951531	-0.366613	-0.279640
Zn4	Zn	1.451531	0.133387	0.220360
Zn5	Zn	0.846351	-0.261359	-0.279662
Zn6	Zn	1.346351	0.238641	0.220338
Zn7	Zn	0.841817	-0.371065	-0.397048
Zn8	Zn	1.341817	0.128935	0.102952
O9	O	0.896705	-0.316218	-0.338361
O10	O	1.396705	0.183782	0.161639
O11	O	1.035796	-0.279213	-0.381526
O12	O	1.535796	0.220787	0.118474
O13	O	0.941320	-0.348915	-0.181361
O14	O	1.441320	0.151085	0.318639
O15	O	0.859771	-0.173865	-0.295269
O16	O	1.359771	0.326135	0.204731
O17	O	1.039035	-0.353254	-0.295232
O18	O	1.539035	0.146746	0.204768
O19	O	0.933807	-0.177153	-0.381547
O20	O	1.433807	0.322847	0.118453
O21	O	0.864045	-0.271585	-0.181377
O22	O	1.364045	0.228415	0.318623
O23	O	0.757660	-0.275902	-0.295222
O24	O	1.257660	0.224098	0.204778
O25	O	0.852044	-0.360842	-0.495336
O26	O	1.352044	0.139158	0.004664
O27	O	0.754329	-0.356503	-0.381465
O28	O	1.254329	0.143497	0.118535
O29	O	0.929411	-0.283530	-0.495372
O30	O	1.429411	0.216470	0.004628
O31	O	0.936924	-0.455292	-0.295185
O32	O	1.436924	0.044708	0.204815
O33	O	0.856318	-0.458563	-0.381444
O34	O	1.356318	0.041437	0.118556
C35	C	0.733154	-0.316200	-0.338341
C36	C	1.233154	0.183800	0.161659
C37	C	0.663186	-0.316208	-0.338349
C38	C	1.163186	0.183792	0.161651
C39	C	0.162011	-0.358259	-0.383224
C40	C	0.662011	0.141741	0.116776
C41	C	0.227754	-0.358259	-0.383217
C42	C	0.727754	0.141741	0.116783
C43	C	0.262345	-0.316233	-0.338383
C44	C	0.762345	0.183767	0.161617
C45	C	0.231189	-0.274215	-0.293541
C46	C	0.731189	0.225785	0.206459
C47	C	0.165447	-0.274221	-0.293545
C48	C	0.665447	0.225779	0.206455
N49	N	0.365788	-0.260915	-0.333103
N50	N	0.865788	0.239085	0.166897
N51	N	0.428240	-0.260911	-0.333104
N52	N	0.928240	0.239089	0.166896
C53	C	0.460420	-0.316215	-0.338368
C54	C	0.960420	0.183785	0.161632
N55	N	0.427790	-0.371524	-0.343646
N56	N	0.927790	0.128476	0.156354
N57	N	0.365333	-0.371526	-0.343649
N58	N	0.865333	0.128474	0.156351
C59	C	0.333631	-0.316223	-0.338374
C60	C	0.833631	0.183777	0.161626
C61	C	0.562855	-0.358233	-0.383197
C62	C	1.062855	0.141767	0.116803
C63	C	0.628599	-0.358234	-0.383184
C64	C	1.128599	0.141766	0.116816
C65	C	0.632033	-0.274185	-0.293512
C66	C	1.132033	0.225815	0.206488
C67	C	0.566290	-0.274189	-0.293520
C68	C	1.066290	0.225811	0.206480
C69	C	0.531705	-0.316213	-0.338367
C70	C	1.031705	0.183787	0.161633
C71	C	0.896624	-0.479768	-0.338322
C72	C	1.396624	0.020232	0.161678
C73	C	0.896646	-0.549737	-0.338329
C74	C	1.396646	-0.049737	0.161671
C75	C	0.938652	-0.580881	-0.293460
C76	C	1.438652	-0.080881	0.206540
C77	C	0.938681	-0.646624	-0.293476
C78	C	1.438681	-0.146624	0.206524
C79	C	0.896693	-0.681220	-0.338354
C80	C	1.396693	-0.181220	0.161646
C81	C	0.854684	-0.650068	-0.383231
C82	C	1.354684	-0.150068	0.116769
C83	C	0.854661	-0.584326	-0.383219
C84	C	1.354661	-0.084326	0.116781
N85	N	0.841421	-0.784689	-0.343701
N86	N	1.341421	-0.284689	0.156299
N87	N	0.841445	-0.847140	-0.343708
N88	N	1.341445	-0.347140	0.156292
C89	C	0.896762	-0.879296	-0.338394
C90	C	1.396762	-0.379296	0.161606
N91	N	0.952056	-0.846641	-0.333058
N92	N	1.452056	-0.346641	0.166942
N93	N	0.952031	-0.784183	-0.333047
N94	N	1.452031	-0.284183	0.166953
C95	C	0.896714	-0.752506	-0.338372
C96	C	1.396714	-0.252506	0.161628
C97	C	0.938802	-0.981727	-0.293540
C98	C	1.438802	-0.481727	0.206460
C99	C	0.938832	-1.047471	-0.293560
C100	C	1.438832	-0.547471	0.206440
C101	C	0.854830	-1.050914	-0.383312
C102	C	1.354830	-0.550914	0.116688
C103	C	0.854806	-0.985171	-0.383295
C104	C	1.354806	-0.485171	0.116705
C105	C	0.896791	-0.950581	-0.338405
C106	C	1.396791	-0.450581	0.161595
C107	C	1.060895	-0.316236	-0.338382
C108	C	1.560895	0.183764	0.161618
C109	C	1.130862	-0.316244	-0.338391
C110	C	1.630862	0.183756	0.161609
C111	C	0.889730	-0.323182	-0.521550
C112	C	1.389730	0.176818	-0.021550
C113	C	0.886758	-0.326150	-0.599614
C114	C	1.386758	0.173850	-0.099614
C115	C	0.896803	-0.152030	-0.338416
C116	C	1.396803	0.347970	0.161584
C117	C	0.896845	-0.082063	-0.338439
C118	C	1.396845	0.417937	0.161561
C119	C	0.925641	-0.287293	-0.636308
C120	C	1.425641	0.212707	-0.136308
C121	C	0.922840	-0.290080	-0.709658
C122	C	1.422840	0.209920	-0.209658
C123	C	0.881160	-0.331725	-0.746311
C124	C	1.381160	0.168275	-0.246311
C125	C	0.842273	-0.370583	-0.709612
C126	C	1.342273	0.129417	-0.209612
C127	C	0.845071	-0.367794	-0.636264
C128	C	1.345071	0.132206	-0.136264
C129	C	0.870694	-0.342159	-0.967774
C130	C	1.370694	0.157841	-0.467774
C131	C	0.867901	-0.344947	-1.041128
C132	C	1.367901	0.155053	-0.541128
C133	C	0.948468	-0.264442	-1.041168
C134	C	1.448468	0.235558	-0.541168
C135	C	0.951264	-0.261659	-0.967818
C136	C	1.451264	0.238341	-0.467818
C137	C	0.912375	-0.300514	-0.931126
C138	C	1.412375	0.199486	-0.431126
C139	C	0.878298	-0.334576	-0.821286
C140	C	1.378298	0.165424	-0.321286
C141	C	0.915235	-0.297661	-0.856152
C142	C	1.415235	0.202339	-0.356152
C143	C	0.903689	-0.309236	-0.155885
C144	C	1.403689	0.190764	0.344115
C145	C	0.906784	-0.306091	-0.077822
C146	C	1.406784	0.193909	0.422178
H147	H	0.259357	-0.239998	-0.257036
H148	H	0.759357	0.260002	0.242964
H149	H	0.820646	-1.079081	-0.419855
H150	H	1.320646	-0.579081	0.080145
H151	H	0.534695	-0.392452	-0.419712
H152	H	1.034695	0.107548	0.080288
H153	H	0.972991	-0.953563	-0.256990
H154	H	1.472991	-0.453563	0.243010
Br155	Br	0.995851	-1.089740	-0.232668
Br156	Br	1.495851	-0.589740	0.267332
H157	H	0.972840	-0.552720	-0.256910
H158	H	1.472840	-0.052720	0.243090
Br159	Br	1.007835	-0.205139	-0.918079
Br160	Br	1.507835	0.294861	-0.418079
H161	H	0.839037	-0.373807	-0.937908
H162	H	1.339037	0.126193	-0.437908
H163	H	0.980128	-0.232807	-1.071051
H164	H	1.480128	0.267193	-0.571051
Br165	Br	0.524013	-0.217162	-0.232676
Br166	Br	1.024013	0.282838	0.267324
Br167	Br	0.811329	-0.401468	-1.090872
Br168	Br	1.311329	0.098532	-0.590872
H169	H	0.660196	-0.239968	-0.257005
H170	H	1.160196	0.260032	0.242995
Br171	Br	0.797705	-0.697018	-0.444142
Br172	Br	1.297705	-0.197018	0.055858
H173	H	0.808333	-0.404490	-0.739462
H174	H	1.308333	0.095510	-0.239462
H175	H	0.140086	-0.240005	-0.257035
H176	H	0.640086	0.259995	0.242965
H177	H	0.820599	-0.959811	-0.419828
H178	H	1.320599	-0.459811	0.080172
H179	H	0.820454	-0.558968	-0.419758
H180	H	1.320454	-0.058968	0.080242
Br181	Br	0.982215	-0.230776	-0.586571
Br182	Br	1.482215	0.269224	-0.086571
Br183	Br	0.975641	-0.237373	-0.759454
Br184	Br	1.475641	0.262627	-0.259454
Br185	Br	0.792295	-0.420525	-0.586464
Br186	Br	1.292295	0.079475	-0.086464
Br187	Br	0.821734	-0.391095	-0.871037
Br188	Br	1.321734	0.108905	-0.371037
H189	H	0.133856	-0.392480	-0.419739
H190	H	0.633856	0.107520	0.080261
H191	H	0.949168	-0.263750	-0.826305
H192	H	1.449168	0.236250	-0.326305
H193	H	0.653960	-0.392452	-0.419691
H194	H	1.153960	0.107548	0.080309
H195	H	0.253120	-0.392473	-0.419728
H196	H	0.753120	0.107527	0.080272
H197	H	0.972889	-0.671987	-0.256939
H198	H	1.472889	-0.171987	0.243061
