data_functionalizedCrystal
_audit_creation_method	'MofGen! by Chris Wilmer'
_symmetry_space_group_name_H-M	'P1'
_symmetry_Int_Tables_number	1
_symmetry_cell_setting	triclinic
loop_
_symmetry_equiv_pos_as_xyz
  x,y,z
_cell_length_a	10.654547
_cell_length_b	16.109301
_cell_length_c	14.586319
_cell_angle_alpha	90.005214
_cell_angle_beta	89.995773
_cell_angle_gamma	96.026232
loop_
_atom_site_label
_atom_site_type_symbol
_atom_site_fract_x
_atom_site_fract_y
_atom_site_fract_z
O1	O	1.666254	-0.116784	-0.076259
O2	O	1.300625	-0.127907	-0.076258
O3	O	1.493484	-0.001374	-0.076249
O4	O	1.473395	-0.243317	-0.076268
O5	O	1.493470	-0.001372	0.076231
O6	O	1.300612	-0.127905	0.076223
O7	O	1.666241	-0.116782	0.076221
Cu8	Cu	1.483425	-0.122343	0.090145
Cu9	Cu	1.483441	-0.122346	-0.090181
O10	O	1.473382	-0.243315	0.076213
C11	C	1.253831	-0.127089	-0.000017
C12	C	1.114421	-0.124644	-0.000017
C13	C	0.852479	-0.120037	-0.166267
C14	C	0.917989	-0.121188	-0.249385
C15	C	1.048975	-0.123492	-0.249383
C16	C	1.114455	-0.124642	-0.166254
C17	C	1.048945	-0.123491	-0.083136
C18	C	0.917955	-0.121190	-0.083148
C19	C	1.048912	-0.123493	0.083101
C20	C	0.917924	-0.121195	0.083101
C21	C	1.114392	-0.124643	0.166230
C22	C	1.048881	-0.123498	0.249349
C23	C	0.917886	-0.121196	0.249344
C24	C	0.852414	-0.120044	0.166218
C25	C	1.492663	0.029606	-0.000009
C26	C	1.490224	0.121916	-0.000007
C27	C	1.713034	-0.117600	-0.000021
C28	C	1.852444	-0.120045	-0.000028
C29	C	1.474202	-0.274295	-0.000030
C30	C	1.476642	-0.366605	-0.000037
N31	N	1.483423	-0.122341	0.216977
C32	C	1.598990	0.343541	-0.000022
C33	C	1.596688	0.430275	-0.000030
C34	C	1.367867	0.411763	-0.000025
C35	C	1.370171	0.325031	-0.000024
C36	C	1.485736	0.290922	-0.000018
C37	C	1.481130	0.464389	-0.000027
C38	C	1.478633	0.558430	-0.000035
C39	C	1.488233	0.196875	-0.000012
N40	N	1.483453	-0.122341	-0.217013
C41	C	1.568849	-0.066332	0.451987
C42	C	1.568853	-0.066330	0.547968
C43	C	1.398018	-0.178353	0.547970
C44	C	1.398009	-0.178351	0.451990
C45	C	1.483432	-0.122341	0.404001
C46	C	1.483444	-0.122342	0.595962
C47	C	1.483447	-0.122340	0.700029
C48	C	1.483427	-0.122341	0.299928
H49	H	1.221113	-0.126507	-0.166259
H50	H	1.638406	-0.020721	0.587035
O51	O	0.854180	-0.120106	-0.330051
C52	C	0.724524	-0.117806	-0.312236
H53	H	0.701407	-0.143767	-0.240805
H54	H	0.700560	-0.050571	-0.316172
C55	C	0.674884	-0.139165	-0.471685
C56	C	0.646490	-0.171057	-0.383955
H57	H	0.626747	-0.172009	-0.515927
H58	H	0.762236	-0.140711	-0.483689
H59	H	0.654914	-0.083136	-0.474952
H60	H	0.666475	-0.227080	-0.380687
H61	H	0.559139	-0.169521	-0.371953
H62	H	1.328470	-0.223957	0.587052
O63	O	1.260065	0.273996	-0.000142
C64	C	1.189919	0.289537	-0.079123
H65	H	1.220775	0.355141	-0.105451
H66	H	1.207083	0.242003	-0.134423
C67	C	1.010532	0.201526	-0.022797
C68	C	1.048422	0.282105	-0.055128
H69	H	0.923250	0.196939	-0.007998
H70	H	1.057792	0.191053	0.030413
H71	H	1.024846	0.161924	-0.068885
H72	H	1.034123	0.321705	-0.009036
H73	H	1.001157	0.292585	-0.108330
O74	O	1.706670	0.481423	-0.000194
C75	C	1.712179	0.532149	-0.079158
H76	H	1.647951	0.500754	-0.134352
H77	H	1.679700	0.595399	-0.061308
C78	C	1.927718	0.583091	-0.047179
C79	C	1.848840	0.544527	-0.114971
H80	H	2.012016	0.590730	-0.069269
H81	H	1.924006	0.548918	0.006023
H82	H	1.900637	0.635796	-0.032310
H83	H	1.875912	0.491820	-0.129830
H84	H	1.852559	0.578692	-0.168176
O85	O	1.314983	-0.232842	0.405513
C86	C	1.239575	-0.282269	0.468448
H87	H	1.291062	-0.283531	0.536861
H88	H	1.146302	-0.254700	0.478670
C89	C	1.150410	-0.370249	0.346947
C90	C	1.213653	-0.371804	0.430971
H91	H	1.134414	-0.425477	0.323829
H92	H	1.201210	-0.336947	0.304546
H93	H	1.072690	-0.347270	0.355477
H94	H	1.291377	-0.394772	0.422439
H95	H	1.162865	-0.405112	0.473371
H96	H	0.745821	-0.118173	-0.166278
H97	H	1.693090	0.315773	-0.000019
H98	H	1.273778	0.439545	-0.000029
H99	H	1.638404	-0.020724	0.412916
H100	H	1.102313	-0.124428	-0.317064
H101	H	1.221049	-0.126513	0.166226
O102	O	1.112647	-0.124505	0.330033
C103	C	1.202641	-0.053944	0.335026
H104	H	1.227021	-0.030321	0.262862
H105	H	1.162132	-0.002730	0.376052
C106	C	1.292792	-0.106973	0.471177
C107	C	1.322743	-0.077963	0.382543
H108	H	1.366875	-0.121787	0.500491
H109	H	1.232158	-0.154510	0.467816
H110	H	1.259032	-0.064289	0.505354
H111	H	1.356487	-0.120650	0.348364
H112	H	1.383386	-0.030433	0.385899
H113	H	0.864555	-0.120262	0.317028
H114	H	0.745757	-0.118174	0.166206
