data_functionalizedCrystal
_audit_creation_method	'MofGen! by Chris Wilmer'
_symmetry_space_group_name_H-M	'P1'
_symmetry_Int_Tables_number	1
_symmetry_cell_setting	triclinic
loop_
_symmetry_equiv_pos_as_xyz
  x,y,z
_cell_length_a	11.792241
_cell_length_b	16.109301
_cell_length_c	10.868271
_cell_angle_alpha	90.002838
_cell_angle_beta	90.000156
_cell_angle_gamma	83.827448
loop_
_atom_site_label
_atom_site_type_symbol
_atom_site_fract_x
_atom_site_fract_y
_atom_site_fract_z
O1	O	-1.505910	-0.113950	-0.102207
O2	O	-1.175466	-0.125694	-0.102236
O3	O	-1.349765	0.001166	-0.102208
O4	O	-1.331610	-0.240811	-0.102235
O5	O	-1.349749	0.001162	0.102436
O6	O	-1.175450	-0.125698	0.102409
O7	O	-1.505894	-0.113954	0.102438
Zn8	Zn	-1.340669	-0.119827	0.134915
Zn9	Zn	-1.340690	-0.119822	-0.134713
O10	O	-1.331594	-0.240815	0.102410
C11	C	-1.133173	-0.124959	0.000083
C12	C	-1.007179	-0.122751	0.000072
C13	C	-1.548186	-0.114690	0.000116
C14	C	-1.674181	-0.116898	0.000119
C15	C	-1.349022	0.032142	0.000115
C16	C	-1.346817	0.124448	0.000116
C17	C	-0.776502	-0.118690	0.000108
C18	C	-0.904868	-0.120946	0.000088
C19	C	-1.332338	-0.271791	0.000084
C20	C	-1.334542	-0.364097	0.000074
N21	N	-1.340663	-0.119830	0.318929
C22	C	-1.445116	0.346258	0.000105
C23	C	-1.443036	0.432988	0.000095
C24	C	-1.236235	0.414087	0.000082
C25	C	-1.238317	0.327358	0.000083
C26	C	-1.342761	0.293446	0.000101
C27	C	-1.338599	0.466905	0.000089
C28	C	-1.336342	0.560942	0.000078
C29	C	-1.345018	0.199404	0.000110
N30	N	-1.340705	-0.119812	-0.318727
C31	C	-1.340672	-0.119831	0.430267
C32	C	-1.340687	-0.119823	0.569944
H33	H	-1.530161	0.318650	0.000117
O34	O	-1.542540	0.484203	-0.000061
C35	C	-1.605946	0.468764	-0.106056
H36	H	-1.578055	0.403105	-0.141389
H37	H	-1.700606	0.474441	-0.082210
H38	H	-1.590449	0.516262	-0.180278
O39	O	-1.134855	0.447131	-0.000089
C40	C	-1.127455	0.496714	-0.106090
H41	H	-1.216919	0.517910	-0.141422
H42	H	-1.082231	0.553703	-0.082252
H43	H	-1.077232	0.458625	-0.180309
H44	H	-1.154962	0.284357	0.000076
