data_functionalizedCrystal
_audit_creation_method	'MofGen! by Chris Wilmer'
_symmetry_space_group_name_H-M	'P1'
_symmetry_Int_Tables_number	1
_symmetry_cell_setting	triclinic
loop_
_symmetry_equiv_pos_as_xyz
  x,y,z
_cell_length_a	9.065218
_cell_length_b	14.853567
_cell_length_c	7.540329
_cell_angle_alpha	90.000203
_cell_angle_beta	89.996962
_cell_angle_gamma	84.325408
loop_
_atom_site_label
_atom_site_type_symbol
_atom_site_fract_x
_atom_site_fract_y
_atom_site_fract_z
O1	O	1.957778	0.132191	-0.147470
O2	O	1.528279	0.143034	-0.147471
O3	O	1.754501	0.006468	-0.147476
O4	O	1.731556	0.268757	-0.147465
O5	O	1.754488	0.006466	0.147489
O6	O	1.528265	0.143032	0.147494
O7	O	1.957765	0.132189	0.147495
Cu8	Cu	1.743014	0.137611	0.174427
Cu9	Cu	1.743030	0.137613	-0.174403
O10	O	1.731542	0.268756	0.147500
C11	C	1.473306	0.141991	0.000011
C12	C	1.309525	0.138875	0.000010
C13	C	1.753455	-0.027130	0.000001
C14	C	1.750339	-0.127236	-0.000014
C15	C	1.602788	-0.540862	0.000019
C16	C	1.871546	-0.560154	0.000020
C17	C	1.874475	-0.466099	0.000010
C18	C	1.741559	-0.409421	0.000007
C19	C	1.605714	-0.446798	0.000014
C20	C	2.010318	-0.428714	0.000020
C21	C	2.013253	-0.334654	0.000012
C22	C	1.880335	-0.277974	-0.000004
C23	C	1.744484	-0.315356	0.000002
C24	C	1.611568	-0.258678	-0.000001
C25	C	1.475716	-0.296059	-0.000008
C26	C	1.472796	-0.390118	-0.000001
C27	C	1.883255	-0.183915	-0.000011
C28	C	1.614494	-0.164614	-0.000006
C29	C	2.012738	0.133232	0.000009
C30	C	2.176519	0.136348	-0.000002
C31	C	1.732589	0.302353	0.000019
C32	C	1.735704	0.402460	0.000022
N33	N	1.743013	0.137609	0.419776
N34	N	1.743042	0.137608	-0.419752
H35	H	1.506255	-0.118471	-0.000016
C36	C	1.455446	-0.581614	0.000105
C37	C	1.481320	-0.676118	0.000147
C38	C	1.345624	-0.713690	0.000250
H39	H	1.400604	-0.562334	-0.102727
H40	H	1.400695	-0.562285	0.103008
H41	H	1.536048	-0.695440	-0.102746
H42	H	1.536139	-0.695424	0.102971
H43	H	1.290873	-0.694361	0.103153
H44	H	1.290792	-0.694403	-0.102584
H45	H	1.363161	-0.777814	0.000295
H46	H	1.979760	-0.606307	0.000037
H47	H	2.118531	-0.474868	0.000039
H48	H	2.123872	-0.304227	0.000015
H49	H	1.362192	-0.420562	-0.000005
C50	C	1.331570	-0.234366	-0.000098
C51	C	1.363222	-0.143995	-0.000134
C52	C	1.230477	-0.087135	-0.000240
H53	H	1.275758	-0.245697	0.102730
H54	H	1.275870	-0.245757	-0.103005
H55	H	1.418897	-0.132608	0.102762
H56	H	1.419012	-0.132635	-0.102955
H57	H	1.174778	-0.098527	-0.103146
H58	H	1.174676	-0.098475	0.102590
H59	H	1.251935	-0.025813	-0.000280
H60	H	1.993864	-0.153483	0.000006
