data_functionalizedCrystal
_audit_creation_method	'MofGen! by Chris Wilmer'
_symmetry_space_group_name_H-M	'P1'
_symmetry_Int_Tables_number	1
_symmetry_cell_setting	triclinic
loop_
_symmetry_equiv_pos_as_xyz
  x,y,z
_cell_length_a	15.995350
_cell_length_b	15.995350
_cell_length_c	15.072220
_cell_angle_alpha	90.001101
_cell_angle_beta	89.991149
_cell_angle_gamma	83.492375
loop_
_atom_site_label
_atom_site_type_symbol
_atom_site_fract_x
_atom_site_fract_y
_atom_site_fract_z
O1	O	1.110996	0.107921	-0.073703
O2	O	0.867221	0.121249	-0.073721
O3	O	0.995772	-0.007303	-0.073710
O4	O	0.982444	0.236472	-0.073713
O5	O	0.995740	-0.007296	0.073855
O6	O	0.867189	0.121256	0.073844
O7	O	1.110964	0.107928	0.073862
Zn8	Zn	0.989071	0.114593	0.097283
Zn9	Zn	0.989113	0.114584	-0.097141
O10	O	0.982413	0.236480	0.073852
C11	C	0.836010	0.120701	0.000060
C12	C	0.743060	0.119049	0.000053
C13	C	0.405312	0.113117	0.000071
C14	C	0.452746	0.021565	0.000401
C15	C	0.549436	0.023217	0.000063
C16	C	0.572873	0.116060	0.000063
C17	C	0.531804	0.161212	-0.084201
C18	C	0.435168	0.158912	-0.084266
C19	C	0.434793	0.160812	0.083543
C20	C	0.531738	0.160790	0.084651
C21	C	0.667570	0.117727	0.000055
C22	C	0.310614	0.111452	0.000073
C23	C	0.995205	-0.038494	0.000070
C24	C	0.993553	-0.131444	0.000065
C25	C	0.987621	-0.469192	0.000068
C26	C	0.896069	-0.421758	-0.000270
C27	C	0.897721	-0.325068	0.000063
C28	C	0.990564	-0.301631	0.000066
C29	C	1.035702	-0.342705	0.084335
C30	C	1.033402	-0.439341	0.084405
C31	C	1.035330	-0.439707	-0.083404
C32	C	1.035308	-0.342761	-0.084518
C33	C	0.992231	-0.206934	0.000068
C34	C	0.985956	-0.563890	0.000072
C35	C	1.142175	0.108476	0.000080
C36	C	1.235125	0.110127	0.000081
C37	C	0.982980	0.267671	0.000069
C38	C	0.984631	0.360621	0.000069
N39	N	0.989049	0.114599	0.229971
N40	N	0.989142	0.114571	-0.229830
C41	C	0.989112	0.114580	0.589173
C42	C	0.920095	0.183135	0.551560
C43	C	0.920254	0.183385	0.448735
C44	C	0.989080	0.114590	0.410969
C45	C	1.076445	0.133671	0.448266
C46	C	1.076058	0.134159	0.551124
C47	C	0.971542	0.026741	0.551272
C48	C	0.969537	0.027327	0.448409
C49	C	0.989067	0.114593	0.310255
C50	C	0.989130	0.114579	0.689886
H51	H	0.577852	-0.012275	0.060467
H52	H	1.103910	-0.328579	0.087471
H53	H	1.092297	0.197002	0.422498
O54	O	0.413426	0.119704	-0.159494
C55	C	0.437363	0.164432	-0.234189
H56	H	0.490156	0.203168	-0.214967
H57	H	0.381023	0.208143	-0.259140
C58	C	0.403464	0.054344	-0.331649
C59	C	0.468310	0.101914	-0.308043
H60	H	0.422549	0.015782	-0.377208
H61	H	0.387333	0.024211	-0.281327
H62	H	0.356519	0.090778	-0.352437
H63	H	0.515249	0.065481	-0.287246
H64	H	0.484449	0.132040	-0.358364
O65	O	0.548765	0.242554	-0.087835
C66	C	0.598109	0.259905	-0.014013
H67	H	0.632611	0.198663	0.012349
H68	H	0.555732	0.291191	0.040169
C69	C	0.620270	0.394543	-0.074552
C70	C	0.662652	0.319325	-0.042179
H71	H	0.660081	0.431199	-0.091924
H72	H	0.587023	0.382855	-0.124286
H73	H	0.584958	0.420604	-0.029395
H74	H	0.697954	0.293261	-0.087339
H75	H	0.695906	0.331011	0.007547
O76	O	0.892865	0.010161	0.419226
C77	C	0.856993	0.076757	0.365230
H78	H	0.908955	0.112350	0.337280
H79	H	0.811912	0.121438	0.406446
C80	C	0.744695	-0.002652	0.322653
C81	C	0.808516	0.041060	0.288319
H82	H	0.714788	-0.024670	0.275213
H83	H	0.768860	-0.047518	0.359034
H84	H	0.707136	0.034589	0.357000
H85	H	0.846079	0.003817	0.253982
H86	H	0.784355	0.085919	0.251930
O87	O	1.031531	-0.034224	0.580182
C88	C	1.015145	-0.112718	0.545817
H89	H	0.975222	-0.102463	0.483281
H90	H	0.979825	-0.147263	0.597403
C91	C	1.147925	-0.178241	0.599878
C92	C	1.098896	-0.165646	0.523066
H93	H	1.199586	-0.210893	0.585847
H94	H	1.158964	-0.125360	0.623033
H95	H	1.118482	-0.207026	0.642859
H96	H	1.128335	-0.136853	0.480091
H97	H	1.087864	-0.218525	0.499903
H98	H	1.004325	-0.314320	0.147042
O99	O	0.999520	-0.464099	-0.159582
C100	C	0.914876	-0.428328	-0.163269
H101	H	0.906129	-0.369793	-0.119607
H102	H	0.872391	-0.475991	-0.138507
C103	C	0.902368	-0.475837	-0.313354
C104	C	0.891626	-0.403938	-0.259733
H105	H	0.888024	-0.460795	-0.372857
H106	H	0.959393	-0.499939	-0.310870
H107	H	0.866963	-0.515549	-0.292708
H108	H	0.927039	-0.364232	-0.280372
H109	H	0.834607	-0.379829	-0.262223
O110	O	1.139106	0.076873	0.580962
C111	C	1.139376	0.076784	0.674507
H112	H	1.074309	0.102208	0.699948
H113	H	1.187768	0.118299	0.699599
C114	C	1.242115	-0.044964	0.677183
C115	C	1.162196	-0.013744	0.708430
H116	H	1.256195	-0.100804	0.698109
H117	H	1.241936	-0.044902	0.614160
H118	H	1.282432	-0.010360	0.698095
H119	H	1.121880	-0.048341	0.687508
H120	H	1.162369	-0.013813	0.771450
O121	O	0.842434	0.169708	0.581212
C122	C	0.849332	0.098077	0.636386
H123	H	0.915877	0.086700	0.664318
H124	H	0.835320	0.040935	0.596161
C125	C	0.704169	0.126365	0.678959
C126	C	0.785900	0.112395	0.713270
H127	H	0.665039	0.135194	0.726382
H128	H	0.699521	0.174622	0.641784
H129	H	0.692504	0.078743	0.645438
H130	H	0.797567	0.160021	0.746781
H131	H	0.790548	0.064146	0.750453
H132	H	0.909219	0.008392	0.577258
H133	H	1.091540	0.198219	0.575106
H134	H	0.931160	0.247952	0.577399
O135	O	1.113543	-0.477910	0.089103
C136	C	1.122793	-0.527917	0.166276
H137	H	1.058553	-0.544690	0.188216
H138	H	1.151363	-0.491456	0.221398
C139	C	1.259984	-0.588534	0.119531
C140	C	1.181084	-0.609141	0.146474
H141	H	1.295943	-0.638635	0.107319
H142	H	1.253754	-0.554841	0.067539
H143	H	1.283781	-0.558149	0.165471
H144	H	1.157284	-0.639516	0.100531
H145	H	1.187312	-0.642841	0.198458
O146	O	0.854965	-0.291761	0.072152
C147	C	0.787013	-0.233934	0.044106
H148	H	0.769207	-0.249226	-0.026819
H149	H	0.806092	-0.167437	0.046794
C150	C	0.732935	-0.221155	0.192757
C151	C	0.711061	-0.239941	0.105649
H152	H	0.686085	-0.224857	0.230722
H153	H	0.778717	-0.260112	0.211654
H154	H	0.748835	-0.165742	0.194985
H155	H	0.695172	-0.295357	0.103421
H156	H	0.665274	-0.200994	0.086753
O157	O	0.565723	0.123673	-0.158930
C158	C	0.626603	0.056638	-0.135332
H159	H	0.613234	0.034334	-0.065452
H160	H	0.691818	0.078873	-0.137387
C161	C	0.639488	0.010899	-0.287002
C162	C	0.623063	-0.016500	-0.201177
H163	H	0.637308	-0.034215	-0.327620
H164	H	0.598474	0.056063	-0.302902
H165	H	0.693833	0.029428	-0.288702
H166	H	0.568715	-0.035018	-0.199475
H167	H	0.664067	-0.061669	-0.185278
O168	O	1.139087	0.075646	0.418969
C169	C	1.104749	0.016746	0.364206
H170	H	1.042043	0.046129	0.336107
H171	H	1.094406	-0.041319	0.404829
C172	C	1.242934	-0.044934	0.321982
C173	C	1.165921	-0.008843	0.287464
H174	H	1.280668	-0.060723	0.274645
H175	H	1.266069	-0.005255	0.358879
H176	H	1.234304	-0.093317	0.355834
H177	H	1.174550	0.039545	0.253622
H178	H	1.142788	-0.048515	0.250559
O179	O	0.933538	0.261211	0.419472
C180	C	0.868851	0.321053	0.450999
H181	H	0.839419	0.295535	0.512808
H182	H	0.818700	0.334157	0.397501
C183	C	0.941846	0.434533	0.398294
C184	C	0.905701	0.403194	0.474214
H185	H	0.964575	0.485202	0.412611
H186	H	0.985425	0.394216	0.377050
H187	H	0.900047	0.445446	0.353720
H188	H	0.947502	0.392272	0.518782
H189	H	0.862130	0.443511	0.495466
H190	H	1.002306	-0.315516	-0.146857
H191	H	0.414244	0.130885	0.147414
O192	O	0.993959	-0.461115	0.159483
C193	C	0.911304	-0.419765	0.161284
H194	H	0.890289	-0.402033	0.090830
H195	H	0.909641	-0.360409	0.203420
C196	C	0.877459	-0.500508	0.288037
C197	C	0.851646	-0.478736	0.201504
H198	H	0.840658	-0.536882	0.312850
H199	H	0.933146	-0.528365	0.286826
H200	H	0.876073	-0.451039	0.323140
H201	H	0.853042	-0.528204	0.166400
H202	H	0.795957	-0.450889	0.202710
O203	O	1.025502	-0.036433	0.417647
C204	C	0.982233	-0.094044	0.370032
H205	H	0.919557	-0.061059	0.345572
H206	H	0.970339	-0.148630	0.415202
C207	C	1.112680	-0.168309	0.320084
C208	C	1.035703	-0.127794	0.290035
H209	H	1.145663	-0.189131	0.270740
H210	H	1.141832	-0.129498	0.352166
H211	H	1.102757	-0.213792	0.357726
H212	H	1.045627	-0.082306	0.252403
H213	H	1.006554	-0.166598	0.257945
H214	H	1.103014	-0.327400	-0.089603
H215	H	0.434211	-0.015027	0.060830
H216	H	0.855314	0.172016	0.423519
O217	O	0.550162	0.241521	0.090847
C218	C	0.593685	0.251900	0.170719
H219	H	0.625074	0.188202	0.194202
H220	H	0.547475	0.279741	0.223375
C221	C	0.622692	0.389908	0.126275
C222	C	0.661252	0.311675	0.155114
H223	H	0.664369	0.426783	0.116651
H224	H	0.593368	0.382918	0.072465
H225	H	0.584185	0.413098	0.170160
H226	H	0.699750	0.288482	0.111225
H227	H	0.690584	0.318663	0.208917
O228	O	0.429467	-0.021820	-0.071382
C229	C	0.449787	0.019789	-0.149615
H230	H	0.502149	0.060602	-0.135092
H231	H	0.391800	0.061135	-0.174525
C232	C	0.415269	-0.095871	-0.238878
C233	C	0.479586	-0.045749	-0.221043
H234	H	0.433647	-0.136296	-0.282941
H235	H	0.401576	-0.123902	-0.186172
H236	H	0.366952	-0.061407	-0.259632
H237	H	0.527897	-0.080212	-0.200280
H238	H	0.493288	-0.017725	-0.273748
O239	O	1.115805	-0.477731	-0.084131
C240	C	1.115175	-0.565753	-0.087322
H241	H	1.052906	-0.581089	-0.116381
H242	H	1.122863	-0.592706	-0.017400
C243	C	1.264698	-0.585942	-0.110319
C244	C	1.188220	-0.604778	-0.146016
H245	H	1.309757	-0.610016	-0.146520
H246	H	1.265124	-0.526640	-0.108166
H247	H	1.271093	-0.608404	-0.052051
H248	H	1.181822	-0.582307	-0.204277
H249	H	1.187795	-0.664077	-0.148180
O250	O	0.582751	-0.019525	-0.072030
C251	C	0.640579	-0.087479	-0.043989
H252	H	0.625280	-0.105300	0.026934
H253	H	0.707075	-0.068395	-0.046674
C254	C	0.653379	-0.141528	-0.192645
C255	C	0.634584	-0.163420	-0.105539
H256	H	0.649685	-0.188371	-0.230613
H257	H	0.614422	-0.095744	-0.211538
H258	H	0.708792	-0.125624	-0.194870
H259	H	0.579169	-0.179313	-0.103313
H260	H	0.673532	-0.209208	-0.086647
H261	H	0.402920	0.226128	-0.088090
O262	O	0.852298	-0.443882	-0.072263
C263	C	0.780491	-0.480136	-0.043991
H264	H	0.763067	-0.457860	0.026147
H265	H	0.794523	-0.551621	-0.044524
C266	C	0.728034	-0.480624	-0.193280
C267	C	0.706630	-0.453259	-0.107138
H268	H	0.682474	-0.464049	-0.232233
H269	H	0.776414	-0.456203	-0.212329
H270	H	0.739729	-0.540194	-0.193711
H271	H	0.694946	-0.393690	-0.106706
H272	H	0.658247	-0.477670	-0.088091
O273	O	0.564183	0.121540	0.159113
C274	C	0.526823	0.162238	0.234628
H275	H	0.463355	0.197451	0.215718
H276	H	0.569594	0.208706	0.261486
C277	C	0.591923	0.053109	0.329608
C278	C	0.513967	0.096352	0.306383
H279	H	0.583996	0.012469	0.373873
H280	H	0.617096	0.025692	0.278733
H281	H	0.627558	0.091841	0.351985
H282	H	0.478338	0.057622	0.283998
H283	H	0.488788	0.123762	0.357257
O284	O	0.852455	-0.445059	0.071347
C285	C	0.770509	-0.402013	0.070171
H286	H	0.753299	-0.381495	-0.000559
H287	H	0.768022	-0.344240	0.114802
C288	C	0.728740	-0.485950	0.191009
C289	C	0.707600	-0.460756	0.104137
H290	H	0.689934	-0.522183	0.211965
H291	H	0.783949	-0.514950	0.191804
H292	H	0.726668	-0.437800	0.228191
H293	H	0.709683	-0.508904	0.066954
H294	H	0.652389	-0.431766	0.103336
H295	H	0.403031	0.228312	0.084113
H296	H	0.862238	-0.296649	-0.060344
