data_functionalizedCrystal
_audit_creation_method	'MofGen! by Chris Wilmer'
_symmetry_space_group_name_H-M	'P1'
_symmetry_Int_Tables_number	1
_symmetry_cell_setting	triclinic
loop_
_symmetry_equiv_pos_as_xyz
  x,y,z
_cell_length_a	19.077367
_cell_length_b	19.077263
_cell_length_c	19.076919
_cell_angle_alpha	89.924196
_cell_angle_beta	94.478002
_cell_angle_gamma	89.904527
loop_
_atom_site_label
_atom_site_type_symbol
_atom_site_fract_x
_atom_site_fract_y
_atom_site_fract_z
Zn1	Zn	-1.072266	-0.251019	0.344962
Zn2	Zn	-0.822266	-0.001019	0.594962
Zn3	Zn	-0.572266	0.248981	0.844962
Zn4	Zn	-0.322266	0.498981	1.094962
Zn5	Zn	-1.081663	-0.363417	0.222397
Zn6	Zn	-0.831663	-0.113417	0.472397
Zn7	Zn	-0.581663	0.136583	0.722397
Zn8	Zn	-0.331663	0.386583	0.972397
Zn9	Zn	-0.959122	-0.251036	0.231812
Zn10	Zn	-0.709122	-0.001036	0.481812
Zn11	Zn	-0.459122	0.248964	0.731812
Zn12	Zn	-0.209122	0.498964	0.981812
Zn13	Zn	-0.959504	-0.373192	0.344555
Zn14	Zn	-0.709504	-0.123192	0.594555
Zn15	Zn	-0.459504	0.126808	0.844555
Zn16	Zn	-0.209504	0.376808	1.094555
O17	O	-1.018139	-0.309666	0.285932
O18	O	-0.768139	-0.059666	0.535932
O19	O	-0.518139	0.190334	0.785932
O20	O	-0.268139	0.440334	1.035932
O21	O	-1.171988	-0.261831	0.324933
O22	O	-0.921988	-0.011831	0.574933
O23	O	-0.671988	0.238169	0.824933
O24	O	-0.421988	0.488169	1.074933
O25	O	-1.069181	-0.344426	0.125169
O26	O	-0.819181	-0.094426	0.375169
O27	O	-0.569181	0.155574	0.625169
O28	O	-0.319181	0.405574	0.875169
O29	O	-0.970038	-0.152873	0.250932
O30	O	-0.720038	0.097127	0.500932
O31	O	-0.470038	0.347127	0.750932
O32	O	-0.220038	0.597127	1.000932
O33	O	-1.178892	-0.344409	0.234886
O34	O	-0.928892	-0.094409	0.484886
O35	O	-0.678892	0.155591	0.734886
O36	O	-0.428892	0.405591	0.984886
O37	O	-1.053164	-0.152860	0.334062
O38	O	-0.803164	0.097140	0.584062
O39	O	-0.553164	0.347140	0.834062
O40	O	-0.303164	0.597140	1.084062
O41	O	-0.979150	-0.261860	0.132086
O42	O	-0.729150	-0.011860	0.382086
O43	O	-0.479150	0.238140	0.632086
O44	O	-0.229150	0.488140	0.882086
O45	O	-0.860697	-0.271339	0.250538
O46	O	-0.610697	-0.021339	0.500538
O47	O	-0.360697	0.228661	0.750538
O48	O	-0.110697	0.478661	1.000538
O49	O	-0.970690	-0.361070	0.443086
O50	O	-0.720690	-0.111070	0.693086
O51	O	-0.470690	0.138930	0.943086
O52	O	-0.220690	0.388930	1.193086
O53	O	-0.860978	-0.361086	0.333370
O54	O	-0.610978	-0.111086	0.583370
O55	O	-0.360978	0.138914	0.833370
O56	O	-0.110978	0.388914	1.083370
O57	O	-1.053535	-0.271310	0.443385
O58	O	-0.803535	-0.021310	0.693385
O59	O	-0.553535	0.228690	0.943385
O60	O	-0.303535	0.478690	1.193385
O61	O	-1.069551	-0.462876	0.234492
O62	O	-0.819551	-0.212876	0.484492
O63	O	-0.569551	0.037124	0.734492
O64	O	-0.319551	0.287124	0.984492
O65	O	-0.979802	-0.470057	0.324240
O66	O	-0.729802	-0.220057	0.574240
O67	O	-0.479802	0.029943	0.824240
O68	O	-0.229802	0.279943	1.074240
C69	C	-0.835304	-0.317276	0.292932
C70	C	-0.585304	-0.067276	0.542932
C71	C	-0.335304	0.182724	0.792932
C72	C	-0.085304	0.432724	1.042932
C73	C	-0.757087	-0.320549	0.295942
C74	C	-0.507087	-0.070549	0.545942
C75	C	-0.257087	0.179451	0.795942
C76	C	-0.007087	0.429451	1.045942
C77	C	-1.025756	-0.491918	0.278315
C78	C	-0.775756	-0.241918	0.528315
C79	C	-0.525756	0.008082	0.778315
C80	C	-0.275756	0.258082	1.028315
C81	C	-1.029079	-0.569885	0.275077
C82	C	-0.779079	-0.319885	0.525077
C83	C	-0.529079	-0.069885	0.775077
C84	C	-0.279079	0.180115	1.025077
C85	C	-1.011107	-0.317278	0.469483
C86	C	-0.761107	-0.067278	0.719483
C87	C	-0.511107	0.182722	0.969483
C88	C	-0.261107	0.432722	1.219483
C89	C	-1.008110	-0.320522	0.547702
C90	C	-0.758110	-0.070522	0.797702
C91	C	-0.508110	0.179478	1.047702
C92	C	-0.258110	0.429478	1.297702
C93	C	-0.720168	-0.275295	0.254307
C94	C	-0.470168	-0.025295	0.504307
C95	C	-0.220168	0.224705	0.754307
C96	C	0.029832	0.474705	1.004307
C97	C	-0.646674	-0.278376	0.257136
C98	C	-0.396674	-0.028376	0.507136
C99	C	-0.146674	0.221624	0.757136
C100	C	0.103326	0.471624	1.007136
C101	C	-0.610102	-0.326708	0.301603
C102	C	-0.360102	-0.076708	0.551603
C103	C	-0.110102	0.173292	0.801603
C104	C	0.139898	0.423292	1.051603
C105	C	-0.647026	-0.371967	0.343240
C106	C	-0.397026	-0.121967	0.593240
C107	C	-0.147026	0.128033	0.843240
C108	C	0.102974	0.378033	1.093240
C109	C	-0.720518	-0.368888	0.340407
C110	C	-0.470518	-0.118888	0.590407
C111	C	-0.220518	0.131112	0.840407
C112	C	0.029482	0.381112	1.090407
C113	C	-0.390322	-0.340936	0.314687
C114	C	-0.140322	-0.090936	0.564687
C115	C	0.109678	0.159064	0.814687
C116	C	0.359678	0.409064	1.064687
C117	C	-0.316825	-0.344010	0.317518
C118	C	-0.066825	-0.094010	0.567518
C119	C	0.183175	0.155990	0.817518
C120	C	0.433175	0.405990	1.067518
C121	C	-0.316478	-0.250420	0.231413
C122	C	-0.066478	-0.000420	0.481413
C123	C	0.183522	0.249580	0.731413
C124	C	0.433522	0.499580	0.981413
C125	C	-0.389971	-0.247343	0.228588
C126	C	-0.139971	0.002657	0.478588
C127	C	0.110029	0.252657	0.728588
C128	C	0.360029	0.502657	0.978588
C129	C	-0.426890	-0.292603	0.270221
C130	C	-0.176890	-0.042603	0.520221
C131	C	0.073110	0.207397	0.770221
C132	C	0.323110	0.457397	1.020221
N133	N	-0.534979	-0.329858	0.304497
N134	N	-0.284979	-0.079858	0.554497
N135	N	-0.034979	0.170142	0.804497
N136	N	0.215021	0.420142	1.054497
N137	N	-0.502011	-0.289457	0.267324
N138	N	-0.252011	-0.039457	0.517324
N139	N	-0.002011	0.210543	0.767324
N140	N	0.247989	0.460543	1.017324
C141	C	-0.201688	-0.302024	0.278898
C142	C	0.048312	-0.052024	0.528898
C143	C	0.298312	0.197976	0.778898
C144	C	0.548312	0.447976	1.028898
C145	C	-0.279905	-0.298756	0.275884
C146	C	-0.029905	-0.048756	0.525884
C147	C	0.220095	0.201244	0.775884
C148	C	0.470095	0.451244	1.025884
C149	C	-1.010510	-0.126702	0.293593
C150	C	-0.760510	0.123298	0.543593
C151	C	-0.510510	0.373298	0.793593
C152	C	-0.260510	0.623298	1.043593
C153	C	-1.007259	-0.048734	0.296858
C154	C	-0.757259	0.201266	0.546858
C155	C	-0.507259	0.451266	0.796858
C156	C	-0.257259	0.701266	1.046858
C157	C	-0.983883	0.389740	0.320267
C158	C	-0.733883	0.639740	0.570267
C159	C	-0.483883	0.889740	0.820267
C160	C	-0.233883	1.139740	1.070267
C161	C	-0.986946	0.316481	0.317193
C162	C	-0.736946	0.566481	0.567193
C163	C	-0.486946	0.816481	0.817193
C164	C	-0.236946	1.066481	1.067193
C165	C	-1.035209	0.283599	0.268932
C166	C	-0.785209	0.533599	0.518932
C167	C	-0.535209	0.783599	0.768932
C168	C	-0.285209	1.033599	1.018932
C169	C	-1.080406	0.323979	0.223738
C170	C	-0.830406	0.573979	0.473738
C171	C	-0.580406	0.823979	0.723738
C172	C	-0.330406	1.073979	0.973738
C173	C	-1.077339	0.397236	0.226809
C174	C	-0.827339	0.647236	0.476809
C175	C	-0.577339	0.897236	0.726809
C176	C	-0.327339	1.147236	0.976809
C177	C	-1.049390	0.064904	0.254734
C178	C	-0.799390	0.314904	0.504734
C179	C	-0.549390	0.564904	0.754734
C180	C	-0.299390	0.814904	1.004734
C181	C	-1.052455	-0.008359	0.251668
C182	C	-0.802455	0.241641	0.501668
C183	C	-0.552455	0.491641	0.751668
C184	C	-0.302455	0.741641	1.001668
C185	C	-0.958994	-0.015852	0.345122
C186	C	-0.708994	0.234148	0.595122
C187	C	-0.458994	0.484148	0.845122
C188	C	-0.208994	0.734148	1.095122
C189	C	-0.955934	0.057408	0.348192
C190	C	-0.705934	0.307408	0.598192
C191	C	-0.455934	0.557408	0.848192
C192	C	-0.205934	0.807408	1.098192
C193	C	-1.001128	0.097781	0.302995
C194	C	-0.751128	0.347781	0.552995
C195	C	-0.501128	0.597781	0.802995
C196	C	-0.251128	0.847781	1.052995
N197	N	-1.038343	0.208716	0.265791
N198	N	-0.788343	0.458716	0.515791
N199	N	-0.538343	0.708716	0.765791
N200	N	-0.288343	0.958716	1.015791
N201	N	-0.997991	0.172662	0.306134
N202	N	-0.747991	0.422662	0.556134
N203	N	-0.497991	0.672662	0.806134
N204	N	-0.247991	0.922662	1.056134
C205	C	-1.025182	-0.302032	0.103095
C206	C	-0.775182	-0.052032	0.353095
C207	C	-0.525182	0.197968	0.603095
C208	C	-0.275182	0.447968	0.853095
C209	C	-1.028306	-0.298585	0.024879
C210	C	-0.778306	-0.048585	0.274879
C211	C	-0.528306	0.201415	0.524879
C212	C	-0.278306	0.451415	0.774879
C213	C	-1.049834	-0.275315	0.584606
C214	C	-0.799834	-0.025315	0.834606
C215	C	-0.549834	0.224685	1.084606
C216	C	-0.299834	0.474685	1.334606
C217	C	-1.047009	-0.278360	0.658101
C218	C	-0.797009	-0.028360	0.908101
C219	C	-0.547009	0.221640	1.158101
C220	C	-0.297009	0.471640	1.408101
C221	C	-1.002465	-0.326617	0.694691
C222	C	-0.752465	-0.076617	0.944691
C223	C	-0.502465	0.173383	1.194691
C224	C	-0.252465	0.423383	1.444691
C225	C	-0.960737	-0.371826	0.657782
C226	C	-0.710737	-0.121826	0.907782
C227	C	-0.460737	0.128174	1.157782
C228	C	-0.210737	0.378174	1.407782
C229	C	-0.963558	-0.368777	0.584288
C230	C	-0.713558	-0.118777	0.834288
C231	C	-0.463558	0.131223	1.084288
C232	C	-0.213558	0.381223	1.334288
C233	C	-0.989399	-0.340745	0.914477
C234	C	-0.739399	-0.090745	1.164477
C235	C	-0.489399	0.159255	1.414477
C236	C	-0.239399	0.409255	1.664477
C237	C	-0.986583	-0.343792	0.987975
C238	C	-0.736583	-0.093792	1.237975
C239	C	-0.486583	0.156208	1.487975
C240	C	-0.236583	0.406208	1.737975
C241	C	-1.072855	-0.250325	0.988290
C242	C	-0.822855	-0.000325	1.238290
C243	C	-0.572855	0.249675	1.488290
C244	C	-0.322855	0.499675	1.738290
C245	C	-1.075675	-0.247283	0.914794
C246	C	-0.825675	0.002717	1.164794
C247	C	-0.575675	0.252717	1.414794
C248	C	-0.325675	0.502717	1.664794
C249	C	-1.033944	-0.292489	0.877892
C250	C	-0.783944	-0.042489	1.127892
C251	C	-0.533944	0.207511	1.377892
C252	C	-0.283944	0.457511	1.627892
N253	N	-0.999579	-0.329732	0.769815
N254	N	-0.749579	-0.079732	1.019815
N255	N	-0.499579	0.170268	1.269815
N256	N	-0.249579	0.420268	1.519815
N257	N	-1.036827	-0.289370	0.802770
N258	N	-0.786827	-0.039370	1.052770
N259	N	-0.536827	0.210630	1.302770
N260	N	-0.286827	0.460630	1.552770
H261	H	-0.749939	-0.235933	0.218103
H262	H	-0.499939	0.014067	0.468103
H263	H	-0.249939	0.264067	0.718103
H264	H	0.000061	0.514067	0.968103
H265	H	-1.106828	-0.213519	1.018344
H266	H	-0.856828	0.036481	1.268344
H267	H	-0.606828	0.286481	1.518344
H268	H	-0.356828	0.536481	1.768344
H269	H	-0.287049	-0.383367	0.353734
H270	H	-0.037049	-0.133367	0.603734
H271	H	0.212951	0.116633	0.853734
H272	H	0.462951	0.366633	1.103734
H273	H	-0.944586	0.416508	0.359568
H274	H	-0.694586	0.666508	0.609568
H275	H	-0.444586	0.916508	0.859568
H276	H	-0.194586	1.166508	1.109568
H277	H	-0.916634	0.084179	0.387489
H278	H	-0.666634	0.334179	0.637489
H279	H	-0.416634	0.584179	0.887489
H280	H	-0.166634	0.834179	1.137489
H281	H	-0.929575	-0.405582	0.554242
H282	H	-0.679575	-0.155582	0.804242
H283	H	-0.429575	0.094418	1.054242
H284	H	-0.179575	0.344418	1.304242
H285	H	-1.080987	-0.241549	0.688145
H286	H	-0.830987	0.008451	0.938145
H287	H	-0.580987	0.258451	1.188145
H288	H	-0.330987	0.508451	1.438145
H289	H	-0.750577	-0.405739	0.374311
H290	H	-0.500577	-0.155739	0.624311
H291	H	-0.250577	0.094261	0.874311
H292	H	-0.000577	0.344261	1.124311
H293	H	-0.950137	0.283611	0.353985
H294	H	-0.700137	0.533611	0.603985
H295	H	-0.450137	0.783611	0.853985
H296	H	-0.200137	1.033611	1.103985
H297	H	-0.950308	-0.383090	1.017765
H298	H	-0.700308	-0.133090	1.267765
H299	H	-0.450308	0.116910	1.517765
H300	H	-0.200308	0.366910	1.767765
H301	H	-0.955430	-0.377565	0.884439
H302	H	-0.705430	-0.127565	1.134439
H303	H	-0.455430	0.122435	1.384439
H304	H	-0.205430	0.372435	1.634439
H305	H	-0.616618	-0.241530	0.223228
H306	H	-0.366618	0.008470	0.473228
H307	H	-0.116618	0.258470	0.723228
H308	H	0.133382	0.508470	0.973228
H309	H	-1.086109	-0.236021	0.554820
H310	H	-0.836109	0.013979	0.804820
H311	H	-0.586109	0.263979	1.054820
H312	H	-0.336109	0.513979	1.304820
H313	H	-1.119700	0.297200	0.184441
H314	H	-0.869700	0.547200	0.434441
H315	H	-0.619700	0.797200	0.684441
H316	H	-0.369700	1.047200	0.934441
H317	H	-1.111950	-0.207989	0.885008
H318	H	-0.861950	0.042011	1.135008
H319	H	-0.611950	0.292011	1.385008
H320	H	-0.361950	0.542011	1.635008
H321	H	-0.924466	-0.411115	0.687579
H322	H	-0.674466	-0.161115	0.937579
H323	H	-0.424466	0.088885	1.187579
H324	H	-0.174466	0.338885	1.437579
H325	H	-0.419744	-0.207990	0.192372
H326	H	-0.169744	0.042010	0.442372
H327	H	0.080256	0.292010	0.692372
H328	H	0.330256	0.542010	0.942372
H329	H	-0.286411	-0.213571	0.197517
H330	H	-0.036411	0.036429	0.447517
H331	H	0.213589	0.286429	0.697517
H332	H	0.463589	0.536429	0.947517
H333	H	-0.420372	-0.377791	0.348589
H334	H	-0.170372	-0.127791	0.598589
H335	H	0.079628	0.122209	0.848589
H336	H	0.329628	0.372209	1.098589
H337	H	-0.922198	-0.048732	0.381918
H338	H	-0.672198	0.201268	0.631918
H339	H	-0.422198	0.451268	0.881918
H340	H	-0.172198	0.701268	1.131918
H341	H	-0.617243	-0.411323	0.379443
H342	H	-0.367243	-0.161323	0.629443
H343	H	-0.117243	0.088677	0.879443
H344	H	0.132757	0.338677	1.129443
H345	H	-1.091760	-0.035130	0.212369
H346	H	-0.841760	0.214870	0.462369
H347	H	-0.591760	0.464870	0.712369
H348	H	-0.341760	0.714870	0.962369
H349	H	-1.086190	0.097771	0.217935
H350	H	-0.836190	0.347771	0.467935
H351	H	-0.586190	0.597771	0.717935
H352	H	-0.336190	0.847771	0.967935
H353	H	-1.114141	0.430109	0.190011
H354	H	-0.864141	0.680109	0.440011
H355	H	-0.614141	0.930109	0.690011
H356	H	-0.364141	1.180109	0.940011
