data_functionalizedCrystal
_audit_creation_method	'MofGen! by Chris Wilmer'
_symmetry_space_group_name_H-M	'P1'
_symmetry_Int_Tables_number	1
_symmetry_cell_setting	triclinic
loop_
_symmetry_equiv_pos_as_xyz
  x,y,z
_cell_length_a	12.759401
_cell_length_b	10.685194
_cell_length_c	12.759393
_cell_angle_alpha	85.597731
_cell_angle_beta	89.979062
_cell_angle_gamma	94.378655
loop_
_atom_site_label
_atom_site_type_symbol
_atom_site_fract_x
_atom_site_fract_y
_atom_site_fract_z
Zn1	Zn	1.574258	-0.502302	-0.561943
Zn2	Zn	1.560699	-0.713368	-0.372784
Zn3	Zn	1.398552	-0.502369	-0.386274
Zn4	Zn	1.385104	-0.713280	-0.548427
O5	O	1.479653	-0.607830	-0.467357
O6	O	1.719480	-0.530309	-0.536862
O7	O	1.539143	-0.685443	-0.227548
O8	O	1.433162	-0.325761	-0.420878
O9	O	1.709518	-0.685378	-0.397887
O10	O	1.562253	-0.325711	-0.549942
O11	O	1.420015	-0.530423	-0.237459
O12	O	1.249748	-0.530338	-0.407773
O13	O	1.410242	-0.685228	-0.697245
O14	O	1.239867	-0.685293	-0.526906
O15	O	1.549212	-0.530223	-0.707175
O16	O	1.526103	-0.889955	-0.384782
O17	O	1.397095	-0.889891	-0.513826
C18	C	1.206687	-0.607814	-0.467337
C19	C	1.089909	-0.607838	-0.467352
C20	C	1.029922	-0.688646	-0.529271
C21	C	0.920197	-0.688651	-0.529291
C22	C	0.930457	-0.527036	-0.405465
C23	C	1.040180	-0.527026	-0.405451
C24	C	1.458697	-0.935713	-0.446396
C25	C	1.449828	-1.075983	-0.437464
C26	C	1.753685	-0.607846	-0.467377
C27	C	1.870462	-0.607853	-0.467386
C28	C	1.479740	-0.607708	-0.741398
C29	C	1.479776	-0.607657	-0.858178
C30	C	1.500720	-0.278666	-0.488423
C31	C	1.509698	-0.138396	-0.497399
C32	C	1.552144	-0.526933	-0.918213
C33	C	1.552165	-0.526878	-1.027941
C34	C	1.407447	-0.688283	-1.017588
C35	C	1.407422	-0.688330	-0.907863
C36	C	1.479633	-0.607859	-0.194388
C37	C	1.479823	-0.607555	-0.077631
H38	H	0.889954	-0.461243	-0.355065
H39	H	1.611093	-0.461143	-1.076817
C40	C	1.083723	-0.776419	-0.596597
C41	C	1.007700	-0.847161	-0.650850
C42	C	1.057220	-0.928017	-0.712897
H43	H	1.122994	-0.831458	-0.552929
H44	H	1.129604	-0.728230	-0.645571
H45	H	0.961837	-0.895346	-0.601883
H46	H	0.968425	-0.792155	-0.694538
H47	H	1.103101	-0.879828	-0.761870
H48	H	1.096489	-0.983048	-0.669220
H49	H	1.005647	-0.976017	-0.749722
H50	H	1.348541	-0.753967	-1.058055
C51	C	1.372490	-1.147658	-0.359765
C52	C	1.397400	-1.115734	-0.257845
C53	C	1.326172	-1.181723	-0.186245
H54	H	1.376540	-1.235570	-0.363719
H55	H	1.303219	-1.126144	-0.376369
H56	H	1.466653	-1.137257	-0.241245
H57	H	1.393342	-1.027834	-0.253857
H58	H	1.256902	-1.160209	-0.202850
H59	H	1.330229	-1.269632	-0.190209
H60	H	1.343058	-1.160064	-0.117086
H61	H	1.567742	-1.084520	-0.555551
H62	H	0.871360	-0.754451	-0.579714
H63	H	1.611057	-0.461240	-0.877764
C64	C	1.328965	-0.776191	-0.842714
C65	C	1.343871	-0.901048	-0.861390
C66	C	1.271627	-0.982013	-0.801383
H67	H	1.259512	-0.757877	-0.861809
H68	H	1.339316	-0.764745	-0.770235
H69	H	1.333511	-0.912489	-0.933852
H70	H	1.413309	-0.919402	-0.842289
H71	H	1.281978	-0.970567	-0.728904
H72	H	1.202179	-0.963688	-0.820483
H73	H	1.281737	-1.066738	-0.814039
H74	H	1.089023	-0.461214	-0.355029
