data_functionalizedCrystal
_audit_creation_method	'MofGen! by Chris Wilmer'
_symmetry_space_group_name_H-M	'P1'
_symmetry_Int_Tables_number	1
_symmetry_cell_setting	triclinic
loop_
_symmetry_equiv_pos_as_xyz
  x,y,z
_cell_length_a	12.759401
_cell_length_b	19.121063
_cell_length_c	12.759393
_cell_angle_alpha	92.404584
_cell_angle_beta	89.981995
_cell_angle_gamma	92.469288
loop_
_atom_site_label
_atom_site_type_symbol
_atom_site_fract_x
_atom_site_fract_y
_atom_site_fract_z
Zn1	Zn	1.588314	-0.279575	-0.611775
Zn2	Zn	1.580675	-0.397041	-0.443570
Zn3	Zn	1.412616	-0.279609	-0.436116
Zn4	Zn	1.405073	-0.396991	-0.619208
O5	O	1.496669	-0.338304	-0.527667
O6	O	1.734321	-0.295164	-0.589471
O7	O	1.558342	-0.381498	-0.295562
O8	O	1.442277	-0.181320	-0.453188
O9	O	1.728709	-0.381466	-0.465892
O10	O	1.571361	-0.181296	-0.582244
O11	O	1.434869	-0.295222	-0.290086
O12	O	1.264595	-0.295173	-0.460395
O13	O	1.429420	-0.381380	-0.765241
O14	O	1.259053	-0.381413	-0.594912
O15	O	1.564047	-0.295116	-0.759780
O16	O	1.551027	-0.495319	-0.473099
O17	O	1.422013	-0.495282	-0.602139
C18	C	1.223703	-0.338292	-0.527652
C19	C	1.106926	-0.338304	-0.527671
C20	C	1.054981	-0.293448	-0.592128
C21	C	0.945257	-0.293455	-0.592135
C22	C	0.939430	-0.383180	-0.463227
C23	C	1.049153	-0.383169	-0.463215
C24	C	0.800647	-0.210669	-0.624636
C25	C	0.748699	-0.165820	-0.689109
C26	C	0.785041	-0.155116	-0.790966
C27	C	0.873329	-0.189272	-0.828372
C28	C	0.925271	-0.234127	-0.763904
C29	C	0.888931	-0.244817	-0.662032
C30	C	1.193764	-0.465955	-0.430725
C31	C	1.245709	-0.510814	-0.366262
C32	C	1.209368	-0.521525	-0.264404
C33	C	1.121076	-0.487382	-0.227003
C34	C	1.069132	-0.442523	-0.291465
C35	C	1.105480	-0.431810	-0.393323
C36	C	1.484901	-0.520784	-0.539257
C37	C	1.479963	-0.598850	-0.544251
C38	C	1.544865	-0.635521	-0.479468
C39	C	1.540227	-0.708872	-0.484170
C40	C	1.470680	-0.745551	-0.553651
C41	C	1.405774	-0.708874	-0.618441
C42	C	1.410418	-0.635525	-0.613743
C43	C	1.453298	-0.967020	-0.571199
C44	C	1.448656	-1.040374	-0.575890
C45	C	1.583111	-1.040367	-0.441620
C46	C	1.587745	-0.967016	-0.436924
C47	C	1.522844	-0.930346	-0.501717
C48	C	1.465934	-0.820527	-0.558457
C49	C	1.527595	-0.855371	-0.496916
C50	C	1.770702	-0.338317	-0.527684
C51	C	1.887478	-0.338322	-0.527691
C52	C	1.496744	-0.338239	-0.801697
C53	C	1.496776	-0.338211	-0.918472
C54	C	1.508513	-0.155111	-0.516055
C55	C	1.513559	-0.077046	-0.511107
C56	C	1.426735	-0.383077	-1.085907
C57	C	1.426698	-0.383107	-0.976185
C58	C	1.566888	-0.293277	-0.970486
C59	C	1.566918	-0.293245	-1.080206
C60	C	1.301129	-0.408239	-0.827824
C61	C	1.231029	-0.453178	-0.775813
C62	C	1.210476	-0.521698	-0.815776
C63	C	1.260038	-0.545292	-0.907747
C64	C	1.330146	-0.500357	-0.959752
C65	C	1.350679	-0.431827	-0.919791
C66	C	1.692489	-0.268120	-1.228570
C67	C	1.762602	-0.223187	-1.280577
C68	C	1.783165	-0.154666	-1.240617
C69	C	1.733622	-0.131074	-1.148642
C70	C	1.663508	-0.176007	-1.096635
C71	C	1.642944	-0.244527	-1.136602
C72	C	1.496659	-0.338319	-0.254701
C73	C	1.496843	-0.338149	-0.137914
H74	H	0.771057	-0.219373	-0.541691
F75	F	1.232455	-0.454552	-0.539133
H76	H	1.349152	-0.738744	-0.675018
H77	H	1.593077	-0.738727	-0.431416
H78	H	1.644376	-0.937154	-0.380347
F79	F	1.116464	-0.245696	-0.660725
F80	F	1.652184	-1.079399	-0.372671
F81	F	0.877935	-0.430927	-0.394634
F82	F	1.601614	-0.816334	-0.422976
H83	H	1.243308	-0.601091	-0.940271
F84	F	1.019227	-0.270478	-0.803708
H85	H	1.153399	-0.558288	-0.773421
F86	F	1.618882	-0.596492	-0.405510
H87	H	1.357569	-0.605667	-0.666498
F88	F	0.975180	-0.406168	-0.251647
H89	H	1.317612	-0.538607	-0.396717
H90	H	1.409307	-0.850399	-0.615026
H91	H	1.802946	-0.242402	-1.355466
H92	H	1.091482	-0.496106	-0.144063
H93	H	0.902905	-0.180559	-0.911319
F94	F	1.670597	-0.341047	-1.271113
H95	H	1.190676	-0.433961	-0.700929
H96	H	0.742737	-0.118597	-0.843461
F97	F	1.352151	-0.430866	-1.147320
H98	H	1.370500	-0.519567	-1.034632
H99	H	0.676814	-0.138010	-0.658644
F100	F	1.264648	-0.569277	-0.195803
H101	H	1.317842	-0.352441	-0.795287
H102	H	1.392035	-1.070236	-0.632488
H103	H	1.623942	-0.256719	-0.923488
F104	F	1.384222	-0.928002	-0.640158
H105	H	1.623166	-0.156792	-1.021744
H106	H	1.750369	-0.075280	-1.116102
F107	F	1.857799	-0.106848	-1.295965
