data_functionalizedCrystal
_audit_creation_method	'MofGen! by Chris Wilmer'
_symmetry_space_group_name_H-M	'P1'
_symmetry_Int_Tables_number	1
_symmetry_cell_setting	triclinic
loop_
_symmetry_equiv_pos_as_xyz
  x,y,z
_cell_length_a	29.839135
_cell_length_b	29.839131
_cell_length_c	29.839126
_cell_angle_alpha	89.970347
_cell_angle_beta	89.970753
_cell_angle_gamma	90.037758
loop_
_atom_site_label
_atom_site_type_symbol
_atom_site_fract_x
_atom_site_fract_y
_atom_site_fract_z
Zn1	Zn	0.686800	-0.178867	-0.254023
Zn2	Zn	0.686722	-0.253985	-0.178883
Zn3	Zn	0.611665	-0.178873	-0.178901
Zn4	Zn	0.611639	-0.253974	-0.253980
O5	O	0.649206	-0.216425	-0.216447
O6	O	0.749657	-0.188833	-0.244066
O7	O	0.676744	-0.244028	-0.116019
O8	O	0.621675	-0.116005	-0.188892
O9	O	0.749600	-0.244022	-0.188861
O10	O	0.676877	-0.116001	-0.244084
O11	O	0.621600	-0.188843	-0.116032
O12	O	0.548794	-0.188833	-0.188850
O13	O	0.621631	-0.244004	-0.316853
O14	O	0.548775	-0.244010	-0.244010
O15	O	0.676851	-0.188823	-0.316885
O16	O	0.676719	-0.316850	-0.188819
O17	O	0.621555	-0.316842	-0.243993
C18	C	0.649138	-0.333147	-0.216409
C19	C	0.649150	-0.383082	-0.216408
C20	C	0.532484	-0.216421	-0.216428
C21	C	0.482549	-0.216430	-0.216430
C22	C	0.677944	-0.692688	-0.245226
C23	C	0.677992	-0.880361	-0.245253
O24	O	0.702407	-0.904594	-0.269728
N25	N	0.649283	-0.903867	-0.216497
C26	C	0.620557	-0.880451	-0.187734
O27	O	0.596135	-0.904751	-0.163279
C28	C	0.620506	-0.692779	-0.187709
C29	C	0.649221	-0.669276	-0.216464
C30	C	0.706656	-0.669184	-0.273980
C31	C	0.706645	-0.622269	-0.273971
C32	C	0.677922	-0.598857	-0.245209
C33	C	0.649210	-0.622360	-0.216456
C34	C	0.591778	-0.669364	-0.158949
C35	C	0.591767	-0.622443	-0.158946
C36	C	0.620482	-0.598940	-0.187701
C37	C	0.620476	-0.552033	-0.187685
N38	N	0.649186	-0.528527	-0.216442
C39	C	0.677909	-0.551939	-0.245203
C40	C	0.620586	-0.978982	-0.187748
C41	C	0.620599	-1.025900	-0.187753
C42	C	0.678034	-1.025806	-0.245274
C43	C	0.678023	-0.978887	-0.245266
C44	C	0.649296	-0.955476	-0.216504
C45	C	0.677884	-0.453413	-0.245183
C46	C	0.677872	-0.406494	-0.245170
C47	C	0.620436	-0.406591	-0.187651
C48	C	0.620449	-0.453507	-0.187662
C49	C	0.649175	-0.476917	-0.216431
O50	O	0.596071	-0.527770	-0.163227
O51	O	0.702320	-0.527632	-0.269662
C52	C	0.677954	-0.739603	-0.245235
C53	C	0.649242	-0.763107	-0.216482
C54	C	0.620519	-0.739695	-0.187720
C55	C	0.649255	-0.810024	-0.216487
C56	C	0.677978	-0.833437	-0.245249
C57	C	0.706688	-0.809931	-0.274006
C58	C	0.706677	-0.763015	-0.273997
C59	C	0.591810	-0.763200	-0.158964
C60	C	0.591823	-0.810116	-0.158974
C61	C	0.620546	-0.833528	-0.187736
C62	C	0.172933	-0.187731	-0.245235
C63	C	-0.014740	-0.187734	-0.245247
O64	O	-0.038982	-0.163323	-0.269717
N65	N	-0.038236	-0.216425	-0.216464
C66	C	-0.014810	-0.245115	-0.187672
O67	O	-0.039101	-0.269515	-0.163187
C68	C	0.172862	-0.245109	-0.187658
C69	C	0.196355	-0.216420	-0.216447
C70	C	0.196426	-0.159044	-0.274021
C71	C	0.243341	-0.159045	-0.274019
C72	C	0.266764	-0.187734	-0.245231
C73	C	0.243271	-0.216421	-0.216445
C74	C	0.196287	-0.273796	-0.158864
C75	C	0.243208	-0.273791	-0.158862
C76	C	0.266701	-0.245102	-0.187652
C77	C	0.313609	-0.245111	-0.187655
N78	N	0.337104	-0.216420	-0.216439
C79	C	0.313682	-0.187732	-0.245227
C80	C	-0.113341	-0.245116	-0.187683
C81	C	-0.160258	-0.245118	-0.187687
C82	C	-0.160185	-0.187737	-0.245262
C83	C	-0.113267	-0.187738	-0.245259
C84	C	-0.089845	-0.216426	-0.216467
C85	C	0.412207	-0.187737	-0.245221
C86	C	0.459127	-0.187742	-0.245218
C87	C	0.459050	-0.245121	-0.187642
C88	C	0.412134	-0.245118	-0.187647
C89	C	0.388714	-0.216422	-0.216438
O90	O	0.337880	-0.269506	-0.163195
O91	O	0.337980	-0.163329	-0.269702
C92	C	0.126017	-0.187730	-0.245236
C93	C	0.102524	-0.216417	-0.216450
C94	C	0.125947	-0.245106	-0.187662
C95	C	0.055606	-0.216419	-0.216454
C96	C	0.032184	-0.187731	-0.245242
C97	C	0.055679	-0.159040	-0.274026
C98	C	0.102595	-0.159042	-0.274025
C99	C	0.102451	-0.273796	-0.158878
C100	C	0.055536	-0.273793	-0.158883
C101	C	0.032113	-0.245105	-0.187671
C102	C	0.766385	-0.216428	-0.216467
C103	C	0.816319	-0.216430	-0.216475
C104	C	0.649247	-0.216412	-0.333625
C105	C	0.649264	-0.216406	-0.383560
C106	C	0.649287	-0.099246	-0.216495
C107	C	0.649322	-0.049312	-0.216515
C108	C	0.677971	-0.245081	-0.740143
C109	C	0.677972	-0.245112	-0.552470
O110	O	0.702376	-0.269563	-0.528202
N111	N	0.649262	-0.216385	-0.529005
C112	C	0.620547	-0.187649	-0.552461
O113	O	0.596124	-0.163219	-0.528197
C114	C	0.620544	-0.187621	-0.740134
C115	C	0.649260	-0.216347	-0.763596
C116	C	0.706684	-0.273805	-0.763606
C117	C	0.706685	-0.273795	-0.810521
C118	C	0.677974	-0.245061	-0.833974
C119	C	0.649261	-0.216337	-0.810512
C120	C	0.591828	-0.158888	-0.763589
C121	C	0.591829	-0.158884	-0.810510
C122	C	0.620544	-0.187610	-0.833972
C123	C	0.620551	-0.187593	-0.880880
N124	N	0.649261	-0.216321	-0.904345
C125	C	0.677973	-0.245055	-0.880892
C126	C	0.620551	-0.187666	-0.453931
C127	C	0.620552	-0.187672	-0.407013
C128	C	0.677977	-0.245136	-0.407025
C129	C	0.677978	-0.245127	-0.453944
C130	C	0.649262	-0.216393	-0.477396
C131	C	0.677974	-0.245032	-0.979418
C132	C	0.677974	-0.245018	-1.026338
C133	C	0.620547	-0.187556	-1.026321
C134	C	0.620549	-0.187568	-0.979406
C135	C	0.649263	-0.216309	-0.955955
O136	O	0.596156	-0.163159	-0.905177
O137	O	0.702385	-0.269489	-0.905165
C138	C	0.677970	-0.245091	-0.693228
C139	C	0.649257	-0.216366	-0.669765
C140	C	0.620546	-0.187632	-0.693218
C141	C	0.649259	-0.216373	-0.622847
C142	C	0.677970	-0.245107	-0.599394
C143	C	0.706680	-0.273835	-0.622860
C144	C	0.706682	-0.273825	-0.669775
C145	C	0.591835	-0.158905	-0.669753
C146	C	0.591837	-0.158917	-0.622837
C147	C	0.620548	-0.187651	-0.599385
C148	C	0.649192	-0.216405	-0.099725
C149	C	0.649262	-0.216284	-0.049790
H150	H	0.701257	-0.387359	-0.268586
H151	H	0.478253	-0.164379	-0.268663
C152	C	0.589016	-1.051750	-0.156121
H153	H	0.593137	-1.083047	-0.160239
H154	H	0.558828	-1.044082	-0.162667
H155	H	0.595605	-1.044073	-0.125940
H156	H	0.597192	-0.959923	-0.164326
C157	C	0.709561	-0.276617	-1.052146
H158	H	0.705454	-0.272495	-1.083448
H159	H	0.702967	-0.306804	-1.044444
H160	H	0.739751	-0.270040	-1.044472
H161	H	0.121719	-0.135680	-0.297467
H162	H	0.262276	-0.297152	-0.135415
H163	H	0.730059	-0.743882	-0.297412
H164	H	0.701273	-0.472468	-0.268612
C165	C	0.029909	-0.127483	-0.305691
H166	H	-0.001398	-0.131592	-0.301564
H167	H	0.037607	-0.134097	-0.335864
H168	H	0.037612	-0.097286	-0.299171
C169	C	0.560242	-0.127275	-0.836304
H170	H	0.543145	-0.110167	-0.815608
H171	H	0.540657	-0.144455	-0.854593
H172	H	0.577442	-0.107693	-0.854620
C173	C	0.588967	-0.155951	-1.052125
H174	H	0.593079	-0.160066	-1.083428
H175	H	0.595557	-0.125766	-1.044453
H176	H	0.558776	-0.162533	-1.044421
H177	H	0.730065	-0.297206	-0.744516
H178	H	0.393005	-0.268484	-0.164210
H179	H	0.568396	-0.688493	-0.135533
H180	H	0.730065	-0.297217	-0.688874
C181	C	0.128210	-0.305358	-0.127212
H182	H	0.107494	-0.322445	-0.110074
H183	H	0.146515	-0.288150	-0.107668
H184	H	0.146506	-0.324961	-0.144362
H185	H	0.478129	-0.268479	-0.164205
C186	C	0.560167	-0.596694	-0.127307
H187	H	0.543072	-0.617414	-0.110182
H188	H	0.540581	-0.578396	-0.144469
H189	H	0.577358	-0.578390	-0.107742
H190	H	0.597172	-0.164171	-0.960302
H191	H	0.036412	-0.297160	-0.135440
C192	C	0.709560	-0.276645	-0.953629
H193	H	0.726661	-0.293745	-0.974327
H194	H	0.692366	-0.296226	-0.935311
H195	H	0.729149	-0.259461	-0.935343
C196	C	0.560216	-0.737453	-0.127320
H197	H	0.543124	-0.758175	-0.110195
H198	H	0.540626	-0.719154	-0.144477
H199	H	0.577411	-0.719152	-0.107757
H200	H	0.730025	-0.603135	-0.297387
H201	H	0.730045	-0.688242	-0.297404
C202	C	0.738266	-0.305401	-0.836324
H203	H	0.755359	-0.322517	-0.815632
H204	H	0.757855	-0.288221	-0.854646
H205	H	0.721062	-0.324975	-0.854608
H206	H	0.701360	-0.268518	-0.473044
C207	C	0.386452	-0.156177	-0.276895
H208	H	0.407168	-0.139097	-0.294040
H209	H	0.368151	-0.136573	-0.259756
H210	H	0.368151	-0.173394	-0.296439
C211	C	0.709555	-0.276746	-0.381221
H212	H	0.705438	-0.272636	-0.349919
H213	H	0.739747	-0.270178	-0.388924
H214	H	0.702952	-0.306931	-0.388895
C215	C	0.709601	-0.953038	-0.276904
H216	H	0.726704	-0.973705	-0.294036
H217	H	0.729181	-0.934724	-0.259743
H218	H	0.692394	-0.934744	-0.296461
C219	C	0.588967	-0.156071	-0.381209
H220	H	0.571866	-0.138963	-0.401900
H221	H	0.606161	-0.136497	-0.362921
H222	H	0.569379	-0.173263	-0.362892
C223	C	0.709627	-1.051565	-0.276913
H224	H	0.705517	-1.082873	-0.272798
H225	H	0.739815	-1.043855	-0.270373
H226	H	0.703029	-1.043864	-0.307092
C227	C	0.588965	-0.156053	-0.479722
H228	H	0.571873	-0.138944	-0.459024
H229	H	0.569376	-0.173230	-0.498009
H230	H	0.606166	-0.136473	-0.498039
C231	C	0.269178	-0.127481	-0.305681
H232	H	0.248503	-0.110394	-0.322821
H233	H	0.287483	-0.144687	-0.325225
H234	H	0.287480	-0.107879	-0.288529
C235	C	0.560239	-0.127289	-0.737790
H236	H	0.543139	-0.110182	-0.758484
H237	H	0.577432	-0.107714	-0.719502
H238	H	0.540650	-0.144480	-0.719473
H239	H	0.730060	-0.297229	-0.603756
C240	C	0.170668	-0.127487	-0.305694
H241	H	0.191386	-0.110407	-0.322837
H242	H	0.152365	-0.107884	-0.288555
H243	H	0.152370	-0.144705	-0.325239
H244	H	0.597071	-0.472644	-0.164244
C245	C	0.588841	-0.380832	-0.156018
H246	H	0.592946	-0.349524	-0.160137
H247	H	0.595427	-0.388532	-0.125839
H248	H	0.558654	-0.388543	-0.162571
C249	C	0.560246	-0.127317	-0.597034
H250	H	0.543145	-0.110208	-0.617725
H251	H	0.577437	-0.107743	-0.578743
H252	H	0.540658	-0.144512	-0.578720
H253	H	0.568441	-0.829248	-0.135554
C254	C	0.738281	-0.835690	-0.305644
H255	H	0.734170	-0.866998	-0.301530
H256	H	0.768469	-0.827982	-0.299101
H257	H	0.731686	-0.827988	-0.335823
C258	C	-0.087429	-0.156177	-0.276924
H259	H	-0.108102	-0.139092	-0.294066
H260	H	-0.069123	-0.173387	-0.296464
H261	H	-0.069127	-0.136573	-0.259773
C262	C	-0.185956	-0.156178	-0.276925
H263	H	-0.217262	-0.160289	-0.272800
H264	H	-0.178256	-0.162790	-0.307099
H265	H	-0.178253	-0.125983	-0.270402
H266	H	0.568454	-0.135506	-0.688843
H267	H	-0.094275	-0.268479	-0.164235
C268	C	-0.186098	-0.276681	-0.156026
H269	H	-0.217396	-0.272580	-0.160151
H270	H	-0.178421	-0.270064	-0.125853
H271	H	-0.178421	-0.306876	-0.162546
H272	H	0.177167	-0.297158	-0.135421
