data_functionalizedCrystal
_audit_creation_method	'MofGen! by Chris Wilmer'
_symmetry_space_group_name_H-M	'P1'
_symmetry_Int_Tables_number	1
_symmetry_cell_setting	triclinic
loop_
_symmetry_equiv_pos_as_xyz
  x,y,z
_cell_length_a	30.570296
_cell_length_b	30.570259
_cell_length_c	30.570330
_cell_angle_alpha	120.004392
_cell_angle_beta	90.000187
_cell_angle_gamma	60.000192
loop_
_atom_site_label
_atom_site_type_symbol
_atom_site_fract_x
_atom_site_fract_y
_atom_site_fract_z
O1	O	-0.300072	-0.385862	-0.013023
O2	O	-0.236463	-0.296284	0.012944
O3	O	-0.236460	-0.385860	-0.076635
O4	O	-0.300075	-0.296286	0.076557
O5	O	-0.309218	-0.313101	-0.076628
O6	O	-0.309221	-0.223525	0.012952
O7	O	-0.372830	-0.313103	-0.013015
Cu8	Cu	-0.347668	-0.261670	-0.000031
Cu9	Cu	-0.261624	-0.347717	-0.000040
O10	O	-0.372833	-0.223527	0.076565
C11	C	-0.159667	-0.049026	0.031436
C12	C	-0.186116	-0.075222	0.031809
C13	C	-0.080456	-0.128236	0.031441
C14	C	-0.107025	-0.154311	0.031814
C15	C	-0.159670	-0.128235	0.031443
C16	C	-0.107023	-0.075223	0.031807
C17	C	-0.159458	0.030153	0.025001
C18	C	-0.184391	0.080190	0.020940
C19	C	-0.236555	0.105286	0.018904
C20	C	-0.263590	0.159537	0.014498
C21	C	-0.263795	0.080354	0.020933
C22	C	-0.238864	0.030321	0.024996
C23	C	-0.186696	0.005220	0.027028
C24	C	-0.239061	-0.134456	0.025017
C25	C	-0.264168	-0.163447	0.020962
C26	C	-0.237102	-0.217644	0.018931
C27	C	-0.264320	-0.249082	0.014532
C28	C	-0.184929	-0.242856	0.020958
C29	C	-0.159825	-0.213865	0.025014
C30	C	-0.186891	-0.159668	0.027042
C31	C	0.005158	-0.134461	0.025010
C32	C	0.059258	-0.163458	0.020946
C33	C	0.086388	-0.217655	0.018915
C34	C	0.145045	-0.249094	0.014513
C35	C	0.059429	-0.242865	0.020942
C36	C	0.005331	-0.213873	0.025003
C37	C	-0.021802	-0.159671	0.027037
C38	C	-0.499847	-0.447883	-0.027233
C39	C	-0.557549	-0.417173	-0.023515
C40	C	-0.473280	-0.421803	-0.027600
C41	C	-0.420631	-0.527100	-0.027241
C42	C	-0.393636	-0.581091	-0.023532
C43	C	-0.394185	-0.500900	-0.027608
C44	C	-0.420635	-0.447882	-0.027232
C45	C	-0.393643	-0.417171	-0.023514
C46	C	-0.473277	-0.500901	-0.027608
C47	C	-0.371836	-0.392359	-0.020509
C48	C	-0.604167	-0.392362	-0.020510
C49	C	-0.371827	-0.624709	-0.020534
C50	C	-0.344479	-0.361232	-0.016740
C51	C	-0.662651	-0.361236	-0.016741
C52	C	-0.344466	-0.679430	-0.016775
C53	C	-0.159666	-0.481163	-0.400699
C54	C	-0.107019	-0.534181	-0.427151
C55	C	-0.159666	-0.481163	-0.321487
C56	C	-0.107019	-0.534181	-0.348059
C57	C	-0.080451	-0.560380	-0.400706
C58	C	-0.186114	-0.455085	-0.348052
C59	C	-0.239059	-0.395340	-0.400486
C60	C	-0.264166	-0.366175	-0.425418
C61	C	-0.237098	-0.391209	-0.477584
C62	C	-0.264317	-0.359587	-0.504618
C63	C	-0.184923	-0.445411	-0.504827
C64	C	-0.159819	-0.474575	-0.479897
C65	C	-0.186887	-0.449538	-0.427727
C66	C	0.005165	-0.639569	-0.480104
C67	C	0.059264	-0.689613	-0.505214
C68	C	0.086397	-0.714710	-0.478149
C69	C	0.145055	-0.768968	-0.505371
C70	C	0.059435	-0.689774	-0.425974
C71	C	0.005338	-0.639736	-0.400866
C72	C	-0.021795	-0.614633	-0.427931
C73	C	-0.239060	-0.395340	-0.235866
C74	C	-0.264164	-0.366170	-0.181763
C75	C	-0.237096	-0.391204	-0.154634
C76	C	-0.264315	-0.359582	-0.095974
C77	C	-0.184924	-0.445401	-0.181597
C78	C	-0.159817	-0.474571	-0.235697
C79	C	-0.186887	-0.449537	-0.262829
O80	O	0.317573	-0.313112	-0.013024
O81	O	0.164388	-0.223537	0.012933
O82	O	0.253965	-0.313124	-0.076642
O83	O	0.227997	-0.223525	0.076552
O84	O	0.253962	-0.385875	-0.076636
O85	O	0.164385	-0.296288	0.012939
O86	O	0.317571	-0.385862	-0.013018
Cu87	Cu	0.240978	-0.347718	-0.000039
Cu88	Cu	0.240981	-0.261682	-0.000046
O89	O	0.227994	-0.296275	0.076558
O90	O	-0.372814	0.304512	-0.013056
O91	O	-0.309206	0.177296	0.012913
O92	O	-0.309198	0.177276	-0.076668
O93	O	-0.372822	0.304531	0.076524
O94	O	-0.236443	0.177275	-0.076670
O95	O	-0.236450	0.177295	0.012911
O96	O	-0.300059	0.304511	-0.013058
Cu97	Cu	-0.261612	0.240903	-0.000074
Cu98	Cu	-0.347653	0.240904	-0.000071
O99	O	-0.300066	0.304530	0.076522
O100	O	0.317587	-0.913961	-0.541138
O101	O	0.164399	-0.786728	-0.477516
O102	O	0.253968	-0.786726	-0.477514
O103	O	0.228017	-0.913963	-0.541141
O104	O	0.253970	-0.786728	-0.550269
O105	O	0.164401	-0.786730	-0.550272
O106	O	0.317589	-0.913963	-0.613894
Cu107	Cu	0.240995	-0.850346	-0.588726
Cu108	Cu	0.240992	-0.850344	-0.502684
O109	O	0.228019	-0.913965	-0.613896
O110	O	-0.300080	-0.296281	-0.613839
O111	O	-0.236460	-0.385860	-0.550237
O112	O	-0.236465	-0.296281	-0.550226
O113	O	-0.300075	-0.385860	-0.613850
O114	O	-0.309221	-0.223524	-0.477464
O115	O	-0.309216	-0.313102	-0.477475
O116	O	-0.372836	-0.223524	-0.541077
Cu117	Cu	-0.347669	-0.261670	-0.502632
Cu118	Cu	-0.261627	-0.347714	-0.588682
O119	O	-0.372831	-0.313102	-0.541088
C120	C	-0.499863	-0.082292	0.338367
C121	C	-0.557566	-0.028302	0.365365
C122	C	-0.473294	-0.108490	0.364813
C123	C	-0.420647	-0.161509	0.259148
C124	C	-0.393652	-0.192219	0.201444
C125	C	-0.394199	-0.187587	0.285714
C126	C	-0.420648	-0.161508	0.338361
C127	C	-0.393654	-0.192218	0.365352
C128	C	-0.473294	-0.108491	0.285720
C129	C	-0.371846	-0.217028	0.387158
C130	C	-0.604184	0.015315	0.387176
C131	C	-0.371843	-0.217031	0.154824
C132	C	-0.344487	-0.248154	0.414514
C133	C	-0.662669	0.070035	0.414539
C134	C	-0.344483	-0.248158	0.096339
C135	C	0.213802	-0.161476	0.338358
C136	C	0.217516	-0.192179	0.365356
C137	C	0.213435	-0.108460	0.364803
C138	C	0.213800	-0.161488	0.259140
C139	C	0.217513	-0.192203	0.201436
C140	C	0.213433	-0.108472	0.285705
C141	C	0.213805	-0.082268	0.338352
C142	C	0.217523	-0.028281	0.365342
C143	C	0.213430	-0.187559	0.285712
C144	C	0.220528	0.015334	0.387147
C145	C	0.220518	-0.216984	0.387166
C146	C	0.220513	-0.217018	0.154818
C147	C	0.224296	0.070052	0.414502
C148	C	0.224283	-0.248103	0.414529
C149	C	0.224277	-0.248149	0.096332
C150	C	-0.420654	0.552166	0.338326
C151	C	-0.393663	0.582879	0.365320
C152	C	-0.473301	0.578248	0.364774
C153	C	-0.420647	0.472939	0.259110
C154	C	-0.393649	0.418943	0.201406
C155	C	-0.473294	0.499141	0.285679
C156	C	-0.499866	0.552165	0.338326
C157	C	-0.557570	0.582878	0.365320
C158	C	-0.394202	0.499142	0.285679
C159	C	-0.604188	0.607691	0.387128
C160	C	-0.371858	0.607693	0.387128
C161	C	-0.371838	0.375319	0.154787
C162	C	-0.662674	0.638819	0.414488
C163	C	-0.344501	0.638823	0.414487
C164	C	-0.344474	0.320592	0.096301
C165	C	0.272456	-0.560424	-0.400704
C166	C	0.272826	-0.534232	-0.427155
C167	C	0.272461	-0.481204	-0.321492
C168	C	0.272831	-0.455132	-0.348064
C169	C	0.272459	-0.481216	-0.400710
C170	C	0.272828	-0.534220	-0.348057
C171	C	0.266025	-0.639604	-0.400490
C172	C	0.261966	-0.689645	-0.425422
C173	C	0.259928	-0.714747	-0.477587
C174	C	0.255523	-0.769003	-0.504621
C175	C	0.261954	-0.689818	-0.504830
C176	C	0.266016	-0.639782	-0.479901
C177	C	0.268049	-0.614675	-0.427731
C178	C	0.266029	-0.475005	-0.480106
C179	C	0.261972	-0.446018	-0.505216
C180	C	0.259938	-0.391817	-0.478151
C181	C	0.255537	-0.360384	-0.505372
C182	C	0.261967	-0.366599	-0.425976
C183	C	0.266026	-0.395586	-0.400869
C184	C	0.268055	-0.449787	-0.427934
C185	C	0.266035	-0.474970	-0.235872
C186	C	0.261973	-0.445967	-0.181771
C187	C	0.259940	-0.391766	-0.154641
C188	C	0.255540	-0.360320	-0.095982
C189	C	0.261964	-0.366559	-0.181604
C190	C	0.266023	-0.395558	-0.235703
C191	C	0.268059	-0.449763	-0.262835
O192	O	0.253961	-0.313024	0.522560
O193	O	0.228005	-0.223469	0.458935
O194	O	0.317576	-0.313042	0.458931
O195	O	0.164389	-0.223451	0.522564
O196	O	0.317572	-0.385804	0.386179
O197	O	0.228001	-0.296230	0.386182
O198	O	0.253957	-0.385786	0.449807
Cu199	Cu	0.240978	-0.347652	0.411352
Cu200	Cu	0.240983	-0.261603	0.497391
O201	O	0.164385	-0.296213	0.449811
C202	C	-0.080415	-0.128330	-0.400739
C203	C	-0.106981	-0.154412	-0.427187
C204	C	-0.159634	-0.049104	-0.321523
C205	C	-0.186079	-0.075306	-0.348091
C206	C	-0.159628	-0.128331	-0.400738
C207	C	-0.106987	-0.075306	-0.348092
C208	C	0.005198	-0.134552	-0.400534
C209	C	0.059297	-0.163548	-0.425470
C210	C	0.086433	-0.217756	-0.477636
C211	C	0.145092	-0.249200	-0.504674
C212	C	0.059474	-0.242974	-0.504875
C213	C	0.005377	-0.213978	-0.479942
C214	C	-0.021759	-0.159769	-0.427771
C215	C	-0.159416	-0.214163	-0.480132
C216	C	-0.184349	-0.243330	-0.505238
C217	C	-0.236515	-0.218294	-0.478169
C218	C	-0.263550	-0.249917	-0.505386
C219	C	-0.263757	-0.164085	-0.425993
C220	C	-0.238827	-0.134918	-0.400890
C221	C	-0.186656	-0.159959	-0.427959
C222	C	-0.159434	0.030096	-0.235907
C223	C	-0.184371	0.080142	-0.181804
C224	C	-0.236537	0.105243	-0.154671
C225	C	-0.263578	0.159508	-0.096011
C226	C	-0.263771	0.080303	-0.181630
C227	C	-0.238837	0.030258	-0.235730
C228	C	-0.186668	0.005157	-0.262866
H229	H	-0.229374	-0.053290	0.032412
H230	H	-0.494632	0.620915	0.408032
H231	H	-0.306646	-0.322046	-0.403233
C232	C	0.089289	-0.717388	-0.396202
N233	N	0.111772	-0.738184	-0.373777
H234	H	0.081241	-0.143010	-0.403290
C235	C	-0.078202	-0.563801	-0.319245
N236	N	-0.056497	-0.586111	-0.297544
C237	C	-0.321145	-0.136546	-0.396218
N238	N	-0.364370	-0.115802	-0.373790
H239	H	-0.350942	-0.230250	0.264378
H240	H	-0.016933	-0.090325	0.026669
C241	C	-0.502112	-0.078868	0.423251
N242	N	-0.523816	-0.056558	0.467265
C243	C	0.273639	-0.397501	-0.319248
N244	N	0.274248	-0.354095	-0.297544
H245	H	-0.162192	0.100444	-0.159859
C246	C	-0.335749	-0.530521	-0.028413
N247	N	-0.291737	-0.552829	-0.029019
C248	C	-0.502097	-0.364171	-0.028403
N249	N	-0.523800	-0.320765	-0.029009
C250	C	-0.268790	-0.075294	-0.343497
N251	N	-0.291357	-0.030387	-0.300268
C252	C	-0.502091	-0.530524	-0.028417
N253	N	-0.523793	-0.552837	-0.029027
H254	H	0.212837	-0.086529	0.408061
H255	H	-0.261106	-0.090322	0.026674
C256	C	-0.154426	0.107609	0.018706
N257	N	-0.131856	0.128265	0.017025
H258	H	-0.261045	0.010025	0.026653
C259	C	-0.155146	-0.472940	-0.151751
N260	N	-0.132721	-0.493683	-0.129270
H261	H	-0.117338	-0.518708	-0.502081
C262	C	-0.078203	-0.563803	-0.485590
N263	N	-0.056499	-0.586114	-0.529604
H264	H	-0.229366	-0.412411	-0.326715
H265	H	0.267673	-0.375049	-0.358387
C266	C	-0.024324	-0.241605	0.027233
N267	N	-0.046660	-0.262495	0.028912
H268	H	-0.116957	0.009662	-0.257999
C269	C	-0.502110	-0.078870	0.256907
N270	N	-0.523813	-0.056561	0.235205
H271	H	0.212845	-0.230229	0.264381
C272	C	0.259727	-0.306933	-0.151757
N273	N	0.258045	-0.262024	-0.129276
H274	H	0.260295	-0.710265	-0.547310
H275	H	0.212840	-0.086554	0.264369
C276	C	0.268251	-0.612365	-0.509868
N277	N	0.269936	-0.591715	-0.532441
H278	H	-0.306648	-0.142912	0.019315
H279	H	-0.306645	-0.322044	-0.159815
C280	C	-0.335763	0.469515	0.256864
N281	N	-0.291748	0.447199	0.235161
C282	C	-0.078206	-0.045605	0.032608
N283	N	-0.056502	-0.023298	0.033212
H284	H	-0.494620	0.477210	0.264346
H285	H	0.273426	-0.556168	-0.470414
H286	H	0.267666	-0.375027	-0.257654
C287	C	-0.268839	-0.367798	-0.265709
N288	N	-0.291267	-0.347050	-0.288185
C289	C	0.273634	-0.563836	-0.319238
N290	N	0.274243	-0.586142	-0.297532
H291	H	0.260326	-0.466496	-0.159822
H292	H	0.267694	-0.519107	-0.257962
C293	C	0.259734	-0.717060	-0.395453
N294	N	0.258055	-0.737712	-0.372881
C295	C	0.259735	-0.473758	-0.562604
N296	N	0.258048	-0.494648	-0.605828
C297	C	0.259751	-0.306985	-0.396213
N298	N	0.258090	-0.262090	-0.373797
C299	C	0.088908	-0.135719	0.018722
N300	N	0.111243	-0.114828	0.017046
C301	C	-0.154379	-0.302957	-0.562628
N302	N	-0.131808	-0.347869	-0.605855
H303	H	0.267684	-0.619167	-0.358012
C304	C	-0.155148	-0.472944	-0.562214
N305	N	-0.132719	-0.493683	-0.605438
C306	C	-0.078159	-0.212056	-0.485625
N307	N	-0.056452	-0.255473	-0.529637
H308	H	0.267684	-0.519140	-0.502149
H309	H	-0.229339	-0.053370	-0.326761
C310	C	-0.321179	0.107963	0.018689
N311	N	-0.364400	0.128756	0.016999
C312	C	-0.078172	-0.045683	-0.319275
N313	N	-0.056470	-0.023372	-0.297571
C314	C	0.089331	-0.302610	-0.562263
N315	N	0.111818	-0.347529	-0.605486
C316	C	-0.321159	0.107918	-0.151779
N317	N	-0.364385	0.128721	-0.129295
C318	C	-0.155156	-0.302480	0.018720
N319	N	-0.132730	-0.347390	0.017034
H320	H	-0.085695	-0.196968	0.032415
H321	H	0.081209	-0.709911	-0.547696
H322	H	-0.016895	-0.090410	-0.358056
H323	H	-0.016572	-0.234510	-0.502121
H324	H	-0.116982	0.009722	0.026660
H325	H	-0.117347	-0.234391	0.026668
H326	H	-0.116937	-0.234554	-0.502177
H327	H	0.081524	-0.287000	0.019285
H328	H	-0.261104	-0.374951	-0.358007
H329	H	-0.261013	0.009951	-0.257679
H330	H	-0.016925	-0.619136	-0.502147
H331	H	-0.016613	-0.619435	-0.358385
H332	H	-0.117334	-0.518699	-0.257649
