data_functionalizedCrystal
_audit_creation_method	'MofGen! by Chris Wilmer'
_symmetry_space_group_name_H-M	'P1'
_symmetry_Int_Tables_number	1
_symmetry_cell_setting	triclinic
loop_
_symmetry_equiv_pos_as_xyz
  x,y,z
_cell_length_a	9.065218
_cell_length_b	17.038272
_cell_length_c	7.540329
_cell_angle_alpha	90.003596
_cell_angle_beta	90.001688
_cell_angle_gamma	88.063721
loop_
_atom_site_label
_atom_site_type_symbol
_atom_site_fract_x
_atom_site_fract_y
_atom_site_fract_z
O1	O	1.971906	0.114742	0.147490
O2	O	2.471906	0.614742	0.647490
O3	O	1.543565	0.124153	0.147492
O4	O	2.043565	0.624153	0.647492
O5	O	1.755190	0.005614	0.147477
O6	O	2.255190	0.505614	0.647477
O7	O	1.760281	0.233281	0.147505
O8	O	2.260281	0.733281	0.647505
O9	O	1.755182	0.005613	-0.147488
O10	O	2.255182	0.505613	0.352512
O11	O	1.543557	0.124152	-0.147473
O12	O	2.043557	0.624152	0.352527
O13	O	1.971898	0.114741	-0.147476
O14	O	2.471898	0.614741	0.352524
Cu15	Cu	1.757727	0.119446	-0.174407
Cu16	Cu	2.257727	0.619446	0.325593
Cu17	Cu	1.757736	0.119447	0.174424
Cu18	Cu	2.257736	0.619447	0.674424
O19	O	1.760273	0.233280	-0.147460
O20	O	2.260273	0.733280	0.352540
C21	C	1.488484	0.123248	0.000010
C22	C	1.988484	0.623248	0.500010
C23	C	1.324369	0.120544	0.000011
C24	C	1.824369	0.620544	0.500011
C25	C	1.750555	-0.023549	-0.000005
C26	C	2.250555	0.476451	0.499995
C27	C	1.736739	-0.110441	-0.000005
C28	C	2.236739	0.389559	0.499995
C29	C	1.863587	-0.159639	-0.000008
C30	C	2.363587	0.340361	0.499992
C31	C	1.850596	-0.241284	0.000009
C32	C	2.350596	0.258716	0.500009
C33	C	1.710756	-0.273728	0.000016
C34	C	2.210756	0.226272	0.500016
C35	C	1.583899	-0.224524	0.000024
C36	C	2.083899	0.275476	0.500024
C37	C	1.596891	-0.142881	0.000020
C38	C	2.096891	0.357119	0.500020
C39	C	1.664859	-0.519818	0.000041
C40	C	2.164859	-0.019818	0.500041
C41	C	1.651876	-0.601467	0.000040
C42	C	2.151876	-0.101467	0.500040
C43	C	1.918575	-0.618221	0.000028
C44	C	2.418575	-0.118221	0.500028
C45	C	1.931554	-0.536576	0.000013
C46	C	2.431554	-0.036576	0.500013
C47	C	1.804697	-0.487379	0.000031
C48	C	2.304697	0.012621	0.500031
C49	C	1.697475	-0.357182	0.000028
C50	C	2.197475	0.142818	0.500028
C51	C	1.817980	-0.403927	0.000032
C52	C	2.317980	0.096073	0.500032
C53	C	2.026979	0.115646	0.000011
C54	C	2.526979	0.615646	0.500011
C55	C	2.191093	0.118350	0.000022
C56	C	2.691093	0.618350	0.500022
C57	C	1.764908	0.262442	0.000026
C58	C	2.264908	0.762442	0.500026
C59	C	1.778724	0.349335	0.000037
C60	C	2.278724	0.849335	0.500037
N61	N	1.757731	0.119445	-0.419755
N62	N	2.257731	0.619445	0.080245
N63	N	1.757743	0.119443	0.419772
N64	N	2.257743	0.619443	0.919772
H65	H	1.977459	-0.133230	-0.000024
H66	H	2.477459	0.366770	0.499976
C67	C	1.498046	-0.637154	0.000078
C68	C	1.998046	-0.137154	0.500078
H69	H	1.424354	-0.596161	0.000109
H70	H	1.924354	-0.096161	0.500109
H71	H	1.487417	-0.668660	-0.102777
H72	H	1.987417	-0.168660	0.397223
H73	H	1.487463	-0.668650	0.102957
H74	H	1.987463	-0.168650	0.602957
C75	C	1.457363	-0.088759	0.000024
C76	C	1.957363	0.411241	0.500024
H77	H	1.485127	-0.035490	0.000039
H78	H	1.985127	0.464510	0.500039
H79	H	1.400433	-0.098697	-0.102831
H80	H	1.900433	0.401303	0.397169
H81	H	1.400456	-0.098695	0.102903
H82	H	1.900456	0.401305	0.602903
H83	H	1.561561	-0.479770	0.000054
H84	H	2.061561	0.020230	0.500054
H85	H	1.953890	-0.281338	0.000003
H86	H	2.453890	0.218662	0.500003
C87	C	1.971797	-0.368244	0.000020
C88	C	2.471797	0.131756	0.500020
H89	H	2.045492	-0.409235	0.000026
H90	H	2.545492	0.090765	0.500026
H91	H	1.982392	-0.336745	-0.102841
H92	H	2.482392	0.163255	0.397159
H93	H	1.982411	-0.336741	0.102894
H94	H	2.482411	0.163259	0.602894
H95	H	1.583616	-0.383607	0.000030
H96	H	2.083616	0.116393	0.500030
C97	C	2.085378	-0.500893	0.000029
C98	C	2.585378	-0.000893	0.500029
H99	H	2.159066	-0.541888	0.000048
H100	H	2.659066	-0.041888	0.500048
H101	H	2.095993	-0.469394	-0.102828
H102	H	2.595993	0.030606	0.397172
H103	H	2.095982	-0.469392	0.102906
H104	H	2.595982	0.030608	0.602906
C105	C	2.058104	-0.672339	0.000035
C106	C	2.558104	-0.172339	0.500035
H107	H	2.030345	-0.725610	0.000055
H108	H	2.530345	-0.225610	0.500055
H109	H	2.115027	-0.662407	-0.102822
H110	H	2.615027	-0.162407	0.397178
H111	H	2.115016	-0.662395	0.102913
H112	H	2.615016	-0.162395	0.602913
C113	C	1.430079	-0.260210	0.000027
C114	C	1.930079	0.239790	0.500027
H115	H	1.440506	-0.315880	0.000009
H116	H	1.940506	0.184120	0.500009
H117	H	1.377416	-0.243386	0.102886
H118	H	1.877416	0.256614	0.602886
H119	H	1.377421	-0.243389	-0.102849
H120	H	1.877421	0.256611	0.397151
