data_functionalizedCrystal
_audit_creation_method	'MofGen! by Chris Wilmer'
_symmetry_space_group_name_H-M	'P1'
_symmetry_Int_Tables_number	1
_symmetry_cell_setting	triclinic
loop_
_symmetry_equiv_pos_as_xyz
  x,y,z
_cell_length_a	15.297327
_cell_length_b	15.298073
_cell_length_c	15.296720
_cell_angle_alpha	88.353317
_cell_angle_beta	72.680778
_cell_angle_gamma	69.205280
loop_
_atom_site_label
_atom_site_type_symbol
_atom_site_fract_x
_atom_site_fract_y
_atom_site_fract_z
Zn1	Zn	-0.284981	-1.197179	0.766943
Zn2	Zn	0.215019	-0.697179	1.266943
Zn3	Zn	-0.413618	-1.197077	0.638322
Zn4	Zn	0.086382	-0.697077	1.138322
Zn5	Zn	-0.275669	-1.077896	0.593814
Zn6	Zn	0.224331	-0.577896	1.093814
Zn7	Zn	-0.467306	-1.014721	0.766789
Zn8	Zn	0.032694	-0.514721	1.266789
O9	O	-0.360393	-1.121718	0.691467
O10	O	0.139607	-0.621718	1.191467
O11	O	-0.283473	-1.323403	0.768573
O12	O	0.216527	-0.823403	1.268573
O13	O	-0.368953	-1.207663	0.506199
O14	O	0.131047	-0.707663	1.006199
O15	O	-0.142869	-1.120201	0.598218
O16	O	0.357131	-0.620201	1.098218
O17	O	-0.377982	-1.323327	0.674075
O18	O	0.122018	-0.823327	1.174075
O19	O	-0.149710	-1.207838	0.725415
O20	O	0.350290	-0.707838	1.225415
O21	O	-0.267603	-1.120102	0.473499
O22	O	0.232397	-0.620102	0.973499
O23	O	-0.319662	-0.943279	0.598068
O24	O	0.180338	-0.443279	1.098068
O25	O	-0.469485	-1.012528	0.893028
O26	O	0.030515	-0.512528	1.393028
O27	O	-0.460456	-0.896864	0.725152
O28	O	0.039544	-0.396864	1.225152
O29	O	-0.335532	-1.146580	0.893142
O30	O	0.164468	-0.646580	1.393142
O31	O	-0.554775	-1.146405	0.673926
O32	O	-0.054775	-0.646405	1.173926
O33	O	-0.594219	-1.012429	0.768310
O34	O	-0.094219	-0.512429	1.268310
C35	C	-0.394875	-0.887339	0.656764
C36	C	0.105125	-0.387339	1.156764
C37	C	-0.409654	-0.787062	0.641943
C38	C	0.090346	-0.287062	1.141943
C39	C	-0.254952	-0.504404	0.797383
C40	C	0.245048	-0.004404	1.297383
C41	C	-0.241070	-0.598618	0.811314
C42	C	0.258930	-0.098618	1.311314
C43	C	-0.283214	-0.645733	0.768972
C44	C	0.216786	-0.145733	1.268972
C45	C	-0.339244	-0.598626	0.712697
C46	C	0.160756	-0.098626	1.212697
C47	C	-0.353134	-0.504400	0.698771
C48	C	0.146866	-0.004400	1.198771
C49	C	-0.381396	-0.645730	0.670360
C50	C	0.118604	-0.145730	1.170360
C51	C	-0.437426	-0.598622	0.614085
C52	C	0.062574	-0.098622	1.114085
C53	C	-0.451312	-0.504407	0.600161
C54	C	0.048688	-0.004407	1.100161
C55	C	-0.409168	-0.457291	0.642502
C56	C	0.090832	0.042709	1.142502
C57	C	-0.367507	-0.739955	0.684287
C58	C	0.132493	-0.239955	1.184287
C59	C	-0.465689	-0.739952	0.585674
C60	C	0.034311	-0.239952	1.085674
C61	C	-0.479571	-0.645738	0.571744
C62	C	0.020429	-0.145738	1.071744
C63	C	-0.609251	-1.072571	0.725954
C64	C	-0.109251	-0.572571	1.225954
C65	C	-0.715708	-1.051621	0.740750
C66	C	-0.215708	-0.551621	1.240750
C67	C	-0.933523	-1.271753	0.586080
C68	C	-0.433523	-0.771753	1.086080
C69	C	-0.833501	-1.291437	0.572174
C70	C	-0.333501	-0.791437	1.072174
C71	C	-0.804048	-1.231485	0.614317
C72	C	-0.304048	-0.731485	1.114317
C73	C	-0.874627	-1.151846	0.670368
C74	C	-0.374627	-0.651846	1.170368
C75	C	-0.974659	-1.132156	0.684270
C76	C	-0.474659	-0.632156	1.184270
C77	C	-0.845183	-1.091888	0.712507
C78	C	-0.345183	-0.591888	1.212507
C79	C	-0.915762	-1.012249	0.768558
C80	C	-0.415762	-0.512249	1.268558
C81	C	-1.015783	-0.992564	0.782458
C82	C	-0.515783	-0.492564	1.282458
C83	C	-1.045237	-1.052515	0.740315
C84	C	-0.545237	-0.552515	1.240315
C85	C	-0.745151	-1.111577	0.698605
C86	C	-0.245151	-0.611577	1.198605
C87	C	-0.786286	-0.971980	0.796795
C88	C	-0.286286	-0.471980	1.296795
C89	C	-0.886309	-0.952297	0.810701
C90	C	-0.386309	-0.452297	1.310701
C91	C	-0.110564	-1.171078	0.656869
C92	C	0.389436	-0.671078	1.156869
C93	C	-0.004102	-1.192112	0.642125
C94	C	0.495898	-0.692112	1.142125
C95	C	-0.409536	-1.072518	0.926727
C96	C	0.090464	-0.572518	1.426727
C97	C	-0.430478	-1.051552	1.026981
C98	C	0.069522	-0.551552	1.526981
C99	C	-0.325767	-0.357016	0.726296
C100	C	0.174233	0.142984	1.226296
C101	C	-0.310986	-0.457294	0.741114
C102	C	0.189014	0.042706	1.241114
C103	C	-0.311365	-1.170792	0.457120
C104	C	0.188635	-0.670792	0.957120
C105	C	-0.290128	-1.191986	0.356855
C106	C	0.209872	-0.691986	0.856855
C107	C	-0.210546	-1.271632	1.309818
C108	C	0.289454	-0.771632	1.809818
C109	C	-0.190871	-1.291336	1.215626
C110	C	0.309129	-0.791336	1.715626
C111	C	-0.250771	-1.231392	1.168460
C112	C	0.249229	-0.731392	1.668460
C113	C	-0.330350	-1.151740	1.215496
C114	C	0.169650	-0.651740	1.715496
C115	C	-0.350031	-1.132038	1.309699
C116	C	0.149969	-0.632038	1.809699
C117	C	-0.390256	-1.091798	1.168341
C118	C	0.109744	-0.591798	1.668341
C119	C	-0.469835	-1.012146	1.215376
C120	C	0.030165	-0.512146	1.715376
C121	C	-0.489512	-0.992448	1.309570
C122	C	0.010488	-0.492448	1.809570
C123	C	-0.429613	-1.052392	1.356736
C124	C	0.070387	-0.552392	1.856736
C125	C	-0.370574	-1.111500	1.074137
C126	C	0.129426	-0.611500	1.574137
C127	C	-0.510059	-0.971906	1.074018
C128	C	-0.010059	-0.471906	1.574018
C129	C	-0.529734	-0.952202	1.168210
C130	C	-0.029734	-0.452202	1.668210
H131	H	-0.500012	-0.778312	0.551201
H132	H	-0.000012	-0.278312	1.051201
H133	H	-0.525191	-0.607369	0.525925
H134	H	-0.025191	-0.107369	1.025925
H135	H	-0.776039	-1.356277	0.526537
H136	H	-0.276039	-0.856277	1.026537
Br137	Br	-0.262579	-1.219596	1.010315
Br138	Br	0.237421	-0.719596	1.510315
Br139	Br	-0.428000	-0.329425	0.623592
Br140	Br	0.072000	0.170575	1.123592
Br141	Br	-0.129274	-1.352985	1.373835
Br142	Br	0.370726	-0.852985	1.873835
H143	H	-0.321885	-0.778302	0.730105
H144	H	0.178115	-0.278302	1.230105
H145	H	-1.073247	-0.927708	0.828087
H146	H	-0.573247	-0.427708	1.328087
Br147	Br	-0.649378	-1.219654	0.622536
Br148	Br	-0.149378	-0.719654	1.122536
Br149	Br	-0.973501	-1.353103	0.528888
Br150	Br	-0.473501	-0.853103	1.028888
H151	H	-0.445628	-1.036353	1.433435
H152	H	0.054372	-0.536353	1.933435
H153	H	-1.126682	-1.036495	0.751637
H154	H	-0.626682	-0.536495	1.251637
H155	H	-0.943788	-0.887454	0.856338
H156	H	-0.443788	-0.387454	1.356338
H157	H	-0.234747	-1.247440	1.091764
H158	H	0.265253	-0.747440	1.591764
H159	H	-0.722604	-1.247515	0.602990
H160	H	-0.222604	-0.747515	1.102990
Br161	Br	-0.165041	-0.662541	0.887690
Br162	Br	0.334959	-0.162541	1.387690
Br163	Br	-0.264373	-0.773598	0.787878
Br164	Br	0.235627	-0.273598	1.287878
Br165	Br	-0.082879	-1.399432	1.151798
Br166	Br	0.417121	-0.899432	1.651798
H167	H	-0.554317	-0.927596	1.347866
H168	H	-0.054317	-0.427596	1.847866
H169	H	-0.496944	-0.466051	0.554346
H170	H	0.003056	0.033949	1.054346
Br171	Br	-0.637730	-0.844106	1.232055
Br172	Br	-0.137730	-0.344106	1.732055
H173	H	-0.762308	-0.923161	0.831109
H174	H	-0.262308	-0.423161	1.331109
Br175	Br	-0.197781	-0.440452	0.854856
Br176	Br	0.302219	0.059548	1.354856
H177	H	-0.558836	-0.923095	1.035616
H178	H	-0.058836	-0.423095	1.535616
