data_functionalizedCrystal
_audit_creation_method	'MofGen! by Chris Wilmer'
_symmetry_space_group_name_H-M	'P1'
_symmetry_Int_Tables_number	1
_symmetry_cell_setting	triclinic
loop_
_symmetry_equiv_pos_as_xyz
  x,y,z
_cell_length_a	18.215407
_cell_length_b	19.077068
_cell_length_c	18.215399
_cell_angle_alpha	92.268164
_cell_angle_beta	89.982632
_cell_angle_gamma	92.324400
loop_
_atom_site_label
_atom_site_type_symbol
_atom_site_fract_x
_atom_site_fract_y
_atom_site_fract_z
Zn1	Zn	1.113286	-0.280256	-0.427823
Zn2	Zn	1.446619	0.053077	-0.094490
Zn3	Zn	1.779952	0.386410	0.238844
Zn4	Zn	1.108244	-0.397958	-0.309694
Zn5	Zn	1.441577	-0.064624	0.023639
Zn6	Zn	1.774911	0.268709	0.356973
Zn7	Zn	0.990217	-0.280273	-0.304776
Zn8	Zn	1.323551	0.053060	0.028557
Zn9	Zn	1.656884	0.386394	0.361890
Zn10	Zn	0.985236	-0.397912	-0.432722
Zn11	Zn	1.318569	-0.064579	-0.099389
Zn12	Zn	1.651903	0.268754	0.233944
O13	O	1.049246	-0.339100	-0.368754
O14	O	1.382579	-0.005767	-0.035421
O15	O	1.715912	0.327567	0.297913
O16	O	1.215601	-0.295882	-0.412161
O17	O	1.548934	0.037452	-0.078827
O18	O	1.882267	0.370785	0.254506
O19	O	1.092562	-0.382373	-0.206058
O20	O	1.425896	-0.049039	0.127275
O21	O	1.759229	0.284294	0.460608
O22	O	1.010737	-0.181780	-0.316991
O23	O	1.344071	0.151553	0.016343
O24	O	1.677404	0.484887	0.349676
O25	O	1.211896	-0.382356	-0.325372
O26	O	1.545230	-0.049023	0.007962
O27	O	1.878563	0.284310	0.341295
O28	O	1.101155	-0.181768	-0.407392
O29	O	1.434488	0.151566	-0.074059
O30	O	1.767822	0.484899	0.259274
O31	O	1.005849	-0.295910	-0.202446
O32	O	1.339182	0.037423	0.130888
O33	O	1.672515	0.370756	0.464221
O34	O	0.886573	-0.295866	-0.321741
O35	O	1.219906	0.037467	0.011592
O36	O	1.553240	0.370800	0.344926
O37	O	1.002247	-0.382279	-0.535056
O38	O	1.335580	-0.048946	-0.201722
O39	O	1.668914	0.284388	0.131611
O40	O	0.882913	-0.382295	-0.415742
O41	O	1.216246	-0.048962	-0.082409
O42	O	1.549580	0.284371	0.250924
O43	O	1.096325	-0.295838	-0.531456
O44	O	1.429658	0.037496	-0.198123
O45	O	1.762991	0.370829	0.135210
O46	O	1.087732	-0.496443	-0.330122
O47	O	1.421065	-0.163109	0.003211
O48	O	1.754399	0.170224	0.336545
O49	O	0.997358	-0.496409	-0.420511
O50	O	1.330692	-0.163076	-0.087177
O51	O	1.664025	0.170257	0.246156
C52	C	0.858040	-0.339078	-0.368740
C53	C	1.191374	-0.005745	-0.035407
C54	C	1.524707	0.327588	0.297927
C55	C	0.776241	-0.339086	-0.368752
C56	C	1.109574	-0.005753	-0.035419
C57	C	1.442908	0.327581	0.297914
C58	C	0.589971	-0.294151	-0.414022
C59	C	0.923304	0.039182	-0.080688
C60	C	1.256638	0.372515	0.252645
C61	C	0.513112	-0.294157	-0.414024
C62	C	0.846445	0.039176	-0.080691
C63	C	1.179779	0.372509	0.252642
C64	C	0.509272	-0.384068	-0.323500
C65	C	0.842605	-0.050735	0.009833
C66	C	1.175938	0.282598	0.343167
C67	C	0.586129	-0.384058	-0.323494
C68	C	0.919463	-0.050725	0.009839
C69	C	1.252796	0.282609	0.343173
C70	C	0.626477	-0.339101	-0.368759
C71	C	0.959810	-0.005767	-0.035426
C72	C	1.293144	0.327566	0.297908
C73	C	0.472760	-0.339117	-0.368768
C74	C	0.806094	-0.005783	-0.035434
C75	C	1.139427	0.327550	0.297899
C76	C	0.389426	-0.339124	-0.368770
C77	C	0.722760	-0.005790	-0.035437
C78	C	1.056093	0.327543	0.297896
C79	C	0.709816	-0.339093	-0.368756
C80	C	1.043150	-0.005759	-0.035422
C81	C	1.376483	0.327574	0.297911
C82	C	1.041478	-0.521964	-0.376398
C83	C	1.374811	-0.188630	-0.043064
C84	C	1.708144	0.144703	0.290269
C85	C	1.038222	-0.600193	-0.379692
C86	C	1.371555	-0.266860	-0.046359
C87	C	1.704888	0.066473	0.286974
C88	C	1.083781	-0.636940	-0.334219
C89	C	1.417114	-0.303607	-0.000885
C90	C	1.750448	0.029727	0.332448
C91	C	1.080723	-0.710445	-0.337322
C92	C	1.414056	-0.377112	-0.003988
C93	C	1.747390	-0.043779	0.329345
C94	C	1.032101	-0.747203	-0.385895
C95	C	1.365435	-0.413869	-0.052562
C96	C	1.698768	-0.080536	0.280771
C97	C	0.986540	-0.710451	-0.431374
C98	C	1.319873	-0.377118	-0.098040
C99	C	1.653207	-0.043784	0.235293
C100	C	0.989602	-0.636947	-0.428274
C101	C	1.322936	-0.303614	-0.094940
C102	C	1.656269	0.029720	0.238393
C103	C	1.017897	-0.967037	-0.400212
C104	C	1.351230	-0.633703	-0.066879
C105	C	1.684564	-0.300370	0.266455
C106	C	1.014837	-1.040546	-0.403307
C107	C	1.348170	-0.707212	-0.069974
C108	C	1.681503	-0.373879	0.263360
C109	C	1.109021	-1.040535	-0.309256
C110	C	1.442354	-0.707202	0.024078
C111	C	1.775688	-0.373868	0.357411
C112	C	1.112076	-0.967030	-0.306157
C113	C	1.445409	-0.633696	0.027176
C114	C	1.778742	-0.300363	0.360510
C115	C	1.066517	-0.930284	-0.351638
C116	C	1.399851	-0.596951	-0.018305
C117	C	1.733184	-0.263618	0.315029
N118	N	1.028973	-0.822337	-0.389067
N119	N	1.362306	-0.489003	-0.055733
N120	N	1.695639	-0.155670	0.277600
N121	N	1.069650	-0.855151	-0.348470
N122	N	1.402983	-0.521818	-0.015137
N123	N	1.736317	-0.188485	0.318197
C124	C	1.241198	-0.339122	-0.368768
C125	C	1.574531	-0.005789	-0.035435
C126	C	1.907864	0.327545	0.297898
C127	C	1.322996	-0.339132	-0.368774
C128	C	1.656329	-0.005798	-0.035441
C129	C	1.989663	0.327535	0.297892
C130	C	1.049293	-0.339051	-0.560705
C131	C	1.382626	-0.005718	-0.227372
C132	C	1.715959	0.327615	0.105962
C133	C	1.049313	-0.339031	-0.642503
C134	C	1.382646	-0.005697	-0.309170
C135	C	1.715979	0.327636	0.024164
C136	C	1.057064	-0.155522	-0.361096
C137	C	1.390398	0.177811	-0.027763
C138	C	1.723731	0.511145	0.305570
C139	C	1.060396	-0.077292	-0.357833
C140	C	1.393729	0.256041	-0.024500
C141	C	1.727063	0.589375	0.308833
C142	C	1.098317	-0.293978	-0.828822
C143	C	1.431651	0.039355	-0.495489
C144	C	1.764984	0.372688	-0.162156
C145	C	1.098327	-0.293958	-0.905680
C146	C	1.431660	0.039375	-0.572347
C147	C	1.764994	0.372709	-0.239013
C148	C	1.000364	-0.383974	-0.909417
C149	C	1.333698	-0.050641	-0.576084
C150	C	1.667031	0.282693	-0.242750
C151	C	1.000352	-0.383990	-0.832560
C152	C	1.333685	-0.050657	-0.499227
C153	C	1.667018	0.282676	-0.165894
C154	C	1.049332	-0.338994	-0.792265
C155	C	1.382666	-0.005660	-0.458932
C156	C	1.715999	0.327673	-0.125598
C157	C	1.049355	-0.338957	-0.945980
C158	C	1.382688	-0.005623	-0.612646
C159	C	1.716021	0.327710	-0.279313
C160	C	1.049365	-0.338935	-1.029312
C161	C	1.382698	-0.005602	-0.695979
C162	C	1.716031	0.327732	-0.362646
C163	C	1.049322	-0.339014	-0.708927
C164	C	1.382655	-0.005681	-0.375594
C165	C	1.715988	0.327652	-0.042260
C166	C	1.049244	-0.339097	-0.177548
C167	C	1.382577	-0.005764	0.155786
C168	C	1.715910	0.327569	0.489119
C169	C	1.049374	-0.338920	-0.095742
C170	C	1.382708	-0.005586	0.237592
C171	C	1.716041	0.327747	0.570925
H172	H	0.615853	-0.420662	-0.286632
H173	H	0.949187	-0.087329	0.046702
H174	H	1.282520	0.246005	0.380035
O175	O	0.633489	-0.245652	-0.462830
O176	O	0.966823	0.087681	-0.129497
O177	O	1.300156	0.421015	0.203836
H178	H	0.618242	-0.257784	-0.521078
H179	H	0.951575	0.075549	-0.187745
H180	H	1.284908	0.408882	0.145589
O181	O	0.473741	-0.245675	-0.462847
O182	O	0.807074	0.087658	-0.129513
O183	O	1.140408	0.420991	0.203820
H184	H	0.440238	-0.209825	-0.428471
H185	H	0.773572	0.123508	-0.095137
H186	H	1.106905	0.456842	0.238196
O187	O	0.465750	-0.432560	-0.274686
O188	O	0.799083	-0.099227	0.058647
O189	O	1.132417	0.234107	0.391980
H190	H	0.480989	-0.420412	-0.216439
H191	H	0.814322	-0.087079	0.116895
H192	H	1.147655	0.246255	0.450228
H193	H	0.975252	-1.070471	-0.442874
H194	H	1.308585	-0.737138	-0.109541
H195	H	1.641918	-0.403805	0.223793
H196	H	0.960457	-0.420647	-0.802795
H197	H	1.293790	-0.087313	-0.469462
H198	H	1.627124	0.246020	-0.136128
H199	H	0.960488	-0.420610	-0.942235
H200	H	1.293821	-0.087277	-0.608902
H201	H	1.627154	0.246056	-0.275568
O202	O	1.136227	-0.597295	-0.281832
O203	O	1.469560	-0.263962	0.051502
O204	O	1.802893	0.069372	0.384835
H205	H	1.167399	-0.635199	-0.250739
H206	H	1.500732	-0.301866	0.082594
H207	H	1.834065	0.031467	0.415928
H208	H	1.151667	-0.937103	-0.266605
H209	H	1.485001	-0.603770	0.066729
H210	H	1.818334	-0.270436	0.400062
O211	O	1.129857	-0.750082	-0.288272
O212	O	1.463191	-0.416749	0.045062
O213	O	1.796524	-0.083415	0.378395
H214	H	1.164173	-0.712173	-0.253967
H215	H	1.497507	-0.378840	0.079366
H216	H	1.830840	-0.045507	0.412699
O217	O	1.158179	-1.080165	-0.260223
O218	O	1.491513	-0.746832	0.073110
O219	O	1.824846	-0.413498	0.406443
H220	H	1.147894	-1.137452	-0.270547
H221	H	1.481227	-0.804119	0.062787
H222	H	1.814561	-0.470786	0.396120
H223	H	0.980800	-0.937124	-0.437243
H224	H	1.314133	-0.603791	-0.103910
H225	H	1.647467	-0.270458	0.229424
O226	O	0.934088	-0.750091	-0.483757
O227	O	1.267421	-0.416758	-0.150424
O228	O	1.600754	-0.083424	0.182909
H229	H	0.939602	-0.807377	-0.478266
H230	H	1.272936	-0.474044	-0.144932
H231	H	1.606269	-0.140710	0.188401
H232	H	1.138199	-0.257337	-0.796016
H233	H	1.471532	0.075996	-0.462682
H234	H	1.804865	0.409329	-0.129349
O235	O	0.940455	-0.597307	-0.477311
O236	O	1.273789	-0.263974	-0.143978
O237	O	1.607122	0.069359	0.189356
H238	H	0.906124	-0.635214	-0.511601
H239	H	1.239457	-0.301881	-0.178268
H240	H	1.572790	0.031452	0.155065
H241	H	1.138214	-0.257301	-0.935441
H242	H	1.471548	0.076032	-0.602108
H243	H	1.804881	0.409366	-0.268775
