data_functionalizedCrystal
_audit_creation_method	'MofGen! by Chris Wilmer'
_symmetry_space_group_name_H-M	'P1'
_symmetry_Int_Tables_number	1
_symmetry_cell_setting	triclinic
loop_
_symmetry_equiv_pos_as_xyz
  x,y,z
_cell_length_a	16.120490
_cell_length_b	12.645330
_cell_length_c	16.120297
_cell_angle_alpha	87.122770
_cell_angle_beta	90.129683
_cell_angle_gamma	92.881193
loop_
_atom_site_label
_atom_site_type_symbol
_atom_site_fract_x
_atom_site_fract_y
_atom_site_fract_z
Zn1	Zn	1.247425	0.537163	-0.534569
Zn2	Zn	1.580759	0.870496	-0.201235
Zn3	Zn	1.914092	1.203830	0.132098
Zn4	Zn	1.254369	0.705924	-0.395521
Zn5	Zn	1.587703	1.039258	-0.062188
Zn6	Zn	1.921036	1.372591	0.271145
Zn7	Zn	1.115416	0.519240	-0.388489
Zn8	Zn	1.448749	0.852574	-0.055155
Zn9	Zn	1.782082	1.185907	0.278178
Zn10	Zn	1.108325	0.704938	-0.527494
Zn11	Zn	1.441658	1.038271	-0.194161
Zn12	Zn	1.774992	1.371605	0.139172
O13	O	1.181384	0.616816	-0.461518
O14	O	1.514717	0.950150	-0.128185
O15	O	1.848051	1.283483	0.205148
O16	O	1.364713	0.567463	-0.522028
O17	O	1.698046	0.900797	-0.188694
O18	O	2.031380	1.234130	0.144639
O19	O	1.241810	0.674072	-0.278222
O20	O	1.575144	1.007406	0.055111
O21	O	1.908477	1.340739	0.388444
O22	O	1.132988	0.373276	-0.407884
O23	O	1.466322	0.706609	-0.074550
O24	O	1.799655	1.039942	0.258783
O25	O	1.369815	0.691451	-0.419870
O26	O	1.703148	1.024785	-0.086537
O27	O	2.036482	1.358118	0.246796
O28	O	1.229975	0.386443	-0.515208
O29	O	1.563309	0.719777	-0.181875
O30	O	1.896642	1.053110	0.151459
O31	O	1.139722	0.536916	-0.273055
O32	O	1.473055	0.870250	0.060278
O33	O	1.806388	1.203583	0.393611
O34	O	0.998109	0.535960	-0.401024
O35	O	1.331442	0.869293	-0.067691
O36	O	1.664775	1.202627	0.265643
O37	O	1.120903	0.689770	-0.644799
O38	O	1.454237	1.023104	-0.311465
O39	O	1.787570	1.356437	0.021868
O40	O	0.992899	0.672391	-0.503151
O41	O	1.326232	1.005724	-0.169818
O42	O	1.659566	1.339058	0.163516
O43	O	1.223100	0.566507	-0.649996
O44	O	1.556433	0.899840	-0.316663
O45	O	1.889767	1.233173	0.016671
O46	O	1.234935	0.854136	-0.413011
O47	O	1.568268	1.187469	-0.079677
O48	O	1.901602	1.520802	0.253656
O49	O	1.127637	0.853411	-0.509970
O50	O	1.460970	1.186744	-0.176637
O51	O	1.794303	1.520078	0.156696
C52	C	0.965331	0.602124	-0.450557
C53	C	1.298665	0.935458	-0.117224
C54	C	1.631998	1.268791	0.216110
C55	C	0.872902	0.595866	-0.445888
C56	C	1.206235	0.929199	-0.112554
C57	C	1.539569	1.262532	0.220779
C58	C	0.659938	0.649272	-0.485741
C59	C	0.993271	0.982606	-0.152407
C60	C	1.326605	1.315939	0.180926
C61	C	0.703678	0.584449	-0.437361
C62	C	1.037011	0.917782	-0.104028
C63	C	1.370344	1.251116	0.229305
C64	C	0.797843	0.590803	-0.442107
C65	C	1.131176	0.924137	-0.108774
C66	C	1.464509	1.257470	0.224560
C67	C	0.565764	0.642920	-0.480996
C68	C	0.899098	0.976253	-0.147663
C69	C	1.232431	1.309586	0.185670
C70	C	1.181292	0.892239	-0.461505
C71	C	1.514625	1.225573	-0.128172
C72	C	1.847958	1.558906	0.205161
C73	C	1.181327	1.010073	-0.461531
C74	C	1.514660	1.343407	-0.128198
C75	C	1.847993	1.676740	0.205135
C76	C	1.114061	1.177254	-0.522741
C77	C	1.447394	1.510588	-0.189408
C78	C	1.780727	1.843921	0.143925
C79	C	1.113758	1.054661	-0.522517
C80	C	1.447092	1.387994	-0.189184
C81	C	1.780425	1.721328	0.144150
C82	C	1.162045	1.047687	-0.372695
C83	C	1.495378	1.381020	-0.039362
C84	C	1.828711	1.714353	0.293971
C85	C	1.161620	1.170282	-0.373068
C86	C	1.494953	1.503615	-0.039734
C87	C	1.828287	1.836948	0.293599
C88	C	1.268258	1.184520	-0.488469
C89	C	1.601591	1.517853	-0.155136
C90	C	1.934925	1.851187	0.178198
C91	C	1.267635	1.061995	-0.490357
C92	C	1.600969	1.395328	-0.157024
C93	C	1.934302	1.728662	0.176310
C94	C	1.398280	0.631567	-0.472522
C95	C	1.731614	0.964900	-0.139189
C96	C	2.064947	1.298233	0.194144
C97	C	1.490708	0.637852	-0.477212
C98	C	1.824042	0.971185	-0.143879
C99	C	2.157375	1.304519	0.189455
C100	C	1.170436	0.630028	-0.678413
C101	C	1.503769	0.963361	-0.345080
C102	C	1.837103	1.296694	-0.011747
C103	C	1.165771	0.635658	-0.770841
C104	C	1.499104	0.968991	-0.437508
C105	C	1.832438	1.302324	-0.104175
C106	C	1.181469	1.340319	-0.461552
C107	C	1.514802	1.673652	-0.128219
C108	C	1.848136	2.006985	0.205115
C109	C	1.181430	1.222487	-0.461571
C110	C	1.514763	1.555821	-0.128237
C111	C	1.848097	1.889154	0.205096
C112	C	1.157223	0.645911	-0.940067
C113	C	1.490556	0.979244	-0.606733
C114	C	1.823889	1.312577	-0.273400
C115	C	1.205709	0.587416	-0.983830
C116	C	1.539042	0.920749	-0.650496
C117	C	1.872376	1.254082	-0.317163
C118	C	1.200953	0.593120	-1.077993
C119	C	1.534286	0.926454	-0.744659
C120	C	1.867619	1.259787	-0.411326
C121	C	1.161978	0.640207	-0.845895
C122	C	1.495311	0.973541	-0.512562
C123	C	1.828645	1.306874	-0.179229
C124	C	1.192337	0.603583	-0.245469
C125	C	1.525670	0.936916	0.087864
C126	C	1.859004	1.270250	0.421198
C127	C	1.197163	0.597666	-0.153050
C128	C	1.530497	0.930999	0.180283
C129	C	1.863830	1.264332	0.513617
H130	H	0.693209	0.709538	-0.530719
H131	H	1.026543	1.042871	-0.197386
H132	H	1.359876	1.376204	0.135947
F133	F	1.078832	1.200557	-0.343960
F134	F	1.412165	1.533890	-0.010627
F135	F	1.745498	1.867223	0.322706
F136	F	1.264650	0.516376	-0.940370
F137	F	1.597983	0.849710	-0.607037
F138	F	1.931317	1.183043	-0.273703
F139	F	1.029513	1.009466	-0.498769
F140	F	1.362846	1.342799	-0.165435
F141	F	1.696180	1.676133	0.167898
F142	F	1.223281	1.209037	-0.311146
F143	F	1.556615	1.542371	0.022187
F144	F	1.889948	1.875704	0.355520
H145	H	1.209761	1.018577	-0.325677
H146	H	1.543095	1.351911	0.007656
H147	H	1.876428	1.685244	0.340989
F148	F	1.128951	1.222226	-0.608930
F149	F	1.462284	1.555559	-0.275597
F150	F	1.795618	1.888893	0.057737
F151	F	0.660190	0.505675	-0.378562
F152	F	0.993523	0.839008	-0.045229
F153	F	1.326856	1.172342	0.288105
H154	H	1.099400	1.011569	-0.350116
H155	H	1.432733	1.344902	-0.016783
H156	H	1.766067	1.678236	0.316551
F157	F	1.336245	1.022905	-0.436830
F158	F	1.669578	1.356239	-0.103497
F159	F	2.002911	1.689572	0.229836
F160	F	1.333795	1.222908	-0.430316
F161	F	1.667128	1.556241	-0.096983
F162	F	2.000461	1.889574	0.236350
F163	F	1.128852	1.021766	-0.608434
F164	F	1.462185	1.355099	-0.275100
F165	F	1.795519	1.688433	0.058233
H166	H	1.049999	1.202855	-0.504781
H167	H	1.383332	1.536189	-0.171447
H168	H	1.716666	1.869522	0.161886
F169	F	1.292375	1.231785	-0.572008
F170	F	1.625708	1.565119	-0.238675
F171	F	1.959041	1.898452	0.094658
F172	F	1.286750	1.030648	-0.575841
F173	F	1.620083	1.363981	-0.242507
F174	F	1.953416	1.697315	0.090826
H175	H	1.112145	0.700271	-0.973317
H176	H	1.445478	1.033605	-0.639983
H177	H	1.778811	1.366938	-0.306650
