data_functionalizedCrystal
_audit_creation_method	'MofGen! by Chris Wilmer'
_symmetry_space_group_name_H-M	'P1'
_symmetry_Int_Tables_number	1
_symmetry_cell_setting	triclinic
loop_
_symmetry_equiv_pos_as_xyz
  x,y,z
_cell_length_a	19.288864
_cell_length_b	16.109301
_cell_length_c	18.366186
_cell_angle_alpha	89.992337
_cell_angle_beta	89.977106
_cell_angle_gamma	83.298863
loop_
_atom_site_label
_atom_site_type_symbol
_atom_site_fract_x
_atom_site_fract_y
_atom_site_fract_z
O1	O	0.921600	0.103716	-0.060785
O2	O	0.719373	0.117707	-0.060736
O3	O	0.826042	-0.010339	-0.060755
O4	O	0.814931	0.231761	-0.060767
O5	O	0.826024	-0.010345	0.060345
O6	O	0.719355	0.117701	0.060363
O7	O	0.921582	0.103710	0.060314
Zn8	Zn	0.820466	0.110704	0.079566
Zn9	Zn	0.820490	0.110712	-0.079988
O10	O	0.814913	0.231755	0.060333
C11	C	0.693487	0.117254	-0.000180
C12	C	0.616380	0.115902	-0.000161
C13	C	0.571863	0.191034	-0.000176
C14	C	0.499413	0.189764	-0.000184
C15	C	0.471483	0.113359	-0.000191
C16	C	0.516009	0.038218	-0.000172
C17	C	0.588458	0.039489	-0.000157
C18	C	0.363084	0.053298	-0.042639
C19	C	0.290636	0.052029	-0.042659
C20	C	0.248028	0.109433	-0.000235
C21	C	0.277874	0.168120	0.042199
C22	C	0.350323	0.169391	0.042214
C23	C	0.392925	0.111971	-0.000207
C24	C	0.124952	0.183193	-0.000258
C25	C	0.052501	0.181920	-0.000262
C26	C	0.069099	0.030372	-0.000257
C27	C	0.141548	0.031647	-0.000246
C28	C	0.169470	0.108060	-0.000250
C29	C	0.825583	-0.041315	-0.000205
C30	C	0.824234	-0.133606	-0.000203
C31	C	0.884391	-0.356084	-0.000229
C32	C	0.883118	-0.442800	-0.000235
C33	C	0.756559	-0.422493	-0.000201
C34	C	0.757833	-0.335778	-0.000201
C35	C	0.821751	-0.302577	-0.000211
C36	C	0.819204	-0.476007	-0.000217
C37	C	0.817823	-0.570028	-0.000223
C38	C	0.823133	-0.208549	-0.000206
C39	C	0.947469	0.104163	-0.000244
C40	C	1.024576	0.105514	-0.000268
C41	C	0.815372	0.262732	-0.000219
C42	C	0.816722	0.355022	-0.000225
N43	N	0.820455	0.110698	0.188457
N44	N	0.820506	0.110712	-0.188879
C45	C	0.867703	0.054027	0.226549
C46	C	0.867707	0.054023	0.302777
C47	C	0.820470	0.110705	0.340910
C48	C	0.773213	0.167380	0.302808
C49	C	0.773205	0.167377	0.226582
C50	C	0.811353	0.186459	0.461668
C51	C	0.811365	0.186463	0.537893
C52	C	0.820490	0.110715	0.576017
C53	C	0.829616	0.034960	0.537908
C54	C	0.829609	0.034956	0.461681
C55	C	0.820473	0.110715	0.423564
C56	C	0.867746	0.054036	0.696764
C57	C	0.867745	0.054031	0.772993
C58	C	0.773254	0.167395	0.773023
C59	C	0.773251	0.167392	0.696796
C60	C	0.820500	0.110714	0.658671
H61	H	0.374621	0.217173	0.076768
H62	H	0.704519	-0.449537	-0.000191
H63	H	0.706821	-0.292210	-0.000188
O64	O	0.488915	-0.036024	-0.000053
C65	C	0.511642	-0.081822	0.062662
H66	H	0.526676	-0.037141	0.106503
H67	H	0.467748	-0.117030	0.083702
H68	H	0.558878	-0.128328	0.048495
O69	O	0.404536	-0.002352	-0.083898
C70	C	0.441771	0.041192	-0.134484
H71	H	0.445400	0.107204	-0.113659
H72	H	0.496553	0.007117	-0.141625
H73	H	0.413470	0.044463	-0.189074
O74	O	0.913621	-0.001115	0.189629
C75	C	0.955336	-0.051122	0.239602
H76	H	0.926866	-0.051969	0.293955
H77	H	0.965949	-0.117554	0.217586
H78	H	1.006925	-0.024281	0.247675
O79	O	0.946539	-0.323969	-0.000281
C80	C	1.001553	-0.389795	-0.000282
H81	H	0.982094	-0.448628	-0.023201
H82	H	1.046180	-0.371839	-0.035457
H83	H	1.020872	-0.402148	0.057808
H84	H	0.934126	-0.486363	-0.000251
H85	H	0.734750	0.213530	0.333860
O86	O	0.041945	-0.043829	-0.000394
C87	C	0.000555	-0.049087	-0.063111
H88	H	0.017701	-0.005702	-0.106944
H89	H	0.007085	-0.116116	-0.084162
H90	H	-0.056590	-0.029698	-0.048942
H91	H	0.624704	-0.021694	-0.000145
O92	O	0.184697	-0.041414	-0.000272
C93	C	0.144513	-0.109125	-0.000261
H94	H	0.090449	-0.087818	-0.023199
H95	H	0.171269	-0.161750	-0.035413
H96	H	0.139327	-0.132562	0.057836
H97	H	0.906184	0.007874	0.333797
H98	H	0.803910	0.248146	0.430633
O99	O	0.727337	0.222355	0.189463
C100	C	0.737476	0.210217	0.114008
H101	H	0.763450	0.144035	0.103593
H102	H	0.684875	0.219630	0.085059
H103	H	0.772300	0.257168	0.092356
H104	H	0.266341	0.004247	-0.077214
H105	H	0.594592	0.253255	-0.000181
O106	O	0.838445	-0.038702	0.424774
C107	C	0.846520	-0.105563	0.474761
H108	H	0.822103	-0.084087	0.529110
H109	H	0.819540	-0.159657	0.452758
H110	H	0.904443	-0.127010	0.482837
H111	H	0.837046	-0.026722	0.568947
O112	O	0.236569	0.224065	0.083319
C113	C	0.245457	0.305910	0.061028
H114	H	0.265549	0.304550	0.002609
H115	H	0.193272	0.347027	0.064146
H116	H	0.284736	0.332335	0.098303
H117	H	0.906217	0.007882	0.665722
H118	H	0.906218	0.007878	0.804009
H119	H	0.147687	0.245413	-0.000251
O120	O	0.727299	0.222487	0.809944
C121	C	0.685609	0.272526	0.759971
H122	H	0.684829	0.238439	0.705640
H123	H	0.630140	0.285380	0.782022
H124	H	0.708144	0.334221	0.751844
O125	O	0.727293	0.222338	0.659754
C126	C	0.684463	0.177945	0.615674
H127	H	0.683304	0.112382	0.638657
H128	H	0.629251	0.212040	0.614829
H129	H	0.706200	0.173517	0.557895
O130	O	0.456258	0.262826	-0.000237
C131	C	0.496438	0.330541	-0.000218
H132	H	0.550530	0.309236	-0.023126
H133	H	0.469722	0.383161	-0.035393
H134	H	0.501552	0.353984	0.057877
O135	O	0.009353	0.254984	-0.000307
C136	C	0.049538	0.322695	-0.000289
H137	H	0.103626	0.301387	-0.023206
H138	H	0.022819	0.375320	-0.035456
H139	H	0.054661	0.346131	0.057807
O140	O	0.802462	0.260122	0.574796
C141	C	0.794414	0.326978	0.524803
H142	H	0.775332	0.304036	0.470481
H143	H	0.754678	0.378836	0.546842
H144	H	0.846722	0.352123	0.516661
