data_functionalizedCrystal
_audit_creation_method	'MofGen! by Chris Wilmer'
_symmetry_space_group_name_H-M	'P1'
_symmetry_Int_Tables_number	1
_symmetry_cell_setting	triclinic
loop_
_symmetry_equiv_pos_as_xyz
  x,y,z
_cell_length_a	19.188933
_cell_length_b	17.666332
_cell_length_c	19.288862
_cell_angle_alpha	89.986024
_cell_angle_beta	96.859573
_cell_angle_gamma	90.007939
loop_
_atom_site_label
_atom_site_type_symbol
_atom_site_fract_x
_atom_site_fract_y
_atom_site_fract_z
O1	O	0.926141	0.062935	-0.086724
O2	O	1.426141	0.562935	0.413276
O3	O	0.722829	0.062944	-0.098397
O4	O	1.222829	0.562944	0.401603
O5	O	0.830361	0.062920	0.008569
O6	O	1.330361	0.562920	0.508569
O7	O	0.818610	0.062959	-0.193690
O8	O	1.318610	0.562959	0.306310
O9	O	0.830342	-0.062976	0.008575
O10	O	1.330342	0.437024	0.508575
O11	O	0.722811	-0.062953	-0.098391
O12	O	1.222811	0.437047	0.401609
O13	O	0.926123	-0.062961	-0.086719
O14	O	1.426123	0.437039	0.413281
Cu15	Cu	0.824465	-0.074452	-0.092554
Cu16	Cu	1.324465	0.425548	0.407446
Cu17	Cu	0.824487	0.074435	-0.092561
Cu18	Cu	1.324487	0.574435	0.407439
O19	O	0.818591	-0.062937	-0.193685
O20	O	1.318591	0.437063	0.306315
C21	C	0.696809	-0.000003	-0.098016
C22	C	1.196809	0.499997	0.401984
C23	C	0.619305	-0.000001	-0.096880
C24	C	1.119305	0.499999	0.403120
N25	N	0.824454	-0.179172	-0.092549
N26	N	1.324454	0.320828	0.407451
C27	C	0.066060	0.068616	-0.088780
C28	C	0.566060	0.568616	0.411220
C29	C	0.138884	0.068619	-0.089843
C30	C	0.638884	0.568619	0.410157
C31	C	0.175291	-0.000007	-0.090374
C32	C	0.675291	0.499993	0.409626
C33	C	0.138870	-0.068641	-0.089825
C34	C	0.638870	0.431359	0.410175
C35	C	0.066048	-0.068643	-0.088756
C36	C	0.566048	0.431357	0.411244
N37	N	0.284300	-0.051081	-0.131576
N38	N	0.784300	0.448919	0.368424
N39	N	0.353477	-0.051075	-0.132594
N40	N	0.853477	0.448925	0.367406
C41	C	0.394699	-0.000008	-0.093595
C42	C	0.894699	0.499992	0.406405
N43	N	0.364129	0.051065	-0.053550
N44	N	0.864129	0.551065	0.446450
N45	N	0.294945	0.051061	-0.052535
N46	N	0.794945	0.551061	0.447465
C47	C	0.254254	-0.000014	-0.091534
C48	C	0.754254	0.499986	0.408466
C49	C	0.510077	0.068625	-0.095292
C50	C	1.010077	0.568625	0.404708
C51	C	0.582903	0.068626	-0.096350
C52	C	1.082903	0.568626	0.403650
C53	C	0.582886	-0.068636	-0.096339
C54	C	1.082886	0.431364	0.403661
C55	C	0.510062	-0.068635	-0.095274
C56	C	1.010062	0.431365	0.404726
C57	C	0.473662	-0.000002	-0.094754
C58	C	0.973662	0.499998	0.405246
C59	C	0.872085	-0.218792	-0.045208
C60	C	1.372085	0.281208	0.454792
C61	C	0.872089	-0.298040	-0.045204
C62	C	1.372089	0.201960	0.454796
C63	C	0.824469	-0.337664	-0.092554
C64	C	1.324469	0.162336	0.407446
C65	C	0.776830	-0.298034	-0.139900
C66	C	1.276830	0.201966	0.360100
C67	C	0.776822	-0.218788	-0.139897
C68	C	1.276822	0.281212	0.360103
N69	N	0.815388	-0.462070	-0.154042
N70	N	1.315388	0.037930	0.345958
N71	N	0.815399	-0.537351	-0.154042
N72	N	1.315399	-0.037351	0.345958
C73	C	0.824487	-0.576428	-0.092564
C74	C	1.324487	-0.076428	0.407436
N75	N	0.833578	-0.537381	-0.031084
N76	N	1.333578	-0.037381	0.468916
N77	N	0.833571	-0.462093	-0.031084
N78	N	1.333571	0.037907	0.468916
C79	C	0.824472	-0.423593	-0.092562
C80	C	1.324472	0.076407	0.407438
C81	C	0.872125	-0.701978	-0.045215
C82	C	1.372125	-0.201978	0.454785
C83	C	0.872124	-0.781227	-0.045211
C84	C	1.372124	-0.281227	0.454789
C85	C	0.776868	-0.781219	-0.139912
C86	C	1.276868	-0.281219	0.360088
C87	C	0.776866	-0.701972	-0.139910
C88	C	1.276866	-0.201972	0.360090
C89	C	0.824498	-0.662356	-0.092563
C90	C	1.324498	-0.162356	0.407437
C91	C	0.952143	-0.000012	-0.087100
C92	C	1.452143	0.499988	0.412900
C93	C	1.029647	-0.000009	-0.088235
C94	C	1.529647	0.499991	0.411765
C95	C	0.829974	-0.000031	0.034449
C96	C	1.329974	0.499969	0.534449
C97	C	0.828840	-0.000041	0.111553
C98	C	1.328840	0.499959	0.611553
N99	N	0.824503	0.179155	-0.092561
N100	N	1.324503	0.679155	0.407439
C101	C	0.891934	-0.000050	0.156244
C102	C	1.391934	0.499950	0.656244
C103	C	0.890868	-0.000041	0.228691
C104	C	1.390868	0.499959	0.728691
C105	C	0.826705	-0.000039	0.256444
C106	C	1.326705	0.499961	0.756444
C107	C	0.763602	-0.000026	0.211743
C108	C	1.263602	0.499974	0.711743
C109	C	0.764669	-0.000028	0.139297
C110	C	1.264669	0.499972	0.639297
C111	C	0.776259	-0.044140	0.364737
C112	C	1.276259	0.455860	0.864737
C113	C	0.775194	-0.044144	0.437182
C114	C	1.275194	0.455856	0.937182
C115	C	0.823410	-0.000031	0.479890
C116	C	1.323410	0.499969	0.979890
C117	C	0.872703	0.044075	0.450146
C118	C	1.372703	0.544075	0.950146
C119	C	0.873770	0.044073	0.377700
C120	C	1.373770	0.544073	0.877700
C121	C	0.825540	-0.000037	0.334998
C122	C	1.325540	0.499963	0.834998
C123	C	0.885353	-0.000029	0.603137
C124	C	1.385353	0.499971	1.103137
C125	C	0.884285	-0.000015	0.675585
C126	C	1.384285	0.499985	1.175585
C127	C	0.757017	-0.000009	0.658636
C128	C	1.257017	0.499991	1.158636
C129	C	0.758087	-0.000015	0.586189
C130	C	1.258087	0.499985	1.086189
C131	C	0.822257	-0.000028	0.558444
C132	C	1.322257	0.499972	1.058444
C133	C	0.818980	0.000005	0.780436
C134	C	1.318980	0.500005	1.280436
C135	C	0.820121	-0.000012	0.703333
C136	C	1.320121	0.499988	1.203333
H137	H	0.036428	0.124502	-0.088354
H138	H	0.536428	0.624502	0.411646
C139	C	0.924522	-0.824809	0.006866
C140	C	1.424522	-0.324809	0.506866
H141	H	0.952891	-0.789862	0.035058
H142	H	1.452891	-0.289862	0.535058
H143	H	0.899507	-0.855738	0.035723
H144	H	1.399507	-0.355738	0.535723
H145	H	0.953505	-0.855707	-0.018059
H146	H	1.453505	-0.355707	0.481941
H147	H	0.911964	0.079995	0.484917
H148	H	1.411964	0.579995	0.984917
C149	C	0.622925	-0.144124	-0.096923
C150	C	1.122925	0.355876	0.403077
H151	H	0.671510	-0.134296	-0.097642
H152	H	1.171510	0.365704	0.402358
H153	H	0.616439	-0.172330	-0.056251
H154	H	1.116439	0.327670	0.443749
H155	H	0.605534	-0.172314	-0.137248
H156	H	1.105534	0.327686	0.362752
H157	H	0.910908	-0.669721	-0.006660
H158	H	1.410908	-0.169721	0.493340
C159	C	0.622957	0.144117	-0.096950
C160	C	1.122957	0.644117	0.403050
H161	H	0.590845	0.184989	-0.096494
H162	H	1.090845	0.684989	0.403506
H163	H	0.656817	0.146971	-0.056872
H164	H	1.156817	0.646971	0.443128
H165	H	0.645912	0.146971	-0.137868
H166	H	1.145912	0.646971	0.362132
H167	H	0.168537	0.124503	-0.090291
H168	H	0.668537	0.624503	0.409709
H169	H	0.738093	-0.813481	-0.178463
H170	H	1.238093	-0.313481	0.321537
H171	H	0.736994	-0.080066	0.329970
H172	H	1.236994	0.419934	0.829970
C173	C	0.025968	-0.144131	-0.088313
C174	C	0.525968	0.355869	0.411687
H175	H	-0.022621	-0.134302	-0.087644
H176	H	0.477379	0.365698	0.412356
H177	H	0.032498	-0.172219	-0.129027
H178	H	0.532498	0.327781	0.370973
H179	H	0.043288	-0.172440	-0.048029
H180	H	0.543288	0.327560	0.451971
C181	C	0.178914	-0.144128	-0.090413
C182	C	0.678914	0.355872	0.409587
H183	H	0.227498	-0.134299	-0.091135
H184	H	0.727498	0.365701	0.408865
H185	H	0.172432	-0.172334	-0.049740
H186	H	0.672432	0.327666	0.450260
H187	H	0.161520	-0.172318	-0.130736
H188	H	0.661520	0.327682	0.369264
H189	H	0.944186	-0.000058	0.133659
H190	H	1.444186	0.499942	0.633659
H191	H	0.738035	-0.186528	-0.178449
H192	H	1.238035	0.313472	0.321551
C193	C	0.470005	-0.144123	-0.094686
C194	C	0.970005	0.355877	0.405314
H195	H	0.502114	-0.184995	-0.095161
H196	H	1.002114	0.315005	0.404839
H197	H	0.447047	-0.146986	-0.053775
H198	H	0.947047	0.353014	0.446225
H199	H	0.436145	-0.146967	-0.134771
H200	H	0.936145	0.353033	0.365229
C201	C	0.470033	0.144117	-0.094722
C202	C	0.970033	0.644117	0.405278
H203	H	0.502153	0.184990	-0.095192
H204	H	1.002153	0.684990	0.404808
H205	H	0.436177	0.146969	-0.134805
H206	H	0.936177	0.646969	0.365195
H207	H	0.447073	0.146969	-0.053809
H208	H	0.947073	0.646969	0.446191
H209	H	0.711359	-0.000023	0.234344
H210	H	1.211359	0.499977	0.734344
C211	C	0.924470	-0.175218	0.006880
C212	C	1.424470	0.324782	0.506880
H213	H	0.952833	-0.210170	0.035080
H214	H	1.452833	0.289830	0.535080
H215	H	0.953450	-0.144285	-0.018031
H216	H	1.453450	0.355715	0.481969
H217	H	0.899439	-0.144325	0.035738
H218	H	1.399439	0.355675	0.535738
C219	C	0.695262	-0.000026	0.090135
C220	C	1.195262	0.499974	0.590135
H221	H	0.656894	-0.000027	0.117036
H222	H	1.156894	0.499973	0.617036
H223	H	0.693040	0.043874	0.061508
H224	H	1.193040	0.543874	0.561508
H225	H	0.693029	-0.043938	0.061536
H226	H	1.193029	0.456062	0.561536
C227	C	0.724479	-0.658387	-0.191994
C228	C	1.224479	-0.158387	0.308006
H229	H	0.696123	-0.693334	-0.220199
H230	H	1.196123	-0.193334	0.279801
H231	H	0.695494	-0.627487	-0.167080
H232	H	1.195494	-0.127487	0.332920
H233	H	0.749505	-0.627461	-0.220848
H234	H	1.249505	-0.127461	0.279152
H235	H	0.942249	-0.000044	0.265086
H236	H	1.442249	0.499956	0.765086
C237	C	0.924485	-0.341631	0.006872
C238	C	1.424485	0.158369	0.506872
H239	H	0.952853	-0.306687	0.035068
H240	H	1.452853	0.193313	0.535068
H241	H	0.899469	-0.372563	0.035724
H242	H	1.399469	0.127437	0.535724
H243	H	0.953469	-0.372527	-0.018054
H244	H	1.453469	0.127473	0.481946
C245	C	0.724452	-0.341617	-0.191985
C246	C	1.224452	0.158383	0.308015
H247	H	0.731282	-0.394488	-0.185212
H248	H	1.231282	0.105512	0.314788
H249	H	0.677879	-0.328647	-0.184556
H250	H	1.177879	0.171353	0.315444
H251	H	0.731889	-0.328611	-0.238326
H252	H	1.231889	0.171389	0.261674
C253	C	0.927980	0.092594	0.344982
C254	C	1.427980	0.592594	0.844982
H255	H	0.956542	0.118872	0.380788
H256	H	1.456542	0.618872	0.880788
H257	H	0.956583	0.060796	0.320479
H258	H	1.456583	0.560796	0.820479
H259	H	0.904253	0.128062	0.313501
H260	H	1.404253	0.628062	0.813501
C261	C	0.955936	-0.000035	0.572615
C262	C	1.455936	0.499965	1.072615
H263	H	0.993362	-0.000028	0.609610
H264	H	1.493362	0.499972	1.109610
H265	H	0.958992	-0.043940	0.544718
H266	H	1.458992	0.456060	1.044718
H267	H	0.959003	0.043871	0.544695
H268	H	1.459003	0.543871	1.044695
H269	H	0.935667	-0.000018	0.711973
H270	H	1.435667	0.499982	1.211973
C271	C	0.686438	-0.000004	0.689155
C272	C	1.186438	0.499996	1.189155
H273	H	0.694838	-0.000008	0.738702
H274	H	1.194838	0.499992	1.238702
H275	H	0.660474	0.043900	0.673789
H276	H	1.160474	0.543900	1.173789
H277	H	0.660462	-0.043912	0.673812
H278	H	1.160462	0.456088	1.173812
H279	H	0.706708	-0.000012	0.549800
H280	H	1.206708	0.499988	1.049800
H281	H	0.735054	-0.080053	0.461393
H282	H	1.235054	0.419947	0.961393
