data_functionalizedCrystal
_audit_creation_method	'MofGen! by Chris Wilmer'
_symmetry_space_group_name_H-M	'P1'
_symmetry_Int_Tables_number	1
_symmetry_cell_setting	triclinic
loop_
_symmetry_equiv_pos_as_xyz
  x,y,z
_cell_length_a	17.077404
_cell_length_b	29.839131
_cell_length_c	17.077396
_cell_angle_alpha	90.039567
_cell_angle_beta	90.019501
_cell_angle_gamma	90.035453
loop_
_atom_site_label
_atom_site_type_symbol
_atom_site_fract_x
_atom_site_fract_y
_atom_site_fract_z
Zn1	Zn	1.199987	-0.178851	0.443782
Zn2	Zn	1.199866	-0.253981	0.312491
Zn3	Zn	1.068719	-0.178866	0.312530
Zn4	Zn	1.068659	-0.253955	0.443714
O5	O	1.134308	-0.216413	0.378129
O6	O	1.309818	-0.188821	0.426378
O7	O	1.182444	-0.244035	0.202649
O8	O	1.086208	-0.115997	0.329986
O9	O	1.309729	-0.244020	0.329919
O10	O	1.182650	-0.115986	0.426416
O11	O	1.086091	-0.188848	0.202678
O12	O	0.958864	-0.188822	0.329920
O13	O	1.086105	-0.243974	0.553570
O14	O	0.958820	-0.243989	0.426301
O15	O	1.182592	-0.188796	0.553620
O16	O	1.182385	-0.316845	0.329853
O17	O	1.085988	-0.316825	0.426262
C18	C	0.930360	-0.216405	0.378108
C19	C	0.843110	-0.216412	0.378117
C20	C	1.134188	-0.333136	0.378063
C21	C	1.134209	-0.383070	0.378061
C22	C	0.802117	-0.245181	0.428222
C23	C	0.720137	-0.245182	0.428234
C24	C	0.679151	-0.216416	0.378138
C25	C	0.720149	-0.187644	0.328031
C26	C	0.802128	-0.187641	0.328023
C27	C	0.549279	-0.187653	0.328050
C28	C	0.467295	-0.187657	0.328056
C29	C	0.467288	-0.245194	0.428261
C30	C	0.549267	-0.245191	0.428253
C31	C	0.590260	-0.216420	0.378145
C32	C	1.184514	-0.692673	0.428412
C33	C	1.184600	-0.880346	0.428459
O34	O	1.227254	-0.904576	0.471221
N35	N	1.134441	-0.903855	0.378217
C36	C	1.084254	-0.880444	0.327962
O37	O	1.041588	-0.904746	0.285234
C38	C	1.084166	-0.692772	0.327919
C39	C	1.134333	-0.669264	0.378160
C40	C	1.234677	-0.669166	0.478649
C41	C	1.234658	-0.622250	0.478634
C42	C	1.184477	-0.598842	0.428382
C43	C	1.134314	-0.622349	0.378145
C44	C	1.033975	-0.669361	0.277669
C45	C	1.033956	-0.622440	0.277664
C46	C	1.084124	-0.598933	0.327905
C47	C	1.084114	-0.552025	0.327877
N48	N	1.134272	-0.528516	0.378120
C49	C	1.184454	-0.551924	0.428372
C50	C	1.084305	-0.978974	0.327987
C51	C	1.084328	-1.025892	0.327996
C52	C	1.184673	-1.025791	0.428495
C53	C	1.184653	-0.978872	0.428481
C54	C	1.134464	-0.955465	0.378230
C55	C	1.184411	-0.453398	0.428336
C56	C	1.184390	-0.406479	0.428314
C57	C	1.084043	-0.406584	0.327818
C58	C	1.084067	-0.453499	0.327837
C59	C	1.134253	-0.476905	0.378102
O60	O	1.041476	-0.527766	0.285144
O61	O	1.227102	-0.527613	0.471106
C62	C	1.184533	-0.739588	0.428428
C63	C	1.134371	-0.763095	0.378190
C64	C	1.084189	-0.739687	0.327938
C65	C	1.134394	-0.810013	0.378200
C66	C	1.184575	-0.833421	0.428452
C67	C	1.234733	-0.809912	0.478695
C68	C	1.234714	-0.762996	0.478680
C69	C	1.034031	-0.763197	0.277695
C70	C	1.034054	-0.810112	0.277714
C71	C	1.084236	-0.833520	0.327966
C72	C	1.339052	-0.216422	0.378152
C73	C	1.426302	-0.216425	0.378161
C74	C	1.134355	-0.216380	0.582874
C75	C	1.134376	-0.216366	0.670124
C76	C	1.134449	-0.099235	0.378213
C77	C	1.134510	-0.049300	0.378249
C78	C	1.134306	-0.216414	0.174182
C79	C	1.134438	-0.216301	0.086932
C80	C	1.184618	-0.187632	0.711141
C81	C	1.184627	-0.187617	0.793122
C82	C	1.134398	-0.216339	0.834083
C83	C	1.084150	-0.245074	0.793060
C84	C	1.084137	-0.245086	0.711081
C85	C	1.084182	-0.245047	0.963930
C86	C	1.084195	-0.245035	1.045915
C87	C	1.184672	-0.187578	1.045971
C88	C	1.184659	-0.187590	0.963992
C89	C	1.134412	-0.216326	0.922974
H90	H	0.835483	-0.268607	0.469014
C91	C	1.290219	-0.926054	0.439485
C92	C	1.239794	-0.953037	0.483712
H93	H	1.324264	-0.910109	0.473587
H94	H	1.260332	-0.905396	0.409569
H95	H	1.320270	-0.944361	0.405315
H96	H	1.209739	-0.934729	0.517879
H97	H	1.269685	-0.973698	0.513642
C98	C	1.229213	-0.162137	0.585500
C99	C	1.239830	-0.156059	0.666119
H100	H	1.263301	-0.142645	0.557709
H101	H	1.176482	-0.155563	0.572066
H102	H	1.240668	-0.192325	0.572051
H103	H	1.228370	-0.125872	0.679569
H104	H	1.292573	-0.162630	0.679559
H105	H	0.582653	-0.164220	0.287253
C106	C	0.989505	-0.882074	0.233107
C107	C	0.978902	-0.835948	0.222487
H108	H	0.955455	-0.898023	0.199014
H109	H	0.977995	-0.889739	0.285836
H110	H	1.042255	-0.889744	0.221658
H111	H	0.926154	-0.828279	0.233941
H112	H	0.990407	-0.828280	0.169746
H113	H	1.275540	-0.688220	0.519575
C114	C	1.023073	-0.569736	0.172046
C115	C	0.978786	-0.596711	0.222424
H116	H	0.989012	-0.553851	0.137947
H117	H	1.057291	-0.588037	0.142058
H118	H	1.052940	-0.549020	0.201970
H119	H	0.948923	-0.617429	0.192501
H120	H	0.944554	-0.578408	0.252415
H121	H	0.993166	-0.744141	0.236775
C122	C	0.627917	-0.181326	0.222473
C123	C	0.675098	-0.156023	0.272965
H124	H	0.600110	-0.161803	0.188474
H125	H	0.591774	-0.198457	0.252314
H126	H	0.659875	-0.200874	0.192376
H127	H	0.643140	-0.136477	0.303066
H128	H	0.711245	-0.138885	0.243120
C129	C	1.283953	-0.130832	0.784942
C130	C	1.239861	-0.156035	0.838208
H131	H	1.318056	-0.111336	0.812778
H132	H	1.249771	-0.113650	0.752976
H133	H	1.313944	-0.150419	0.752957
H134	H	1.209865	-0.136448	0.870189
H135	H	1.274047	-0.173218	0.870188
H136	H	0.686764	-0.268609	0.469034
H137	H	0.582636	-0.268617	0.469042
C138	C	1.073184	-0.305491	0.885201
C139	C	1.028936	-0.276646	0.838083
H140	H	1.039096	-0.324985	0.912991
H141	H	1.103101	-0.288376	0.921360
H142	H	1.107355	-0.322680	0.853204
H143	H	0.994769	-0.259454	0.870081
H144	H	0.999006	-0.293762	0.801920
C145	C	1.229289	-0.162030	1.171660
C146	C	1.239891	-0.155983	1.091054
H147	H	1.263374	-0.142523	1.199493
H148	H	1.240750	-0.192208	1.185078
H149	H	1.176552	-0.155453	1.185075
H150	H	1.292627	-0.162563	1.077638
H151	H	1.228435	-0.125798	1.077630
H152	H	0.433908	-0.268619	0.469064
C153	C	0.984863	-0.301824	1.037630
C154	C	1.028977	-0.276603	1.090942
H155	H	0.950771	-0.321310	1.065430
H156	H	1.019032	-0.319017	1.005649
H157	H	0.954860	-0.282247	1.005663
H158	H	1.058985	-0.296179	1.122905
H159	H	0.994804	-0.259408	1.122936
C160	C	0.927802	-0.162088	0.283521
C161	C	0.847192	-0.156018	0.272946
H162	H	0.955620	-0.142561	0.249523
H163	H	0.941199	-0.192260	0.271925
H164	H	0.941256	-0.155551	0.336288
H165	H	0.833736	-0.162558	0.220181
H166	H	0.833789	-0.125839	0.284537
C167	C	0.475531	-0.130775	0.229020
C168	C	0.422240	-0.156033	0.272996
H169	H	0.447714	-0.111250	0.195033
H170	H	0.507472	-0.150321	0.198919
H171	H	0.507538	-0.113616	0.263288
H172	H	0.390236	-0.173194	0.238728
H173	H	0.390286	-0.136484	0.303100
H174	H	1.043253	-0.268440	0.930536
C175	C	1.283576	-0.411098	0.527661
C176	C	1.239533	-0.380640	0.483547
H177	H	1.317612	-0.395147	0.561762
H178	H	1.313629	-0.429399	0.493493
H179	H	1.249354	-0.429401	0.557655
H180	H	1.273755	-0.362340	0.453548
H181	H	1.209478	-0.362332	0.517719
H182	H	1.225565	-0.164205	0.930643
C183	C	1.045826	-0.321164	0.685766
C184	C	1.028923	-0.276676	0.665984
H185	H	1.011741	-0.340665	0.657920
H186	H	1.038635	-0.325265	0.740443
H187	H	1.098562	-0.327732	0.672338
H188	H	0.976187	-0.270106	0.679418
H189	H	1.036107	-0.272572	0.611295
C190	C	1.195289	-0.506095	0.533967
C191	C	1.239576	-0.479123	0.483585
H192	H	1.229349	-0.521974	0.568074
H193	H	1.165428	-0.526811	0.504052
H194	H	1.161065	-0.487789	0.563952
H195	H	1.273797	-0.497429	0.453595
H196	H	1.269451	-0.458404	0.513503
H197	H	1.275506	-0.603113	0.519546
C198	C	1.229245	-1.097672	0.473135
C199	C	1.239828	-1.051527	0.483740
H200	H	1.263287	-1.113561	0.507246
H201	H	1.240777	-1.105376	0.420413
H202	H	1.176493	-1.105374	0.484566
H203	H	1.292578	-1.043825	0.472303
H204	H	1.228301	-1.043820	0.536474
H205	H	1.043486	-1.045028	0.287077
C206	C	0.985131	-0.983797	0.228640
C207	C	1.029141	-0.953249	0.272736
H208	H	0.951081	-0.967916	0.194526
H209	H	0.955094	-1.002094	0.262818
H210	H	1.019374	-1.002095	0.198661
H211	H	0.994898	-0.934953	0.302720
H212	H	1.059180	-0.934945	0.238554
H213	H	0.993124	-0.688492	0.236758
C214	C	0.984876	-0.448884	0.228499
C215	C	1.028925	-0.479341	0.272611
H216	H	0.950827	-0.464837	0.194413
H217	H	1.019089	-0.430587	0.198496
H218	H	0.954830	-0.430578	0.262675
H219	H	1.058975	-0.497645	0.238435
H220	H	0.994708	-0.497646	0.302616
C221	C	1.039460	-0.334703	0.283194
C222	C	1.028881	-0.380847	0.272586
H223	H	1.005398	-0.318814	0.249102
H224	H	1.092198	-0.326997	0.271745
H225	H	1.027944	-0.327002	0.335929
H226	H	1.040403	-0.388548	0.219852
H227	H	0.976131	-0.388556	0.284029
C228	C	1.340286	-0.710182	0.489684
C229	C	1.289857	-0.737162	0.533911
H230	H	1.374332	-0.694238	0.523786
H231	H	1.310402	-0.689523	0.459766
H232	H	1.370335	-0.728491	0.455515
H233	H	1.259803	-0.718853	0.568076
H234	H	1.319744	-0.757823	0.563842
H235	H	1.275595	-0.828979	0.519610
