data_functionalizedCrystal
_audit_creation_method	'MofGen! by Chris Wilmer'
_symmetry_space_group_name_H-M	'P1'
_symmetry_Int_Tables_number	1
_symmetry_cell_setting	triclinic
loop_
_symmetry_equiv_pos_as_xyz
  x,y,z
_cell_length_a	12.759401
_cell_length_b	21.295416
_cell_length_c	12.759393
_cell_angle_alpha	89.963303
_cell_angle_beta	90.018496
_cell_angle_gamma	89.969508
loop_
_atom_site_label
_atom_site_type_symbol
_atom_site_fract_x
_atom_site_fract_y
_atom_site_fract_z
Zn1	Zn	1.606141	0.250569	0.593944
Zn2	Zn	1.605988	0.355853	0.418248
Zn3	Zn	1.430443	0.250602	0.418283
Zn4	Zn	1.430384	0.355805	0.593890
O5	O	1.518239	0.303208	0.506091
O6	O	1.753142	0.264542	0.570645
O7	O	1.582662	0.341926	0.271232
O8	O	1.453839	0.162509	0.441622
O9	O	1.753029	0.341894	0.441563
O10	O	1.582924	0.162484	0.570679
O11	O	1.453690	0.264598	0.271257
O12	O	1.283414	0.264551	0.441570
O13	O	1.453738	0.341811	0.740918
O14	O	1.283371	0.341843	0.570587
O15	O	1.582866	0.264495	0.740958
O16	O	1.582604	0.443936	0.441510
O17	O	1.453589	0.443901	0.570553
C18	C	1.245272	0.303196	0.506077
C19	C	1.128495	0.303206	0.506096
C20	C	1.518102	0.466759	0.506045
C21	C	1.518140	0.536727	0.506060
C22	C	1.073638	0.343516	0.573164
C23	C	0.963914	0.343524	0.573175
C24	C	0.963914	0.262910	0.439041
C25	C	1.073636	0.262899	0.439036
C26	C	1.073637	0.390061	0.650602
C27	C	0.963913	0.390069	0.650613
C28	C	1.585378	0.569592	0.438939
C29	C	1.585427	0.635334	0.438967
C30	C	1.518220	0.668210	0.506106
C31	C	1.450977	0.635338	0.573240
C32	C	1.450937	0.569596	0.573218
N33	N	1.426313	0.771475	0.514118
N34	N	1.426355	0.833927	0.514133
C35	C	1.518339	0.866284	0.506180
N36	N	1.610282	0.833832	0.498191
N37	N	1.610240	0.771375	0.498170
C38	C	1.518257	0.739495	0.506139
C39	C	1.585636	0.970434	0.439086
C40	C	1.585688	1.036178	0.439122
C41	C	1.451228	1.036180	0.573390
C42	C	1.451186	0.970438	0.573359
C43	C	1.518389	0.937569	0.506202
C44	C	1.792272	0.303220	0.506106
C45	C	1.909049	0.303225	0.506113
C46	C	1.518313	0.303144	0.780125
C47	C	1.518344	0.303117	0.896901
C48	C	1.518406	1.139017	0.506179
C49	C	1.518481	1.069049	0.506263
C50	C	1.518226	0.303225	0.233124
C51	C	1.518398	0.303075	0.116348
C52	C	1.585590	0.262855	0.951786
C53	C	1.585615	0.262832	1.061510
C54	C	1.451145	0.343339	1.061456
C55	C	1.451115	0.343358	0.951733
C56	C	1.663229	0.216376	0.951818
C57	C	1.663254	0.216353	1.061542
H58	H	1.118297	0.230071	0.384430
H59	H	1.634161	0.170033	1.095597
H60	H	1.107630	0.436347	0.621311
H61	H	0.934095	0.438810	0.628674
H62	H	1.640184	0.662097	0.384309
H63	H	1.740493	0.233853	0.917780
H64	H	1.641483	0.167626	0.922070
C65	C	0.917987	0.366561	0.755106
H66	H	0.973461	0.356091	0.801635
H67	H	0.876102	0.330452	0.742737
H68	H	0.876075	0.398646	0.785419
H69	H	1.640360	0.943671	0.384406
H70	H	0.919234	0.230093	0.384445
C71	C	1.659309	0.533439	0.365080
H72	H	1.699368	0.562432	0.325116
H73	H	1.619135	0.507835	0.319260
H74	H	1.705054	0.507752	0.405310
H75	H	1.396259	0.662109	0.627907
C76	C	1.773160	0.233996	1.101781
H77	H	1.773174	0.233973	1.176239
H78	H	1.791286	0.274625	1.076954
H79	H	1.822822	0.204262	1.076987
C80	C	1.113922	0.372493	0.760570
H81	H	1.056031	0.365269	0.805798
H82	H	1.155272	0.405874	0.787501
H83	H	1.155303	0.335487	0.756250
H84	H	1.396183	0.542838	0.627877
C85	C	1.659653	1.072329	0.365283
H86	H	1.699660	1.043335	0.325280
H87	H	1.705429	1.097929	0.405516
H88	H	1.619493	1.098020	0.319483
H89	H	1.396511	1.062947	0.628060
H90	H	1.396430	0.943678	0.628012
H91	H	1.396353	0.376142	0.907051
C92	C	1.377208	0.387606	1.121774
H93	H	1.386859	0.381831	1.194982
H94	H	1.306622	0.378395	1.103792
H95	H	1.392545	0.429907	1.103769
