data_functionalizedCrystal
_audit_creation_method	'MofGen! by Chris Wilmer'
_symmetry_space_group_name_H-M	'P1'
_symmetry_Int_Tables_number	1
_symmetry_cell_setting	triclinic
loop_
_symmetry_equiv_pos_as_xyz
  x,y,z
_cell_length_a	31.640172
_cell_length_b	19.902436
_cell_length_c	19.902436
_cell_angle_alpha	90.000813
_cell_angle_beta	119.991281
_cell_angle_gamma	59.996325
loop_
_atom_site_label
_atom_site_type_symbol
_atom_site_fract_x
_atom_site_fract_y
_atom_site_fract_z
Zr1	Zr	0.462648	-0.088263	-0.647329
O2	O	0.550814	-0.195539	-0.540057
O3	O	0.374482	-0.055378	-0.680200
O4	O	0.462659	-0.195560	-0.680203
O5	O	0.462628	0.055222	-0.540067
O6	O	0.462668	-0.195575	-0.790768
O7	O	0.462636	-0.055357	-0.540054
O8	O	0.304935	0.055184	-0.790763
O9	O	0.620361	-0.195537	-0.540072
O10	O	0.410753	-0.041364	-0.776749
O11	O	0.410740	0.041171	-0.694245
O12	O	0.514557	-0.123874	-0.694249
O13	O	0.514544	-0.041339	-0.611745
Zr14	Zr	0.462650	0.088073	-0.823688
Zr15	Zr	0.462663	-0.088288	-0.823667
Zr16	Zr	0.462635	0.088097	-0.647350
Zr17	Zr	0.573568	-0.088261	-0.647353
Zr18	Zr	0.351730	0.088071	-0.823664
O19	O	0.550817	0.055188	-0.790816
O20	O	0.550835	-0.195574	-0.790787
O21	O	0.550795	0.055223	-0.540086
O22	O	0.374485	0.195348	-0.930960
O23	O	0.374503	-0.055414	-0.930930
O24	O	0.374463	0.195383	-0.680230
O25	O	0.462670	-0.055412	-0.930949
O26	O	0.462639	0.195369	-0.790814
O27	O	0.462630	0.195385	-0.680249
O28	O	0.462662	0.055167	-0.930962
O29	O	0.620373	-0.195557	-0.680237
O30	O	0.304925	0.195367	-0.790779
O31	O	0.304937	0.195347	-0.930944
O32	O	0.304947	0.055164	-0.930928
O33	O	0.620351	-0.055354	-0.540089
O34	O	0.620363	-0.055374	-0.680254
O35	O	0.410741	0.123684	-0.776768
O36	O	0.410754	0.041148	-0.859272
O37	O	0.514558	-0.041362	-0.776771
O38	O	0.514545	0.041173	-0.694268
C39	C	0.323905	-0.000098	-0.735478
C40	C	0.276816	-0.000099	-0.735468
C41	C	0.462630	-0.000064	-0.514936
C42	C	0.462624	-0.000054	-0.440076
C43	C	0.462633	0.220505	-0.735534
C44	C	0.462627	0.295374	-0.735543
C45	C	-0.015219	-0.043170	-0.778591
C46	C	-0.192215	-0.043170	-0.778608
O47	O	-0.215113	-0.079780	-0.815264
N48	N	-0.214350	-0.000089	-0.735541
C49	C	-0.192238	0.042999	-0.692471
O50	O	-0.215131	0.079649	-0.655847
C51	C	-0.015246	0.043003	-0.692459
C52	C	0.006892	-0.000087	-0.735522
C53	C	0.006919	-0.086257	-0.821651
C54	C	0.051167	-0.086260	-0.821643
C55	C	0.073278	-0.043177	-0.778574
C56	C	0.051141	-0.000091	-0.735514
C57	C	0.006863	0.086096	-0.649395
C58	C	0.051113	0.086095	-0.649397
C59	C	0.073251	0.043004	-0.692460
C60	C	0.117501	0.042989	-0.692437
N61	N	0.139636	-0.000092	-0.735504
C62	C	0.117525	-0.043175	-0.778573
C63	C	-0.285160	0.042993	-0.692479
C64	C	-0.329407	0.042991	-0.692480
C65	C	-0.329382	-0.043177	-0.778619
C66	C	-0.285131	-0.043179	-0.778612
C67	C	-0.263024	-0.000088	-0.735546
C68	C	0.210451	-0.043179	-0.778551
C69	C	0.254705	-0.043182	-0.778536
C70	C	0.254674	0.042990	-0.692402
C71	C	0.210426	0.042989	-0.692413
C72	C	0.188314	-0.000097	-0.735494
O73	O	0.140422	0.079588	-0.655808
O74	O	0.140417	-0.079804	-0.815206
C75	C	-0.059467	-0.043167	-0.778599
C76	C	-0.081605	-0.000081	-0.735539
C77	C	-0.059494	0.043002	-0.692470
C78	C	-0.125852	-0.000083	-0.735541
C79	C	-0.147963	-0.043166	-0.778609
C80	C	-0.125827	-0.086247	-0.821676
C81	C	-0.081578	-0.086250	-0.821668
C82	C	-0.081630	0.086083	-0.649403
C83	C	-0.125878	0.086082	-0.649414
C84	C	-0.147989	0.042999	-0.692483
C85	C	0.601393	-0.000093	-0.735539
C86	C	0.648482	-0.000092	-0.735549
C87	C	0.462665	-0.220695	-0.735482
C88	C	0.462671	-0.295565	-0.735474
C89	C	0.462657	0.567376	-0.735497
C90	C	0.397175	0.590935	-0.787292
C91	C	0.397134	0.513097	-0.787583
C92	C	0.462642	0.432433	-0.735520
C93	C	0.495167	0.434845	-0.773482
C94	C	0.494748	0.513073	-0.773861
C95	C	0.496082	0.512092	-0.645718
C96	C	0.494851	0.435171	-0.645860
C97	C	0.462637	0.356166	-0.735532
C98	C	0.462664	0.643642	-0.735488
C99	C	0.462631	-0.000072	-0.303001
C100	C	0.397153	0.051974	-0.326524
C101	C	0.397125	0.051736	-0.248676
C102	C	0.462636	-0.000089	-0.168041
C103	C	0.495347	-0.089778	-0.170324
C104	C	0.494917	-0.089483	-0.248561
C105	C	0.495871	0.036845	-0.247877
C106	C	0.494650	0.038647	-0.170948
C107	C	0.462643	-0.000103	-0.091765
C108	C	0.462626	-0.000064	-0.379275
C109	C	0.462660	-0.000119	0.043913
C110	C	0.462643	-0.000107	-0.030965
C111	C	0.323924	-0.000129	-0.956050
C112	C	0.276842	-0.000140	-1.030900
C113	C	0.323888	0.220502	-0.735504
C114	C	0.276794	0.295371	-0.735502
C115	C	0.323907	0.220471	-0.956076
C116	C	0.276820	0.295329	-1.030935
C117	C	0.601391	-0.220662	-0.514941
C118	C	0.648479	-0.295520	-0.440082
C119	C	0.601375	-0.000062	-0.514967
C120	C	0.648457	-0.000050	-0.440117
C121	C	0.601410	-0.220693	-0.735513
C122	C	0.648504	-0.295562	-0.735514
C123	C	0.254731	-0.043223	-1.022974
C124	C	0.210498	-0.043251	-1.093297
C125	C	0.188374	-0.000189	-1.171544
C126	C	0.210489	0.042895	-1.179469
C127	C	0.254724	0.042917	-1.109147
C128	C	0.254679	0.373608	-0.778578
C129	C	0.210435	0.443962	-0.778573
C130	C	0.188305	0.436077	-0.735498
C131	C	0.210425	0.357832	-0.692417
C132	C	0.254670	0.287480	-0.692417
C133	C	0.254714	0.287401	-1.109162
C134	C	0.210476	0.357732	-1.179507
C135	C	0.188342	0.435990	-1.171622
C136	C	0.210452	0.443917	-1.093386
C137	C	0.254692	0.373587	-1.023043
C138	C	0.670590	-0.287592	-0.361854
C139	C	0.714841	-0.357922	-0.291510
C140	C	0.736978	-0.436180	-0.299395
C141	C	0.714864	-0.444107	-0.377631
C142	C	0.670617	-0.373777	-0.447974
C143	C	0.670572	0.043026	-0.448043
C144	C	0.714817	0.043033	-0.377720
C145	C	0.736942	-0.000031	-0.299472
C146	C	0.714825	-0.043112	-0.291548
C147	C	0.670584	-0.043124	-0.361870
C148	C	0.670620	-0.287650	-0.778598
C149	C	0.714864	-0.357991	-0.778616
C150	C	0.736994	-0.436242	-0.735544
C151	C	0.714873	-0.444151	-0.692459
C152	C	0.670627	-0.373812	-0.692446
H153	H	0.272730	-0.078274	-0.813603
Br154	Br	0.354341	0.516053	-0.897969
H155	H	0.732894	-0.507833	-0.384042
H156	H	0.472912	-0.119522	-0.168642
Br157	Br	0.574291	-0.017924	-0.075236
H158	H	0.371593	0.026109	-0.250329
Br159	Br	0.180456	0.101335	-1.285669
H160	H	0.652614	-0.380242	-0.511668
Br161	Br	0.640556	0.101474	-0.554227
H162	H	0.772966	-0.000014	-0.242218
H163	H	0.272729	0.223686	-1.115598
Br164	Br	0.284748	-0.101674	-0.916790
H165	H	0.471135	0.435551	-0.617501
Br166	Br	0.640622	-0.384563	-0.633962
Br167	Br	0.284723	0.101398	-1.119918
Br168	Br	0.180383	0.347145	-0.633961
Br169	Br	0.744858	-0.101549	-0.185348
H170	H	0.192452	-0.078263	-0.813633
H171	H	0.652569	-0.223876	-0.355418
H172	H	0.069188	-0.121345	-0.856711
H173	H	0.652579	-0.078199	-0.355405
Br174	Br	0.574820	0.480843	-0.715072
H175	H	0.732817	0.078118	-0.384188
Br176	Br	0.180477	0.346954	-1.285673
Br177	Br	0.284676	0.181303	-0.633955
H178	H	0.652609	-0.223941	-0.813672
Br179	Br	0.128301	0.531431	-1.267096
H180	H	-0.011082	-0.121339	-0.856727
Br181	Br	-0.255091	-0.101661	-0.837057
H182	H	-0.063557	-0.121338	-0.856734
Br183	Br	0.284701	0.384332	-0.837049
Br184	Br	0.744878	-0.347237	-0.837089
H185	H	0.773022	-0.493510	-0.735560
H186	H	0.192431	0.507666	-0.813658
H187	H	0.192497	-0.078335	-1.086829
H188	H	-0.347391	-0.078258	-0.813686
Br189	Br	0.284685	0.384362	-0.916879
H190	H	-0.143895	0.121169	-0.614339
H191	H	-0.347421	0.078069	-0.657403
H192	H	0.732838	-0.351452	-0.227814
Br193	Br	0.128256	0.531565	-0.735506
Br194	Br	0.180407	0.550131	-1.082698
H195	H	0.472586	0.433289	-0.838921
H196	H	0.773007	-0.493441	-0.242111
H197	H	0.732898	-0.507873	-0.657391
H198	H	-0.267165	0.078086	-0.657408
H199	H	0.069111	0.121185	-0.614326
Br200	Br	0.180389	0.101455	-0.633956
Br201	Br	-0.023171	0.144581	-0.590949
Br202	Br	0.575644	-0.157258	-0.075671
Br203	Br	0.284691	0.101456	-0.633954
H204	H	-0.143835	-0.121330	-0.856741
H205	H	0.371615	0.514271	-0.762123
Br206	Br	0.354324	0.656224	-0.745072
Br207	Br	0.456640	-0.138709	-0.309262
Br208	Br	0.354550	0.657455	-0.897008
H209	H	0.471642	0.549611	-0.839926
Br210	Br	0.575448	0.340166	-0.713635
H211	H	-0.063633	0.121170	-0.614333
H212	H	0.475121	0.548403	-0.614007
H213	H	0.542643	0.377719	-0.604022
Br214	Br	0.354371	0.161799	-0.250780
Br215	Br	0.576484	0.478889	-0.581096
Br216	Br	0.354071	0.162334	-0.391968
H217	H	0.542969	-0.130313	-0.229236
Br218	Br	0.354755	0.009664	-0.392829
H219	H	0.470795	0.104726	-0.171426
Br220	Br	0.576263	-0.026024	-0.214730
Br221	Br	0.460688	0.145299	-0.308569
Br222	Br	0.128340	-0.000227	-1.266974
