data_functionalizedCrystal
_audit_creation_method	'MofGen! by Chris Wilmer'
_symmetry_space_group_name_H-M	'P1'
_symmetry_Int_Tables_number	1
_symmetry_cell_setting	triclinic
loop_
_symmetry_equiv_pos_as_xyz
  x,y,z
_cell_length_a	18.215407
_cell_length_b	8.497374
_cell_length_c	18.215405
_cell_angle_alpha	89.985971
_cell_angle_beta	90.020505
_cell_angle_gamma	89.998354
loop_
_atom_site_label
_atom_site_type_symbol
_atom_site_fract_x
_atom_site_fract_y
_atom_site_fract_z
Zn1	Zn	-1.124955	0.891892	0.293198
Zn2	Zn	-1.124898	0.628069	0.416234
Zn3	Zn	-1.001922	0.628119	0.293176
Zn4	Zn	-1.001853	0.891800	0.416218
O5	O	-1.063407	0.759970	0.354706
O6	O	-1.227931	0.856912	0.309535
O7	O	-1.108590	0.407313	0.399907
O8	O	-1.018295	0.663169	0.190195
O9	O	-1.227890	0.663082	0.399928
O10	O	-1.108687	0.856961	0.190211
O11	O	-1.018240	0.407350	0.309497
O12	O	-0.898929	0.663080	0.309482
O13	O	-1.018178	1.112575	0.399901
O14	O	-0.898878	0.856806	0.399880
O15	O	-1.108620	1.112642	0.309519
O16	O	-1.108523	0.662994	0.519216
O17	O	-1.018123	0.856756	0.519204
C18	C	-0.872201	0.759939	0.354678
C19	C	-0.790402	0.759964	0.354683
C20	C	-0.602229	0.861047	0.307706
C21	C	-0.525370	0.861052	0.307710
C22	C	-0.525337	0.658905	0.401696
C23	C	-0.602195	0.658894	0.401687
C24	C	-0.640638	0.759974	0.354694
C25	C	-0.486922	0.759989	0.354706
C26	C	-0.403589	0.759993	0.354710
C27	C	-0.723977	0.759969	0.354688
C28	C	-0.255360	0.759998	0.354728
C29	C	-0.337159	0.760000	0.354716
C30	C	-1.063401	1.171450	0.354707
C31	C	-1.063403	1.350094	0.354715
C32	C	-1.063329	0.759894	0.545913
C33	C	-1.063363	0.759914	0.627712
C34	C	-1.063505	0.760081	0.162753
C35	C	-1.063547	0.760128	0.080955
C36	C	-1.110545	0.659208	0.815887
C37	C	-1.110578	0.659246	0.892746
C38	C	-1.016363	0.860846	0.892774
C39	C	-1.016334	0.860814	0.815916
C40	C	-1.063424	0.759986	0.777475
C41	C	-1.063486	0.760056	0.931191
C42	C	-1.063521	0.760098	1.014525
C43	C	-1.063390	0.759946	0.694136
H44	H	-0.494027	0.576611	0.439957
F45	F	-0.966248	0.968144	0.933692
F46	F	-0.966182	0.968089	0.775033
H47	H	-0.633527	0.943348	0.269438
H48	H	-0.494100	0.943353	0.269446
F49	F	-0.643075	0.551299	0.451695
F50	F	-1.160664	0.551901	0.774978
F51	F	-1.160733	0.551988	0.933623
