data_functionalizedCrystal
_audit_creation_method	'MofGen! by Chris Wilmer'
_symmetry_space_group_name_H-M	'P1'
_symmetry_Int_Tables_number	1
_symmetry_cell_setting	triclinic
loop_
_symmetry_equiv_pos_as_xyz
  x,y,z
_cell_length_a	11.026660
_cell_length_b	14.044220
_cell_length_c	9.482900
_cell_angle_alpha	79.811199
_cell_angle_beta	101.363893
_cell_angle_gamma	100.886856
loop_
_atom_site_label
_atom_site_type_symbol
_atom_site_fract_x
_atom_site_fract_y
_atom_site_fract_z
O1	O	1.671564	0.392546	0.120923
O2	O	1.313275	0.346500	0.120921
O3	O	1.487039	0.230622	0.120908
O4	O	1.497799	0.508424	0.120936
O5	O	1.451757	0.254281	-0.120882
O6	O	1.277993	0.370159	-0.120869
O7	O	1.636281	0.416204	-0.120867
Cu8	Cu	1.453915	0.395342	-0.142945
Cu9	Cu	1.495641	0.367363	0.142999
O10	O	1.462517	0.532082	-0.120853
C11	C	1.249504	0.349835	0.000026
C12	C	1.112049	0.324512	0.000025
C13	C	0.903747	0.368269	0.000034
C14	C	1.045813	0.394444	0.000033
C15	C	1.464690	0.206334	0.000012
C16	C	1.450646	0.098712	0.000010
C17	C	1.424974	-0.098332	0.000031
C18	C	1.524579	-0.138971	0.000036
C19	C	1.510294	-0.248613	0.000047
C20	C	1.439256	0.011319	0.000019
C21	C	1.700053	0.412869	0.000032
C22	C	1.837509	0.438191	0.000042
C23	C	1.484867	0.556370	0.000045
C24	C	1.498912	0.663991	0.000057
N25	N	1.424577	0.415021	-0.344063
C26	C	1.486978	0.373161	-0.416267
C27	C	1.462578	0.389544	-0.583683
N28	N	1.524988	0.347677	0.344117
H29	H	1.094274	0.473690	0.000032
N30	N	1.047872	0.219541	0.000002
H31	H	0.955482	0.215719	0.000002
H32	H	1.085742	0.177576	0.089632
N33	N	0.901690	0.543159	0.000041
H34	H	0.994080	0.546978	0.000038
H35	H	0.889982	0.567583	0.089679
N36	N	1.651748	-0.075993	0.000029
H37	H	1.644062	-0.005461	0.000019
H38	H	1.685035	-0.081481	-0.089608
N39	N	0.839561	0.263305	0.000000
H40	H	0.747171	0.259486	-0.000004
H41	H	0.877426	0.221335	0.089627
N42	N	1.297813	-0.161309	0.000032
H43	H	1.305506	-0.231839	0.000036
H44	H	1.238362	-0.138298	-0.089610
N45	N	1.581642	0.309592	-0.333993
H46	H	1.585640	0.306887	-0.226059
H47	H	1.666770	0.338128	-0.360480
H48	H	1.391080	0.437509	-0.645801
N49	N	1.619697	0.284141	-0.573612
H50	H	1.657988	0.258459	-0.644801
H51	H	1.576749	0.227291	-0.510475
N52	N	1.329871	0.478553	-0.426337
H53	H	1.325862	0.481248	-0.534271
H54	H	1.355655	0.546912	-0.399801
