data_functionalizedCrystal
_audit_creation_method	'MofGen! by Chris Wilmer'
_symmetry_space_group_name_H-M	'P1'
_symmetry_Int_Tables_number	1
_symmetry_cell_setting	triclinic
loop_
_symmetry_equiv_pos_as_xyz
  x,y,z
_cell_length_a	10.686220
_cell_length_b	10.685194
_cell_length_c	18.215399
_cell_angle_alpha	94.396576
_cell_angle_beta	85.649066
_cell_angle_gamma	99.069920
loop_
_atom_site_label
_atom_site_type_symbol
_atom_site_fract_x
_atom_site_fract_y
_atom_site_fract_z
Zn1	Zn	1.901832	-0.356306	0.315202
Zn2	Zn	1.885466	-0.568606	0.183377
Zn3	Zn	1.689574	-0.372653	0.200904
Zn4	Zn	1.673315	-0.584833	0.315157
O5	O	1.787547	-0.470600	0.253660
O6	O	2.077278	-0.370835	0.290399
O7	O	1.859435	-0.542662	0.082718
O8	O	1.731384	-0.192838	0.223419
O9	O	2.065253	-0.526811	0.193548
O10	O	1.887330	-0.180828	0.307394
O11	O	1.715514	-0.398697	0.095594
O12	O	1.509800	-0.414432	0.223376
O13	O	1.703673	-0.554468	0.418148
O14	O	1.497855	-0.570320	0.307318
O15	O	1.871564	-0.386570	0.418181
O16	O	1.843669	-0.748405	0.193505
O17	O	1.687803	-0.760327	0.290323
C18	C	1.457774	-0.495912	0.267244
C19	C	1.316693	-0.506771	0.273072
C20	C	1.762231	-0.800425	0.240022
C21	C	1.751516	-0.941517	0.234207
C22	C	2.118607	-0.445190	0.240023
C23	C	2.259686	-0.434361	0.234212
C24	C	1.787631	-0.470506	0.445614
C25	C	1.787666	-0.470466	0.527413
C26	C	1.812996	-0.139484	0.267367
C27	C	1.823841	0.001618	0.273207
C28	C	1.787543	-0.470595	0.062454
C29	C	1.787780	-0.470259	-0.019340
C30	C	1.875122	-0.382964	0.715627
C31	C	1.875140	-0.382925	0.792487
C32	C	1.700316	-0.557766	0.792441
C33	C	1.700293	-0.557797	0.715583
C34	C	1.787703	-0.470397	0.677178
C35	C	1.787744	-0.470328	0.830895
C36	C	1.787763	-0.470287	0.914230
C37	C	1.787683	-0.470436	0.593838
H38	H	1.257569	-0.577073	0.310798
H39	H	1.318816	-0.364063	0.196478
H40	H	1.893960	-0.939128	0.311050
C41	C	1.656774	-1.021563	0.183084
C42	C	1.668570	-1.002736	0.099731
C43	C	1.573830	-1.082782	0.048609
C44	C	1.467294	-1.181655	0.080840
C45	C	1.455495	-1.200486	0.164197
C46	C	1.550235	-1.120440	0.215319
H47	H	1.747437	-0.929540	0.075868
H48	H	1.582565	-1.068841	-0.013097
H49	H	1.397162	-1.240910	0.042996
H50	H	1.376627	-1.273682	0.188059
H51	H	1.541499	-1.134381	0.277025
H52	H	1.946294	-0.311794	0.684360
C53	C	1.604186	-0.653911	0.834693
C54	C	1.651565	-0.749325	0.881136
C55	C	1.555441	-0.845475	0.923389
C56	C	1.411938	-0.846212	0.919200
C57	C	1.364552	-0.750794	0.872755
C58	C	1.460676	-0.654644	0.830502
H59	H	1.757801	-0.748782	0.884239
H60	H	1.590520	-0.916109	0.957771
H61	H	1.340781	-0.917388	0.950478
H62	H	1.258316	-0.751337	0.869652
H63	H	1.425597	-0.584010	0.796120
H64	H	1.629097	-0.628996	0.684277
H65	H	1.946324	-0.311726	0.823789
