data_functionalizedCrystal
_audit_creation_method	'MofGen! by Chris Wilmer'
_symmetry_space_group_name_H-M	'P1'
_symmetry_Int_Tables_number	1
_symmetry_cell_setting	triclinic
loop_
_symmetry_equiv_pos_as_xyz
  x,y,z
_cell_length_a	16.959454
_cell_length_b	18.215407
_cell_length_c	18.215399
_cell_angle_alpha	90.019833
_cell_angle_beta	89.976304
_cell_angle_gamma	89.979477
loop_
_atom_site_label
_atom_site_type_symbol
_atom_site_fract_x
_atom_site_fract_y
_atom_site_fract_z
Zn1	Zn	-0.314680	-1.125097	-0.416138
Zn2	Zn	0.185320	-0.625097	0.083862
Zn3	Zn	-0.446866	-1.125015	-0.293080
Zn4	Zn	0.053134	-0.625015	0.206920
Zn5	Zn	-0.314706	-1.002029	-0.293085
Zn6	Zn	0.185294	-0.502029	0.206915
Zn7	Zn	-0.446822	-1.002005	-0.416105
Zn8	Zn	0.053178	-0.502005	0.083895
O9	O	-0.380768	-1.063537	-0.354602
O10	O	0.119232	-0.563537	0.145398
O11	O	-0.332222	-1.228070	-0.399825
O12	O	0.167778	-0.728070	0.100175
O13	O	-0.429364	-1.108677	-0.190097
O14	O	0.070636	-0.608677	0.309903
O15	O	-0.204092	-1.018398	-0.309424
O16	O	0.295908	-0.518398	0.190576
O17	O	-0.429339	-1.228010	-0.309416
O18	O	0.070661	-0.728010	0.190584
O19	O	-0.204073	-1.108815	-0.399830
O20	O	0.295927	-0.608815	0.100170
O21	O	-0.332267	-1.018319	-0.190100
O22	O	0.167733	-0.518319	0.309900
O23	O	-0.332224	-0.899042	-0.309392
O24	O	0.167776	-0.399042	0.190608
O25	O	-0.429264	-1.018358	-0.519094
O26	O	0.070736	-0.518358	-0.019094
O27	O	-0.429289	-0.899024	-0.399775
O28	O	0.070711	-0.399024	0.100225
O29	O	-0.332180	-1.108792	-0.519118
O30	O	0.167820	-0.608792	-0.019118
O31	O	-0.557471	-1.108654	-0.309385
O32	O	-0.057471	-0.608654	0.190615
O33	O	-0.557438	-1.018279	-0.399770
O34	O	-0.057438	-0.518279	0.100230
C35	C	-0.380755	-0.872330	-0.354581
C36	C	0.119245	-0.372330	0.145419
C37	C	-0.380768	-0.790531	-0.354589
C38	C	0.119232	-0.290531	0.145411
C39	C	-0.586135	-1.063475	-0.354590
C40	C	-0.086135	-0.563475	0.145410
C41	C	-0.673991	-1.063516	-0.354609
C42	C	-0.173991	-0.563516	0.145391
C43	C	-0.380714	-1.063581	-0.546555
C44	C	0.119286	-0.563581	-0.046555
C45	C	-0.380691	-1.063601	-0.628354
C46	C	0.119309	-0.563601	-0.128354
C47	C	-1.045480	-1.016547	-0.401661
C48	C	-0.545480	-0.516547	0.098339
C49	C	-1.045454	-1.110731	-0.307618
C50	C	-0.545454	-0.610731	0.192382
C51	C	-0.962908	-1.110706	-0.307611
C52	C	-0.462908	-0.610706	0.192389
C53	C	-0.921644	-1.063599	-0.354629
C54	C	-0.421644	-0.563599	0.145371
C55	C	-0.962926	-1.016518	-0.401654
C56	C	-0.462926	-0.516518	0.098346
C57	C	-0.921619	-1.157781	-0.260582
C58	C	-0.421619	-0.657781	0.239418
C59	C	-0.839068	-1.157756	-0.260573
C60	C	-0.339068	-0.657756	0.239427
C61	C	-0.797803	-1.110653	-0.307595
C62	C	-0.297803	-0.610653	0.192405
C63	C	-0.839091	-1.063570	-0.354622
C64	C	-0.339091	-0.563570	0.145378
C65	C	-0.797827	-1.016464	-0.401640
C66	C	-0.297827	-0.516464	0.098360
C67	C	-0.839113	-0.969384	-0.448672
C68	C	-0.339113	-0.469384	0.051328
C69	C	-0.921661	-0.969414	-0.448676
C70	C	-0.421661	-0.469414	0.051324
C71	C	-0.715255	-1.110623	-0.307591
C72	C	-0.215255	-0.610623	0.192409
C73	C	-0.715273	-1.016435	-0.401634
C74	C	-0.215273	-0.516435	0.098366
C75	C	-0.174600	-1.063619	-0.354631
C76	C	0.325400	-0.563619	0.145369
C77	C	-0.086744	-1.063653	-0.354643
C78	C	0.413256	-0.563653	0.145357
C79	C	-0.380783	-1.255489	-0.354624
C80	C	0.119217	-0.755489	0.145376
C81	C	-0.380789	-1.337288	-0.354633
C82	C	0.119211	-0.837288	0.145367
C83	C	-0.431389	-0.602348	-0.401593
C84	C	0.068611	-0.102348	0.098407
C85	C	-0.431392	-0.525489	-0.401602
C86	C	0.068608	-0.025489	0.098398
C87	C	-0.330162	-0.525478	-0.307628
C88	C	0.169838	-0.025478	0.192372
C89	C	-0.330156	-0.602335	-0.307623
C90	C	0.169844	-0.102335	0.192377
C91	C	-0.380774	-0.640768	-0.354604
C92	C	0.119226	-0.140768	0.145396
C93	C	-0.380782	-0.487052	-0.354618
C94	C	0.119218	0.012948	0.145382
C95	C	-0.380785	-0.403718	-0.354628
C96	C	0.119215	0.096282	0.145372
C97	C	-0.380771	-0.724107	-0.354596
C98	C	0.119229	-0.224107	0.145404
C99	C	-0.330092	-1.110707	-0.816562
C100	C	0.169908	-0.610707	-0.316562
C101	C	-0.330069	-1.110716	-0.893420
C102	C	0.169931	-0.610716	-0.393420
C103	C	-0.431167	-1.016546	-0.893384
C104	C	0.068833	-0.516546	-0.393384
C105	C	-0.431186	-1.016534	-0.816527
C106	C	0.068814	-0.516534	-0.316527
C107	C	-0.380649	-1.063619	-0.778118
C108	C	0.119351	-0.563619	-0.278118
C109	C	-0.380608	-1.063639	-0.931834
C110	C	0.119392	-0.563639	-0.431834
C111	C	-0.380583	-1.063649	-1.015168
C112	C	0.119417	-0.563649	-0.515168
C113	C	-0.380672	-1.063609	-0.694779
C114	C	0.119328	-0.563609	-0.194779
C115	C	-0.380766	-1.063534	-0.163396
C116	C	0.119234	-0.563534	0.336604
C117	C	-0.380566	-1.063658	-0.081597
C118	C	0.119434	-0.563658	0.418403
H119	H	-0.681682	-0.978077	-0.439924
H120	H	-0.181682	-0.478077	0.060076
C121	C	-0.274495	-1.162488	-0.774313
C122	C	0.225505	-0.662488	-0.274313
H123	H	-0.244375	-1.190526	-0.808220
H124	H	0.255625	-0.690526	-0.308220
H125	H	-0.304733	-1.194540	-0.744330
H126	H	0.195267	-0.694540	-0.244330
H127	H	-0.240059	-1.134335	-0.744335
H128	H	0.259941	-0.634335	-0.244335
H129	H	-0.472604	-0.633638	-0.439850
H130	H	0.027396	-0.133638	0.060150
H131	H	-0.288899	-1.149058	-0.924718
H132	H	0.211101	-0.649058	-0.424718
H133	H	-0.288952	-0.494176	-0.269376
H134	H	0.211048	0.005824	0.230624
C135	C	-0.486760	-0.964764	-0.935637
C136	C	0.013240	-0.464764	-0.435637
H137	H	-0.479515	-0.971520	-0.986917
H138	H	0.020485	-0.471520	-0.486917
H139	H	-0.475196	-0.915319	-0.923036
H140	H	0.024804	-0.415319	-0.423036
H141	H	-0.539874	-0.975521	-0.923032
H142	H	-0.039874	-0.475521	-0.423032
C143	C	-0.486807	-0.964740	-0.774236
C144	C	0.013193	-0.464740	-0.274236
H145	H	-0.516911	-0.936708	-0.808117
H146	H	-0.016911	-0.436708	-0.308117
H147	H	-0.456579	-0.932681	-0.744251
H148	H	0.043421	-0.432681	-0.244251
H149	H	-0.521255	-0.992884	-0.744256
H150	H	-0.021255	-0.492884	-0.244256
C151	C	-0.274477	-0.644604	-0.255936
C152	C	0.225523	-0.144604	0.244064
H153	H	-0.281718	-0.695881	-0.262669
H154	H	0.218282	-0.195881	0.237331
H155	H	-0.285975	-0.631988	-0.206470
H156	H	0.214025	-0.131988	0.293530
H157	H	-0.221381	-0.632026	-0.266796
H158	H	0.278619	-0.132026	0.233204
C159	C	-0.793718	-0.917571	-0.500389
C160	C	-0.293718	-0.417571	-0.000389
H161	H	-0.738643	-0.924301	-0.493647
H162	H	-0.238643	-0.424301	0.006353
H163	H	-0.807290	-0.868134	-0.489580
H164	H	-0.307290	-0.368134	0.010420
H165	H	-0.807204	-0.928324	-0.549851
H166	H	-0.307204	-0.428324	-0.049851
C167	C	-1.090841	-1.162548	-0.255907
C168	C	-0.590841	-0.662548	0.244093
H169	H	-1.145917	-1.155826	-0.262650
H170	H	-0.645917	-0.655826	0.237350
H171	H	-1.077349	-1.151810	-0.206447
H172	H	-0.577349	-0.651810	0.293553
H173	H	-1.077268	-1.211985	-0.266734
H174	H	-0.577268	-0.711985	0.233266
C175	C	-0.967076	-0.917626	-0.500397
C176	C	-0.467076	-0.417626	-0.000397
H177	H	-1.022149	-0.924383	-0.493658
H178	H	-0.522149	-0.424383	0.006342
H179	H	-0.953519	-0.928356	-0.549855
H180	H	-0.453519	-0.428356	-0.049855
H181	H	-0.953589	-0.868179	-0.489570
H182	H	-0.453589	-0.368179	0.010430
C183	C	-0.487066	-0.483230	-0.453291
C184	C	0.012934	0.016770	0.046709
H185	H	-0.517212	-0.517129	-0.481266
H186	H	-0.017212	-0.017129	0.018734
H187	H	-0.456874	-0.453272	-0.485406
H188	H	0.043126	0.046728	0.014594
H189	H	-0.521474	-0.453225	-0.425086
H190	H	-0.021474	0.046775	0.074914
H191	H	-1.079098	-0.978218	-0.439955
H192	H	-0.579098	-0.478218	0.060045
H193	H	-0.955222	-1.196127	-0.222297
H194	H	-0.455222	-0.696127	0.277703
H195	H	-0.805459	-1.196091	-0.222279
H196	H	-0.305459	-0.696091	0.277721
C197	C	-0.669844	-1.162403	-0.255864
C198	C	-0.169844	-0.662403	0.244136
H199	H	-0.706242	-1.190463	-0.227864
H200	H	-0.206242	-0.690463	0.272136
H201	H	-0.637678	-1.134259	-0.223773
H202	H	-0.137678	-0.634259	0.276227
H203	H	-0.637605	-1.194447	-0.284047
H204	H	-0.137605	-0.694447	0.215953
