data_functionalizedCrystal
_audit_creation_method	'MofGen! by Chris Wilmer'
_symmetry_space_group_name_H-M	'P1'
_symmetry_Int_Tables_number	1
_symmetry_cell_setting	triclinic
loop_
_symmetry_equiv_pos_as_xyz
  x,y,z
_cell_length_a	16.992694
_cell_length_b	23.532357
_cell_length_c	22.010155
_cell_angle_alpha	90.003761
_cell_angle_beta	90.009201
_cell_angle_gamma	86.748258
loop_
_atom_site_label
_atom_site_type_symbol
_atom_site_fract_x
_atom_site_fract_y
_atom_site_fract_z
O1	O	1.039434	0.120711	0.050462
O2	O	0.811159	0.119386	0.050479
O3	O	0.932200	0.037457	0.050458
O4	O	0.918392	0.202640	0.050484
O5	O	0.932165	0.037466	-0.050593
O6	O	0.811124	0.119395	-0.050571
O7	O	1.039399	0.120719	-0.050589
Cu8	Cu	0.925258	0.120058	-0.059807
Cu9	Cu	0.925299	0.120048	0.059697
O10	O	0.918357	0.202648	-0.050567
C11	C	0.781943	0.117687	-0.000044
C12	C	0.694939	0.112604	-0.000037
C13	C	0.931837	0.016228	-0.000070
C14	C	0.930799	-0.047042	-0.000075
C15	C	0.644305	0.161650	-0.000030
C16	C	0.562556	0.156871	-0.000039
C17	C	0.531444	0.103044	-0.000051
C18	C	0.582086	0.053993	-0.000060
C19	C	0.663832	0.058773	-0.000056
C20	C	0.288006	0.083232	-0.000071
C21	C	0.206253	0.078455	-0.000074
C22	C	0.186729	0.181333	-0.000054
C23	C	0.268478	0.186109	-0.000045
C24	C	0.319112	0.137058	-0.000058
N25	N	0.447885	0.098157	-0.000059
N26	N	0.402670	0.141946	-0.000055
C27	C	0.924299	-0.439382	0.055041
C28	C	0.923312	-0.498830	0.055044
O29	O	0.922791	-0.529577	0.101890
N30	N	0.922803	-0.528561	-0.000038
C31	C	0.923274	-0.498840	-0.055126
O32	O	0.922750	-0.529587	-0.101977
C33	C	0.924255	-0.439392	-0.055129
C34	C	0.924772	-0.409665	-0.000044
C35	C	0.924815	-0.409654	0.110122
C36	C	0.925803	-0.350210	0.110118
C37	C	0.926276	-0.320493	0.055033
C38	C	0.925760	-0.350221	-0.000048
C39	C	0.924720	-0.409672	-0.110218
C40	C	0.925701	-0.350220	-0.110216
C41	C	0.926218	-0.320493	-0.055130
C42	C	0.927222	-0.261060	-0.055136
N43	N	0.927730	-0.231329	-0.000054
C44	C	0.927258	-0.261046	0.055030
C45	C	0.921211	-0.623684	-0.055116
C46	C	0.920236	-0.683131	-0.055114
C47	C	0.920272	-0.683117	0.055057
C48	C	0.921254	-0.623669	0.055054
C49	C	0.921720	-0.593953	-0.000034
C50	C	0.929334	-0.136208	0.055018
C51	C	0.930326	-0.076759	0.055009
C52	C	0.930285	-0.076778	-0.055161
C53	C	0.929298	-0.136222	-0.055153
C54	C	0.928819	-0.165936	-0.000058
O55	O	0.927740	-0.230275	-0.101958
O56	O	0.927771	-0.230291	0.101873
C57	C	1.068615	0.122419	-0.000064
C58	C	1.155618	0.127502	-0.000066
C59	C	0.918720	0.223878	-0.000038
C60	C	0.919759	0.287148	-0.000029
N61	N	0.925235	0.120065	-0.143859
C62	C	0.878024	0.083330	-0.436466
C63	C	0.878017	0.083332	-0.372858
O64	O	0.837847	0.052098	-0.339962
N65	N	0.925266	0.120049	-0.341043
C66	C	0.972530	0.156761	-0.372839
O67	O	1.012718	0.187992	-0.339937
C68	C	0.972540	0.156756	-0.436446
C69	C	0.925283	0.120041	-0.468257
C70	C	0.830771	0.046617	-0.468278
C71	C	0.830777	0.046616	-0.531881
C72	C	0.878036	0.083327	-0.563672
C73	C	0.925289	0.120039	-0.531860
C74	C	1.019808	0.193465	-0.468240
C75	C	1.019815	0.193456	-0.531851
C76	C	0.972558	0.156741	-0.563663
C77	C	0.972554	0.156749	-0.627255
N78	N	0.925306	0.120033	-0.659070
C79	C	0.878047	0.083321	-0.627279
C80	C	0.972505	0.156769	-0.239261
C81	C	0.972491	0.156778	-0.175656
C82	C	0.877979	0.083348	-0.175679
C83	C	0.877990	0.083342	-0.239286
C84	C	0.925257	0.120053	-0.271076
C85	C	0.878063	0.083322	-0.760850
C86	C	0.878070	0.083325	-0.824459
C87	C	0.972585	0.156753	-0.824430
C88	C	0.972574	0.156752	-0.760827
C89	C	0.925311	0.120032	-0.729038
O90	O	1.012706	0.187965	-0.660191
O91	O	0.837873	0.052091	-0.660188
N92	N	0.925329	0.120036	0.143750
H93	H	0.669629	0.205482	-0.000020
H94	H	0.919885	-0.707323	0.099910
H95	H	0.921594	-0.599493	-0.099979
H96	H	0.839498	0.053456	-0.149783
C97	C	0.506861	0.210827	-0.000042
N98	N	0.464912	0.251469	-0.000049
H99	H	1.010993	0.186669	-0.265141
C100	C	0.926363	-0.317517	0.170717
N101	N	0.926780	-0.292897	0.216363
C102	C	0.302695	0.245323	-0.000042
N103	N	0.328466	0.289924	-0.000040
H104	H	0.705059	0.018834	-0.000061
C105	C	0.924328	-0.442335	0.170725
N106	N	0.923980	-0.466947	0.216375
C107	C	0.131026	0.235285	-0.000048
N108	N	0.089070	0.275924	-0.000047
H109	H	1.058292	0.223362	-0.442350
C110	C	0.928737	-0.168924	-0.115749
N111	N	0.928307	-0.193550	-0.161391
H112	H	0.924301	-0.433866	-0.155074
H113	H	1.011044	0.186656	-0.734924
C114	C	0.926217	-0.317536	-0.170819
N115	N	0.926609	-0.292920	-0.216466
H116	H	0.930749	-0.052558	0.099869
C117	C	0.778793	0.006224	-0.566865
N118	N	0.739638	-0.024203	-0.593212
C119	C	0.921815	-0.590974	0.115652
N120	N	0.922234	-0.566351	0.161296
C121	C	1.024569	0.197132	-0.859413
N122	N	1.063730	0.227542	-0.885764
C123	C	0.172033	0.019238	-0.000086
N124	N	0.146257	-0.025361	-0.000094
C125	C	0.919675	-0.715824	-0.115712
N126	N	0.919247	-0.740447	-0.161357
C127	C	0.343693	0.029274	-0.000080
N128	N	0.385640	-0.011370	-0.000087
H129	H	0.928941	-0.160394	0.099881
C130	C	1.071810	0.233845	-0.566817
N131	N	1.110969	0.264267	-0.593151
H132	H	0.556748	0.010166	-0.000079
H133	H	0.839508	0.053446	-0.265183
C134	C	0.930798	-0.044078	-0.115751
N135	N	0.931175	-0.019446	-0.161388
C136	C	0.826082	0.042934	-0.859448
N137	N	0.786926	0.012511	-0.885800
C138	C	0.826066	0.042931	-0.725892
N139	N	0.786897	0.012511	-0.699562
C140	C	0.778774	0.006231	-0.433317
N141	N	0.739601	-0.024187	-0.406989
H142	H	1.010963	0.186682	-0.149760
