data_functionalizedCrystal
_audit_creation_method	'MofGen! by Chris Wilmer'
_symmetry_space_group_name_H-M	'P1'
_symmetry_Int_Tables_number	1
_symmetry_cell_setting	triclinic
loop_
_symmetry_equiv_pos_as_xyz
  x,y,z
_cell_length_a	18.215407
_cell_length_b	13.032721
_cell_length_c	18.215399
_cell_angle_alpha	82.845262
_cell_angle_beta	90.019833
_cell_angle_gamma	97.205008
loop_
_atom_site_label
_atom_site_type_symbol
_atom_site_fract_x
_atom_site_fract_y
_atom_site_fract_z
Zn1	Zn	1.087881	-0.416041	0.453320
Zn2	Zn	1.587881	0.083959	0.953320
Zn3	Zn	1.072167	-0.590804	0.345882
Zn4	Zn	1.572167	-0.090804	0.845882
Zn5	Zn	0.964810	-0.416075	0.330271
Zn6	Zn	1.464810	0.083925	0.830271
Zn7	Zn	0.949162	-0.590746	0.468902
Zn8	Zn	1.449162	-0.090746	0.968902
O9	O	1.018505	-0.503417	0.399594
O10	O	1.518505	-0.003417	0.899594
O11	O	1.188780	-0.439234	0.439081
O12	O	1.688780	0.060766	0.939081
O13	O	1.057898	-0.567665	0.240831
O14	O	1.557898	-0.067665	0.740831
O15	O	0.994261	-0.269831	0.333539
O16	O	1.494261	0.230169	0.833539
O17	O	1.177235	-0.567632	0.360147
O18	O	1.677235	-0.067632	0.860147
O19	O	1.084681	-0.269806	0.423943
O20	O	1.584681	0.230194	0.923943
O21	O	0.979024	-0.439292	0.229361
O22	O	1.479024	0.060708	0.729361
O23	O	0.859751	-0.439236	0.348648
O24	O	1.359751	0.060764	0.848648
O25	O	0.967591	-0.567533	0.569816
O26	O	1.467591	-0.067533	1.069816
O27	O	0.848254	-0.567566	0.450500
O28	O	1.348254	-0.067566	0.950500
O29	O	1.069507	-0.439177	0.558368
O30	O	1.569507	0.060823	1.058368
O31	O	1.042724	-0.737036	0.375256
O32	O	1.542724	-0.237036	0.875256
O33	O	0.952353	-0.736993	0.465638
O34	O	1.452353	-0.236993	0.965638
C35	C	0.827300	-0.503399	0.399571
C36	C	1.327300	-0.003399	0.899571
C37	C	0.745500	-0.503416	0.399581
C38	C	1.245500	-0.003416	0.899581
C39	C	0.551329	-0.570343	0.452566
C40	C	1.051329	-0.070343	0.952566
C41	C	0.474470	-0.570346	0.452575
C42	C	0.974470	-0.070346	0.952575
C43	C	0.486431	-0.436510	0.346640
C44	C	0.986431	0.063490	0.846640
C45	C	0.563289	-0.436502	0.346634
C46	C	1.063289	0.063498	0.846634
C47	C	0.595736	-0.503424	0.399597
C48	C	1.095736	-0.003424	0.899597
C49	C	0.442019	-0.503435	0.399612
C50	C	0.942019	-0.003435	0.899612
C51	C	0.358685	-0.503438	0.399621
C52	C	0.858685	-0.003438	0.899621
C53	C	0.679075	-0.503420	0.399588
C54	C	1.179075	-0.003420	0.899588
C55	C	0.994156	-0.774933	0.423847
C56	C	1.494156	-0.274933	0.923847
C57	C	0.983806	-0.891089	0.434248
C58	C	1.483806	-0.391089	0.934248
C59	C	1.023945	-0.942861	0.394199
C60	C	1.523945	-0.442861	0.894199
C61	C	1.013250	-1.062914	0.404947
C62	C	1.513250	-0.562914	0.904947
C63	C	1.210456	-0.503435	0.399617
C64	C	1.710456	-0.003435	0.899617
C65	C	1.292254	-0.503443	0.399627
C66	C	1.792254	-0.003443	0.899627
C67	C	1.018556	-0.503345	0.591540
C68	C	1.518556	-0.003345	1.091540
C69	C	1.018578	-0.503314	0.673337
C70	C	1.518578	-0.003314	1.173337
C71	C	1.042969	-0.230840	0.375262
C72	C	1.542969	0.269160	0.875262
C73	C	1.053395	-0.114684	0.364893
C74	C	1.553395	0.385316	0.864893
C75	C	1.018503	-0.503413	0.208387
C76	C	1.518503	-0.003413	0.708387
C77	C	1.018650	-0.503149	0.126565
C78	C	1.518650	-0.003149	0.626565
C79	C	1.071668	-0.436417	0.855565
C80	C	1.571668	0.063583	1.355565
C81	C	1.071680	-0.436386	0.932421
C82	C	1.571680	0.063614	1.432421
C83	C	0.965554	-0.570049	0.944331
C84	C	1.465554	-0.070049	1.444331
C85	C	0.965540	-0.570074	0.867476
C86	C	1.465540	-0.070074	1.367476
C87	C	1.018601	-0.503259	0.823095
C88	C	1.518601	-0.003259	1.323095
C89	C	1.018627	-0.503204	0.976807
C90	C	1.518627	-0.003204	1.476807
C91	C	1.018639	-0.503172	1.060137
C92	C	1.518639	-0.003172	1.560137
C93	C	1.018589	-0.503290	0.739759
C94	C	1.518589	-0.003290	1.239759
H95	H	0.577745	-0.624833	0.495693
H96	H	1.077745	-0.124833	0.995693
C97	C	0.907196	-0.643549	0.993149
C98	C	1.407196	-0.143549	1.493149
H99	H	0.875585	-0.683355	0.962801
H100	H	1.375585	-0.183355	1.462801
H101	H	0.931267	-0.689074	1.027199
H102	H	1.431267	-0.189074	1.527199
H103	H	0.878720	-0.603558	1.019556
H104	H	1.378720	-0.103558	1.519556
C105	C	1.130057	-0.362865	0.968136
C106	C	1.630057	0.137135	1.468136
H107	H	1.161657	-0.323085	0.930695
H108	H	1.661657	0.176915	1.430695
H109	H	1.106000	-0.317317	0.994048
H110	H	1.606000	0.182683	1.494048
H111	H	1.158541	-0.402841	1.001691
H112	H	1.658541	0.097159	1.501691
H113	H	1.095684	-1.070135	0.322648
H114	H	1.595684	-0.570135	0.822648
C115	C	1.081069	-0.882687	0.337129
C116	C	1.581069	-0.382687	0.837129
H117	H	1.104869	-0.930737	0.313400
H118	H	1.604869	-0.430737	0.813400
H119	H	1.056699	-0.840168	0.301258
H120	H	1.556699	-0.340168	0.801258
H121	H	1.116893	-0.840046	0.361525
H122	H	1.616893	-0.340046	0.861525
H123	H	0.922321	-0.624504	0.841039
H124	H	1.422321	-0.124504	1.341039
C125	C	0.956126	-1.123085	0.462023
C126	C	1.456126	-0.623085	0.962023
H127	H	0.932334	-1.075035	0.485760
H128	H	1.432334	-0.575035	0.985760
H129	H	0.920305	-1.165734	0.437635
H130	H	1.420305	-0.665734	0.937635
H131	H	0.980505	-1.165596	0.497897
H132	H	1.480505	-0.665596	0.997897
H133	H	0.599447	-0.382002	0.303500
H134	H	1.099447	0.117998	0.803500
C135	C	0.425627	-0.643954	0.510843
C136	C	0.925627	-0.143954	1.010843
H137	H	0.455961	-0.683810	0.542380
H138	H	0.955961	-0.183810	1.042380
H139	H	0.399240	-0.604036	0.539390
H140	H	0.899240	-0.104036	1.039390
H141	H	0.391552	-0.689445	0.486704
H142	H	0.891552	-0.189445	0.986704
H143	H	0.941526	-0.935643	0.476495
H144	H	1.441526	-0.435643	0.976495
H145	H	0.460003	-0.382025	0.303519
H146	H	0.960003	0.117975	0.803519
H147	H	1.114872	-0.382009	0.819432
H148	H	1.614872	0.117991	1.319432
