data_functionalizedCrystal
_audit_creation_method	'MofGen! by Chris Wilmer'
_symmetry_space_group_name_H-M	'P1'
_symmetry_Int_Tables_number	1
_symmetry_cell_setting	triclinic
loop_
_symmetry_equiv_pos_as_xyz
  x,y,z
_cell_length_a	18.215405
_cell_length_b	17.077404
_cell_length_c	17.077396
_cell_angle_alpha	89.982756
_cell_angle_beta	89.967575
_cell_angle_gamma	90.025110
loop_
_atom_site_label
_atom_site_type_symbol
_atom_site_fract_x
_atom_site_fract_y
_atom_site_fract_z
Zn1	Zn	-0.292974	1.200026	-0.443826
Zn2	Zn	0.207026	1.700026	0.056174
Zn3	Zn	-0.416049	1.199934	-0.312553
Zn4	Zn	0.083951	1.699934	0.187447
Zn5	Zn	-0.293001	1.068763	-0.312574
Zn6	Zn	0.206999	1.568763	0.187426
Zn7	Zn	-0.416004	1.068721	-0.443776
Zn8	Zn	0.083996	1.568721	0.056224
O9	O	-0.354507	1.134361	-0.378182
O10	O	0.145493	1.634361	0.121818
O11	O	-0.309307	1.309861	-0.426424
O12	O	0.190693	1.809861	0.073576
O13	O	-0.399757	1.182513	-0.202708
O14	O	0.100243	1.682513	0.297292
O15	O	-0.190013	1.086232	-0.330014
O16	O	0.309987	1.586232	0.169986
O17	O	-0.399730	1.309793	-0.329978
O18	O	0.100270	1.809793	0.170022
O19	O	-0.189993	1.182670	-0.426444
O20	O	0.310007	1.682670	0.073556
O21	O	-0.309355	1.086142	-0.202724
O22	O	0.190645	1.586142	0.297276
O23	O	-0.309310	0.958911	-0.329966
O24	O	0.190690	1.458911	0.170034
O25	O	-0.399653	1.086160	-0.553630
O26	O	0.100347	1.586160	-0.053630
O27	O	-0.399680	0.958880	-0.426360
O28	O	0.100320	1.458880	0.073640
O29	O	-0.309263	1.182630	-0.553666
O30	O	0.190737	1.682630	-0.053666
O31	O	-0.519027	1.182472	-0.329930
O32	O	-0.019027	1.682472	0.170070
O33	O	-0.518994	1.086071	-0.426340
O34	O	-0.018994	1.586071	0.073660
C35	C	-0.354494	0.930413	-0.378160
C36	C	0.145506	1.430413	0.121840
C37	C	-0.354506	0.843164	-0.378170
C38	C	0.145494	1.343164	0.121830
C39	C	-0.401632	0.802178	-0.428282
C40	C	0.098368	1.302178	0.071718
C41	C	-0.401634	0.720198	-0.428294
C42	C	0.098366	1.220198	0.071706
C43	C	-0.354512	0.679204	-0.378190
C44	C	0.145488	1.179204	0.121810
C45	C	-0.307381	0.720195	-0.328076
C46	C	0.192619	1.220195	0.171924
C47	C	-0.307376	0.802174	-0.328068
C48	C	0.192624	1.302174	0.171932
C49	C	-0.307395	0.549325	-0.328095
C50	C	0.192605	1.049325	0.171905
C51	C	-0.307401	0.467341	-0.328102
C52	C	0.192599	0.967341	0.171898
C53	C	-0.401653	0.467349	-0.428321
C54	C	0.098347	0.967349	0.071679
C55	C	-0.401648	0.549327	-0.428313
C56	C	0.098352	1.049327	0.071687
C57	C	-0.354517	0.590313	-0.378198
C58	C	0.145483	1.090313	0.121802
C59	C	-0.545713	1.134278	-0.378144
C60	C	-0.045713	1.634278	0.121856
C61	C	-0.627512	1.134315	-0.378154
C62	C	-0.127512	1.634315	0.121846
C63	C	-0.815699	1.184629	-0.328046
C64	C	-0.315699	1.684629	0.171954
C65	C	-0.892558	1.184664	-0.328065
C66	C	-0.392558	1.684664	0.171935
C67	C	-0.892563	1.084194	-0.428374
C68	C	-0.392563	1.584194	0.071626
C69	C	-0.815706	1.084164	-0.428359
C70	C	-0.315706	1.584164	0.071641
C71	C	-0.777276	1.134380	-0.378190
C72	C	-0.277276	1.634380	0.121810
C73	C	-0.930992	1.134445	-0.378225
C74	C	-0.430992	1.634445	0.121775
C75	C	-1.014325	1.134483	-0.378246
C76	C	-0.514325	1.634483	0.121754
C77	C	-0.693937	1.134343	-0.378170
C78	C	-0.193937	1.634343	0.121830
C79	C	-0.162554	1.134466	-0.378237
C80	C	0.337446	1.634466	0.121763
C81	C	-0.080755	1.134510	-0.378261
C82	C	0.419245	1.634510	0.121739
C83	C	-0.354450	1.134401	-0.582926
C84	C	0.145550	1.634401	-0.082926
C85	C	-0.354426	1.134417	-0.670176
C86	C	0.145574	1.634417	-0.170176
C87	C	-0.354521	1.339105	-0.378204
C88	C	0.145479	1.839105	0.121796
C89	C	-0.354527	1.426355	-0.378214
C90	C	0.145473	1.926355	0.121786
C91	C	-0.307347	1.084253	-0.711174
C92	C	0.192653	1.584253	-0.211174
C93	C	-0.307331	1.084265	-0.793154
C94	C	0.192669	1.584265	-0.293154
C95	C	-0.354389	1.134448	-0.834136
C96	C	0.145611	1.634448	-0.334136
C97	C	-0.401473	1.184615	-0.793132
C98	C	0.098527	1.684615	-0.293132
C99	C	-0.401492	1.184597	-0.711153
C100	C	0.098508	1.684597	-0.211153
C101	C	-0.401427	1.184649	-0.964003
C102	C	0.098573	1.684649	-0.464003
C103	C	-0.401406	1.184667	-1.045987
C104	C	0.098594	1.684667	-0.545987
C105	C	-0.307265	1.084317	-1.046004
C106	C	0.192735	1.584317	-0.546004
C107	C	-0.307285	1.084299	-0.964025
C108	C	0.192715	1.584299	-0.464025
C109	C	-0.354367	1.134468	-0.923027
C110	C	0.145633	1.634468	-0.423027
C111	C	-0.354511	1.134367	-0.174234
C112	C	0.145489	1.634367	0.325766
C113	C	-0.354328	1.134502	-0.086985
C114	C	0.145672	1.634502	0.413015
H115	H	-0.269010	0.686812	-0.287284
H116	H	0.230990	1.186812	0.212716
C117	C	-0.697880	1.229191	-0.283477
C118	C	-0.197880	1.729191	0.216523
C119	C	-0.773455	1.239829	-0.272907
C120	C	-0.273455	1.739829	0.227093
H121	H	-0.671803	1.263268	-0.249432
H122	H	-0.171803	1.763268	0.250568
H123	H	-0.685241	1.240640	-0.336221
H124	H	-0.185241	1.740640	0.163779
H125	H	-0.685340	1.176449	-0.271933
H126	H	-0.185340	1.676449	0.228067
H127	H	-0.785996	1.292569	-0.284457
H128	H	-0.285996	1.792569	0.215543
H129	H	-0.786099	1.228386	-0.220151
H130	H	-0.286099	1.728386	0.279849
H131	H	-0.269021	0.433966	-0.287312
H132	H	0.230979	0.933966	0.212688
H133	H	-0.269023	1.043393	-0.677813
H134	H	0.230977	1.543393	-0.177813
C135	C	-0.979119	1.195740	-0.222559
C136	C	-0.479119	1.695740	0.277441
C137	C	-0.934822	1.239925	-0.272997
C138	C	-0.434822	1.739925	0.227003
H139	H	-1.005222	1.229869	-0.188581
H140	H	-0.505222	1.729869	0.311419
H141	H	-0.949204	1.161579	-0.192445
H142	H	-0.449204	1.661579	0.307555
H143	H	-1.012983	1.165816	-0.252447
H144	H	-0.512983	1.665816	0.247553
H145	H	-0.900954	1.269845	-0.243109
H146	H	-0.400954	1.769845	0.256891
H147	H	-0.964740	1.274100	-0.303114
H148	H	-0.464740	1.774100	0.196886
H149	H	-0.439725	1.225530	-1.079352
H150	H	0.060275	1.725530	-0.579352
C151	C	-1.010383	1.039623	-0.472931
C152	C	-0.510383	1.539623	0.027069
C153	C	-0.934808	1.028990	-0.483509
C154	C	-0.434808	1.528990	0.016491
H155	H	-1.036460	1.005536	-0.506965
H156	H	-0.536460	1.505536	-0.006965
H157	H	-1.022928	1.092354	-0.484476
H158	H	-0.522928	1.592354	0.015524
H159	H	-1.023015	1.028175	-0.420177
H160	H	-0.523015	1.528175	0.079823
H161	H	-0.922175	1.040443	-0.536262
H162	H	-0.422175	1.540443	-0.036262
H163	H	-0.922258	0.976247	-0.471969
H164	H	-0.422258	1.476247	0.028031
H165	H	-0.784419	1.043245	-0.469195
H166	H	-0.284419	1.543245	0.030805
H167	H	-0.268998	1.043413	-0.826531
H168	H	0.231002	1.543413	-0.326531
C169	C	-0.214230	0.985106	-0.972271
C170	C	0.285770	1.485106	-0.472271
C171	C	-0.255558	1.029139	-0.918976
C172	C	0.244442	1.529139	-0.418976
H173	H	-0.182300	0.951048	-0.944457
H174	H	0.317700	1.451048	-0.444457
H175	H	-0.186074	1.019327	-1.004256
H176	H	0.313926	1.519327	-0.504256
H177	H	-0.246290	0.955068	-1.004234
H178	H	0.253710	1.455068	-0.504234
H179	H	-0.223497	1.059181	-0.887016
H180	H	0.276503	1.559181	-0.387016
H181	H	-0.283716	0.994914	-0.886977
H182	H	0.216284	1.494914	-0.386977
C183	C	-0.494788	0.793943	-0.527352
C184	C	0.005212	1.293943	-0.027352
C185	C	-0.453428	0.847234	-0.483361
C186	C	0.046572	1.347234	0.016639
H187	H	-0.526760	0.821759	-0.561361
H188	H	-0.026760	1.321759	-0.061361
H189	H	-0.522901	0.761946	-0.493100
H190	H	-0.022901	1.261946	0.006900
H191	H	-0.462751	0.761990	-0.557438
H192	H	0.037249	1.261990	-0.057438
H193	H	-0.485465	0.879183	-0.453270
H194	H	0.014535	1.379183	0.046730
H195	H	-0.425313	0.879244	-0.517617
H196	H	0.074687	1.379244	-0.017617
H197	H	-0.440026	0.433974	-0.469129
H198	H	0.059974	0.933974	0.030871
H199	H	-0.268997	0.835544	-0.287266
H200	H	0.231003	1.335544	0.212734
H201	H	-0.268928	1.043469	-1.079388
H202	H	0.231072	1.543469	-0.579388
H203	H	-0.439760	1.225508	-0.930625
H204	H	0.060240	1.725508	-0.430625
C205	C	-0.411684	1.290220	-0.885327
C206	C	0.088316	1.790220	-0.385327
C207	C	-0.453201	1.239777	-0.838177
C208	C	0.046799	1.739777	-0.338177
H209	H	-0.443620	1.324279	-0.913130
H210	H	0.056380	1.824279	-0.413130
H211	H	-0.383649	1.260346	-0.921474
H212	H	0.116351	1.760346	-0.421474
H213	H	-0.379633	1.320254	-0.853350
H214	H	0.120367	1.820254	-0.353350
H215	H	-0.485248	1.209738	-0.870155
H216	H	0.014752	1.709738	-0.370155
H217	H	-0.481248	1.269654	-0.802025
H218	H	0.018752	1.769654	-0.302025
H219	H	-0.439823	1.225453	-0.677774
H220	H	0.060177	1.725453	-0.177774
C221	C	-0.412002	0.628057	-0.533882
C222	C	0.087998	1.128057	-0.033882
C223	C	-0.453441	0.675152	-0.483378
C224	C	0.046559	1.175152	0.016622
H225	H	-0.443990	0.600254	-0.567893
H226	H	0.056010	1.100254	-0.067893
H227	H	-0.383947	0.591910	-0.504049
H228	H	0.116053	1.091910	-0.004049
H229	H	-0.379975	0.660072	-0.563964
H230	H	0.120025	1.160072	-0.063964
H231	H	-0.485465	0.643136	-0.453291
H232	H	0.014535	1.143136	0.046709
H233	H	-0.481509	0.711303	-0.513214
H234	H	0.018491	1.211303	-0.013214
C235	C	-0.208375	0.641547	-0.317360
C236	C	0.291625	1.141547	0.182640
C237	C	-0.255589	0.594375	-0.273005
C238	C	0.244411	1.094375	0.226995
H239	H	-0.176392	0.669353	-0.283347
H240	H	0.323608	1.169353	0.216653
H241	H	-0.236435	0.677691	-0.347191
H242	H	0.263565	1.177691	0.152809
H243	H	-0.180268	0.609584	-0.351616
H244	H	0.319732	1.109584	0.148384
H245	H	-0.283700	0.626339	-0.238753
H246	H	0.216300	1.126339	0.261247
H247	H	-0.227525	0.558226	-0.243160
H248	H	0.272475	1.058226	0.256840
H249	H	-0.440023	0.582702	-0.469108
H250	H	0.059977	1.082702	0.030892
