data_functionalizedCrystal
_audit_creation_method	'MofGen! by Chris Wilmer'
_symmetry_space_group_name_H-M	'P1'
_symmetry_Int_Tables_number	1
_symmetry_cell_setting	triclinic
loop_
_symmetry_equiv_pos_as_xyz
  x,y,z
_cell_length_a	17.077404
_cell_length_b	13.897448
_cell_length_c	17.077396
_cell_angle_alpha	89.971798
_cell_angle_beta	89.982756
_cell_angle_gamma	90.017917
loop_
_atom_site_label
_atom_site_type_symbol
_atom_site_fract_x
_atom_site_fract_y
_atom_site_fract_z
Zn1	Zn	1.200065	-0.384001	-0.443849
Zn2	Zn	1.700065	0.115999	0.056151
Zn3	Zn	1.199990	-0.545316	-0.312585
Zn4	Zn	1.699990	-0.045316	0.187415
Zn5	Zn	1.068802	-0.384037	-0.312597
Zn6	Zn	1.568802	0.115963	0.187403
Zn7	Zn	1.068777	-0.545257	-0.443809
Zn8	Zn	1.568777	-0.045257	0.056191
O9	O	1.134409	-0.464653	-0.378210
O10	O	1.634409	0.035347	0.121790
O11	O	1.309902	-0.405410	-0.426448
O12	O	1.809902	0.094590	0.073552
O13	O	1.182566	-0.523962	-0.202740
O14	O	1.682566	-0.023962	0.297260
O15	O	1.086257	-0.249051	-0.330029
O16	O	1.586257	0.250949	0.169971
O17	O	1.309847	-0.523927	-0.330010
O18	O	1.809847	-0.023927	0.169990
O19	O	1.182695	-0.249024	-0.426459
O20	O	1.682695	0.250976	0.073541
O21	O	1.086184	-0.405471	-0.202748
O22	O	1.586184	0.094529	0.297252
O23	O	0.958952	-0.405414	-0.329990
O24	O	1.458952	0.094586	0.170010
O25	O	1.086214	-0.523826	-0.553661
O26	O	1.586214	-0.023826	-0.053661
O27	O	0.958934	-0.523861	-0.426391
O28	O	1.458934	-0.023861	0.073609
O29	O	1.182671	-0.405352	-0.553690
O30	O	1.682671	0.094648	-0.053690
O31	O	1.182542	-0.680290	-0.329971
O32	O	1.682542	-0.180290	0.170029
O33	O	1.086140	-0.680246	-0.426380
O34	O	1.586140	-0.180246	0.073620
C35	C	0.930461	-0.464635	-0.378188
C36	C	1.430461	0.035365	0.121812
C37	C	0.843211	-0.464651	-0.378198
C38	C	1.343211	0.035349	0.121802
C39	C	1.134351	-0.715267	-0.378187
C40	C	1.634351	-0.215267	0.121813
C41	C	1.134399	-0.822481	-0.378204
C42	C	1.634399	-0.322481	0.121796
C43	C	0.802232	-0.526419	-0.428313
C44	C	1.302232	-0.026419	0.071687
C45	C	0.720251	-0.526422	-0.428326
C46	C	1.220251	-0.026422	0.071674
C47	C	0.679252	-0.464659	-0.378218
C48	C	1.179252	0.035341	0.121782
C49	C	0.720237	-0.402884	-0.328100
C50	C	1.220237	0.097116	0.171900
C51	C	0.802216	-0.402878	-0.328092
C52	C	1.302216	0.097122	0.171908
C53	C	0.549367	-0.402903	-0.328119
C54	C	1.049367	0.097097	0.171881
C55	C	0.467382	-0.402910	-0.328126
C56	C	0.967382	0.097090	0.171874
C57	C	0.467402	-0.526447	-0.428353
C58	C	0.967402	-0.026447	0.071647
C59	C	0.549381	-0.526441	-0.428345
C60	C	1.049381	-0.026441	0.071655
C61	C	0.590361	-0.464666	-0.378226
C62	C	1.090361	0.035334	0.121774
C63	C	1.134481	-1.018776	-0.378253
C64	C	1.634481	-0.518776	0.121747
C65	C	1.134433	-0.909544	-0.378228
C66	C	1.634433	-0.409544	0.121772
C67	C	1.339153	-0.464671	-0.378232
C68	C	1.839153	0.035329	0.121768
C69	C	1.426403	-0.464679	-0.378242
C70	C	1.926403	0.035321	0.121758
C71	C	1.134448	-0.464578	-0.582954
C72	C	1.634448	0.035422	-0.082954
C73	C	1.134465	-0.464546	-0.670204
C74	C	1.634465	0.035454	-0.170204
C75	C	1.134488	-0.213060	-0.378250
C76	C	1.634488	0.286940	0.121750
C77	C	1.134521	-0.105846	-0.378267
C78	C	1.634521	0.394154	0.121733
C79	C	1.084294	-0.402841	-0.711198
C80	C	1.584294	0.097159	-0.211198
C81	C	1.084307	-0.402819	-0.793179
C82	C	1.584307	0.097181	-0.293179
C83	C	1.134495	-0.464498	-0.834164
C84	C	1.634495	0.035502	-0.334164
C85	C	1.184668	-0.526211	-0.793164
C86	C	1.684668	-0.026211	-0.293164
C87	C	1.184651	-0.526237	-0.711185
C88	C	1.684651	-0.026237	-0.211185
C89	C	1.184702	-0.526150	-0.964034
C90	C	1.684702	-0.026150	-0.464034
C91	C	1.184721	-0.526123	-1.046019
C92	C	1.684721	-0.026123	-0.546019
C93	C	1.084358	-0.402732	-1.046028
C94	C	1.584358	0.097268	-0.546028
C95	C	1.084341	-0.402758	-0.964049
C96	C	1.584341	0.097242	-0.464049
C97	C	1.134515	-0.464470	-0.923055
C98	C	1.634515	0.035530	-0.423055
C99	C	1.134415	-0.464658	-0.174262
C100	C	1.634415	0.035342	0.325738
C101	C	1.134550	-0.464418	-0.087013
C102	C	1.634550	0.035582	0.412987
H103	H	0.835608	-0.576717	-0.469114
H104	H	1.335608	-0.076717	0.030886
H105	H	0.434033	-0.576743	-0.469164
H106	H	0.934033	-0.076743	0.030836
H107	H	1.225589	-0.576348	-1.079387
H108	H	1.725589	-0.076348	-0.579387
C109	C	1.283868	-0.648182	-0.784915
C110	C	1.783868	-0.148182	-0.284915
C111	C	1.239837	-0.594012	-0.838212
C112	C	1.739837	-0.094012	-0.338212
H113	H	1.317925	-0.690043	-0.812726
H114	H	1.817925	-0.190043	-0.312726
H115	H	1.313899	-0.606170	-0.752951
H116	H	1.813899	-0.106170	-0.252951
H117	H	1.249639	-0.685084	-0.752930
H118	H	1.749639	-0.185084	-0.252930
H119	H	1.274066	-0.557105	-0.870193
H120	H	1.774066	-0.057105	-0.370193
H121	H	1.209804	-0.636030	-0.870189
H122	H	1.709804	-0.136030	-0.370189
H123	H	0.835580	-0.352575	-0.287287
H124	H	1.335580	0.147425	0.212713
C125	C	0.728506	-0.648556	-0.527370
C126	C	1.228506	-0.148556	-0.027370
C127	C	0.675207	-0.594335	-0.483402
C128	C	1.175207	-0.094335	0.016598
H129	H	0.700696	-0.690491	-0.561367
H130	H	1.200696	-0.190491	-0.061367
H131	H	0.760496	-0.606581	-0.557462
H132	H	1.260496	-0.106581	-0.057462
H133	H	0.760464	-0.685382	-0.493098
H134	H	1.260464	-0.185382	0.006902
H135	H	0.643252	-0.557504	-0.517674
H136	H	1.143252	-0.057504	-0.017674
H137	H	0.643204	-0.636316	-0.453308
H138	H	1.143204	-0.136316	0.046692
H139	H	1.043476	-0.352529	-0.930681
H140	H	1.543476	0.147471	-0.430681
H141	H	0.434002	-0.352607	-0.287334
H142	H	0.934002	0.147393	0.212666
H143	H	1.043505	-0.352484	-1.079409
H144	H	1.543505	0.147516	-0.579409
H145	H	0.582761	-0.576738	-0.469142
H146	H	1.082761	-0.076738	0.030858
C147	C	0.541116	-0.280810	-0.229032
C148	C	1.041116	0.219190	0.270968
C149	C	0.594413	-0.335011	-0.273019
C150	C	1.094413	0.164989	0.226981
H151	H	0.568928	-0.238907	-0.195010
H152	H	1.068928	0.261093	0.304990
H153	H	0.509169	-0.243959	-0.263285
H154	H	1.009169	0.256041	0.236715
H155	H	0.509115	-0.322807	-0.198959
H156	H	1.009115	0.177193	0.301041
H157	H	0.626410	-0.293014	-0.303097
H158	H	1.126410	0.206986	0.196903
H159	H	0.626373	-0.371864	-0.238762
H160	H	1.126373	0.128136	0.261238
C161	C	1.195490	-0.656017	-0.618973
C162	C	1.695490	-0.156017	-0.118973
C163	C	1.239800	-0.594066	-0.666120
C164	C	1.739800	-0.094066	-0.166120
H165	H	1.229536	-0.697898	-0.591157
H166	H	1.729536	-0.197898	-0.091157
H167	H	1.165604	-0.619285	-0.582838
H168	H	1.665604	-0.119285	-0.082838
H169	H	1.161287	-0.692894	-0.650955
H170	H	1.661287	-0.192894	-0.150955
H171	H	1.273999	-0.557183	-0.634138
H172	H	1.773999	-0.057183	-0.134138
H173	H	1.269699	-0.630801	-0.702260
H174	H	1.769699	-0.130801	-0.202260
H175	H	1.043429	-0.352608	-0.677834
H176	H	1.543429	0.147392	-0.177834
C177	C	0.978722	-0.389391	-0.885337
C178	C	1.478722	0.110609	-0.385337
C179	C	1.029144	-0.334997	-0.838230
C180	C	1.529144	0.165003	-0.338230
H181	H	0.944658	-0.347521	-0.913142
H182	H	1.444658	0.152479	-0.413142
H183	H	1.008611	-0.426105	-0.921482
H184	H	1.508611	0.073895	-0.421482
H185	H	0.948692	-0.431428	-0.853329
H186	H	1.448692	0.068572	-0.353329
H187	H	1.059178	-0.292965	-0.870238
H188	H	1.559178	0.207035	-0.370238
H189	H	0.999251	-0.298267	-0.802081
H190	H	1.499251	0.201733	-0.302081
H191	H	0.686848	-0.352592	-0.287305
H192	H	1.186848	0.147408	0.212695
H193	H	1.225567	-0.576394	-0.930659
H194	H	1.725567	-0.076394	-0.430659
