data_functionalizedCrystal
_audit_creation_method	'MofGen! by Chris Wilmer'
_symmetry_space_group_name_H-M	'P1'
_symmetry_Int_Tables_number	1
_symmetry_cell_setting	triclinic
loop_
_symmetry_equiv_pos_as_xyz
  x,y,z
_cell_length_a	18.101398
_cell_length_b	18.101395
_cell_length_c	18.101390
_cell_angle_alpha	90.031336
_cell_angle_beta	90.008947
_cell_angle_gamma	90.025910
loop_
_atom_site_label
_atom_site_type_symbol
_atom_site_fract_x
_atom_site_fract_y
_atom_site_fract_z
Zn1	Zn	-1.132124	0.294904	-0.418536
Zn2	Zn	-0.632124	0.794904	0.081464
Zn3	Zn	-1.132019	0.418761	-0.294698
Zn4	Zn	-0.632019	0.918761	0.205302
Zn5	Zn	-1.008282	0.294927	-0.294731
Zn6	Zn	-0.508282	0.794927	0.205269
Zn7	Zn	-1.008233	0.418697	-0.418520
Zn8	Zn	-0.508233	0.918697	0.081480
O9	O	-1.070164	0.356822	-0.356621
O10	O	-0.570164	0.856822	0.143379
O11	O	-1.235742	0.311351	-0.402101
O12	O	-0.735742	0.811351	0.097899
O13	O	-1.115581	0.402370	-0.191069
O14	O	-0.615581	0.902370	0.308931
O15	O	-1.024774	0.191291	-0.311175
O16	O	-0.524774	0.691291	0.188825
O17	O	-1.235665	0.402349	-0.311118
O18	O	-0.735665	0.902349	0.188882
O19	O	-1.115760	0.191274	-0.402133
O20	O	-0.615760	0.691274	0.097867
O21	O	-1.024672	0.311390	-0.191094
O22	O	-0.524672	0.811390	0.308906
O23	O	-0.904642	0.311328	-0.311159
O24	O	-0.404642	0.811328	0.188841
O25	O	-1.024691	0.402239	-0.522155
O26	O	-0.524691	0.902239	-0.022155
O27	O	-0.904607	0.402261	-0.402107
O28	O	-0.404607	0.902261	0.097893
O29	O	-1.115713	0.311289	-0.522167
O30	O	-0.615713	0.811289	-0.022167
O31	O	-1.115534	0.522386	-0.311103
O32	O	-0.615534	1.022386	0.188897
O33	O	-1.024589	0.522338	-0.402075
O34	O	-0.524589	1.022338	0.097925
C35	C	-0.877754	0.356791	-0.356636
C36	C	-0.377754	0.856791	0.143364
C37	C	-0.795440	0.356795	-0.356659
C38	C	-0.295440	0.856795	0.143341
C39	C	-1.070065	0.549233	-0.356600
C40	C	-0.570065	1.049233	0.143400
C41	C	-1.070091	0.631547	-0.356615
C42	C	-0.570091	1.131547	0.143385
C43	C	-0.496349	0.356835	-0.356634
C44	C	0.003651	0.856835	0.143366
C45	C	-0.527676	0.414325	-0.413573
C46	C	-0.027676	0.914325	0.086427
C47	C	-0.613295	0.414146	-0.413805
C48	C	-0.113295	0.914146	0.086195
C49	C	-0.644731	0.356816	-0.356647
C50	C	-0.144731	0.856816	0.143353
C51	C	-0.613677	0.278811	-0.377973
C52	C	-0.113677	0.778811	0.122027
C53	C	-0.528032	0.279155	-0.378379
C54	C	-0.028032	0.779155	0.121621
C55	C	-0.527896	0.376662	-0.278231
C56	C	-0.027896	0.876662	0.221769
C57	C	-0.613546	0.378374	-0.278649
C58	C	-0.113546	0.878374	0.221351
C59	C	-0.728591	0.356800	-0.356652
C60	C	-0.228591	0.856800	0.143348
C61	C	-0.412489	0.356845	-0.356630
C62	C	0.087511	0.856845	0.143370
C63	C	-1.070208	0.356755	-0.549783
C64	C	-0.570208	0.856755	-0.049783
C65	C	-1.070227	0.356726	-0.632097
C66	C	-0.570227	0.856726	-0.132097
C67	C	-0.263326	0.356851	-0.356613
C68	C	0.236674	0.856851	0.143387
C69	C	-0.345640	0.356855	-0.356622
C70	C	0.154360	0.856855	0.143378
C71	C	-1.070284	0.163660	-0.356659
C72	C	-0.570284	0.663660	0.143341
C73	C	-1.070335	0.081346	-0.356676
C74	C	-0.570335	0.581346	0.143324
C75	C	-1.070253	0.930638	-0.356655
C76	C	-0.570253	1.430638	0.143345
C77	C	-1.013166	0.899314	-0.414034
C78	C	-0.513166	1.399314	0.085966
C79	C	-1.012895	0.813696	-0.413855
C80	C	-0.512895	1.313696	0.086145
C81	C	-1.070172	0.782255	-0.356636
C82	C	-0.570172	1.282255	0.143364
C83	C	-1.049043	0.813410	-0.278590
C84	C	-0.549043	1.313410	0.221410
C85	C	-1.048675	0.899055	-0.278933
C86	C	-0.548675	1.399055	0.221067
C87	C	-1.148595	0.898987	-0.376634
C88	C	-0.648595	1.398987	0.123366
C89	C	-1.148134	0.813336	-0.378346
C90	C	-0.648134	1.313336	0.121654
C91	C	-1.070128	0.698396	-0.356620
C92	C	-0.570128	1.198396	0.143380
C93	C	-1.070296	1.014497	-0.356665
C94	C	-0.570296	1.514497	0.143335
C95	C	-1.070267	0.356680	-0.931189
C96	C	-0.570267	0.856680	-0.431189
C97	C	-1.127724	0.299658	-0.899871
C98	C	-0.627724	0.799658	-0.399871
C99	C	-1.127545	0.299446	-0.814252
C100	C	-0.627545	0.799446	-0.314252
C101	C	-1.070248	0.356703	-0.782806
C102	C	-0.570248	0.856703	-0.282806
C103	C	-0.992231	0.335492	-0.813893
C104	C	-0.492231	0.835492	-0.313893
C105	C	-0.992575	0.335065	-0.899539
C106	C	-0.492575	0.835065	-0.399539
C107	C	-1.090140	0.435059	-0.899599
C108	C	-0.590140	0.935059	-0.399599
C109	C	-1.091852	0.434659	-0.813949
C110	C	-0.591852	0.934659	-0.313949
C111	C	-1.070232	0.356717	-0.698946
C112	C	-0.570232	0.856717	-0.198946
C113	C	-1.070277	0.356664	-1.015048
C114	C	-0.570277	0.856664	-0.515048
C115	C	-1.070163	0.356836	-0.164211
C116	C	-0.570163	0.856836	0.335789
C117	C	-1.070288	0.356656	-0.081897
C118	C	-0.570288	0.856656	0.418103
H119	H	-0.507061	0.472357	-0.400357
H120	H	-0.007061	0.972357	0.099643
H121	H	-0.948309	0.374790	-0.920255
H122	H	-0.448309	0.874790	-0.420255
N123	N	-0.640370	0.329646	-0.222571
N124	N	-0.140370	0.829646	0.277429
N125	N	-0.595947	0.292358	-0.185126
N126	N	-0.095947	0.792358	0.314874
H127	H	-0.614890	0.257936	-0.145524
H128	H	-0.114890	0.757936	0.354476
H129	H	-1.026114	0.792629	-0.471725
H130	H	-0.526114	1.292629	0.028275
H131	H	-0.955450	0.920896	-0.400967
H132	H	-0.455450	1.420896	0.099033
H133	H	-0.506166	0.401372	-0.471328
H134	H	-0.006166	0.901372	0.028672
H135	H	-1.026254	0.919859	-0.472092
H136	H	-0.526254	1.419859	0.027908
H137	H	-1.089314	0.793047	-0.234673
H138	H	-0.589314	1.293047	0.265327
N139	N	-0.937052	0.385969	-0.788338
N140	N	-0.437052	0.885969	-0.288338
N141	N	-0.871227	0.377779	-0.807513
N142	N	-0.371227	0.877779	-0.307513
H143	H	-0.832256	0.413428	-0.789463
H144	H	-0.332256	0.913428	-0.289463
H145	H	-0.506282	0.432569	-0.258851
H146	H	-0.006282	0.932569	0.241149
H147	H	-0.975728	0.277770	-0.919531
H148	H	-0.475728	0.777770	-0.419531
N149	N	-1.172757	0.926024	-0.446809
N150	N	-0.672757	1.426024	0.053191
N151	N	-1.132525	0.968954	-0.482951
N152	N	-0.632525	1.468954	0.017049
H153	H	-1.149582	0.988051	-0.532514
H154	H	-0.649582	1.488051	-0.032514
H155	H	-0.975078	0.278834	-0.792457
H156	H	-0.475078	0.778834	-0.292457
H157	H	-0.507637	0.334786	-0.235807
H158	H	-0.007637	0.834786	0.264193
N159	N	-1.160283	0.459253	-0.926697
N160	N	-0.660283	0.959253	-0.426697
N161	N	-1.196481	0.419018	-0.969626
N162	N	-0.696481	0.919018	-0.469626
H163	H	-1.246023	0.436097	-0.988765
H164	H	-0.746023	0.936097	-0.488765
H165	H	-0.954826	0.793268	-0.400621
H166	H	-0.454826	1.293268	0.099379
H167	H	-1.149265	0.450653	-0.793629
H168	H	-0.649265	0.950653	-0.293629
H169	H	-1.114391	0.241381	-0.793780
H170	H	-0.614391	0.741381	-0.293780
H171	H	-0.991407	0.919094	-0.262007
H172	H	-0.491407	1.419094	0.237993
H173	H	-1.088451	0.919779	-0.234725
H174	H	-0.588451	1.419779	0.265275
H175	H	-0.992382	0.792021	-0.261360
H176	H	-0.492382	1.292021	0.238640
H177	H	-1.048295	0.477546	-0.919858
H178	H	-0.548295	0.977546	-0.419858
H179	H	-0.634041	0.234816	-0.337794
H180	H	-0.134041	0.734816	0.162206
H181	H	-1.192917	0.791930	-0.339599
H182	H	-0.692917	1.291930	0.160401
H183	H	-1.185396	0.312729	-0.793234
H184	H	-0.685396	0.812729	-0.293234
N185	N	-1.168117	0.787785	-0.450401
N186	N	-0.668117	1.287785	0.049599
N187	N	-1.125142	0.746834	-0.485674
N188	N	-0.625142	1.246834	0.014326
H189	H	-1.139252	0.728785	-0.536564
H190	H	-0.639252	1.228785	-0.036564
H191	H	-0.635142	0.261692	-0.434665
H192	H	-0.135142	0.761692	0.065335
N193	N	-1.201956	0.924413	-0.324221
N194	N	-0.701956	1.424413	0.175779
N195	N	-1.255900	0.961972	-0.345329
N196	N	-0.755900	1.461972	0.154671
H197	H	-1.293581	0.979934	-0.308311
H198	H	-0.793581	1.479934	0.191689
N199	N	-0.639626	0.486714	-0.397040
N200	N	-0.139626	0.986714	0.102960
N201	N	-0.594750	0.537847	-0.385086
N202	N	-0.094750	1.037847	0.114914
H203	H	-0.613343	0.589102	-0.373249
H204	H	-0.113343	1.089102	0.126751
N205	N	-0.502019	0.223602	-0.328629
N206	N	-0.002019	0.723602	0.171371
N207	N	-0.462353	0.241210	-0.274894
N208	N	0.037647	0.741210	0.225106
H209	H	-0.443984	0.201974	-0.239761
H210	H	0.056016	0.701974	0.260239
H211	H	-0.633797	0.401027	-0.471896
H212	H	-0.133797	0.901027	0.028104
H213	H	-1.053046	0.479428	-0.792540
H214	H	-0.553046	0.979428	-0.292540
H215	H	-1.185764	0.312777	-0.920462
H216	H	-0.685764	0.812777	-0.420462
N217	N	-0.502972	0.258080	-0.450281
N218	N	-0.002972	0.758080	0.049719
N219	N	-0.435308	0.254530	-0.463583
N220	N	0.064692	0.754530	0.036417
H221	H	-0.417611	0.239649	-0.514366
H222	H	0.082389	0.739649	-0.014366
N223	N	-1.111438	0.227222	-0.926892
N224	N	-0.611438	0.727222	-0.426892
N225	N	-1.111629	0.214828	-0.994831
N226	N	-0.611629	0.714828	-0.494831
H227	H	-1.100125	0.163671	-1.013917
H228	H	-0.600125	0.663671	-0.513917
N229	N	-0.639004	0.450390	-0.258485
N230	N	-0.139004	0.950390	0.241515
N231	N	-0.679966	0.485746	-0.301358
N232	N	-0.179966	0.985746	0.198642
H233	H	-0.697951	0.536608	-0.287120
H234	H	-0.197951	1.036608	0.212880
