data_functionalizedCrystal
_audit_creation_method	'MofGen! by Chris Wilmer'
_symmetry_space_group_name_H-M	'P1'
_symmetry_Int_Tables_number	1
_symmetry_cell_setting	triclinic
loop_
_symmetry_equiv_pos_as_xyz
  x,y,z
_cell_length_a	12.827893
_cell_length_b	14.908520
_cell_length_c	14.908854
_cell_angle_alpha	89.778335
_cell_angle_beta	93.280202
_cell_angle_gamma	93.320575
loop_
_atom_site_label
_atom_site_type_symbol
_atom_site_fract_x
_atom_site_fract_y
_atom_site_fract_z
Zn1	Zn	1.540281	-0.328613	-0.529007
Zn2	Zn	1.538996	-0.487666	-0.387321
Zn3	Zn	1.374993	-0.337325	-0.378670
Zn4	Zn	1.354862	-0.478933	-0.537634
O5	O	1.452283	-0.408134	-0.458158
O6	O	1.686346	-0.349721	-0.510222
O7	O	1.525128	-0.475025	-0.260350
O8	O	1.405881	-0.210342	-0.391382
O9	O	1.685402	-0.466577	-0.406126
O10	O	1.527318	-0.203942	-0.501834
O11	O	1.404635	-0.364570	-0.253994
O12	O	1.226088	-0.356101	-0.399747
O13	O	1.371571	-0.451691	-0.662313
O14	O	1.211298	-0.460139	-0.516537
O15	O	1.507798	-0.341252	-0.655975
O16	O	1.505608	-0.612335	-0.414491
O17	O	1.370326	-0.605919	-0.524925
C18	C	1.180776	-0.408118	-0.458140
C19	C	1.064621	-0.408132	-0.458155
C20	C	1.005544	-0.459703	-0.515867
C21	C	0.885492	-0.459718	-0.515884
C22	C	1.435670	-0.641751	-0.471602
C23	C	1.428657	-0.741692	-0.477384
C24	C	1.556479	-0.936106	-0.373346
C25	C	1.549893	-1.030009	-0.378775
C26	C	1.408904	-1.023403	-0.493676
C27	C	1.415490	-0.929500	-0.488247
C28	C	1.489279	-0.885855	-0.428079
C29	C	1.495860	-0.791950	-0.422645
C30	C	1.354876	-0.785345	-0.537550
C31	C	1.348290	-0.879249	-0.542980
C32	C	1.724851	-0.408152	-0.458177
C33	C	1.841003	-0.408159	-0.458185
C34	C	1.437583	-0.394526	-0.692681
C35	C	1.431318	-0.388727	-0.792621
C36	C	1.468988	-0.173604	-0.444681
C37	C	1.476107	-0.073661	-0.438937
C38	C	1.545040	-0.492844	-0.987038
C39	C	1.539157	-0.487398	-1.080940
C40	C	1.413676	-0.372385	-1.074330
C41	C	1.419559	-0.377831	-0.980427
C42	C	1.485242	-0.438063	-0.936785
C43	C	1.491118	-0.443513	-0.842881
C44	C	1.365643	-0.328496	-0.836271
C45	C	1.359761	-0.323050	-0.930174
C46	C	1.466991	-0.421625	-0.224544
C47	C	1.473476	-0.427171	-0.124590
H48	H	1.026320	-0.363987	-0.408761
H49	H	1.348836	-1.058955	-0.542668
O50	O	1.349769	-0.313998	-1.116785
C51	C	1.202973	-0.295724	-1.222175
C52	C	1.275249	-0.361951	-1.174137
H53	H	1.142720	-0.334465	-1.268569
H54	H	1.161159	-0.257509	-1.170177
H55	H	1.251592	-0.246152	-1.263389
H56	H	1.226707	-0.411577	-1.132925
H57	H	1.317068	-0.400100	-1.226180
O58	O	0.825033	-0.512341	-0.574956
C59	C	0.778731	-0.547288	-0.730335
C60	C	0.847283	-0.487646	-0.663531
H61	H	0.796679	-0.527332	-0.801962
H62	H	0.795989	-0.620715	-0.718692
H63	H	0.692709	-0.537931	-0.719799
H64	H	0.933327	-0.496925	-0.674027
H65	H	0.829935	-0.414241	-0.675191
H66	H	0.891773	-0.364007	-0.408770
H67	H	1.306286	-0.274009	-0.965720
O68	O	1.608917	-0.551378	-0.944779
C69	C	1.732683	-0.664940	-0.961246
C70	C	1.660408	-0.598670	-1.009215
H71	H	1.774316	-0.703207	-1.013322
H72	H	1.793088	-0.626261	-0.914939
H73	H	1.684088	-0.714461	-0.919959
H74	H	1.708917	-0.549134	-1.050551
H75	H	1.600000	-0.637409	-1.055470
O76	O	1.567624	-0.749691	-0.364179
C77	C	1.706729	-0.766162	-0.250750
C78	C	1.625518	-0.814129	-0.316937
H79	H	1.753543	-0.818239	-0.212523
H80	H	1.761897	-0.719770	-0.289487
H81	H	1.664811	-0.724957	-0.201192
H82	H	1.667348	-0.855382	-0.366510
H83	H	1.570355	-0.860467	-0.278141
O84	O	1.554852	-0.502139	-0.800589
C85	C	1.596458	-0.656761	-0.780604
C86	C	1.524217	-0.590465	-0.828574
H87	H	1.571702	-0.728189	-0.803198
H88	H	1.680700	-0.639973	-0.798184
H89	H	1.590410	-0.651200	-0.704859
H90	H	1.530173	-0.595990	-0.904329
H91	H	1.440006	-0.607273	-0.810922
H92	H	1.316950	-0.283891	-0.795345
O93	O	1.597364	-0.540481	-1.129788
C94	C	1.730913	-0.546426	-1.236541
C95	C	1.665073	-0.486205	-1.181257
H96	H	1.785656	-0.502569	-1.278182
H97	H	1.778942	-0.590387	-1.189252
H98	H	1.676820	-0.590915	-1.283165
H99	H	1.719089	-0.441661	-1.134629
H100	H	1.617033	-0.442303	-1.228599
O101	O	1.628236	-0.893845	-0.314875
C102	C	1.767321	-0.910307	-0.201424
C103	C	1.686124	-0.958279	-0.267622
H104	H	1.814130	-0.962382	-0.163189
H105	H	1.822495	-0.863915	-0.240155
H106	H	1.725390	-0.869103	-0.151875
H107	H	1.727966	-0.999532	-0.317186
H108	H	1.630954	-1.004618	-0.228832
H109	H	1.043845	-0.503841	-0.565267
H110	H	1.288216	-0.914797	-0.591970
O111	O	1.615302	-1.078840	-0.325751
C112	C	1.749738	-1.185439	-0.319943
C113	C	1.675709	-1.130184	-0.380089
H114	H	1.798582	-1.226979	-0.363851
H115	H	1.803677	-1.138130	-0.276048
H116	H	1.701700	-1.232163	-0.275394
H117	H	1.723664	-1.083456	-0.424693
H118	H	1.621768	-1.177544	-0.423924
O119	O	1.289704	-0.736393	-0.590687
C120	C	1.237313	-0.588806	-0.633201
C121	C	1.311201	-0.644133	-0.572994
H122	H	1.254653	-0.514205	-0.618905
H123	H	1.249757	-0.602950	-0.706800
H124	H	1.152768	-0.608316	-0.618427
H125	H	1.395774	-0.624655	-0.587690
H126	H	1.298667	-0.629984	-0.499414
