data_functionalizedCrystal
_audit_creation_method	'MofGen! by Chris Wilmer'
_symmetry_space_group_name_H-M	'P1'
_symmetry_Int_Tables_number	1
_symmetry_cell_setting	triclinic
loop_
_symmetry_equiv_pos_as_xyz
  x,y,z
_cell_length_a	10.654549
_cell_length_b	19.288865
_cell_length_c	17.766277
_cell_angle_alpha	90.011603
_cell_angle_beta	89.991091
_cell_angle_gamma	96.188417
loop_
_atom_site_label
_atom_site_type_symbol
_atom_site_fract_x
_atom_site_fract_y
_atom_site_fract_z
O1	O	1.665759	-0.097572	-0.062597
O2	O	1.300082	-0.106863	-0.062601
O3	O	1.493487	-0.001156	-0.062584
O4	O	1.472354	-0.203278	-0.062614
O5	O	1.493453	-0.001151	0.062605
O6	O	1.300048	-0.106857	0.062588
O7	O	1.665725	-0.097566	0.062592
Cu8	Cu	1.482883	-0.102211	0.074021
Cu9	Cu	1.482923	-0.102218	-0.074029
O10	O	1.472320	-0.203273	0.062575
C11	C	1.253282	-0.106177	-0.000007
C12	C	1.113882	-0.104134	-0.000008
C13	C	1.492790	0.024727	0.000013
C14	C	1.490748	0.101844	0.000019
C15	C	1.712525	-0.098252	-0.000004
C16	C	1.851924	-0.100295	-0.000008
C17	C	2.144532	0.022270	0.000002
C18	C	2.094369	0.086432	0.000011
C19	C	1.963392	0.088354	0.000015
C20	C	1.882574	0.026107	0.000007
C21	C	1.932738	-0.038055	-0.000002
C22	C	2.063719	-0.039970	-0.000004
C23	C	1.902088	-0.164457	-0.000017
C24	C	2.033064	-0.166381	-0.000016
C25	C	1.821270	-0.226704	-0.000025
C26	C	1.871433	-0.290868	-0.000029
C27	C	2.002419	-0.292788	-0.000032
C28	C	2.083228	-0.230543	-0.000025
C29	C	1.473017	-0.229156	-0.000023
C30	C	1.475058	-0.306273	-0.000035
N31	N	1.482864	-0.102206	0.178151
C32	C	1.604230	0.145796	0.000024
C33	C	1.602312	0.218256	0.000012
C34	C	1.486907	0.246760	0.000011
C35	C	1.373411	0.202799	0.000002
C36	C	1.375332	0.130341	0.000006
C37	C	1.396173	0.355645	0.043861
C38	C	1.394257	0.428102	0.043861
C39	C	1.480977	0.470245	-0.000006
C40	C	1.569635	0.439924	-0.043864
C41	C	1.571556	0.367465	-0.043859
C42	C	1.484811	0.325328	0.000005
C43	C	1.592387	0.592767	-0.000015
C44	C	1.590464	0.665227	-0.000032
C45	C	1.361560	0.649768	-0.000035
C46	C	1.363486	0.577309	-0.000026
C47	C	1.478903	0.548813	-0.000013
N48	N	1.482952	-0.102217	-0.178160
C49	C	1.568531	-0.055423	0.217545
C50	C	1.568539	-0.055419	0.296347
C51	C	1.482891	-0.102212	0.335751
C52	C	1.397208	-0.148999	0.296347
C53	C	1.397194	-0.148996	0.217547
C54	C	1.466079	-0.165389	0.460580
C55	C	1.466101	-0.165393	0.539379
C56	C	1.482924	-0.102220	0.578798
C57	C	1.499752	-0.039041	0.539408
C58	C	1.499739	-0.039039	0.460608
C59	C	1.482895	-0.102220	0.421197
C60	C	1.568604	-0.055430	0.703638
C61	C	1.568603	-0.055425	0.782441
C62	C	1.397277	-0.149011	0.782440
C63	C	1.397273	-0.149009	0.703638
C64	C	1.482943	-0.102219	0.664242
H65	H	2.251182	0.020711	0.000008
Br66	Br	2.260986	-0.233143	-0.000007
Br67	Br	1.761750	-0.375337	-0.000051
H68	H	2.160185	0.137112	0.000016
H69	H	1.327519	-0.187107	0.671561
Br70	Br	1.684810	0.008079	0.349821
Br71	Br	1.756333	0.277917	0.000016
Br72	Br	1.522564	0.046700	0.407152
H73	H	1.267595	0.672975	-0.000040
Br74	Br	1.684865	0.008072	0.650170
H75	H	2.043252	-0.345037	-0.000040
Br76	Br	1.443372	-0.251134	0.407091
Br77	Br	1.760866	0.107126	0.000022
Br78	Br	1.221309	0.070687	-0.000003
Br79	Br	1.443278	-0.251135	0.592828
Br80	Br	1.895307	0.175432	0.000024
Br81	Br	1.687338	0.497109	-0.103401
H82	H	1.327432	-0.187093	0.185471
H83	H	1.327470	-0.187097	0.328434
H84	H	1.513451	0.012400	0.571501
Br85	Br	1.704819	0.028717	-0.000009
H86	H	1.686366	0.569564	-0.000008
Br87	Br	1.643514	-0.224097	-0.000032
H88	H	1.279447	0.226011	-0.000002
Br89	Br	1.691865	0.326316	-0.103381
Br90	Br	1.744489	0.724879	-0.000033
H91	H	1.325551	0.321337	0.079586
Br92	Br	1.209467	0.517655	-0.000032
H93	H	1.322061	0.452783	0.079568
H94	H	1.638286	-0.017322	0.185471
Br95	Br	1.684863	0.008077	0.835910
Br96	Br	1.281026	-0.212508	0.835911
