data_functionalizedCrystal
_audit_creation_method	'MofGen! by Chris Wilmer'
_symmetry_space_group_name_H-M	'P1'
_symmetry_Int_Tables_number	1
_symmetry_cell_setting	triclinic
loop_
_symmetry_equiv_pos_as_xyz
  x,y,z
_cell_length_a	16.109317
_cell_length_b	14.586319
_cell_length_c	16.109301
_cell_angle_alpha	89.994786
_cell_angle_beta	83.464848
_cell_angle_gamma	90.001084
loop_
_atom_site_label
_atom_site_type_symbol
_atom_site_fract_x
_atom_site_fract_y
_atom_site_fract_z
O1	O	-1.103122	0.076146	-0.106931
O2	O	-0.603122	0.576146	0.393069
O3	O	-0.861062	0.076169	-0.120216
O4	O	-0.361062	0.576169	0.379784
O5	O	-0.988742	0.076147	0.007457
O6	O	-0.488742	0.576147	0.507457
O7	O	-0.975443	0.076167	-0.234604
O8	O	-0.475443	0.576167	0.265396
O9	O	-0.988733	-0.076333	0.007459
O10	O	-0.488733	0.423667	0.507459
O11	O	-0.861053	-0.076312	-0.120214
O12	O	-0.361053	0.423688	0.379786
O13	O	-1.103113	-0.076335	-0.106929
O14	O	-0.603113	0.423665	0.393071
Cu15	Cu	-0.982083	-0.090246	-0.113572
Cu16	Cu	-0.482083	0.409754	0.386428
Cu17	Cu	-0.982093	0.090080	-0.113574
Cu18	Cu	-0.482093	0.590080	0.386426
O19	O	-0.975434	-0.076313	-0.234603
O20	O	-0.475434	0.423687	0.265397
C21	C	-0.830083	-0.000068	-0.119675
C22	C	-0.330083	0.499932	0.380325
C23	C	-0.737788	-0.000060	-0.118054
C24	C	-0.237788	0.499940	0.381946
N25	N	-0.982081	-0.217078	-0.113570
N26	N	-0.482081	0.282922	0.386430
C27	C	-0.438719	0.083047	-0.112821
C28	C	0.061281	0.583047	0.387179
C29	C	-0.525441	0.083051	-0.114338
C30	C	-0.025441	0.583051	0.385662
C31	C	-0.525450	-0.083192	-0.114325
C32	C	-0.025450	0.416808	0.385675
C33	C	-0.438731	-0.083195	-0.112802
C34	C	0.061269	0.416805	0.387198
C35	C	-0.395367	-0.000073	-0.112054
C36	C	0.104633	0.499927	0.387946
C37	C	-0.568808	-0.000066	-0.115095
C38	C	-0.068808	0.499934	0.384905
C39	C	-0.662835	-0.000062	-0.116740
C40	C	-0.162835	0.499938	0.383260
C41	C	-0.301335	-0.000076	-0.110408
C42	C	0.198665	0.499924	0.389592
C43	C	-1.038636	-0.452094	-0.057055
C44	C	-0.538636	0.047906	0.442945
C45	C	-1.038639	-0.548075	-0.057053
C46	C	-0.538639	-0.048075	0.442947
C47	C	-0.925540	-0.548065	-0.170087
C48	C	-0.425540	-0.048065	0.329913
C49	C	-0.925534	-0.452086	-0.170084
C50	C	-0.425534	0.047914	0.329916
C51	C	-0.982087	-0.404103	-0.113569
C52	C	-0.482087	0.095897	0.386431
C53	C	-0.982095	-0.596063	-0.113570
C54	C	-0.482095	-0.096063	0.386430
C55	C	-0.982097	-0.700131	-0.113568
C56	C	-0.482097	-0.200131	0.386432
C57	C	-0.982084	-0.300029	-0.113570
C58	C	-0.482084	0.199971	0.386430
C59	C	-0.134092	-0.000091	-0.107472
C60	C	0.365908	0.499909	0.392528
C61	C	-0.226387	-0.000079	-0.109095
C62	C	0.273613	0.499921	0.390905
C63	C	-0.988199	-0.000093	0.038433
C64	C	-0.488199	0.499907	0.538433
C65	C	-0.986584	-0.000095	0.130728
C66	C	-0.486584	0.499905	0.630728
N67	N	-0.982101	0.216912	-0.113570
N68	N	-0.482101	0.716912	0.386430
C69	C	-0.975977	-0.000071	-0.265578
C70	C	-0.475977	0.499929	0.234422
C71	C	-0.977592	-0.000063	-0.357874
C72	C	-0.477592	0.499937	0.142126
C73	C	-1.058591	-0.000087	0.352996
C74	C	-0.558591	0.499913	0.852996
C75	C	-1.057067	-0.000079	0.439717
C76	C	-0.557067	0.499921	0.939717
C77	C	-0.905579	-0.000068	0.419851
C78	C	-0.405579	0.499932	0.919851
C79	C	-0.907104	-0.000069	0.333132
C80	C	-0.407104	0.499931	0.833132
C81	C	-0.983612	-0.000083	0.299707
C82	C	-0.483612	0.499917	0.799707
C83	C	-0.980563	-0.000075	0.473147
C84	C	-0.480563	0.499925	0.973147
C85	C	-0.978910	-0.000066	0.567173
C86	C	-0.478910	0.499934	1.067173
C87	C	-0.985266	-0.000090	0.205675
C88	C	-0.485266	0.499910	0.705675
H89	H	-0.560734	0.150736	-0.114962
H90	H	-0.060734	0.650736	0.385038
H91	H	-0.403416	0.150730	-0.112211
H92	H	0.096584	0.650730	0.387789
O93	O	-1.129845	-0.000206	0.491566
O94	O	-0.629845	0.499794	0.991566
C95	C	-1.216062	-0.079228	0.600979
C96	C	-0.716062	0.420772	1.100979
C97	C	-1.133597	-0.079191	0.542321
C98	C	-0.633597	0.420809	1.042321
H99	H	-1.219130	-0.143090	0.642016
H100	H	-0.719130	0.356910	1.142016
H101	H	-1.219149	-0.015455	0.642123
H102	H	-0.719149	0.484545	1.142123
H103	H	-1.270989	-0.079192	0.562173
H104	H	-0.770989	0.420808	1.062173
H105	H	-1.078624	-0.079259	0.581060
H106	H	-0.578624	0.420741	1.081060
H107	H	-1.130584	-0.142958	0.501173
H108	H	-0.630584	0.357042	1.001173
H109	H	-0.846044	-0.000064	0.289742
H110	H	-0.346044	0.499936	0.789742
H111	H	-0.560767	-0.150867	-0.114935
H112	H	-0.060767	0.349133	0.385065
H113	H	-0.403433	-0.150885	-0.112177
H114	H	0.096567	0.349115	0.387823
H115	H	-1.084684	-0.413028	-0.011036
H116	H	-0.584684	0.086972	0.488964
H117	H	-1.120889	-0.000097	0.325785
H118	H	-0.620889	0.499903	0.825785
H119	H	-1.084685	-0.587147	-0.011033
H120	H	-0.584685	-0.087147	0.488967
O121	O	-0.870578	-0.594782	-0.224873
O122	O	-0.370578	-0.094782	0.275127
C123	C	-0.757011	-0.703112	-0.242535
C124	C	-0.257011	-0.203112	0.257465
C125	C	-0.819220	-0.650282	-0.180397
C126	C	-0.319220	-0.150282	0.319603
H127	H	-0.715460	-0.747982	-0.206601
H128	H	-0.215460	-0.247982	0.293399
H129	H	-0.792853	-0.748100	-0.284071
H130	H	-0.292853	-0.248100	0.215929
H131	H	-0.716627	-0.652307	-0.282944
H132	H	-0.216627	-0.152307	0.217056
H133	H	-0.859619	-0.701021	-0.139933
H134	H	-0.359619	-0.201021	0.360067
H135	H	-0.783327	-0.605280	-0.138919
H136	H	-0.283327	-0.105280	0.361081
O137	O	-0.870568	-0.405603	-0.225067
O138	O	-0.370568	0.094397	0.274933
C139	C	-0.758355	-0.415714	-0.337147
C140	C	-0.258355	0.084286	0.162853
C141	C	-0.820570	-0.468469	-0.274945
C142	C	-0.320570	0.031531	0.225055
H143	H	-0.717903	-0.466518	-0.377478
H144	H	-0.217903	0.033482	0.122522
H145	H	-0.794190	-0.370794	-0.378749
H146	H	-0.294190	0.129206	0.121251
H147	H	-0.716871	-0.370762	-0.301216
H148	H	-0.216871	0.129238	0.198784
H149	H	-0.862070	-0.513471	-0.310808
H150	H	-0.362070	-0.013471	0.189192
H151	H	-0.784683	-0.513331	-0.233344
H152	H	-0.284683	-0.013331	0.266656
O153	O	-0.831335	-0.000104	0.452461
O154	O	-0.331335	0.499896	0.952461
C155	C	-0.761847	-0.000050	0.577251
C156	C	-0.261847	0.499950	1.077251
C157	C	-0.845988	-0.000027	0.540435
C158	C	-0.345988	0.499973	1.040435
H159	H	-0.773665	0.000032	0.648383
H160	H	-0.273665	0.500032	1.148383
H161	H	-0.724783	-0.063876	0.555366
H162	H	-0.224783	0.436124	1.055366
H163	H	-0.724797	0.063750	0.555249
H164	H	-0.224797	0.563750	1.055249
H165	H	-0.883105	-0.063783	0.562421
H166	H	-0.383105	0.436217	1.062421
H167	H	-0.882988	0.063842	0.562315
H168	H	-0.382988	0.563842	1.062315
