data_functionalizedCrystal
_audit_creation_method	'MofGen! by Chris Wilmer'
_symmetry_space_group_name_H-M	'P1'
_symmetry_Int_Tables_number	1
_symmetry_cell_setting	triclinic
loop_
_symmetry_equiv_pos_as_xyz
  x,y,z
_cell_length_a	13.033293
_cell_length_b	16.625539
_cell_length_c	13.032721
_cell_angle_alpha	97.155047
_cell_angle_beta	105.184121
_cell_angle_gamma	82.793394
loop_
_atom_site_label
_atom_site_type_symbol
_atom_site_fract_x
_atom_site_fract_y
_atom_site_fract_z
Zn1	Zn	1.570163	-0.631277	-0.216855
Zn2	Zn	1.903496	-0.297944	0.116478
Zn3	Zn	2.236830	0.035389	0.449812
Zn4	Zn	1.547489	-0.511621	-0.394493
Zn5	Zn	1.880822	-0.178288	-0.061160
Zn6	Zn	2.214156	0.155045	0.272174
Zn7	Zn	1.392537	-0.481233	-0.239421
Zn8	Zn	1.725871	-0.147900	0.093912
Zn9	Zn	2.059204	0.185433	0.427246
Zn10	Zn	1.369942	-0.631185	-0.416961
Zn11	Zn	1.703275	-0.297851	-0.083628
Zn12	Zn	2.036608	0.035482	0.249706
O13	O	1.470033	-0.563829	-0.316933
O14	O	1.803366	-0.230496	0.016401
O15	O	2.136699	0.102837	0.349734
O16	O	1.715796	-0.628161	-0.221572
O17	O	2.049130	-0.294828	0.111761
O18	O	2.382463	0.038505	0.445094
O19	O	1.526902	-0.394759	-0.373964
O20	O	1.860235	-0.061425	-0.040630
O21	O	2.193568	0.271908	0.292703
O22	O	1.435045	-0.488458	-0.087785
O23	O	1.768379	-0.155125	0.245549
O24	O	2.101712	0.178208	0.578882
O25	O	1.699138	-0.540250	-0.352082
O26	O	2.032471	-0.206917	-0.018749
O27	O	2.365805	0.126416	0.314584
O28	O	1.565546	-0.598695	-0.071205
O29	O	1.898879	-0.265362	0.262128
O30	O	2.232213	0.067972	0.595461
O31	O	1.413059	-0.372433	-0.260033
O32	O	1.746393	-0.039099	0.073300
O33	O	2.079726	0.294234	0.406634
O34	O	1.240899	-0.488368	-0.281819
O35	O	1.574232	-0.155035	0.051514
O36	O	1.907566	0.178298	0.384848
O37	O	1.396534	-0.744029	-0.390375
O38	O	1.729868	-0.410695	-0.057042
O39	O	2.063201	-0.077362	0.276291
O40	O	1.224298	-0.598537	-0.412257
O41	O	1.557631	-0.265204	-0.078923
O42	O	1.890965	0.068130	0.254410
O43	O	1.543636	-0.744097	-0.243358
O44	O	1.876969	-0.410763	0.089975
O45	O	2.210303	-0.077430	0.423308
O46	O	1.504992	-0.540160	-0.546117
O47	O	1.838325	-0.206827	-0.212783
O48	O	2.171658	0.126506	0.120550
O49	O	1.374548	-0.628003	-0.562624
O50	O	1.707882	-0.294670	-0.229290
O51	O	2.041215	0.038664	0.104043
C52	C	1.194057	-0.540146	-0.351925
C53	C	1.527391	-0.206812	-0.018592
C54	C	1.860724	0.126521	0.314741
C55	C	1.075991	-0.530035	-0.366921
C56	C	1.409324	-0.196702	-0.033588
C57	C	1.742657	0.136632	0.299746
C58	C	1.031582	-0.569108	-0.309133
C59	C	1.364915	-0.235775	0.024200
C60	C	1.698249	0.097558	0.357534
C61	C	0.909554	-0.558659	-0.324630
C62	C	1.242887	-0.225326	0.008703
C63	C	1.576221	0.108007	0.342036
C64	C	1.470094	-0.774137	-0.316856
C65	C	1.803427	-0.440803	0.016478
C66	C	2.136760	-0.107470	0.349811
C67	C	1.470120	-0.863757	-0.316823
C68	C	1.803453	-0.530424	0.016510
C69	C	2.136786	-0.197091	0.349844
C70	C	1.470140	-0.936539	-0.316797
C71	C	1.803473	-0.603206	0.016536
C72	C	2.136807	-0.269873	0.349869
C73	C	1.470170	-1.027846	-0.316755
C74	C	1.803503	-0.694513	0.016579
C75	C	2.136837	-0.361180	0.349912
C76	C	1.470200	-1.100622	-0.316714
C77	C	1.803533	-0.767289	0.016619
C78	C	2.136866	-0.433955	0.349952
C79	C	1.470231	-1.191935	-0.316672
C80	C	1.803564	-0.858602	0.016661
C81	C	2.136898	-0.525269	0.349994
C82	C	1.747086	-0.587606	-0.281804
C83	C	2.080419	-0.254273	0.051529
C84	C	2.413752	0.079061	0.384863
C85	C	1.865149	-0.597738	-0.266834
C86	C	2.198483	-0.264405	0.066499
C87	C	2.531816	0.068929	0.399833
C88	C	1.434887	-0.587389	-0.592908
C89	C	1.768220	-0.254056	-0.259575
C90	C	2.101553	0.079277	0.073759
C91	C	1.419948	-0.597504	-0.710959
C92	C	1.753281	-0.264170	-0.377626
C93	C	2.086615	0.069163	-0.044292
C94	C	1.470043	-0.354339	-0.316925
C95	C	1.803376	-0.021005	0.016409
C96	C	2.136710	0.312328	0.349742
C97	C	1.470261	-0.264711	-0.316632
C98	C	1.803594	0.068623	0.016701
C99	C	2.136927	0.401956	0.350035
C100	C	1.477886	-0.558592	-0.755381
C101	C	1.811219	-0.225258	-0.422048
C102	C	2.144552	0.108075	-0.088714
C103	C	1.462447	-0.569044	-0.877393
C104	C	1.795781	-0.235711	-0.544059
C105	C	2.129114	0.097622	-0.210726
C106	C	1.505345	-0.540197	-0.039876
C107	C	1.838679	-0.206864	0.293458
C108	C	2.172012	0.126469	0.626791
C109	C	1.520393	-0.530127	0.078189
C110	C	1.853727	-0.196794	0.411523
C111	C	2.187060	0.136540	0.744856
H112	H	0.917466	-0.638924	-0.205877
H113	H	1.250799	-0.305591	0.127457
H114	H	1.584133	0.027742	0.460790
O115	O	1.601250	-0.475745	-0.852557
O116	O	1.934584	-0.142411	-0.519223
O117	O	2.267917	0.190922	-0.185890
H118	H	1.600688	-0.476064	-0.767592
H119	H	1.934021	-0.142731	-0.434258
H120	H	2.267354	0.190602	-0.100925
O121	O	1.006701	-0.475473	-0.447657
O122	O	1.340034	-0.142140	-0.114323
O123	O	1.673367	0.191194	0.219010
H124	H	0.921728	-0.475832	-0.447164
H125	H	1.255061	-0.142499	-0.113830
H126	H	1.588395	0.190835	0.219503
H127	H	0.857237	-0.517467	-0.385580
H128	H	1.190570	-0.184134	-0.052246
H129	H	1.523903	0.149200	0.281087
O130	O	1.339099	-0.651880	-0.780231
O131	O	1.672432	-0.318546	-0.446897
O132	O	2.005765	0.014787	-0.113564
H133	H	1.359940	-0.714923	-0.756641
H134	H	1.693273	-0.381590	-0.423307
H135	H	2.026607	-0.048256	-0.089974
O136	O	1.558742	-0.504223	-0.686105
O137	O	1.892075	-0.170890	-0.352771
O138	O	2.225408	0.162444	-0.019438
H139	H	1.537918	-0.441179	-0.709695
H140	H	1.871252	-0.107845	-0.376361
H141	H	2.204585	0.225488	-0.043028
O142	O	1.100872	-0.623668	-0.228395
O143	O	1.434206	-0.290335	0.104939
O144	O	1.767539	0.042999	0.438272
H145	H	1.185844	-0.623316	-0.228896
H146	H	1.519177	-0.289983	0.104437
H147	H	1.852511	0.043350	0.437770
H148	H	1.401415	-0.610103	-0.929686
H149	H	1.734749	-0.276770	-0.596353
H150	H	2.068082	0.056564	-0.263020
