data_functionalizedCrystal
_audit_creation_method	'MofGen! by Chris Wilmer'
_symmetry_space_group_name_H-M	'P1'
_symmetry_Int_Tables_number	1
_symmetry_cell_setting	triclinic
loop_
_symmetry_equiv_pos_as_xyz
  x,y,z
_cell_length_a	12.759401
_cell_length_b	16.959454
_cell_length_c	12.759393
_cell_angle_alpha	90.029640
_cell_angle_beta	90.020938
_cell_angle_gamma	90.021600
loop_
_atom_site_label
_atom_site_type_symbol
_atom_site_fract_x
_atom_site_fract_y
_atom_site_fract_z
Zn1	Zn	1.606227	-0.314611	0.594026
Zn2	Zn	1.606102	-0.446810	0.418349
Zn3	Zn	1.430526	-0.314653	0.418362
Zn4	Zn	1.430501	-0.446755	0.593986
O5	O	1.518339	-0.380707	0.506181
O6	O	1.753232	-0.332153	0.570734
O7	O	1.582769	-0.429320	0.271330
O8	O	1.453896	-0.204037	0.441686
O9	O	1.753139	-0.429279	0.441665
O10	O	1.582983	-0.204006	0.570746
O11	O	1.453774	-0.332225	0.271339
O12	O	1.283502	-0.332171	0.441647
O13	O	1.453854	-0.429185	0.741013
O14	O	1.283484	-0.429226	0.570678
O15	O	1.582959	-0.332100	0.741042
O16	O	1.582745	-0.557414	0.441626
O17	O	1.453732	-0.557373	0.570666
C18	C	1.245372	-0.380698	0.506160
C19	C	1.128595	-0.380713	0.506176
C20	C	1.073751	-0.431326	0.573257
C21	C	0.964027	-0.431329	0.573277
C22	C	0.964000	-0.330103	0.439128
C23	C	1.073722	-0.330097	0.439113
C24	C	1.518251	-0.586074	0.506163
C25	C	1.518309	-0.673930	0.506190
C26	C	1.451259	-1.045415	0.573365
C27	C	1.585711	-1.045397	0.439104
C28	C	1.585675	-0.962851	0.439094
C29	C	1.518428	-0.921583	0.506220
C30	C	1.451218	-0.962861	0.573355
C31	C	1.652875	-0.921567	0.371953
C32	C	1.652841	-0.839016	0.371940
C33	C	1.585599	-0.797747	0.439071
C34	C	1.518387	-0.839030	0.506210
C35	C	1.451141	-0.797762	0.573335
C36	C	1.383934	-0.839043	0.640480
C37	C	1.383977	-0.921592	0.640486
C38	C	1.585556	-0.715198	0.439065
C39	C	1.451100	-0.715208	0.573326
C40	C	1.792372	-0.380718	0.506202
C41	C	1.909149	-0.380722	0.506212
C42	C	1.518418	-0.380632	0.780214
C43	C	1.518451	-0.380599	0.896991
C44	C	1.518456	-0.174539	0.506222
C45	C	1.518506	-0.086683	0.506239
C46	C	1.518321	-0.380726	0.233213
C47	C	1.518491	-0.380536	0.116437
C48	C	1.585681	-0.330039	0.951870
C49	C	1.585699	-0.330005	1.061594
C50	C	1.451254	-0.431098	1.061551
C51	C	1.451232	-0.431128	0.951829
H52	H	0.919378	-0.472542	0.627903
C53	C	1.785756	-0.847299	0.239235
C54	C	1.726723	-0.793643	0.298148
H55	H	1.831374	-0.819286	0.193687
H56	H	1.740018	-0.879534	0.199006
H57	H	1.825926	-0.879459	0.285062
H58	H	1.686547	-0.761487	0.252321
H59	H	1.772467	-0.761395	0.338379
C60	C	1.241910	-0.285139	0.379530
C61	C	1.134017	-0.274458	0.365373
H62	H	1.279131	-0.250787	0.334014
H63	H	1.259856	-0.338226	0.364027
H64	H	1.259917	-0.273634	0.450150
H65	H	1.116009	-0.285969	0.294755
H66	H	1.116064	-0.221359	0.380869
H67	H	1.640443	-0.288832	1.106272
C68	C	0.930244	-0.196212	0.388266
C69	C	0.903683	-0.274472	0.365409
H70	H	0.893003	-0.161869	0.342756
H71	H	1.003431	-0.188971	0.378657
H72	H	0.912293	-0.184720	0.458887
H73	H	0.921641	-0.285966	0.294790
H74	H	0.830479	-0.281716	0.375010
H75	H	1.640413	-0.288893	0.907225
H76	H	1.396343	-0.681613	0.627992
H77	H	1.640454	-1.079002	0.384447
C78	C	1.251075	-0.913317	0.773209
C79	C	1.310105	-0.966969	0.714285
H80	H	1.205475	-0.941335	0.818771
H81	H	1.210896	-0.881164	0.727398
H82	H	1.296825	-0.881076	0.813433
H83	H	1.264356	-0.999207	0.674055
H84	H	1.350287	-0.999135	0.760102
H85	H	1.329176	-0.805433	0.695130
H86	H	1.118425	-0.472539	0.627866
H87	H	1.396544	-1.079030	0.628035
C88	C	1.712479	-1.048101	0.312211
C89	C	1.726680	-0.966929	0.298063
H90	H	1.758019	-1.076107	0.266565
H91	H	1.641874	-1.061630	0.296879
H92	H	1.727932	-1.061619	0.382784
H93	H	1.711219	-0.953410	0.227492
H94	H	1.797301	-0.953395	0.313389
C95	C	1.600165	-0.622421	0.297746
C96	C	1.659418	-0.669821	0.365264
H97	H	1.645769	-0.594412	0.252180
H98	H	1.560125	-0.586034	0.337728
H99	H	1.554427	-0.654676	0.257528
H100	H	1.705151	-0.637565	0.405488
H101	H	1.699475	-0.706212	0.325279
C102	C	1.391596	-0.475946	1.229729
C103	C	1.377377	-0.486644	1.121832
H104	H	1.345991	-0.510243	1.266940
H105	H	1.376253	-0.422838	1.247715
H106	H	1.462187	-0.487514	1.247707
H107	H	1.306787	-0.475070	1.103853
H108	H	1.392713	-0.539763	1.103839
H109	H	1.396477	-0.472300	0.907145
