data_functionalizedCrystal
_audit_creation_method	'MofGen! by Chris Wilmer'
_symmetry_space_group_name_H-M	'P1'
_symmetry_Int_Tables_number	1
_symmetry_cell_setting	triclinic
loop_
_symmetry_equiv_pos_as_xyz
  x,y,z
_cell_length_a	19.077236
_cell_length_b	19.121073
_cell_length_c	19.076919
_cell_angle_alpha	94.604058
_cell_angle_beta	89.887323
_cell_angle_gamma	94.857396
loop_
_atom_site_label
_atom_site_type_symbol
_atom_site_fract_x
_atom_site_fract_y
_atom_site_fract_z
Zn1	Zn	1.046913	-0.255828	-0.450992
Zn2	Zn	1.546913	0.244172	0.049008
Zn3	Zn	1.046530	-0.368770	-0.338098
Zn4	Zn	1.546530	0.131230	0.161902
Zn5	Zn	0.934145	-0.255458	-0.328757
Zn6	Zn	1.434145	0.244542	0.171243
Zn7	Zn	0.923931	-0.378172	-0.451221
Zn8	Zn	1.423931	0.121828	0.048779
O9	O	0.987880	-0.314557	-0.392267
O10	O	1.487880	0.185443	0.107733
O11	O	1.145364	-0.267030	-0.439830
O12	O	1.645364	0.232970	0.060170
O13	O	1.035736	-0.349649	-0.238361
O14	O	1.535736	0.150351	0.261639
O15	O	0.953539	-0.156885	-0.340966
O16	O	1.453539	0.343115	0.159034
O17	O	1.145082	-0.350007	-0.356888
O18	O	1.645082	0.149993	0.143112
O19	O	1.036389	-0.157156	-0.430772
O20	O	1.536389	0.342844	0.069228
O21	O	0.953167	-0.266400	-0.231498
O22	O	1.453167	0.233600	0.268502
O23	O	0.834288	-0.275517	-0.341188
O24	O	1.334288	0.224483	0.158812
O25	O	0.936130	-0.366032	-0.549688
O26	O	1.436130	0.133968	-0.049688
O27	O	0.826784	-0.365674	-0.431162
O28	O	1.326784	0.134326	0.068838
O29	O	1.026485	-0.276147	-0.549520
O30	O	1.526485	0.223853	-0.049520
O31	O	1.025832	-0.468640	-0.357110
O32	O	1.525832	0.031360	0.142890
O33	O	0.935759	-0.475547	-0.440220
O34	O	1.435759	0.024453	0.059780
C35	C	0.804996	-0.321576	-0.385186
C36	C	1.304996	0.178424	0.114814
C37	C	0.726756	-0.324596	-0.382175
C38	C	1.226756	0.175404	0.117825
C39	C	0.690139	-0.282888	-0.424015
C40	C	1.190139	0.217112	0.075985
C41	C	0.616625	-0.285722	-0.421179
C42	C	1.116625	0.214278	0.078821
C43	C	0.579728	-0.330269	-0.376506
C44	C	1.079728	0.169731	0.123494
C45	C	0.616349	-0.371980	-0.334661
C46	C	1.116349	0.128020	0.165339
C47	C	0.689863	-0.369141	-0.337494
C48	C	1.189863	0.130859	0.162506
C49	C	0.359851	-0.343380	-0.363392
C50	C	0.859851	0.156620	0.136608
C51	C	0.286333	-0.346217	-0.360564
C52	C	0.786333	0.153783	0.139436
C53	C	0.286614	-0.259958	-0.447082
C54	C	0.786614	0.240042	0.052918
C55	C	0.360128	-0.257127	-0.449914
C56	C	0.860128	0.242873	0.050086
C57	C	0.396743	-0.298834	-0.408066
C58	C	0.896743	0.201166	0.091934
N59	N	0.504584	-0.333169	-0.373608
N60	N	1.004584	0.166831	0.126392
N61	N	0.471886	-0.295930	-0.410961
N62	N	0.971886	0.204070	0.089039
C63	C	0.979664	-0.497665	-0.399720
C64	C	1.479664	0.002335	0.100280
C65	C	0.976212	-0.575998	-0.402934
C66	C	1.476212	-0.075998	0.097066
C67	C	0.954359	-1.019217	-0.423339
C68	C	1.454359	-0.519217	0.076661
C69	C	0.957602	-0.945614	-0.420311
C70	C	1.457602	-0.445614	0.079689
C71	C	1.006152	-0.905196	-0.375560
C72	C	1.506152	-0.405196	0.124440
C73	C	1.051467	-0.938383	-0.333839
C74	C	1.551467	-0.438383	0.166161
C75	C	1.048227	-1.011984	-0.336871
C76	C	1.548227	-0.511984	0.163129
C77	C	1.018287	-0.682787	-0.364245
C78	C	1.518287	-0.182787	0.135755
C79	C	1.021522	-0.609181	-0.361214
C80	C	1.521522	-0.109181	0.138786
C81	C	0.927658	-0.616417	-0.447688
C82	C	1.427658	-0.116417	0.052312
C83	C	0.924419	-0.690019	-0.450713
C84	C	1.424419	-0.190019	0.049287
C85	C	0.969736	-0.723200	-0.408995
C86	C	1.469736	-0.223200	0.091005
C87	C	1.009467	-0.829962	-0.372462
C88	C	1.509467	-0.329962	0.127538
C89	C	0.966424	-0.798432	-0.412097
C90	C	1.466424	-0.298432	0.087903
C91	C	1.171478	-0.307511	-0.399375
C92	C	1.671478	0.192489	0.100625
C93	C	1.249716	-0.304508	-0.402405
C94	C	1.749716	0.195492	0.097595
C95	C	0.980211	-0.322179	-0.575858
C96	C	1.480211	0.177821	-0.075858
C97	C	0.976943	-0.325428	-0.654093
C98	C	1.476943	0.174572	-0.154093
C99	C	0.996146	-0.130734	-0.384801
C100	C	1.496146	0.369266	0.115199
C101	C	0.999669	-0.052399	-0.381620
C102	C	1.499669	0.447601	0.118380
C103	C	1.022448	-0.280157	-0.690762
C104	C	1.522448	0.219843	-0.190762
C105	C	1.019369	-0.283207	-0.764272
C106	C	1.519369	0.216793	-0.264272
C107	C	0.970788	-0.331531	-0.801112
C108	C	1.470788	0.168469	-0.301112
C109	C	0.925278	-0.376803	-0.764438
C110	C	1.425278	0.123197	-0.264438
C111	C	0.928354	-0.373750	-0.690929
C112	C	1.428354	0.126250	-0.190929
C113	C	0.956541	-0.345679	-1.020969
C114	C	1.456541	0.154321	-0.520969
C115	C	0.953469	-0.348730	-1.094483
C116	C	1.453469	0.151270	-0.594483
C117	C	1.047560	-0.255132	-1.094312
C118	C	1.547560	0.244868	-0.594312
C119	C	1.050634	-0.252086	-1.020802
C120	C	1.550634	0.247914	-0.520802
C121	C	1.005122	-0.297356	-0.984134
C122	C	1.505122	0.202644	-0.484134
N123	N	0.967641	-0.334651	-0.876251
N124	N	1.467641	0.165349	-0.376251
N125	N	1.008266	-0.294232	-0.908996
N126	N	1.508266	0.205768	-0.408996
C127	C	0.995561	-0.306912	-0.209390
C128	C	1.495561	0.193088	0.290610
C129	C	0.998974	-0.303460	-0.131152
C130	C	1.498974	0.196540	0.368848
H131	H	0.719675	-0.403104	-0.303422
H132	H	1.219675	0.096896	0.196578
H133	H	0.920708	-0.918598	-0.454283
H134	H	1.420708	-0.418598	0.045717
H135	H	0.891292	-0.410607	-0.661074
H136	H	1.391292	0.089393	-0.161074
H137	H	0.884877	-0.722923	-0.487146
H138	H	1.384877	-0.222923	0.012854
H139	H	1.085125	-1.039000	-0.302900
H140	H	1.585125	-0.539000	0.197100
Cl141	Cl	0.240579	-0.207528	-0.499685
Cl142	Cl	0.740579	0.292472	0.000315
H143	H	0.720176	-0.246614	-0.460395
H144	H	1.220176	0.253386	0.039605
H145	H	0.914825	-1.052121	-0.459782
H146	H	1.414825	-0.552121	0.040218
H147	H	1.084613	-0.218275	-1.124175
H148	H	1.584613	0.281725	-0.624175
H149	H	1.062010	-0.240808	-0.660772
H150	H	1.562010	0.259192	-0.160772
Cl151	Cl	0.570596	-0.233288	-0.473783
Cl152	Cl	1.070596	0.266712	0.026217
H153	H	0.390165	-0.220854	-0.486294
H154	H	0.890165	0.279146	0.013706
Cl155	Cl	0.870696	-0.574699	-0.500136
Cl156	Cl	1.370696	-0.074699	-0.000136
H157	H	0.256293	-0.382496	-0.324186
H158	H	0.756293	0.117504	0.175814
H159	H	0.389654	-0.377342	-0.329318
H160	H	0.889654	0.122658	0.170682
H161	H	0.586302	-0.408248	-0.298284
H162	H	1.086302	0.091752	0.201716
H163	H	0.913906	-0.388083	-1.124477
H164	H	1.413906	0.111917	-0.624477
H165	H	1.061060	-0.576274	-0.324770
H166	H	1.561060	-0.076274	0.175230
Cl167	Cl	1.075256	-0.724490	-0.311797
Cl168	Cl	1.575256	-0.224490	0.188203
Cl169	Cl	0.899325	-0.402590	-0.974882
Cl170	Cl	1.399325	0.097410	-0.474882
H171	H	0.885720	-0.416147	-0.794439
H172	H	1.385720	0.083853	-0.294439
Cl173	Cl	0.905395	-0.849245	-0.468357
Cl174	Cl	1.405395	-0.349245	0.031643
Cl175	Cl	1.112506	-0.887571	-0.277583
Cl176	Cl	1.612506	-0.387571	0.222417
H177	H	1.048996	-0.797047	-0.336023
H178	H	1.548996	-0.297047	0.163977
Cl179	Cl	1.076608	-0.226322	-0.810369
Cl180	Cl	1.576608	0.273678	-0.310369
H181	H	1.090196	-0.212737	-0.990812
H182	H	1.590196	0.287263	-0.490812
