data_functionalizedCrystal
_audit_creation_method	'MofGen! by Chris Wilmer'
_symmetry_space_group_name_H-M	'P1'
_symmetry_Int_Tables_number	1
_symmetry_cell_setting	triclinic
loop_
_symmetry_equiv_pos_as_xyz
  x,y,z
_cell_length_a	12.759401
_cell_length_b	15.299816
_cell_length_c	12.759393
_cell_angle_alpha	80.349000
_cell_angle_beta	90.020938
_cell_angle_gamma	80.352053
loop_
_atom_site_label
_atom_site_type_symbol
_atom_site_fract_x
_atom_site_fract_y
_atom_site_fract_z
Zn1	Zn	1.678551	-0.358974	0.666432
Zn2	Zn	1.708816	-0.509814	0.521179
Zn3	Zn	1.502860	-0.359022	0.490777
Zn4	Zn	1.533203	-0.509751	0.696804
O5	O	1.605858	-0.434390	0.593798
O6	O	1.829588	-0.378989	0.647177
O7	O	1.681463	-0.489858	0.370135
O8	O	1.500801	-0.232808	0.488643
O9	O	1.851824	-0.489811	0.540460
O10	O	1.629881	-0.232772	0.617696
O11	O	1.530147	-0.379071	0.347798
O12	O	1.359863	-0.379010	0.518094
O13	O	1.552517	-0.489704	0.839787
O14	O	1.382156	-0.489750	0.669461
O15	O	1.659303	-0.378928	0.817473
O16	O	1.710886	-0.636014	0.569911
O17	O	1.581864	-0.635967	0.698941
C18	C	1.332888	-0.434379	0.593775
C19	C	1.216115	-0.434396	0.593794
C20	C	1.172906	-0.492146	0.672523
C21	C	1.063183	-0.492150	0.672545
C22	C	1.039886	-0.376650	0.515099
C23	C	1.149607	-0.376643	0.515083
C24	C	1.652980	-0.668715	0.641044
C25	C	1.673235	-0.768960	0.661291
C26	C	1.461779	-1.051906	0.449446
C27	C	1.442743	-0.957721	0.430426
C28	C	1.500364	-0.910526	0.488140
C29	C	1.577025	-0.957525	0.564879
C30	C	1.596058	-1.051720	0.583907
C31	C	1.634643	-0.910340	0.622601
C32	C	1.711304	-0.957339	0.699339
C33	C	1.730333	-1.051525	0.718364
C34	C	1.672712	-1.098719	0.660649
C35	C	1.615611	-0.816145	0.603572
C36	C	1.749890	-0.815959	0.738033
C37	C	1.768926	-0.910145	0.757054
C38	C	1.879893	-0.434402	0.593822
C39	C	1.996671	-0.434407	0.593832
C40	C	1.605919	-0.434304	0.867814
C41	C	1.605945	-0.434267	0.984583
C42	C	1.558580	-0.199151	0.546391
C43	C	1.538433	-0.098905	0.526189
C44	C	1.605844	-0.434411	0.320835
C45	C	1.605970	-0.434194	0.204015
C46	C	1.661552	-0.376577	1.027826
C47	C	1.661562	-0.376538	1.137542
C48	C	1.550357	-0.491887	1.160765
C49	C	1.550341	-0.491920	1.051050
H50	H	1.028008	-0.539174	0.736655
H51	H	1.184786	-0.329610	0.450971
H52	H	1.553193	-0.777887	0.541091
O53	O	0.968160	-0.314390	0.430176
H54	H	0.884607	-0.324111	0.443397
H55	H	1.706825	-0.329629	0.973711
O56	O	1.851605	-0.960840	0.839824
H57	H	1.829888	-0.942716	0.918604
H58	H	1.505089	-0.538828	1.214895
O59	O	1.479852	-0.808940	0.467617
H60	H	1.416875	-0.784187	0.404552
H61	H	1.505052	-0.538898	1.015841
H62	H	1.706841	-0.329559	1.172744
O63	O	1.360081	-0.907027	0.347648
H64	H	1.323222	-0.955666	0.310701
H65	H	1.796808	-0.777534	0.785031
O66	O	1.244643	-0.554423	0.757424
H67	H	1.196157	-0.594573	0.812180
O68	O	1.399646	-1.102804	0.387190
H69	H	1.425770	-1.176195	0.413307
H70	H	1.792751	-1.089789	0.780854
O71	O	1.693247	-1.200309	0.681169
H72	H	1.619022	-1.225191	0.707363
