data_functionalizedCrystal
_audit_creation_method	'MofGen! by Chris Wilmer'
_symmetry_space_group_name_H-M	'P1'
_symmetry_Int_Tables_number	1
_symmetry_cell_setting	triclinic
loop_
_symmetry_equiv_pos_as_xyz
  x,y,z
_cell_length_a	19.077236
_cell_length_b	29.839131
_cell_length_c	19.076919
_cell_angle_alpha	92.267459
_cell_angle_beta	89.887323
_cell_angle_gamma	92.334053
loop_
_atom_site_label
_atom_site_type_symbol
_atom_site_fract_x
_atom_site_fract_y
_atom_site_fract_z
Zn1	Zn	1.058216	-0.163081	-0.440523
Zn2	Zn	1.391550	0.170252	-0.107190
Zn3	Zn	1.724883	0.503586	0.226143
Zn4	Zn	1.062823	-0.235077	-0.323009
Zn5	Zn	1.396157	0.098256	0.010325
Zn6	Zn	1.729490	0.431589	0.343658
Zn7	Zn	0.945432	-0.162845	-0.318303
Zn8	Zn	1.278765	0.170488	0.015030
Zn9	Zn	1.612099	0.503821	0.348363
Zn10	Zn	0.940640	-0.241071	-0.435746
Zn11	Zn	1.273973	0.092263	-0.102413
Zn12	Zn	1.607307	0.425596	0.230921
O13	O	1.001778	-0.200519	-0.379395
O14	O	1.335111	0.132815	-0.046062
O15	O	1.668445	0.466148	0.287271
O16	O	1.157162	-0.170222	-0.428903
O17	O	1.490496	0.163112	-0.095570
O18	O	1.823829	0.496445	0.237763
O19	O	1.051185	-0.222889	-0.224054
O20	O	1.384518	0.110445	0.109279
O21	O	1.717851	0.443778	0.442613
O22	O	0.960471	-0.100008	-0.334546
O23	O	1.293804	0.233325	-0.001213
O24	O	1.627137	0.566658	0.332120
O25	O	1.160547	-0.223117	-0.342566
O26	O	1.493880	0.110216	-0.009232
O27	O	1.827214	0.443550	0.324101
O28	O	1.043333	-0.100181	-0.424341
O29	O	1.376666	0.233152	-0.091008
O30	O	1.710000	0.566485	0.242326
O31	O	0.964938	-0.169820	-0.220597
O32	O	1.298271	0.163513	0.112736
O33	O	1.631605	0.496847	0.446070
O34	O	0.846462	-0.175632	-0.329914
O35	O	1.179795	0.157701	0.003419
O36	O	1.513128	0.491035	0.336753
O37	O	0.952303	-0.233332	-0.534710
O38	O	1.285636	0.100001	-0.201377
O39	O	1.618970	0.433334	0.131956
O40	O	0.842941	-0.233104	-0.416199
O41	O	1.176274	0.100230	-0.082865
O42	O	1.509607	0.433563	0.250468
O43	O	1.038686	-0.176033	-0.538220
O44	O	1.372019	0.157300	-0.204887
O45	O	1.705353	0.490633	0.128446
O46	O	1.046538	-0.298741	-0.337933
O47	O	1.379871	0.034593	-0.004600
O48	O	1.713205	0.367926	0.328733
O49	O	0.956770	-0.303144	-0.420761
O50	O	1.290104	0.030189	-0.087428
O51	O	1.623437	0.363523	0.245906
C52	C	0.819204	-0.204993	-0.372028
C53	C	1.152537	0.128340	-0.038694
C54	C	1.485871	0.461674	0.294639
C55	C	0.741097	-0.206918	-0.368893
C56	C	1.074431	0.126415	-0.035559
C57	C	1.407764	0.459748	0.297774
C58	C	0.702638	-0.180331	-0.412440
C59	C	1.035972	0.153003	-0.079106
C60	C	1.369305	0.486336	0.254227
C61	C	0.629249	-0.182137	-0.409488
C62	C	0.962583	0.151196	-0.076154
C63	C	1.295916	0.484529	0.257179
C64	C	0.594320	-0.210535	-0.362992
C65	C	0.927654	0.122799	-0.029658
C66	C	1.260987	0.456132	0.303675
C67	C	0.632785	-0.237124	-0.319440
C68	C	0.966118	0.096210	0.013893
C69	C	1.299451	0.429543	0.347227
C70	C	0.706173	-0.235314	-0.322389
C71	C	1.039506	0.098019	0.010944
C72	C	1.372839	0.431353	0.344278
C73	C	0.375023	-0.218892	-0.349341
C74	C	0.708356	0.114441	-0.016008
C75	C	1.041690	0.447774	0.317325
C76	C	0.301630	-0.220701	-0.346397
C77	C	0.634963	0.112633	-0.013064
C78	C	0.968296	0.445966	0.320269
C79	C	0.298099	-0.165714	-0.436444
C80	C	0.631433	0.167619	-0.103111
C81	C	0.964766	0.500953	0.230222
C82	C	0.371489	-0.163909	-0.439392
C83	C	0.704822	0.169424	-0.106059
C84	C	1.038156	0.502758	0.227275
C85	C	0.409947	-0.190496	-0.395838
C86	C	0.743280	0.142837	-0.062504
C87	C	1.076614	0.476171	0.270829
N88	N	0.519305	-0.212383	-0.359975
N89	N	0.852638	0.120950	-0.026641
N90	N	1.185971	0.454283	0.306692
N91	N	0.484961	-0.188645	-0.398852
N92	N	0.818295	0.144689	-0.065518
N93	N	1.151628	0.478022	0.267815
C94	C	1.001652	-0.317243	-0.379355
C95	C	1.334986	0.016090	-0.046022
C96	C	1.668319	0.349423	0.287311
C97	C	1.001662	-0.367178	-0.379364
C98	C	1.334995	-0.033844	-0.046031
C99	C	1.668329	0.299489	0.287302
C100	C	1.048599	-0.674513	-0.336336
C101	C	1.381932	-0.341180	-0.003003
C102	C	1.715266	-0.007847	0.330331
C103	C	1.048685	-0.862185	-0.336367
C104	C	1.382018	-0.528851	-0.003033
C105	C	1.715351	-0.195518	0.330300
O106	O	1.088493	-0.884489	-0.299751
O107	O	1.421826	-0.551156	0.033582
O108	O	1.755159	-0.217822	0.366915
N109	N	1.001922	-0.887958	-0.379454
N110	N	1.335255	-0.554625	-0.046121
N111	N	1.668588	-0.221292	0.287212
C112	C	0.955137	-0.866811	-0.422541
C113	C	1.288470	-0.533478	-0.089207
C114	C	1.621803	-0.200145	0.244126
O115	O	0.915369	-0.893040	-0.459195
O116	O	1.248702	-0.559706	-0.125862
O117	O	1.582035	-0.226373	0.207471
C118	C	0.955055	-0.679141	-0.422513
C119	C	1.288388	-0.345807	-0.089180
C120	C	1.621722	-0.012474	0.244154
C121	C	1.001816	-0.653369	-0.379417
C122	C	1.335150	-0.320036	-0.046084
C123	C	1.668483	0.013297	0.287249
C124	C	1.095357	-0.648742	-0.293244
C125	C	1.428691	-0.315409	0.040089
C126	C	1.762024	0.017925	0.373422
C127	C	1.095333	-0.601827	-0.293234
C128	C	1.428666	-0.268494	0.040099
C129	C	1.761999	0.064840	0.373432
C130	C	1.048550	-0.580683	-0.336316
C131	C	1.381883	-0.247350	-0.002982
C132	C	1.715217	0.085984	0.330351
C133	C	1.001792	-0.606454	-0.379407
C134	C	1.335125	-0.273121	-0.046074
C135	C	1.668459	0.060212	0.287259
C136	C	0.908274	-0.657995	-0.465603
C137	C	1.241608	-0.324661	-0.132269
C138	C	1.574941	0.008672	0.201064
C139	C	0.908259	-0.611074	-0.465593
C140	C	1.241593	-0.277740	-0.132260
C141	C	1.574926	0.055593	0.201074
C142	C	0.955021	-0.585302	-0.422497
C143	C	1.288354	-0.251969	-0.089164
C144	C	1.621687	0.081364	0.244169
C145	C	0.954985	-0.538395	-0.422479
C146	C	1.288318	-0.205062	-0.089145
C147	C	1.621652	0.128271	0.244188
N148	N	1.001748	-0.512622	-0.379391
N149	N	1.335081	-0.179288	-0.046058
N150	N	1.668415	0.154045	0.287276
C151	C	1.048531	-0.533766	-0.336310
C152	C	1.381864	-0.200432	-0.002976
C153	C	1.715197	0.132901	0.330357
C154	C	0.955182	-0.965341	-0.422551
C155	C	1.288515	-0.632008	-0.089218
C156	C	1.621849	-0.298675	0.244116
C157	C	0.955201	-1.012259	-0.422557
C158	C	1.288535	-0.678925	-0.089224
C159	C	1.621868	-0.345592	0.244110
C160	C	1.048750	-1.007629	-0.336384
C161	C	1.382084	-0.674295	-0.003051
C162	C	1.715417	-0.340962	0.330283
C163	C	1.048727	-0.960710	-0.336375
C164	C	1.382060	-0.627377	-0.003041
C165	C	1.715394	-0.294044	0.330292
C166	C	1.001945	-0.939568	-0.379463
C167	C	1.335279	-0.606234	-0.046130
C168	C	1.668612	-0.272901	0.287203
C169	C	1.048475	-0.435241	-0.336291
C170	C	1.381809	-0.101907	-0.002958
C171	C	1.715142	0.231426	0.330375
C172	C	1.048445	-0.388322	-0.336283
C173	C	1.381778	-0.054988	-0.002950
C174	C	1.715111	0.278345	0.330384
C175	C	0.954899	-0.392956	-0.422458
C176	C	1.288232	-0.059622	-0.089125
C177	C	1.621565	0.273711	0.244208
C178	C	0.954926	-0.439871	-0.422464
C179	C	1.288260	-0.106537	-0.089131
C180	C	1.621593	0.226796	0.244202
C181	C	1.001721	-0.461012	-0.379379
C182	C	1.335054	-0.127678	-0.046045
C183	C	1.668387	0.205655	0.287288
O184	O	0.915203	-0.516061	-0.459081
O185	O	1.248537	-0.182728	-0.125747
O186	O	1.581870	0.150606	0.207586
O187	O	1.088303	-0.507529	-0.299672
O188	O	1.421637	-0.174196	0.033661
O189	O	1.754970	0.159137	0.366995
C190	C	1.048624	-0.721428	-0.336346
C191	C	1.381957	-0.388095	-0.003013
C192	C	1.715290	-0.054762	0.330321
C193	C	1.001865	-0.747199	-0.379438
C194	C	1.335199	-0.413866	-0.046104
C195	C	1.668532	-0.080533	0.287229
C196	C	0.955083	-0.726056	-0.422519
C197	C	1.288416	-0.392722	-0.089186
C198	C	1.621750	-0.059389	0.244148
C199	C	1.001885	-0.794117	-0.379444
C200	C	1.335218	-0.460784	-0.046110
C201	C	1.668552	-0.127450	0.287223
C202	C	1.048667	-0.815261	-0.336362
C203	C	1.382001	-0.481927	-0.003029
C204	C	1.715334	-0.148594	0.330304
C205	C	1.095431	-0.789487	-0.293275
C206	C	1.428764	-0.456154	0.040059
C207	C	1.762097	-0.122821	0.373392
C208	C	1.095406	-0.742572	-0.293265
C209	C	1.428739	-0.409239	0.040069
C210	C	1.762073	-0.075905	0.373402
C211	C	0.908320	-0.751829	-0.465607
C212	C	1.241653	-0.418496	-0.132273
C213	C	1.574986	-0.085163	0.201060
C214	C	0.908347	-0.798744	-0.465612
C215	C	1.241681	-0.465411	-0.132279
C216	C	1.575014	-0.132078	0.201054
C217	C	0.955130	-0.819888	-0.422531
C218	C	1.288463	-0.486555	-0.089198
C219	C	1.621797	-0.153221	0.244136
C220	C	1.185065	-0.196027	-0.386792
C221	C	1.518398	0.137306	-0.053459
C222	C	1.851731	0.470640	0.279874
C223	C	1.263171	-0.194113	-0.389944
C224	C	1.596504	0.139220	-0.056611
C225	C	1.929837	0.472554	0.276722
C226	C	0.994446	-0.205378	-0.562674
C227	C	1.327779	0.127956	-0.229341
C228	C	1.661113	0.461289	0.103993
C229	C	0.991322	-0.207448	-0.640777
C230	C	1.324655	0.125885	-0.307443
C231	C	1.657988	0.459218	0.025890
C232	C	1.001922	-0.083338	-0.379452
C233	C	1.335256	0.249995	-0.046118
C234	C	1.668589	0.583329	0.287215
C235	C	1.001984	-0.033403	-0.379476
C236	C	1.335317	0.299931	-0.046142
C237	C	1.668651	0.633264	0.287191
C238	C	1.034827	-0.178590	-0.679298
C239	C	1.368160	0.154743	-0.345964
C240	C	1.701493	0.488077	-0.012631
C241	C	1.031882	-0.180534	-0.752683
C242	C	1.365216	0.152799	-0.419350
C243	C	1.698549	0.486133	-0.086016
C244	C	0.985436	-0.211339	-0.787546
C245	C	1.318770	0.121994	-0.454213
C246	C	1.652103	0.455328	-0.120879
C247	C	0.941927	-0.240198	-0.749019
C248	C	1.275260	0.093135	-0.415686
C249	C	1.608593	0.426468	-0.082353
C250	C	0.944868	-0.238252	-0.675635
C251	C	1.278201	0.095081	-0.342302
C252	C	1.611535	0.428415	-0.008969
C253	C	0.971814	-0.220357	-1.006824
C254	C	1.305147	0.112976	-0.673491
C255	C	1.638481	0.446309	-0.340158
C256	C	0.968877	-0.222303	-1.080214
C257	C	1.302211	0.111031	-0.746880
C258	C	1.635544	0.444364	-0.413547
C259	C	1.058833	-0.162638	-1.083872
C260	C	1.392166	0.170696	-0.750539
C261	C	1.725499	0.504029	-0.417205
C262	C	1.061773	-0.160696	-1.010487
C263	C	1.395106	0.172638	-0.677153
C264	C	1.728439	0.505971	-0.343820
C265	C	1.018260	-0.189553	-0.971966
C266	C	1.351594	0.143780	-0.638633
C267	C	1.684927	0.477113	-0.305300
N268	N	0.982427	-0.213328	-0.862557
N269	N	1.315761	0.120006	-0.529224
N270	N	1.649094	0.453339	-0.195891
N271	N	1.021266	-0.187562	-0.896956
N272	N	1.354600	0.145771	-0.563623
N273	N	1.687933	0.479105	-0.230290
C274	C	1.009122	-0.195645	-0.196831
C275	C	1.342455	0.137688	0.136502
C276	C	1.675788	0.471022	0.469835
C277	C	1.012382	-0.193445	-0.118735
C278	C	1.345716	0.139889	0.214599
C279	C	1.679049	0.473222	0.547932
H280	H	0.597939	-0.160488	-0.444950
H281	H	0.931272	0.172846	-0.111616
H282	H	1.264606	0.506179	0.221717
F283	F	1.084265	-0.145805	-0.642201
F284	F	1.417598	0.187528	-0.308868
F285	F	1.750932	0.520862	0.024466
F286	F	0.898562	-0.268966	-0.634638
F287	F	1.231896	0.064368	-0.301305
F288	F	1.565229	0.397701	0.032028
H289	H	0.266779	-0.144068	-0.471903
H290	H	0.600113	0.189266	-0.138570
H291	H	0.933446	0.522599	0.194764
F292	F	0.415944	-0.247181	-0.302975
F293	F	0.749277	0.086152	0.030359
F294	F	1.082611	0.419486	0.363692
H295	H	0.273193	-0.243828	-0.308534
H296	H	0.606526	0.089506	0.024799
H297	H	0.939859	0.422839	0.358132
H298	H	0.917085	-0.948130	-0.457640
H299	H	1.250418	-0.614797	-0.124307
H300	H	1.583751	-0.281463	0.209027
H301	H	1.133484	-0.721592	-0.258172
H302	H	1.466817	-0.388259	0.075161
H303	H	1.800150	-0.054926	0.408494
F304	F	1.111207	-0.127909	-0.973388
F305	F	1.444541	0.205424	-0.640055
F306	F	1.777874	0.538758	-0.306722
H307	H	1.094257	-0.139143	-1.115243
H308	H	1.427590	0.194191	-0.781910
H309	H	1.760923	0.527524	-0.448576
F310	F	0.408657	-0.133687	-0.488883
F311	F	0.741991	0.199646	-0.155550
F312	F	1.075324	0.532980	0.177784
H313	H	0.936394	-0.243862	-0.975470
H314	H	1.269727	0.089471	-0.642137
H315	H	1.603060	0.422805	-0.308804
F316	F	0.747103	-0.263613	-0.276040
F317	F	1.080437	0.069721	0.057293
F318	F	1.413770	0.403054	0.390626
H319	H	0.931053	-0.247389	-1.108597
H320	H	1.264387	0.085944	-0.775263
H321	H	1.597720	0.419278	-0.441930
F322	F	0.595609	-0.267344	-0.269951
F323	F	0.928942	0.065990	0.063382
F324	F	1.262275	0.399323	0.396715
H325	H	1.086523	-0.367340	-0.301187
H326	H	1.419857	-0.034006	0.032146
H327	H	1.753190	0.299327	0.365480
F328	F	0.892492	-0.272982	-0.786125
F329	F	1.225826	0.060352	-0.452792
F330	F	1.559159	0.393685	-0.119458
H331	H	0.731072	-0.157208	-0.450304
H332	H	1.064405	0.176126	-0.116970
H333	H	1.397739	0.509459	0.216363
H334	H	1.086581	-0.452448	-0.301209
H335	H	1.419914	-0.119115	0.032125
H336	H	1.753248	0.214219	0.365458
F337	F	1.145155	-0.671237	-0.247388
F338	F	1.478489	-0.337904	0.085945
F339	F	1.811822	-0.004571	0.419278
F340	F	1.145111	-0.574405	-0.247374
F341	F	1.478444	-0.241071	0.085959
F342	F	1.811777	0.092262	0.419293
H343	H	1.086805	-0.939730	-0.301283
H344	H	1.420138	-0.606397	0.032050
H345	H	1.753471	-0.273063	0.365384
H346	H	1.086843	-1.024852	-0.301306
H347	H	1.420176	-0.691519	0.032028
H348	H	1.753510	-0.358185	0.365361
H349	H	0.917117	-1.033238	-0.457643
H350	H	1.250451	-0.699905	-0.124310
H351	H	1.583784	-0.366571	0.209024
H352	H	1.067310	-0.157036	-0.784044
H353	H	1.400644	0.176298	-0.450711
H354	H	1.733977	0.509631	-0.117377
H355	H	0.916807	-0.375733	-0.457533
H356	H	1.250140	-0.042400	-0.124199
H357	H	1.583473	0.290934	0.209134
H358	H	0.870263	-0.819724	-0.500705
H359	H	1.203596	-0.486390	-0.167372
H360	H	1.536929	-0.153057	0.165961
H361	H	0.870193	-0.678970	-0.500692
H362	H	1.203526	-0.345636	-0.167359
H363	H	1.536860	-0.012303	0.165975
H364	H	0.870164	-0.593862	-0.500683
H365	H	1.203498	-0.260528	-0.167350
H366	H	1.536831	0.072805	0.165983
H367	H	0.916852	-0.460855	-0.457559
H368	H	1.250185	-0.127521	-0.124225
H369	H	1.583518	0.205812	0.209108
F370	F	0.858525	-0.729333	-0.511463
F371	F	1.191858	-0.396000	-0.178130
F372	F	1.525192	-0.062666	0.155204
F373	F	1.145218	-0.811998	-0.247422
F374	F	1.478552	-0.478665	0.085911
F375	F	1.811885	-0.145332	0.419245
