data_functionalizedCrystal
_audit_creation_method	'MofGen! by Chris Wilmer'
_symmetry_space_group_name_H-M	'P1'
_symmetry_Int_Tables_number	1
_symmetry_cell_setting	triclinic
loop_
_symmetry_equiv_pos_as_xyz
  x,y,z
_cell_length_a	16.109301
_cell_length_b	9.198806
_cell_length_c	16.109301
_cell_angle_alpha	89.995394
_cell_angle_beta	96.538468
_cell_angle_gamma	90.001580
loop_
_atom_site_label
_atom_site_type_symbol
_atom_site_fract_x
_atom_site_fract_y
_atom_site_fract_z
O1	O	1.103131	0.120817	-0.106866
O2	O	0.861069	0.120838	-0.120165
O3	O	0.988750	0.120812	0.007515
O4	O	0.975451	0.120843	-0.234547
O5	O	0.988740	-0.120973	0.007515
O6	O	0.861059	-0.120947	-0.120165
O7	O	1.103121	-0.120968	-0.106866
Cu8	Cu	0.982089	-0.143034	-0.113516
Cu9	Cu	0.982101	0.142905	-0.113516
O10	O	0.975441	-0.120942	-0.234547
C11	C	0.830089	-0.000052	-0.119627
C12	C	0.737794	-0.000044	-0.118011
C13	C	0.428796	-0.000061	-0.188494
C14	C	0.515516	-0.000052	-0.190020
C15	C	0.535389	-0.000052	-0.038531
C16	C	0.448671	-0.000050	-0.037007
C17	C	0.395376	-0.000062	-0.111991
C18	C	0.568815	-0.000055	-0.115041
C19	C	0.662841	-0.000046	-0.116694
C20	C	0.301344	-0.000068	-0.110338
N21	N	0.982087	-0.344148	-0.113515
C22	C	1.035698	-0.416356	-0.059671
C23	C	1.035711	-0.583768	-0.059668
C24	C	1.134101	-0.000075	-0.107405
C25	C	1.226396	-0.000073	-0.109020
C26	C	0.988206	-0.000081	0.038490
C27	C	0.986591	-0.000083	0.130785
N28	N	0.982110	0.344019	-0.113510
C29	C	0.975984	-0.000046	-0.265522
C30	C	0.977599	-0.000034	-0.357817
C31	C	1.058599	-0.000066	0.353058
C32	C	1.057075	-0.000054	0.439778
C33	C	0.905586	-0.000046	0.419904
C34	C	0.907111	-0.000048	0.333185
C35	C	0.983620	-0.000065	0.299765
C36	C	0.980571	-0.000052	0.473204
C37	C	0.978918	-0.000038	0.567230
C38	C	0.985273	-0.000076	0.205733
H39	H	0.542722	-0.000050	-0.252317
H40	H	1.081613	-0.645864	-0.013573
C41	C	0.370170	-0.000056	-0.270974
C42	C	0.373899	0.125505	-0.333671
C43	C	0.315276	0.125516	-0.416153
C44	C	0.252924	-0.000035	-0.435938
C45	C	0.249193	-0.125605	-0.373240
C46	C	0.307817	-0.125616	-0.290758
H47	H	0.420057	0.218453	-0.319026
H48	H	0.318038	0.218472	-0.462567
H49	H	0.209528	-0.000027	-0.496997
H50	H	0.203035	-0.218553	-0.387885
H51	H	0.305054	-0.218572	-0.244344
H52	H	0.578792	-0.000046	0.022518
C53	C	0.411901	-0.000053	0.047153
C54	C	0.355020	0.125505	0.069023
C55	C	0.318249	0.125508	0.153177
C56	C	0.338360	-0.000046	0.215461
C57	C	0.395244	-0.125613	0.193593
C58	C	0.432015	-0.125617	0.109439
H59	H	0.340131	0.218456	0.022915
H60	H	0.276140	0.218462	0.169365
H61	H	0.311140	-0.000043	0.277758
H62	H	0.410134	-0.218564	0.239701
H63	H	0.474124	-0.218570	0.093250
C64	C	0.824628	-0.000051	0.274556
C65	C	0.761932	0.125501	0.278274
C66	C	0.679453	0.125504	0.219646
C67	C	0.659670	-0.000045	0.157299
C68	C	0.722368	-0.125607	0.153579
C69	C	0.804847	-0.125610	0.212207
H70	H	0.776575	0.218449	0.324429
H71	H	0.633040	0.218454	0.222401
H72	H	0.598615	-0.000043	0.113899
H73	H	0.707725	-0.218555	0.107423
H74	H	0.851259	-0.218560	0.209452
C75	C	1.097697	-0.332455	0.002606
C76	C	1.097519	-0.165050	0.002594
C77	C	1.159520	-0.081154	0.064873
C78	C	1.221699	-0.164664	0.127165
C79	C	1.221879	-0.332079	0.127179
C80	C	1.159878	-0.415974	0.064899
H81	H	1.051489	-0.103222	-0.043520
H82	H	1.159386	0.042777	0.064863
H83	H	1.267595	-0.102560	0.173268
H84	H	1.267909	-0.393907	0.173293
H85	H	1.160011	-0.539906	0.064910
C86	C	0.920089	-0.428052	-0.175791
C87	C	0.952807	-0.532711	-0.239215
C88	C	0.890807	-0.616611	-0.301493
C89	C	0.796090	-0.595852	-0.300347
C90	C	0.763368	-0.491189	-0.236921
C91	C	0.825367	-0.407289	-0.174642
H92	H	1.022926	-0.548083	-0.240066
H93	H	0.915031	-0.694090	-0.348446
H94	H	0.750194	-0.657960	-0.346450
H95	H	0.693248	-0.475818	-0.236070
H96	H	0.801144	-0.329810	-0.127690
C97	C	1.139554	-0.000060	0.498400
C98	C	1.202244	-0.125621	0.494683
C99	C	1.284727	-0.125625	0.553304
C100	C	1.304520	-0.000067	0.615643
C101	C	1.241828	0.125504	0.619363
C102	C	1.159345	0.125507	0.560741
H103	H	1.187594	-0.218575	0.448533
H104	H	1.331136	-0.218581	0.550550
H105	H	1.365579	-0.000069	0.659038
H106	H	1.256479	0.218458	0.665512
H107	H	1.112936	0.218464	0.563496
C108	C	0.821431	-0.000034	0.456672
C109	C	0.799547	-0.125584	0.513563
C110	C	0.715391	-0.125573	0.550330
C111	C	0.653119	-0.000012	0.530208
C112	C	0.675002	0.125547	0.473314
C113	C	0.759158	0.125536	0.436547
H114	H	0.845645	-0.218540	0.528461
H115	H	0.699192	-0.218521	0.592446
H116	H	0.590822	-0.000003	0.557425
H117	H	0.628904	0.218503	0.458416
H118	H	0.775357	0.218484	0.394431
H119	H	1.120897	-0.000077	0.325850
H120	H	0.936212	-0.593895	-0.159613
