data_functionalizedCrystal
_audit_creation_method	'MofGen! by Chris Wilmer'
_symmetry_space_group_name_H-M	'P1'
_symmetry_Int_Tables_number	1
_symmetry_cell_setting	triclinic
loop_
_symmetry_equiv_pos_as_xyz
  x,y,z
_cell_length_a	11.792241
_cell_length_b	22.010155
_cell_length_c	11.792241
_cell_angle_alpha	90.004567
_cell_angle_beta	84.193416
_cell_angle_gamma	90.011508
loop_
_atom_site_label
_atom_site_type_symbol
_atom_site_fract_x
_atom_site_fract_y
_atom_site_fract_z
O1	O	1.506927	0.050466	0.155565
O2	O	1.176586	0.050481	0.171598
O3	O	1.349773	0.050469	-0.001589
O4	O	1.333740	0.050478	0.328752
O5	O	1.349721	-0.050581	-0.001589
O6	O	1.176534	-0.050570	0.171598
O7	O	1.506875	-0.050584	0.155565
Cu8	Cu	1.341700	-0.059804	0.163581
Cu9	Cu	1.341762	0.059700	0.163582
O10	O	1.333688	-0.050572	0.328752
C11	C	1.134269	-0.000043	0.170591
C12	C	1.008255	-0.000038	0.167576
N13	N	1.341664	-0.143856	0.163580
C14	C	0.777543	-0.000055	0.162034
C15	C	0.905928	-0.000045	0.165113
C16	C	1.411023	-0.563637	0.232873
C17	C	1.411037	-0.627244	0.232870
O18	O	1.469968	-0.660137	0.291778
N19	N	1.341784	-0.659063	0.163569
C20	C	1.272522	-0.627271	0.094257
O21	O	1.213619	-0.660176	0.035310
C22	C	1.272515	-0.563665	0.094255
C23	C	1.341764	-0.531849	0.163569
C24	C	1.480268	-0.531821	0.302181
C25	C	1.480252	-0.468218	0.302185
C26	C	1.410993	-0.436430	0.232881
C27	C	1.341749	-0.468246	0.163573
C28	C	1.203260	-0.531874	0.024938
C29	C	1.203260	-0.468263	0.024941
C30	C	1.272509	-0.436448	0.094255
C31	C	1.272474	-0.372855	0.094274
N32	N	1.341727	-0.341036	0.163575
C33	C	1.410986	-0.372824	0.232878
C34	C	1.272542	-0.760849	0.094267
C35	C	1.272542	-0.824454	0.094274
C36	C	1.411059	-0.824423	0.232886
C37	C	1.411052	-0.760816	0.232883
C38	C	1.341795	-0.729030	0.163568
C39	C	1.410949	-0.239252	0.232882
C40	C	1.410924	-0.175644	0.232884
C41	C	1.272412	-0.175680	0.094268
C42	C	1.272432	-0.239284	0.094271
C43	C	1.341709	-0.271068	0.163581
O44	O	1.213577	-0.339922	0.035393
O45	O	1.469891	-0.339911	0.291805
C46	C	1.549192	-0.000059	0.156572
C47	C	1.675206	-0.000061	0.159587
C48	C	1.348740	-0.000056	-0.043880
C49	C	1.345726	-0.000055	-0.169894
N50	N	1.341806	0.143753	0.163574
C51	C	1.340183	-0.000045	-0.400606
C52	C	1.343262	-0.000051	-0.272221
C53	C	1.334721	-0.000046	0.371043
C54	C	1.337736	-0.000043	0.497057
H55	H	1.467314	-0.149742	0.289333
H56	H	1.467452	-0.850316	0.289318
H57	H	1.216029	-0.265189	0.037844
H58	H	1.467361	-0.265124	0.289321
H59	H	1.216139	-0.850353	0.037845
H60	H	1.216019	-0.149788	0.037846
O61	O	1.135872	-0.437481	-0.042423
C62	C	0.998545	-0.444231	-0.179966
C63	C	1.074787	-0.479165	-0.103717
H64	H	0.949156	-0.477917	-0.229560
H65	H	0.936116	-0.414478	-0.124620
H66	H	1.053993	-0.414428	-0.242229
H67	H	1.019431	-0.509001	-0.041443
H68	H	1.137223	-0.508880	-0.159135
H69	H	1.146871	-0.557767	-0.031507
O70	O	1.547638	-0.437411	0.369537
C71	C	1.684989	-0.444117	0.507057
C72	C	1.608741	-0.479075	0.430817
H73	H	1.734393	-0.477787	0.556639
H74	H	1.747406	-0.414350	0.451705
H75	H	1.629545	-0.414325	0.569330
H76	H	1.664093	-0.508900	0.368532
H77	H	1.546317	-0.508803	0.486239
O78	O	1.205074	-0.730004	0.027072
C79	C	1.013776	-0.710623	-0.018573
C80	C	1.090048	-0.745576	0.057619
H81	H	0.920765	-0.723211	0.006080
H82	H	1.025550	-0.659688	-0.006675
H83	H	1.038568	-0.723128	-0.111597
H84	H	1.065305	-0.733122	0.150671
H85	H	1.078265	-0.796504	0.045623
O86	O	1.547681	-0.562720	0.369341
C87	C	1.700947	-0.634525	0.376976
C88	C	1.624700	-0.599567	0.300768
H89	H	1.763219	-0.664334	0.321568
H90	H	1.750513	-0.600876	0.426477
H91	H	1.645491	-0.664279	0.439320
H92	H	1.680071	-0.569812	0.238360
H93	H	1.575126	-0.633249	0.251347
H94	H	1.467440	-0.734916	0.289326
