data_functionalizedCrystal
_audit_creation_method	'MofGen! by Chris Wilmer'
_symmetry_space_group_name_H-M	'P1'
_symmetry_Int_Tables_number	1
_symmetry_cell_setting	triclinic
loop_
_symmetry_equiv_pos_as_xyz
  x,y,z
_cell_length_a	19.805407
_cell_length_b	19.805405
_cell_length_c	19.805398
_cell_angle_alpha	89.972363
_cell_angle_beta	89.984135
_cell_angle_gamma	90.026410
loop_
_atom_site_label
_atom_site_type_symbol
_atom_site_fract_x
_atom_site_fract_y
_atom_site_fract_z
Zn1	Zn	1.034711	-0.269490	-0.382712
Zn2	Zn	1.534711	0.230510	0.117288
Zn3	Zn	1.034633	-0.382675	-0.269520
Zn4	Zn	1.534633	0.117325	0.230480
Zn5	Zn	0.921533	-0.269505	-0.269536
Zn6	Zn	1.421533	0.230495	0.230464
Zn7	Zn	0.921489	-0.382642	-0.382667
Zn8	Zn	1.421489	0.117358	0.117333
O9	O	0.978091	-0.326078	-0.326109
O10	O	1.478091	0.173922	0.173891
O11	O	1.129417	-0.284511	-0.367708
O12	O	1.629417	0.215489	0.132292
O13	O	1.019616	-0.367683	-0.174805
O14	O	1.519616	0.132317	0.325195
O15	O	0.936597	-0.174787	-0.284575
O16	O	1.436597	0.325213	0.215425
O17	O	1.129360	-0.367668	-0.284547
O18	O	1.629360	0.132332	0.215453
O19	O	1.019748	-0.174775	-0.367724
O20	O	1.519748	0.325225	0.132276
O21	O	0.936522	-0.284538	-0.174817
O22	O	1.436522	0.215462	0.325183
O23	O	0.826810	-0.284506	-0.284531
O24	O	1.326810	0.215494	0.215469
O25	O	0.936522	-0.367612	-0.477389
O26	O	1.436522	0.132388	0.022611
O27	O	0.826778	-0.367627	-0.367648
O28	O	1.326778	0.132373	0.132352
O29	O	1.019706	-0.284480	-0.477422
O30	O	1.519706	0.215520	0.022578
O31	O	1.019573	-0.477387	-0.284503
O32	O	1.519573	0.022613	0.215497
O33	O	0.936447	-0.477363	-0.367632
O34	O	1.436447	0.022637	0.132368
C35	C	0.802235	-0.326065	-0.326087
C36	C	1.302235	0.173935	0.173913
C37	C	0.727003	-0.326076	-0.326093
C38	C	1.227003	0.173924	0.173907
C39	C	0.691660	-0.369422	-0.369302
C40	C	1.191660	0.130578	0.130698
C41	C	0.620972	-0.369424	-0.369312
C42	C	1.120972	0.130576	0.130688
C43	C	0.585628	-0.326081	-0.326109
C44	C	1.085628	0.173919	0.173891
C45	C	0.620976	-0.282730	-0.282898
C46	C	1.120976	0.217270	0.217102
C47	C	0.691663	-0.282726	-0.282892
C48	C	1.191663	0.217274	0.217108
C49	C	0.335903	-0.282745	-0.282920
C50	C	0.835903	0.217255	0.217080
C51	C	0.265211	-0.282754	-0.282928
C52	C	0.765211	0.217246	0.217072
C53	C	0.265211	-0.369443	-0.369340
C54	C	0.765211	0.130557	0.130660
C55	C	0.335899	-0.369439	-0.369334
C56	C	0.835899	0.130561	0.130666
C57	C	0.371241	-0.326085	-0.326126
C58	C	0.871241	0.173915	0.173874
C59	C	0.447889	-0.326084	-0.326117
C60	C	0.947889	0.173916	0.173883
C61	C	0.508981	-0.326086	-0.326114
C62	C	1.008981	0.173914	0.173886
C63	C	0.978015	-0.501934	-0.326076
C64	C	1.478015	-0.001934	0.173924
C65	C	0.978045	-0.577166	-0.326084
C66	C	1.478045	-0.077166	0.173916
C67	C	1.021371	-0.612500	-0.282845
C68	C	1.521371	-0.112500	0.217155
C69	C	1.021399	-0.683189	-0.282860
C70	C	1.521399	-0.183189	0.217140
C71	C	0.978098	-0.718542	-0.326111
C72	C	1.478098	-0.218542	0.173889
C73	C	0.934770	-0.683203	-0.369356
C74	C	1.434770	-0.183203	0.130644
C75	C	0.934746	-0.612516	-0.369344
C76	C	1.434746	-0.112516	0.130656
C77	C	0.934870	-0.968276	-0.369406
C78	C	1.434870	-0.468276	0.130594
C79	C	0.934897	-1.038968	-0.369413
C80	C	1.434897	-0.538968	0.130587
C81	C	1.021524	-1.038949	-0.282922
C82	C	1.521524	-0.538949	0.217078
C83	C	1.021499	-0.968262	-0.282910
C84	C	1.521499	-0.468262	0.217090
C85	C	0.978174	-0.932929	-0.326157
C86	C	1.478174	-0.432929	0.173843
C87	C	0.978144	-0.856281	-0.326141
C88	C	1.478144	-0.356281	0.173859
C89	C	0.978124	-0.795189	-0.326124
C90	C	1.478124	-0.295189	0.173876
C91	C	1.154634	-0.326092	-0.326131
C92	C	1.654634	0.173908	0.173869
C93	C	1.229866	-0.326097	-0.326140
C94	C	1.729866	0.173903	0.173860
C95	C	0.978118	-0.326041	-0.502651
C96	C	1.478118	0.173959	-0.002651
C97	C	0.978129	-0.326025	-0.577883
C98	C	1.478129	0.173975	-0.077883
C99	C	0.978186	-0.149535	-0.326156
C100	C	1.478186	0.350465	0.173844
C101	C	0.978227	-0.074303	-0.326177
C102	C	1.478227	0.425697	0.173823
C103	C	1.021525	-0.282618	-1.039693
C104	C	1.521525	0.217382	-0.539693
C105	C	1.021514	-0.282638	-0.969004
C106	C	1.521514	0.217362	-0.469004
C107	C	0.978199	-0.325931	-0.933645
C108	C	1.478199	0.174069	-0.433645
C109	C	0.934896	-0.369210	-0.968978
C110	C	1.434896	0.130790	-0.468978
C111	C	0.934911	-0.369192	-1.039666
C112	C	1.434911	0.130808	-0.539666
C113	C	0.934837	-0.369283	-0.683905
C114	C	1.434837	0.130717	-0.183905
C115	C	0.934825	-0.369296	-0.613213
C116	C	1.434825	0.130704	-0.113213
C117	C	1.021441	-0.282730	-0.613244
C118	C	1.521441	0.217270	-0.113244
C119	C	1.021455	-0.282712	-0.683931
C120	C	1.521455	0.217288	-0.183931
C121	C	0.978155	-0.325993	-0.719258
C122	C	1.478155	0.174007	-0.219258
C123	C	0.978168	-0.325971	-0.795906
C124	C	1.478168	0.174029	-0.295906
C125	C	0.978182	-0.325950	-0.856998
C126	C	1.478182	0.174050	-0.356998
C127	C	0.978104	-0.326067	-0.150253
C128	C	1.478104	0.173933	0.349747
C129	C	0.978224	-0.325892	-0.075021
C130	C	1.478224	0.174108	0.424979
H131	H	0.364670	-0.247449	-0.247733
H132	H	0.864670	0.252551	0.252267
H133	H	1.056679	-0.711955	-0.247649
H134	H	1.556679	-0.211955	0.252351
O135	O	1.068155	-0.236054	-0.575143
O136	O	1.568155	0.263946	-0.075143
H137	H	1.060878	-0.243344	-0.520049
H138	H	1.560878	0.256656	-0.020049
H139	H	0.899466	-0.583747	-0.404555
H140	H	1.399466	-0.083747	0.095445
O141	O	0.888129	-0.415961	-0.721995
O142	O	1.388129	0.084039	-0.221995
H143	H	0.918408	-0.450400	-0.754188
H144	H	1.418408	0.049600	-0.254188
O145	O	1.068218	-0.235962	-0.930903
O146	O	1.568218	0.264038	-0.430903
H147	H	1.060939	-0.243252	-0.875810
H148	H	1.560939	0.256748	-0.375810
H149	H	0.899548	-0.404549	-0.584425
H150	H	1.399548	0.095451	-0.084425
H151	H	1.056628	-0.583721	-0.247621
H152	H	1.556628	-0.083721	0.252379
O153	O	1.068246	-0.235926	-1.077830
O154	O	1.568246	0.264074	-0.577830
H155	H	1.098358	-0.205844	-1.041385
H156	H	1.598358	0.294156	-0.541385
O157	O	0.227080	-0.236006	-0.236331
O158	O	0.727080	0.263994	0.263669
H159	H	0.240658	-0.182897	-0.248042
H160	H	0.740658	0.317103	0.251958
H161	H	0.899631	-0.404462	-0.940183
H162	H	1.399631	0.095538	-0.440183
O163	O	1.068176	-0.236022	-0.722070
O164	O	1.568176	0.263978	-0.222070
H165	H	1.098290	-0.205938	-0.685628
H166	H	1.598290	0.294062	-0.185628
O167	O	0.888204	-0.415861	-1.077775
O168	O	1.388204	0.084139	-0.577775
H169	H	0.858076	-0.445963	-1.041313
H170	H	1.358076	0.054037	-0.541313
H171	H	1.056804	-1.067726	-0.247711
H172	H	1.556804	-0.567726	0.252289
O173	O	0.729784	-0.416162	-0.415906
O174	O	1.229784	0.083838	0.084094
H175	H	0.716193	-0.469272	-0.404213
H176	H	1.216193	0.030728	0.095787
O177	O	0.582849	-0.416305	-0.415785
O178	O	1.082849	0.083695	0.084215
H179	H	0.619301	-0.446495	-0.445772
H180	H	1.119301	0.053505	0.054228
O181	O	1.068206	-0.930129	-0.236265
O182	O	1.568206	-0.430129	0.263735
H183	H	1.098345	-0.966576	-0.206205
H184	H	1.598345	-0.466576	0.293795
H185	H	0.364672	-0.404735	-0.404512
H186	H	0.864672	0.095265	0.095488
H187	H	0.899592	-0.939513	-0.404618
H188	H	1.399592	-0.439513	0.095382
O189	O	0.227094	-0.416197	-0.415953
O190	O	0.727094	0.083803	0.084047
H191	H	0.172003	-0.408915	-0.408709
H192	H	0.672003	0.091085	0.091291
H193	H	0.899517	-0.711993	-0.404575
H194	H	1.399517	-0.211993	0.095425
H195	H	0.899637	-1.067750	-0.404639
H196	H	1.399637	-0.567750	0.095361
O197	O	0.729783	-0.235980	-0.236279
O198	O	1.229783	0.264020	0.263721
H199	H	0.716237	-0.182874	-0.247979
H200	H	1.216237	0.317126	0.252021
O201	O	0.582860	-0.235997	-0.236281
O202	O	1.082860	0.264003	0.263719
H203	H	0.527769	-0.243293	-0.243532
H204	H	1.027769	0.256707	0.256468
