data_functionalizedCrystal
_audit_creation_method	'MofGen! by Chris Wilmer'
_symmetry_space_group_name_H-M	'P1'
_symmetry_Int_Tables_number	1
_symmetry_cell_setting	triclinic
loop_
_symmetry_equiv_pos_as_xyz
  x,y,z
_cell_length_a	19.188930
_cell_length_b	17.666332
_cell_length_c	19.188924
_cell_angle_alpha	89.991448
_cell_angle_beta	83.143372
_cell_angle_gamma	89.976766
loop_
_atom_site_label
_atom_site_type_symbol
_atom_site_fract_x
_atom_site_fract_y
_atom_site_fract_z
O1	O	0.926147	-0.063195	0.087169
O2	O	1.426147	0.436805	0.587169
O3	O	0.722836	-0.063144	0.098903
O4	O	1.222836	0.436856	0.598903
O5	O	0.830361	-0.063162	-0.008620
O6	O	1.330361	0.436838	0.491380
O7	O	0.818622	-0.063177	0.194692
O8	O	1.318622	0.436823	0.694692
O9	O	0.830343	0.062735	-0.008625
O10	O	1.330343	0.562735	0.491375
O11	O	0.722817	0.062753	0.098898
O12	O	1.222817	0.562753	0.598898
O13	O	0.926129	0.062702	0.087163
O14	O	1.426129	0.562702	0.587163
Cu15	Cu	0.824471	0.074223	0.093030
Cu16	Cu	1.324471	0.574223	0.593030
Cu17	Cu	0.824493	-0.074665	0.093037
Cu18	Cu	1.324493	0.425335	0.593037
O19	O	0.818603	0.062720	0.194687
O20	O	1.318603	0.562720	0.694687
C21	C	0.696815	-0.000189	0.098521
C22	C	1.196815	0.499811	0.598521
C23	C	0.619311	-0.000169	0.097380
C24	C	1.119311	0.499831	0.597380
N25	N	0.824461	0.178942	0.093025
N26	N	1.324461	0.678942	0.593025
N27	N	0.824509	-0.179384	0.093036
N28	N	1.324509	0.320616	0.593036
C29	C	0.574386	-0.000185	0.160471
C30	C	1.074386	0.499815	0.660471
C31	C	0.501562	-0.000193	0.159399
C32	C	1.001562	0.499807	0.659399
C33	C	0.473667	-0.000200	0.095233
C34	C	0.973667	0.499800	0.595233
C35	C	0.518602	-0.000180	0.032134
C36	C	1.018602	0.499820	0.532134
C37	C	0.591424	-0.000164	0.033207
C38	C	1.091424	0.499836	0.533207
N39	N	0.365694	-0.043075	0.046188
N40	N	0.865694	0.456925	0.546188
N41	N	0.296516	-0.043092	0.045172
N42	N	0.796516	0.456908	0.545172
C43	C	0.254258	-0.000246	0.091995
C44	C	0.754258	0.499754	0.591995
N45	N	0.283791	0.042607	0.139882
N46	N	0.783791	0.542607	0.639882
N47	N	0.352976	0.042620	0.140899
N48	N	0.852976	0.542620	0.640899
C49	C	0.394704	-0.000217	0.094062
C50	C	0.894704	0.499783	0.594062
C51	C	0.130368	-0.000271	0.153928
C52	C	0.630368	0.499729	0.653928
C53	C	0.057543	-0.000274	0.152854
C54	C	0.557543	0.499726	0.652854
C55	C	0.074585	-0.000268	0.025586
C56	C	0.574585	0.499732	0.525586
C57	C	0.147409	-0.000257	0.026663
C58	C	0.647409	0.499743	0.526663
C59	C	0.175295	-0.000262	0.090835
C60	C	0.675295	0.499738	0.590835
C61	C	0.952149	-0.000255	0.087546
C62	C	1.452149	0.499745	0.587546
C63	C	1.029654	-0.000280	0.088687
C64	C	1.529654	0.499720	0.588687
C65	C	0.829973	-0.000213	-0.034634
C66	C	1.329973	0.499787	0.465366
C67	C	0.828834	-0.000210	-0.112138
C68	C	1.328834	0.499790	0.387862
C69	C	0.872088	0.218544	0.045437
C70	C	1.372088	0.718544	0.545437
C71	C	0.872092	0.297791	0.045433
C72	C	1.372092	0.797791	0.545433
C73	C	0.824475	0.337434	0.093030
C74	C	1.324475	0.837434	0.593030
C75	C	0.776839	0.297823	0.140622
C76	C	1.276839	0.797823	0.640622
C77	C	0.776831	0.218577	0.140619
C78	C	1.276831	0.718577	0.640619
N79	N	0.815398	0.461850	0.154838
N80	N	1.315398	0.961850	0.654838
N81	N	0.815409	0.537130	0.154838
N82	N	1.315409	1.037130	0.654838
C83	C	0.824494	0.576198	0.093040
C84	C	1.324494	1.076198	0.593040
N85	N	0.833581	0.537142	0.031239
N86	N	1.333581	1.037142	0.531239
N87	N	0.833573	0.461855	0.031240
N88	N	1.333573	0.961855	0.531240
C89	C	0.824478	0.423363	0.093038
C90	C	1.324478	0.923363	0.593038
C91	C	0.872128	0.701729	0.045444
C92	C	1.372128	1.201729	0.545444
C93	C	0.872128	0.780978	0.045440
C94	C	1.372128	1.280978	0.545440
C95	C	0.776878	0.781009	0.140634
C96	C	1.276878	1.281009	0.640634
C97	C	0.776875	0.701761	0.140633
C98	C	1.276875	1.201761	0.640633
C99	C	0.824504	0.662126	0.093038
C100	C	1.324504	1.162126	0.593038
C101	C	0.828313	-0.068837	-0.148534
C102	C	1.328313	0.431163	0.351466
C103	C	0.827233	-0.068842	-0.221357
C104	C	1.327233	0.431158	0.278643
C105	C	0.826688	-0.000217	-0.257783
C106	C	1.326688	0.499783	0.242217
C107	C	0.827205	0.068418	-0.221378
C108	C	1.327205	0.568418	0.278622
C109	C	0.828278	0.068421	-0.148556
C110	C	1.328278	0.568421	0.351444
N111	N	0.864728	0.050849	-0.377448
N112	N	1.364728	0.550849	0.122552
N113	N	0.863710	0.050841	-0.446627
N114	N	1.363710	0.550841	0.053373
C115	C	0.823454	-0.000224	-0.477192
C116	C	1.323454	0.499776	0.022808
N117	N	0.784262	-0.051292	-0.435967
N118	N	1.284262	0.448708	0.064033
N119	N	0.785283	-0.051286	-0.366783
N120	N	1.285283	0.448714	0.133217
C121	C	0.825524	-0.000214	-0.336746
C122	C	1.325524	0.499786	0.163254
C123	C	0.821761	-0.068861	-0.592550
C124	C	1.321761	0.431139	-0.092550
C125	C	0.820676	-0.068864	-0.665374
C126	C	1.320676	0.431136	-0.165374
C127	C	0.820656	0.068399	-0.665394
C128	C	1.320656	0.568399	-0.165394
C129	C	0.821734	0.068399	-0.592571
C130	C	1.321734	0.568399	-0.092571
C131	C	0.822289	-0.000233	-0.556154
C132	C	1.322289	0.499767	-0.056154
C133	C	0.818992	-0.000231	0.220700
C134	C	1.318992	0.499769	0.720700
C135	C	0.820131	-0.000238	0.298205
C136	C	1.320131	0.499762	0.798205
H137	H	0.464976	-0.000205	0.210777
H138	H	0.964976	0.499795	0.710777
H139	H	0.051874	-0.000321	-0.026659
H140	H	0.551874	0.499679	0.473341
H141	H	0.828763	-0.124722	-0.118888
H142	H	1.328763	0.375278	0.381112
O143	O	0.488522	-0.000187	-0.037077
O144	O	0.988522	0.499813	0.462923
H145	H	0.430336	-0.000209	-0.027225
H146	H	0.930336	0.499791	0.472775
O147	O	0.639882	-0.000150	-0.034847
O148	O	1.139882	0.499850	0.465153
H149	H	0.673436	0.051173	-0.037404
H150	H	1.173436	0.551173	0.462596
H151	H	0.826804	-0.124728	-0.250996
H152	H	1.326804	0.375272	0.249004
H153	H	0.738104	0.813285	0.179386
H154	H	1.238104	1.313285	0.679386
H155	H	0.597086	-0.000191	0.212725
H156	H	1.097086	0.499809	0.712725
H157	H	0.820249	-0.124750	-0.695006
H158	H	1.320249	0.375250	-0.195006
H159	H	0.822164	0.124282	-0.562938
H160	H	1.322164	0.624282	-0.062938
O161	O	0.195872	-0.000246	-0.041386
O162	O	0.695872	0.499754	0.458614
H163	H	0.164243	-0.000256	-0.086186
H164	H	0.664243	0.499744	0.413814
O165	O	0.725453	0.175862	0.191946
O166	O	1.225453	0.675862	0.691946
H167	H	0.733444	0.114098	0.183943
H168	H	1.233444	0.614098	0.683943
H169	H	0.910869	0.186275	0.006681
H170	H	1.410869	0.686275	0.506681
H171	H	0.910909	0.669457	0.006688
H172	H	1.410909	1.169457	0.506688
H173	H	0.910878	0.330041	0.006680
H174	H	1.410878	0.830041	0.506680
O175	O	0.820065	0.142418	-0.704671
O176	O	1.320065	0.642418	-0.204671
H177	H	0.867841	0.175318	-0.697065
H178	H	1.367841	0.675318	-0.197065
O179	O	0.160449	-0.000261	0.223141
O180	O	0.660449	0.499739	0.723141
H181	H	0.193240	-0.051572	0.226685
H182	H	0.693240	0.448428	0.726685
H183	H	0.826760	0.124293	-0.251040
H184	H	1.326760	0.624293	0.248960
O185	O	0.828853	0.142442	-0.109295
O186	O	1.328853	0.642442	0.390705
H187	H	0.828298	0.190163	-0.146855
H188	H	1.328298	0.690163	0.353145
O189	O	0.009082	-0.000289	0.220905
O190	O	0.509082	0.499711	0.720905
H191	H	0.040711	-0.000296	0.265705
H192	H	0.540711	0.499704	0.765705
H193	H	0.738067	0.330104	0.179375
H194	H	1.238067	0.830104	0.679375
O195	O	0.923509	0.823691	-0.005886
O196	O	1.423509	1.323691	0.494114
H197	H	0.914799	0.808490	-0.060297
H198	H	1.414799	1.308490	0.439703
O199	O	0.725513	0.659040	0.191968
O200	O	1.225513	1.159040	0.691968
H201	H	0.692406	0.699917	0.225070
H202	H	1.192406	1.199917	0.725070
O203	O	0.822346	-0.142880	-0.553262
O204	O	1.322346	0.357120	-0.053262
H205	H	0.821789	-0.190603	-0.590806
H206	H	1.321789	0.309397	-0.090806
