data_functionalizedCrystal
_audit_creation_method	'MofGen! by Chris Wilmer'
_symmetry_space_group_name_H-M	'P1'
_symmetry_Int_Tables_number	1
_symmetry_cell_setting	triclinic
loop_
_symmetry_equiv_pos_as_xyz
  x,y,z
_cell_length_a	6.817900
_cell_length_b	11.102244
_cell_length_c	14.125465
_cell_angle_alpha	94.634221
_cell_angle_beta	100.398878
_cell_angle_gamma	108.604870
loop_
_atom_site_label
_atom_site_type_symbol
_atom_site_fract_x
_atom_site_fract_y
_atom_site_fract_z
V1	V	-4.017262	-0.174747	-0.299974
V2	V	-3.517262	0.325253	0.200026
O3	O	-3.978095	0.009521	-0.294266
O4	O	-3.478095	0.509521	0.205734
O5	O	-3.994678	-0.347574	-0.297920
O6	O	-3.494678	0.152426	0.202080
O7	O	-3.952932	-0.171566	-0.430804
O8	O	-3.452932	0.328434	0.069196
O9	O	-4.020130	-0.167706	-0.160462
O10	O	-3.520130	0.332294	0.339538
V11	V	-4.499609	-0.152764	-0.283287
V12	V	-3.999609	0.347236	0.216713
O13	O	-4.281100	-0.222967	-0.336577
O14	O	-3.781100	0.277033	0.163423
O15	O	-4.685968	-0.104545	-0.246684
O16	O	-4.185968	0.395455	0.253316
O17	O	-4.298986	0.020063	-0.285342
O18	O	-3.798986	0.520063	0.214658
O19	O	-4.656173	-0.337032	-0.288995
O20	O	-4.156173	0.162968	0.211005
O21	O	-4.614137	-0.159805	-0.422799
O22	O	-4.114137	0.340195	0.077201
O23	O	-4.340732	-0.155945	-0.152457
O24	O	-3.840732	0.344055	0.347543
C25	C	-3.846475	-0.389721	-0.293187
C26	C	-3.346475	0.110279	0.206813
C27	C	-3.909191	-0.531006	-0.292380
C28	C	-3.409191	-0.031006	0.207620
C29	C	-3.906168	-0.579563	-0.203898
C30	C	-3.406168	-0.079563	0.296102
C31	C	-3.965107	-0.712318	-0.203151
C32	C	-3.465107	-0.212318	0.296849
C33	C	-4.030082	-0.747949	-0.379374
C34	C	-3.530082	-0.247949	0.120626
C35	C	-3.971157	-0.615196	-0.380121
C36	C	-3.471157	-0.115196	0.119879
C37	C	-3.868647	-0.558992	-0.102157
C38	C	-3.368647	-0.058992	0.397843
C39	C	-3.927587	-0.691747	-0.101409
C40	C	-3.427587	-0.191747	0.398591
C41	C	-3.793222	-0.165203	-0.462693
C42	C	-3.293222	0.334797	0.037307
C43	C	-3.822079	-0.163746	-0.569647
C44	C	-3.322079	0.336254	-0.069647
C45	C	-3.874973	-0.161074	-0.765470
C46	C	-3.374973	0.338926	-0.265470
C47	C	-4.061266	-0.166434	-0.817791
C48	C	-3.561266	0.333566	-0.317791
C49	C	-4.090699	-0.164948	-0.926754
C50	C	-3.590699	0.335052	-0.426754
C51	C	-3.845532	-0.162561	-0.656497
C52	C	-3.345532	0.337439	-0.156497
C53	C	-4.110533	0.062203	-0.290072
C54	C	-3.610533	0.562203	0.209928
C55	C	-4.027055	0.203487	-0.290885
C56	C	-3.527055	0.703487	0.209115
C57	C	-4.163786	-0.162312	-0.120564
C58	C	-3.663786	0.337688	0.379436
C59	C	-4.114166	-0.163763	-0.013608
C60	C	-3.614166	0.336237	0.486392
H61	H	-3.978361	-0.520025	-0.066976
H62	H	-3.478361	-0.020025	0.433024
H63	H	-4.198659	-0.172153	-0.780753
H64	H	-3.698659	0.327847	-0.280753
H65	H	-3.737599	-0.155370	-0.802508
H66	H	-3.237599	0.344630	-0.302508
H67	H	-4.080541	-0.816512	-0.450809
H68	H	-3.580541	-0.316512	0.049191
N69	N	-3.974303	-0.565619	-0.470512
N70	N	-3.474303	-0.065619	0.029488
N71	N	-4.029642	-0.640806	-0.548841
N72	N	-3.529642	-0.140806	-0.048841
H73	H	-4.031871	-0.605794	-0.612685
H74	H	-3.531871	-0.105794	-0.112685
H75	H	-4.078788	-0.731650	-0.073406
H76	H	-3.578788	-0.231650	0.426594
H77	H	-3.789061	-0.714922	-0.058465
H78	H	-3.289061	-0.214922	0.441535
N79	N	-3.649749	-0.492927	-0.058106
N80	N	-3.149749	0.007073	0.441894
N81	N	-3.535100	-0.554464	-0.024490
N82	N	-3.035100	-0.054464	0.475510
H83	H	-3.380493	-0.507808	0.006610
H84	H	-2.880493	-0.007808	0.506610
