data_functionalizedCrystal
_audit_creation_method	'MofGen! by Chris Wilmer'
_symmetry_space_group_name_H-M	'P1'
_symmetry_Int_Tables_number	1
_symmetry_cell_setting	triclinic
loop_
_symmetry_equiv_pos_as_xyz
  x,y,z
_cell_length_a	21.295420
_cell_length_b	21.295417
_cell_length_c	19.120904
_cell_angle_alpha	92.408338
_cell_angle_beta	92.422904
_cell_angle_gamma	90.026289
loop_
_atom_site_label
_atom_site_type_symbol
_atom_site_fract_x
_atom_site_fract_y
_atom_site_fract_z
Zn1	Zn	0.947123	-0.265876	-0.397094
Zn2	Zn	1.447123	0.234124	0.102906
Zn3	Zn	0.951531	-0.366654	-0.279638
Zn4	Zn	1.451531	0.133346	0.220362
Zn5	Zn	0.846351	-0.261396	-0.279660
Zn6	Zn	1.346351	0.238604	0.220340
Zn7	Zn	0.841817	-0.371101	-0.397046
Zn8	Zn	1.341817	0.128899	0.102954
O9	O	0.896705	-0.316257	-0.338360
O10	O	1.396705	0.183743	0.161640
O11	O	1.035796	-0.279258	-0.381524
O12	O	1.535796	0.220742	0.118476
O13	O	0.941320	-0.348955	-0.181359
O14	O	1.441320	0.151045	0.318641
O15	O	0.859771	-0.173902	-0.295267
O16	O	1.359771	0.326098	0.204733
O17	O	1.039035	-0.353299	-0.295230
O18	O	1.539035	0.146701	0.204770
O19	O	0.933808	-0.177193	-0.381545
O20	O	1.433808	0.322807	0.118455
O21	O	0.864045	-0.271622	-0.181375
O22	O	1.364045	0.228378	0.318625
O23	O	0.757660	-0.275935	-0.295221
O24	O	1.257660	0.224065	0.204779
O25	O	0.852044	-0.360879	-0.495335
O26	O	1.352044	0.139121	0.004665
O27	O	0.754330	-0.356535	-0.381464
O28	O	1.254330	0.143465	0.118536
O29	O	0.929411	-0.283570	-0.495370
O30	O	1.429411	0.216430	0.004630
O31	O	0.936924	-0.455332	-0.295183
O32	O	1.436924	0.044668	0.204817
O33	O	0.856318	-0.458600	-0.381442
O34	O	1.356318	0.041400	0.118558
C35	C	0.733154	-0.316232	-0.338340
C36	C	1.233154	0.183768	0.161660
C37	C	0.663186	-0.316237	-0.338348
C38	C	1.163186	0.183763	0.161652
C39	C	0.162037	-0.277801	-0.383377
C40	C	0.662037	0.222199	0.116623
C41	C	0.227780	-0.277797	-0.383376
C42	C	0.727780	0.222203	0.116624
C43	C	0.262345	-0.316276	-0.338376
C44	C	0.762345	0.183724	0.161624
C45	C	0.231163	-0.354776	-0.293385
C46	C	0.731163	0.145224	0.206615
C47	C	0.165421	-0.354784	-0.293391
C48	C	0.665421	0.145216	0.206609
N49	N	0.367894	-0.318670	-0.276878
N50	N	0.867894	0.181330	0.223122
N51	N	0.430346	-0.318658	-0.276874
N52	N	0.930346	0.181342	0.223126
C53	C	0.460421	-0.316255	-0.338355
C54	C	0.960421	0.183745	0.161645
N55	N	0.425685	-0.313851	-0.399842
N56	N	0.925685	0.186149	0.100158
N57	N	0.363228	-0.313859	-0.399845
N58	N	0.863228	0.186141	0.100155
C59	C	0.333631	-0.316272	-0.338364
C60	C	0.833631	0.183728	0.161636
C61	C	0.562881	-0.277756	-0.383347
C62	C	1.062881	0.222244	0.116653
C63	C	0.628625	-0.277756	-0.383348
C64	C	1.128625	0.222244	0.116652
C65	C	0.632007	-0.354731	-0.293350
C66	C	1.132007	0.145269	0.206650
C67	C	0.566264	-0.354735	-0.293355
C68	C	1.066264	0.145265	0.206645
C69	C	0.531705	-0.316244	-0.338353
C70	C	1.031705	0.183756	0.161647
C71	C	0.896624	-0.479807	-0.338321
C72	C	1.396624	0.020193	0.161679
C73	C	0.896646	-0.549775	-0.338328
C74	C	1.396646	-0.049775	0.161672
C75	C	0.938652	-0.580921	-0.293458
C76	C	1.438652	-0.080921	0.206542
C77	C	0.938681	-0.646664	-0.293474
C78	C	1.438681	-0.146664	0.206526
C79	C	0.896693	-0.681259	-0.338352
C80	C	1.396693	-0.181259	0.161648
C81	C	0.854684	-0.650105	-0.383230
C82	C	1.354684	-0.150105	0.116770
C83	C	0.854661	-0.584363	-0.383217
C84	C	1.354661	-0.084363	0.116783
N85	N	0.841421	-0.784725	-0.343699
N86	N	1.341421	-0.284725	0.156301
N87	N	0.841445	-0.847177	-0.343707
N88	N	1.341445	-0.347177	0.156293
C89	C	0.896762	-0.879335	-0.338392
C90	C	1.396762	-0.379335	0.161608
N91	N	0.952056	-0.846682	-0.333056
N92	N	1.452056	-0.346682	0.166944
N93	N	0.952031	-0.784224	-0.333045
N94	N	1.452031	-0.284224	0.166955
C95	C	0.896714	-0.752545	-0.338370
C96	C	1.396714	-0.252545	0.161630
C97	C	0.938802	-0.981767	-0.293538
C98	C	1.438802	-0.481767	0.206462
C99	C	0.938832	-1.047512	-0.293558
C100	C	1.438832	-0.547512	0.206442
C101	C	0.854830	-1.050951	-0.383310
C102	C	1.354830	-0.550951	0.116690
C103	C	0.854806	-0.985207	-0.383293
C104	C	1.354806	-0.485207	0.116707
C105	C	0.896791	-0.950620	-0.338403
C106	C	1.396791	-0.450620	0.161597
C107	C	1.060895	-0.316282	-0.338380
C108	C	1.560895	0.183718	0.161620
C109	C	1.130862	-0.316293	-0.338389
C110	C	1.630862	0.183707	0.161611
C111	C	0.889730	-0.323220	-0.521548
C112	C	1.389730	0.176780	-0.021548
C113	C	0.886758	-0.326188	-0.599612
C114	C	1.386758	0.173812	-0.099612
C115	C	0.896803	-0.152068	-0.338414
C116	C	1.396803	0.347932	0.161586
C117	C	0.896845	-0.082101	-0.338437
C118	C	1.396845	0.417899	0.161563
C119	C	0.925641	-0.287333	-0.636306
C120	C	1.425641	0.212667	-0.136306
C121	C	0.922840	-0.290119	-0.709656
C122	C	1.422840	0.209881	-0.209656
C123	C	0.881160	-0.331763	-0.746310
C124	C	1.381160	0.168237	-0.246310
C125	C	0.842273	-0.370619	-0.709610
C126	C	1.342273	0.129381	-0.209610
C127	C	0.845071	-0.367830	-0.636262
C128	C	1.345071	0.132170	-0.136262
C129	C	0.870694	-0.342197	-0.967773
C130	C	1.370694	0.157803	-0.467773
C131	C	0.867901	-0.344984	-1.041126
C132	C	1.367901	0.155016	-0.541126
C133	C	0.948468	-0.264483	-1.041166
C134	C	1.448468	0.235517	-0.541166
C135	C	0.951264	-0.261700	-0.967817
C136	C	1.451264	0.238300	-0.467817
C137	C	0.912375	-0.300554	-0.931124
C138	C	1.412375	0.199446	-0.431124
C139	C	0.878298	-0.334613	-0.821285
C140	C	1.378298	0.165387	-0.321285
C141	C	0.915235	-0.297700	-0.856150
C142	C	1.415235	0.202300	-0.356150
C143	C	0.903689	-0.309275	-0.155884
C144	C	1.403689	0.190725	0.344116
C145	C	0.906784	-0.306130	-0.077820
C146	C	1.406784	0.193870	0.422180
H147	H	0.534742	-0.246415	-0.419986
H148	H	1.034742	0.253585	0.080014
H149	H	0.954504	-0.258481	-0.739529
H150	H	1.454504	0.241519	-0.239529
H151	H	0.808334	-0.404525	-0.739460
H152	H	1.308334	0.095475	-0.239460
Cl153	Cl	0.825904	-0.386967	-0.867370
Cl154	Cl	1.325904	0.113033	-0.367370
Cl155	Cl	0.991442	-0.537443	-0.237036
Cl156	Cl	1.491442	-0.037443	0.262964
H157	H	0.813402	-0.399463	-0.606387
H158	H	1.313402	0.100537	-0.106387
H159	H	0.253168	-0.246449	-0.420010
H160	H	0.753168	0.253551	0.079990
H161	H	0.973042	-1.072870	-0.257022
H162	H	1.473042	-0.572870	0.242978
Cl163	Cl	0.274615	-0.403153	-0.236816
Cl164	Cl	0.774615	0.096847	0.263184
Cl165	Cl	0.821805	-0.391042	-0.921654
Cl166	Cl	1.321805	0.108958	-0.421654
Cl167	Cl	0.802049	-1.094434	-0.439733
Cl168	Cl	1.302049	-0.594434	0.060267
H169	H	0.820599	-0.959847	-0.419827
H170	H	1.320599	-0.459847	0.080173
H171	H	0.654006	-0.246414	-0.419988
H172	H	1.154006	0.253586	0.080012
H173	H	0.820454	-0.559004	-0.419756
H174	H	1.320454	-0.059004	0.080244
H175	H	0.660149	-0.386068	-0.256715
H176	H	1.160149	0.113932	0.243285
Cl177	Cl	0.978045	-0.234981	-0.590234
Cl178	Cl	1.478045	0.265019	-0.090234
H179	H	0.972889	-0.672029	-0.256937
H180	H	1.472889	-0.172029	0.243063
H181	H	0.540881	-0.386076	-0.256718
H182	H	1.040881	0.113924	0.243282
H183	H	0.972992	-0.953604	-0.256988
H184	H	1.472992	-0.453604	0.243012
Cl185	Cl	0.801903	-0.693594	-0.439650
Cl186	Cl	1.301903	-0.193594	0.060350
Cl187	Cl	0.126228	-0.403174	-0.236827
Cl188	Cl	0.626228	0.096826	0.263173
Cl189	Cl	1.003665	-0.209345	-0.921743
Cl190	Cl	1.503665	0.290655	-0.421743
H191	H	0.949168	-0.263791	-0.826303
H192	H	1.449168	0.236209	-0.326303
Cl193	Cl	0.997351	-0.215639	-1.087298
Cl194	Cl	1.497351	0.284361	-0.587298
H195	H	0.133903	-0.246462	-0.420020
H196	H	0.633903	0.253538	0.079980
Cl197	Cl	0.815495	-0.397338	-1.087205
Cl198	Cl	1.315495	0.102662	-0.587205
