data_functionalizedCrystal
_audit_creation_method	'MofGen! by Chris Wilmer'
_symmetry_space_group_name_H-M	'P1'
_symmetry_Int_Tables_number	1
_symmetry_cell_setting	triclinic
loop_
_symmetry_equiv_pos_as_xyz
  x,y,z
_cell_length_a	15.944499
_cell_length_b	15.944551
_cell_length_c	8.140239
_cell_angle_alpha	89.995530
_cell_angle_beta	89.994688
_cell_angle_gamma	83.488174
loop_
_atom_site_label
_atom_site_type_symbol
_atom_site_fract_x
_atom_site_fract_y
_atom_site_fract_z
O1	O	1.114549	0.108124	-0.136715
O2	O	0.869994	0.121526	-0.136698
O3	O	0.998950	-0.007451	-0.136692
O4	O	0.985593	0.237101	-0.136721
O5	O	0.998943	-0.007453	0.136535
O6	O	0.869987	0.121524	0.136530
O7	O	1.114542	0.108123	0.136512
Zn8	Zn	0.992263	0.114823	0.179901
Zn9	Zn	0.992273	0.114825	-0.180087
O10	O	0.985586	0.237099	0.136506
C11	C	0.838695	0.120976	-0.000082
C12	C	0.745447	0.119331	-0.000074
C13	C	0.453911	0.194263	-0.000108
C14	C	0.514944	0.155312	-0.134821
C15	C	0.409810	0.113355	-0.000112
C16	C	0.514923	0.155289	0.134559
C17	C	0.574719	0.116296	-0.000091
C18	C	0.469615	0.074382	-0.134936
C19	C	0.469588	0.074370	0.134565
C20	C	0.530603	0.035360	-0.000182
C21	C	0.314810	0.111663	-0.000125
C22	C	0.669718	0.117981	-0.000089
C23	C	0.998392	-0.038746	-0.000078
C24	C	0.996729	-0.131992	-0.000077
C25	C	0.912823	-0.346833	-0.000094
C26	C	0.951783	-0.407858	0.134621
C27	C	0.993722	-0.302717	-0.000090
C28	C	0.951809	-0.407840	-0.134760
C29	C	0.990811	-0.467629	-0.000109
C30	C	1.032704	-0.362514	0.134736
C31	C	1.032719	-0.362490	-0.134765
C32	C	1.071737	-0.423497	-0.000018
C33	C	0.995397	-0.207715	-0.000077
C34	C	0.989143	-0.562630	-0.000109
C35	C	1.145840	0.108672	-0.000108
C36	C	1.239089	0.110317	-0.000126
C37	C	0.986144	0.268394	-0.000111
C38	C	0.987806	0.361640	-0.000123
N39	N	0.992263	0.114821	0.425584
N40	N	0.992279	0.114820	-0.425770
H41	H	0.449468	0.040176	0.248466
Br42	Br	0.436329	0.017386	-0.324963
H43	H	0.845673	-0.313513	0.000046
Br44	Br	1.183755	-0.478788	0.000089
H45	H	0.563780	-0.031846	-0.000245
Br46	Br	0.548434	0.212347	-0.324666
H47	H	0.917563	-0.427961	0.248516
H48	H	0.534995	0.189523	0.248445
H49	H	1.066889	-0.342530	0.248752
H50	H	1.066909	-0.342365	-0.248667
Br51	Br	0.894759	-0.441317	-0.324567
H52	H	0.420581	0.261409	-0.000246
