data_functionalizedCrystal
_audit_creation_method	'MofGen! by Chris Wilmer'
_symmetry_space_group_name_H-M	'P1'
_symmetry_Int_Tables_number	1
_symmetry_cell_setting	triclinic
loop_
_symmetry_equiv_pos_as_xyz
  x,y,z
_cell_length_a	10.540514
_cell_length_b	23.532407
_cell_length_c	9.016244
_cell_angle_alpha	89.988597
_cell_angle_beta	89.997124
_cell_angle_gamma	83.681919
loop_
_atom_site_label
_atom_site_type_symbol
_atom_site_fract_x
_atom_site_fract_y
_atom_site_fract_z
O1	O	1.683270	0.080187	-0.123376
O2	O	1.313604	0.087763	-0.123376
O3	O	1.509584	0.001117	-0.123349
O4	O	1.487290	0.166834	-0.123403
O5	O	1.509576	0.001110	0.123332
O6	O	1.313596	0.087757	0.123304
O7	O	1.683262	0.080180	0.123305
Cu8	Cu	1.498428	0.083968	0.145829
Cu9	Cu	1.498438	0.083976	-0.145900
O10	O	1.487282	0.166827	0.123277
C11	C	1.266315	0.087195	-0.000036
C12	C	1.125421	0.085504	-0.000035
C13	C	1.052682	0.147473	-0.000058
C14	C	0.906126	0.145735	-0.000625
C15	C	0.934194	0.051806	-0.140625
C16	C	1.080662	0.053984	-0.140736
C17	C	1.081086	0.053059	0.139796
C18	C	0.934126	0.052461	0.141637
C19	C	1.509013	-0.020106	-0.000005
C20	C	1.507306	-0.083335	0.000007
C21	C	1.612577	-0.481747	-0.000075
C22	C	1.610991	-0.541157	-0.000086
O23	O	1.708578	-0.577261	-0.000140
N24	N	1.494481	-0.564548	-0.000085
C25	C	1.379549	-0.528525	-0.000088
O26	O	1.280302	-0.553876	-0.000089
C27	C	1.381136	-0.469116	-0.000087
C28	C	1.497654	-0.445728	-0.000073
C29	C	1.729085	-0.458358	-0.000062
C30	C	1.730670	-0.398952	-0.000048
C31	C	1.615747	-0.362933	-0.000046
C32	C	1.499239	-0.386322	-0.000059
C33	C	1.266205	-0.433094	-0.000101
C34	C	1.267802	-0.373681	-0.000101
C35	C	1.384320	-0.350293	-0.000087
C36	C	1.385901	-0.290897	-0.000043
N37	N	1.502411	-0.267505	-0.000044
C38	C	1.617334	-0.303524	-0.000046
C39	C	1.376225	-0.653290	-0.000092
C40	C	1.374637	-0.712698	-0.000082
C41	C	1.606079	-0.725326	-0.000083
C42	C	1.607666	-0.665916	-0.000082
C43	C	1.492735	-0.629898	-0.000093
C44	C	1.620654	-0.178765	-0.000015
C45	C	1.622229	-0.119353	0.000005
C46	C	1.390787	-0.106730	-0.000002
C47	C	1.389211	-0.166137	-0.000014
C48	C	1.504155	-0.202154	-0.000026
O49	O	1.288365	-0.254758	0.000005
O50	O	1.716564	-0.278165	-0.000064
C51	C	1.730551	0.080749	-0.000039
C52	C	1.871445	0.082440	-0.000050
C53	C	1.487854	0.188050	-0.000070
C54	C	1.489560	0.251278	-0.000091
N55	N	1.498431	0.083962	0.351015
N56	N	1.498445	0.083977	-0.351086
C57	C	1.603648	0.037772	0.586016
C58	C	1.603374	0.037596	0.414125
C59	C	1.366168	0.070451	0.413445
C60	C	1.366795	0.070127	0.585390
C61	C	1.524309	0.143825	0.585499
C62	C	1.527317	0.143434	0.413543
H63	H	0.911455	0.006325	0.150559
H64	H	1.701715	0.045720	0.371914
H65	H	1.286026	0.103185	0.372567
H66	H	1.586925	-0.006809	0.373021
H67	H	1.130162	0.008464	-0.146724
H68	H	1.702323	0.045774	0.627352
H69	H	1.282628	-0.623966	-0.000088
C70	C	0.831895	-0.022906	-0.024587
C71	C	0.906126	-0.010951	-0.147146
H72	H	0.814560	-0.061649	-0.028619
H73	H	0.876948	-0.016645	0.064103
H74	H	0.753821	0.001463	-0.026145
H75	H	0.984204	-0.035317	-0.145582
H76	H	0.861073	-0.017217	-0.235859
H77	H	1.294333	-0.185180	0.000015
C78	C	1.176885	-0.720202	-0.126895
C79	C	1.246558	-0.738402	-0.000085
H80	H	1.097816	-0.736073	-0.126905
H81	H	1.161396	-0.679670	-0.126874
H82	H	1.224187	-0.732531	-0.212908
H83	H	1.199260	-0.726070	0.085929
H84	H	1.262044	-0.778943	-0.000092
C85	C	1.054295	-0.046950	0.137442
C86	C	1.146908	-0.008644	0.141668
H87	H	1.094937	-0.085041	0.138581
H88	H	1.000052	-0.040943	0.221403
H89	H	1.005100	-0.040850	0.049459
H90	H	1.196097	-0.014742	0.229657
H91	H	1.201172	-0.014655	0.057699
H92	H	1.624611	0.153674	0.372739
H93	H	0.863610	0.169732	-0.102003
H94	H	1.587447	-0.006378	0.629257
C95	C	0.971938	0.101463	-0.366290
C96	C	0.875816	0.080178	-0.282422
H97	H	0.935898	0.118978	-0.453830
H98	H	1.010547	0.128898	-0.309546
H99	H	1.034547	0.070945	-0.392391
H100	H	0.813211	0.110697	-0.256310
H101	H	0.837187	0.052741	-0.339177
C102	C	1.188714	0.127600	0.248568
C103	C	1.122668	0.080904	0.283688
H104	H	1.214376	0.144796	0.337397
H105	H	1.261961	0.114901	0.191201
H106	H	1.134585	0.154778	0.193307
H107	H	1.176801	0.053724	0.338939
H108	H	1.049411	0.093602	0.341079
C109	C	1.037604	-0.414619	-0.000144
C110	C	1.138123	-0.458790	-0.000130
H111	H	0.958528	-0.430483	-0.000173
H112	H	1.043033	-0.391721	0.085880
H113	H	1.043071	-0.391701	-0.086167
H114	H	1.132661	-0.481706	0.085899
H115	H	1.132692	-0.481698	-0.086163
H116	H	1.342673	0.027280	0.370411
H117	H	0.862668	0.169829	0.100121
C118	C	1.758294	-0.059857	-0.126786
C119	C	1.750312	-0.093645	0.000013
H120	H	1.837362	-0.043985	-0.126776
H121	H	1.752869	-0.082762	-0.212798
H122	H	1.690074	-0.029902	-0.126763
H123	H	1.818527	-0.123602	-0.000016
H124	H	1.755750	-0.070739	0.086046
H125	H	1.297220	-0.077393	0.000005
H126	H	1.618654	0.156681	0.628847
C127	C	1.494946	0.231296	0.276355
C128	C	1.430496	0.192079	0.355549
H129	H	1.435161	0.261323	0.240545
H130	H	1.554529	0.246668	0.339753
H131	H	1.538839	0.212492	0.195041
H132	H	1.386610	0.210882	0.436870
H133	H	1.370890	0.176706	0.292147
C134	C	1.135310	-0.299535	-0.126917
C135	C	1.141462	-0.334091	-0.000111
H136	H	1.057311	-0.275097	-0.126922
H137	H	1.204913	-0.277102	-0.126895
H138	H	1.139515	-0.322971	-0.212933
H139	H	1.137268	-0.310654	0.085905
H140	H	1.071841	-0.356526	-0.000120
H141	H	1.108155	0.076363	-0.246235
H142	H	1.343884	0.026464	0.625525
C143	C	1.753185	-0.252880	-0.126837
C144	C	1.747002	-0.218349	-0.000021
H145	H	1.831190	-0.277314	-0.126835
H146	H	1.683589	-0.275317	-0.126836
H147	H	1.748990	-0.229427	-0.212846
H148	H	1.751187	-0.241802	0.085988
H149	H	1.816617	-0.195910	-0.000009
C150	C	1.192492	0.140104	0.520338
C151	C	1.257967	0.113777	0.641573
H152	H	1.125294	0.167043	0.555022
H153	H	1.249785	0.159156	0.461968
H154	H	1.157973	0.111966	0.461818
H155	H	1.292494	0.141914	0.700087
H156	H	1.200664	0.094724	0.699968
C157	C	0.934227	0.055652	0.407808
C158	C	0.877782	0.082674	0.282042
H159	H	0.899438	0.074307	0.494484
H160	H	0.917769	0.016774	0.409043
H161	H	1.023756	0.057558	0.405199
H162	H	0.788255	0.080765	0.284646
H163	H	0.894230	0.121562	0.280808
C164	C	1.925887	-0.487390	-0.126854
C165	C	1.855427	-0.497942	-0.000056
H166	H	2.003894	-0.511822	-0.126834
H167	H	1.878098	-0.494536	-0.212866
H168	H	1.943473	-0.448656	-0.126840
H169	H	1.837832	-0.536676	-0.000075
H170	H	1.903226	-0.490801	0.085978
C171	C	1.836272	-0.684379	-0.000093
C172	C	1.735745	-0.640212	-0.000089
H173	H	1.915344	-0.668512	-0.000111
H174	H	1.830836	-0.707291	0.085930
H175	H	1.830822	-0.707285	-0.086117
H176	H	1.741189	-0.617309	0.085941
H177	H	1.741184	-0.617291	-0.086121
C178	C	1.444532	0.243409	0.583386
C179	C	1.420738	0.190255	0.640411
H180	H	1.380584	0.272068	0.617287
H181	H	1.525842	0.252114	0.616096
H182	H	1.443284	0.242096	0.478099
H183	H	1.421995	0.191566	0.745699
H184	H	1.339407	0.181548	0.607709
H185	H	1.082100	0.172246	-0.100733
C186	C	1.706397	-0.822008	-0.000129
C187	C	1.732408	-0.764926	-0.000110
H188	H	1.784383	-0.846455	-0.000158
H189	H	1.658604	-0.829154	0.085893
H190	H	1.658578	-0.829129	-0.086154
H191	H	1.780219	-0.757803	0.085921
H192	H	1.780221	-0.757777	-0.086141
H193	H	1.080393	0.172609	0.100734
H194	H	1.825551	-0.379916	-0.000043
