data_functionalizedCrystal
_audit_creation_method	'MofGen! by Chris Wilmer'
_symmetry_space_group_name_H-M	'P1'
_symmetry_Int_Tables_number	1
_symmetry_cell_setting	triclinic
loop_
_symmetry_equiv_pos_as_xyz
  x,y,z
_cell_length_a	13.032831
_cell_length_b	13.032721
_cell_length_c	11.169409
_cell_angle_alpha	97.146003
_cell_angle_beta	82.804574
_cell_angle_gamma	90.902885
loop_
_atom_site_label
_atom_site_type_symbol
_atom_site_fract_x
_atom_site_fract_y
_atom_site_fract_z
Zn1	Zn	1.520321	-0.609291	-0.988812
Zn2	Zn	1.853654	-0.275958	-0.655479
Zn3	Zn	2.186988	0.057375	-0.322145
Zn4	Zn	1.498349	-0.781285	-0.809996
Zn5	Zn	1.831682	-0.447951	-0.476663
Zn6	Zn	2.165015	-0.114618	-0.143329
Zn7	Zn	1.348321	-0.587479	-0.759912
Zn8	Zn	1.681654	-0.254145	-0.426579
Zn9	Zn	2.014988	0.079188	-0.093245
Zn10	Zn	1.326469	-0.759339	-0.982404
Zn11	Zn	1.659802	-0.426005	-0.649071
Zn12	Zn	1.993135	-0.092672	-0.315738
O13	O	1.423365	-0.684348	-0.885281
O14	O	1.756698	-0.351015	-0.551948
O15	O	2.090031	-0.017682	-0.218614
O16	O	1.661321	-0.650420	-0.988734
O17	O	1.994655	-0.317086	-0.655400
O18	O	2.327988	0.016247	-0.322067
O19	O	1.478397	-0.755632	-0.635403
O20	O	1.811730	-0.422299	-0.302070
O21	O	2.145064	-0.088965	0.031263
O22	O	1.389478	-0.446468	-0.771997
O23	O	1.722811	-0.113135	-0.438664
O24	O	2.056144	0.220198	-0.105331
O25	O	1.645178	-0.776783	-0.857358
O26	O	1.978512	-0.443449	-0.524025
O27	O	2.311845	-0.110116	-0.190692
O28	O	1.515845	-0.462494	-0.940169
O29	O	1.849179	-0.129160	-0.606836
O30	O	2.182512	0.204173	-0.273503
O31	O	1.368172	-0.613243	-0.598607
O32	O	1.701506	-0.279910	-0.265273
O33	O	2.034839	0.053423	0.068060
O34	O	1.201507	-0.591963	-0.765784
O35	O	1.534840	-0.258630	-0.432451
O36	O	1.868174	0.074704	-0.099117
O37	O	1.352234	-0.739379	-1.151203
O38	O	1.685567	-0.406045	-0.817870
O39	O	2.018900	-0.072712	-0.484537
O40	O	1.185452	-0.718228	-0.929248
O41	O	1.518786	-0.384895	-0.595915
O42	O	1.852119	-0.051561	-0.262582
O43	O	1.494656	-0.629139	-1.155911
O44	O	1.827989	-0.295806	-0.822578
O45	O	2.161323	0.037527	-0.489244
O46	O	1.457208	-0.922277	-0.851145
O47	O	1.790541	-0.588944	-0.517812
O48	O	2.123874	-0.255611	-0.184478
O49	O	1.330928	-0.906154	-0.977813
O50	O	1.664261	-0.572820	-0.644480
O51	O	1.997595	-0.239487	-0.311146
C52	C	1.156164	-0.650348	-0.841387
C53	C	1.489497	-0.317015	-0.508054
C54	C	1.822831	0.016319	-0.174720
C55	C	1.041851	-0.635827	-0.822640
C56	C	1.375184	-0.302494	-0.489307
C57	C	1.708518	0.030839	-0.155974
C58	C	0.982958	-0.691927	-0.895065
C59	C	1.316291	-0.358594	-0.561732
C60	C	1.649625	-0.025260	-0.228398
C61	C	0.864810	-0.676920	-0.875691
C62	C	1.198143	-0.343587	-0.542358
C63	C	1.531476	-0.010254	-0.209025
C64	C	1.389340	-0.951532	-0.919249
C65	C	1.722674	-0.618199	-0.585916
C66	C	2.056007	-0.284865	-0.252583
C67	C	1.374879	-1.065846	-0.933836
C68	C	1.708212	-0.732513	-0.600503
C69	C	2.041545	-0.399179	-0.267170
C70	C	1.430967	-1.124761	-0.877731
C71	C	1.764300	-0.791428	-0.544398
C72	C	2.097634	-0.458094	-0.211064
C73	C	1.416022	-1.242911	-0.892806
C74	C	1.749355	-0.909578	-0.559473
C75	C	2.082688	-0.576244	-0.226139
C76	C	1.691609	-0.718482	-0.929348
C77	C	2.024942	-0.385149	-0.596014
C78	C	2.358275	-0.051816	-0.262681
C79	C	1.805918	-0.733028	-0.948126
C80	C	2.139252	-0.399695	-0.614793
C81	C	2.472585	-0.066361	-0.281459
C82	C	1.423458	-0.684244	-1.198322
C83	C	1.756792	-0.350911	-0.864989
C84	C	2.090125	-0.017578	-0.531655
C85	C	1.423498	-0.684200	-1.331722
C86	C	1.756831	-0.350866	-0.998388
C87	C	2.090165	-0.017533	-0.665055
C88	C	1.457550	-0.416125	-0.851211
C89	C	1.790883	-0.082792	-0.517878
C90	C	2.124217	0.250542	-0.184545
C91	C	1.472118	-0.301824	-0.836693
C92	C	1.805451	0.031509	-0.503359
C93	C	2.138784	0.364842	-0.170026
C94	C	1.423340	-0.684385	-0.573458
C95	C	1.756674	-0.351052	-0.240125
C96	C	2.090007	-0.017719	0.093208
C97	C	1.423536	-0.684165	-0.440055
C98	C	1.756870	-0.350832	-0.106722
C99	C	2.090203	-0.017499	0.226611
H100	H	1.020007	-0.751062	-0.971417
H101	H	1.353340	-0.417729	-0.638084
H102	H	1.686674	-0.084396	-0.304750
N103	N	1.337743	-1.291938	-0.971216
N104	N	1.671076	-0.958605	-0.637883
N105	N	2.004410	-0.625271	-0.304550
H106	H	1.356024	-1.275249	-1.057231
H107	H	1.689358	-0.941916	-0.723898
H108	H	2.022691	-0.608583	-0.390564
H109	H	1.338192	-1.369375	-0.970773
H110	H	1.671525	-1.036042	-0.637439
H111	H	2.004858	-0.702708	-0.304106
H112	H	0.827767	-0.617773	-0.799342
H113	H	1.161100	-0.284440	-0.466009
H114	H	1.494433	0.048893	-0.132675
N115	N	1.550396	-1.252795	-0.758283
N116	N	1.883729	-0.919462	-0.424950
N117	N	2.217063	-0.586128	-0.091617
H118	H	1.549981	-1.175343	-0.758629
H119	H	1.883314	-0.842010	-0.425295
H120	H	2.216648	-0.508677	-0.091962
H121	H	1.532067	-1.269560	-0.672310
H122	H	1.865401	-0.936227	-0.338977
H123	H	2.198734	-0.602894	-0.005643
N124	N	1.509229	-1.075713	-0.799318
N125	N	1.842562	-0.742379	-0.465985
N126	N	2.175896	-0.409046	-0.132652
H127	H	1.490945	-1.092399	-0.713303
H128	H	1.824278	-0.759066	-0.379970
H129	H	2.157611	-0.425733	-0.046637
H130	H	1.580341	-1.103640	-0.832547
H131	H	1.913674	-0.770306	-0.499214
H132	H	2.247008	-0.436973	-0.165880
H133	H	0.842961	-0.792165	-1.024486
H134	H	1.176295	-0.458832	-0.691153
H135	H	1.509628	-0.125499	-0.357820
H136	H	1.004803	-0.576684	-0.746297
H137	H	1.338137	-0.243351	-0.412963
H138	H	1.671470	0.089982	-0.079630
H139	H	1.315799	-1.102877	-0.993037
H140	H	1.649132	-0.769544	-0.659703
H141	H	1.982465	-0.436210	-0.326370
