data_functionalizedCrystal
_audit_creation_method	'MofGen! by Chris Wilmer'
_symmetry_space_group_name_H-M	'P1'
_symmetry_Int_Tables_number	1
_symmetry_cell_setting	triclinic
loop_
_symmetry_equiv_pos_as_xyz
  x,y,z
_cell_length_a	11.026660
_cell_length_b	14.044220
_cell_length_c	10.065875
_cell_angle_alpha	99.592716
_cell_angle_beta	79.302288
_cell_angle_gamma	100.886856
loop_
_atom_site_label
_atom_site_type_symbol
_atom_site_fract_x
_atom_site_fract_y
_atom_site_fract_z
O1	O	1.670483	0.393270	-0.113519
O2	O	2.170483	0.893270	0.386481
O3	O	1.312195	0.347225	-0.113518
O4	O	1.812195	0.847225	0.386482
O5	O	1.485959	0.231347	-0.113505
O6	O	1.985959	0.731347	0.386495
O7	O	1.496719	0.509148	-0.113532
O8	O	1.996719	1.009148	0.386468
O9	O	1.452837	0.253556	0.113481
O10	O	1.952837	0.753556	0.613481
O11	O	1.279072	0.369435	0.113469
O12	O	1.779072	0.869435	0.613469
O13	O	1.637361	0.415480	0.113467
O14	O	2.137361	0.915480	0.613467
Zn15	Zn	1.452958	0.395984	0.149507
Zn16	Zn	1.952958	0.895984	0.649507
Zn17	Zn	1.496598	0.366721	-0.149558
Zn18	Zn	1.996598	0.866721	0.350442
O19	O	1.463597	0.531358	0.113454
O20	O	1.963597	1.031358	0.613454
C21	C	1.249503	0.349835	-0.000024
C22	C	1.749503	0.849835	0.499976
C23	C	1.112049	0.324512	-0.000023
C24	C	1.612049	0.824512	0.499977
C25	C	0.903747	0.368270	-0.000032
C26	C	1.403747	0.868270	0.499968
C27	C	1.045813	0.394444	-0.000031
C28	C	1.545813	0.894444	0.499969
C29	C	1.464690	0.206334	-0.000011
C30	C	1.964690	0.706334	0.499989
C31	C	1.450646	0.098712	-0.000010
C32	C	1.950646	0.598712	0.499990
C33	C	1.424974	-0.098332	-0.000029
C34	C	1.924974	0.401668	0.499971
C35	C	1.524578	-0.138971	-0.000034
C36	C	2.024578	0.361029	0.499966
C37	C	1.510294	-0.248613	-0.000045
C38	C	2.010294	0.251387	0.499955
C39	C	1.439256	0.011320	-0.000018
C40	C	1.939256	0.511320	0.499982
C41	C	1.700053	0.412869	-0.000030
C42	C	2.200053	0.912869	0.499970
C43	C	1.837509	0.438191	-0.000040
C44	C	2.337509	0.938191	0.499960
C45	C	1.484866	0.556371	-0.000043
C46	C	1.984866	1.056371	0.499957
C47	C	1.498912	0.663992	-0.000053
C48	C	1.998912	1.163992	0.499947
N49	N	1.423184	0.415955	0.353610
N50	N	1.923184	0.915955	0.853610
N51	N	1.526381	0.346743	-0.353661
N52	N	2.026381	0.846743	0.146339
C53	C	1.486230	0.373662	0.421394
C54	C	1.986230	0.873662	0.921394
C55	C	1.463325	0.389042	0.578559
C56	C	1.963325	0.889042	1.078559
H57	H	0.855277	0.289031	-0.000004
H58	H	1.355277	0.789031	0.499996
N59	N	0.901706	0.543154	-0.000057
N60	N	1.401706	1.043154	0.499943
H61	H	0.889292	0.568173	-0.084207
H62	H	1.389292	1.068173	0.415793
H63	H	0.864706	0.584572	0.084137
H64	H	1.364706	1.084572	0.584137
N65	N	1.297816	-0.161315	-0.000016
N66	N	1.797816	0.338685	0.499984
H67	H	1.239102	-0.138922	0.084136
H68	H	1.739102	0.361078	0.584136
H69	H	1.263746	-0.155361	-0.084208
H70	H	1.763746	0.344639	0.415792
H71	H	1.392382	0.436636	0.636875
H72	H	1.892382	0.936636	1.136875
H73	H	1.620594	-0.091428	-0.000126
H74	H	2.120594	0.408572	0.499874
H75	H	1.557159	0.326063	0.363074
H76	H	2.057159	0.826063	0.863074
H77	H	1.597314	0.299141	0.588023
H78	H	2.097314	0.799141	1.088023
N79	N	1.329212	0.478994	0.430847
N80	N	1.829212	0.978994	0.930847
H81	H	1.326168	0.481043	0.532173
H82	H	1.826168	0.981043	1.032173
H83	H	1.354760	0.547512	0.405935
H84	H	1.854760	1.047512	0.905935
H85	H	1.094273	0.473691	-0.000030
H86	H	1.594273	0.973691	0.499970
H87	H	1.063602	0.245257	-0.000106
H88	H	1.563602	0.745257	0.499894
