data_functionalizedCrystal
_audit_creation_method	'MofGen! by Chris Wilmer'
_symmetry_space_group_name_H-M	'P1'
_symmetry_Int_Tables_number	1
_symmetry_cell_setting	triclinic
loop_
_symmetry_equiv_pos_as_xyz
  x,y,z
_cell_length_a	10.654556
_cell_length_b	17.766277
_cell_length_c	10.654550
_cell_angle_alpha	89.994987
_cell_angle_beta	95.513766
_cell_angle_gamma	90.007741
loop_
_atom_site_label
_atom_site_type_symbol
_atom_site_fract_x
_atom_site_fract_y
_atom_site_fract_z
O1	O	1.667845	0.062566	-0.176437
O2	O	1.302368	0.062573	-0.193235
O3	O	1.493510	0.062565	-0.002097
O4	O	1.476704	0.062574	-0.367575
O5	O	1.493475	-0.062624	-0.002091
O6	O	1.302333	-0.062615	-0.193229
O7	O	1.667811	-0.062623	-0.176431
Cu8	Cu	1.485069	-0.074050	-0.184829
Cu9	Cu	1.485110	0.074000	-0.184836
O10	O	1.476669	-0.062614	-0.367569
C11	C	1.255553	-0.000020	-0.191997
C12	C	1.116110	-0.000017	-0.188302
N13	N	1.485049	-0.178180	-0.184824
C14	C	0.919583	0.068217	-0.183102
C15	C	1.050606	0.068222	-0.186566
C16	C	1.050587	-0.068265	-0.186560
C17	C	0.919568	-0.068269	-0.183087
C18	C	1.561871	-0.217560	-0.261712
C19	C	1.561890	-0.296362	-0.261709
C20	C	1.485066	-0.335781	-0.184831
C21	C	1.408240	-0.296391	-0.107928
C22	C	1.408231	-0.217591	-0.107924
C23	C	1.371812	-0.460638	-0.180312
C24	C	1.371818	-0.539437	-0.180324
C25	C	1.485092	-0.578827	-0.184836
C26	C	1.598362	-0.539409	-0.189360
C27	C	1.598354	-0.460609	-0.189357
C28	C	1.485067	-0.421226	-0.184826
C29	C	1.561941	-0.703653	-0.261724
C30	C	1.561963	-0.782456	-0.261712
C31	C	1.408301	-0.782484	-0.107938
C32	C	1.408290	-0.703682	-0.107943
C33	C	1.485108	-0.664271	-0.184843
C34	C	1.714626	-0.000028	-0.177669
C35	C	1.854069	-0.000026	-0.181364
N36	N	1.485139	0.178130	-0.184832
C37	C	1.492258	-0.000029	0.044704
C38	C	1.488567	-0.000028	0.184147
C39	C	1.477920	-0.000019	-0.414370
C40	C	1.481612	-0.000015	-0.553813
C41	C	1.601108	-0.000030	0.263630
C42	C	1.597631	-0.000021	0.394651
C43	C	1.369063	-0.000011	0.366693
C44	C	1.372540	-0.000014	0.235675
H45	H	0.866258	0.123785	-0.181698
C46	C	1.719782	0.000131	0.481007
C47	C	1.724504	0.064552	0.557000
C48	C	1.837024	0.064725	0.636553
H49	H	1.723284	-0.043471	0.532829
H50	H	1.789411	0.000164	0.431592
H51	H	1.654895	0.064512	0.606410
H52	H	1.721024	0.108164	0.505211
H53	H	1.906652	0.064758	0.587138
H54	H	1.840515	0.021120	0.688367
H55	H	1.840248	0.108437	0.688115
C56	C	1.121501	0.142394	-0.188517
C57	C	1.036088	0.202153	-0.186296
C58	C	1.101348	0.270495	-0.188106
H59	H	1.181552	0.145341	-0.116781
H60	H	1.163644	0.145274	-0.263007
H61	H	0.993966	0.199275	-0.111813
H62	H	0.976035	0.199232	-0.258025
H63	H	1.143491	0.273375	-0.262597
H64	H	1.161397	0.273433	-0.116369
H65	H	1.043404	0.311049	-0.186611
H66	H	1.624492	-0.671563	-0.324340
H67	H	1.103932	-0.123827	-0.187965
H68	H	1.690600	-0.571479	-0.193040
H69	H	1.279563	-0.428573	-0.176647
H70	H	1.345750	-0.814578	-0.045342
H71	H	1.274598	-0.000001	0.408664
C72	C	1.250246	0.000105	0.149518
C73	C	1.180460	0.064505	0.172965
C74	C	1.067795	0.064639	0.093634
H75	H	1.268758	0.000142	0.064068
H76	H	1.202634	-0.043526	0.165269
H77	H	1.228062	0.108125	0.157204
H78	H	1.161915	0.064482	0.258399
H79	H	1.020183	0.021008	0.109385
H80	H	1.086319	0.064674	0.008189
H81	H	1.020426	0.108330	0.109539
C82	C	0.848646	-0.142445	-0.181270
C83	C	0.934041	-0.202209	-0.183566
C84	C	0.868752	-0.270547	-0.181905
H85	H	0.806469	-0.145391	-0.106825
H86	H	0.788617	-0.145321	-0.253053
H87	H	0.994048	-0.199335	-0.111790
H88	H	0.976222	-0.199289	-0.258005
H89	H	0.808724	-0.273423	-0.253688
H90	H	0.826578	-0.273485	-0.107459
H91	H	0.926681	-0.311105	-0.183474
H92	H	1.624427	-0.185477	-0.324325
H93	H	1.624448	-0.328432	-0.324324
H94	H	1.690583	-0.428518	-0.193038
H95	H	1.345729	-0.671618	-0.045338
C96	C	1.645417	-0.825079	-0.345332
C97	C	1.712657	-0.773695	-0.412697
C98	C	1.789534	-0.812932	-0.489754
H99	H	1.702884	-0.855817	-0.294545
H100	H	1.594476	-0.855807	-0.402715
H101	H	1.763594	-0.742980	-0.355321
H102	H	1.655222	-0.742956	-0.463508
H103	H	1.738593	-0.843660	-0.547137
H104	H	1.846993	-0.843668	-0.438957
H105	H	1.835157	-0.778074	-0.535479
C106	C	1.248719	-0.582093	-0.175370
C107	C	1.149522	-0.530734	-0.171378
C108	C	1.036104	-0.569999	-0.166807
H109	H	1.233948	-0.612825	-0.248243
H110	H	1.253836	-0.612829	-0.102084
H111	H	1.144403	-0.500011	-0.244657
H112	H	1.164251	-0.500000	-0.098508
H113	H	1.041221	-0.600735	-0.093521
H114	H	1.021346	-0.600730	-0.239682
H115	H	0.968787	-0.535158	-0.164086
H116	H	1.345690	-0.328491	-0.045332
C117	C	1.324678	-0.174966	-0.024406
C118	C	1.257379	-0.226349	0.042905
C119	C	1.180382	-0.187110	0.119839
H120	H	1.375501	-0.144218	0.033018
H121	H	1.267254	-0.144249	-0.075313
H122	H	1.314796	-0.257054	0.093807
H123	H	1.206532	-0.257099	-0.014488
H124	H	1.122958	-0.156392	0.068932
H125	H	1.231215	-0.156363	0.177255
H126	H	1.134703	-0.221967	0.165510
C127	C	1.727201	0.000004	0.207927
C128	C	1.825014	0.000027	0.305584
C129	C	1.941190	0.000073	0.254323
H130	H	1.733482	-0.043640	0.157422
H131	H	1.733384	0.043677	0.157426
H132	H	1.818833	-0.043642	0.356064
H133	H	1.818774	0.043668	0.356097
H134	H	1.947374	0.043746	0.203822
H135	H	1.947459	-0.043573	0.203819
H136	H	2.007570	0.000095	0.320575
