data_functionalizedCrystal
_audit_creation_method	'MofGen! by Chris Wilmer'
_symmetry_space_group_name_H-M	'P1'
_symmetry_Int_Tables_number	1
_symmetry_cell_setting	triclinic
loop_
_symmetry_equiv_pos_as_xyz
  x,y,z
_cell_length_a	23.096457
_cell_length_b	15.698487
_cell_length_c	15.698487
_cell_angle_alpha	90.002309
_cell_angle_beta	60.000577
_cell_angle_gamma	60.002993
loop_
_atom_site_label
_atom_site_type_symbol
_atom_site_fract_x
_atom_site_fract_y
_atom_site_fract_z
Zr1	Zr	0.633714	-0.111717	0.820653
O2	O	0.754500	-0.247729	0.684639
O3	O	0.512928	-0.070027	0.862346
O4	O	0.633711	-0.247730	0.862350
O5	O	0.633719	0.070155	0.684636
O6	O	0.633709	-0.247725	1.002534
O7	O	0.633717	-0.070026	0.684636
O8	O	0.417650	0.070153	1.002527
O9	O	0.849778	-0.247723	0.684643
O10	O	0.562607	-0.052237	0.984749
O11	O	0.562611	0.052375	0.880131
O12	O	0.704817	-0.156847	0.880136
O13	O	0.704821	-0.052236	0.775518
Zr14	Zr	0.633714	0.111864	1.044232
Zr15	Zr	0.633710	-0.111709	1.044231
Zr16	Zr	0.633718	0.111856	0.820654
Zr17	Zr	0.785671	-0.111708	0.820659
Zr18	Zr	0.481757	0.111854	1.044227
O19	O	0.754500	0.070174	1.002540
O20	O	0.754495	-0.247718	1.002539
O21	O	0.754505	0.070162	0.684641
O22	O	0.512928	0.247876	1.180246
O23	O	0.512923	-0.070016	1.180245
O24	O	0.512933	0.247864	0.862347
O25	O	0.633709	-0.070008	1.180249
O26	O	0.633717	0.247877	1.002536
O27	O	0.633719	0.247872	0.862351
O28	O	0.633711	0.070173	1.180250
O29	O	0.849775	-0.247717	0.862358
O30	O	0.417653	0.247864	1.002528
O31	O	0.417650	0.247870	1.180243
O32	O	0.417647	0.070160	1.180242
O33	O	0.849781	-0.070013	0.684644
O34	O	0.849778	-0.070006	0.862358
O35	O	0.562611	0.156994	0.984750
O36	O	0.562607	0.052383	1.089367
O37	O	0.704817	-0.052228	0.984754
O38	O	0.704821	0.052384	0.880137
C39	C	0.443638	0.000062	0.932436
C40	C	0.379129	0.000058	0.932433
C41	C	0.633719	0.000063	0.652781
C42	C	0.633720	0.000060	0.557866
C43	C	0.633719	0.279729	0.932444
C44	C	0.633720	0.374641	0.932444
C45	C	0.348826	-0.054552	0.987036
C46	C	0.288203	-0.054544	0.987046
C47	C	0.257898	0.000061	0.932433
C48	C	0.288205	0.054683	0.877829
C49	C	0.348820	0.054681	0.877829
N50	N	0.195504	-0.007515	0.843562
N51	N	0.137923	-0.007519	0.843564
C52	C	0.075266	0.000070	0.932432
N53	N	0.072372	0.007644	1.021297
N54	N	0.129961	0.007642	1.021293
C55	C	0.192170	0.000069	0.932428
C56	C	-0.020771	-0.054533	0.987051
C57	C	-0.081398	-0.054517	0.987064
C58	C	-0.081390	0.054702	0.877837
C59	C	-0.020770	0.054693	0.877834
C60	C	0.009538	0.000070	0.932438
C61	C	0.823789	0.000085	0.932450
C62	C	0.888299	0.000089	0.932452
C63	C	0.633709	-0.279582	0.932442
C64	C	0.633708	-0.374494	0.932441
C65	C	0.633706	0.548427	0.932444
C66	C	0.633710	0.451723	0.932446
C67	C	0.633722	0.000062	0.480784
C68	C	0.633718	0.000073	0.384087
C69	C	0.633709	0.000084	1.212105
C70	C	0.633708	0.000087	1.307020
C71	C	0.443634	0.000072	1.212098
C72	C	0.379122	0.000071	1.307010
C73	C	0.443643	0.279717	0.932437
C74	C	0.379135	0.374625	0.932435
C75	C	0.443638	0.279727	1.212099
C76	C	0.379129	0.374639	1.307012
C77	C	0.823789	-0.279580	0.652787
C78	C	0.888299	-0.374492	0.557874
C79	C	0.823794	0.000075	0.652788
C80	C	0.888305	0.000076	0.557875
C81	C	0.823785	-0.279570	0.932449
C82	C	0.888293	-0.374479	0.932451
C83	C	0.348827	-0.054549	1.296972
C84	C	0.288220	-0.054570	1.386144
C85	C	0.257906	0.000035	1.485352
C86	C	0.288207	0.054657	1.495388
C87	C	0.348817	0.054671	1.406218
C88	C	0.348841	0.473815	0.987043
C89	C	0.288237	0.563000	0.987038
C90	C	0.257924	0.552993	0.932428
C91	C	0.288224	0.453793	0.877813
C92	C	0.348830	0.364610	0.877813
C93	C	0.348832	0.364604	1.406202
C94	C	0.288227	0.453776	1.495391
C95	C	0.257915	0.552981	1.485387
C96	C	0.288217	0.563013	1.386186
C97	C	0.348825	0.473843	1.296999
C98	C	0.918603	-0.364458	0.458683
C99	C	0.979227	-0.453629	0.369494
C100	C	1.009543	-0.552834	0.379498
C101	C	0.979236	-0.562866	0.478699
C102	C	0.918617	-0.473696	0.567886
C103	C	0.918607	0.054686	0.567913
C104	C	0.979231	0.054683	0.478742
C105	C	1.009548	0.000075	0.379533
C106	C	0.979243	-0.054543	0.369497
C107	C	0.918625	-0.054545	0.458668
C108	C	0.918587	-0.364438	0.987071
C109	C	0.979192	-0.453606	0.987093
C110	C	1.009505	-0.552814	0.932489
C111	C	0.979205	-0.562852	0.877867
C112	C	0.918598	-0.473685	0.877852
H113	H	0.373499	-0.099027	1.031501
Br114	Br	0.389933	0.229999	0.803698
H115	H	0.263516	0.099114	1.576176
H116	H	1.003892	-0.445440	0.288729
Br117	Br	1.020394	-0.128646	0.234848
H118	H	0.373509	-0.099027	1.216200
H119	H	-0.106064	0.099163	0.833370
Br120	Br	0.247128	0.697615	1.061166
H121	H	0.893945	-0.481879	0.648649
Br122	Br	0.389946	0.128803	0.803722
H123	H	1.058856	-0.625411	0.932510
H124	H	0.263525	0.099143	0.833364
Br125	Br	0.247108	-0.128702	1.372499
Br126	Br	0.877472	-0.229834	0.445078
H127	H	0.003904	-0.099007	1.031517
Br128	Br	0.247070	0.697657	1.372627
Br129	Br	0.877479	0.128803	0.702543
Br130	Br	0.389931	0.487480	1.162386
Br131	Br	1.020343	0.128814	0.492386
Br132	Br	-0.122523	-0.128640	1.061171
Br133	Br	1.091813	-0.673842	0.258447
Br134	Br	0.389961	0.229980	1.419808
Br135	Br	1.020386	-0.697510	0.492258
H136	H	0.893939	-0.481874	0.833369
Br137	Br	0.247075	0.440230	0.803705
Br138	Br	1.091817	0.000088	0.258525
H139	H	0.893955	-0.099013	0.450480
Br140	Br	0.175671	0.674040	0.932438
H141	H	0.893915	-0.283667	1.031536
H142	H	0.263561	0.445588	1.576157
H143	H	0.208552	0.000016	1.557952
H144	H	0.263526	-0.099015	1.031511
H145	H	1.003855	-0.445413	1.031571
H146	H	0.373475	0.099156	1.414405
Br147	Br	0.389963	0.487425	1.061171
Br148	Br	1.020360	-0.697499	0.803756
H149	H	0.003906	0.099159	0.833366
H150	H	0.208563	0.625580	1.558018
