data_functionalizedCrystal
_audit_creation_method	'MofGen! by Chris Wilmer'
_symmetry_space_group_name_H-M	'P1'
_symmetry_Int_Tables_number	1
_symmetry_cell_setting	triclinic
loop_
_symmetry_equiv_pos_as_xyz
  x,y,z
_cell_length_a	13.339071
_cell_length_b	13.262508
_cell_length_c	11.804365
_cell_angle_alpha	117.325227
_cell_angle_beta	74.875833
_cell_angle_gamma	99.430290
loop_
_atom_site_label
_atom_site_type_symbol
_atom_site_fract_x
_atom_site_fract_y
_atom_site_fract_z
O1	O	1.328989	0.538433	0.075352
O2	O	1.039021	0.465652	0.051781
O3	O	1.201988	0.343504	0.012222
O4	O	1.166022	0.660581	0.114911
O5	O	1.159088	0.375616	0.220678
O6	O	0.996121	0.497764	0.260236
O7	O	1.286089	0.570545	0.283808
Cu8	Cu	1.137188	0.537086	0.291056
Cu9	Cu	1.187922	0.499110	0.044533
O10	O	1.123122	0.692693	0.323366
C11	C	0.980652	0.469414	0.152027
C12	C	0.870646	0.432768	0.140158
C13	C	0.837107	0.318492	0.103153
C14	C	0.733752	0.284057	0.091995
C15	C	0.663926	0.363896	0.117850
C16	C	0.697464	0.478177	0.154865
C17	C	0.800830	0.512614	0.166015
C18	C	0.627649	0.558018	0.180712
C19	C	0.661187	0.672299	0.217727
C20	C	0.764543	0.706730	0.228875
C21	C	0.834370	0.626890	0.203020
C22	C	0.524283	0.523581	0.169563
C23	C	0.488006	0.717703	0.232424
C24	C	0.591360	0.752138	0.243583
C25	C	1.182467	0.318148	0.103036
C26	C	1.188203	0.194750	0.063065
C27	C	1.110826	-0.083085	0.404923
C28	C	1.105428	0.032853	0.442479
C29	C	1.126122	0.073333	0.347628
C30	C	1.152213	-0.002136	0.215216
C31	C	1.157603	-0.118086	0.177656
C32	C	1.172899	0.038331	0.120361
C33	C	1.198991	-0.037138	-0.012051
C34	C	1.204381	-0.153076	-0.049604
C35	C	1.183687	-0.193556	0.045246
C36	C	1.167509	0.154281	0.157921
C37	C	1.214287	0.119280	-0.069345
C38	C	1.219685	0.003342	-0.106901
C39	C	1.344459	0.566782	0.183559
C40	C	1.454466	0.603427	0.195419
C41	C	1.142644	0.718049	0.232550
C42	C	1.136909	0.841445	0.272513
N43	N	1.101512	0.563798	0.464447
N44	N	1.223607	0.472392	-0.128861
C45	C	1.309281	0.408226	0.788013
C46	C	1.336269	0.388013	0.656805
C47	C	1.277582	0.431957	0.608709
C48	C	1.191902	0.496118	0.691834
C49	C	1.164916	0.516340	0.823057
C50	C	1.133217	0.540072	0.643753
C51	C	1.047537	0.604233	0.726878
C52	C	1.020555	0.624451	0.858087
C53	C	1.079242	0.580507	0.906183
C54	C	1.160203	0.519850	0.512530
C55	C	1.015838	0.627965	0.547574
C56	C	0.988850	0.648177	0.678781
H57	H	0.618682	0.845187	0.273720
Cl58	Cl	1.119334	0.219085	0.394844
Cl59	Cl	1.190471	-0.339312	-0.001962
H60	H	0.950797	0.676705	0.925772
Cl61	Cl	1.237167	-0.247952	-0.216067
H62	H	1.084195	0.094294	0.550289
H63	H	1.093972	-0.116057	0.482135
Cl64	Cl	1.383058	0.352999	0.848483
Cl65	Cl	1.240283	0.170156	-0.188595
H66	H	0.431153	0.782716	0.253478
Cl67	Cl	1.134712	0.249143	0.324377
H68	H	1.240928	-0.058121	-0.214714
H69	H	1.229964	0.467610	0.444861
Cl70	Cl	1.311509	0.406542	0.443758
H71	H	1.406029	0.335775	0.589130
H72	H	1.057266	0.596960	1.013021
Cl73	Cl	0.881141	0.728836	0.783293
Cl74	Cl	0.942059	0.683218	0.487120
Cl75	Cl	0.806708	0.850393	0.275384
Cl76	Cl	0.482133	0.379921	0.123035
H77	H	0.579771	0.335853	0.108763
H78	H	0.706454	0.191010	0.061856
H79	H	0.918530	0.654922	0.212109
Cl80	Cl	0.924891	0.218135	0.070646
