data_functionalizedCrystal
_audit_creation_method	'MofGen! by Chris Wilmer'
_symmetry_space_group_name_H-M	'P1'
_symmetry_Int_Tables_number	1
_symmetry_cell_setting	triclinic
loop_
_symmetry_equiv_pos_as_xyz
  x,y,z
_cell_length_a	10.654550
_cell_length_b	27.732048
_cell_length_c	9.730223
_cell_angle_alpha	89.993758
_cell_angle_beta	89.996251
_cell_angle_gamma	83.563778
loop_
_atom_site_label
_atom_site_type_symbol
_atom_site_fract_x
_atom_site_fract_y
_atom_site_fract_z
O1	O	1.664980	0.067884	-0.114419
O2	O	1.299230	0.074351	-0.114399
O3	O	1.493465	0.000792	-0.114384
O4	O	1.470746	0.141444	-0.114435
O5	O	1.493462	0.000793	0.114196
O6	O	1.299228	0.074353	0.114181
O7	O	1.664978	0.067886	0.114161
Zn8	Zn	1.482102	0.071120	0.150463
Zn9	Zn	1.482105	0.071117	-0.150701
O10	O	1.470743	0.141445	0.114145
C11	C	1.252451	0.073878	-0.000106
C12	C	1.113067	0.072457	-0.000097
C13	C	1.031761	0.115768	-0.000133
C14	C	0.900796	0.114430	-0.000156
C15	C	0.932457	0.026466	-0.000114
C16	C	1.063419	0.027805	-0.000080
C17	C	1.013480	0.166553	-0.000163
C18	C	0.882516	0.165215	-0.000187
C19	C	1.492987	-0.017217	-0.000090
C20	C	1.491551	-0.070881	-0.000078
C21	C	1.597290	-0.409038	-0.000155
C22	C	1.591962	-0.610731	-0.000174
O23	O	1.688653	-0.641384	-0.000239
N24	N	1.476789	-0.630572	-0.000166
C25	C	1.362940	-0.599986	-0.000163
O26	O	1.264856	-0.621490	-0.000171
C27	C	1.368269	-0.398294	-0.000154
C28	C	1.483449	-0.378456	-0.000147
C29	C	1.712461	-0.389199	-0.000150
C30	C	1.713792	-0.338779	-0.000138
C31	C	1.599951	-0.308197	-0.000131
C32	C	1.484780	-0.328036	-0.000135
C33	C	1.254421	-0.367709	-0.000160
C34	C	1.255764	-0.317284	-0.000161
C35	C	1.370944	-0.297446	-0.000155
C36	C	1.372271	-0.247034	-0.000115
N37	N	1.487444	-0.227193	-0.000123
C38	C	1.601284	-0.257775	-0.000131
C39	C	1.360150	-0.705877	-0.000165
C40	C	1.358817	-0.756300	-0.000164
C41	C	1.587840	-0.767041	-0.000178
C42	C	1.589171	-0.716618	-0.000169
C43	C	1.475323	-0.686036	-0.000172
C44	C	1.604070	-0.151888	-0.000104
C45	C	1.605391	-0.101463	-0.000086
C46	C	1.376369	-0.090726	-0.000080
C47	C	1.375047	-0.141147	-0.000090
C48	C	1.488908	-0.171727	-0.000107
O49	O	1.275631	-0.216352	-0.000065
O50	O	1.699354	-0.236261	-0.000153
C51	C	1.595959	-0.459458	-0.000167
C52	C	1.480788	-0.479296	-0.000172
C53	C	1.366948	-0.448715	-0.000164
C54	C	1.479455	-0.529719	-0.000172
C55	C	1.593296	-0.560301	-0.000179
C56	C	1.708469	-0.540460	-0.000187
C57	C	1.709800	-0.490040	-0.000175
C58	C	1.251774	-0.468556	-0.000157
C59	C	1.250453	-0.518976	-0.000167
C60	C	1.364293	-0.549558	-0.000175
C61	C	1.711757	0.068360	-0.000135
C62	C	1.851141	0.069780	-0.000153
C63	C	1.471221	0.159454	-0.000152
C64	C	1.472657	0.213118	-0.000172
N65	N	1.482110	0.071121	0.355999
N66	N	1.482108	0.071112	-0.356238
C67	C	1.568138	0.038560	0.427932
C68	C	1.568135	0.038554	0.571815
C69	C	1.396071	0.103675	0.571820
C70	C	1.396069	0.103678	0.427939
C71	C	1.667482	0.000964	0.427930
C72	C	1.667479	0.000959	0.571813
H73	H	0.839980	0.184349	-0.095861
H74	H	1.638442	-0.034148	0.616444
C75	C	1.301431	0.139492	0.348817
H76	H	1.250199	0.158883	0.412272
H77	H	1.249507	0.121917	0.292694
H78	H	1.346207	0.159780	0.292686
C79	C	1.797378	0.012147	0.624566
H80	H	1.850798	0.016757	0.548623
H81	H	1.834225	-0.014207	0.678801
H82	H	1.787243	0.040802	0.678803
C83	C	1.840488	-0.316961	-0.000139
H84	H	1.824994	-0.282551	-0.000124
H85	H	1.887318	-0.327431	-0.079852
H86	H	1.887312	-0.327439	0.079580
C87	C	1.152853	-0.019837	-0.000026
H88	H	1.104524	-0.046620	-0.000032
H89	H	1.204576	-0.021139	0.079699
H90	H	1.204621	-0.021148	-0.079733
H91	H	1.758171	0.012736	0.383294
H92	H	1.159070	-0.443660	-0.000153
H93	H	0.892018	-0.009888	-0.000121
H94	H	1.160629	-0.383852	-0.000173
C95	C	1.732094	-0.079644	-0.000087
H96	H	1.799700	-0.105082	-0.000109
H97	H	1.737381	-0.060202	0.079626
H98	H	1.737374	-0.060193	-0.079806
H99	H	1.041976	0.186415	0.095495
C100	C	1.251154	-0.057080	-0.000079
H101	H	1.268453	-0.024210	-0.000088
H102	H	1.203871	-0.063136	0.079625
H103	H	1.203898	-0.063131	-0.079806
C104	C	1.130527	-0.283647	-0.000160
H105	H	1.061748	-0.302687	-0.000154
H106	H	1.126285	-0.263748	-0.079865
H107	H	1.126279	-0.263760	0.079566
C108	C	1.640588	-0.049214	0.375174
H109	H	1.640592	-0.049209	0.277537
H110	H	1.560458	-0.056113	0.407723
H111	H	1.704135	-0.073274	0.407701
H112	H	1.048457	0.182723	-0.098857
H113	H	1.696787	-0.176781	-0.000123
C114	C	0.819924	0.185962	0.133090
H115	H	0.731431	0.184330	0.128525
H116	H	0.835650	0.218806	0.143587
H117	H	0.854062	0.167544	0.209379
C118	C	1.837697	-0.422832	-0.000147
H119	H	1.906468	-0.403788	-0.000134
H120	H	1.841961	-0.442725	-0.079853
H121	H	1.841937	-0.442725	0.079579
H122	H	1.281258	-0.157300	-0.000057
C123	C	1.715868	-0.694800	-0.000175
H124	H	1.783470	-0.720239	-0.000186
H125	H	1.721155	-0.675355	0.079532
H126	H	1.721153	-0.675353	-0.079900
C127	C	1.232119	-0.778117	-0.000160
H128	H	1.164517	-0.752677	-0.000170
H129	H	1.226825	-0.797567	0.079547
H130	H	1.226840	-0.797558	-0.079885
H131	H	1.680533	-0.791950	-0.000184
H132	H	1.267435	-0.680982	-0.000167
H133	H	1.803591	-0.473893	-0.000170
H134	H	1.801162	-0.565369	-0.000187
C135	C	1.123746	-0.540792	-0.000178
H136	H	1.056144	-0.515353	-0.000187
H137	H	1.118446	-0.560246	0.079521
H138	H	1.118473	-0.560230	-0.079910
C139	C	1.301441	0.139487	0.650958
H140	H	1.313766	0.134824	0.746951
H141	H	1.217741	0.133939	0.627382
H142	H	1.314455	0.171796	0.627375
