data_functionalizedCrystal
_audit_creation_method	'MofGen! by Chris Wilmer'
_symmetry_space_group_name_H-M	'P1'
_symmetry_Int_Tables_number	1
_symmetry_cell_setting	triclinic
loop_
_symmetry_equiv_pos_as_xyz
  x,y,z
_cell_length_a	14.853566
_cell_length_b	23.532357
_cell_length_c	13.930277
_cell_angle_alpha	89.989902
_cell_angle_beta	89.995631
_cell_angle_gamma	83.231353
loop_
_atom_site_label
_atom_site_type_symbol
_atom_site_fract_x
_atom_site_fract_y
_atom_site_fract_z
O1	O	1.195535	0.074351	-0.079780
O2	O	0.932976	0.083209	-0.079797
O3	O	1.072196	-0.004119	-0.079768
O4	O	1.056314	0.161679	-0.079808
O5	O	1.072177	-0.004121	0.079894
O6	O	0.932957	0.083207	0.079865
O7	O	1.195516	0.074349	0.079882
Zn8	Zn	1.064233	0.078778	0.105223
Zn9	Zn	1.064258	0.078780	-0.105138
O10	O	1.056295	0.161677	0.079853
C11	C	0.899382	0.082807	0.000032
C12	C	0.799312	0.081605	0.000026
C13	C	0.376194	0.076520	-0.086987
C14	C	0.376195	0.076518	0.087082
C15	C	0.470216	0.077647	0.087079
C16	C	0.517231	0.078214	0.000041
C17	C	0.470224	0.077651	-0.086993
C18	C	0.517229	0.078216	0.174112
C19	C	0.611256	0.079346	0.174112
C20	C	0.658273	0.079908	0.087074
C21	C	0.611261	0.079345	0.000036
C22	C	0.658275	0.079911	-0.087002
C23	C	0.611265	0.079343	-0.174041
C24	C	0.517241	0.078213	-0.174032
C25	C	0.752297	0.081038	0.087064
C26	C	0.752305	0.081042	-0.087008
C27	C	1.071789	-0.025338	0.000066
C28	C	1.070595	-0.088562	0.000075
C29	C	1.063107	-0.480605	-0.087009
C30	C	1.061972	-0.540009	-0.087015
O31	O	1.061363	-0.570728	-0.161032
N32	N	1.061398	-0.569724	0.000016
C33	C	1.061951	-0.540031	0.087057
O34	O	1.061358	-0.570760	0.161083
C35	C	1.063080	-0.480627	0.087062
C36	C	1.063663	-0.450916	0.000026
C37	C	1.063689	-0.450894	-0.174038
C38	C	1.064826	-0.391494	-0.174032
C39	C	1.065381	-0.361805	-0.086997
C40	C	1.064800	-0.391516	0.000032
C41	C	1.063626	-0.450934	0.174103
C42	C	1.064755	-0.391526	0.174100
C43	C	1.065337	-0.361815	0.087064
C44	C	1.066492	-0.302426	0.087073
N45	N	1.067066	-0.272712	0.000042
C46	C	1.066510	-0.302401	-0.086993
C47	C	1.059579	-0.664782	0.087041
C48	C	1.058457	-0.724186	0.087038
C49	C	1.058476	-0.724160	-0.087035
C50	C	1.059605	-0.664757	-0.087030
C51	C	1.060152	-0.635068	0.000011
C52	C	1.068899	-0.177656	-0.086974
C53	C	1.070040	-0.118251	-0.086960
C54	C	1.070016	-0.118281	0.087112
C55	C	1.068880	-0.177682	0.087099
C56	C	1.068318	-0.207367	0.000048
O57	O	1.067098	-0.271670	0.161052
O58	O	1.067091	-0.271663	-0.161006
C59	C	1.229109	0.074751	0.000051
C60	C	1.329180	0.075954	0.000051
C61	C	1.056702	0.182897	0.000017
C62	C	1.057896	0.246120	0.000002
N63	N	1.064222	0.078776	0.248789
N64	N	1.064276	0.078778	-0.248704
C65	C	1.002609	0.117434	0.701046
C66	C	1.125932	0.040122	0.701041
C67	C	1.125922	0.040120	0.600545
C68	C	1.064255	0.078777	0.550295
C69	C	1.002598	0.117435	0.600541
C70	C	1.187583	0.001467	0.550292
C71	C	1.187575	0.001464	0.449790
C72	C	1.125903	0.040118	0.399538
C73	C	1.064244	0.078777	0.449790
C74	C	1.002577	0.117433	0.399540
C75	C	0.940913	0.156090	0.449790
C76	C	0.940927	0.156089	0.550289
C77	C	1.125889	0.040120	0.299039
C78	C	1.002566	0.117434	0.299035
H79	H	0.478942	0.077759	0.244973
C80	C	0.934749	0.159974	0.243768
N81	N	0.883678	0.192022	0.202142
H82	H	1.065187	-0.367355	0.244981
H83	H	0.337915	0.076056	-0.157852
H84	H	0.890707	0.187567	0.408865
H85	H	1.068414	-0.201874	0.157971
H86	H	1.176144	0.008652	0.741958
C87	C	0.873097	0.198604	0.605572
N88	N	0.822008	0.230626	0.647214
C89	C	1.060237	-0.632080	-0.182776
N90	N	1.060710	-0.607470	-0.254896
C91	C	1.057825	-0.756862	0.182784
N92	N	1.057342	-0.781471	0.254904
H93	H	1.058020	-0.748344	-0.157903
C94	C	1.255411	-0.041052	0.605573
N95	N	1.306500	-0.073080	0.647215
C96	C	0.465523	0.077592	-0.269766
N97	N	0.426564	0.077127	-0.341872
C98	C	1.255399	-0.041063	0.394524
N99	N	1.306482	-0.073097	0.352897
C100	C	0.934775	0.159951	0.756321
N101	N	0.883681	0.191974	0.797956
H102	H	0.790578	0.081501	-0.157886
C103	C	0.662993	0.079967	-0.269780
N104	N	0.701959	0.080435	-0.341888
C105	C	1.193716	-0.002400	0.243769
N106	N	1.244805	-0.034429	0.202140
H107	H	0.337909	0.076061	0.157944
H108	H	0.649523	0.079807	0.244985
H109	H	0.790567	0.081506	0.157930
H110	H	1.065297	-0.367308	-0.244906
H111	H	1.070516	-0.094063	-0.157838
C112	C	1.063117	-0.483546	-0.269792
N113	N	1.062706	-0.508137	-0.341920
C114	C	1.060196	-0.632131	0.182800
N115	N	1.060661	-0.607541	0.254925
C116	C	1.068297	-0.210303	-0.182734
N117	N	1.067853	-0.234893	-0.254860
H118	H	1.070472	-0.094098	0.157973
C119	C	1.062974	-0.483601	0.269851
N120	N	1.062477	-0.508205	0.341975
