data_functionalizedCrystal
_audit_creation_method	'MofGen! by Chris Wilmer'
_symmetry_space_group_name_H-M	'P1'
_symmetry_Int_Tables_number	1
_symmetry_cell_setting	triclinic
loop_
_symmetry_equiv_pos_as_xyz
  x,y,z
_cell_length_a	8.559649
_cell_length_b	11.892113
_cell_length_c	8.634740
_cell_angle_alpha	86.262511
_cell_angle_beta	94.825514
_cell_angle_gamma	94.802493
loop_
_atom_site_label
_atom_site_type_symbol
_atom_site_fract_x
_atom_site_fract_y
_atom_site_fract_z
O1	O	2.122498	0.094000	0.043799
O2	O	1.669335	0.094001	-0.034412
O3	O	1.874465	0.093999	0.226629
O4	O	1.917368	0.094002	-0.217242
O5	O	1.853883	-0.094009	0.241788
O6	O	1.648753	-0.094006	-0.019253
O7	O	2.101916	-0.094008	0.058958
Zn8	Zn	1.872067	-0.123857	0.022260
Zn9	Zn	1.899185	0.123851	0.002287
O10	O	1.896786	-0.094005	-0.202083
C11	C	1.600427	-0.000002	-0.032759
C12	C	1.425763	-0.000002	-0.050402
N13	N	1.853570	-0.292911	0.035893
C14	C	2.046391	-0.529559	-0.106277
C15	C	2.033473	-0.647901	-0.096733
C16	C	1.814824	-0.647939	0.064533
C17	C	1.827742	-0.529597	0.054989
C18	C	1.943528	-0.470412	-0.030421
C19	C	1.956438	-0.352068	-0.039973
C20	C	1.737797	-0.352108	0.121302
C21	C	1.724879	-0.470449	0.130845
C22	C	2.170825	-0.000002	0.057305
C23	C	2.345489	0.000005	0.074947
C24	C	1.854456	-0.000003	0.290508
C25	C	1.825478	0.000003	0.458259
N26	N	1.917692	0.292905	-0.011333
C27	C	1.916796	-0.000001	-0.265962
C28	C	1.945774	0.000001	-0.433714
H29	H	1.360867	0.000010	-0.171218
H30	H	2.050711	-0.303880	-0.109525
Br31	Br	2.203521	-0.449230	-0.222190
H32	H	1.700318	0.000007	0.494107
H33	H	1.654031	-0.303937	0.183061
H34	H	2.070948	0.000042	0.530429
Br35	Br	1.657705	-0.728282	0.180444
Br36	Br	2.173086	-0.728171	-0.199677
Br37	Br	1.453654	0.000006	0.276332
H38	H	1.630614	-0.518655	0.200389
