data_functionalizedCrystal
_audit_creation_method	'MofGen! by Chris Wilmer'
_symmetry_space_group_name_H-M	'P1'
_symmetry_Int_Tables_number	1
_symmetry_cell_setting	triclinic
loop_
_symmetry_equiv_pos_as_xyz
  x,y,z
_cell_length_a	14.908571
_cell_length_b	16.120484
_cell_length_c	14.908308
_cell_angle_alpha	95.986071
_cell_angle_beta	90.175053
_cell_angle_gamma	89.787312
loop_
_atom_site_label
_atom_site_type_symbol
_atom_site_fract_x
_atom_site_fract_y
_atom_site_fract_z
Zn1	Zn	1.320097	-0.434923	-0.609960
Zn2	Zn	1.820097	0.065077	-0.109960
Zn3	Zn	1.321040	-0.566744	-0.466383
Zn4	Zn	1.821040	-0.066744	0.033617
Zn5	Zn	1.179340	-0.418915	-0.450134
Zn6	Zn	1.679340	0.081085	0.049866
Zn7	Zn	1.162126	-0.565754	-0.607984
Zn8	Zn	1.662126	-0.065754	-0.107984
O9	O	1.245651	-0.496584	-0.533615
O10	O	1.745651	0.003416	-0.033615
O11	O	1.445636	-0.459523	-0.598542
O12	O	1.945636	0.040477	-0.098542
O13	O	1.309843	-0.540849	-0.338080
O14	O	1.809843	-0.040849	0.161920
O15	O	1.204822	-0.304418	-0.465363
O16	O	1.704822	0.195582	0.034637
O17	O	1.446329	-0.556371	-0.493056
O18	O	1.946329	-0.056371	0.006944
O19	O	1.308235	-0.316179	-0.582786
O20	O	1.808235	0.183821	-0.082786
O21	O	1.205736	-0.432240	-0.326142
O22	O	1.705736	0.067760	0.173858
O23	O	1.051643	-0.431280	-0.463446
O24	O	1.551643	0.068720	0.036554
O25	O	1.175482	-0.554684	-0.734394
O26	O	1.675482	-0.054684	-0.234394
O27	O	1.038995	-0.539162	-0.579418
O28	O	1.538995	-0.039162	-0.079418
O29	O	1.291543	-0.458562	-0.735846
O30	O	1.791543	0.041438	-0.235846
O31	O	1.293150	-0.683233	-0.491140
O32	O	1.793150	-0.183233	0.008860
O33	O	1.176396	-0.682506	-0.595173
O34	O	1.676396	-0.182506	-0.095173
C35	C	1.012801	-0.483377	-0.519455
C36	C	1.512801	0.016623	-0.019455
C37	C	0.913184	-0.477748	-0.513419
C38	C	1.413184	0.022252	-0.013419
C39	C	0.712871	-0.579666	-0.622692
C40	C	1.212871	-0.079666	-0.122692
C41	C	0.619272	-0.574380	-0.617025
C42	C	1.119272	-0.074380	-0.117025
C43	C	0.632384	-0.461887	-0.496421
C44	C	1.132384	0.038113	0.003579
C45	C	0.725983	-0.467173	-0.502089
C46	C	1.225983	0.032827	-0.002089
C47	C	0.766223	-0.526065	-0.565226
C48	C	1.266223	-0.026065	-0.065226
C49	C	0.859824	-0.531355	-0.570888
C50	C	1.359824	-0.031355	-0.070888
C51	C	0.872935	-0.418858	-0.450290
C52	C	1.372935	0.081142	0.049710
C53	C	0.779335	-0.413572	-0.444622
C54	C	1.279335	0.086428	0.055378
C55	C	1.233031	-0.713110	-0.544726
C56	C	1.733031	-0.213110	-0.044726
C57	C	1.227712	-0.805747	-0.549515
C58	C	1.727712	-0.305747	-0.049515
C59	C	1.218005	-0.975358	-0.558276
C60	C	1.718005	-0.475358	-0.058276
C61	C	1.273456	-1.016980	-0.508979
C62	C	1.773456	-0.516980	-0.008979
C63	C	1.268055	-1.111356	-0.513854
C64	C	1.768055	-0.611356	-0.013854
C65	C	1.223405	-0.880972	-0.553403
C66	C	1.723405	-0.380972	-0.053403
C67	C	1.479410	-0.509843	-0.547832
C68	C	1.979410	-0.009843	-0.047832
C69	C	1.579025	-0.515493	-0.553890
C70	C	2.079025	-0.015493	-0.053890
C71	C	1.231487	-0.508298	-0.768743
C72	C	1.731487	-0.008298	-0.268743
C73	C	1.225451	-0.513290	-0.868941
C74	C	1.725451	-0.013290	-0.368941
C75	C	1.258344	-0.279214	-0.522482
C76	C	1.758344	0.220786	-0.022482
C77	C	1.263752	-0.186584	-0.517738
C78	C	1.763752	0.313416	-0.017738
C79	C	1.334963	-0.422560	-1.058735
C80	C	1.834963	0.077440	-0.558735
C81	C	1.329294	-0.427248	-1.152880
C82	C	1.829294	0.072752	-0.652880
C83	C	1.208443	-0.527348	-1.151376
C84	C	1.708443	-0.027348	-0.651376
C85	C	1.214111	-0.522661	-1.057231
C86	C	1.714111	-0.022661	-0.557231
C87	C	1.277374	-0.470266	-1.010914
C88	C	1.777374	0.029734	-0.510914
C89	C	1.283046	-0.465583	-0.916769
C90	C	1.783046	0.034417	-0.416769
C91	C	1.162191	-0.565679	-0.915266
C92	C	1.662191	-0.065679	-0.415266
C93	C	1.156523	-0.570366	-1.009410
C94	C	1.656523	-0.070366	-0.509410
C95	C	1.259815	-0.484858	-0.299402
C96	C	1.759815	0.015142	0.200598
C97	C	1.266038	-0.479641	-0.199204
C98	C	1.766038	0.020359	0.300796
H99	H	0.575836	-0.618026	-0.663822
H100	H	1.075836	-0.118026	-0.163822
N101	N	1.388108	-0.378506	-1.201728
N102	N	1.888108	0.121494	-0.701728
N103	N	1.387277	-0.300746	-1.186911
N104	N	1.887277	0.199254	-0.686911
H105	H	1.428814	-0.266318	-1.221410
H106	H	1.928814	0.233682	-0.721410
H107	H	1.324985	-0.981734	-0.463113
H108	H	1.824985	-0.481734	0.036887
N109	N	1.153359	-1.019550	-0.615817
N110	N	1.653359	-0.519550	-0.115817
N111	N	1.154755	-1.014349	-0.698871
N112	N	1.654755	-0.514349	-0.198871
H113	H	1.109096	-1.045567	-0.739508
H114	H	1.609096	-0.545567	-0.239508
H115	H	1.334559	-0.422921	-0.879059
H116	H	1.834559	0.077079	-0.379059
N117	N	0.738241	-0.353408	-0.380134
N118	N	1.238241	0.146592	0.119866
N119	N	0.752802	-0.277411	-0.382928
N120	N	1.252802	0.222589	0.117072
H121	H	0.723782	-0.234919	-0.337380
H122	H	1.223782	0.265081	0.162620
H123	H	1.386478	-0.379902	-1.021024
H124	H	1.886478	0.120098	-0.521024
H125	H	1.156937	-0.570005	-1.189103
H126	H	1.656937	-0.070005	-0.689103
H127	H	1.105015	-0.613023	-1.047134
H128	H	1.605015	-0.113023	-0.547134
N129	N	1.103355	-0.614397	-0.866406
N130	N	1.603355	-0.114397	-0.366406
N131	N	1.051120	-0.579221	-0.808898
N132	N	1.551120	-0.079221	-0.308898
H133	H	1.009568	-0.613628	-0.774390
H134	H	1.509568	-0.113628	-0.274390
N135	N	0.900917	-0.591519	-0.635377
N136	N	1.400917	-0.091519	-0.135377
N137	N	0.853266	-0.639372	-0.686681
N138	N	1.353266	-0.139372	-0.186681
H139	H	0.882284	-0.681864	-0.732229
H140	H	1.382284	-0.181864	-0.232229
N141	N	0.591285	-0.401729	-0.431930
N142	N	1.091285	0.098271	0.068070
N143	N	0.638928	-0.353871	-0.380624
N144	N	1.138928	0.146129	0.119376
H145	H	0.609903	-0.311382	-0.335077
H146	H	1.109903	0.188618	0.164923
H147	H	0.745635	-0.627623	-0.674096
H148	H	1.245635	-0.127623	-0.174096
H149	H	0.916384	-0.375214	-0.403494
H150	H	1.416384	0.124786	0.096506
