data_functionalizedCrystal
_audit_creation_method	'MofGen! by Chris Wilmer'
_symmetry_space_group_name_H-M	'P1'
_symmetry_Int_Tables_number	1
_symmetry_cell_setting	triclinic
loop_
_symmetry_equiv_pos_as_xyz
  x,y,z
_cell_length_a	14.044191
_cell_length_b	14.044190
_cell_length_c	10.268362
_cell_angle_alpha	89.989939
_cell_angle_beta	89.997935
_cell_angle_gamma	93.191777
loop_
_atom_site_label
_atom_site_type_symbol
_atom_site_fract_x
_atom_site_fract_y
_atom_site_fract_z
O1	O	1.277178	0.230201	-0.108264
O2	O	1.610512	0.563535	0.225069
O3	O	1.943845	0.896868	0.558402
O4	O	1.000506	0.221889	-0.108280
O5	O	1.333839	0.555222	0.225054
O6	O	1.667172	0.888555	0.558387
O7	O	1.134686	0.087709	-0.108247
O8	O	1.468019	0.421042	0.225087
O9	O	1.801352	0.754375	0.558420
O10	O	1.142998	0.364381	-0.108297
O11	O	1.476332	0.697715	0.225036
O12	O	1.809665	1.031048	0.558369
O13	O	1.134672	0.087702	0.108354
O14	O	1.468006	0.421035	0.441687
O15	O	1.801339	0.754368	0.775021
O16	O	1.000493	0.221882	0.108321
O17	O	1.333826	0.555215	0.441654
O18	O	1.667159	0.888548	0.774987
O19	O	1.277165	0.230194	0.108336
O20	O	1.610499	0.563528	0.441670
O21	O	1.943832	0.896861	0.775003
Cu22	Cu	1.138828	0.226037	0.128106
Cu23	Cu	1.472161	0.559371	0.461439
Cu24	Cu	1.805494	0.892704	0.794773
Cu25	Cu	1.138843	0.226046	-0.128049
Cu26	Cu	1.472177	0.559379	0.205284
Cu27	Cu	1.805510	0.892712	0.538617
O28	O	1.142985	0.364374	0.108303
O29	O	1.476319	0.697708	0.441637
O30	O	1.809652	1.031041	0.774970
C31	C	0.964877	0.218249	0.000019
C32	C	1.298210	0.551582	0.333352
C33	C	1.631544	0.884915	0.666686
C34	C	0.858734	0.207401	0.000014
C35	C	1.192067	0.540735	0.333347
C36	C	1.525400	0.874068	0.666681
C37	C	0.613277	0.264502	0.000017
C38	C	0.946610	0.597835	0.333350
C39	C	1.279943	0.931169	0.666683
C40	C	0.664400	0.187585	0.000028
C41	C	0.997734	0.520919	0.333362
C42	C	1.331067	0.854252	0.666695
C43	C	0.772537	0.198614	0.000020
C44	C	1.105871	0.531947	0.333354
C45	C	1.439204	0.865280	0.666687
C46	C	0.505130	0.253475	0.000025
C47	C	0.838463	0.586809	0.333358
C48	C	1.171796	0.920142	0.666691
C49	C	1.131043	0.052083	0.000057
C50	C	1.464376	0.385416	0.333391
C51	C	1.797709	0.718750	0.666724
C52	C	1.120195	-0.054060	0.000068
C53	C	1.453529	0.279273	0.333401
C54	C	1.786862	0.612606	0.666735
C55	C	1.177296	-0.299517	0.000020
C56	C	1.510629	0.033816	0.333354
C57	C	1.843963	0.367149	0.666687
C58	C	1.100379	-0.248394	0.000025
C59	C	1.433713	0.084940	0.333358
C60	C	1.767046	0.418273	0.666692
C61	C	1.111408	-0.140257	0.000049
C62	C	1.444741	0.193077	0.333382
C63	C	1.778074	0.526410	0.666716
C64	C	1.166269	-0.407664	-0.000004
C65	C	1.499602	-0.074331	0.333330
C66	C	1.832936	0.259002	0.666663
C67	C	1.312794	0.233834	0.000035
C68	C	1.646127	0.567168	0.333368
C69	C	1.979461	0.900501	0.666701
C70	C	1.418937	0.244682	0.000031
C71	C	1.752271	0.578015	0.333364
C72	C	2.085604	0.911348	0.666698
C73	C	1.146628	0.400000	-0.000004
C74	C	1.479962	0.733333	0.333330
C75	C	1.813295	1.066667	0.666663
C76	C	1.157476	0.506143	-0.000023
C77	C	1.490809	0.839477	0.333310
C78	C	1.824142	1.172810	0.666644
N79	N	1.138824	0.226031	0.308272
N80	N	1.472157	0.559365	0.641605
N81	N	1.805490	0.892698	0.974938
N82	N	1.138854	0.226045	-0.308215
N83	N	1.472188	0.559378	0.025118
N84	N	1.805521	0.892711	0.358451
C85	C	1.138838	0.226043	0.573942
C86	C	1.472172	0.559377	0.907276
C87	C	1.805505	0.892710	1.240609
C88	C	1.138827	0.226039	0.426104
C89	C	1.472161	0.559373	0.759438
C90	C	1.805494	0.892706	1.092771
H91	H	1.026247	-0.285839	0.000013
H92	H	1.359580	0.047494	0.333347
H93	H	1.692913	0.380828	0.666680
H94	H	0.626955	0.113453	-0.000050
H95	H	0.960288	0.446786	0.333284
H96	H	1.293622	0.780119	0.666617
O97	O	1.265662	-0.254703	0.000105
O98	O	1.598995	0.078630	0.333438
O99	O	1.932328	0.411964	0.666772
C100	C	1.257137	-0.155146	0.000096
C101	C	1.590471	0.178187	0.333429
C102	C	1.923804	0.511521	0.666763
H103	H	1.184567	-0.138204	0.041089
H104	H	1.517900	0.195129	0.374422
H105	H	1.851233	0.528463	0.707756
H106	H	1.315876	-0.119732	0.063005
H107	H	1.649209	0.213601	0.396338
H108	H	1.982542	0.546934	0.729671
H109	H	1.264077	-0.126997	-0.103810
H110	H	1.597411	0.206336	0.229524
H111	H	1.930744	0.539669	0.562857
O112	O	0.658091	0.352868	-0.000069
O113	O	0.991424	0.686201	0.333265
O114	O	1.324758	1.019534	0.666598
C115	C	0.757648	0.344343	-0.000042
C116	C	1.090981	0.677677	0.333292
C117	C	1.424315	1.011010	0.666625
H118	H	0.774600	0.271778	-0.041026
H119	H	1.107934	0.605111	0.292307
H120	H	1.441267	0.938445	0.625641
H121	H	0.793078	0.403090	-0.062949
H122	H	1.126411	0.736423	0.270385
H123	H	1.459744	1.069756	0.603718
H124	H	0.785770	0.351270	0.103868
H125	H	1.119103	0.684603	0.437202
H126	H	1.452437	1.017937	0.770535
