data_functionalizedCrystal
_audit_creation_method	'MofGen! by Chris Wilmer'
_symmetry_space_group_name_H-M	'P1'
_symmetry_Int_Tables_number	1
_symmetry_cell_setting	triclinic
loop_
_symmetry_equiv_pos_as_xyz
  x,y,z
_cell_length_a	25.639239
_cell_length_b	19.077105
_cell_length_c	19.077174
_cell_angle_alpha	94.516248
_cell_angle_beta	92.270789
_cell_angle_gamma	92.265071
loop_
_atom_site_label
_atom_site_type_symbol
_atom_site_fract_x
_atom_site_fract_y
_atom_site_fract_z
Zn1	Zn	-0.254037	-1.093621	-0.441824
Zn2	Zn	0.245963	-0.593621	0.058176
Zn3	Zn	-0.337809	-1.088778	-0.323930
Zn4	Zn	0.162191	-0.588778	0.176070
Zn5	Zn	-0.246728	-0.971008	-0.319222
Zn6	Zn	0.253272	-0.471008	0.180778
Zn7	Zn	-0.337775	-0.975672	-0.437048
Zn8	Zn	0.162225	-0.475672	0.062952
O9	O	-0.294087	-1.032270	-0.380506
O10	O	0.205913	-0.532270	0.119494
O11	O	-0.268222	-1.191628	-0.430154
O12	O	0.231778	-0.691628	0.069846
O13	O	-0.322682	-1.069177	-0.224656
O14	O	0.177318	-0.569177	0.275344
O15	O	-0.174535	-0.987348	-0.335514
O16	O	0.325465	-0.487348	0.164486
O17	O	-0.329769	-1.188069	-0.343538
O18	O	0.170231	-0.688069	0.156462
O19	O	-0.179905	-1.077431	-0.425589
O20	O	0.320095	-0.577431	0.074411
O21	O	-0.255766	-0.982652	-0.221197
O22	O	0.244234	-0.482652	0.278803
O23	O	-0.255733	-0.872978	-0.330883
O24	O	0.244267	-0.372978	0.169117
O25	O	-0.329711	-0.995296	-0.536331
O26	O	0.170289	-0.495296	-0.036331
O27	O	-0.322624	-0.876404	-0.417449
O28	O	0.177376	-0.376404	0.082551
O29	O	-0.268189	-1.081953	-0.539840
O30	O	0.231811	-0.581953	-0.039840
O31	O	-0.410966	-1.073699	-0.338907
O32	O	0.089034	-0.573699	0.161093
O33	O	-0.410941	-0.990600	-0.422014
O34	O	0.089059	-0.490600	0.077986
C35	C	-0.288382	-0.849112	-0.373137
C36	C	0.211618	-0.349112	0.126863
C37	C	-0.285954	-0.770758	-0.370001
C38	C	0.214046	-0.270758	0.129999
C39	C	-0.429925	-1.032150	-0.380469
C40	C	0.070075	-0.532150	0.119531
C41	C	-0.488040	-1.032164	-0.380479
C42	C	0.011960	-0.532164	0.119521
C43	C	-0.299761	-1.039685	-0.564379
C44	C	0.200239	-0.539685	-0.064379
C45	C	-0.302179	-1.042845	-0.642735
C46	C	0.197821	-0.542845	-0.142735
C47	C	-0.848413	-1.075660	-0.337314
C48	C	-0.348413	-0.575660	0.162686
C49	C	-0.903019	-1.075688	-0.337324
C50	C	-0.403019	-0.575688	0.162676
O51	O	-0.931259	-1.112545	-0.300583
O52	O	-0.431259	-0.612545	0.199417
N53	N	-0.930331	-1.032395	-0.380558
N54	N	-0.430331	-0.532395	0.119442
C55	C	-0.903036	-0.989078	-0.423789
C56	C	-0.403036	-0.489078	0.076211
O57	O	-0.931282	-0.952258	-0.460564
O58	O	-0.431282	-0.452258	0.039436
C59	C	-0.848432	-0.989055	-0.423781
C60	C	-0.348432	-0.489055	0.076219
C61	C	-0.821122	-1.032344	-0.380540
C62	C	-0.321122	-0.532344	0.119460
C63	C	-0.821103	-1.118947	-0.294076
C64	C	-0.321103	-0.618947	0.205924
C65	C	-0.766501	-1.118918	-0.294065
C66	C	-0.266501	-0.618918	0.205935
C67	C	-0.739210	-1.075602	-0.337291
C68	C	-0.239210	-0.575602	0.162709
C69	C	-0.766520	-1.032315	-0.380529
C70	C	-0.266520	-0.532315	0.119471
C71	C	-0.821138	-0.945742	-0.467016
C72	C	-0.321138	-0.445742	0.032984
C73	C	-0.766530	-0.945722	-0.467005
C74	C	-0.266530	-0.445722	0.032995
C75	C	-0.739220	-0.989012	-0.423764
C76	C	-0.239220	-0.489012	0.076236
C77	C	-0.684627	-0.988971	-0.423743
C78	C	-0.184627	-0.488971	0.076257
N79	N	-0.657314	-1.032263	-0.380510
N80	N	-0.157314	-0.532263	0.119490
C81	C	-0.684606	-1.075579	-0.337284
C82	C	-0.184606	-0.575579	0.162716
C83	C	-1.017709	-0.989132	-0.423802
C84	C	-0.517709	-0.489132	0.076198
C85	C	-1.072312	-0.989151	-0.423806
C86	C	-0.572312	-0.489151	0.076194
C87	C	-1.072291	-1.075762	-0.337342
C88	C	-0.572291	-0.575762	0.162658
C89	C	-1.017686	-1.075738	-0.337335
C90	C	-0.517686	-0.575738	0.162665
C91	C	-0.990396	-1.032424	-0.380568
C92	C	-0.490396	-0.532424	0.119432
C93	C	-0.569938	-1.075514	-0.337263
C94	C	-0.069938	-0.575514	0.162737
C95	C	-0.515331	-1.075480	-0.337253
C96	C	-0.015331	-0.575480	0.162747
C97	C	-0.515357	-0.988872	-0.423719
C98	C	-0.015357	-0.488872	0.076281
C99	C	-0.569959	-0.988904	-0.423727
C100	C	-0.069959	-0.488904	0.076273
C101	C	-0.597248	-1.032231	-0.380496
C102	C	-0.097248	-0.532231	0.119504
O103	O	-0.656351	-0.952135	-0.460468
O104	O	-0.156351	-0.452135	0.039532
O105	O	-0.656354	-1.112400	-0.300522
O106	O	-0.156354	-0.612400	0.199478
C107	C	-0.157720	-1.032410	-0.380559
C108	C	0.342280	-0.532410	0.119441
C109	C	-0.099608	-1.032470	-0.380582
C110	C	0.400392	-0.532470	0.119418
C111	C	-0.299815	-1.216142	-0.387904
C112	C	0.200185	-0.716142	0.112096
C113	C	-0.302256	-1.294498	-0.391057
C114	C	0.197744	-0.794498	0.108943
C115	C	-0.319689	-0.735746	-0.413528
C116	C	0.180311	-0.235746	0.086472
C117	C	-0.317401	-0.662123	-0.410585
C118	C	0.182599	-0.162123	0.089415
C119	C	-0.281381	-0.623514	-0.364112
C120	C	0.218619	-0.123514	0.135888
C121	C	-0.247643	-0.658531	-0.320584
C122	C	0.252357	-0.158531	0.179416
C123	C	-0.249928	-0.732152	-0.323531
C124	C	0.250072	-0.232152	0.176469
C125	C	-0.270803	-0.403136	-0.350476
C126	C	0.229197	0.096864	0.149524
C127	C	-0.268521	-0.329510	-0.347530
C128	C	0.231479	0.170490	0.152470
C129	C	-0.338279	-0.333107	-0.437533
C130	C	0.161721	0.166893	0.062467
C131	C	-0.340563	-0.406730	-0.440473
C132	C	0.159437	0.093270	0.059527
C133	C	-0.306824	-0.441741	-0.396948
C134	C	0.193176	0.058259	0.103052
N135	N	-0.279043	-0.548259	-0.361101
N136	N	0.220957	-0.048259	0.138899
N137	N	-0.309160	-0.516994	-0.399962
N138	N	0.190840	-0.016994	0.100038
C139	C	-0.268476	-0.999283	-0.677746
C140	C	0.231524	-0.499283	-0.177746
C141	C	-0.270753	-1.002250	-0.751369
C142	C	0.229247	-0.502250	-0.251369
C143	C	-0.306730	-1.048782	-0.789981
C144	C	0.193270	-0.548782	-0.289981
C145	C	-0.340437	-1.092346	-0.754966
C146	C	0.159563	-0.592346	-0.254966
C147	C	-0.338163	-1.089376	-0.681343
C148	C	0.161837	-0.589376	-0.181343
C149	C	-0.317270	-1.062494	-1.010362
C150	C	0.182730	-0.562494	-0.510362
C151	C	-0.319540	-1.065462	-1.083989
C152	C	0.180460	-0.565462	-0.583989
C153	C	-0.249857	-0.975364	-1.080388
C154	C	0.250143	-0.475364	-0.580388
C155	C	-0.247584	-0.972401	-1.006764
C156	C	0.252416	-0.472401	-0.506764
C157	C	-0.281292	-1.015962	-0.971755
C158	C	0.218708	-0.515962	-0.471755
N159	N	-0.309056	-1.051817	-0.865236
N160	N	0.190944	-0.551817	-0.365236
N161	N	-0.278968	-1.012923	-0.896501
N162	N	0.221032	-0.512923	-0.396501
C163	C	-0.288398	-1.024924	-0.197350
C164	C	0.211602	-0.524924	0.302650
C165	C	-0.285837	-1.021900	-0.119000
C166	C	0.214163	-0.521900	0.381000
H167	H	-0.493097	-1.110731	-0.302038
H168	H	0.006903	-0.610731	0.197962
H169	H	-0.218288	-0.934507	-0.975331
H170	H	0.281712	-0.434507	-0.475331
C171	C	-0.354509	-0.623609	-0.458461
C172	C	0.145491	-0.123609	0.041539
H173	H	-0.347986	-0.574234	-0.450057
H174	H	0.152014	-0.074234	0.049943
H175	H	-0.389679	-0.635222	-0.448538
H176	H	0.110321	-0.135222	0.051462
H177	H	-0.348748	-0.637605	-0.506331
H178	H	0.151252	-0.137605	-0.006331
C179	C	-0.375236	-1.137294	-0.642832
C180	C	0.124764	-0.637294	-0.142832
H181	H	-0.396986	-1.165437	-0.676371
H182	H	0.103014	-0.665437	-0.176371
H183	H	-0.396288	-1.109143	-0.613018
H184	H	0.103712	-0.609143	-0.113018
H185	H	-0.355305	-1.166875	-0.615355
H186	H	0.144695	-0.666875	-0.115355
H187	H	-0.369733	-1.130231	-0.786409
H188	H	0.130267	-0.630231	-0.286409
H189	H	-0.222456	-0.760658	-0.288090
H190	H	0.277544	-0.260658	0.211910
H191	H	-0.239183	-0.298076	-0.309691
H192	H	0.260817	0.201924	0.190309
C193	C	-0.485330	-0.941232	-0.471268
C194	C	0.014670	-0.441232	0.028732
H195	H	-0.448899	-0.947425	-0.465071
H196	H	0.051101	-0.447425	0.034929
H197	H	-0.492522	-0.893459	-0.459017
H198	H	0.007478	-0.393459	0.040983
H199	H	-0.496038	-0.953436	-0.519059
H200	H	0.003962	-0.453436	-0.019059
C201	C	-0.228905	-0.948091	-0.635279
C202	C	0.271095	-0.448091	-0.135279
H203	H	-0.209164	-0.922566	-0.666677
H204	H	0.290836	-0.422566	-0.166677
H205	H	-0.206076	-0.973914	-0.607649
H206	H	0.293924	-0.473914	-0.107649
H207	H	-0.247068	-0.916195	-0.605319
H208	H	0.252932	-0.416195	-0.105319
H209	H	-0.744313	-0.910451	-0.502213
H210	H	-0.244313	-0.410451	-0.002213
H211	H	-0.222414	-0.939899	-1.108900
H212	H	0.277586	-0.439899	-0.608900
H213	H	-0.592196	-0.953656	-0.458940
H214	H	-0.092196	-0.453656	0.041060
H215	H	-0.592150	-1.110797	-0.302062
H216	H	-0.092150	-0.610797	0.197938
C217	C	-0.987693	-0.941474	-0.471353
C218	C	-0.487693	-0.441474	0.028647
H219	H	-1.011784	-0.915693	-0.497095
H220	H	-0.511784	-0.415693	0.002905
H221	H	-0.968149	-0.969640	-0.503175
H222	H	-0.468149	-0.469640	-0.003175
H223	H	-0.964637	-0.909678	-0.443119
H224	H	-0.464637	-0.409678	0.056881
H225	H	-0.744269	-1.154170	-0.258856
H226	H	-0.244269	-0.654170	0.241144
H227	H	-0.344723	-1.097957	-0.981866
H228	H	0.155277	-0.597957	-0.481866
C229	C	-0.851115	-1.166594	-0.246519
C230	C	-0.351115	-0.666594	0.253481
H231	H	-0.827022	-1.192362	-0.220768
H232	H	-0.327022	-0.692362	0.279232
H233	H	-0.874176	-1.198391	-0.274738
H234	H	-0.374176	-0.698391	0.225262
H235	H	-0.870654	-1.138416	-0.214694
H236	H	-0.370654	-0.638416	0.285306
C237	C	-0.987650	-1.123362	-0.289776
C238	C	-0.487650	-0.623362	0.210224
H239	H	-1.011730	-1.149163	-0.264038
H240	H	-0.511730	-0.649163	0.235962
H241	H	-0.964589	-1.095177	-0.257950
H242	H	-0.464589	-0.595177	0.242050
H243	H	-0.968110	-1.155141	-0.318004
H244	H	-0.468110	-0.655141	0.181996
C245	C	-0.380182	-0.449195	-0.491598
C246	C	0.119818	0.050805	0.008402
H247	H	-0.399943	-0.417799	-0.517104
H248	H	0.100057	0.082201	-0.017104
H249	H	-0.402989	-0.476803	-0.465726
H250	H	0.097011	0.023197	0.034274
H251	H	-0.362054	-0.479177	-0.523515
H252	H	0.137946	0.020823	-0.023515
H253	H	-1.094543	-0.953893	-0.459011
H254	H	-0.594543	-0.453893	0.040989
H255	H	-0.349022	-0.767176	-0.451369
H256	H	0.150978	-0.267176	0.048631
H257	H	-0.365747	-0.304594	-0.472970
H258	H	0.134253	0.195406	0.027030
H259	H	-0.218312	-0.627089	-0.282747
H260	H	0.281688	-0.127089	0.217253
C261	C	-0.233699	-0.441638	-0.302587
C262	C	0.266301	0.058362	0.197413
H263	H	-0.211927	-0.408098	-0.274481
H264	H	0.288073	0.091902	0.225519
H265	H	-0.212672	-0.471475	-0.330751
H266	H	0.287328	0.028525	0.169249
H267	H	-0.253613	-0.469090	-0.272970
H268	H	0.246387	0.030910	0.227030
H269	H	-0.243310	-0.966774	-0.779871
H270	H	0.256690	-0.466774	-0.279871
H271	H	-0.843364	-0.910487	-0.502224
H272	H	-0.343364	-0.410487	-0.002224
C273	C	-0.359113	-1.116656	-1.126462
C274	C	0.140887	-0.616656	-0.626462
H275	H	-0.378865	-1.142173	-1.095068
H276	H	0.121135	-0.642173	-0.595068
H277	H	-0.340952	-1.148549	-1.156420
H278	H	0.159048	-0.648549	-0.656420
H279	H	-0.381941	-1.090825	-1.154092
H280	H	0.118059	-0.590825	-0.654092
H281	H	-1.094521	-1.111034	-0.302147
H282	H	-0.594521	-0.611034	0.197853
