data_functionalizedCrystal
_audit_creation_method	'MofGen! by Chris Wilmer'
_symmetry_space_group_name_H-M	'P1'
_symmetry_Int_Tables_number	1
_symmetry_cell_setting	triclinic
loop_
_symmetry_equiv_pos_as_xyz
  x,y,z
_cell_length_a	29.839131
_cell_length_b	25.639243
_cell_length_c	25.639233
_cell_angle_alpha	89.984038
_cell_angle_beta	89.980415
_cell_angle_gamma	90.044144
loop_
_atom_site_label
_atom_site_type_symbol
_atom_site_fract_x
_atom_site_fract_y
_atom_site_fract_z
Zn1	Zn	-0.178875	0.799215	-0.295653
Zn2	Zn	0.154458	1.132548	0.037681
Zn3	Zn	0.487791	1.465882	0.371014
Zn4	Zn	-0.253990	0.799134	-0.208216
Zn5	Zn	0.079343	1.132468	0.125118
Zn6	Zn	0.412677	1.465801	0.458451
Zn7	Zn	-0.178878	0.711791	-0.208226
Zn8	Zn	0.154455	1.045125	0.125107
Zn9	Zn	0.487788	1.378458	0.458440
Zn10	Zn	-0.253983	0.711732	-0.295615
Zn11	Zn	0.079351	1.045066	0.037718
Zn12	Zn	0.412684	1.378399	0.371052
O13	O	-0.216432	0.755468	-0.251927
O14	O	0.116902	1.088802	0.081406
O15	O	0.450235	1.422135	0.414739
O16	O	-0.188841	0.872370	-0.284065
O17	O	0.144492	1.205703	0.049268
O18	O	0.477825	1.539036	0.382601
O19	O	-0.244030	0.787539	-0.135052
O20	O	0.089303	1.120872	0.198281
O21	O	0.422636	1.454206	0.531615
O22	O	-0.116011	0.723447	-0.219844
O23	O	0.217323	1.056780	0.113490
O24	O	0.550656	1.390114	0.446823
O25	O	-0.244028	0.872310	-0.219826
O26	O	0.089306	1.205644	0.113508
O27	O	0.422639	1.538977	0.446841
O28	O	-0.116009	0.787677	-0.284075
O29	O	0.217325	1.121010	0.049258
O30	O	0.550658	1.454343	0.382591
O31	O	-0.188846	0.723369	-0.135060
O32	O	0.144487	1.056702	0.198274
O33	O	0.477820	1.390035	0.531607
O34	O	-0.188839	0.638618	-0.219807
O35	O	0.144494	0.971952	0.113526
O36	O	0.477827	1.305285	0.446859
O37	O	-0.244015	0.723346	-0.368785
O38	O	0.089318	1.056680	-0.035452
O39	O	0.422651	1.390013	0.297881
O40	O	-0.244018	0.638575	-0.284011
O41	O	0.089315	0.971908	0.049322
O42	O	0.422649	1.305242	0.382655
O43	O	-0.188834	0.787619	-0.368813
O44	O	0.144499	1.120953	-0.035480
O45	O	0.477832	1.454286	0.297854
O46	O	-0.316856	0.787482	-0.219789
O47	O	0.016477	1.120815	0.113544
O48	O	0.349811	1.454149	0.446877
O49	O	-0.316851	0.723268	-0.284001
O50	O	0.016483	1.056601	0.049332
O51	O	0.349816	1.389935	0.382665
C52	C	-0.216428	0.619626	-0.251907
C53	C	0.116905	0.952959	0.081427
C54	C	0.450238	1.286292	0.414760
C55	C	-0.216438	0.561512	-0.251910
C56	C	0.116895	0.894845	0.081423
C57	C	0.450229	1.228178	0.414756
C58	C	-0.187741	0.201174	-0.285433
C59	C	0.145592	0.534507	0.047901
C60	C	0.478926	0.867841	0.381234
C61	C	-0.187741	0.146570	-0.285436
C62	C	0.145593	0.479903	0.047897
C63	C	0.478926	0.813236	0.381231
O64	O	-0.163333	0.118354	-0.313912
O65	O	0.170000	0.451688	0.019421
O66	O	0.503333	0.785021	0.352755
N67	N	-0.216430	0.119229	-0.251942
N68	N	0.116903	0.452563	0.081392
N69	N	0.450236	0.785896	0.414725
C70	C	-0.245119	0.146496	-0.218438
C71	C	0.088215	0.479829	0.114895
C72	C	0.421548	0.813163	0.448228
O73	O	-0.269521	0.118227	-0.189949
O74	O	0.063812	0.451560	0.143384
O75	O	0.397146	0.784894	0.476718
C76	C	-0.245116	0.201099	-0.218433
C77	C	0.088217	0.534433	0.114900
C78	C	0.421550	0.867766	0.448234
C79	C	-0.216428	0.228437	-0.251933
C80	C	0.116905	0.561770	0.081400
C81	C	0.450238	0.895104	0.414734
C82	C	-0.159055	0.228512	-0.318930
C83	C	0.174278	0.561845	0.014404
C84	C	0.507612	0.895178	0.347737
C85	C	-0.159056	0.283112	-0.318927
C86	C	0.174277	0.616445	0.014406
C87	C	0.507611	0.949779	0.347740
C88	C	-0.187743	0.310375	-0.285427
C89	C	0.145590	0.643708	0.047906
C90	C	0.478923	0.977042	0.381239
C91	C	-0.216429	0.283037	-0.251930
C92	C	0.116904	0.616371	0.081403
C93	C	0.450237	0.949704	0.414736
C94	C	-0.273802	0.228365	-0.184927
C95	C	0.059531	0.561698	0.148406
C96	C	0.392864	0.895032	0.481739
C97	C	-0.273797	0.282972	-0.184925
C98	C	0.059536	0.616306	0.148409
C99	C	0.392869	0.949639	0.481742
C100	C	-0.245109	0.310310	-0.218425
C101	C	0.088224	0.643643	0.114909
C102	C	0.421557	0.976976	0.448242
C103	C	-0.245118	0.364901	-0.218428
C104	C	0.088216	0.698234	0.114905
C105	C	0.421549	1.031568	0.448239
N106	N	-0.216428	0.392241	-0.251922
N107	N	0.116905	0.725575	0.081411
N108	N	0.450238	1.058908	0.414744
C109	C	-0.187741	0.364978	-0.285422
C110	C	0.145592	0.698312	0.047911
C111	C	0.478926	1.031645	0.381245
C112	C	-0.245121	0.031825	-0.218452
C113	C	0.088213	0.365159	0.114881
C114	C	0.421546	0.698492	0.448215
C115	C	-0.245125	-0.022777	-0.218460
C116	C	0.088208	0.310556	0.114874
C117	C	0.421541	0.643890	0.448207
C118	C	-0.187747	-0.022700	-0.285457
C119	C	0.145586	0.310634	0.047877
C120	C	0.478920	0.643967	0.381210
C121	C	-0.187745	0.031904	-0.285451
C122	C	0.145589	0.365237	0.047882
C123	C	0.478922	0.698570	0.381216
C124	C	-0.216431	0.059166	-0.251946
C125	C	0.116902	0.392499	0.081387
C126	C	0.450236	0.725832	0.414721
C127	C	-0.187746	0.479643	-0.285414
C128	C	0.145587	0.812977	0.047919
C129	C	0.478921	1.146310	0.381253
C130	C	-0.187751	0.534249	-0.285410
C131	C	0.145583	0.867582	0.047923
C132	C	0.478916	1.200915	0.381257
C133	C	-0.245127	0.534167	-0.218411
C134	C	0.088206	0.867500	0.114922
C135	C	0.421539	1.200833	0.448255
C136	C	-0.245124	0.479566	-0.218417
C137	C	0.088209	0.812899	0.114916
C138	C	0.421542	1.146233	0.448250
C139	C	-0.216430	0.452306	-0.251920
C140	C	0.116903	0.785639	0.081413
C141	C	0.450237	1.118972	0.414746
O142	O	-0.269511	0.393151	-0.189965
O143	O	0.063822	0.726484	0.143368
O144	O	0.397155	1.059818	0.476702
O145	O	-0.163339	0.393254	-0.313902
O146	O	0.169995	0.726587	0.019432
O147	O	0.503328	1.059921	0.352765
C148	C	-0.333154	0.755374	-0.251902
C149	C	0.000179	1.088707	0.081432
C150	C	0.333513	1.422041	0.414765
C151	C	-0.383089	0.755381	-0.251908
C152	C	-0.049755	1.088715	0.081425
C153	C	0.283578	1.422048	0.414759
C154	C	-0.692722	0.788965	-0.218541
C155	C	-0.359389	1.122299	0.114792
C156	C	-0.026055	1.455632	0.448126
C157	C	-0.880395	0.789030	-0.218561
C158	C	-0.547062	1.122363	0.114772
C159	C	-0.213728	1.455697	0.448105
O160	O	-0.904651	0.817509	-0.190172
O161	O	-0.571318	1.150843	0.143161
O162	O	-0.237985	1.484176	0.476495
N163	N	-0.903874	0.755577	-0.251967
N164	N	-0.570540	1.088910	0.081366
N165	N	-0.237207	1.422243	0.414700
C166	C	-0.880431	0.722108	-0.285372
C167	C	-0.547098	1.055441	0.047961
C168	C	-0.213764	1.388774	0.381295
O169	O	-0.904707	0.693659	-0.313790
O170	O	-0.571374	1.026992	0.019544
O171	O	-0.238040	1.360326	0.352877
C172	C	-0.692759	0.722046	-0.285354
C173	C	-0.359425	1.055379	0.047979
C174	C	-0.026092	1.388713	0.381313
C175	C	-0.669283	0.755498	-0.251943
C176	C	-0.335949	1.088831	0.081391
C177	C	-0.002616	1.422164	0.414724
C178	C	-0.669246	0.822415	-0.185133
C179	C	-0.335913	1.155748	0.148200
C180	C	-0.002579	1.489081	0.481534
C181	C	-0.622330	0.822396	-0.185126
C182	C	-0.288997	1.155729	0.148207
C183	C	0.044336	1.489063	0.481541
C184	C	-0.598891	0.788928	-0.218528
C185	C	-0.265558	1.122262	0.114806
C186	C	0.067776	1.455595	0.448139
C187	C	-0.622367	0.755479	-0.251936
C188	C	-0.289034	1.088812	0.081397
C189	C	0.044299	1.422146	0.414731
C190	C	-0.669317	0.688580	-0.318761
C191	C	-0.335984	1.021913	0.014572
C192	C	-0.002650	1.355247	0.347905
C193	C	-0.622396	0.688568	-0.318755
C194	C	-0.289063	1.021902	0.014578
C195	C	0.044271	1.355235	0.347912
C196	C	-0.598920	0.722020	-0.285344
C197	C	-0.265587	1.055353	0.047990
C198	C	0.067747	1.388687	0.381323
C199	C	-0.552012	0.721993	-0.285331
C200	C	-0.218679	1.055326	0.048003
C201	C	0.114654	1.388660	0.381336
N202	N	-0.528534	0.755446	-0.251925
N203	N	-0.195201	1.088779	0.081408
N204	N	0.138133	1.422113	0.414741
C205	C	-0.551973	0.788914	-0.218524
C206	C	-0.218640	1.122247	0.114810
C207	C	0.114693	1.455580	0.448143
C208	C	-0.978962	0.722142	-0.285378
C209	C	-0.645628	1.055475	0.047955
C210	C	-0.312295	1.388808	0.381288
C211	C	-1.025879	0.722156	-0.285382
C212	C	-0.692546	1.055489	0.047951
C213	C	-0.359213	1.388823	0.381284
C214	C	-1.025840	0.789079	-0.218572
C215	C	-0.692507	1.122413	0.114761
C216	C	-0.359174	1.455746	0.448094
C217	C	-0.978922	0.789062	-0.218566
C218	C	-0.645588	1.122395	0.114767
C219	C	-0.312255	1.455728	0.448101
C220	C	-0.955483	0.755595	-0.251973
C221	C	-0.622150	1.088928	0.081360
C222	C	-0.288816	1.422261	0.414694
C223	C	-0.453447	0.788872	-0.218512
C224	C	-0.120114	1.122205	0.114822
C225	C	0.213219	1.455539	0.448155
C226	C	-0.406528	0.788849	-0.218506
C227	C	-0.073195	1.122182	0.114827
C228	C	0.260139	1.455516	0.448160
C229	C	-0.406571	0.721928	-0.285318
C230	C	-0.073238	1.055261	0.048015
C231	C	0.260096	1.388595	0.381349
C232	C	-0.453487	0.721949	-0.285322
C233	C	-0.120153	1.055282	0.048012
C234	C	0.213180	1.388616	0.381345
C235	C	-0.476924	0.755425	-0.251917
C236	C	-0.143590	1.088758	0.081417
C237	C	0.189743	1.422092	0.414750
O238	O	-0.527727	0.693533	-0.313709
O239	O	-0.194394	1.026866	0.019624
O240	O	0.138940	1.360199	0.352957
O241	O	-0.527689	0.817366	-0.190118
O242	O	-0.194356	1.150700	0.143215
O243	O	0.138978	1.484033	0.476548
C244	C	-0.739637	0.788984	-0.218548
C245	C	-0.406304	1.122317	0.114785
C246	C	-0.072971	1.455650	0.448119
C247	C	-0.763114	0.755535	-0.251956
C248	C	-0.429780	1.088868	0.081377
C249	C	-0.096447	1.422201	0.414711
C250	C	-0.739674	0.722067	-0.285358
C251	C	-0.406341	1.055400	0.047976
C252	C	-0.073008	1.388734	0.381309
C253	C	-0.810031	0.755549	-0.251960
C254	C	-0.476698	1.088883	0.081373
C255	C	-0.143365	1.422216	0.414707
C256	C	-0.833471	0.789017	-0.218559
C257	C	-0.500137	1.122350	0.114775
C258	C	-0.166804	1.455684	0.448108
C259	C	-0.809992	0.822470	-0.185153
C260	C	-0.476659	1.155803	0.148180
C261	C	-0.143326	1.489137	0.481514
C262	C	-0.763077	0.822452	-0.185146
C263	C	-0.429743	1.155785	0.148187
C264	C	-0.096410	1.489118	0.481520
C265	C	-0.763153	0.688614	-0.318763
C266	C	-0.429819	1.021947	0.014570
C267	C	-0.096486	1.355280	0.347904
C268	C	-0.810068	0.688635	-0.318767
C269	C	-0.476735	1.021968	0.014567
C270	C	-0.143402	1.355301	0.347900
C271	C	-0.833508	0.722102	-0.285365
C272	C	-0.500174	1.055436	0.047968
C273	C	-0.166841	1.388769	0.381302
C274	C	-0.099253	0.755577	-0.251965
C275	C	0.234080	1.088911	0.081368
C276	C	0.567414	1.422244	0.414702
C277	C	-0.049319	0.755624	-0.251981
C278	C	0.284015	1.088957	0.081352
C279	C	0.617348	1.422291	0.414686
C280	C	-0.216424	0.755485	-0.388300
C281	C	0.116910	1.088819	-0.054967
C282	C	0.450243	1.422152	0.278366
C283	C	-0.216420	0.755492	-0.446415
C284	C	0.116913	1.088826	-0.113081
C285	C	0.450246	1.422159	0.220252
C286	C	-0.216435	0.891841	-0.251949
C287	C	0.116898	1.225175	0.081385
C288	C	0.450232	1.558508	0.414718
C289	C	-0.216436	0.949955	-0.251958
C290	C	0.116897	1.283289	0.081376
C291	C	0.450230	1.616622	0.414709
C292	C	-0.187602	0.789002	-0.806798
C293	C	0.145731	1.122335	-0.473464
C294	C	0.479065	1.455669	-0.140131
C295	C	-0.187590	0.789008	-0.861402
C296	C	0.145744	1.122342	-0.528069
C297	C	0.479077	1.455675	-0.194735
O298	O	-0.163141	0.817457	-0.889656
O299	O	0.170193	1.150790	-0.556323
O300	O	0.503526	1.484124	-0.222989
N301	N	-0.216315	0.755550	-0.888697
N302	N	0.117018	1.088883	-0.555364
N303	N	0.450352	1.422217	-0.222031
C304	C	-0.245051	0.722079	-0.861385
C305	C	0.088282	1.055413	-0.528052
C306	C	0.421615	1.388746	-0.194719
O307	O	-0.269483	0.693621	-0.889616
O308	O	0.063851	1.026954	-0.556282
O309	O	0.397184	1.360287	-0.222949
C310	C	-0.245061	0.722071	-0.806782
C311	C	0.088272	1.055404	-0.473449
C312	C	0.421606	1.388737	-0.140115
C313	C	-0.216337	0.755535	-0.779490
C314	C	0.116996	1.088868	-0.446156
C315	C	0.450329	1.422202	-0.112823
C316	C	-0.158880	0.822463	-0.779505
C317	C	0.174453	1.155796	-0.446172
C318	C	0.507786	1.489130	-0.112839
C319	C	-0.158893	0.822457	-0.724905
C320	C	0.174440	1.155790	-0.391572
C321	C	0.507773	1.489124	-0.058238
C322	C	-0.187628	0.788990	-0.697597
C323	C	0.145705	1.122323	-0.364263
C324	C	0.479038	1.455657	-0.030930
C325	C	-0.216350	0.755529	-0.724889
C326	C	0.116983	1.088862	-0.391556
C327	C	0.450316	1.422196	-0.058222
C328	C	-0.273795	0.688598	-0.779471
C329	C	0.059539	1.021931	-0.446137
C330	C	0.392872	1.355264	-0.112804
C331	C	-0.273802	0.688592	-0.724864
C332	C	0.059531	1.021925	-0.391530
C333	C	0.392865	1.355258	-0.058197
C334	C	-0.245078	0.722056	-0.697571
C335	C	0.088255	1.055389	-0.364238
C336	C	0.421589	1.388723	-0.030905
C337	C	-0.245098	0.722056	-0.642980
C338	C	0.088235	1.055389	-0.309647
C339	C	0.421568	1.388723	0.023686
N340	N	-0.216373	0.755514	-0.615685
N341	N	0.116960	1.088848	-0.282352
N342	N	0.450293	1.422181	0.050982
C343	C	-0.187638	0.788981	-0.642993
C344	C	0.145695	1.122315	-0.309660
C345	C	0.479028	1.455648	0.023673
C346	C	-0.245028	0.722100	-0.976056
C347	C	0.088305	1.055433	-0.642723
C348	C	0.421639	1.388766	-0.309389
C349	C	-0.245021	0.722110	-1.030658
C350	C	0.088313	1.055444	-0.697325
C351	C	0.421646	1.388777	-0.363992
C352	C	-0.187558	0.789039	-1.030671
C353	C	0.145775	1.122372	-0.697338
C354	C	0.479108	1.455706	-0.364005
C355	C	-0.187568	0.789030	-0.976068
C356	C	0.145765	1.122364	-0.642735
C357	C	0.479098	1.455697	-0.309401
C358	C	-0.216303	0.755558	-0.948761
C359	C	0.117031	1.088891	-0.615427
C360	C	0.450364	1.422225	-0.282094
C361	C	-0.187668	0.788967	-0.528328
C362	C	0.145665	1.122300	-0.194995
C363	C	0.478998	1.455633	0.138339
C364	C	-0.187685	0.788959	-0.473723
C365	C	0.145648	1.122293	-0.140389
C366	C	0.478981	1.455626	0.192944
C367	C	-0.245146	0.722029	-0.473714
C368	C	0.088188	1.055363	-0.140381
C369	C	0.421521	1.388696	0.192952
C370	C	-0.245130	0.722038	-0.528315
C371	C	0.088203	1.055372	-0.194982
C372	C	0.421536	1.388705	0.138352
C373	C	-0.216388	0.755509	-0.555621
C374	C	0.116945	1.088842	-0.222287
C375	C	0.450279	1.422175	0.111046
O376	O	-0.269534	0.693620	-0.614692
O377	O	0.063799	1.026954	-0.281358
O378	O	0.397133	1.360287	0.051975
O379	O	-0.163207	0.817430	-0.614756
O380	O	0.170127	1.150764	-0.281423
O381	O	0.503460	1.484097	0.051911
C382	C	-0.216407	0.755482	-0.116085
C383	C	0.116926	1.088815	0.217248
C384	C	0.450260	1.422148	0.550582
C385	C	-0.216284	0.755576	-0.057971
C386	C	0.117050	1.088909	0.275362
C387	C	0.450383	1.422242	0.608695
H388	H	-0.268490	0.457307	-0.191145
H389	H	0.064844	0.790640	0.142189
H390	H	0.398177	1.123973	0.475522
H391	H	-0.387479	0.694677	-0.312512
H392	H	-0.054146	1.028011	0.020822
H393	H	0.279187	1.361344	0.354155
Br394	Br	-0.947159	0.676717	-0.330721
Br395	Br	-0.613825	1.010050	0.002613
Br396	Br	-0.280492	1.343384	0.335946
Br397	Br	-0.701165	0.643184	-0.364114
Br398	Br	-0.367832	0.976517	-0.030781
Br399	Br	-0.034499	1.309851	0.302553
H400	H	-0.164383	0.054158	-0.312729
H401	H	0.168950	0.387492	0.020605
H402	H	0.502283	0.720825	0.353938
Br403	Br	-0.284066	-0.059871	-0.173000
Br404	Br	0.049267	0.273462	0.160334
Br405	Br	0.382600	0.606796	0.493667
H406	H	-0.297163	0.206116	-0.157647
H407	H	0.036171	0.539450	0.175686
H408	H	0.369504	0.872783	0.509019
Br409	Br	-0.312732	0.319967	-0.139451
Br410	Br	0.020602	0.653301	0.193882
Br411	Br	0.353935	0.986634	0.527216
H412	H	-0.135692	0.206320	-0.346209
H413	H	0.197641	0.539653	-0.012876
H414	H	0.530975	0.872987	0.320457
Br415	Br	-0.312782	0.643182	-0.816496
Br416	Br	0.020551	0.976515	-0.483163
Br417	Br	0.353884	1.309849	-0.149830
H418	H	-0.268485	0.054019	-0.191169
H419	H	0.064849	0.387352	0.142164
H420	H	0.398182	0.720685	0.475497
H421	H	-0.268485	0.556374	-0.191138
H422	H	0.064849	0.889707	0.142196
H423	H	0.398182	1.223041	0.475529
Br424	Br	-0.148585	0.834447	-0.939034
Br425	Br	0.184749	1.167781	-0.605701
Br426	Br	0.518082	1.501114	-0.272368
Br427	Br	-0.119906	0.867872	-0.687874
Br428	Br	0.213427	1.201206	-0.354540
Br429	Br	0.546760	1.534539	-0.021207
Br430	Br	-0.590589	0.643148	-0.364097
Br431	Br	-0.257256	0.976482	-0.030764
Br432	Br	0.076077	1.309815	0.302569
Br433	Br	-0.284031	0.676672	-0.939001
Br434	Br	0.049302	1.010005	-0.605668
Br435	Br	0.382635	1.343338	-0.272335
H436	H	-0.387415	0.816089	-0.191297
H437	H	-0.054082	1.149423	0.142036
H438	H	0.279252	1.482756	0.475370
Br439	Br	-0.485248	0.834304	-0.173176
Br440	Br	-0.151914	1.167638	0.160157
Br441	Br	0.181419	1.500971	0.493491
H442	H	-0.603219	0.849637	-0.157921
H443	H	-0.269886	1.182970	0.175412
H444	H	0.063448	1.516303	0.508745
Br445	Br	-0.485348	0.676538	-0.330653
Br446	Br	-0.152015	1.009871	0.002680
Br447	Br	0.181319	1.343204	0.336013
Br448	Br	-0.731224	0.867854	-0.139801
Br449	Br	-0.397890	1.201187	0.193532
Br450	Br	-0.064557	1.534521	0.526865
H451	H	-0.164160	0.816288	-1.052916
H452	H	0.169174	1.149622	-0.719582
H453	H	0.502507	1.482955	-0.386249
H454	H	-0.164387	-0.044907	-0.312733
H455	H	0.168946	0.288426	0.020601
H456	H	0.502280	0.621760	0.353934
H457	H	-0.688325	0.849671	-0.157933
H458	H	-0.354992	1.183004	0.175400
H459	H	-0.021659	1.516338	0.508733
Br460	Br	-0.284141	0.676611	-0.436643
Br461	Br	0.049193	1.009944	-0.103309
Br462	Br	0.382526	1.343278	0.230024
H463	H	-0.959810	0.816301	-0.191360
H464	H	-0.626477	1.149634	0.141973
H465	H	-0.293143	1.482968	0.475307
H466	H	-0.829085	0.849719	-0.157955
H467	H	-0.495751	1.183053	0.175378
H468	H	-0.162418	1.516386	0.508712
H469	H	-1.044932	0.816330	-0.191376
H470	H	-0.711599	1.149663	0.141958
H471	H	-0.378266	1.482997	0.475291
H472	H	-1.044990	0.694912	-0.312584
H473	H	-0.711656	1.028245	0.020749
H474	H	-0.378323	1.361578	0.354082
Br475	Br	-0.841923	0.643230	-0.364114
Br476	Br	-0.508589	0.976563	-0.030780
Br477	Br	-0.175256	1.309897	0.302553
H478	H	-0.135695	0.305366	-0.346205
H479	H	0.197639	0.638699	-0.012872
H480	H	0.530972	0.972032	0.320461
H481	H	-0.297197	0.661328	-0.702633
H482	H	0.036137	0.994661	-0.369300
H483	H	0.369470	1.327995	-0.035966
Br484	Br	-0.284013	0.676703	-1.067691
Br485	Br	0.049320	1.010036	-0.734358
Br486	Br	0.382654	1.343370	-0.401024
Br487	Br	-0.148702	0.834380	-0.436686
Br488	Br	0.184631	1.167714	-0.103353
Br489	Br	0.517965	1.501047	0.229980
H490	H	-0.268524	0.694794	-0.550538
H491	H	0.064809	1.028127	-0.217204
H492	H	0.398143	1.361461	0.116129
Br493	Br	-0.148658	0.834388	-0.565377
Br494	Br	0.184676	1.167721	-0.232044
Br495	Br	0.518009	1.501054	0.101289
Br496	Br	-0.148803	0.442656	-0.330882
Br497	Br	0.184531	0.775989	0.002451
Br498	Br	0.517864	1.109323	0.335784
Br499	Br	-0.119883	0.867895	-0.816556
Br500	Br	0.213451	1.201229	-0.483223
Br501	Br	0.546784	1.534562	-0.149890
H502	H	-0.164389	0.556505	-0.312691
H503	H	0.168944	0.889838	0.020642
H504	H	0.502278	1.223171	0.353975
H505	H	-0.744072	0.661361	-0.345963
H506	H	-0.410739	0.994694	-0.012630
H507	H	-0.077405	1.328028	0.320703
