data_functionalizedCrystal
_audit_creation_method	'MofGen! by Chris Wilmer'
_symmetry_space_group_name_H-M	'P1'
_symmetry_Int_Tables_number	1
_symmetry_cell_setting	triclinic
loop_
_symmetry_equiv_pos_as_xyz
  x,y,z
_cell_length_a	11.026607
_cell_length_b	8.559649
_cell_length_c	7.088929
_cell_angle_alpha	95.344185
_cell_angle_beta	97.578021
_cell_angle_gamma	90.817659
loop_
_atom_site_label
_atom_site_type_symbol
_atom_site_fract_x
_atom_site_fract_y
_atom_site_fract_z
O1	O	1.535816	-0.664136	-0.158933
O2	O	1.189424	-0.589935	-0.158946
O3	O	1.393137	-0.403211	-0.158937
O4	O	1.332102	-0.850860	-0.158943
O5	O	1.420368	-0.378185	0.159040
O6	O	1.216655	-0.564909	0.159030
O7	O	1.563047	-0.639110	0.159043
Cu8	Cu	1.392337	-0.599725	0.188070
Cu9	Cu	1.360133	-0.629321	-0.187974
O10	O	1.359333	-0.825834	0.159034
C11	C	1.159104	-0.563734	0.000040
C12	C	1.028192	-0.522927	0.000035
C13	C	1.411378	-0.332499	0.000048
C14	C	1.425145	-0.159080	0.000038
C15	C	1.593366	-0.665312	0.000052
C16	C	1.724276	-0.706119	0.000045
C17	C	1.808583	-0.593445	0.000044
C18	C	1.943886	-0.635618	0.000036
C19	C	1.341092	-0.896546	0.000045
C20	C	1.327324	-1.069967	0.000042
N21	N	1.414996	-0.578910	0.452559
N22	N	1.337485	-0.650126	-0.452463
H23	H	1.780594	-0.465755	0.000078
H24	H	1.233042	-0.126344	0.000045
Br25	Br	1.981566	-0.310087	0.000067
H26	H	1.519435	-0.102693	0.000057
H27	H	1.495340	-0.505120	0.534219
Br28	Br	1.203592	-0.773137	0.411453
H29	H	1.971872	-0.763313	0.000043
H30	H	1.752269	-0.833805	0.000051
