data_functionalizedCrystal
_audit_creation_method	'MofGen! by Chris Wilmer'
_symmetry_space_group_name_H-M	'P1'
_symmetry_Int_Tables_number	1
_symmetry_cell_setting	triclinic
loop_
_symmetry_equiv_pos_as_xyz
  x,y,z
_cell_length_a	17.699097
_cell_length_b	10.654551
_cell_length_c	16.776229
_cell_angle_alpha	89.996205
_cell_angle_beta	89.989262
_cell_angle_gamma	83.886896
loop_
_atom_site_label
_atom_site_type_symbol
_atom_site_fract_x
_atom_site_fract_y
_atom_site_fract_z
O1	O	1.005083	0.158888	-0.066350
O2	O	0.784837	0.179532	-0.066336
O3	O	0.900023	-0.013617	-0.066343
O4	O	0.889896	0.352037	-0.066342
O5	O	0.900008	-0.013629	0.066233
O6	O	0.784821	0.179520	0.066241
O7	O	1.005067	0.158876	0.066227
Zn8	Zn	0.894942	0.169196	0.087283
Zn9	Zn	0.894962	0.169212	-0.087392
O10	O	0.889881	0.352026	0.066234
C11	C	0.756628	0.178783	-0.000046
C12	C	0.672596	0.176556	-0.000041
C13	C	0.156799	0.162908	-0.072341
C14	C	0.235757	0.164992	-0.072337
C15	C	0.275221	0.166030	-0.000066
C16	C	0.235724	0.164971	0.072205
C17	C	0.156769	0.162877	0.072201
C18	C	0.554142	0.173412	0.072226
C19	C	0.633103	0.175509	0.072226
C20	C	0.633130	0.175527	-0.072311
C21	C	0.554174	0.173433	-0.072316
C22	C	0.514685	0.172367	-0.000045
C23	C	0.429071	0.170105	-0.000050
C24	C	0.360833	0.168302	-0.000060
C25	C	0.899272	-0.060408	-0.000057
C26	C	0.897047	-0.199813	-0.000062
C27	C	0.896011	-0.265300	-0.072328
C28	C	0.893914	-0.396284	-0.072324
C29	C	0.893891	-0.396282	0.072218
C30	C	0.895983	-0.265300	0.072213
C31	C	0.897075	-0.199813	-0.144604
C32	C	0.896041	-0.265301	-0.216875
C33	C	0.893943	-0.396285	-0.216872
C34	C	0.892881	-0.461781	-0.144596
C35	C	1.033276	0.159625	-0.000065
C36	C	1.117308	0.161852	-0.000075
C37	C	0.890632	0.398816	-0.000054
C38	C	0.892858	0.538221	-0.000054
N39	N	0.894933	0.169185	0.206494
N40	N	0.894977	0.169213	-0.206603
C41	C	0.945954	0.083693	0.248208
C42	C	0.945958	0.083692	0.331660
C43	C	0.894945	0.169190	0.373397
C44	C	0.843919	0.254685	0.331678
C45	C	0.843912	0.254679	0.248227
C46	C	0.843947	0.254710	0.668225
C47	C	0.843959	0.254712	0.751681
C48	C	0.945993	0.083723	0.751658
C49	C	0.945986	0.083717	0.668207
C50	C	0.894957	0.169207	0.626495
C51	C	0.894952	0.169206	0.536007
C52	C	0.894953	0.169198	0.463884
H53	H	0.267907	0.165844	-0.131183
H54	H	0.987541	0.014108	0.785629
H55	H	0.987498	0.014077	0.214231
C56	C	1.002083	-0.010343	0.377550
C57	C	1.058219	-0.104358	0.331648
C58	C	1.114345	-0.198397	0.377539
C59	C	1.114335	-0.198420	0.469331
C60	C	1.058196	-0.104401	0.515238
C61	C	1.002070	-0.010363	0.469347
H62	H	1.058229	-0.104344	0.263693
H63	H	1.155902	-0.267996	0.343555
H64	H	1.155882	-0.268034	0.503303
H65	H	1.058187	-0.104415	0.583193
H66	H	0.960513	0.059237	0.503331
C67	C	0.787837	0.348758	0.797594
C68	C	0.731705	0.442791	0.751715
C69	C	0.675586	0.536832	0.797629
C70	C	0.675601	0.536839	0.889421
C71	C	0.731735	0.442802	0.935305
C72	C	0.787853	0.348761	0.889392
H73	H	0.731692	0.442789	0.683760
H74	H	0.634032	0.606444	0.763662
H75	H	0.634059	0.606453	0.923409
H76	H	0.731747	0.442804	1.003260
H77	H	0.829407	0.279149	0.923359
H78	H	0.987528	0.014101	0.634228
C79	C	0.787803	0.348736	0.377584
C80	C	0.787843	0.348813	0.469376
C81	C	0.731726	0.442870	0.515280
C82	C	0.675570	0.536851	0.469391
C83	C	0.675528	0.536777	0.377593
C84	C	0.731644	0.442720	0.331690
H85	H	0.829415	0.279240	0.503351
H86	H	0.731758	0.442924	0.583235
H87	H	0.634029	0.606477	0.503371
H88	H	0.633955	0.606350	0.343619
H89	H	0.731612	0.442666	0.263735
H90	H	0.124673	0.162072	-0.131192
H91	H	0.522046	0.172595	-0.131166
H92	H	0.802399	0.324321	0.634269
H93	H	0.665291	0.176390	-0.131158
H94	H	0.893026	-0.449620	0.131061
C95	C	0.897207	-0.193260	-0.296375
C96	C	0.962531	-0.225735	-0.355999
C97	C	0.963696	-0.153697	-0.435500
C98	C	0.899538	-0.049185	-0.455378
C99	C	0.834210	-0.016705	-0.395752
C100	C	0.833044	-0.088743	-0.316251
H101	H	1.010029	-0.303106	-0.341286
H102	H	1.012057	-0.177741	-0.479639
H103	H	0.900401	0.004142	-0.514229
H104	H	0.786712	0.060666	-0.410465
H105	H	0.784683	-0.064699	-0.272112
H106	H	0.665232	0.176354	0.131081
H107	H	0.802365	0.324294	0.214264
C108	C	0.892804	-0.468321	-0.296367
C109	C	0.956973	-0.572828	-0.316240
C110	C	0.955839	-0.644861	-0.395739
C111	C	0.890537	-0.612389	-0.455365
C112	C	0.826364	-0.507877	-0.435495
C113	C	0.827498	-0.435843	-0.355996
H114	H	1.005317	-0.596871	-0.272099
H115	H	1.003344	-0.722228	-0.410448
H116	H	0.889698	-0.665712	-0.514215
H117	H	0.778019	-0.483834	-0.479635
H118	H	0.779992	-0.358477	-0.341286
C119	C	0.897124	-0.193250	0.151704
C120	C	0.832953	-0.088747	0.171573
C121	C	0.834090	-0.016694	0.251065
C122	C	0.899399	-0.049144	0.310687
C123	C	0.963575	-0.153652	0.290819
C124	C	0.962437	-0.225705	0.211328
H125	H	0.784603	-0.064721	0.127436
H126	H	0.786583	0.060670	0.265772
H127	H	0.900241	0.004194	0.369531
H128	H	1.011924	-0.177678	0.334956
H129	H	1.009945	-0.303069	0.196620
H130	H	0.522001	0.172525	0.131074
C131	C	0.279132	0.166112	0.151705
C132	C	0.365980	0.168423	0.151715
C133	C	0.409385	0.169569	0.231217
C134	C	0.365944	0.168404	0.310709
C135	C	0.279092	0.166094	0.310702
C136	C	0.235686	0.164947	0.231200
H137	H	0.398142	0.169285	0.092868
H138	H	0.473679	0.171280	0.231222
H139	H	0.398075	0.169253	0.369561
H140	H	0.246930	0.165231	0.369550
H141	H	0.171392	0.163237	0.231195
H142	H	0.124616	0.162031	0.131047
H143	H	0.891162	-0.568434	-0.144599
H144	H	0.898785	-0.093160	-0.144615
