data_functionalizedCrystal
_audit_creation_method	'MofGen! by Chris Wilmer'
_symmetry_space_group_name_H-M	'P1'
_symmetry_Int_Tables_number	1
_symmetry_cell_setting	triclinic
loop_
_symmetry_equiv_pos_as_xyz
  x,y,z
_cell_length_a	14.395555
_cell_length_b	14.560438
_cell_length_c	14.560438
_cell_angle_alpha	60.000905
_cell_angle_beta	90.002728
_cell_angle_gamma	59.999305
loop_
_atom_site_label
_atom_site_type_symbol
_atom_site_fract_x
_atom_site_fract_y
_atom_site_fract_z
Zr1	Zr	0.894913	1.005237	-0.120460
O2	O	0.746579	1.196847	-0.267113
O3	O	0.940385	0.813633	-0.075506
O4	O	0.940381	1.005237	-0.267106
O5	O	0.746588	1.005240	0.075629
O6	O	1.093255	1.005230	-0.267098
O7	O	0.746584	1.005243	-0.075512
O8	O	1.093263	0.662486	0.075640
O9	O	0.746580	1.347985	-0.267110
O10	O	1.073867	0.892435	-0.056324
O11	O	0.959782	0.892438	0.056465
O12	O	0.959776	1.118027	-0.169121
O13	O	0.845691	1.118031	-0.056332
Zr14	Zr	1.138736	1.005222	0.120605
Zr15	Zr	1.138730	1.005226	-0.120447
Zr16	Zr	0.894919	1.005233	0.120592
Zr17	Zr	0.894914	1.246284	-0.120456
Zr18	Zr	1.138735	0.764174	0.120600
O19	O	1.093264	1.196825	0.075650
O20	O	1.093255	1.196831	-0.267095
O21	O	0.746588	1.196841	0.075632
O22	O	1.287070	0.813612	0.267258
O23	O	1.287061	0.813618	-0.075487
O24	O	0.940394	0.813628	0.267239
O25	O	1.287061	1.005219	-0.075484
O26	O	1.093268	1.005221	0.267251
O27	O	0.940394	1.005228	0.267243
O28	O	1.287065	1.005216	0.075657
O29	O	0.940381	1.347976	-0.267100
O30	O	1.093268	0.662483	0.267245
O31	O	1.287069	0.662474	0.267255
O32	O	1.287064	0.662477	0.075651
O33	O	0.746585	1.347981	-0.075506
O34	O	0.940386	1.347973	-0.075496
O35	O	1.073873	0.892431	0.169265
O36	O	1.187958	0.892428	0.056477
O37	O	1.073867	1.118020	-0.056320
O38	O	0.959782	1.118024	0.056469
C39	C	1.016824	0.703716	0.000067
C40	C	1.016824	0.601385	0.000065
C41	C	1.076373	0.553307	-0.058810
C42	C	1.076377	0.457147	-0.058799
C43	C	0.957274	0.457156	0.058962
C44	C	0.957277	0.553307	0.058957
C45	C	0.711847	1.005243	0.000056
C46	C	0.608341	1.005248	0.000051
C47	C	0.485545	1.128250	-0.061441
C48	C	0.454708	1.066762	-0.106008
C49	C	0.454754	1.066731	0.044609
C50	C	0.578867	0.943759	-0.044578
C51	C	0.578910	0.943745	0.106098
C52	C	0.548147	0.882167	0.061558
C53	C	1.321802	1.005216	0.000088
C54	C	1.425308	1.005211	0.000094
C55	C	1.016817	1.005234	-0.301447
C56	C	1.016814	1.005236	-0.403780
C57	C	1.016825	1.306743	0.000078
C58	C	1.016825	1.409074	0.000080
C59	C	0.957261	1.122991	-0.510735
C60	C	0.957274	1.122985	-0.606884
C61	C	1.076395	0.887459	-0.489109
C62	C	1.076388	0.887466	-0.392963
C63	C	1.016832	1.005224	0.301592
C64	C	1.016835	1.005223	0.403925
C65	C	1.321801	0.703702	0.000083
C66	C	1.425307	0.601366	0.000086
C67	C	1.016832	0.703711	0.301586
C68	C	1.016834	0.601378	0.403917
C69	C	1.321809	0.703697	0.301602
C70	C	1.425318	0.601360	0.403939
C71	C	0.711840	1.306762	-0.301457
C72	C	0.608331	1.409099	-0.403794
C73	C	0.711848	1.306757	0.000062
C74	C	0.608341	1.409092	0.000058
C75	C	1.016817	1.306748	-0.301441
C76	C	1.016815	1.409081	-0.403772
C77	C	1.414384	0.553290	-0.058790
C78	C	1.511643	0.457143	-0.058791
C79	C	1.630746	0.457153	0.058971
C80	C	1.533488	0.553305	0.058964
C81	C	1.076389	0.553296	0.510873
C82	C	1.076378	0.457153	0.607020
C83	C	0.957257	0.457177	0.489241
C84	C	0.957261	0.553326	0.393097
C85	C	1.533498	0.553277	0.393145
C86	C	1.630752	0.457129	0.489305
C87	C	1.511631	0.457150	0.607049
C88	C	1.414380	0.553303	0.510890
H89	H	0.908785	0.592451	0.106905
C90	C	0.651220	0.873588	0.227192
H91	H	0.607888	0.917428	0.258738
H92	H	0.673095	0.786652	0.271210
H93	H	0.717282	0.873437	0.226331
H94	H	1.326302	0.592430	-0.106744
C95	C	1.141908	0.757923	-0.477218
H96	H	1.133374	0.774782	-0.549797
H97	H	1.220258	0.709532	-0.437261
H98	H	1.112488	0.709546	-0.437272
C99	C	1.141893	0.404261	0.724668
H100	H	1.177377	0.446646	0.717337
H101	H	1.090493	0.420025	0.764623
H102	H	1.198250	0.313476	0.764622
C103	C	1.141886	0.404255	-0.123553
H104	H	1.133371	0.340092	-0.115106
H105	H	1.112479	0.473273	-0.201018
H106	H	1.220240	0.366740	-0.094464
H107	H	1.124892	0.592422	0.519690
H108	H	1.326289	0.592455	0.519687
C109	C	0.382401	1.136987	-0.227131
H110	H	0.359371	1.224385	-0.270742
H111	H	0.426179	1.094145	-0.259195
H112	H	0.317025	1.135780	-0.226180
C113	C	1.749746	0.404236	0.477428
H114	H	1.742326	0.446624	0.399959
H115	H	1.790163	0.419995	0.512487
H116	H	1.790156	0.313452	0.512495
C117	C	0.891766	0.404280	0.123726
H118	H	0.900282	0.340140	0.115287
H119	H	0.921175	0.366770	0.201187
H120	H	0.813412	0.473321	0.094636
H121	H	1.502740	0.418008	0.694138
C122	C	0.382483	1.136974	0.095505
H123	H	0.375769	1.078477	0.160226
H124	H	0.418127	1.167077	0.116149
H125	H	0.308951	1.208705	0.041531
H126	H	0.908757	0.418040	0.480445
H127	H	1.718837	0.418007	0.106909
H128	H	0.908753	1.218887	-0.519549
H129	H	1.502738	0.418005	-0.106736
C130	C	0.891760	1.252515	-0.724530
H131	H	0.856275	1.322650	-0.717197
H132	H	0.943161	1.257415	-0.764484
H133	H	0.835404	1.257402	-0.764486
C134	C	1.545504	0.606190	0.123734
H135	H	1.623860	0.563783	0.158814
H136	H	1.510035	0.696968	0.072911
H137	H	1.510041	0.590421	0.179453
H138	H	0.460100	1.232261	-0.113522
H139	H	0.632225	0.891811	-0.082348
H140	H	1.542409	0.592405	0.306064
C141	C	1.141896	0.757930	-0.275306
H142	H	1.177363	0.687790	-0.282632
H143	H	1.198246	0.753038	-0.235346
H144	H	1.090480	0.753043	-0.235360
C145	C	1.141878	0.606184	-0.123578
H146	H	1.133345	0.670343	-0.115159
H147	H	1.220227	0.537155	-0.094499
H148	H	1.112457	0.643699	-0.201044
C149	C	0.582793	0.741553	0.131812
H150	H	0.626102	0.698069	0.100004
H151	H	0.627212	0.697546	0.206807
H152	H	0.516427	0.742299	0.131944
H153	H	0.908759	0.592477	0.306002
