data_functionalizedCrystal
_audit_creation_method	'MofGen! by Chris Wilmer'
_symmetry_space_group_name_H-M	'P1'
_symmetry_Int_Tables_number	1
_symmetry_cell_setting	triclinic
loop_
_symmetry_equiv_pos_as_xyz
  x,y,z
_cell_length_a	19.902436
_cell_length_b	14.560438
_cell_length_c	19.902436
_cell_angle_alpha	60.006729
_cell_angle_beta	90.004623
_cell_angle_gamma	59.996626
loop_
_atom_site_label
_atom_site_type_symbol
_atom_site_fract_x
_atom_site_fract_y
_atom_site_fract_z
Zr1	Zr	0.647322	1.005156	-0.088103
O2	O	0.540030	1.196757	-0.195389
O3	O	0.680213	0.813556	-0.055216
O4	O	0.680213	1.005134	-0.195380
O5	O	0.540030	1.005197	0.055341
O6	O	0.790792	1.005116	-0.195371
O7	O	0.540030	1.005179	-0.055225
O8	O	0.790791	0.662418	0.055356
O9	O	0.540030	1.347895	-0.195387
O10	O	0.776764	0.892350	-0.041182
O11	O	0.694240	0.892377	0.041326
O12	O	0.694241	1.117936	-0.123699
O13	O	0.611717	1.117962	-0.041192
Zr14	Zr	0.823682	1.005156	0.088251
Zr15	Zr	0.823682	1.005128	-0.088089
Zr16	Zr	0.647322	1.005185	0.088236
Zr17	Zr	0.647322	1.246204	-0.088100
Zr18	Zr	0.823682	0.764109	0.088247
O19	O	0.790792	1.196757	0.055364
O20	O	0.790792	1.196717	-0.195369
O21	O	0.540030	1.196797	0.055343
O22	O	0.930974	0.813556	0.195536
O23	O	0.930974	0.813515	-0.055196
O24	O	0.680212	0.813596	0.195516
O25	O	0.930975	1.005116	-0.055193
O26	O	0.790791	1.005179	0.195527
O27	O	0.680213	1.005197	0.195518
O28	O	0.930975	1.005134	0.055372
O29	O	0.680213	1.347872	-0.195376
O30	O	0.790791	0.662440	0.195523
O31	O	0.930974	0.662418	0.195534
O32	O	0.930974	0.662395	0.055368
O33	O	0.540030	1.347918	-0.055221
O34	O	0.680213	1.347895	-0.055209
O35	O	0.776764	0.892377	0.123846
O36	O	0.859288	0.892350	0.041339
O37	O	0.776764	1.117936	-0.041179
O38	O	0.694240	1.117962	0.041329
C39	C	0.735502	0.703643	0.000069
C40	C	0.735502	0.601311	0.000068
C41	C	0.778576	0.553222	-0.043000
C42	C	0.778580	0.457062	-0.042992
C43	C	0.692427	0.457095	0.043153
C44	C	0.692429	0.553246	0.043149
C45	C	0.514902	1.005192	0.000056
C46	C	0.440033	1.005204	0.000050
C47	C	0.168031	1.005140	0.000081
C48	C	0.144464	1.147444	-0.051723
C49	C	0.222302	1.147533	-0.052010
C50	C	0.302974	1.005173	0.000066
C51	C	0.300562	0.934492	-0.037893
C52	C	0.222335	0.935401	-0.038276
C53	C	0.223322	0.932499	0.089868
C54	C	0.300243	0.935174	0.089730
C55	C	0.379240	1.005183	0.000057
C56	C	0.091765	1.005125	0.000087
C57	C	0.956102	1.005121	0.000091
C58	C	1.030972	1.005109	0.000098
C59	C	0.735502	1.005121	-0.220500
C60	C	0.735502	1.005109	-0.295361
C61	C	0.735503	1.306670	0.000078
C62	C	0.735503	1.409001	0.000079
C63	C	0.735502	1.005173	-0.567410
C64	C	0.787807	0.862869	-0.486866
C65	C	0.787581	0.862780	-0.408963
C66	C	0.735503	1.005140	-0.432443
C67	C	0.645834	1.075821	-0.486569
C68	C	0.646121	1.074911	-0.564131
C69	C	0.772142	1.077814	-0.565260
C70	C	0.773956	1.075139	-0.486382
C71	C	0.735498	1.005129	-0.356168
C72	C	0.735500	1.005188	-0.643686
C73	C	0.735502	1.005192	0.220648
C74	C	0.735502	1.005204	0.295508
C75	C	0.956102	0.703607	0.000087
C76	C	1.030971	0.601264	0.000092
C77	C	0.735502	0.703678	0.220643
C78	C	0.735501	0.601359	0.295503
C79	C	0.956102	0.703643	0.220661
C80	C	1.030971	0.601311	0.295527
C81	C	0.514903	1.306670	-0.220514
C82	C	0.440033	1.409001	-0.295380
C83	C	0.514903	1.306706	0.000060
C84	C	0.440033	1.409049	0.000055
C85	C	0.735503	1.306635	-0.220496
C86	C	0.735503	1.408954	-0.295356
C87	C	1.023054	0.553202	-0.042988
C88	C	1.093395	0.457054	-0.043000
C89	C	1.171653	0.408961	0.000073
C90	C	1.179568	0.457032	0.043155
C91	C	1.109228	0.553186	0.043161
C92	C	0.778578	0.553309	0.373740
C93	C	0.778575	0.457183	0.444085
C94	C	0.735499	0.409102	0.436191
C95	C	0.692417	0.457162	0.357946
C96	C	0.692416	0.553293	0.287603
C97	C	1.109214	0.553242	0.287616
C98	C	1.179569	0.457104	0.357954
C99	C	1.171678	0.409032	0.436201
C100	C	1.093427	0.457111	0.444109
C101	C	1.023074	0.553253	0.373773
C102	C	0.361790	1.457082	-0.287469
C103	C	0.291435	1.553250	-0.357807
C104	C	0.299326	1.601328	-0.436054
C105	C	0.377578	1.553242	-0.443962
C106	C	0.447930	1.457083	-0.373626
C107	C	0.447950	1.457120	0.043128
C108	C	0.377609	1.553296	0.043121
C109	C	0.299352	1.601391	0.000045
C110	C	0.291436	1.553316	-0.043033
C111	C	0.361777	1.457149	-0.043030
C112	C	0.778587	1.457004	-0.287436
C113	C	0.778603	1.553131	-0.357767
C114	C	0.735530	1.601212	-0.436018
C115	C	0.692445	1.553152	-0.443937
C116	C	0.692434	1.457020	-0.373606
H117	H	0.221023	1.203270	-0.026747
H118	H	0.813655	0.592446	0.380183
H119	H	0.813650	0.592352	-0.078078
F120	F	0.646569	1.405901	-0.382048
F121	F	0.722583	1.214835	-0.639465
H122	H	0.735545	1.679489	-0.493279
H123	H	1.115655	0.592369	0.223910
F124	F	0.374820	0.797675	0.009052
F125	F	0.385963	1.604421	-0.527245
F126	F	0.386050	1.604440	0.088975
F127	F	0.224496	1.703741	0.000050
H128	H	0.605028	1.179318	-0.621169
F129	F	0.646570	0.604415	0.204339
H130	H	0.813660	0.418064	0.507789
H131	H	0.105297	1.203305	-0.026392
H132	H	0.605170	1.180494	-0.506336
H133	H	0.227710	1.592490	-0.078105
F134	F	0.531201	1.405914	-0.382057
H135	H	1.243279	0.417968	0.351500
F136	F	1.246562	0.306706	0.511053
F137	F	0.353338	1.405991	-0.088872
H138	H	0.840021	1.023592	-0.449056
F139	F	0.208162	1.604405	-0.349372
F140	F	0.824434	1.405849	-0.204161
F141	F	1.085042	0.405935	0.527392
F142	F	0.824458	1.604268	-0.349322
H143	H	0.739821	1.178996	-0.504904
F144	F	0.939803	0.604396	0.382204
H145	H	0.511665	1.417968	0.078211
H146	H	1.228921	0.330666	0.000062
H147	H	0.959339	0.592358	-0.078074
F148	F	0.824424	0.405888	-0.088833
H149	H	0.242034	1.679626	-0.493319
H150	H	0.657357	0.417950	0.078227
F151	F	0.735508	0.306789	0.511065
F152	F	0.175858	0.992019	0.131318
F153	F	0.646601	1.604345	-0.527224
H154	H	1.086934	0.417926	-0.078082
H155	H	0.657351	0.592400	0.078224
H156	H	0.355349	1.417943	-0.223763
F157	F	1.262862	0.405832	0.088996
F158	F	0.375336	0.799407	0.144424
F159	F	0.092299	1.220082	-0.137773
H160	H	0.220527	1.203307	-0.118241
H161	H	0.185792	0.985614	-0.104347
H162	H	0.616294	1.026748	-0.449118
F163	F	0.302588	0.998632	-0.123431
H164	H	1.115685	0.592305	0.078247
H165	H	0.657347	0.418000	0.351531
H166	H	0.241682	0.830995	-0.002984
H167	H	0.299866	0.986710	0.118087
F168	F	0.873886	0.790286	-0.357459
H169	H	0.243239	0.827671	0.128649
F170	F	0.874335	0.789842	-0.484641
H171	H	0.837175	1.032262	-0.568242
H172	H	0.762169	0.806984	-0.369926
F173	F	0.607782	1.009278	-0.563882
F174	F	0.754896	0.790235	-0.485887
