data_functionalizedCrystal
_audit_creation_method	'MofGen! by Chris Wilmer'
_symmetry_space_group_name_H-M	'P1'
_symmetry_Int_Tables_number	1
_symmetry_cell_setting	triclinic
loop_
_symmetry_equiv_pos_as_xyz
  x,y,z
_cell_length_a	10.654550
_cell_length_b	13.339070
_cell_length_c	9.130313
_cell_angle_alpha	89.997998
_cell_angle_beta	89.999724
_cell_angle_gamma	100.057112
loop_
_atom_site_label
_atom_site_type_symbol
_atom_site_fract_x
_atom_site_fract_y
_atom_site_fract_z
O1	O	1.715933	0.142435	-0.121681
O2	O	1.355037	0.156005	-0.121708
O3	O	1.494066	0.001665	-0.121693
O4	O	1.576904	0.296774	-0.121696
O5	O	1.494051	0.001661	0.121906
O6	O	1.355022	0.156000	0.121891
O7	O	1.715918	0.142430	0.121917
Cu8	Cu	1.535469	0.149215	0.144147
Cu9	Cu	1.535486	0.149220	-0.143937
O10	O	1.576889	0.296769	0.121903
C11	C	1.307895	0.155006	0.000088
C12	C	1.167445	0.152025	0.000078
C13	C	1.118643	0.242897	0.000082
C14	C	0.986674	0.240090	0.000107
C15	C	0.952320	0.055530	0.000120
C16	C	1.084286	0.058338	0.000105
C17	C	1.480065	-0.036124	0.000103
C18	C	1.438355	-0.148719	0.000094
C19	C	1.762670	-0.511236	0.000119
C20	C	1.801862	-0.405448	0.000135
C21	C	1.710989	-0.341261	0.000124
C22	C	1.580916	-0.382871	0.000098
C23	C	1.541720	-0.488669	0.000093
C24	C	1.490039	-0.318694	0.000099
C25	C	1.359966	-0.360304	0.000073
C26	C	1.320776	-0.466092	0.000066
C27	C	1.411650	-0.530280	0.000077
C28	C	1.529235	-0.212896	0.000104
C29	C	1.308285	-0.190329	0.000078
C30	C	1.269093	-0.296117	0.000062
C31	C	1.763060	0.143429	0.000118
C32	C	1.903510	0.146410	0.000119
C33	C	1.590890	0.334559	0.000103
C34	C	1.632600	0.447153	0.000103
N35	N	1.535465	0.149210	0.346770
N36	N	1.535497	0.149216	-0.346560
C37	C	1.597066	0.080898	0.423428
C38	C	1.597078	0.080898	0.576765
C39	C	1.473888	0.217532	0.576771
C40	C	1.473869	0.217526	0.423437
H41	H	1.124020	-0.015666	0.000106
F42	F	1.211564	-0.122021	0.000076
F43	F	1.662619	0.008187	0.341838
F44	F	1.940289	-0.361171	0.000139
H45	H	0.946947	0.314088	0.000113
H46	H	0.884597	-0.020746	0.000150
H47	H	1.836644	-0.563506	0.000139
F48	F	1.369943	-0.642874	-0.000079
H49	H	1.635141	-0.179028	0.000126
H50	H	1.186348	0.319183	0.000071
H51	H	1.647237	0.025271	0.639175
H52	H	1.742907	-0.255124	0.000138
H53	H	1.423740	0.273155	0.639210
F54	F	1.408296	0.290233	0.341846
F55	F	1.182341	-0.510374	0.000057
H56	H	1.163185	-0.330011	0.000041
