data_functionalizedCrystal
_audit_creation_method	'MofGen! by Chris Wilmer'
_symmetry_space_group_name_H-M	'P1'
_symmetry_Int_Tables_number	1
_symmetry_cell_setting	triclinic
loop_
_symmetry_equiv_pos_as_xyz
  x,y,z
_cell_length_a	16.109302
_cell_length_b	12.784890
_cell_length_c	14.586319
_cell_angle_alpha	89.996491
_cell_angle_beta	89.994552
_cell_angle_gamma	78.284169
loop_
_atom_site_label
_atom_site_type_symbol
_atom_site_fract_x
_atom_site_fract_y
_atom_site_fract_z
O1	O	1.093281	0.136628	-0.076280
O2	O	0.849994	0.153630	-0.076273
O3	O	0.989442	-0.009605	-0.076272
O4	O	0.953834	0.299863	-0.076280
O5	O	0.989433	-0.009607	0.076209
O6	O	0.849985	0.153628	0.076208
O7	O	1.093273	0.136626	0.076201
Cu8	Cu	0.971628	0.145127	0.090127
Cu9	Cu	0.971638	0.145130	-0.090199
O10	O	0.953825	0.299861	0.076200
C11	C	0.819064	0.152940	-0.000031
C12	C	0.726918	0.150875	-0.000028
C13	C	0.514916	0.146098	0.083080
C14	C	0.428337	0.144147	0.083077
C15	C	0.428357	0.144155	-0.083166
C16	C	0.514936	0.146099	-0.083162
C17	C	0.558212	0.147076	-0.000036
C18	C	0.385054	0.143180	-0.000044
C19	C	0.291181	0.141064	-0.000048
C20	C	0.652092	0.149191	-0.000032
C21	C	0.991753	-0.049206	-0.000033
C22	C	0.998644	-0.167203	-0.000035
C23	C	1.085005	-0.346209	-0.000039
C24	C	1.078536	-0.235341	-0.000037
C25	C	0.925216	-0.209938	-0.000032
C26	C	0.931685	-0.320805	-0.000034
C27	C	1.011582	-0.388937	-0.000039
C28	C	1.018051	-0.499806	-0.000048
C29	C	0.864731	-0.474401	-0.000036
C30	C	0.858262	-0.363533	-0.000034
C31	C	1.124202	0.137316	-0.000043
C32	C	1.216349	0.139381	-0.000051
C33	C	0.951513	0.339462	-0.000041
C34	C	0.944622	0.457459	-0.000045
N35	N	0.971627	0.145124	0.216959
N36	N	0.971647	0.145124	-0.217031
C37	C	1.033391	0.072868	0.451966
C38	C	1.033394	0.072865	0.547947
C39	C	0.909876	0.217383	0.547956
C40	C	0.909870	0.217380	0.451976
C41	C	0.971633	0.145124	0.403984
C42	C	0.971641	0.145124	0.595944
C43	C	0.971643	0.145122	0.700012
C44	C	0.971630	0.145124	0.299910
H45	H	1.083107	-0.555278	-0.000057
H46	H	0.859591	0.276215	0.587041
O47	O	0.386178	0.143259	-0.163828
C48	C	0.252817	0.140210	-0.237513
C49	C	0.300475	0.141243	-0.146096
H50	H	0.183522	0.138557	-0.223208
H51	H	0.256797	0.214953	-0.278513
H52	H	0.282875	0.066271	-0.278502
H53	H	0.270451	0.215132	-0.105033
H54	H	0.296500	0.066451	-0.105166
H55	H	0.550189	0.146892	-0.150849
O56	O	1.162678	-0.412246	-0.000011
C57	C	1.314068	-0.425747	-0.000091
C58	C	1.226156	-0.350840	-0.000099
H59	H	1.365414	-0.376131	-0.000182
H60	H	1.320989	-0.478275	0.063734
H61	H	1.320879	-0.478300	-0.063892
H62	H	1.219285	-0.298220	0.063658
H63	H	1.219274	-0.298384	-0.063967
H64	H	1.138324	-0.200557	-0.000035
H65	H	0.860168	-0.154446	-0.000022
H66	H	1.083681	0.014031	0.412892
O67	O	0.386399	0.143251	0.163898
C68	C	0.395533	0.143389	0.328788
C69	C	0.443125	0.144433	0.237321
H70	H	0.441378	0.144322	0.388174
H71	H	0.342030	0.216836	0.333005
H72	H	0.367960	0.068151	0.332895
H73	H	0.470750	0.219622	0.233153
H74	H	0.496583	0.070936	0.233143
O75	O	1.093281	0.002573	0.594597
C76	C	1.121484	-0.142546	0.703004
C77	C	1.053574	-0.063013	0.650215
H78	H	1.089405	-0.195578	0.747999
H79	H	1.165617	-0.194265	0.652254
H80	H	1.159709	-0.096617	0.747890
H81	H	1.015287	-0.108856	0.605328
H82	H	1.009499	-0.011295	0.701015
H83	H	0.859575	0.276220	0.412907
H84	H	0.804945	-0.509201	-0.000039
O85	O	0.557074	0.146896	0.163766
C86	C	0.670855	0.057015	0.260272
C87	C	0.623201	0.055997	0.168852
H88	H	0.724316	-0.016480	0.264422
H89	H	0.698468	0.132217	0.264449
H90	H	0.625010	0.056029	0.319661
H91	H	0.668992	0.056944	0.109411
H92	H	0.595573	-0.019199	0.164755
H93	H	0.793212	-0.308046	-0.000027
