data_functionalizedCrystal
_audit_creation_method	'MofGen! by Chris Wilmer'
_symmetry_space_group_name_H-M	'P1'
_symmetry_Int_Tables_number	1
_symmetry_cell_setting	triclinic
loop_
_symmetry_equiv_pos_as_xyz
  x,y,z
_cell_length_a	14.853569
_cell_length_b	13.262315
_cell_length_c	11.804610
_cell_angle_alpha	61.231930
_cell_angle_beta	76.732100
_cell_angle_gamma	84.050037
loop_
_atom_site_label
_atom_site_type_symbol
_atom_site_fract_x
_atom_site_fract_y
_atom_site_fract_z
O1	O	1.187144	0.125905	0.058184
O2	O	0.925654	0.143303	0.052562
O3	O	1.054315	-0.028277	0.108127
O4	O	1.058483	0.297485	0.002618
O5	O	1.089079	0.012137	-0.103010
O6	O	0.960418	0.183718	-0.158576
O7	O	1.221908	0.166319	-0.152954
Cu8	Cu	1.094337	0.178708	-0.175043
Cu9	Cu	1.053225	0.130914	0.074652
O10	O	1.093247	0.337900	-0.208519
C11	C	0.909403	0.162721	-0.052749
C12	C	0.809187	0.160356	-0.051978
C13	C	0.767056	0.057323	-0.018603
C14	C	0.757151	0.261170	-0.084639
C15	C	0.662993	0.258953	-0.083922
C16	C	0.620863	0.155920	-0.050547
C17	C	0.672891	0.055104	-0.017889
C18	C	0.610961	0.359770	-0.116593
C19	C	0.516797	0.357557	-0.115879
C20	C	0.474664	0.254521	-0.082494
C21	C	0.526697	0.153700	-0.049833
C22	C	0.484567	0.050667	-0.016458
C23	C	0.536598	-0.050157	0.016212
C24	C	0.630758	-0.047933	0.015495
C25	C	0.380504	0.252297	-0.081778
C26	C	0.390402	0.048447	-0.015744
C27	C	1.068734	-0.049761	0.016064
C28	C	1.059893	-0.173985	0.056306
C29	C	1.238159	0.146900	-0.047640
C30	C	1.338374	0.149264	-0.048403
C31	C	1.078828	0.359382	-0.116453
C32	C	1.087668	0.483606	-0.156687
C33	C	1.036785	0.745623	0.190303
C34	C	1.028470	0.628911	0.228101
C35	C	1.043269	0.592579	0.131908
C36	C	1.066384	0.672970	-0.002091
C37	C	1.074693	0.789694	-0.039894
C38	C	1.081177	0.636650	-0.098289
C39	C	1.104292	0.717041	-0.232288
C40	C	1.112600	0.833754	-0.270084
C41	C	1.097801	0.870086	-0.173891
C42	C	1.072868	0.519926	-0.060487
C43	C	1.110776	0.563997	-0.290684
C44	C	1.119091	0.680709	-0.328482
N45	N	1.123260	0.212324	-0.350665
C46	C	1.192748	0.293030	-0.439135
C47	C	1.214654	0.318441	-0.572022
C48	C	1.167069	0.263156	-0.616455
C49	C	1.097576	0.182454	-0.527986
C50	C	1.075672	0.157034	-0.395084
C51	C	1.049994	0.127159	-0.572403
C52	C	0.980500	0.046458	-0.483934
C53	C	0.958600	0.021042	-0.351046
C54	C	1.006184	0.076328	-0.306614
C55	C	1.071897	0.152580	-0.705305
C56	C	0.954821	0.016583	-0.661254
C57	C	0.932915	-0.008828	-0.528367
N58	N	1.024309	0.097289	0.250276
H59	H	0.356105	-0.035457	0.011441
Br60	Br	0.479413	-0.189979	0.061487
Br61	Br	0.864281	-0.088474	-0.230985
H62	H	1.128479	0.218288	-0.777325
Br63	Br	1.016726	0.794933	0.320837
H64	H	1.054045	0.454482	0.048616
H65	H	1.104574	0.965120	-0.204659
H66	H	1.131418	0.899208	-0.379195
H67	H	0.673129	-0.130017	0.042091
H68	H	1.137911	0.746180	-0.437586
H69	H	0.876332	-0.074537	-0.456317
H70	H	1.036496	0.497546	0.162692
Br71	Br	0.890244	-0.058463	-0.721539
Br72	Br	1.257330	0.368037	-0.378823
Br73	Br	0.814329	0.400995	-0.129937
H74	H	0.809423	-0.024766	0.008001
H75	H	1.009652	0.563464	0.337203
Br76	Br	1.196798	0.297646	-0.796805
Br77	Br	1.308963	0.427960	-0.692077
H78	H	0.645272	0.443656	-0.143773
Br79	Br	0.976454	0.041846	-0.126261
H80	H	0.474442	0.439653	-0.142479
Br81	Br	1.130856	0.514701	-0.421242
Br82	Br	0.309899	0.389120	-0.126133
