data_functionalizedCrystal
_audit_creation_method	'MofGen! by Chris Wilmer'
_symmetry_space_group_name_H-M	'P1'
_symmetry_Int_Tables_number	1
_symmetry_cell_setting	triclinic
loop_
_symmetry_equiv_pos_as_xyz
  x,y,z
_cell_length_a	18.215407
_cell_length_b	13.032721
_cell_length_c	13.032268
_cell_angle_alpha	103.289627
_cell_angle_beta	97.164932
_cell_angle_gamma	97.201717
loop_
_atom_site_label
_atom_site_type_symbol
_atom_site_fract_x
_atom_site_fract_y
_atom_site_fract_z
Zn1	Zn	1.021915	-0.499143	-0.654168
Zn2	Zn	1.521915	0.000857	-0.154168
Zn3	Zn	1.021834	-0.654228	-0.499116
Zn4	Zn	1.521834	-0.154228	0.000884
Zn5	Zn	0.916750	-0.476632	-0.476591
Zn6	Zn	1.416750	0.023368	0.023409
Zn7	Zn	0.880928	-0.676693	-0.676662
Zn8	Zn	1.380928	-0.176693	-0.176662
O9	O	0.960357	-0.576674	-0.576634
O10	O	1.460357	-0.076674	-0.076634
O11	O	1.124885	-0.519735	-0.633612
O12	O	1.624885	-0.019735	-0.133612
O13	O	1.022852	-0.611846	-0.347507
O14	O	1.522852	-0.111846	0.152493
O15	O	0.945725	-0.330988	-0.481306
O16	O	1.445725	0.169012	0.018694
O17	O	1.124826	-0.633675	-0.519696
O18	O	1.624826	-0.133675	-0.019696
O19	O	1.022989	-0.347528	-0.611771
O20	O	1.522989	0.152472	-0.111771
O21	O	0.945647	-0.481367	-0.330959
O22	O	1.445647	0.018633	0.169041
O23	O	0.809017	-0.503151	-0.503118
O24	O	1.309017	-0.003151	-0.003118
O25	O	0.884673	-0.671964	-0.822299
O26	O	1.384673	-0.171964	-0.322299
O27	O	0.782699	-0.650135	-0.650110
O28	O	1.282699	-0.150135	-0.150110
O29	O	0.988255	-0.541519	-0.805772
O30	O	1.488255	-0.041519	-0.305772
O31	O	0.988118	-0.805837	-0.541508
O32	O	1.488118	-0.305837	-0.041508
O33	O	0.884595	-0.822342	-0.671951
O34	O	1.384595	-0.322342	-0.171951
C35	C	0.769156	-0.576639	-0.576611
C36	C	1.269156	-0.076639	-0.076611
C37	C	0.687354	-0.576653	-0.576630
C38	C	1.187354	-0.076653	-0.076630
C39	C	0.499165	-0.517478	-0.636071
C40	C	0.999165	-0.017478	-0.136071
C41	C	0.422305	-0.517487	-0.636076
C42	C	0.922305	-0.017487	-0.136076
C43	C	0.422296	-0.635902	-0.517219
C44	C	0.922296	-0.135902	-0.017219
C45	C	0.499156	-0.635886	-0.517209
C46	C	0.999156	-0.135886	-0.017209
C47	C	0.537587	-0.576676	-0.576642
C48	C	1.037587	-0.076676	-0.076642
C49	C	0.383868	-0.576702	-0.576656
C50	C	0.883868	-0.076702	-0.076656
C51	C	0.300532	-0.576713	-0.576661
C52	C	0.800532	-0.076713	-0.076661
C53	C	0.620928	-0.576663	-0.576636
C54	C	1.120928	-0.076663	-0.076636
C55	C	0.932478	-0.852631	-0.611638
C56	C	1.432478	-0.352631	-0.111638
C57	C	0.920615	-0.970691	-0.626648
C58	C	1.420615	-0.470691	-0.126648
C59	C	0.966582	-1.015131	-0.568848
C60	C	1.466582	-0.515131	-0.068848
C61	C	0.954323	-1.137152	-0.584360
C62	C	1.454323	-0.637152	-0.084360
C63	C	1.152304	-0.576710	-0.576658
C64	C	1.652304	-0.076710	-0.076658
C65	C	1.234101	-0.576725	-0.576668
C66	C	1.734101	-0.076725	-0.076668
C67	C	0.932477	-0.611758	-0.853649
C68	C	1.432477	-0.111758	-0.353649
C69	C	0.920596	-0.626709	-0.971696
C70	C	1.420596	-0.126709	-0.471696
C71	C	0.988362	-0.299642	-0.541517
C72	C	1.488362	0.200358	-0.041517
C73	C	1.000296	-0.181588	-0.526552
C74	C	1.500296	0.318412	-0.026552
C75	C	0.966550	-0.568833	-1.016148
C76	C	1.466550	-0.068833	-0.516148
C77	C	0.954272	-0.584284	-1.138155
C78	C	1.454272	-0.084284	-0.638155
C79	C	0.988178	-0.541650	-0.300688
C80	C	1.488178	-0.041650	0.199312
C81	C	1.000231	-0.526400	-0.182603
C82	C	1.500231	-0.026400	0.317397
H83	H	0.530441	-0.684093	-0.468809
H84	H	1.030441	-0.184093	0.031191
Cl85	Cl	1.041362	-0.934410	-0.474720
Cl86	Cl	1.541362	-0.434410	0.025280
Cl87	Cl	1.041313	-0.474641	-0.935454
Cl88	Cl	1.541313	0.025359	-0.435454
Cl89	Cl	0.547477	-0.443037	-0.710780
Cl90	Cl	1.047477	0.056963	-0.210780
Cl91	Cl	0.374006	-0.443062	-0.710790
Cl92	Cl	0.874006	0.056938	-0.210790
Cl93	Cl	0.879547	-1.217871	-0.678506
Cl94	Cl	1.379547	-0.717871	-0.178506
Cl95	Cl	0.879486	-0.678447	-1.218841
Cl96	Cl	1.379486	-0.178447	-0.718841
Cl97	Cl	1.075023	-0.432244	-1.101921
Cl98	Cl	1.575023	0.067756	-0.601921
H99	H	1.048732	-1.129304	-0.465583
H100	H	1.548732	-0.629304	0.034417
H101	H	0.390995	-0.684110	-0.468833
H102	H	0.890995	-0.184110	0.031167
H103	H	0.872188	-1.022980	-0.687622
H104	H	1.372188	-0.522980	-0.187622
H105	H	0.872160	-0.687690	-1.023963
H106	H	1.372160	-0.187690	-0.523963
