data_functionalizedCrystal
_audit_creation_method	'MofGen! by Chris Wilmer'
_symmetry_space_group_name_H-M	'P1'
_symmetry_Int_Tables_number	1
_symmetry_cell_setting	triclinic
loop_
_symmetry_equiv_pos_as_xyz
  x,y,z
_cell_length_a	16.992694
_cell_length_b	10.540539
_cell_length_c	15.455313
_cell_angle_alpha	92.694186
_cell_angle_beta	87.142206
_cell_angle_gamma	87.596857
loop_
_atom_site_label
_atom_site_type_symbol
_atom_site_fract_x
_atom_site_fract_y
_atom_site_fract_z
O1	O	1.045302	0.264111	-0.072015
O2	O	0.817001	0.261155	-0.072041
O3	O	0.936360	0.078379	-0.072026
O4	O	0.925943	0.446887	-0.072030
O5	O	0.929534	0.088785	0.072235
O6	O	0.810175	0.271561	0.072220
O7	O	1.038476	0.274517	0.072246
Cu8	Cu	0.923702	0.273989	0.085405
Cu9	Cu	0.931774	0.261683	-0.085200
O10	O	0.919117	0.457293	0.072232
C11	C	0.784354	0.262557	0.000086
C12	C	0.697247	0.251216	0.000077
C13	C	0.647619	0.360636	0.000076
C14	C	0.565773	0.349973	0.000088
C15	C	0.533555	0.229889	0.000094
C16	C	0.583189	0.120461	0.000097
C17	C	0.665034	0.131125	0.000092
C18	C	0.289709	0.185692	0.000118
C19	C	0.207858	0.175036	0.000121
C20	C	0.190446	0.404549	0.000114
C21	C	0.272294	0.415202	0.000103
C22	C	0.321921	0.305774	0.000110
N23	N	0.449895	0.218988	0.000104
N24	N	0.405579	0.316677	0.000107
C25	C	0.932166	0.036211	0.000103
C26	C	0.929829	-0.104941	0.000098
C27	C	0.840284	-0.296163	-0.000236
C28	C	0.842638	-0.149316	0.000089
C29	C	0.967891	-0.157014	0.082483
C30	C	0.964912	-0.303812	0.082552
C31	C	0.974447	-0.316010	-0.081500
C32	C	0.975302	-0.169037	-0.082589
C33	C	1.071122	0.273115	0.000117
C34	C	1.158230	0.284456	0.000121
C35	C	0.923311	0.499461	0.000101
C36	C	0.925648	0.640612	0.000100
N37	N	0.918030	0.282645	0.205400
N38	N	0.937452	0.253018	-0.205195
C39	C	0.968756	0.205027	0.250801
C40	C	0.964474	0.211585	0.341608
C41	C	0.909469	0.295768	0.387013
C42	C	0.858738	0.373389	0.341607
C43	C	0.863017	0.366823	0.250801
C44	C	0.891000	0.324073	0.658593
C45	C	0.886727	0.330635	0.749405
C46	C	0.992462	0.168829	0.749400
C47	C	0.996739	0.162277	0.658592
C48	C	0.946005	0.239893	0.613193
N49	N	0.905093	0.302477	0.479833
N50	N	0.950379	0.233177	0.520375
H51	H	0.812416	-0.113837	-0.058968
C52	C	1.048259	0.083447	0.799345
N53	N	1.090285	0.019129	0.836965
C54	C	0.797523	-0.344609	-0.080045
N55	N	0.765313	-0.381111	-0.140157
C56	C	0.135851	0.524912	0.000116
N57	N	0.094728	0.615574	0.000123
H58	H	0.947484	-0.135239	-0.143535
C59	C	0.511184	0.470346	0.000103
N60	N	0.470068	0.561017	0.000121
C61	C	0.919073	-0.339546	0.165735
N62	N	0.884544	-0.366453	0.228389
C63	C	1.049384	-0.360902	0.087624
N64	N	1.113007	-0.403896	0.091450
H65	H	0.813948	0.441928	0.378581
H66	H	0.705441	0.042024	0.000091
C67	C	1.029266	0.112418	0.200863
N68	N	1.074841	0.042657	0.163252
H69	H	0.821710	0.430026	0.213837
H70	H	1.037451	-0.357811	-0.082047
C71	C	0.683050	0.492738	0.000071
N72	N	0.709734	0.592242	0.000071
C73	C	0.826212	0.423243	0.799349
N74	N	0.780636	0.492993	0.836967
C75	C	0.835293	0.409629	0.608666
N76	N	0.793369	0.474136	0.571058
C77	C	1.020258	0.126167	0.391544
N78	N	1.062270	0.061813	0.429155
C79	C	0.790195	-0.335226	0.079139
N80	N	0.752473	-0.364637	0.138932
H81	H	0.298519	0.512986	0.000088
C82	C	1.057245	0.069662	0.608653
N83	N	1.102818	-0.000096	0.571039
C84	C	0.793943	-0.091033	0.079998
N85	N	0.757265	-0.047136	0.140190
H86	H	0.181630	0.077244	0.000125
C87	C	0.547747	-0.011633	0.000106
N88	N	0.521054	-0.111129	0.000109
C89	C	0.344288	0.065316	0.000121
N90	N	0.385400	-0.025357	0.000121
H91	H	1.031777	-0.128883	0.085553
H92	H	0.935843	-0.112522	0.143784
H93	H	1.039106	-0.139658	-0.087557
C94	C	0.940313	-0.368023	-0.165857
N95	N	0.914593	-0.407198	-0.229391
