data_functionalizedCrystal
_audit_creation_method	'MofGen! by Chris Wilmer'
_symmetry_space_group_name_H-M	'P1'
_symmetry_Int_Tables_number	1
_symmetry_cell_setting	triclinic
loop_
_symmetry_equiv_pos_as_xyz
  x,y,z
_cell_length_a	14.044220
_cell_length_b	14.044220
_cell_length_c	10.065875
_cell_angle_alpha	99.592716
_cell_angle_beta	80.449472
_cell_angle_gamma	93.188878
loop_
_atom_site_label
_atom_site_type_symbol
_atom_site_fract_x
_atom_site_fract_y
_atom_site_fract_z
O1	O	1.289934	0.217331	-0.113352
O2	O	1.013266	0.209022	-0.113386
O3	O	1.147446	0.074842	-0.113356
O4	O	1.155755	0.351511	-0.113382
O5	O	1.121869	0.100541	0.113627
O6	O	0.987690	0.234720	0.113597
O7	O	1.264357	0.243030	0.113631
Zn8	Zn	1.121963	0.242955	0.149653
Zn9	Zn	1.155661	0.209096	-0.149407
O10	O	1.130178	0.377209	0.113601
C11	C	0.964857	0.218235	0.000101
C12	C	0.858715	0.207389	0.000088
C13	C	1.131022	0.052070	0.000136
C14	C	1.120177	-0.054073	0.000136
C15	C	1.100354	-0.248413	0.000114
C16	C	1.177267	-0.299543	0.000119
C17	C	1.166237	-0.407680	0.000107
C18	C	1.111382	-0.140266	0.000126
C19	C	0.664374	0.187566	0.000117
C20	C	0.613245	0.264480	0.000116
C21	C	0.505107	0.253450	0.000132
C22	C	0.772522	0.198594	0.000101
C23	C	1.312767	0.233816	0.000141
C24	C	1.418910	0.244661	0.000145
C25	C	1.146602	0.399982	0.000107
C26	C	1.157448	0.506123	0.000097
N27	N	1.098971	0.266063	0.353753
N28	N	1.178659	0.185982	-0.353508
C29	C	1.147655	0.217130	0.421543
C30	C	1.129968	0.234922	0.578706
H31	H	1.026227	-0.285852	0.000101
H32	H	1.044193	0.321125	0.412067
H33	H	1.251410	-0.262113	0.000037
O34	O	0.619701	0.099123	-0.000120
C35	C	0.524788	-0.025325	-0.117670
C36	C	0.575372	0.074833	-0.117579
H37	H	0.488918	-0.044985	-0.212611
H38	H	0.580307	-0.081558	-0.117766
H39	H	0.467629	-0.023549	-0.022631
H40	H	0.632526	0.073152	-0.212602
H41	H	0.519795	0.131025	-0.117412
H42	H	0.650685	0.338612	0.000102
H43	H	1.202426	0.162060	0.363231
H44	H	1.075187	0.289988	0.637015
O45	O	1.243816	0.120160	0.576733
C46	C	1.320509	0.042073	0.356485
C47	C	1.246835	0.116782	0.435316
H48	H	1.322959	0.039303	0.242136
H49	H	1.395071	0.063680	0.384180
H50	H	1.297986	-0.032129	0.384795
H51	H	1.269268	0.191010	0.407048
H52	H	1.172290	0.095093	0.407614
