data_functionalizedCrystal
_audit_creation_method	'MofGen! by Chris Wilmer'
_symmetry_space_group_name_H-M	'P1'
_symmetry_Int_Tables_number	1
_symmetry_cell_setting	triclinic
loop_
_symmetry_equiv_pos_as_xyz
  x,y,z
_cell_length_a	21.395362
_cell_length_b	15.297327
_cell_length_c	15.298159
_cell_angle_alpha	72.666301
_cell_angle_beta	80.347626
_cell_angle_gamma	99.725883
loop_
_atom_site_label
_atom_site_type_symbol
_atom_site_fract_x
_atom_site_fract_y
_atom_site_fract_z
Zn1	Zn	0.831329	-0.461154	0.590227
Zn2	Zn	0.831285	-0.589732	0.461614
Zn3	Zn	0.748519	-0.434256	0.434700
Zn4	Zn	0.704603	-0.616668	0.617012
O5	O	0.778934	-0.525453	0.525888
O6	O	0.918996	-0.478194	0.573220
O7	O	0.838667	-0.546579	0.327920
O8	O	0.777900	-0.307674	0.432858
O9	O	0.918964	-0.572660	0.478728
O10	O	0.838741	-0.327436	0.547123
O11	O	0.777859	-0.432351	0.308146
O12	O	0.655020	-0.458470	0.458830
O13	O	0.703052	-0.618569	0.743583
O14	O	0.622755	-0.592487	0.592774
O15	O	0.796157	-0.504313	0.723904
O16	O	0.796084	-0.723456	0.504701
O17	O	0.703011	-0.743246	0.618872
C18	C	0.616154	-0.525483	0.525789
C19	C	0.546510	-0.525523	0.525772
C20	C	0.497015	-0.595369	0.595442
C21	C	0.431577	-0.595353	0.595479
C22	C	0.415638	-0.525498	0.525832
C23	C	0.465143	-0.455640	0.456157
C24	C	0.530580	-0.455652	0.456127
C25	C	0.324800	-0.503505	0.440824
C26	C	0.259364	-0.503499	0.440854
C27	C	0.213811	-0.525455	0.525924
C28	C	0.233699	-0.547437	0.610972
C29	C	0.299135	-0.547450	0.610942
C30	C	0.344685	-0.525477	0.525857
C31	C	0.093359	-0.595289	0.595640
C32	C	0.027921	-0.595267	0.595678
C33	C	0.061489	-0.455557	0.456348
C34	C	0.126926	-0.455575	0.456318
C35	C	0.142856	-0.525446	0.525963
C36	C	0.744791	-0.767101	0.567634
C37	C	0.730238	-0.870484	0.585524
C38	C	0.883163	-1.120593	0.398343
C39	C	0.896837	-1.023459	0.381530
C40	C	0.855189	-0.985210	0.432527
C41	C	0.799863	-1.044106	0.500340
C42	C	0.786185	-1.141249	0.517150
C43	C	0.758211	-1.005866	0.551334
C44	C	0.702886	-1.064762	0.619147
C45	C	0.689210	-1.161896	0.635954
C46	C	0.730859	-1.200144	0.584957
C47	C	0.771889	-0.908723	0.534524
C48	C	0.674911	-0.929379	0.653330
C49	C	0.661237	-1.026514	0.670144
C50	C	0.942349	-0.525423	0.525989
C51	C	1.011986	-0.525410	0.526031
C52	C	0.744711	-0.567446	0.768426
C53	C	0.730127	-0.585341	0.871781
C54	C	0.813224	-0.282865	0.484000
C55	C	0.827836	-0.179488	0.466150
C56	C	0.882921	-0.397843	1.122141
C57	C	0.896627	-0.381032	1.025033
C58	C	0.855003	-0.432107	0.986715
C59	C	0.799671	-0.499998	1.045514
C60	C	0.785967	-0.516816	1.142632
C61	C	0.758049	-0.551080	1.007207
C62	C	0.702717	-0.618971	1.066006
C63	C	0.689015	-0.635785	1.163113
C64	C	0.730639	-0.584710	1.201431
C65	C	0.771753	-0.534262	0.910089
C66	C	0.674799	-0.653234	0.930581
C67	C	0.661093	-0.670046	1.027688
C68	C	0.813014	-0.483641	1.284297
C69	C	0.827593	-0.465737	1.180940
H70	H	-0.012380	-0.652143	0.652416
H71	H	0.719729	-1.279239	0.598645
H72	H	0.509980	-0.652262	0.652153
F73	F	0.830640	-0.462010	0.847522
H74	H	0.941882	-0.975509	0.326316
H75	H	0.644155	-1.209845	0.691161
F76	F	0.602207	-0.742299	1.090277
H77	H	0.048512	-0.398676	0.399644
H78	H	0.640996	-0.898238	0.694855
H79	H	0.917064	-1.151744	0.356823
F80	F	0.602358	-1.089206	0.742313
H81	H	0.106330	-0.652177	0.652353
H82	H	0.916808	-0.356270	1.153350
H83	H	0.719482	-0.598394	1.280503
F84	F	0.869849	-0.881865	0.414831
F85	F	0.320299	-0.570840	0.701451
H86	H	0.167227	-0.398703	0.399582
H87	H	0.243177	-0.485606	0.371604
H88	H	0.361887	-0.485621	0.371544
H89	H	0.866166	-0.418415	0.907646
H90	H	0.643964	-0.691074	1.210987
F91	F	0.955513	-0.308781	0.962463
F92	F	0.448179	-0.381292	0.382037
F93	F	0.583259	-0.381308	0.381972
H94	H	0.391270	-0.652230	0.652216
F95	F	0.185223	-0.570803	0.701517
H96	H	0.816935	-0.860778	0.479310
F97	F	0.630499	-0.707601	0.889806
