data_functionalizedCrystal
_audit_creation_method	'MofGen! by Chris Wilmer'
_symmetry_space_group_name_H-M	'P1'
_symmetry_Int_Tables_number	1
_symmetry_cell_setting	triclinic
loop_
_symmetry_equiv_pos_as_xyz
  x,y,z
_cell_length_a	14.971494
_cell_length_b	14.044191
_cell_length_c	13.448316
_cell_angle_alpha	89.995859
_cell_angle_beta	89.995115
_cell_angle_gamma	88.404667
loop_
_atom_site_label
_atom_site_type_symbol
_atom_site_fract_x
_atom_site_fract_y
_atom_site_fract_z
O1	O	0.215693	1.257963	-0.082636
O2	O	0.715693	1.757963	0.417364
O3	O	0.207905	0.981984	-0.082649
O4	O	0.707905	1.481984	0.417351
O5	O	0.082182	1.127366	-0.082640
O6	O	0.582182	1.627366	0.417360
O7	O	0.341416	1.112580	-0.082645
O8	O	0.841416	1.612580	0.417355
O9	O	0.082172	1.127348	0.082744
O10	O	0.582172	1.627348	0.582744
O11	O	0.207895	0.981966	0.082735
O12	O	0.707895	1.481966	0.582735
O13	O	0.215684	1.257944	0.082747
O14	O	0.715684	1.757944	0.582747
Cu15	Cu	0.211788	1.119953	0.097842
Cu16	Cu	0.711788	1.619953	0.597842
Cu17	Cu	0.211800	1.119975	-0.097744
Cu18	Cu	0.711800	1.619975	0.402256
O19	O	0.341406	1.112562	0.082738
O20	O	0.841406	1.612562	0.582738
C21	C	0.204492	0.946656	0.000041
C22	C	0.704492	1.446656	0.500041
C23	C	0.194329	0.841419	0.000036
C24	C	0.694329	1.341419	0.500036
C25	C	0.247830	0.591194	0.000045
C26	C	0.747830	1.091194	0.500045
C27	C	0.175762	0.648739	0.000045
C28	C	0.675762	1.148739	0.500045
C29	C	0.186095	0.755956	0.000040
C30	C	0.686095	1.255956	0.500040
C31	C	0.237499	0.483968	0.000050
C32	C	0.737499	0.983968	0.500050
C33	C	0.048800	1.126694	0.000050
C34	C	0.548800	1.626694	0.500050
C35	C	-0.050653	1.124708	0.000045
C36	C	0.449347	1.624708	0.500045
C37	C	-0.097366	1.123788	-0.090107
C38	C	0.402634	1.623788	0.409893
C39	C	-0.190812	1.121916	-0.090108
C40	C	0.309188	1.621916	0.409892
C41	C	-0.237545	1.120971	0.000044
C42	C	0.262455	1.620971	0.500044
C43	C	-0.190825	1.121889	0.090203
C44	C	0.309175	1.621889	0.590203
C45	C	-0.097380	1.123755	0.090203
C46	C	0.402620	1.623755	0.590203
C47	C	-0.385595	1.118004	0.090196
C48	C	0.114405	1.618004	0.590196
C49	C	-0.479046	1.116141	0.090196
C50	C	0.020954	1.616141	0.590196
C51	C	-0.479027	1.116165	-0.090115
C52	C	0.020973	1.616165	0.409885
C53	C	-0.385581	1.118030	-0.090115
C54	C	0.114419	1.618030	0.409885
C55	C	-0.338869	1.118950	0.000045
C56	C	0.161131	1.618950	0.500045
C57	C	0.374788	1.113234	0.000046
C58	C	0.874788	1.613234	0.500046
C59	C	0.474241	1.115220	0.000044
C60	C	0.974241	1.615220	0.500044
C61	C	0.219096	1.293272	0.000055
C62	C	0.719096	1.793272	0.500055
C63	C	0.229259	1.398510	0.000053
C64	C	0.729259	1.898510	0.500053
N65	N	0.211780	1.119945	0.235406
N66	N	0.711780	1.619945	0.735406
N67	N	0.211802	1.119991	-0.235308
N68	N	0.711802	1.619991	0.264692
C69	C	0.156137	1.184340	0.287450
C70	C	0.656137	1.684340	0.787450
C71	C	0.156136	1.184346	0.391554
C72	C	0.656136	1.684346	0.891554
C73	C	0.211785	1.119961	0.443611
C74	C	0.711785	1.619961	0.943611
C75	C	0.267431	1.055559	0.391559
C76	C	0.767431	1.555559	0.891559
C77	C	0.267426	1.055549	0.287458
C78	C	0.767426	1.555549	0.787458
C79	C	0.267439	1.055585	0.608539
C80	C	0.767439	1.555585	1.108539
C81	C	0.267445	1.055596	0.712648
C82	C	0.767445	1.555596	1.212648
C83	C	0.156150	1.184382	0.712635
C84	C	0.656150	1.684382	1.212635
C85	C	0.156144	1.184373	0.608534
C86	C	0.656144	1.684373	1.108534
C87	C	0.211792	1.119971	0.556489
C88	C	0.711792	1.619971	1.056489
H89	H	-0.059323	1.124562	-0.163519
H90	H	0.440677	1.624562	0.336481
Br91	Br	0.363596	0.643288	0.000032
Br92	Br	0.863596	1.143288	0.500032
Br93	Br	0.059989	0.596649	0.000049
Br94	Br	0.559989	1.096649	0.500049
Br95	Br	-0.254205	1.120665	-0.212462
Br96	Br	0.245795	1.620665	0.287538
Br97	Br	-0.254246	1.120592	0.212553
Br98	Br	0.245754	1.620592	0.712553
H99	H	-0.517093	1.115364	0.163605
H100	H	-0.017093	1.615364	0.663605
H101	H	-0.347535	1.118806	-0.163524
H102	H	0.152465	1.618806	0.336476
H103	H	0.110836	1.236804	0.566149
H104	H	0.610836	1.736804	1.066149
H105	H	0.312759	1.003165	0.755027
H106	H	0.812759	1.503165	1.255027
H107	H	0.312749	1.003139	0.566168
H108	H	0.812749	1.503139	1.066168
H109	H	-0.517064	1.115414	-0.163526
H110	H	-0.017064	1.615414	0.336474
Br111	Br	-0.033983	1.124999	0.212557
Br112	Br	0.466017	1.624999	0.712557
H113	H	0.312737	1.003130	0.433950
H114	H	0.812737	1.503130	0.933950
Br115	Br	0.342939	0.968145	0.216826
Br116	Br	0.842939	1.468145	0.716826
Br117	Br	-0.322199	1.119254	0.212556
Br118	Br	0.177801	1.619254	0.712556
H119	H	0.110825	1.236774	0.245072
H120	H	0.610825	1.736774	0.745072
H121	H	0.110840	1.236819	0.755016
H122	H	0.610840	1.736819	1.255016
Br123	Br	0.080616	1.271737	0.462189
Br124	Br	0.580616	1.771737	0.962189
