data_functionalizedCrystal
_audit_creation_method	'MofGen! by Chris Wilmer'
_symmetry_space_group_name_H-M	'P1'
_symmetry_Int_Tables_number	1
_symmetry_cell_setting	triclinic
loop_
_symmetry_equiv_pos_as_xyz
  x,y,z
_cell_length_a	17.038272
_cell_length_b	17.038272
_cell_length_c	16.098538
_cell_angle_alpha	92.930266
_cell_angle_beta	92.920305
_cell_angle_gamma	88.888444
loop_
_atom_site_label
_atom_site_type_symbol
_atom_site_fract_x
_atom_site_fract_y
_atom_site_fract_z
O1	O	0.167266	-1.052033	-0.069152
O2	O	0.164557	-0.824222	-0.069177
O3	O	0.052006	-0.936773	-0.069158
O4	O	0.279817	-0.939482	-0.069171
O5	O	0.058553	-0.930197	0.069354
O6	O	0.171104	-0.817646	0.069335
O7	O	0.173813	-1.045456	0.069359
Zn8	Zn	0.173498	-0.930507	0.091339
Zn9	Zn	0.164872	-0.939172	-0.091156
O10	O	0.286364	-0.932905	0.069341
C11	C	0.165367	-0.791641	0.000076
C12	C	0.158019	-0.704358	0.000067
C13	C	0.025987	-0.931022	0.000097
C14	C	-0.061297	-0.923674	0.000096
C15	C	0.173002	-1.078037	0.000105
C16	C	0.180351	-1.165320	0.000108
C17	C	-0.106906	-0.991137	0.000104
C18	C	-0.188918	-0.984229	0.000096
C19	C	-0.225320	-0.909856	0.000085
C20	C	-0.179705	-0.842388	0.000074
C21	C	-0.097694	-0.849297	0.000077
C22	C	-0.472708	-0.885446	0.000071
C23	C	-0.554725	-0.878541	0.000071
C24	C	-0.563932	-1.020383	0.000091
C25	C	-0.481920	-1.027286	0.000098
C26	C	-0.436312	-0.959818	0.000083
C27	C	-0.309149	-0.902792	0.000079
C28	C	-0.352485	-0.966882	0.000084
C29	C	0.312383	-0.938656	0.000083
C30	C	0.399666	-0.946005	0.000079
N31	N	0.179385	-0.924599	0.215887
C32	C	0.225482	-0.658749	0.000064
C33	C	0.218574	-0.576737	0.000075
C34	C	0.144201	-0.540335	0.000085
C35	C	0.076733	-0.585950	0.000090
C36	C	0.083642	-0.667961	0.000084
C37	C	0.119792	-0.292946	0.000108
C38	C	0.112887	-0.210929	0.000112
C39	C	0.254729	-0.201722	0.000098
C40	C	0.261632	-0.283734	0.000088
C41	C	0.194164	-0.329342	0.000098
C42	C	0.137138	-0.456505	0.000094
C43	C	0.201228	-0.413170	0.000094
N44	N	0.158979	-0.945085	-0.215705
C45	C	0.131633	-0.972390	0.259480
C46	C	0.135759	-0.968265	0.346668
C47	C	0.187642	-0.916352	0.390262
C48	C	0.235395	-0.868556	0.346663
C49	C	0.231265	-0.872678	0.259476
C50	C	0.202602	-0.901410	0.653510
C51	C	0.206731	-0.897294	0.740702
C52	C	0.107093	-0.997003	0.740702
C53	C	0.102971	-1.001123	0.653513
C54	C	0.150721	-0.953324	0.609922
C55	C	0.191862	-0.912136	0.479383
C56	C	0.146496	-0.957536	0.520803
H57	H	-0.226050	-1.039165	0.000104
O58	O	0.242158	-0.861671	0.521826
C59	C	0.199232	-0.808033	0.572255
H60	H	0.140493	-0.834607	0.585311
H61	H	0.234075	-0.794898	0.633567
H62	H	0.188419	-0.751222	0.538668
H63	H	0.089389	-1.014666	0.223992
O64	O	0.095975	-1.007874	0.478514
C65	C	0.018396	-0.988938	0.499869
H66	H	0.014939	-0.924902	0.523841
H67	H	-0.023141	-0.998063	0.442548
H68	H	0.000656	-1.028534	0.550485
H69	H	-0.452287	-1.087848	0.000107
H70	H	0.261782	-0.442811	0.000091
H71	H	-0.077274	-1.051699	0.000118
O72	O	-0.428321	-0.819964	0.000172
C73	C	-0.377232	-0.816298	0.071918
H74	H	-0.367815	-0.877772	0.095842
H75	H	-0.318375	-0.791907	0.055779
H76	H	-0.404192	-0.776252	0.122146
H77	H	0.052321	-0.181294	0.000118
H78	H	0.068216	-1.035918	0.776202
H79	H	-0.338796	-0.842238	0.000072
H80	H	-0.601075	-1.075312	0.000101
H81	H	0.241484	-0.862492	0.618024
O82	O	0.333940	-0.318964	0.000120
C83	C	0.392005	-0.261122	0.000100
H84	H	0.367530	-0.202771	0.026328
H85	H	0.445502	-0.279694	0.040309
H86	H	0.409935	-0.254129	-0.066352
O87	O	-0.589963	-0.806234	0.000014
C88	C	-0.532123	-0.748164	0.000019
H89	H	-0.476249	-0.775125	-0.026197
H90	H	-0.554500	-0.698485	-0.040209
H91	H	-0.518849	-0.723927	0.066464
O92	O	-0.215035	-0.770132	-0.000086
C93	C	-0.195565	-0.732076	-0.071818
H94	H	-0.178082	-0.777853	-0.121951
H95	H	-0.248546	-0.696509	-0.095902
H96	H	-0.144324	-0.691095	-0.055605
O97	O	-0.053360	-0.783794	-0.000076
C98	C	-0.009019	-0.786966	-0.071803
H99	H	-0.038716	-0.827510	-0.121937
H100	H	-0.005150	-0.725464	-0.095891
H101	H	0.052663	-0.810486	-0.055581
H102	H	0.064854	-0.330070	0.000117
H103	H	0.309658	-0.164579	0.000092
O104	O	-0.317043	-1.039088	-0.000017
C105	C	-0.273282	-1.050742	-0.071762
H106	H	-0.258135	-0.991338	-0.095691
H107	H	-0.216795	-1.084841	-0.055621
H108	H	-0.309529	-1.085471	-0.121988
H109	H	0.016177	-0.556305	0.000110
H110	H	0.248983	-0.855019	0.776192
O111	O	0.089352	-1.014779	0.388885
C112	C	0.042668	-1.061475	0.331713
H113	H	0.071980	-1.067429	0.269556
H114	H	0.036104	-1.122208	0.356894
H115	H	-0.017829	-1.032550	0.322458
H116	H	0.286045	-0.688381	0.000056
H117	H	0.273510	-0.539605	0.000072
O118	O	0.018138	-0.712294	0.000231
C119	C	0.021291	-0.756627	0.071955
H120	H	0.061825	-0.726925	0.122093
H121	H	-0.040216	-0.760491	0.096039
H122	H	0.044813	-0.818312	0.055731
O123	O	0.285687	-0.818084	0.389101
C124	C	0.242765	-0.764446	0.439534
H125	H	0.184030	-0.791023	0.452601
H126	H	0.277615	-0.751305	0.500841
H127	H	0.231943	-0.707637	0.405945
O128	O	0.064846	-0.421237	-0.000017
C129	C	0.020008	-0.447452	-0.071768
H130	H	0.044052	-0.506822	-0.095688
H131	H	-0.043875	-0.453698	-0.055636
H132	H	0.023587	-0.403034	-0.121996
O133	O	0.052501	-1.051567	0.611298
C134	C	0.011252	-1.092879	0.668472
H135	H	0.011147	-1.057686	0.730626
H136	H	-0.051855	-1.101883	0.643289
H137	H	0.041105	-1.152474	0.677731
O138	O	0.277733	-0.826225	0.217256
C139	C	0.324399	-0.779508	0.274427
H140	H	0.330392	-0.808827	0.336572
H141	H	0.385118	-0.772885	0.249225
H142	H	0.295423	-0.719037	0.283713
