data_functionalizedCrystal
_audit_creation_method	'MofGen! by Chris Wilmer'
_symmetry_space_group_name_H-M	'P1'
_symmetry_Int_Tables_number	1
_symmetry_cell_setting	triclinic
loop_
_symmetry_equiv_pos_as_xyz
  x,y,z
_cell_length_a	12.827893
_cell_length_b	14.908178
_cell_length_c	12.827885
_cell_angle_alpha	86.668630
_cell_angle_beta	89.980728
_cell_angle_gamma	93.314160
loop_
_atom_site_label
_atom_site_type_symbol
_atom_site_fract_x
_atom_site_fract_y
_atom_site_fract_z
Zn1	Zn	1.573645	-0.359141	-0.566802
Zn2	Zn	2.073645	0.140859	-0.066802
Zn3	Zn	1.563445	-0.510038	-0.381959
Zn4	Zn	2.063445	-0.010038	0.118041
Zn5	Zn	1.398884	-0.359186	-0.392073
Zn6	Zn	1.898884	0.140814	0.107927
Zn7	Zn	1.388782	-0.509972	-0.556664
Zn8	Zn	1.888782	-0.009972	-0.056664
O9	O	1.481189	-0.434584	-0.474375
O10	O	1.981189	0.065416	0.025625
O11	O	1.718528	-0.379167	-0.542293
O12	O	2.218528	0.120833	-0.042293
O13	O	1.541575	-0.490074	-0.237062
O14	O	2.041575	0.009926	0.262938
O15	O	1.430562	-0.232925	-0.423727
O16	O	1.930562	0.267075	0.076273
O17	O	1.711034	-0.490031	-0.406490
O18	O	2.211034	0.009969	0.093510
O19	O	1.558959	-0.232892	-0.552100
O20	O	2.058959	0.267108	-0.052100
O21	O	1.420672	-0.379243	-0.244492
O22	O	1.920672	0.120757	0.255508
O23	O	1.251308	-0.379178	-0.413896
O24	O	1.751308	0.120822	0.086104
O25	O	1.413346	-0.489917	-0.704248
O26	O	1.913346	0.010083	-0.204248
O27	O	1.243887	-0.489960	-0.534820
O28	O	1.743887	0.010040	-0.034820
O29	O	1.549164	-0.379103	-0.711697
O30	O	2.049164	0.120897	-0.211697
O31	O	1.531780	-0.636285	-0.396659
O32	O	2.031780	-0.136285	0.103341
O33	O	1.403455	-0.636236	-0.525013
O34	O	1.903455	-0.136236	-0.025013
C35	C	1.209680	-0.434568	-0.474356
C36	C	1.709680	0.065432	0.025644
C37	C	1.093526	-0.434582	-0.474371
C38	C	1.593526	0.065418	0.025629
C39	C	1.045443	-0.379821	-0.541664
C40	C	1.545443	0.120179	-0.041664
C41	C	0.925392	-0.379835	-0.541681
C42	C	1.425392	0.120165	-0.041681
C43	C	1.465443	-0.668997	-0.458661
C44	C	1.965443	-0.168997	0.041339
C45	C	1.458802	-0.769279	-0.451974
C46	C	1.958802	-0.269279	0.048026
C47	C	1.579922	-0.957537	-0.573226
C48	C	2.079922	-0.457537	-0.073226
C49	C	1.573686	-1.051762	-0.566946
C50	C	2.073686	-0.551762	-0.066946
C51	C	1.440090	-1.051955	-0.433140
C52	C	1.940090	-0.551955	0.066860
C53	C	1.446326	-0.957730	-0.439420
C54	C	1.946326	-0.457730	0.060580
C55	C	1.516245	-0.910525	-0.509464
C56	C	2.016245	-0.410525	-0.009464
C57	C	1.522486	-0.816298	-0.515738
C58	C	2.022486	-0.316298	-0.015738
C59	C	1.388885	-0.816493	-0.381938
C60	C	1.888885	-0.316493	0.118062
C61	C	1.382649	-0.910718	-0.375659
C62	C	1.882649	-0.410718	0.124341
C63	C	1.753758	-0.434602	-0.474394
C64	C	2.253758	0.065398	0.025606
C65	C	1.869911	-0.434609	-0.474402
C66	C	2.369911	0.065391	0.025598
C67	C	1.481266	-0.434498	-0.746951
C68	C	1.981266	0.065502	-0.246951
C69	C	1.481299	-0.434461	-0.863107
C70	C	1.981299	0.065539	-0.363107
C71	C	1.497025	-0.199256	-0.490172
C72	C	1.997025	0.300744	0.009828
C73	C	1.503774	-0.098974	-0.496904
C74	C	2.003774	0.401026	0.003096
C75	C	1.548513	-0.379615	-0.918578
C76	C	2.048513	0.120385	-0.418578
C77	C	1.548549	-0.379576	-1.038631
C78	C	2.048549	0.120424	-0.538631
C79	C	1.481177	-0.434605	-0.202863
C80	C	1.981177	0.065395	0.297137
C81	C	1.481364	-0.434388	-0.086725
C82	C	1.981364	0.065612	0.413275
H83	H	0.884027	-0.332954	-0.599295
H84	H	1.384027	0.167046	-0.099295
F85	F	1.031169	-0.495873	-0.399078
F86	F	1.531169	0.004127	0.100922
H87	H	1.606029	-0.332687	-0.877190
H88	H	2.106029	0.167313	-0.377190
H89	H	1.325721	-0.949165	-0.318634
H90	H	1.825721	-0.449165	0.181366
H91	H	1.606097	-0.332624	-1.086321
H92	H	2.106097	0.167376	-0.586321
F93	F	1.406147	-0.495771	-1.024401
F94	F	1.906147	0.004229	-0.524401
H95	H	0.911268	-0.481500	-0.416794
H96	H	1.411268	0.018500	0.083206
F97	F	1.321118	-0.766452	-0.314068
F98	F	1.821118	-0.266452	0.185932
F99	F	1.596902	-0.766060	-0.590281
F100	F	2.096902	-0.266060	-0.090281
H101	H	1.636860	-0.919102	-0.630251
H102	H	2.136860	-0.419102	-0.130251
F103	F	1.641457	-1.101793	-0.634812
F104	F	2.141457	-0.601793	-0.134812
H105	H	1.423774	-0.481380	-0.904495
H106	H	1.923774	0.018620	-0.404495
F107	F	1.107800	-0.318523	-0.616949
F108	F	1.607800	0.181477	-0.116949
F109	F	1.365663	-1.102209	-0.358622
F110	F	1.865663	-0.602209	0.141378
