data_functionalizedCrystal
_audit_creation_method	'MofGen! by Chris Wilmer'
_symmetry_space_group_name_H-M	'P1'
_symmetry_Int_Tables_number	1
_symmetry_cell_setting	triclinic
loop_
_symmetry_equiv_pos_as_xyz
  x,y,z
_cell_length_a	15.995292
_cell_length_b	14.472310
_cell_length_c	10.654550
_cell_angle_alpha	90.000834
_cell_angle_beta	83.976773
_cell_angle_gamma	90.014199
loop_
_atom_site_label
_atom_site_type_symbol
_atom_site_fract_x
_atom_site_fract_y
_atom_site_fract_z
O1	O	1.111965	0.076866	0.161516
O2	O	0.868299	0.076862	0.181582
O3	O	0.995734	0.076858	-0.011265
O4	O	0.984530	0.076870	0.354363
O5	O	0.995701	-0.076824	-0.011254
O6	O	0.868266	-0.076820	0.181593
O7	O	1.111932	-0.076816	0.161528
Cu8	Cu	0.990096	-0.090851	0.171561
Cu9	Cu	0.990135	0.090896	0.171548
O10	O	0.984497	-0.076812	0.354375
C11	C	0.837083	0.000021	0.180771
C12	C	0.744115	0.000019	0.178322
C13	C	0.406325	0.000029	0.169322
C14	C	0.430445	0.000377	0.308513
C15	C	0.527136	0.000026	0.311159
C16	C	0.573907	0.000025	0.173788
C17	C	0.544382	-0.087734	0.104205
C18	C	0.447581	-0.087804	0.102529
C19	C	0.447747	0.086961	0.099674
C20	C	0.544270	0.088117	0.104832
C21	C	0.668617	0.000019	0.176305
C22	C	0.311614	0.000029	0.166801
N23	N	0.990075	-0.218681	0.171570
C24	C	0.990134	-0.592773	0.171543
C25	C	0.921713	-0.553605	0.274386
C26	C	0.921875	-0.446517	0.274761
C27	C	0.990104	-0.407182	0.171557
C28	C	1.077637	-0.446016	0.200149
C29	C	1.077253	-0.553138	0.200880
C30	C	0.971799	-0.553306	0.039803
C31	C	0.969801	-0.446179	0.040682
C32	C	0.990092	-0.302293	0.171561
C33	C	0.990151	-0.697661	0.171541
C34	C	1.143149	0.000027	0.162339
C35	C	1.236116	0.000035	0.164787
N36	N	0.990163	0.218727	0.171530
C37	C	0.994895	0.000018	-0.058046
C38	C	0.992434	0.000019	-0.197457
C39	C	1.067466	0.000021	-0.277946
C40	C	1.065148	0.000032	-0.408936
C41	C	0.912760	0.000036	-0.378934
C42	C	0.915079	0.000032	-0.247947
C43	C	0.985336	0.000030	0.401156
C44	C	0.987797	0.000035	0.540566
H45	H	0.564707	-0.153043	0.152535
Cl46	Cl	0.939676	-0.595124	0.424482
H47	H	1.129798	-0.579045	0.128926
H48	H	0.576659	0.093416	0.004565
H49	H	0.419687	0.153477	0.143176
Cl50	Cl	0.820745	0.000038	-0.146752
H51	H	1.126246	0.000035	-0.474466
H52	H	0.849780	0.000045	-0.420060
Cl53	Cl	0.821442	-0.405978	0.248548
Cl54	Cl	0.557024	0.097153	0.395293
H55	H	1.130453	0.000012	-0.236842
H56	H	0.402774	0.063313	0.362159
H57	H	1.094041	-0.419176	0.295129
H58	H	0.401723	-0.062203	0.361871
Cl59	Cl	0.940040	-0.406927	0.425713
Cl60	Cl	0.820966	-0.593399	0.248509
Cl61	Cl	0.556027	-0.097266	0.395807
H62	H	0.421030	-0.153404	0.150729
H63	H	1.129799	-0.420534	0.127235
Cl64	Cl	0.592666	-0.092774	-0.051871
Cl65	Cl	0.424196	-0.094016	-0.055028
H66	H	0.563148	0.153041	0.155496
H67	H	0.433159	0.087553	-0.002780
Cl68	Cl	1.102017	-0.591697	0.349214
Cl69	Cl	0.875311	-0.595067	-0.002632
Cl70	Cl	1.041662	-0.404860	-0.083012
Cl71	Cl	0.870381	-0.406995	0.007174
Cl72	Cl	1.048819	-0.592411	-0.078357
