data_functionalizedCrystal
_audit_creation_method	'MofGen! by Chris Wilmer'
_symmetry_space_group_name_H-M	'P1'
_symmetry_Int_Tables_number	1
_symmetry_cell_setting	triclinic
loop_
_symmetry_equiv_pos_as_xyz
  x,y,z
_cell_length_a	11.026623
_cell_length_b	9.482900
_cell_length_c	11.026607
_cell_angle_alpha	78.599815
_cell_angle_beta	71.413640
_cell_angle_gamma	78.636013
loop_
_atom_site_label
_atom_site_type_symbol
_atom_site_fract_x
_atom_site_fract_y
_atom_site_fract_z
O1	O	-1.742237	0.120895	0.518021
O2	O	-1.375657	0.120897	0.457254
O3	O	-1.528565	0.120891	0.304348
O4	O	-1.589330	0.120901	0.670927
O5	O	-1.497541	-0.120900	0.335566
O6	O	-1.344633	-0.120894	0.488473
O7	O	-1.711213	-0.120896	0.549239
Cu8	Cu	-1.525090	-0.142973	0.521706
Cu9	Cu	-1.561780	0.142974	0.484787
O10	O	-1.558306	-0.120890	0.702145
C11	C	-1.312486	0.000001	0.461653
C12	C	-1.170472	0.000002	0.428236
N13	N	-1.499294	-0.344092	0.547674
C14	C	-1.116823	0.000006	0.520504
C15	C	-0.970044	0.000006	0.485968
C16	C	-1.554161	-0.416293	0.492438
C17	C	-1.532709	-0.583710	0.514056
C18	C	-0.774385	0.000002	0.544838
C19	C	-0.916400	0.000010	0.578250
C20	C	-1.501843	-0.000003	0.272297
C21	C	-1.468427	0.000002	0.130282
N22	N	-1.587584	0.344093	0.458811
C23	C	-1.560697	0.000004	0.076633
C24	C	-1.526162	0.000010	-0.070146
C25	C	-1.585028	0.000007	0.734196
C26	C	-1.618445	0.000011	0.876209
H27	H	-1.179555	0.000000	0.625068
H28	H	-1.363865	0.000012	0.067547
N29	N	-1.449434	-0.665982	0.597893
H30	H	-1.445910	-0.773916	0.601450
H31	H	-1.487523	-0.639451	0.688098
N32	N	-1.756958	0.000003	-0.040702
H33	H	-1.789337	-0.089630	-0.047841
H34	H	-1.812247	0.089693	-0.071020
H35	H	-1.107743	0.000036	0.323668
N36	N	-0.886954	-0.000011	0.347456
H37	H	-0.842636	0.089619	0.317895
H38	H	-0.942997	-0.000070	0.290718
N39	N	-0.999473	-0.000001	0.716770
H40	H	-1.092551	-0.000004	0.721811
H41	H	-0.992161	0.089636	0.749000
N42	N	-1.637383	-0.334015	0.408556
H43	H	-1.640894	-0.226081	0.404986
H44	H	-1.727649	-0.360504	0.446212
N45	N	-1.670841	-0.573638	0.374954
H46	H	-1.674363	-0.465703	0.371392
H47	H	-1.761098	-0.600145	0.412638
N48	N	-1.416023	-0.426370	0.631507
H49	H	-1.412499	-0.534304	0.635064
H50	H	-1.454112	-0.399838	0.721712
H51	H	-1.665259	-0.000005	0.139368
N52	N	-1.387647	0.000025	-0.153226
H53	H	-1.382610	0.000029	-0.246304
H54	H	-1.332341	-0.089611	-0.122845
