data_functionalizedCrystal
_audit_creation_method	'MofGen! by Chris Wilmer'
_symmetry_space_group_name_H-M	'P1'
_symmetry_Int_Tables_number	1
_symmetry_cell_setting	triclinic
loop_
_symmetry_equiv_pos_as_xyz
  x,y,z
_cell_length_a	11.792241
_cell_length_b	10.540539
_cell_length_c	10.268362
_cell_angle_alpha	89.996859
_cell_angle_beta	89.999626
_cell_angle_gamma	84.359454
loop_
_atom_site_label
_atom_site_type_symbol
_atom_site_fract_x
_atom_site_fract_y
_atom_site_fract_z
O1	O	1.507362	0.173992	-0.108167
O2	O	1.177067	0.191924	-0.108197
O3	O	1.349750	-0.001773	-0.108180
O4	O	1.334679	0.367689	-0.108184
O5	O	1.349735	-0.001781	0.108421
O6	O	1.177052	0.191916	0.108404
O7	O	1.507347	0.173984	0.108433
Cu8	Cu	1.342198	0.182949	0.128196
Cu9	Cu	1.342216	0.182959	-0.127959
O10	O	1.334664	0.367681	0.108416
C11	C	1.134766	0.190793	0.000100
C12	C	1.008743	0.187422	0.000088
C13	C	0.778015	0.181223	0.000126
C14	C	0.906409	0.184667	0.000105
C15	C	1.348612	-0.049076	0.000118
C16	C	1.345231	-0.190014	0.000111
C17	C	1.215660	-0.373018	-0.000387
C18	C	1.219087	-0.226411	0.000101
C19	C	1.405928	-0.251874	0.123806
C20	C	1.401623	-0.398404	0.123910
C21	C	1.404206	-0.398921	-0.122405
C22	C	1.405368	-0.251943	-0.124041
C23	C	1.549648	0.175114	0.000134
C24	C	1.675671	0.178486	0.000137
C25	C	1.335802	0.414984	0.000116
C26	C	1.339183	0.555921	0.000114
N27	N	1.342194	0.182942	0.308362
N28	N	1.342229	0.182956	-0.308125
C29	C	1.342210	0.182956	0.574032
C30	C	1.342197	0.182952	0.426195
H31	H	1.171327	-0.183649	-0.088569
H32	H	1.166026	-0.403067	0.087812
H33	H	1.495319	-0.446444	-0.123229
H34	H	1.497336	-0.228021	-0.131502
H35	H	1.363752	-0.209140	0.215848
H36	H	1.165836	-0.401453	-0.089091
O37	O	1.352652	-0.202896	-0.233310
C38	C	1.431246	-0.143044	-0.309753
H39	H	1.521547	-0.184541	-0.284755
H40	H	1.413900	-0.159929	-0.417272
H41	H	1.421842	-0.036268	-0.289046
H42	H	1.498564	-0.229821	0.128413
O43	O	1.161553	-0.176539	0.106010
C44	C	1.047500	-0.205700	0.100406
H45	H	1.041825	-0.293307	0.036533
H46	H	1.016517	-0.225974	0.202784
H47	H	0.991932	-0.121401	0.057371
O48	O	1.509787	-0.456132	0.130810
C49	C	1.521724	-0.531869	0.244089
H50	H	1.434439	-0.557901	0.276289
H51	H	1.579478	-0.622621	0.222575
H52	H	1.560909	-0.476332	0.325000
O53	O	1.355351	-0.436227	-0.234224
C54	C	1.241049	-0.382785	-0.239641
H55	H	1.229917	-0.294126	-0.175553
H56	H	1.217929	-0.355567	-0.344457
H57	H	1.182874	-0.455445	-0.203297
O58	O	1.347964	-0.432018	0.234068
C59	C	1.250212	-0.491733	0.200285
H60	H	1.260585	-0.532426	0.097641
H61	H	1.238912	-0.572121	0.271965
H62	H	1.172096	-0.418942	0.203932
