data_functionalizedCrystal
_audit_creation_method	'MofGen! by Chris Wilmer'
_symmetry_space_group_name_H-M	'P1'
_symmetry_Int_Tables_number	1
_symmetry_cell_setting	triclinic
loop_
_symmetry_equiv_pos_as_xyz
  x,y,z
_cell_length_a	15.995292
_cell_length_b	10.489716
_cell_length_c	15.072220
_cell_angle_alpha	90.002992
_cell_angle_beta	89.986330
_cell_angle_gamma	83.998876
loop_
_atom_site_label
_atom_site_type_symbol
_atom_site_fract_x
_atom_site_fract_y
_atom_site_fract_z
O1	O	1.112006	0.164048	-0.073799
O2	O	0.868346	0.184428	-0.073794
O3	O	0.995731	-0.011441	-0.073800
O4	O	0.984621	0.359917	-0.073793
O5	O	0.995699	-0.011430	0.073766
O6	O	0.868314	0.184439	0.073771
O7	O	1.111974	0.164059	0.073767
Zn8	Zn	0.990139	0.174251	0.097198
Zn9	Zn	0.990181	0.174236	-0.097225
O10	O	0.984589	0.359928	0.073772
C11	C	0.837129	0.183604	-0.000011
C12	C	0.744161	0.181117	-0.000010
C13	C	0.406368	0.171975	-0.000020
C14	C	0.430525	0.313349	-0.000347
C15	C	0.527217	0.316036	-0.000010
C16	C	0.573951	0.176512	-0.000015
C17	C	0.544409	0.105838	0.084247
C18	C	0.447609	0.104136	0.084314
C19	C	0.447772	0.101237	-0.083495
C20	C	0.544296	0.106476	-0.084605
C21	C	0.668663	0.179068	-0.000010
C22	C	0.311657	0.169415	-0.000019
C23	C	0.994880	-0.058956	-0.000020
C24	C	0.992383	-0.200551	-0.000028
C25	C	1.070499	-0.299343	-0.000021
C26	C	1.029236	-0.376118	-0.072775
C27	C	1.029187	-0.376071	0.072712
C28	C	0.951152	-0.275462	-0.072842
C29	C	0.951115	-0.275409	0.072711
C30	C	0.909794	-0.352135	-0.000061
C31	C	1.143191	0.164883	-0.000018
C32	C	1.236158	0.167370	-0.000026
C33	C	0.985440	0.407443	-0.000010
C34	C	0.987937	0.549038	-0.000008
N35	N	0.990117	0.174260	0.229887
N36	N	0.990210	0.174217	-0.229914
C37	C	0.990179	0.174231	0.589088
C38	C	0.921785	0.278686	0.551484
C39	C	0.921945	0.279067	0.448659
C40	C	0.990147	0.174246	0.410884
C41	C	1.077688	0.203286	0.448175
C42	C	1.077306	0.204028	0.551032
C43	C	0.971810	0.040427	0.551187
C44	C	0.969811	0.041320	0.448323
C45	C	0.990135	0.174251	0.310171
C46	C	0.990197	0.174229	0.689802
H47	H	0.564748	0.154925	0.146959
Cl48	Cl	1.103056	0.352227	0.408395
H49	H	1.138447	-0.275639	-0.000096
Cl50	Cl	0.804811	-0.388359	-0.000116
Cl51	Cl	0.875311	-0.002673	0.591283
H52	H	1.093371	0.301610	0.575015
H53	H	1.062226	-0.420090	-0.134286
H54	H	0.905411	0.019281	0.423952
Cl55	Cl	0.900291	-0.207892	-0.167915
Cl56	Cl	1.041640	-0.084312	0.408642
Cl57	Cl	1.048799	-0.079585	0.588729
Cl58	Cl	1.080102	-0.443908	0.167675
Cl59	Cl	0.900244	-0.207450	0.167684
Cl60	Cl	0.573499	0.185879	-0.180853
Cl61	Cl	1.158197	0.088949	0.410399
H62	H	0.433158	-0.002823	-0.084068
Cl63	Cl	0.821506	0.252444	0.409732
H64	H	0.419723	0.145420	-0.147362
H65	H	0.856531	0.261673	0.576246
Cl66	Cl	0.939787	0.431134	0.591358
Cl67	Cl	0.940150	0.432385	0.410652
H68	H	0.546587	0.371377	-0.060415
Cl69	Cl	0.387823	0.397482	-0.093644
H70	H	1.129832	0.130947	0.575905
H71	H	0.545940	0.371728	0.060497
Cl72	Cl	0.386202	0.397027	0.092426
H73	H	0.421070	0.153091	0.147306
H74	H	0.432438	0.000481	0.088138
H75	H	0.575664	0.003167	0.087377
Cl76	Cl	0.594254	-0.050764	-0.092467
