data_functionalizedCrystal
_audit_creation_method	'MofGen! by Chris Wilmer'
_symmetry_space_group_name_H-M	'P1'
_symmetry_Int_Tables_number	1
_symmetry_cell_setting	triclinic
loop_
_symmetry_equiv_pos_as_xyz
  x,y,z
_cell_length_a	8.597340
_cell_length_b	8.597304
_cell_length_c	16.776229
_cell_angle_alpha	82.293521
_cell_angle_beta	97.695000
_cell_angle_gamma	86.359595
loop_
_atom_site_label
_atom_site_type_symbol
_atom_site_fract_x
_atom_site_fract_y
_atom_site_fract_z
O1	O	2.085991	0.234297	0.060895
O2	O	1.629344	0.252274	0.028295
O3	O	1.866652	0.014955	0.060895
O4	O	1.848683	0.471616	0.028295
O5	O	1.866620	0.014940	0.193471
O6	O	1.629312	0.252259	0.160871
O7	O	2.085959	0.234282	0.193470
Zn8	Zn	1.857630	0.243268	0.198220
Zn9	Zn	1.857673	0.243288	0.023546
O10	O	1.848651	0.471601	0.160870
C11	C	1.570828	0.250337	0.090698
C12	C	1.396517	0.244567	0.079121
C13	C	1.864705	-0.043554	0.131067
C14	C	1.858932	-0.217870	0.142639
C15	C	2.144475	0.236219	0.131066
C16	C	2.318786	0.241989	0.142638
C17	C	1.850598	0.530110	0.090697
C18	C	1.856371	0.704426	0.079120
N19	N	1.857613	0.243253	0.317431
N20	N	1.857703	0.243290	-0.095663
C21	C	1.962726	0.138213	0.373582
C22	C	1.962735	0.138212	0.457035
C23	C	1.857637	0.243260	0.484335
C24	C	1.752512	0.348305	0.428176
C25	C	1.752497	0.348298	0.344725
C26	C	1.752569	0.348337	0.764725
C27	C	1.752596	0.348340	0.848183
C28	C	1.962807	0.138251	0.877035
C29	C	1.962792	0.138243	0.793584
C30	C	1.857663	0.243282	0.737433
C31	C	1.857652	0.243280	0.646944
C32	C	1.857653	0.243271	0.574822
H33	H	1.856691	-0.284708	0.205880
O34	O	2.064591	0.036114	0.766929
C35	C	2.157107	-0.057626	0.651156
C36	C	2.041921	0.058304	0.681230
H37	H	2.138796	-0.039749	0.581866
H38	H	2.283320	-0.035514	0.674541
H39	H	2.134403	-0.183534	0.674806
H40	H	2.064482	0.184256	0.657592
H41	H	1.915746	0.036055	0.657853
H42	H	1.385592	0.244185	0.205877
H43	H	1.667007	0.433886	0.870407
H44	H	1.329705	0.242360	0.015878
O45	O	1.858736	-0.215915	0.003631
C46	C	1.724814	-0.149925	-0.133627
C47	C	1.721928	-0.240181	-0.048164
H48	H	1.614234	-0.169538	-0.175532
H49	H	1.729052	-0.018791	-0.129911
H50	H	1.833370	-0.194719	-0.158722
H51	H	1.613386	-0.195519	-0.023019
H52	H	1.717773	-0.371301	-0.051931
H53	H	2.048315	0.052677	0.351362
H54	H	2.048324	0.052679	0.502755
O55	O	1.650403	0.450526	0.710297
C56	C	1.441838	0.658854	0.690493
C57	C	1.557487	0.543227	0.752225
H58	H	1.366662	0.733810	0.724368
H59	H	1.510715	0.738464	0.650694
H60	H	1.362441	0.589798	0.650707
H61	H	1.636911	0.612155	0.792065
H62	H	1.488512	0.463617	0.791968
H63	H	2.048405	0.052717	0.922763
H64	H	1.666931	0.433832	0.450408
O65	O	1.650338	0.450489	0.290286
C66	C	1.441766	0.658813	0.270469
C67	C	1.557411	0.543193	0.332208
H68	H	1.366583	0.733772	0.304339
H69	H	1.510647	0.738421	0.230671
H70	H	1.362377	0.589750	0.230683
H71	H	1.636828	0.612128	0.372048
H72	H	1.488433	0.463585	0.371949
