data_functionalizedCrystal
_audit_creation_method	'MofGen! by Chris Wilmer'
_symmetry_space_group_name_H-M	'P1'
_symmetry_Int_Tables_number	1
_symmetry_cell_setting	triclinic
loop_
_symmetry_equiv_pos_as_xyz
  x,y,z
_cell_length_a	16.625548
_cell_length_b	18.050589
_cell_length_c	16.625539
_cell_angle_alpha	89.975176
_cell_angle_beta	89.979432
_cell_angle_gamma	90.029289
loop_
_atom_site_label
_atom_site_type_symbol
_atom_site_fract_x
_atom_site_fract_y
_atom_site_fract_z
Zn1	Zn	1.232648	-0.295637	-0.455929
Zn2	Zn	1.732648	0.204363	0.044071
Zn3	Zn	1.232538	-0.419835	-0.321104
Zn4	Zn	1.732538	0.080165	0.178896
Zn5	Zn	1.097810	-0.295665	-0.321109
Zn6	Zn	1.597810	0.204335	0.178891
Zn7	Zn	1.097767	-0.419792	-0.455894
Zn8	Zn	1.597767	0.080208	0.044106
O9	O	1.165191	-0.357732	-0.388509
O10	O	1.665191	0.142268	0.111491
O11	O	1.345466	-0.312118	-0.438056
O12	O	1.845466	0.187882	0.061944
O13	O	1.214638	-0.403393	-0.208272
O14	O	1.714638	0.096607	0.291728
O15	O	1.115761	-0.191737	-0.339010
O16	O	1.615761	0.308263	0.160990
O17	O	1.345385	-0.403366	-0.339001
O18	O	1.845385	0.096634	0.160999
O19	O	1.214826	-0.191716	-0.438061
O20	O	1.714826	0.308284	0.061939
O21	O	1.115654	-0.312166	-0.208276
O22	O	1.615654	0.187834	0.291724
O23	O	0.984972	-0.312125	-0.338976
O24	O	1.484972	0.187875	0.161024
O25	O	1.115687	-0.403293	-0.568731
O26	O	1.615687	0.096707	-0.068731
O27	O	0.984940	-0.403320	-0.438002
O28	O	1.484940	0.096680	0.061998
O29	O	1.214784	-0.312077	-0.568757
O30	O	1.714784	0.187923	-0.068757
O31	O	1.214596	-0.523754	-0.338968
O32	O	1.714596	-0.023754	0.161032
O33	O	1.115580	-0.523722	-0.437997
O34	O	1.615580	-0.023722	0.062003
C35	C	0.955700	-0.357722	-0.388487
C36	C	1.455700	0.142278	0.111513
C37	C	0.866079	-0.357735	-0.388496
C38	C	1.366079	0.142265	0.111504
C39	C	0.537903	-0.357740	-0.388531
C40	C	1.037903	0.142260	0.111469
C41	C	0.629212	-0.357736	-0.388518
C42	C	1.129212	0.142264	0.111482
C43	C	0.701988	-0.357738	-0.388513
C44	C	1.201988	0.142262	0.111487
C45	C	0.793302	-0.357734	-0.388502
C46	C	1.293302	0.142266	0.111498
C47	C	1.165093	-0.550684	-0.388496
C48	C	1.665093	-0.050684	0.111504
C49	C	1.165126	-0.633230	-0.388517
C50	C	1.665126	-0.133230	0.111483
C51	C	1.111334	-0.832691	-0.442350
C52	C	1.611334	-0.332691	0.057650
C53	C	1.091677	-0.882133	-0.368775
C54	C	1.591677	-0.382133	0.131225
C55	C	1.165205	-0.784360	-0.388528
C56	C	1.665205	-0.284360	0.111472
C57	C	1.184901	-0.882000	-0.462112
C58	C	1.684901	-0.382000	0.037888
C59	C	1.165280	-0.930346	-0.388544
C60	C	1.665280	-0.430346	0.111456
C61	C	1.145510	-0.832715	-0.314913
C62	C	1.645510	-0.332715	0.185087
C63	C	1.238767	-0.832578	-0.408300
C64	C	1.738767	-0.332578	0.091700
C65	C	1.219139	-0.881998	-0.334673
C66	C	1.719139	-0.381998	0.165327
C67	C	1.165160	-0.700262	-0.388519
C68	C	1.665160	-0.200262	0.111481
C69	C	1.165325	-1.014442	-0.388544
C70	C	1.665325	-0.514442	0.111456
C71	C	1.375500	-0.357743	-0.388532
C72	C	1.875500	0.142257	0.111468
C73	C	1.465121	-0.357748	-0.388542
C74	C	1.965121	0.142252	0.111458
C75	C	1.165243	-0.357677	-0.598818
C76	C	1.665243	0.142323	-0.098818
C77	C	1.165266	-0.357653	-0.688439
C78	C	1.665266	0.142347	-0.188439
C79	C	1.165310	-0.164027	-0.388540
C80	C	1.665310	0.335973	0.111460
C81	C	1.165361	-0.081481	-0.388553
C82	C	1.665361	0.418519	0.111447
C83	C	1.165303	-0.357570	-1.016615
C84	C	1.665303	0.142430	-0.516615
C85	C	1.165290	-0.357596	-0.925307
C86	C	1.665290	0.142404	-0.425307
C87	C	1.165285	-0.357612	-0.852530
C88	C	1.665285	0.142388	-0.352530
C89	C	1.165271	-0.357637	-0.761216
C90	C	1.665271	0.142363	-0.261216
C91	C	1.165185	-0.357734	-0.179018
C92	C	1.665185	0.142266	0.320982
C93	C	1.165319	-0.357548	-0.089398
C94	C	1.665319	0.142452	0.410602
H95	H	1.065710	-0.811040	-0.487802
H96	H	1.565710	-0.311040	0.012198
O97	O	1.312985	-0.806678	-0.428178
O98	O	1.812985	-0.306678	0.071822
C99	C	1.369910	-0.832879	-0.372145
C100	C	1.869910	-0.332879	0.127855
H101	H	1.346049	-0.885300	-0.342204
H102	H	1.846049	-0.385300	0.157796
H103	H	1.380993	-0.788683	-0.324448
H104	H	1.880993	-0.288683	0.175552
C105	C	1.478661	-0.786006	-0.452586
C106	C	1.978661	-0.286006	0.047414
C107	C	1.449357	-0.850393	-0.415817
C108	C	1.949357	-0.350393	0.084183
H109	H	1.527669	-0.796806	-0.479523
H110	H	2.027669	-0.296806	0.020477
H111	H	1.440310	-0.768351	-0.490335
H112	H	1.940310	-0.268351	0.009665
H113	H	1.487890	-0.749182	-0.412832
H114	H	1.987890	-0.249182	0.087168
H115	H	1.440119	-0.887212	-0.455572
H116	H	1.940119	-0.387212	0.044428
H117	H	1.487708	-0.868055	-0.378075
H118	H	1.987708	-0.368055	0.121925
H119	H	1.029503	-0.903916	-0.352066
H120	H	1.529503	-0.403916	0.147934
O121	O	1.273515	-0.907797	-0.280382
O122	O	1.773515	-0.407797	0.219618
C123	C	1.273405	-0.985901	-0.281434
C124	C	1.773405	-0.485901	0.218566
H125	H	1.249402	-1.006221	-0.341742
H126	H	1.749402	-0.506221	0.158258
H127	H	1.233370	-1.007530	-0.230924
H128	H	1.733370	-0.507530	0.269076
C129	C	1.389272	-0.989594	-0.195275
C130	C	1.889272	-0.489594	0.304725
C131	C	1.359797	-1.014551	-0.269349
C132	C	1.859797	-0.514551	0.230651
H133	H	1.442562	-1.007268	-0.187817
H134	H	1.942562	-0.507268	0.312183
H135	H	1.389345	-0.936974	-0.194564
H136	H	1.889345	-0.436974	0.305436
H137	H	1.355902	-1.007620	-0.153192
H138	H	1.855902	-0.507620	0.346808
H139	H	1.393161	-0.996518	-0.311431
H140	H	1.893161	-0.496518	0.188569
H141	H	1.359732	-1.067169	-0.270067
H142	H	1.859732	-0.567169	0.229933
H143	H	1.128809	-0.811156	-0.252673
H144	H	1.628809	-0.311156	0.247327
O145	O	1.204650	-0.907740	-0.536402
O146	O	1.704650	-0.407740	-0.036402
C147	C	1.147642	-0.882632	-0.592938
C148	C	1.647642	-0.382632	-0.092938
H149	H	1.116914	-0.830672	-0.569013
H150	H	1.616914	-0.330672	-0.069013
H151	H	1.100700	-0.927658	-0.603446
H152	H	1.600700	-0.427658	-0.103446
C153	C	1.228027	-0.928394	-0.702205
C154	C	1.728027	-0.428394	-0.202205
C155	C	1.190291	-0.864571	-0.672822
C156	C	1.690291	-0.364571	-0.172822
H157	H	1.254333	-0.917255	-0.751482
H158	H	1.754333	-0.417255	-0.251482
H159	H	1.266433	-0.945312	-0.664116
H160	H	1.766433	-0.445312	-0.164116
H161	H	1.188902	-0.965909	-0.710955
H162	H	1.688902	-0.465909	-0.210955
H163	H	1.229417	-0.827060	-0.664063
H164	H	1.729417	-0.327060	-0.164063
H165	H	1.151892	-0.847646	-0.710912
H166	H	1.651892	-0.347646	-0.210912
