data_functionalizedCrystal
_audit_creation_method	'MofGen! by Chris Wilmer'
_symmetry_space_group_name_H-M	'P1'
_symmetry_Int_Tables_number	1
_symmetry_cell_setting	triclinic
loop_
_symmetry_equiv_pos_as_xyz
  x,y,z
_cell_length_a	15.995292
_cell_length_b	15.995350
_cell_length_c	14.472310
_cell_angle_alpha	90.001162
_cell_angle_beta	89.985801
_cell_angle_gamma	83.480495
loop_
_atom_site_label
_atom_site_type_symbol
_atom_site_fract_x
_atom_site_fract_y
_atom_site_fract_z
O1	O	1.111027	0.107689	-0.076861
O2	O	0.867245	0.121067	-0.076857
O3	O	0.995800	-0.007511	-0.076858
O4	O	0.982472	0.236267	-0.076860
O5	O	0.995767	-0.007503	0.076824
O6	O	0.867212	0.121075	0.076825
O7	O	1.110994	0.107696	0.076821
Cu8	Cu	0.989100	0.114386	0.090855
Cu9	Cu	0.989139	0.114378	-0.090892
O10	O	0.982439	0.236275	0.076822
C11	C	0.836033	0.120527	-0.000016
C12	C	0.743080	0.118894	-0.000014
C13	C	0.405341	0.112893	-0.000025
C14	C	0.428654	0.205697	-0.000368
C15	C	0.525329	0.207461	-0.000018
C16	C	0.572897	0.115871	-0.000020
C17	C	0.543777	0.069477	0.087737
C18	C	0.446986	0.068360	0.087807
C19	C	0.447168	0.066457	-0.086958
C20	C	0.543661	0.069896	-0.088114
C21	C	0.667593	0.117549	-0.000014
C22	C	0.310646	0.111212	-0.000024
C23	C	0.995232	-0.038702	-0.000019
C24	C	0.993580	-0.131652	-0.000024
C25	C	0.987648	-0.469398	-0.000021
C26	C	0.896094	-0.421945	-0.000364
C27	C	0.897746	-0.325255	-0.000018
C28	C	0.990591	-0.301838	-0.000023
C29	C	1.035730	-0.342921	0.087734
C30	C	1.033430	-0.439556	0.087808
C31	C	1.035359	-0.439923	-0.086958
C32	C	1.035337	-0.342978	-0.088117
C33	C	0.992259	-0.207141	-0.000021
C34	C	0.985983	-0.564095	-0.000017
C35	C	1.142206	0.108237	-0.000023
C36	C	1.235159	0.109870	-0.000030
C37	C	0.983006	0.267466	-0.000019
C38	C	0.984658	0.360416	-0.000020
N39	N	0.989078	0.114392	0.218686
N40	N	0.989167	0.114365	-0.218722
C41	C	0.989138	0.114374	0.592777
C42	C	0.920120	0.182943	0.553612
C43	C	0.920279	0.183193	0.446524
C44	C	0.989108	0.114383	0.407186
C45	C	1.076475	0.133447	0.446022
C46	C	1.076087	0.133934	0.553143
C47	C	0.971568	0.026538	0.553308
C48	C	0.969564	0.027124	0.446180
C49	C	0.989096	0.114386	0.302298
C50	C	0.989155	0.114373	0.697665
H51	H	0.562245	0.103675	-0.153037
F52	F	0.885561	0.008212	0.413007
H53	H	1.102861	-0.471698	-0.087551
H54	H	0.418855	0.095461	-0.153473
F55	F	1.031008	-0.042695	0.411194
F56	F	0.996246	-0.466756	-0.173898
F57	F	1.145210	0.069904	0.412717
F58	F	0.994717	-0.305814	0.173101
F59	F	0.992533	-0.306968	-0.172986
F60	F	0.585422	-0.018620	0.091999
H61	H	0.931499	0.248375	0.420889
H62	H	1.021900	-0.024488	0.578633
H63	H	0.931185	0.247758	0.580521
F64	F	0.569974	0.111595	0.173104
H65	H	0.861997	-0.297380	0.062999
F66	F	0.848278	-0.446159	-0.082623
F67	F	0.549371	0.255242	0.082350
H68	H	0.400671	0.241465	-0.063303
F69	F	0.586751	-0.017488	-0.095043
F70	F	0.411913	0.110367	0.173551
H71	H	1.103940	-0.328809	0.090994
H72	H	1.103045	-0.327630	-0.093420
H73	H	0.855338	0.171838	0.420269
F74	F	0.848335	-0.447823	0.081212
F75	F	0.834957	0.168336	0.587302
F76	F	0.390706	0.252201	0.081427
F77	F	0.550218	0.254950	-0.082243
F78	F	0.428883	-0.022831	-0.087734
F79	F	0.427963	-0.020575	0.093057
F80	F	1.097198	0.216219	0.410944
F81	F	0.851366	-0.288097	-0.082243
F82	F	0.990367	-0.463466	0.173554
H83	H	1.100647	-0.471818	0.091786
F84	F	1.096323	0.217662	0.585790
F85	F	1.145172	0.071073	0.587007
F86	F	0.890091	0.002585	0.588662
