data_functionalizedCrystal
_audit_creation_method	'MofGen! by Chris Wilmer'
_symmetry_space_group_name_H-M	'P1'
_symmetry_Int_Tables_number	1
_symmetry_cell_setting	triclinic
loop_
_symmetry_equiv_pos_as_xyz
  x,y,z
_cell_length_a	14.044191
_cell_length_b	14.044209
_cell_length_c	13.596369
_cell_angle_alpha	90.008557
_cell_angle_beta	89.997249
_cell_angle_gamma	86.810135
loop_
_atom_site_label
_atom_site_type_symbol
_atom_site_fract_x
_atom_site_fract_y
_atom_site_fract_z
O1	O	1.277172	-0.230202	-0.081755
O2	O	1.777172	0.269798	0.418245
O3	O	1.000499	-0.221889	-0.081767
O4	O	1.500499	0.278111	0.418233
O5	O	1.134684	-0.087709	-0.081748
O6	O	1.634684	0.412291	0.418252
O7	O	1.142987	-0.364381	-0.081775
O8	O	1.642987	0.135619	0.418225
O9	O	1.134669	-0.087700	0.081835
O10	O	1.634669	0.412300	0.581835
O11	O	1.000484	-0.221880	0.081816
O12	O	1.500484	0.278120	0.581816
O13	O	1.277156	-0.230193	0.081828
O14	O	1.777156	0.269807	0.581828
Zn15	Zn	1.138818	-0.226035	0.107794
Zn16	Zn	1.638818	0.273965	0.607794
Zn17	Zn	1.138838	-0.226047	-0.107734
Zn18	Zn	1.638838	0.273953	0.392266
O19	O	1.142972	-0.364372	0.081808
O20	O	1.642972	0.135628	0.581808
C21	C	0.964870	-0.218248	0.000023
C22	C	1.464870	0.281752	0.500023
C23	C	0.858727	-0.207401	0.000019
C24	C	1.358727	0.292599	0.500019
C25	C	0.613268	-0.264501	0.000023
C26	C	1.113268	0.235499	0.500023
C27	C	0.664394	-0.187585	0.000029
C28	C	1.164394	0.312415	0.500029
C29	C	0.772531	-0.198613	0.000023
C30	C	1.272531	0.301387	0.500023
C31	C	0.505121	-0.253474	0.000028
C32	C	1.005121	0.246526	0.500028
C33	C	1.131041	-0.052083	0.000045
C34	C	1.631041	0.447917	0.500045
C35	C	1.120197	0.054060	0.000049
C36	C	1.620197	0.554060	0.500049
C37	C	1.100372	0.248398	0.000040
C38	C	1.600372	0.748398	0.500040
C39	C	1.177287	0.299526	0.000042
C40	C	1.677287	0.799526	0.500042
C41	C	1.166257	0.407663	0.000037
C42	C	1.666257	0.907663	0.500037
C43	C	1.111402	0.140252	0.000045
C44	C	1.611402	0.640252	0.500045
C45	C	1.312786	-0.233834	0.000035
C46	C	1.812786	0.266166	0.500035
C47	C	1.418929	-0.244681	0.000033
C48	C	1.918929	0.255319	0.500033
C49	C	1.146617	0.600001	0.000021
C50	C	1.646617	1.100001	0.500021
C51	C	1.157467	0.493859	0.000033
C52	C	1.657467	0.993859	0.500033
N53	N	1.138811	-0.226027	0.254886
N54	N	1.638811	0.273973	0.754886
N55	N	1.138852	-0.226048	-0.254826
N56	N	1.638852	0.273952	0.245174
C57	C	1.138837	-0.226048	0.656177
C58	C	1.638837	0.273952	1.156177
C59	C	1.138827	-0.226045	0.544525
C60	C	1.638827	0.273955	1.044525
C61	C	1.138824	-0.226038	0.455535
C62	C	1.638824	0.273962	0.955535
C63	C	1.138814	-0.226034	0.343876
C64	C	1.638814	0.273966	0.843876
H65	H	0.650708	-0.338628	0.000012
H66	H	1.150708	0.161372	0.500012
O67	O	1.265751	0.254912	-0.000116
O68	O	1.765751	0.754912	0.499884
C69	C	1.315662	0.281650	-0.084817
C70	C	1.815662	0.781650	0.415183
H71	H	1.262584	0.306777	-0.144045
H72	H	1.762584	0.806777	0.355955
H73	H	1.363471	0.341973	-0.065658
H74	H	1.863471	0.841973	0.434342
C75	C	1.442490	0.164562	-0.050468
C76	C	1.942490	0.664562	0.449532
C77	C	1.377299	0.195417	-0.123216
C78	C	1.877299	0.695417	0.376784
H79	H	1.480514	0.111372	-0.074153
H80	H	1.980514	0.611372	0.425847
H81	H	1.408867	0.146551	0.006599
H82	H	1.908867	0.646551	0.506599
H83	H	1.482322	0.214840	-0.034509
H84	H	1.982322	0.714840	0.465491
H85	H	1.337461	0.145143	-0.139165
H86	H	1.837461	0.645143	0.360835
H87	H	1.410917	0.213418	-0.180287
H88	H	1.910917	0.713418	0.319713
O89	O	0.619884	-0.099073	0.000075
O90	O	1.119884	0.400927	0.500075
C91	C	0.688718	-0.029723	0.000048
C92	C	1.188718	0.470277	0.500048
H93	H	0.758675	-0.062087	0.031018
H94	H	1.258675	0.437913	0.531018
H95	H	0.700525	-0.004353	-0.078432
H96	H	1.200525	0.495647	0.421568
C97	C	0.567540	0.095228	0.026160
C98	C	1.067540	0.595228	0.526160
C99	C	0.653460	0.055480	0.064205
C100	C	1.153460	0.555480	0.564205
H101	H	0.545790	0.147787	0.065730
H102	H	1.045790	0.647787	0.565730
H103	H	0.521164	0.048507	0.026174
H104	H	1.021164	0.548507	0.526174
H105	H	0.577390	0.116362	-0.039240
H106	H	1.077390	0.616362	0.460760
H107	H	0.643606	0.034336	0.129598
H108	H	1.143606	0.534336	0.629598
H109	H	0.699833	0.102199	0.064203
H110	H	1.199833	0.602199	0.564203
O111	O	1.012006	0.293208	0.000085
O112	O	1.512006	0.793208	0.500085
C113	C	1.020528	0.392765	0.000059
C114	C	1.520528	0.892765	0.500059
H115	H	1.093091	0.409727	0.031023
H116	H	1.593091	0.909727	0.531023
H117	H	1.013604	0.420873	-0.078419
H118	H	1.513604	0.920873	0.421581
C119	C	0.852045	0.419801	0.026186
C120	C	1.352045	0.919801	0.526186
C121	C	0.941165	0.440634	0.064224
C122	C	1.441165	0.940634	0.564224
H123	H	0.803088	0.449330	0.065762
H124	H	1.303088	0.949330	0.565762
H125	H	0.846302	0.352727	0.026200
H126	H	1.346302	0.852727	0.526200
H127	H	0.846289	0.443225	-0.039212
H128	H	1.346289	0.943225	0.460788
H129	H	0.946925	0.417200	0.129616
H130	H	1.446925	0.917200	0.629616
H131	H	0.946907	0.507705	0.064223
H132	H	1.446907	1.007705	0.564223
