data_functionalizedCrystal
_audit_creation_method	'MofGen! by Chris Wilmer'
_symmetry_space_group_name_H-M	'P1'
_symmetry_Int_Tables_number	1
_symmetry_cell_setting	triclinic
loop_
_symmetry_equiv_pos_as_xyz
  x,y,z
_cell_length_a	29.839134
_cell_length_b	29.839131
_cell_length_c	25.639234
_cell_angle_alpha	89.974256
_cell_angle_beta	89.979476
_cell_angle_gamma	90.021992
loop_
_atom_site_label
_atom_site_type_symbol
_atom_site_fract_x
_atom_site_fract_y
_atom_site_fract_z
Zn1	Zn	0.686756	-0.179114	-0.295616
Zn2	Zn	0.686678	-0.254236	-0.208179
Zn3	Zn	0.611628	-0.179095	-0.208194
Zn4	Zn	0.611587	-0.254192	-0.295582
O5	O	0.649162	-0.216659	-0.251893
O6	O	0.749613	-0.189105	-0.284025
O7	O	0.676707	-0.244280	-0.135016
O8	O	0.621644	-0.116231	-0.219810
O9	O	0.749555	-0.244297	-0.219786
O10	O	0.676841	-0.116244	-0.284039
O11	O	0.621568	-0.189074	-0.135026
O12	O	0.548756	-0.189031	-0.219778
O13	O	0.621574	-0.244222	-0.368752
O14	O	0.548725	-0.244204	-0.283982
O15	O	0.676801	-0.189062	-0.368777
O16	O	0.676666	-0.317097	-0.219753
O17	O	0.621498	-0.317065	-0.283968
C18	C	0.532440	-0.216611	-0.251878
C19	C	0.482505	-0.216601	-0.251884
C20	C	0.125944	-0.187981	-0.285408
C21	C	0.313617	-0.187944	-0.285396
O22	O	0.337904	-0.163553	-0.313897
N23	N	0.337060	-0.216631	-0.251897
C24	C	0.313582	-0.245330	-0.218400
O25	O	0.337828	-0.269732	-0.189911
C26	C	0.125910	-0.245368	-0.218416
C27	C	0.102469	-0.216677	-0.251913
C28	C	0.102504	-0.159292	-0.318903
C29	C	0.055588	-0.159299	-0.318904
C30	C	0.032113	-0.187996	-0.285409
C31	C	0.055554	-0.216684	-0.251914
C32	C	0.102432	-0.274070	-0.184922
C33	C	0.055511	-0.274077	-0.184930
C34	C	0.032071	-0.245386	-0.218428
C35	C	-0.014837	-0.245388	-0.218420
N36	N	-0.038279	-0.216702	-0.251919
C37	C	-0.014805	-0.188006	-0.285414
C38	C	0.412113	-0.245308	-0.218394
C39	C	0.459031	-0.245298	-0.218390
C40	C	0.459063	-0.187912	-0.285386
C41	C	0.412144	-0.187920	-0.285388
C42	C	0.388670	-0.216621	-0.251893
C43	C	-0.113330	-0.188024	-0.285412
C44	C	-0.160250	-0.188032	-0.285409
C45	C	-0.160278	-0.245419	-0.218414
C46	C	-0.113362	-0.245409	-0.218416
C47	C	-0.089890	-0.216710	-0.251919
O48	O	-0.039152	-0.269771	-0.189938
O49	O	-0.039059	-0.163615	-0.313908
C50	C	0.172860	-0.187973	-0.285407
C51	C	0.196300	-0.216662	-0.251912
C52	C	0.172825	-0.245358	-0.218417
C53	C	0.243218	-0.216652	-0.251907
C54	C	0.266693	-0.187955	-0.285402
C55	C	0.243250	-0.159269	-0.318901
C56	C	0.196335	-0.159277	-0.318902
C57	C	0.196268	-0.274044	-0.184918
C58	C	0.243184	-0.274034	-0.184920
C59	C	0.266659	-0.245338	-0.218414
C60	C	0.649081	-0.333382	-0.251867
C61	C	0.649088	-0.383316	-0.251873
C62	C	0.677941	-0.692964	-0.218505
C63	C	0.677996	-0.880637	-0.218525
O64	O	0.702464	-0.904905	-0.190134
N65	N	0.649256	-0.904101	-0.251932
C66	C	0.620501	-0.880644	-0.285339
O67	O	0.596059	-0.904909	-0.313758
C68	C	0.620448	-0.692972	-0.285321
C69	C	0.649187	-0.669510	-0.251908
C70	C	0.706679	-0.669502	-0.185095
C71	C	0.706663	-0.622587	-0.185088
C72	C	0.677909	-0.599133	-0.218491
C73	C	0.649172	-0.622595	-0.251901
C74	C	0.591696	-0.669516	-0.318730
C75	C	0.591686	-0.622595	-0.318723
C76	C	0.620425	-0.599133	-0.285310
C77	C	0.620402	-0.552226	-0.285297
N78	N	0.649143	-0.528762	-0.251890
C79	C	0.677897	-0.552215	-0.218487
C80	C	0.620530	-0.979175	-0.285345
C81	C	0.620542	-1.026093	-0.285349
C82	C	0.678039	-1.026082	-0.218536
C83	C	0.678024	-0.979163	-0.218530
C84	C	0.649271	-0.955711	-0.251938
C85	C	0.677861	-0.453689	-0.218475
C86	C	0.677841	-0.406770	-0.218470
C87	C	0.620347	-0.406785	-0.285285
C88	C	0.620364	-0.453700	-0.285289
C89	C	0.649125	-0.477151	-0.251882
O90	O	0.595951	-0.527929	-0.313678
O91	O	0.702341	-0.527943	-0.190081
C92	C	0.677957	-0.739879	-0.218512
C93	C	0.649219	-0.763341	-0.251921
C94	C	0.620466	-0.739888	-0.285324
C95	C	0.649232	-0.810259	-0.251925
C96	C	0.677985	-0.833713	-0.218522
C97	C	0.706726	-0.810248	-0.185115
C98	C	0.706710	-0.763333	-0.185109
C99	C	0.591725	-0.763352	-0.318731
C100	C	0.591743	-0.810268	-0.318735
C101	C	0.620496	-0.833721	-0.285332
C102	C	0.766341	-0.216708	-0.251908
C103	C	0.816275	-0.216729	-0.251914
C104	C	0.649192	-0.216639	-0.388266
C105	C	0.649204	-0.216630	-0.446380
C106	C	0.649256	-0.099481	-0.251930
C107	C	0.649296	-0.049546	-0.251946
C108	C	0.620506	-0.187831	-0.806754
C109	C	0.620508	-0.187823	-0.861358
O110	O	0.596086	-0.163386	-0.889605
N111	N	0.649219	-0.216560	-0.888663
C112	C	0.677926	-0.245309	-0.861359
O113	O	0.702346	-0.269752	-0.889598
C114	C	0.677921	-0.245320	-0.806756
C115	C	0.649211	-0.216578	-0.779455
C116	C	0.591799	-0.159092	-0.779453
C117	C	0.591797	-0.159100	-0.724852
C118	C	0.620503	-0.187846	-0.697553
C119	C	0.649210	-0.216585	-0.724854
C120	C	0.706625	-0.274071	-0.779454
C121	C	0.706617	-0.274079	-0.724847
C122	C	0.677908	-0.245337	-0.697546
C123	C	0.677913	-0.245340	-0.642954
N124	N	0.649203	-0.216603	-0.615650
C125	C	0.620498	-0.187856	-0.642950
C126	C	0.677933	-0.245287	-0.976030
C127	C	0.677941	-0.245275	-1.030632
C128	C	0.620523	-0.187789	-1.030628
C129	C	0.620518	-0.187799	-0.976024
C130	C	0.649223	-0.216550	-0.948726
C131	C	0.620496	-0.187874	-0.528284
C132	C	0.620499	-0.187883	-0.473679
C133	C	0.677915	-0.245371	-0.473689
C134	C	0.677914	-0.245361	-0.528289
C135	C	0.649202	-0.216611	-0.555586
O136	O	0.702322	-0.269765	-0.614674
O137	O	0.596077	-0.163422	-0.614705
C138	C	0.649159	-0.216647	-0.116050
C139	C	0.649234	-0.216529	-0.057936
H140	H	0.121612	-0.135924	-0.346182
H141	H	0.597116	-0.164463	-0.550503
O142	O	0.268462	-0.304982	-0.148785
H143	H	0.289831	-0.284844	-0.122220
H144	H	0.701287	-0.268774	-0.451452
O145	O	0.560841	-0.128077	-0.808891
H146	H	0.537962	-0.148161	-0.833756
O147	O	0.737580	-0.305091	-0.695407
H148	H	0.732755	-0.300274	-0.652850
H149	H	0.597141	-0.164394	-0.953799
H150	H	0.701324	-0.268674	-1.052857
O151	O	0.560701	-0.738058	-0.354749
H152	H	0.540716	-0.762261	-0.377971
H153	H	0.730137	-0.829352	-0.157916
H154	H	0.596934	-0.387681	-0.312480
O155	O	0.708882	-0.276356	-0.557739
H156	H	0.688756	-0.299200	-0.582601
O157	O	0.708900	-0.276294	-0.946587
H158	H	0.731768	-0.256200	-0.921720
H159	H	-0.094225	-0.164654	-0.312694
O160	O	0.589560	-0.156782	-1.060076
H161	H	0.594387	-0.161608	-1.102631
H162	H	0.730002	-0.297476	-0.801673
H163	H	-0.179333	-0.164666	-0.312686
H164	H	0.177160	-0.297413	-0.157642
O165	O	0.708847	-0.381467	-0.182435
H166	H	0.704006	-0.344901	-0.188038
H167	H	0.262371	-0.135902	-0.346172
H168	H	0.036507	-0.135938	-0.346184
O169	O	0.709059	-1.051387	-0.182518
H170	H	0.688975	-1.072795	-0.155900
H171	H	0.036401	-0.297451	-0.157656
H172	H	0.701282	-0.472778	-0.191274
H173	H	0.393062	-0.164557	-0.312664
H174	H	0.568417	-0.135697	-0.702628
O175	O	0.589535	-0.156880	-0.444231
H176	H	0.569573	-0.136892	-0.472391
H177	H	0.730096	-0.688593	-0.157894
H178	H	0.730066	-0.603487	-0.157882
H179	H	0.568336	-0.829366	-0.345943
O180	O	0.484384	-0.156960	-0.321515
H181	H	0.505763	-0.177098	-0.348071
O182	O	0.484312	-0.276237	-0.182254
H183	H	0.460101	-0.296194	-0.158969
H184	H	0.393004	-0.268680	-0.191117
H185	H	0.597136	-1.045192	-0.312552
O186	O	0.737713	-0.738030	-0.149076
H187	H	0.757710	-0.762227	-0.125857
H188	H	0.121510	-0.297433	-0.157645
O189	O	0.560701	-0.694815	-0.354772
H190	H	0.540712	-0.670617	-0.378000
H191	H	-0.179400	-0.268781	-0.191142
O192	O	-0.088074	-0.276349	-0.182285
H193	H	-0.097083	-0.311620	-0.191182
O194	O	0.171054	-0.128333	-0.355034
H195	H	0.195267	-0.108383	-0.378325
H196	H	0.701426	-0.960064	-0.191323
O197	O	0.589505	-0.953881	-0.321368
H198	H	0.569519	-0.978084	-0.344588
H199	H	0.568272	-0.603502	-0.345930
H200	H	0.596964	-0.472804	-0.312498
