data_functionalizedCrystal
_audit_creation_method	'MofGen! by Chris Wilmer'
_symmetry_space_group_name_H-M	'P1'
_symmetry_Int_Tables_number	1
_symmetry_cell_setting	triclinic
loop_
_symmetry_equiv_pos_as_xyz
  x,y,z
_cell_length_a	13.897448
_cell_length_b	21.395362
_cell_length_c	21.395355
_cell_angle_alpha	89.956060
_cell_angle_beta	90.015629
_cell_angle_gamma	89.966429
loop_
_atom_site_label
_atom_site_type_symbol
_atom_site_fract_x
_atom_site_fract_y
_atom_site_fract_z
Zn1	Zn	-0.383718	-0.957916	0.354598
Zn2	Zn	-0.544997	-0.957842	0.249826
Zn3	Zn	-0.383763	-0.853131	0.249799
Zn4	Zn	-0.545017	-0.853124	0.354531
O5	O	-0.464374	-0.905503	0.302189
O6	O	-0.405085	-1.045584	0.340739
O7	O	-0.523620	-0.943924	0.162145
O8	O	-0.248775	-0.867065	0.263718
O9	O	-0.523576	-1.045530	0.263764
O10	O	-0.248742	-0.944050	0.340714
O11	O	-0.405161	-0.866993	0.162125
O12	O	-0.405181	-0.765452	0.263653
O13	O	-0.523610	-0.867053	0.442218
O14	O	-0.523654	-0.765447	0.340599
O15	O	-0.405104	-0.944043	0.442267
O16	O	-0.679982	-0.943918	0.263698
O17	O	-0.679996	-0.866981	0.340624
C18	C	-0.464425	-0.742716	0.302116
C19	C	-0.464470	-0.673074	0.302100
C20	C	-0.714988	-0.905458	0.302170
C21	C	-0.822202	-0.905495	0.302184
C22	C	-0.464354	-0.905555	0.465612
C23	C	-0.464346	-0.905578	0.535253
C24	C	-1.018497	-0.905561	0.302223
C25	C	-0.909265	-0.905523	0.302203
C26	C	-0.212781	-0.905566	0.302221
C27	C	-0.105567	-0.905593	0.302234
C28	C	-0.464323	-1.068927	0.302262
C29	C	-0.464302	-1.138568	0.302293
C30	C	-0.526240	-0.640375	0.342105
C31	C	-0.526217	-0.574940	0.342133
C32	C	-0.464433	-0.542206	0.302144
C33	C	-0.402650	-0.574913	0.262136
C34	C	-0.402669	-0.640348	0.262114
C35	C	-0.456662	-0.438480	0.245739
C36	C	-0.456650	-0.373047	0.245760
C37	C	-0.464370	-0.340385	0.302214
C38	C	-0.472121	-0.373165	0.358647
C39	C	-0.472140	-0.438599	0.358625
C40	C	-0.464405	-0.471254	0.302164
C41	C	-0.526118	-0.236734	0.342253
C42	C	-0.526088	-0.171297	0.342282
C43	C	-0.402526	-0.171272	0.262279
C44	C	-0.402551	-0.236707	0.262255
C45	C	-0.464352	-0.269434	0.302242
C46	C	-0.464324	-0.905488	0.139401
C47	C	-0.464060	-0.905587	0.069760
C48	C	-0.402637	-0.945665	0.567993
C49	C	-0.402596	-0.945664	0.633429
C50	C	-0.464280	-0.905582	0.666122
C51	C	-0.525993	-0.865488	0.633374
C52	C	-0.526026	-0.865485	0.567940
C53	C	-0.551135	-0.900619	0.769788
C54	C	-0.551103	-0.900626	0.835221
C55	C	-0.464178	-0.905586	0.867942
C56	C	-0.377282	-0.910553	0.835223
C57	C	-0.377315	-0.910550	0.769788
C58	C	-0.464251	-0.905580	0.737074
C59	C	-0.402419	-0.945675	0.971635
C60	C	-0.402376	-0.945669	1.037072
C61	C	-0.525782	-0.865496	1.037016
C62	C	-0.525817	-0.865498	0.971580
C63	C	-0.464137	-0.905591	0.938894
H64	H	-0.576562	-0.667017	0.374666
C65	C	-0.334774	-0.989759	0.532042
N66	N	-0.283655	-1.022969	0.504963
C67	C	-0.594175	-0.538963	0.386142
N68	N	-0.645363	-0.511867	0.419289
H69	H	-0.576214	-0.832851	0.659997
C70	C	-0.594089	-0.272735	0.386245
N71	N	-0.645283	-0.299850	0.419382
C72	C	-0.448174	-0.474402	0.183631
N73	N	-0.441782	-0.501457	0.136853
H74	H	-0.306560	-0.914593	0.743151
C75	C	-0.448116	-0.336997	0.183683
N76	N	-0.441684	-0.309845	0.136924
C77	C	-0.480666	-0.474653	0.420701
N78	N	-0.487086	-0.501809	0.467457
H79	H	-0.352343	-0.548258	0.229578
H80	H	-0.306499	-0.914593	0.861863
C81	C	-0.334718	-0.676318	0.218099
N82	N	-0.283539	-0.703412	0.184945
H83	H	-0.576073	-0.832859	0.944923
C84	C	-0.334715	-0.989768	0.669450
N85	N	-0.283589	-1.022990	0.696579
C86	C	-0.334562	-0.989771	0.935678
N87	N	-0.283450	-1.022984	0.908597
C88	C	-0.593916	-0.821386	0.531925
N89	N	-0.645053	-0.788170	0.504797
H90	H	-0.478406	-0.346573	0.404617
C91	C	-0.334486	-0.989770	1.073085
N92	N	-0.283351	-1.022988	1.100212
C93	C	-0.593637	-0.821407	1.072974
N94	N	-0.644747	-0.788197	1.100061
C95	C	-0.646691	-0.895163	0.871207
N96	N	-0.718690	-0.891046	0.898310
H97	H	-0.576387	-0.144674	0.374863
H98	H	-0.621902	-0.896413	0.743152
C99	C	-0.334562	-0.135269	0.218291
N100	N	-0.283368	-0.108148	0.185159
H101	H	-0.352256	-0.263332	0.229675
