data_functionalizedCrystal
_audit_creation_method	'MofGen! by Chris Wilmer'
_symmetry_space_group_name_H-M	'P1'
_symmetry_Int_Tables_number	1
_symmetry_cell_setting	triclinic
loop_
_symmetry_equiv_pos_as_xyz
  x,y,z
_cell_length_a	13.897449
_cell_length_b	18.101397
_cell_length_c	13.897441
_cell_angle_alpha	89.966068
_cell_angle_beta	89.978743
_cell_angle_gamma	90.021292
loop_
_atom_site_label
_atom_site_type_symbol
_atom_site_fract_x
_atom_site_fract_y
_atom_site_fract_z
Zn1	Zn	1.474664	-0.294797	-0.545421
Zn2	Zn	1.474556	-0.418650	-0.384110
Zn3	Zn	1.313359	-0.294829	-0.384132
Zn4	Zn	1.313327	-0.418603	-0.545355
O5	O	1.393976	-0.356720	-0.464754
O6	O	1.609631	-0.311233	-0.524041
O7	O	1.453141	-0.402258	-0.249131
O8	O	1.334815	-0.191192	-0.405564
O9	O	1.609552	-0.402227	-0.405527
O10	O	1.453325	-0.191168	-0.524062
O11	O	1.334710	-0.311287	-0.249147
O12	O	1.178373	-0.311241	-0.405500
O13	O	1.334760	-0.402146	-0.680346
O14	O	1.178349	-0.402177	-0.523950
O15	O	1.453294	-0.311186	-0.680394
O16	O	1.453110	-0.522277	-0.405463
O17	O	1.334656	-0.522242	-0.523929
C18	C	1.143362	-0.356708	-0.464721
C19	C	1.036148	-0.356721	-0.464729
C20	C	0.949078	-0.356724	-0.464745
C21	C	0.839846	-0.356729	-0.464775
C22	C	1.393894	-0.549130	-0.464708
C23	C	1.393947	-0.631444	-0.464720
C24	C	1.394070	-0.930535	-0.464808
C25	C	1.468390	-0.899201	-0.390073
C26	C	1.468648	-0.813583	-0.390266
C27	C	1.394009	-0.782153	-0.464763
C28	C	1.421566	-0.813155	-0.566438
C29	C	1.422141	-0.898800	-0.566031
C30	C	1.291994	-0.899046	-0.438749
C31	C	1.292498	-0.813397	-0.436479
C32	C	1.393973	-0.698293	-0.464745
C33	C	1.394108	-1.014395	-0.464834
C34	C	1.645569	-0.356732	-0.464789
C35	C	1.752783	-0.356737	-0.464803
C36	C	1.394035	-0.356657	-0.716348
C37	C	1.394061	-0.356631	-0.823562
C38	C	1.394085	-0.163558	-0.464822
C39	C	1.394132	-0.081244	-0.464851
C40	C	1.394080	-0.356610	-0.910631
C41	C	1.394108	-0.356577	-1.019864
C42	C	1.393973	-0.356728	-0.214140
C43	C	1.394135	-0.356546	-0.106927
H44	H	1.451407	-0.792625	-0.314876
H45	H	1.271720	-0.793142	-0.361655
H46	H	1.266925	-0.920711	-0.365893
H47	H	1.370380	-0.919525	-0.623634
H48	H	1.236620	-0.919310	-0.493182
H49	H	1.369089	-0.792794	-0.623619
H50	H	1.544260	-0.793038	-0.407508
H51	H	1.495343	-0.791646	-0.588885
H52	H	1.234145	-0.792010	-0.486926
H53	H	1.451358	-0.919848	-0.314457
H54	H	1.496753	-0.918717	-0.588105
H55	H	1.543589	-0.920668	-0.407117
