data_functionalizedCrystal
_audit_creation_method	'MofGen! by Chris Wilmer'
_symmetry_space_group_name_H-M	'P1'
_symmetry_Int_Tables_number	1
_symmetry_cell_setting	triclinic
loop_
_symmetry_equiv_pos_as_xyz
  x,y,z
_cell_length_a	18.101398
_cell_length_b	29.839131
_cell_length_c	18.101389
_cell_angle_alpha	89.971059
_cell_angle_beta	89.975673
_cell_angle_gamma	90.030494
loop_
_atom_site_label
_atom_site_type_symbol
_atom_site_fract_x
_atom_site_fract_y
_atom_site_fract_z
Zn1	Zn	1.132100	-0.178957	-0.418785
Zn2	Zn	1.632100	0.321043	0.081215
Zn3	Zn	1.131987	-0.254074	-0.294920
Zn4	Zn	1.631987	0.245926	0.205080
Zn5	Zn	1.008259	-0.178952	-0.294946
Zn6	Zn	1.508259	0.321048	0.205054
Zn7	Zn	1.008200	-0.254055	-0.418709
Zn8	Zn	1.508200	0.245945	0.081291
O9	O	1.070136	-0.216510	-0.356840
O10	O	1.570136	0.283490	0.143160
O11	O	1.235718	-0.188932	-0.402375
O12	O	1.735718	0.311068	0.097625
O13	O	1.115551	-0.244115	-0.191291
O14	O	1.615551	0.255885	0.308709
O15	O	1.024758	-0.116086	-0.311415
O16	O	1.524758	0.383914	0.188585
O17	O	1.235635	-0.244119	-0.311372
O18	O	1.735635	0.255881	0.188628
O19	O	1.115744	-0.116089	-0.402399
O20	O	1.615744	0.383911	0.097601
O21	O	1.024648	-0.188924	-0.191309
O22	O	1.524648	0.311076	0.308691
O23	O	0.904618	-0.188905	-0.311342
O24	O	1.404618	0.311095	0.188658
O25	O	1.024659	-0.244087	-0.522352
O26	O	1.524659	0.255913	-0.022352
O27	O	0.904575	-0.244082	-0.402270
O28	O	1.404575	0.255918	0.097730
O29	O	1.115687	-0.188913	-0.522407
O30	O	1.615687	0.311087	-0.022407
O31	O	1.115495	-0.316938	-0.311299
O32	O	1.615495	0.183062	0.188701
O33	O	1.024549	-0.316924	-0.402246
O34	O	1.524549	0.183076	0.097754
C35	C	0.877726	-0.216491	-0.356801
C36	C	1.377726	0.283509	0.143199
C37	C	0.795412	-0.216494	-0.356802
C38	C	1.295412	0.283506	0.143198
C39	C	0.496321	-0.216522	-0.356864
C40	C	0.996321	0.283478	0.143136
C41	C	0.527648	-0.181633	-0.299934
C42	C	1.027648	0.318367	0.200066
C43	C	0.613266	-0.181726	-0.299691
C44	C	1.113266	0.318274	0.200309
C45	C	0.644703	-0.216508	-0.356834
C46	C	1.144703	0.283492	0.143166
C47	C	0.613580	-0.263830	-0.335495
C48	C	1.113580	0.236170	0.164505
C49	C	0.527934	-0.263636	-0.335099
C50	C	1.027934	0.236364	0.164901
C51	C	0.527937	-0.204501	-0.435267
C52	C	1.027937	0.295499	0.064733
C53	C	0.613588	-0.203447	-0.434840
C54	C	1.113588	0.296553	0.065160
C55	C	0.728563	-0.216503	-0.356817
C56	C	1.228563	0.283497	0.143183
C57	C	0.412461	-0.216531	-0.356879
C58	C	0.912461	0.283469	0.143121
C59	C	1.070023	-0.333232	-0.356777
C60	C	1.570023	0.166768	0.143223
C61	C	1.070043	-0.383167	-0.356775
C62	C	1.570043	0.116833	0.143225
C63	C	1.117502	-0.692777	-0.404283
C64	C	1.617502	-0.192777	0.095717
C65	C	1.117583	-0.880450	-0.404327
C66	C	1.617583	-0.380450	0.095673
O67	O	1.157824	-0.904687	-0.444673
O68	O	1.657824	-0.404687	0.055327
N69	N	1.070262	-0.903952	-0.356922
N70	N	1.570262	-0.403952	0.143078
C71	C	1.022915	-0.880532	-0.309506
C72	C	1.522915	-0.380532	0.190494
O73	O	0.982662	-0.904828	-0.269191
O74	O	1.482662	-0.404828	0.230809
C75	C	1.022831	-0.692860	-0.309466
C76	C	1.522831	-0.192860	0.190534
C77	C	1.070160	-0.669361	-0.356869
C78	C	1.570160	-0.169361	0.143131
C79	C	1.164827	-0.669277	-0.451682
C80	C	1.664827	-0.169277	0.048318
C81	C	1.164809	-0.622362	-0.451668
C82	C	1.664809	-0.122362	0.048332
C83	C	1.117467	-0.598946	-0.404254
C84	C	1.617467	-0.098946	0.095746
C85	C	1.070142	-0.622445	-0.356854
C86	C	1.570142	-0.122445	0.143146
C87	C	0.975481	-0.669441	-0.262054
C88	C	1.475481	-0.169441	0.237946
C89	C	0.975463	-0.622520	-0.262049
C90	C	1.475463	-0.122520	0.237951
C91	C	1.022792	-0.599021	-0.309452
C92	C	1.522792	-0.099021	0.190548
C93	C	1.022783	-0.552114	-0.309426
C94	C	1.522783	-0.052114	0.190574
N95	N	1.070103	-0.528612	-0.356831
N96	N	1.570103	-0.028612	0.143169
C97	C	1.117445	-0.552028	-0.404245
C98	C	1.617445	-0.052028	0.095755
C99	C	1.022963	-0.979063	-0.309529
C100	C	1.522963	-0.479063	0.190471
C101	C	1.022985	-1.025981	-0.309538
C102	C	1.522985	-0.525981	0.190462
C103	C	1.117652	-1.025895	-0.404361
C104	C	1.617652	-0.525895	0.095639
C105	C	1.117633	-0.978976	-0.404347
C106	C	1.617633	-0.478976	0.095653
C107	C	1.070284	-0.955561	-0.356934
C108	C	1.570284	-0.455561	0.143066
C109	C	1.117405	-0.453502	-0.404210
C110	C	1.617405	0.046498	0.095790
C111	C	1.117385	-0.406583	-0.404190
C112	C	1.617385	0.093417	0.095810
C113	C	1.022716	-0.406672	-0.309370
C114	C	1.522716	0.093328	0.190630
C115	C	1.022738	-0.453588	-0.309388
C116	C	1.522738	0.046412	0.190612
C117	C	1.070085	-0.477002	-0.356814
C118	C	1.570085	0.022998	0.143186
O119	O	0.982557	-0.527848	-0.269107
O120	O	1.482557	-0.027848	0.230893
O121	O	1.157680	-0.527724	-0.444565
O122	O	1.657680	-0.027724	0.055435
C123	C	1.117520	-0.739692	-0.404297
C124	C	1.617520	-0.239692	0.095703
C125	C	1.070196	-0.763192	-0.356897
C126	C	1.570196	-0.263192	0.143103
C127	C	1.022853	-0.739776	-0.309483
C128	C	1.522853	-0.239776	0.190517
C129	C	1.070217	-0.810109	-0.356906
C130	C	1.570217	-0.310109	0.143094
C131	C	1.117559	-0.833526	-0.404321
C132	C	1.617559	-0.333526	0.095679
C133	C	1.164880	-0.810024	-0.451726
C134	C	1.664880	-0.310024	0.048274
C135	C	1.164862	-0.763108	-0.451711
C136	C	1.664862	-0.263108	0.048289
C137	C	0.975533	-0.763277	-0.262078
C138	C	1.475533	-0.263277	0.237922
C139	C	0.975555	-0.810193	-0.262096
C140	C	1.475555	-0.310193	0.237904
C141	C	1.022897	-0.833609	-0.309510
C142	C	1.522897	-0.333609	0.190490
C143	C	1.263298	-0.216528	-0.356879
C144	C	1.763298	0.283472	0.143121
C145	C	1.345612	-0.216536	-0.356896
C146	C	1.845612	0.283464	0.143104
C147	C	1.070179	-0.216498	-0.550002
C148	C	1.570179	0.283502	-0.050002
C149	C	1.070197	-0.216493	-0.632316
C150	C	1.570197	0.283507	-0.132316
C151	C	1.070270	-0.099331	-0.356919
C152	C	1.570270	0.400669	0.143081
C153	C	1.070327	-0.049397	-0.356952
C154	C	1.570327	0.450603	0.143048
C155	C	1.070241	-0.216409	-0.931407
C156	C	1.570241	0.283591	-0.431407
C157	C	1.012771	-0.251013	-0.900047
C158	C	1.512771	0.248987	-0.400047
C159	C	1.012926	-0.251173	-0.814429
C160	C	1.512926	0.248827	-0.314429
C161	C	1.070219	-0.216451	-0.783025
C162	C	1.570219	0.283549	-0.283025
C163	C	1.148242	-0.229306	-0.814126
C164	C	1.648242	0.270694	-0.314126
C165	C	1.147922	-0.229533	-0.899771
C166	C	1.647922	0.270467	-0.399771
C167	C	1.050365	-0.168874	-0.899846
C168	C	1.550365	0.331126	-0.399846
C169	C	1.048629	-0.169148	-0.814195
C170	C	1.548629	0.330852	-0.314195
C171	C	1.070211	-0.216474	-0.699165
C172	C	1.570211	0.283526	-0.199165
C173	C	1.070253	-0.216387	-1.015267
C174	C	1.570253	0.283613	-0.515267
C175	C	1.070136	-0.216488	-0.164429
C176	C	1.570136	0.283512	0.335571
C177	C	1.070262	-0.216367	-0.082116
C178	C	1.570262	0.283633	0.417884
H179	H	0.506369	-0.170595	-0.454666
H180	H	1.006369	0.329405	0.045334
N181	N	1.168691	-1.051165	-0.455512
N182	N	1.668691	-0.551165	0.044488
H183	H	1.157137	-1.042985	-0.508409
H184	H	1.657137	-0.542985	-0.008409
H185	H	1.221598	-1.042981	-0.444025
H186	H	1.721598	-0.542981	0.055975
H187	H	0.634990	-0.227008	-0.479532
H188	H	1.134990	0.272992	0.020468
N189	N	1.215900	-0.737765	-0.502846
N190	N	1.715900	-0.237765	-0.002846
H191	H	1.250234	-0.718293	-0.472787
H192	H	1.750234	-0.218293	0.027213
H193	H	1.245839	-0.759751	-0.532873
H194	H	1.745839	-0.259751	-0.032873
N195	N	1.170232	-0.275563	-0.926227
N196	N	1.670232	0.224437	-0.426227
H197	H	1.129052	-0.288858	-0.956827
H198	H	1.629052	0.211142	-0.456827
H199	H	1.216423	-0.273124	-0.957289
H200	H	1.716423	0.226876	-0.457289
H201	H	0.954739	-0.243050	-0.920635
H202	H	1.454739	0.256950	-0.420635
N203	N	0.971701	-0.478937	-0.258254
N204	N	1.471701	0.021063	0.241746
H205	H	0.941710	-0.456982	-0.228213
H206	H	1.441710	0.043018	0.271787
H207	H	0.937416	-0.498405	-0.288371
H208	H	1.437416	0.001595	0.211629
H209	H	1.155954	-0.472560	-0.442834
H210	H	1.655954	0.027440	0.057166
H211	H	0.507677	-0.229913	-0.477686
H212	H	1.007677	0.270087	0.022314
N213	N	1.105807	-0.134721	-0.926709
N214	N	1.605807	0.365279	-0.426709
H215	H	1.143619	-0.149941	-0.959164
H216	H	1.643619	0.350059	-0.459164
H217	H	1.079472	-0.110745	-0.955980
H218	H	1.579472	0.389255	-0.455980
N219	N	0.501425	-0.277136	-0.259174
N220	N	1.001425	0.222864	0.240826
H221	H	0.470814	-0.252145	-0.237324
H222	H	0.970814	0.247855	0.262676
H223	H	0.470361	-0.305158	-0.263105
H224	H	0.970361	0.194842	0.236895
H225	H	0.633941	-0.290522	-0.375662
H226	H	1.133941	0.209478	0.124338
N227	N	0.971943	-1.051325	-0.258408
N228	N	1.471943	-0.551325	0.241592
H229	H	1.002065	-1.070789	-0.224121
H230	H	1.502065	-0.570789	0.275879
H231	H	0.941959	-1.029340	-0.228423
H232	H	1.441959	-0.529340	0.271577
N233	N	1.206574	-0.197608	-0.927259
N234	N	1.706574	0.302392	-0.427259
H235	H	1.206824	-0.197507	-0.983055
H236	H	1.706824	0.302493	-0.483055
H237	H	1.195644	-0.166424	-0.908557
H238	H	1.695644	0.333576	-0.408557
N239	N	1.029990	-0.297404	-0.928518
N240	N	1.529990	0.202596	-0.428518
H241	H	1.074853	-0.296103	-0.961644
H242	H	1.574853	0.203897	-0.461644
H243	H	1.040210	-0.318018	-0.885452
H244	H	1.540210	0.181982	-0.385452
H245	H	0.936980	-0.744215	-0.223469
H246	H	1.436980	-0.244215	0.276531
H247	H	0.984172	-0.387600	-0.270764
H248	H	1.484172	0.112400	0.229236
H249	H	1.155928	-0.387451	-0.442791
H250	H	1.655928	0.112549	0.057209
H251	H	1.026048	-0.286408	-0.793936
H252	H	1.526048	0.213592	-0.293936
N253	N	0.640367	-0.192249	-0.222738
N254	N	1.140367	0.307751	0.277262
H255	H	0.596677	-0.196848	-0.188844
H256	H	1.096677	0.303152	0.311156
H257	H	0.671235	-0.220424	-0.223951
H258	H	1.171235	0.279576	0.276049
H259	H	0.634993	-0.274203	-0.278797
H260	H	1.134993	0.225797	0.221203
H261	H	1.192211	-0.204894	-0.793788
H262	H	1.692211	0.295106	-0.293788
H263	H	1.165384	-0.263685	-0.792674
H264	H	1.665384	0.236315	-0.292674
H265	H	0.507082	-0.146434	-0.313164
H266	H	1.007082	0.353566	0.186836
H267	H	0.633936	-0.168623	-0.450930
H268	H	1.133936	0.331377	0.049070
H269	H	0.994459	-0.157163	-0.921435
H270	H	1.494459	0.342837	-0.421435
H271	H	1.203430	-0.829097	-0.490329
H272	H	1.703430	-0.329097	0.009671
N273	N	0.936297	-0.240498	-0.786564
N274	N	1.436297	0.259502	-0.286564
H275	H	0.902111	-0.235648	-0.829917
H276	H	1.402111	0.264352	-0.329917
H277	H	0.917524	-0.266280	-0.755629
H278	H	1.417524	0.233720	-0.255629
N279	N	0.972574	-0.156302	-0.787267
N280	N	1.472574	0.343698	-0.287267
H281	H	0.952184	-0.181016	-0.755010
H282	H	1.452184	0.318984	-0.255010
H283	H	0.975830	-0.127647	-0.757774
H284	H	1.475830	0.372353	-0.257774
N285	N	0.498827	-0.192013	-0.223522
N286	N	0.998827	0.307987	0.276478
H287	H	0.514912	-0.223119	-0.208522
H288	H	1.014912	0.276881	0.291478
H289	H	0.519084	-0.169431	-0.187250
H290	H	1.019084	0.330569	0.312750
N291	N	1.100026	-0.133181	-0.785886
N292	N	1.600026	0.366819	-0.285886
H293	H	1.138207	-0.147102	-0.752306
H294	H	1.638207	0.352898	-0.252306
H295	H	1.125529	-0.118230	-0.828989
H296	H	1.625529	0.381770	-0.328989
H297	H	1.203346	-0.603232	-0.490269
H298	H	1.703346	-0.103232	0.009731
N299	N	0.641150	-0.135244	-0.317403
N300	N	1.141150	0.364756	0.182597
H301	H	0.597806	-0.114509	-0.325440
H302	H	1.097806	0.385491	0.174560
H303	H	0.672050	-0.123849	-0.274929
H304	H	1.172050	0.376151	0.225071
H305	H	0.936941	-0.688567	-0.223453
H306	H	1.436941	-0.188567	0.276547
N307	N	0.500474	-0.299233	-0.387626
N308	N	1.000474	0.200767	0.112374
H309	H	0.544006	-0.314982	-0.410933
H310	H	1.044006	0.185018	0.089067
H311	H	0.469509	-0.321694	-0.359585
H312	H	0.969509	0.178306	0.140415
H313	H	1.203378	-0.688338	-0.490297
H314	H	1.703378	-0.188338	0.009703
H315	H	1.156172	-0.959846	-0.442947
H316	H	1.656172	-0.459846	0.057053
H317	H	0.984404	-0.960001	-0.270918
H318	H	1.484404	-0.460001	0.229082
H319	H	0.936902	-0.603458	-0.223441
H320	H	1.436902	-0.103458	0.276559
H321	H	0.937015	-0.829322	-0.223488
H322	H	1.437015	-0.329322	0.276512
