data_functionalizedCrystal
_audit_creation_method	'MofGen! by Chris Wilmer'
_symmetry_space_group_name_H-M	'P1'
_symmetry_Int_Tables_number	1
_symmetry_cell_setting	triclinic
loop_
_symmetry_equiv_pos_as_xyz
  x,y,z
_cell_length_a	19.288859
_cell_length_b	18.366186
_cell_length_c	19.288855
_cell_angle_alpha	90.008830
_cell_angle_beta	83.132984
_cell_angle_gamma	90.009917
loop_
_atom_site_label
_atom_site_type_symbol
_atom_site_fract_x
_atom_site_fract_y
_atom_site_fract_z
O1	O	-0.921352	-0.060568	-0.086629
O2	O	-0.421352	0.439432	0.413371
O3	O	-0.719091	-0.060567	-0.098322
O4	O	-0.219091	0.439433	0.401678
O5	O	-0.826070	-0.060558	0.008656
O6	O	-0.326070	0.439442	0.508656
O7	O	-0.814374	-0.060577	-0.193606
O8	O	-0.314374	0.439423	0.306394
O9	O	-0.826051	0.060541	0.008661
O10	O	-0.326051	0.560541	0.508661
O11	O	-0.719073	0.060532	-0.098317
O12	O	-0.219073	0.560532	0.401683
O13	O	-0.921334	0.060531	-0.086623
O14	O	-0.421334	0.560531	0.413377
Zn15	Zn	-0.820201	0.079759	-0.092469
Zn16	Zn	-0.320201	0.579759	0.407531
Zn17	Zn	-0.820224	-0.079795	-0.092476
Zn18	Zn	-0.320224	0.420205	0.407524
O19	O	-0.814355	0.060522	-0.193601
O20	O	-0.314355	0.560522	0.306399
C21	C	-0.693205	-0.000017	-0.097944
C22	C	-0.193205	0.499983	0.402056
C23	C	-0.616101	-0.000016	-0.096816
C24	C	-0.116101	0.499984	0.403184
C25	C	-0.825685	-0.000007	0.034535
C26	C	-0.325685	0.499993	0.534535
C27	C	-0.824559	-0.000005	0.111639
C28	C	-0.324559	0.499995	0.611639
C29	C	-0.947220	-0.000020	-0.087002
C30	C	-0.447220	0.499980	0.412998
C31	C	-1.024324	-0.000026	-0.088129
C32	C	-0.524324	0.499974	0.411871
N33	N	-0.820189	0.188650	-0.092464
N34	N	-0.320189	0.688650	0.407536
C35	C	-0.052059	-0.000022	-0.151960
C36	C	0.447941	0.499978	0.348040
C37	C	-0.124505	-0.000026	-0.153025
C38	C	0.375495	0.499974	0.346975
C39	C	-0.169214	-0.000019	-0.090256
C40	C	0.330786	0.499981	0.409744
C41	C	-0.141471	-0.000027	-0.026416
C42	C	0.358529	0.499973	0.473584
C43	C	-0.069026	-0.000030	-0.025353
C44	C	0.430974	0.499970	0.474647
C45	C	-0.290480	0.042414	-0.043441
C46	C	0.209520	0.542414	0.456559
C47	C	-0.362923	0.042422	-0.044507
C48	C	0.137077	0.542422	0.455493
C49	C	-0.392660	-0.000012	-0.093533
C50	C	0.107340	0.499988	0.406467
C51	C	-0.349942	-0.042445	-0.141505
C52	C	0.150058	0.457555	0.358495
C53	C	-0.277497	-0.042448	-0.140442
C54	C	0.222503	0.457552	0.359558
C55	C	-0.247770	-0.000016	-0.091402
C56	C	0.252230	0.499984	0.408598
C57	C	-0.498949	-0.000014	-0.158524
C58	C	0.001051	0.499986	0.341476
C59	C	-0.571397	-0.000022	-0.159587
C60	C	-0.071397	0.499978	0.340413
C61	C	-0.588362	-0.000015	-0.032976
C62	C	-0.088362	0.499985	0.467024
C63	C	-0.515915	-0.000014	-0.031915
C64	C	-0.015915	0.499986	0.468085
C65	C	-0.471213	-0.000010	-0.094691
C66	C	0.028787	0.499990	0.405309
N67	N	-0.820241	-0.188686	-0.092476
N68	N	-0.320241	0.311314	0.407524
C69	C	-0.867575	0.226754	-0.045118
C70	C	-0.367575	0.726754	0.454882
C71	C	-0.867579	0.302982	-0.045114
C72	C	-0.367579	0.802982	0.454886
C73	C	-0.820205	0.341103	-0.092470
C74	C	-0.320205	0.841103	0.407530
C75	C	-0.772810	0.302989	-0.139820
C76	C	-0.272810	0.802989	0.360180
C77	C	-0.772803	0.226763	-0.139817
C78	C	-0.272803	0.726763	0.360183
C79	C	-0.810904	0.461857	-0.155758
C80	C	-0.310904	0.961857	0.344242
C81	C	-0.810917	0.538082	-0.155762
C82	C	-0.310917	1.038082	0.344238
C83	C	-0.820224	0.576210	-0.092478
C84	C	-0.320224	1.076210	0.407522
C85	C	-0.829534	0.538104	-0.029189
C86	C	-0.329534	1.038104	0.470811
C87	C	-0.829527	0.461878	-0.029186
C88	C	-0.329527	0.961878	0.470814
C89	C	-0.820208	0.423758	-0.092478
C90	C	-0.320208	0.923758	0.407522
C91	C	-0.867617	0.696970	-0.045125
C92	C	-0.367617	1.196970	0.454875
C93	C	-0.867617	0.773199	-0.045121
C94	C	-0.367617	1.273199	0.454879
C95	C	-0.772851	0.773204	-0.139832
C96	C	-0.272851	1.273204	0.360168
C97	C	-0.772848	0.696977	-0.139830
C98	C	-0.272848	1.196977	0.360170
C99	C	-0.820235	0.658864	-0.092477
C100	C	-0.320235	1.158864	0.407523
C101	C	-0.824043	-0.066016	0.147847
C102	C	-0.324043	0.433984	0.647847
C103	C	-0.822975	-0.066021	0.220293
C104	C	-0.322975	0.433979	0.720293
C105	C	-0.822437	-0.000011	0.256530
C106	C	-0.322437	0.499989	0.756530
C107	C	-0.822949	0.066009	0.220313
C108	C	-0.322949	0.566009	0.720313
C109	C	-0.824010	0.066012	0.147867
C110	C	-0.324010	0.566012	0.647867
C111	C	-0.861432	0.050557	0.376765
C112	C	-0.361432	0.550557	0.876765
C113	C	-0.860375	0.050552	0.449209
C114	C	-0.360375	0.550552	0.949209
C115	C	-0.819161	-0.000017	0.479976
C116	C	-0.319161	0.499983	0.979976
C117	C	-0.779012	-0.050593	0.438290
C118	C	-0.279012	0.449407	0.938290
C119	C	-0.780073	-0.050590	0.365844
C120	C	-0.280073	0.449410	0.865844
C121	C	-0.821286	-0.000007	0.335085
C122	C	-0.321286	0.499993	0.835085
C123	C	-0.817486	-0.066038	0.594738
C124	C	-0.317486	0.433962	1.094738
C125	C	-0.816413	-0.066040	0.667185
C126	C	-0.316413	0.433960	1.167185
C127	C	-0.816394	0.065992	0.667205
C128	C	-0.316394	0.565992	1.167205
C129	C	-0.817459	0.065992	0.594758
C130	C	-0.317459	0.565992	1.094758
C131	C	-0.818008	-0.000025	0.558530
C132	C	-0.318008	0.499975	1.058530
C133	C	-0.814742	-0.000028	0.780520
C134	C	-0.314742	0.499972	1.280520
C135	C	-0.815874	-0.000029	0.703417
C136	C	-0.315874	0.499971	1.203417
H137	H	-0.015666	-0.000023	-0.203077
H138	H	0.484334	0.499977	0.296923
F139	F	-0.154030	-0.000022	-0.220966
F140	F	0.345970	0.499978	0.279034
F141	F	-0.600914	-0.000026	-0.227528
F142	F	-0.100914	0.499974	0.272472
F143	F	-0.737344	-0.104412	0.321481
F144	F	-0.237344	0.395588	0.821481
F145	F	-0.735143	-0.104414	0.471027
F146	F	-0.235143	0.395586	0.971027
F147	F	-0.815859	-0.136302	0.705719
F148	F	-0.315859	0.363698	1.205719
H149	H	-0.177878	-0.000023	0.024691
H150	H	0.322122	0.499977	0.524691
F151	F	-0.818066	-0.136298	0.556178
F152	F	-0.318066	0.363702	1.056178
F153	F	-0.918050	0.813754	0.005278
F154	F	-0.418050	1.313754	0.505278
H155	H	-0.822508	0.119755	0.249822
H156	H	-0.322508	0.619755	0.749822
F157	F	-0.635940	-0.000017	0.033829
F158	F	-0.135940	0.499983	0.533829
H159	H	-0.397698	0.076978	-0.005448
H160	H	0.102302	0.576978	0.494552
H161	H	-0.242719	-0.077000	-0.179501
H162	H	0.257281	0.423000	0.320499
F163	F	-0.839445	0.578677	0.038168
F164	F	-0.339445	1.078677	0.538168
F165	F	-0.815817	0.136245	0.705766
F166	F	-0.315817	0.636245	1.205766
F167	F	-0.918016	0.343542	0.005281
F168	F	-0.418016	0.843542	0.505281
H169	H	-0.893069	0.091731	0.483145
H170	H	-0.393069	0.591731	0.983145
H171	H	-0.803341	0.569102	-0.207296
H172	H	-0.303341	1.069102	0.292704
F173	F	-0.258843	0.087548	0.008771
F174	F	0.241157	0.587548	0.508771
H175	H	-0.824488	-0.119772	0.118353
H176	H	-0.324488	0.380228	0.618353
H177	H	-0.906158	0.195725	-0.006558
H178	H	-0.406158	0.695725	0.493442
H179	H	-0.817885	0.119745	0.565278
H180	H	-0.317885	0.619745	1.065278
F181	F	-0.801048	0.421286	-0.223119
F182	F	-0.301048	0.921286	0.276881
F183	F	-0.905315	0.104371	0.344030
F184	F	-0.405315	0.604371	0.844030
F185	F	-0.824557	0.136273	0.109331
F186	F	-0.324557	0.636273	0.609331
F187	F	-0.486397	-0.000019	0.036024
F188	F	0.013603	0.499981	0.536024
F189	F	-0.918048	0.656406	0.005275
F190	F	-0.418048	1.156406	0.505275
H191	H	-0.374151	-0.076997	-0.181429
H192	H	0.125849	0.423003	0.318571
H193	H	-0.046446	-0.000033	0.026628
H194	H	0.453554	0.499967	0.526628
H195	H	-0.462550	-0.000012	-0.209640
H196	H	0.037450	0.499988	0.290360
F197	F	-0.839429	0.421325	0.038170
F198	F	-0.339429	0.921325	0.538170
F199	F	-0.722427	0.813772	-0.190227
F200	F	-0.222427	1.313772	0.309773
H201	H	-0.734265	0.665950	-0.178387
H202	H	-0.234265	1.165950	0.321613
H203	H	-0.734236	0.334031	-0.178376
H204	H	-0.234236	0.834031	0.321624
H205	H	-0.734215	0.195738	-0.178373
H206	H	-0.234215	0.695738	0.321627
F207	F	-0.822425	-0.136282	0.258835
F208	F	-0.322425	0.363718	0.758835
