data_functionalizedCrystal
_audit_creation_method	'MofGen! by Chris Wilmer'
_symmetry_space_group_name_H-M	'P1'
_symmetry_Int_Tables_number	1
_symmetry_cell_setting	triclinic
loop_
_symmetry_equiv_pos_as_xyz
  x,y,z
_cell_length_a	23.532407
_cell_length_b	10.654550
_cell_length_c	9.130313
_cell_angle_alpha	90.003780
_cell_angle_beta	89.994125
_cell_angle_gamma	96.333210
loop_
_atom_site_label
_atom_site_type_symbol
_atom_site_fract_x
_atom_site_fract_y
_atom_site_fract_z
O1	O	0.079982	-1.665300	-0.121936
O2	O	0.087603	-1.299580	-0.121914
O3	O	0.000933	-1.493468	-0.121899
O4	O	0.166652	-1.471412	-0.121952
O5	O	0.000935	-1.493466	0.121700
O6	O	0.087605	-1.299578	0.121684
O7	O	0.079985	-1.665298	0.121662
Cu8	Cu	0.083795	-1.482437	0.143916
Cu9	Cu	0.083792	-1.482440	-0.144168
O10	O	0.166655	-1.471409	0.121647
C11	C	0.087044	-1.252799	-0.000112
C12	C	0.085370	-1.113408	-0.000102
C13	C	-0.020286	-1.492905	-0.000096
C14	C	-0.083514	-1.491217	-0.000085
C15	C	0.080543	-1.712079	-0.000143
C16	C	0.082217	-1.851469	-0.000163
C17	C	-0.481938	-1.595364	-0.000171
C18	C	-0.541349	-1.593795	-0.000182
O19	O	-0.577464	-1.690341	-0.000242
N20	N	-0.564726	-1.478529	-0.000174
C21	C	-0.528689	-1.364824	-0.000170
O22	O	-0.554029	-1.266636	-0.000166
C23	C	-0.469280	-1.366394	-0.000170
C24	C	-0.445906	-1.481668	-0.000163
C25	C	-0.458564	-1.710629	-0.000166
C26	C	-0.399158	-1.712197	-0.000152
C27	C	-0.363126	-1.598500	-0.000144
C28	C	-0.386500	-1.483236	-0.000149
C29	C	-0.433244	-1.252690	-0.000176
C30	C	-0.373832	-1.254270	-0.000177
C31	C	-0.350458	-1.369544	-0.000170
C32	C	-0.291061	-1.371107	-0.000127
N33	N	-0.267684	-1.486374	-0.000135
C34	C	-0.303716	-1.600070	-0.000143
C35	C	-0.653453	-1.361535	-0.000174
C36	C	-0.712861	-1.359964	-0.000164
C37	C	-0.725517	-1.588936	-0.000179
C38	C	-0.666108	-1.590506	-0.000178
C39	C	-0.630076	-1.476802	-0.000182
C40	C	-0.178958	-1.603355	-0.000113
C41	C	-0.119546	-1.604913	-0.000093
C42	C	-0.106896	-1.375942	-0.000086
C43	C	-0.166303	-1.374383	-0.000098
C44	C	-0.202333	-1.488100	-0.000117
O45	O	-0.254911	-1.274613	-0.000073
O46	O	-0.278369	-1.698241	-0.000167
C47	C	0.187873	-1.471972	-0.000159
C48	C	0.251101	-1.473661	-0.000180
N49	N	0.083797	-1.482445	0.346539
C50	C	0.136400	-1.032306	-0.000140
C51	C	0.134824	-0.901335	-0.000165
C52	C	0.031183	-0.932582	-0.000121
C53	C	0.032760	-1.063550	-0.000085
C54	C	0.189010	-1.082164	-0.000157
C55	C	0.240045	-1.001060	-0.000196
C56	C	0.238468	-0.870089	-0.000221
C57	C	0.185858	-0.820222	-0.000206
N58	N	0.083786	-1.482443	-0.346791
C59	C	0.045432	-1.568320	0.423197
C60	C	0.045425	-1.568317	0.576534
C61	C	0.122152	-1.396559	0.576540
C62	C	0.122156	-1.396557	0.423206
C63	C	0.007073	-1.654207	0.346530
C64	C	-0.031294	-1.740090	0.423189
C65	C	-0.031301	-1.740087	0.576526
C66	C	0.007059	-1.654201	0.653204
H67	H	-0.100519	-1.698787	-0.000084
H68	H	0.282878	-1.041671	-0.000195
N69	N	0.161345	-1.308859	0.344868
N70	N	0.161341	-1.308874	0.207964
H71	H	0.189018	-1.246934	0.152635
H72	H	0.153384	-1.326635	0.638981
H73	H	0.280023	-0.804057	-0.000238
H74	H	-0.208288	-1.695954	-0.000134
N75	N	0.184243	-0.686439	-0.000181
N76	N	0.206672	-0.620999	0.102499
H77	H	0.205530	-0.526517	0.102521
H78	H	-0.011650	-0.891969	-0.000133
N79	N	-0.019370	-1.146385	-0.000029
N80	N	-0.066339	-1.101857	-0.000018
H81	H	-0.103157	-1.160358	0.000032
N82	N	-0.375288	-1.829949	-0.000134
N83	N	-0.386172	-1.906429	0.102542
H84	H	-0.369318	-1.989598	0.102552
N85	N	-0.495357	-1.826789	-0.000185
N86	N	-0.474467	-1.929685	-0.000185
H87	H	-0.500448	-2.011732	-0.000190
H88	H	0.007076	-1.654220	0.221675
N89	N	-0.642244	-1.708265	-0.000164
N90	N	-0.674429	-1.809765	-0.000161
H91	H	-0.657579	-1.892939	-0.000151
N92	N	-0.337035	-1.138108	-0.000198
N93	N	-0.357918	-1.035204	-0.000212
H94	H	-0.331932	-0.953163	-0.000228
H95	H	-0.754865	-1.681514	-0.000191
H96	H	0.190300	-1.188805	-0.000143
H97	H	0.007047	-1.654197	0.778061
H98	H	-0.062544	-1.810008	0.638940
N99	N	-0.736743	-1.242226	-0.000139
N100	N	-0.768488	-1.215801	0.102540
H101	H	-0.785354	-1.132645	0.102553
N102	N	-0.616658	-1.245369	-0.000172
N103	N	-0.637544	-1.142468	-0.000168
H104	H	-0.611560	-1.060425	-0.000170
N105	N	-0.070478	-1.827795	0.344849
N106	N	-0.070469	-1.827786	0.207945
H107	H	-0.098144	-1.889727	0.152618
H108	H	-0.452264	-1.158822	-0.000190
H109	H	-0.077548	-1.283373	-0.000074
N110	N	-0.190173	-1.256626	-0.000060
N111	N	-0.157991	-1.155120	-0.000030
H112	H	-0.174845	-1.071950	-0.000007
