data_functionalizedCrystal
_audit_creation_method	'MofGen! by Chris Wilmer'
_symmetry_space_group_name_H-M	'P1'
_symmetry_Int_Tables_number	1
_symmetry_cell_setting	triclinic
loop_
_symmetry_equiv_pos_as_xyz
  x,y,z
_cell_length_a	14.519731
_cell_length_b	14.519731
_cell_length_c	9.482900
_cell_angle_alpha	99.351580
_cell_angle_beta	80.692239
_cell_angle_gamma	83.688853
loop_
_atom_site_label
_atom_site_type_symbol
_atom_site_fract_x
_atom_site_fract_y
_atom_site_fract_z
O1	O	1.238214	0.106568	-0.120901
O2	O	0.969741	0.120784	-0.120904
O3	O	1.111084	-0.020559	-0.120889
O4	O	1.096871	0.247911	-0.120916
O5	O	1.082374	0.008266	0.120900
O6	O	0.941032	0.149609	0.120886
O7	O	1.209504	0.135393	0.120888
Cu8	Cu	1.072647	0.145133	0.142964
Cu9	Cu	1.106599	0.111044	-0.142980
O10	O	1.068162	0.276736	0.120874
C11	C	1.096063	-0.040506	0.000006
C12	C	1.094067	-0.142886	0.000007
C13	C	0.921027	0.134530	-0.000009
C14	C	0.818647	0.132534	-0.000010
C15	C	1.092445	-0.226031	0.000003
C16	C	1.090420	-0.330341	-0.000008
C17	C	1.088813	-0.413482	-0.000017
C18	C	1.086788	-0.517798	-0.000025
C19	C	0.735503	0.130911	-0.000015
C20	C	0.631194	0.128885	-0.000016
C21	C	0.548055	0.127276	-0.000016
C22	C	0.443740	0.125250	-0.000019
C23	C	1.258219	0.121646	-0.000009
C24	C	1.360601	0.123641	-0.000018
C25	C	1.083183	0.296682	-0.000024
C26	C	1.085180	0.399062	-0.000035
N27	N	1.048773	0.169109	0.344082
N28	N	1.130480	0.087060	-0.344097
C29	C	1.099551	0.118111	0.416287
C30	C	1.079694	0.138066	0.583702
H31	H	1.021514	0.196502	0.645820
Cl32	Cl	1.189161	0.027682	0.320383
Cl33	Cl	1.220500	-0.002969	0.560008
Cl34	Cl	0.958950	0.259327	0.439987
