data_functionalizedCrystal
_audit_creation_method	'MofGen! by Chris Wilmer'
_symmetry_space_group_name_H-M	'P1'
_symmetry_Int_Tables_number	1
_symmetry_cell_setting	triclinic
loop_
_symmetry_equiv_pos_as_xyz
  x,y,z
_cell_length_a	10.723024
_cell_length_b	14.044220
_cell_length_c	9.198806
_cell_angle_alpha	89.995861
_cell_angle_beta	89.996352
_cell_angle_gamma	88.828373
loop_
_atom_site_label
_atom_site_type_symbol
_atom_site_fract_x
_atom_site_fract_y
_atom_site_fract_z
O1	O	1.670498	0.133040	-0.120888
O2	O	1.308620	0.145774	-0.120893
O3	O	1.484127	0.001387	-0.120876
O4	O	1.494991	0.277427	-0.120905
O5	O	1.484112	0.001387	0.120909
O6	O	1.308604	0.145774	0.120892
O7	O	1.670483	0.133039	0.120898
Cu8	Cu	1.489542	0.139407	0.142972
Cu9	Cu	1.489560	0.139407	-0.142967
O10	O	1.494975	0.277427	0.120881
C11	C	1.262020	0.144847	-0.000001
C12	C	1.123188	0.142075	-0.000003
C13	C	1.056288	0.222866	-0.000012
C14	C	0.912798	0.220002	-0.000013
C15	C	1.479364	-0.033958	0.000017
C16	C	1.465180	-0.139276	0.000019
C17	C	1.439248	-0.332106	-0.000003
C18	C	1.539849	-0.389085	-0.000006
C19	C	1.525420	-0.496383	-0.000017
C20	C	1.453675	-0.224799	0.000009
C21	C	1.717083	0.133966	0.000002
C22	C	1.855914	0.136739	-0.000006
C23	C	1.499738	0.312772	-0.000016
C24	C	1.513923	0.418090	-0.000027
N25	N	1.489539	0.139406	0.344086
N26	N	1.489573	0.139401	-0.344081
C27	C	1.563202	0.078514	0.416290
C28	C	1.563221	0.078511	0.583702
H29	H	1.105243	0.294155	-0.000011
O30	O	1.414246	0.201468	0.418345
C31	C	1.331421	0.150252	0.506381
H32	H	1.372650	0.076272	0.529028
H33	H	1.238334	0.143404	0.447831
C34	C	1.260361	0.294358	0.623234
C35	C	1.311004	0.203497	0.651059
H36	H	1.247761	0.327203	0.712475
H37	H	1.316158	0.328864	0.563919
H38	H	1.182794	0.288638	0.574438
H39	H	1.388577	0.209218	0.699836
H40	H	1.255219	0.168993	0.710385
H41	H	1.636814	-0.357284	-0.000102
O42	O	0.844384	0.302609	-0.000088
C43	C	0.925145	0.380582	-0.000056
H44	H	1.019715	0.357225	-0.045825
H45	H	0.937344	0.407411	0.115939
C46	C	0.752985	0.489752	-0.038672
C47	C	0.869134	0.461066	-0.094897
H48	H	0.718433	0.539401	-0.097168
H49	H	0.698573	0.437221	-0.038688
H50	H	0.763166	0.512103	0.057990
H51	H	0.858948	0.438704	-0.191549
H52	H	0.923543	0.513596	-0.094899
H53	H	1.626293	0.026383	0.645795
O54	O	1.064940	0.056965	-0.000190
C55	C	1.099913	0.005069	-0.125427
H56	H	1.193177	0.031411	-0.167178
H57	H	1.025788	0.015643	-0.213113
C58	C	0.997717	-0.133843	-0.036103
C59	C	1.112270	-0.101494	-0.087374
H60	H	1.005334	-0.199576	-0.012634
H61	H	0.974150	-0.098879	0.048270
H62	H	0.935957	-0.125023	-0.109183
H63	H	1.174024	-0.110303	-0.014288
H64	H	1.135848	-0.136462	-0.171734
H65	H	1.426508	0.191538	0.593836
H66	H	0.913420	0.067571	-0.000007
H67	H	1.342291	-0.363906	-0.000008
O68	O	1.638627	0.016362	0.342383
C69	C	1.764040	0.032390	0.379455
H70	H	1.768142	0.068889	0.489990
H71	H	1.808020	0.079829	0.293810
C72	C	1.831046	-0.108317	0.250566
C73	C	1.836084	-0.063496	0.386333
H74	H	1.875489	-0.167463	0.254803
H75	H	1.746553	-0.119114	0.225585
H76	H	1.867694	-0.068775	0.179209
H77	H	1.799422	-0.103032	0.457683
H78	H	1.920572	-0.052708	0.411327
