data_functionalizedCrystal
_audit_creation_method	'MofGen! by Chris Wilmer'
_symmetry_space_group_name_H-M	'P1'
_symmetry_Int_Tables_number	1
_symmetry_cell_setting	triclinic
loop_
_symmetry_equiv_pos_as_xyz
  x,y,z
_cell_length_a	15.944551
_cell_length_b	11.804365
_cell_length_c	13.339071
_cell_angle_alpha	105.111727
_cell_angle_beta	99.564008
_cell_angle_gamma	78.155318
loop_
_atom_site_label
_atom_site_type_symbol
_atom_site_fract_x
_atom_site_fract_y
_atom_site_fract_z
O1	O	1.157119	-0.098895	0.110075
O2	O	0.916321	-0.098924	0.126155
O3	O	1.009083	-0.098908	-0.029150
O4	O	1.064356	-0.098911	0.265380
O5	O	0.984653	0.099144	0.011695
O6	O	0.891890	0.099127	0.167000
O7	O	1.132688	0.099156	0.150920
Cu8	Cu	1.010059	0.117226	0.162689
Cu9	Cu	1.038950	-0.116994	0.114386
O10	O	1.039926	0.099140	0.306225
C11	C	0.872656	0.000098	0.145909
C12	C	0.778945	0.000087	0.143905
N13	N	0.989744	0.281963	0.196663
N14	N	1.059270	-0.281731	0.080404
C15	C	0.540539	0.000111	0.042857
C16	C	0.502499	-0.097540	0.069644
C17	C	0.607374	0.000101	0.140286
C18	C	0.478440	0.097724	0.109936
C19	C	0.441642	0.000120	0.136784
C20	C	0.570578	-0.097630	0.167083
C21	C	0.546511	0.097721	0.207380
C22	C	0.508508	0.000047	0.234232
C23	C	0.702847	0.000089	0.142300
C24	C	0.346172	0.000123	0.134775
C25	C	1.176353	0.000132	0.131166
C26	C	1.270065	0.000135	0.133168
C27	C	0.987532	0.000115	-0.046418
C28	C	0.959703	0.000108	-0.158723
C29	C	1.108049	0.655932	-0.001198
C30	C	1.123416	0.531273	-0.026903
C31	C	1.089999	0.468939	0.028986
C32	C	1.041213	0.531277	0.110585
C33	C	1.025851	0.655948	0.136298
C34	C	1.007801	0.468955	0.166482
C35	C	0.959015	0.531293	0.248081
C36	C	0.943655	0.655952	0.273790
C37	C	0.977072	0.718286	0.217900
C38	C	1.023163	0.344284	0.140769
C39	C	0.940965	0.344300	0.278265
C40	C	0.925598	0.468959	0.303970
C41	C	1.061478	0.000114	0.323492
C42	C	1.089308	0.000114	0.435796
C43	C	1.176094	0.000120	0.476501
C44	C	1.202243	0.000130	0.582018
C45	C	1.141610	0.000124	0.646837
C46	C	1.054823	0.000109	0.606131
C47	C	1.028670	0.000108	0.500606
C48	C	0.994187	0.000113	0.670942
C49	C	0.907400	0.000097	0.630235
C50	C	0.881252	0.000096	0.524720
C51	C	0.941885	0.000102	0.459901
C52	C	1.020340	0.000113	0.776467
C53	C	0.872917	0.000101	0.800572
C54	C	0.846767	0.000091	0.695055
H55	H	0.555046	-0.000009	-0.038028
H56	H	0.913755	0.293549	0.323777
C57	C	0.476108	-0.209063	-0.009029
N58	N	0.456231	-0.293058	-0.068292
H59	H	0.494217	-0.000009	0.315164
H60	H	0.610355	-0.180276	0.191217
C61	C	1.242778	0.000135	0.405196
N62	N	1.293009	0.000147	0.351487
C63	C	1.076819	0.275727	0.051007
N64	N	1.117233	0.224091	-0.016610
C65	C	0.572919	0.209256	0.286003
N66	N	0.592809	0.293275	0.345216
H67	H	0.438564	0.180277	0.085734
C68	C	1.144804	0.724507	-0.062664
N69	N	1.172489	0.776159	-0.108965
H70	H	1.102512	0.367436	0.008053
C71	C	1.177072	0.462711	-0.116664
N72	N	1.217486	0.411069	-0.184280
C73	C	1.170379	0.000127	0.762907
N74	N	1.192053	0.000122	0.850333
H75	H	0.964558	0.819793	0.238826
H76	H	0.903940	0.706707	0.340240
H77	H	1.272904	0.000144	0.615154
H78	H	0.810583	0.000092	0.491583
C79	C	0.806216	0.000092	0.871869
N80	N	0.755981	0.000085	0.925576
H81	H	0.885876	0.519730	0.370411
C82	C	0.913122	0.000105	0.343827
N83	N	0.891461	0.000113	0.256400
C84	C	0.751301	0.000091	0.650267
N85	N	0.679396	0.000096	0.616532
H86	H	1.091002	0.000126	0.809600
