data_functionalizedCrystal
_audit_creation_method	'MofGen! by Chris Wilmer'
_symmetry_space_group_name_H-M	'P1'
_symmetry_Int_Tables_number	1
_symmetry_cell_setting	triclinic
loop_
_symmetry_equiv_pos_as_xyz
  x,y,z
_cell_length_a	12.645331
_cell_length_b	12.645330
_cell_length_c	12.759387
_cell_angle_alpha	90.031550
_cell_angle_beta	90.023235
_cell_angle_gamma	90.012860
loop_
_atom_site_label
_atom_site_type_symbol
_atom_site_fract_x
_atom_site_fract_y
_atom_site_fract_z
Zn1	Zn	1.620773	-0.421977	0.594076
Zn2	Zn	2.120773	0.078023	1.094076
Zn3	Zn	1.620669	-0.599279	0.418394
Zn4	Zn	2.120669	-0.099279	0.918394
Zn5	Zn	1.443486	-0.422031	0.418405
Zn6	Zn	1.943486	0.077969	0.918405
Zn7	Zn	1.443485	-0.599200	0.594025
Zn8	Zn	1.943485	-0.099200	1.094025
O9	O	1.532103	-0.510622	0.506225
O10	O	2.032103	-0.010622	1.006225
O11	O	1.769106	-0.445508	0.570789
O12	O	2.269106	0.054492	1.070789
O13	O	1.597122	-0.575823	0.271374
O14	O	2.097122	-0.075823	0.771374
O15	O	1.467048	-0.273677	0.441733
O16	O	1.967048	0.226323	0.941733
O17	O	1.769030	-0.575771	0.441716
O18	O	2.269030	-0.075771	0.941716
O19	O	1.597299	-0.273637	0.570799
O20	O	2.097299	0.226363	1.070799
O21	O	1.466947	-0.445599	0.271382
O22	O	1.966947	0.054401	0.771382
O23	O	1.295139	-0.445522	0.441684
O24	O	1.795139	0.054478	0.941684
O25	O	1.467045	-0.575635	0.741053
O26	O	1.967045	-0.075635	1.241053
O27	O	1.295138	-0.575687	0.570711
O28	O	1.795138	-0.075687	1.070711
O29	O	1.597298	-0.445431	0.741090
O30	O	2.097298	0.054569	1.241090
O31	O	1.597121	-0.747616	0.441666
O32	O	2.097121	-0.247616	0.941666
O33	O	1.466944	-0.747558	0.570701
O34	O	1.966944	-0.247558	1.070701
C35	C	1.256673	-0.510603	0.506194
C36	C	1.756673	-0.010603	1.006194
C37	C	1.138843	-0.510620	0.506205
C38	C	1.638843	-0.010620	1.006205
C39	C	1.093926	-0.428606	0.425167
C40	C	1.593926	0.071394	0.925167
C41	C	0.971367	-0.428303	0.425444
C42	C	1.471367	0.071697	0.925444
C43	C	0.971012	-0.480819	0.617114
C44	C	1.471012	0.019181	1.117114
C45	C	1.093610	-0.480206	0.616608
C46	C	1.593610	0.019794	1.116608
C47	C	1.093638	-0.622680	0.477383
C48	C	1.593638	-0.122680	0.977383
C49	C	0.971030	-0.622095	0.474979
C50	C	1.471030	-0.122095	0.974979
C51	C	1.532050	-0.786052	0.506200
C52	C	2.032050	-0.286052	1.006200
C53	C	1.532124	-0.903882	0.506225
C54	C	2.032124	-0.403882	1.006225
C55	C	1.613887	-1.071438	0.424884
C56	C	2.113887	-0.571438	0.924884
C57	C	1.614153	-0.948878	0.425083
C58	C	2.114153	-0.448878	0.925083
C59	C	1.562425	-0.948255	0.616971
C60	C	2.062425	-0.448255	1.116971
C61	C	1.563074	-1.070853	0.616539
C62	C	2.063074	-0.570853	1.116539
C63	C	1.420029	-1.071212	0.477911
C64	C	1.920029	-0.571212	0.977911
C65	C	1.420566	-0.948608	0.475427
C66	C	1.920566	-0.448608	0.975427
C67	C	1.808608	-0.510642	0.506257
C68	C	2.308608	-0.010642	1.006257
C69	C	1.926438	-0.510651	0.506270
C70	C	2.426438	-0.010651	1.006270
C71	C	1.532183	-0.510518	0.780259
C72	C	2.032183	-0.010518	1.280259
C73	C	1.532217	-0.510474	0.897035
C74	C	2.032217	-0.010474	1.397035
C75	C	1.532185	-0.234117	0.506273
C76	C	2.032185	0.265883	1.006273
C77	C	1.532220	-0.116287	0.506293
C78	C	2.032220	0.383713	1.006293
C79	C	1.532084	-0.510649	0.233257
C80	C	2.032084	-0.010649	0.733257
C81	C	1.532256	-0.510395	0.116481
C82	C	2.032256	-0.010395	0.616481
C83	C	1.667859	-0.374901	0.897094
C84	C	2.167859	0.125099	1.397094
C85	C	1.735694	-0.307098	0.951984
C86	C	2.235694	0.192902	1.451984
C87	C	1.735720	-0.307059	1.061706
C88	C	2.235720	0.192941	1.561706
C89	C	1.667901	-0.374828	1.116540
C90	C	2.167901	0.125172	1.616540
C91	C	1.600065	-0.442631	1.061650
C92	C	2.100065	0.057369	1.561650
C93	C	1.600049	-0.442664	0.951926
C94	C	2.100049	0.057336	1.451926
C95	C	1.464420	-0.578197	1.061591
C96	C	1.964420	-0.078197	1.561591
C97	C	1.464398	-0.578243	0.951869
C98	C	1.964398	-0.078243	1.451869
C99	C	1.396601	-0.645966	1.116425
C100	C	1.896601	-0.145966	1.616425
C101	C	1.328769	-0.713775	1.061535
C102	C	1.828769	-0.213775	1.561535
C103	C	1.328747	-0.713812	0.951806
C104	C	1.828747	-0.213812	1.451806
C105	C	1.396563	-0.646045	0.896979
C106	C	1.896563	-0.146045	1.396979
H107	H	0.940439	-0.686444	0.529666
H108	H	1.440439	-0.186444	1.029666
H109	H	0.942050	-0.345276	0.444586
H110	H	1.442050	0.154724	0.944586
H111	H	1.667919	-0.374782	1.205881
H112	H	2.167919	0.125218	1.705881
H113	H	1.504754	-0.919104	0.679252
H114	H	2.004754	-0.419104	1.179252
H115	H	1.273495	-0.769014	0.907121
H116	H	1.773495	-0.269014	1.407121
H117	H	1.697249	-0.919468	0.443856
H118	H	2.197249	-0.419468	0.943856
H119	H	1.396623	-0.645926	1.205766
H120	H	1.896623	-0.145926	1.705766
H121	H	1.396555	-0.646073	0.807638
H122	H	1.896555	-0.146073	1.307638
H123	H	0.941918	-0.538737	0.679172
H124	H	1.441918	-0.038737	1.179172
H125	H	1.123330	-0.537368	0.679079
H126	H	1.623330	-0.037368	1.179079
H127	H	1.122221	-0.398307	0.640971
H128	H	1.622221	0.101693	1.140971
H129	H	1.123331	-0.447004	0.342712
H130	H	1.623331	0.052996	0.842712
H131	H	1.124505	-0.649917	0.397899
H132	H	1.624505	-0.149917	0.897899
H133	H	1.667854	-0.374935	0.807753
H134	H	2.167854	0.125065	1.307753
H135	H	1.506198	-1.100516	0.679285
H136	H	2.006198	-0.600516	1.179285
H137	H	1.595165	-1.100998	0.342527
H138	H	2.095165	-0.600998	0.842527
H139	H	1.122683	-0.683779	0.536408
H140	H	1.622683	-0.183779	1.036408
H141	H	0.940325	-0.399828	0.641913
H142	H	1.440325	0.100172	1.141913
H143	H	1.359180	-1.100215	0.537205
H144	H	1.859180	-0.600215	1.037205
H145	H	1.696537	-1.102167	0.443447
H146	H	2.196537	-0.602167	0.943447
H147	H	0.941893	-0.644598	0.393402
H148	H	1.441893	-0.144598	0.893402
H149	H	1.595194	-0.918882	0.342967
H150	H	2.095194	-0.418882	0.842967
H151	H	1.273551	-0.768942	1.106189
H152	H	1.773551	-0.268942	1.606189
H153	H	1.397719	-0.919617	0.393927
H154	H	1.897719	-0.419617	0.893927
H155	H	0.941224	-0.446916	0.343269
H156	H	1.441224	0.053084	0.843269
H157	H	1.124746	-0.346041	0.444057
H158	H	1.624746	0.153959	0.944057
H159	H	1.645080	-1.099363	0.640580
H160	H	2.145080	-0.599363	1.140580
H161	H	1.392475	-1.102227	0.398561
H162	H	1.892475	-0.602227	0.898561
H163	H	1.643506	-0.917464	0.641413
H164	H	2.143506	-0.417464	1.141413
H165	H	1.356435	-0.917989	0.530374
H166	H	1.856435	-0.417989	1.030374
H167	H	1.790909	-0.251920	0.907327
H168	H	2.290909	0.248080	1.407327
H169	H	1.790951	-0.251842	1.106398
H170	H	2.290951	0.248158	1.606398
