data_functionalizedCrystal
_audit_creation_method	'MofGen! by Chris Wilmer'
_symmetry_space_group_name_H-M	'P1'
_symmetry_Int_Tables_number	1
_symmetry_cell_setting	triclinic
loop_
_symmetry_equiv_pos_as_xyz
  x,y,z
_cell_length_a	19.288859
_cell_length_b	15.995350
_cell_length_c	15.072220
_cell_angle_alpha	89.994173
_cell_angle_beta	89.994231
_cell_angle_gamma	83.313050
loop_
_atom_site_label
_atom_site_type_symbol
_atom_site_fract_x
_atom_site_fract_y
_atom_site_fract_z
O1	O	0.921622	0.104430	-0.073796
O2	O	0.719397	0.118525	-0.073793
O3	O	0.826038	-0.010431	-0.073794
O4	O	0.814982	0.233386	-0.073795
O5	O	0.826028	-0.010443	0.073772
O6	O	0.719388	0.118513	0.073772
O7	O	0.921613	0.104418	0.073769
Zn8	Zn	0.820499	0.111464	0.097200
Zn9	Zn	0.820511	0.111479	-0.097223
O10	O	0.814973	0.233374	0.073770
C11	C	0.693515	0.118067	-0.000010
C12	C	0.616408	0.116708	-0.000009
C13	C	0.825576	-0.041630	-0.000013
C14	C	0.824206	-0.134575	-0.000018
C15	C	0.052540	0.183181	-0.000011
C16	C	0.124989	0.184465	-0.000016
C17	C	0.169500	0.108799	-0.000014
C18	C	0.141555	0.031843	-0.000030
C19	C	0.069106	0.030561	-0.000034
C20	C	0.290620	0.052364	0.051689
C21	C	0.363067	0.053649	0.051698
C22	C	0.392956	0.112750	-0.000005
C23	C	0.350387	0.170580	-0.051706
C24	C	0.277938	0.169298	-0.051710
C25	C	0.248059	0.110181	-0.000010
C26	C	0.499451	0.191093	0.000000
C27	C	0.571902	0.192374	-0.000010
C28	C	0.588467	0.039751	-0.000015
C29	C	0.516016	0.038472	-0.000014
C30	C	0.471513	0.114146	-0.000002
C31	C	0.819285	-0.472304	-0.000015
C32	C	0.743337	-0.424582	-0.000345
C33	C	0.744708	-0.327897	-0.000012
C34	C	0.821726	-0.304753	-0.000017
C35	C	0.859180	-0.345979	0.084248
C36	C	0.857272	-0.442608	0.084319
C37	C	0.858852	-0.442958	-0.083490
C38	C	0.858834	-0.346013	-0.084604
C39	C	0.823109	-0.210061	-0.000015
C40	C	0.817903	-0.566997	-0.000011
C41	C	0.947495	0.104876	-0.000015
C42	C	1.024602	0.106235	-0.000022
C43	C	0.815434	0.264573	-0.000013
C44	C	0.816805	0.357518	-0.000014
N45	N	0.820496	0.111452	0.229889
N46	N	0.820520	0.111484	-0.229912
C47	C	0.820504	0.111463	0.410886
C48	C	0.877578	0.042485	0.448527
C49	C	0.877785	0.042667	0.551353
C50	C	0.820512	0.111473	0.589090
C51	C	0.836041	0.198886	0.551744
C52	C	0.836446	0.198476	0.448886
C53	C	0.747729	0.093817	0.448806
C54	C	0.748222	0.091835	0.551671
C55	C	0.820515	0.111484	0.689804
C56	C	0.820502	0.111458	0.310173
H57	H	0.016308	0.244800	-0.000006
H58	H	0.463214	0.252711	0.000008
F59	F	0.732800	0.007793	0.583593
H60	H	0.703782	0.138819	0.577356
H61	H	0.868583	-0.022309	0.576604
F62	F	0.821561	-0.466402	0.166652
F63	F	0.258822	-0.010577	0.106680
H64	H	0.834025	-0.463399	-0.147358
H65	H	0.931284	0.053596	0.422661
H66	H	0.705260	0.144119	0.424463
H67	H	0.397721	0.006564	0.093801
F68	F	0.930151	-0.485038	0.089321
H69	H	0.147740	0.247125	0.000002
F70	F	0.705954	-0.291330	0.079075
F71	F	0.865749	-0.042733	0.416213
F72	F	0.728128	0.012273	0.414916
H73	H	0.833158	-0.317504	0.146958
H74	H	0.046361	-0.032099	-0.000043
F75	F	0.823316	-0.309867	-0.166095
H76	H	0.374720	0.218708	-0.093805
H77	H	0.243282	0.216384	-0.093808
H78	H	0.594646	0.255035	-0.000008
H79	H	0.914847	-0.474932	-0.084060
H80	H	0.795565	0.251457	0.576187
F81	F	0.933138	-0.327799	0.088343
F82	F	0.904608	0.219700	0.585404
F83	F	0.932245	-0.326208	-0.091264
F84	F	0.948382	0.057422	0.583511
F85	F	0.905805	0.218790	0.417516
H86	H	0.624706	-0.021858	-0.000020
F87	F	0.486283	-0.043425	-0.000028
F88	F	0.784562	0.268016	0.416337
H89	H	0.177800	-0.029764	-0.000030
H90	H	0.715266	-0.299358	-0.060416
H91	H	0.712986	-0.442993	-0.060772
H92	H	0.713113	-0.444066	0.059747
