data_functionalizedCrystal
_audit_creation_method	'MofGen! by Chris Wilmer'
_symmetry_space_group_name_H-M	'P1'
_symmetry_Int_Tables_number	1
_symmetry_cell_setting	triclinic
loop_
_symmetry_equiv_pos_as_xyz
  x,y,z
_cell_length_a	15.944493
_cell_length_b	15.944551
_cell_length_c	8.965430
_cell_angle_alpha	89.999468
_cell_angle_beta	89.996758
_cell_angle_gamma	83.486891
loop_
_atom_site_label
_atom_site_type_symbol
_atom_site_fract_x
_atom_site_fract_y
_atom_site_fract_z
O1	O	1.114554	0.108094	-0.124023
O2	O	0.869998	0.121501	-0.124031
O3	O	0.998955	-0.007479	-0.124013
O4	O	0.985598	0.237074	-0.124040
O5	O	0.998944	-0.007470	0.124066
O6	O	0.869987	0.121510	0.124048
O7	O	1.114543	0.108102	0.124056
Cu8	Cu	0.992264	0.114807	0.146704
Cu9	Cu	0.992277	0.114797	-0.146678
O10	O	0.985587	0.237082	0.124039
C11	C	0.838698	0.120957	0.000008
C12	C	0.745449	0.119314	0.000006
C13	C	0.509689	0.195235	-0.000004
C14	C	0.459126	0.154298	0.122323
C15	C	0.574728	0.116270	0.000009
C16	C	0.459141	0.154271	-0.122263
C17	C	0.409819	0.113336	0.000005
C18	C	0.525393	0.075355	0.122437
C19	C	0.525411	0.075339	-0.122260
C20	C	0.474880	0.034345	0.000097
C21	C	0.669728	0.117963	0.000012
C22	C	0.314821	0.111637	0.000013
C23	C	0.998395	-0.038768	0.000027
C24	C	0.996732	-0.132014	0.000027
C25	C	0.912826	-0.346853	0.000004
C26	C	0.951784	-0.407874	0.122323
C27	C	0.993725	-0.302739	0.000016
C28	C	0.951813	-0.407866	-0.122263
C29	C	0.990814	-0.467651	-0.000002
C30	C	1.032705	-0.362532	0.122436
C31	C	1.032724	-0.362518	-0.122260
C32	C	1.071741	-0.423521	0.000089
C33	C	0.995399	-0.207737	0.000027
C34	C	0.989146	-0.562652	-0.000002
C35	C	1.145844	0.108646	0.000014
C36	C	1.239092	0.110289	0.000007
C37	C	0.986147	0.268372	-0.000004
C38	C	0.987809	0.361617	-0.000015
N39	N	0.992261	0.114813	0.353053
N40	N	0.992287	0.114783	-0.353027
C41	C	0.932605	0.174443	0.450351
C42	C	1.008511	0.190730	0.549765
C43	C	0.916387	0.098533	0.549766
C44	C	1.068206	0.131138	0.450278
C45	C	0.976032	0.038909	0.450271
C46	C	1.051993	0.055164	0.549640
H47	H	0.525313	0.263254	0.000103
H48	H	0.430207	0.187631	-0.225666
H49	H	0.554216	0.042031	0.225957
H50	H	0.917590	-0.427940	-0.225681
H51	H	1.102508	0.004721	0.592962
H52	H	0.459415	-0.033726	0.000175
Br53	Br	1.089686	-0.329227	0.294982
H54	H	0.554362	0.042013	-0.225674
Br55	Br	0.800905	-0.291316	0.000189
H56	H	0.962263	-0.025249	0.406534
Br57	Br	0.848596	0.258561	0.377679
H58	H	0.430184	0.187650	0.225732
Br59	Br	1.183759	-0.478814	0.000197
H60	H	1.022256	0.254908	0.593466
H61	H	0.917562	-0.427972	0.225732
Br62	Br	0.809425	0.075602	0.622613
H63	H	1.066916	-0.342398	-0.225674
H64	H	1.132396	0.144972	0.406761
