data_functionalizedCrystal
_audit_creation_method	'MofGen! by Chris Wilmer'
_symmetry_space_group_name_H-M	'P1'
_symmetry_Int_Tables_number	1
_symmetry_cell_setting	triclinic
loop_
_symmetry_equiv_pos_as_xyz
  x,y,z
_cell_length_a	17.699097
_cell_length_b	10.489716
_cell_length_c	16.176319
_cell_angle_alpha	89.997268
_cell_angle_beta	89.988988
_cell_angle_gamma	83.908783
loop_
_atom_site_label
_atom_site_type_symbol
_atom_site_fract_x
_atom_site_fract_y
_atom_site_fract_z
O1	O	1.005120	0.161378	-0.068808
O2	O	0.784879	0.182346	-0.068794
O3	O	0.900020	-0.013831	-0.068804
O4	O	0.889978	0.357555	-0.068798
O5	O	0.900004	-0.013843	0.068689
O6	O	0.784863	0.182333	0.068700
O7	O	1.005104	0.161366	0.068685
Cu8	Cu	0.894982	0.171849	0.081247
Cu9	Cu	0.895001	0.171863	-0.081355
O10	O	0.889962	0.357542	0.068696
C11	C	0.756669	0.181585	-0.000045
C12	C	0.672637	0.179323	-0.000040
C13	C	0.156837	0.165461	-0.075021
C14	C	0.235795	0.167578	-0.075017
C15	C	0.275259	0.168632	-0.000066
C16	C	0.235762	0.167556	0.074885
C17	C	0.156807	0.165430	0.074880
C18	C	0.554182	0.176129	0.074907
C19	C	0.633143	0.178260	0.074907
C20	C	0.633171	0.178278	-0.074990
C21	C	0.554215	0.176152	-0.074995
C22	C	0.514725	0.175069	-0.000044
C23	C	0.429110	0.172771	-0.000050
C24	C	0.360872	0.170940	-0.000060
C25	C	0.899258	-0.061355	-0.000060
C26	C	0.897000	-0.202944	-0.000067
C27	C	0.967609	-0.301924	-0.000064
C28	C	0.930306	-0.378589	-0.067851
C29	C	0.930273	-0.378565	0.067706
C30	C	0.859727	-0.277744	-0.067910
C31	C	0.859705	-0.277714	0.067708
C32	C	0.822350	-0.354329	-0.000095
C33	C	1.033313	0.162126	-0.000065
C34	C	1.117346	0.164389	-0.000075
C35	C	0.890725	0.405067	-0.000050
C36	C	0.892982	0.546656	-0.000048
N37	N	0.894974	0.171837	0.195612
N38	N	0.895014	0.171864	-0.195720
C39	C	0.945974	0.085006	0.238871
C40	C	0.945978	0.085004	0.325418
C41	C	0.894985	0.171842	0.368704
C42	C	0.843979	0.258677	0.325439
C43	C	0.843972	0.258672	0.238893
C44	C	0.844005	0.258701	0.674467
C45	C	0.844017	0.258703	0.761019
C46	C	0.946011	0.085034	0.760992
C47	C	0.946004	0.085028	0.674447
C48	C	0.894996	0.171859	0.631189
C49	C	0.894991	0.171858	0.537345
C50	C	0.894992	0.171850	0.462547
H51	H	0.124652	0.164570	0.135909
O52	O	0.965942	-0.430957	0.136054
C53	C	1.042460	-0.404845	0.135775
H54	H	1.048453	-0.316675	0.096086
H55	H	1.061181	-0.386124	0.201701
H56	H	1.079623	-0.490617	0.109313
H57	H	0.760886	-0.377622	-0.000127
H58	H	1.029026	-0.278384	-0.000137
O59	O	0.995521	0.000497	0.802926
C60	C	0.982526	-0.125742	0.781799
H61	H	0.953352	-0.125523	0.718969
H62	H	1.039076	-0.188674	0.778825
H63	H	0.944645	-0.165109	0.830519
H64	H	0.802489	0.329419	0.796261
H65	H	0.960119	-0.422630	-0.125165
H66	H	0.522087	0.175300	-0.136028
H67	H	0.802474	0.329404	0.639253
O68	O	0.794411	0.342855	0.367577
C69	C	0.747349	0.274641	0.417644
H70	H	0.776958	0.174772	0.430605
H71	H	0.735669	0.327907	0.478504
H72	H	0.691365	0.266086	0.384311
H73	H	0.802441	0.329377	0.203672
O74	O	0.824271	-0.225606	-0.136450
C75	C	0.861343	-0.278283	-0.207722
H76	H	0.893422	-0.375239	-0.191922
H77	H	0.817485	-0.291318	-0.257776
H78	H	0.903097	-0.210888	-0.231104
H79	H	0.829918	-0.233651	0.125024
H80	H	0.987502	0.014298	0.203634
H81	H	0.987506	0.014299	0.360640
H82	H	0.124711	0.164612	-0.136055
H83	H	0.665273	0.179117	0.135944
H84	H	0.665333	0.179155	-0.136019
O85	O	0.274036	0.168671	-0.147894
C86	C	0.222276	0.167257	-0.214048
H87	H	0.163075	0.206113	-0.192077
H88	H	0.240632	0.229771	-0.266466
H89	H	0.221265	0.064747	-0.237094
O90	O	0.515940	0.175151	0.147786
C91	C	0.567708	0.176514	0.213936
H92	H	0.621078	0.218395	0.191962
H93	H	0.540416	0.237798	0.266356
H94	H	0.583490	0.074453	0.236983
O95	O	0.274208	0.168639	0.147620
C96	C	0.352367	0.170718	0.131555
H97	H	0.360250	0.211380	0.067144
H98	H	0.377892	0.233423	0.179426
H99	H	0.382162	0.069036	0.135108
H100	H	0.987530	0.014322	0.639206
