data_functionalizedCrystal
_audit_creation_method	'MofGen! by Chris Wilmer'
_symmetry_space_group_name_H-M	'P1'
_symmetry_Int_Tables_number	1
_symmetry_cell_setting	triclinic
loop_
_symmetry_equiv_pos_as_xyz
  x,y,z
_cell_length_a	15.944545
_cell_length_b	15.021413
_cell_length_c	15.944545
_cell_angle_alpha	89.999293
_cell_angle_beta	96.503827
_cell_angle_gamma	89.990408
loop_
_atom_site_label
_atom_site_type_symbol
_atom_site_fract_x
_atom_site_fract_y
_atom_site_fract_z
O1	O	1.114512	0.073979	-0.108301
O2	O	1.614512	0.573979	0.391699
O3	O	0.869961	0.073994	-0.121663
O4	O	1.369961	0.573994	0.378337
O5	O	0.998917	0.073975	0.007293
O6	O	1.498917	0.573975	0.507293
O7	O	0.985556	0.073997	-0.237257
O8	O	1.485556	0.573997	0.262743
O9	O	0.998933	-0.074089	0.007285
O10	O	1.498933	0.425911	0.507285
O11	O	0.869976	-0.074071	-0.121671
O12	O	1.369976	0.425929	0.378329
O13	O	1.114527	-0.074086	-0.108309
O14	O	1.614527	0.425914	0.391691
Zn15	Zn	0.992254	-0.097586	-0.114991
Zn16	Zn	1.492254	0.402414	0.385009
Zn17	Zn	0.992234	0.097495	-0.114981
Zn18	Zn	1.492234	0.597495	0.385019
O19	O	0.985571	-0.074067	-0.237265
O20	O	1.485571	0.425933	0.262735
C21	C	0.838675	-0.000037	-0.121113
C22	C	1.338675	0.499963	0.378887
C23	C	0.745428	-0.000031	-0.119453
C24	C	1.245428	0.499969	0.380547
C25	C	0.474798	-0.000048	-0.034559
C26	C	0.974798	0.499952	0.465441
C27	C	0.525386	-0.073050	-0.075492
C28	C	1.025386	0.426950	0.424508
C29	C	0.409785	-0.000047	-0.113532
C30	C	0.909785	0.499953	0.386468
C31	C	0.525352	0.072929	-0.075505
C32	C	1.025352	0.572929	0.424495
C33	C	0.574698	-0.000038	-0.116437
C34	C	1.074698	0.499962	0.383563
C35	C	0.459145	-0.073109	-0.154444
C36	C	0.959145	0.426891	0.345556
C37	C	0.459107	0.072936	-0.154446
C38	C	0.959107	0.572936	0.345554
C39	C	0.509662	-0.000084	-0.195437
C40	C	1.009662	0.499916	0.304563
C41	C	0.314783	-0.000053	-0.111857
C42	C	0.814783	0.499947	0.388143
C43	C	0.669698	-0.000038	-0.118119
C44	C	1.169698	0.499962	0.381881
N45	N	0.992274	-0.230724	-0.114998
N46	N	1.492274	0.269276	0.385002
C47	C	1.051915	-0.470392	-0.055355
C48	C	1.551915	0.029608	0.444645
C49	C	0.976015	-0.529718	-0.039039
C50	C	1.476015	-0.029718	0.460961
C51	C	0.992254	-0.412331	-0.114988
C52	C	1.492254	0.087669	0.385012
C53	C	1.068135	-0.529747	-0.131254
C54	C	1.568135	-0.029747	0.368746
C55	C	0.992242	-0.587755	-0.114975
C56	C	1.492242	-0.087755	0.385025
C57	C	0.916316	-0.470351	-0.098634
C58	C	1.416316	0.029649	0.401366
C59	C	1.008486	-0.470374	-0.190882
C60	C	1.508486	0.029626	0.309118
C61	C	0.932532	-0.529673	-0.174598
C62	C	1.432532	-0.029673	0.325402
C63	C	0.992262	-0.311274	-0.114992
C64	C	1.492262	0.188726	0.385008
C65	C	0.992225	-0.688810	-0.114971
C66	C	1.492225	-0.188810	0.385029
C67	C	1.145813	-0.000053	-0.108859
C68	C	1.645813	0.499947	0.391141
C69	C	1.239060	-0.000053	-0.110519
C70	C	1.739060	0.499947	0.389481
C71	C	0.998371	-0.000058	0.038583
C72	C	1.498371	0.499942	0.538583
C73	C	0.996711	-0.000060	0.131829
C74	C	1.496711	0.499940	0.631829
N75	N	0.992221	0.230632	-0.114968
N76	N	1.492221	0.730632	0.385032
C77	C	0.986117	-0.000032	-0.268556
C78	C	1.486117	0.499968	0.231444
C79	C	0.987777	-0.000024	-0.361802
C80	C	1.487777	0.499976	0.138198
C81	C	0.911817	-0.000037	0.402460
C82	C	1.411817	0.499963	0.902460
C83	C	0.952739	0.072964	0.351880
C84	C	1.452739	0.572964	0.851880
C85	C	0.990790	-0.000035	0.467473
C86	C	1.490790	0.499965	0.967473
C87	C	0.952775	-0.073015	0.351899
C88	C	1.452775	0.426985	0.851899
C89	C	0.993695	-0.000049	0.302560
C90	C	1.493695	0.499951	0.802560
C91	C	1.031691	0.073027	0.418121
C92	C	1.531691	0.573027	0.918121
C93	C	1.031715	-0.073018	0.418144
C94	C	1.531715	0.426982	0.918144
C95	C	1.072695	0.000001	0.367596
C96	C	1.572695	0.500001	0.867596
C97	C	0.989115	-0.000026	0.562475
C98	C	1.489115	0.499974	1.062475
C99	C	0.995377	-0.000051	0.207560
C100	C	1.495377	0.499949	0.707560
H101	H	0.554263	0.134643	-0.042136
H102	H	1.054263	0.634643	0.457864
Br103	Br	0.848345	-0.572786	-0.258650
Br104	Br	1.348345	-0.072786	0.241350
H105	H	1.102315	-0.444362	-0.004898
H106	H	1.602315	0.055638	0.495102
Br107	Br	0.953103	-0.573155	0.067942
Br108	Br	1.453103	-0.073155	0.567942
Br109	Br	0.448707	-0.000171	0.078797
Br110	Br	0.948707	0.499829	0.578797
H111	H	0.554324	-0.134774	-0.042143
H112	H	1.054324	0.365226	0.457857
Br113	Br	0.798461	0.000083	0.428551
Br114	Br	1.298461	0.500083	0.928551
Br115	Br	1.087231	0.176007	0.466133
Br116	Br	1.587231	0.676007	0.966133
H117	H	0.919415	-0.134731	0.322981
H118	H	1.419415	0.365269	0.822981
H119	H	0.852125	-0.444370	-0.084798
H120	H	1.352125	0.055630	0.415202
H121	H	1.022250	-0.444287	-0.255048
H122	H	1.522250	0.055713	0.244952
H123	H	0.525153	-0.000120	-0.263502
H124	H	1.025153	0.499880	0.236498
H125	H	1.132312	-0.555837	-0.145017
H126	H	1.632312	-0.055837	0.354983
H127	H	0.430341	-0.134893	-0.187775
H128	H	0.930341	0.365107	0.312225
Br129	Br	0.410846	0.175817	-0.209983
Br130	Br	0.910846	0.675817	0.290017
H131	H	1.140760	0.000038	0.352106
H132	H	1.640760	0.500038	0.852106
H133	H	0.919380	0.134686	0.322948
H134	H	1.419380	0.634686	0.822948
H135	H	1.065045	-0.134742	0.447090
H136	H	1.565045	0.365258	0.947090
