data_functionalizedCrystal
_audit_creation_method	'MofGen! by Chris Wilmer'
_symmetry_space_group_name_H-M	'P1'
_symmetry_Int_Tables_number	1
_symmetry_cell_setting	triclinic
loop_
_symmetry_equiv_pos_as_xyz
  x,y,z
_cell_length_a	19.288864
_cell_length_b	10.489741
_cell_length_c	17.766277
_cell_angle_alpha	89.993969
_cell_angle_beta	89.976791
_cell_angle_gamma	83.837710
loop_
_atom_site_label
_atom_site_type_symbol
_atom_site_fract_x
_atom_site_fract_y
_atom_site_fract_z
O1	O	0.922420	0.159110	-0.062835
O2	O	0.720303	0.180573	-0.062784
O3	O	0.825961	-0.015860	-0.062806
O4	O	0.816763	0.355544	-0.062813
O5	O	0.825942	-0.015870	0.062382
O6	O	0.720285	0.180564	0.062405
O7	O	0.922401	0.159100	0.062353
Cu8	Cu	0.821341	0.169831	0.073810
Cu9	Cu	0.821363	0.169843	-0.074240
O10	O	0.816744	0.355534	0.062375
C11	C	0.694413	0.179878	-0.000183
C12	C	0.617295	0.177805	-0.000163
C13	C	0.573372	0.293063	-0.000177
C14	C	0.500912	0.291115	-0.000186
C15	C	0.472378	0.173903	-0.000195
C16	C	0.516311	0.058629	-0.000177
C17	C	0.588770	0.060580	-0.000161
C18	C	0.363505	0.081764	-0.044078
C19	C	0.291047	0.079818	-0.044098
C20	C	0.248892	0.167880	-0.000240
C21	C	0.279202	0.257911	0.043628
C22	C	0.351661	0.259862	0.043644
C23	C	0.393810	0.171774	-0.000212
C24	C	0.126399	0.281035	-0.000262
C25	C	0.053938	0.279082	-0.000266
C26	C	0.069339	0.046593	-0.000265
C27	C	0.141798	0.048549	-0.000254
C28	C	0.170324	0.165773	-0.000256
C29	C	0.825257	-0.063381	-0.000212
C30	C	0.823178	-0.204964	-0.000213
C31	C	0.755951	-0.271583	-0.000202
C32	C	0.787699	-0.364429	0.061515
C33	C	0.787734	-0.364394	-0.061911
C34	C	0.854954	-0.295944	0.061554
C35	C	0.854979	-0.295900	-0.061927
C36	C	0.886776	-0.388719	-0.000196
C37	C	0.948292	0.159796	-0.000249
C38	C	1.025409	0.161869	-0.000274
C39	C	0.817448	0.403055	-0.000220
C40	C	0.819526	0.544637	-0.000224
N41	N	0.821331	0.169822	0.177940
N42	N	0.821379	0.169842	-0.178371
C43	C	0.868131	0.082883	0.217317
C44	C	0.868135	0.082878	0.296119
C45	C	0.821345	0.169832	0.335540
C46	C	0.774536	0.256777	0.296154
C47	C	0.774528	0.256772	0.217354
C48	C	0.812826	0.286045	0.460378
C49	C	0.812838	0.286051	0.539177
C50	C	0.821364	0.169847	0.578587
C51	C	0.829892	0.053631	0.539188
C52	C	0.829885	0.053626	0.460388
C53	C	0.821348	0.169847	0.420986
C54	C	0.868171	0.082895	0.703410
C55	C	0.868171	0.082888	0.782213
C56	C	0.774575	0.256798	0.782247
C57	C	0.774572	0.256795	0.703445
C58	C	0.821374	0.169845	0.664031
H59	H	0.465143	0.384976	-0.000195
H60	H	0.906247	0.012079	0.328185
H61	H	0.624533	-0.033280	-0.000150
C62	C	0.604745	0.422014	-0.000165
N63	N	0.628377	0.519141	-0.000150
H64	H	0.836827	-0.041001	0.428313
C65	C	0.385000	0.358881	0.091906
N66	N	0.410111	0.433459	0.128262
H67	H	0.736465	0.327593	0.671382
C68	C	0.157779	0.409983	-0.000255
N69	N	0.181413	0.507108	-0.000249
C70	C	0.749260	-0.405468	0.132020
N71	N	0.720304	-0.436374	0.185122
H72	H	0.836835	-0.040993	0.571274
H73	H	0.018175	0.372944	-0.000273
C74	C	0.681282	-0.202807	-0.000098
N75	N	0.625044	-0.151001	-0.000014
C76	C	0.723072	0.352470	0.174038
N77	N	0.684326	0.424573	0.141411
H78	H	0.493075	-0.036806	-0.000195
C79	C	0.961512	-0.457192	-0.000167
N80	N	1.017802	-0.508771	-0.000141
H81	H	0.046108	-0.048844	-0.000319
C82	C	0.919648	-0.012762	0.660052
N83	N	0.958419	-0.084815	0.627397
C84	C	0.919646	-0.012778	0.825527
N85	N	0.958415	-0.084841	0.858152
H86	H	0.883366	-0.265759	0.113789
H87	H	0.883408	-0.265494	-0.114121
C88	C	0.190116	-0.078246	-0.000247
N89	N	0.226510	-0.173755	-0.000241
C90	C	0.803450	0.413890	0.582507
N91	N	0.796374	0.510182	0.615142
H92	H	0.266375	0.006515	-0.079822
H93	H	0.805871	0.380678	0.428297
C94	C	0.749302	-0.405368	-0.132399
N95	N	0.720351	-0.436224	-0.185487
H96	H	0.736438	0.327575	0.328255
H97	H	0.397823	0.010050	-0.079797
C98	C	0.919608	-0.012777	0.173966
N99	N	0.958379	-0.084833	0.141313
H100	H	0.244881	0.329619	0.079342
C101	C	0.723105	0.352451	0.825606
N102	N	0.684337	0.424498	0.858268
