data_functionalizedCrystal
_audit_creation_method	'MofGen! by Chris Wilmer'
_symmetry_space_group_name_H-M	'P1'
_symmetry_Int_Tables_number	1
_symmetry_cell_setting	triclinic
loop_
_symmetry_equiv_pos_as_xyz
  x,y,z
_cell_length_a	11.169416
_cell_length_b	12.759401
_cell_length_c	12.759393
_cell_angle_alpha	90.020473
_cell_angle_beta	89.971874
_cell_angle_gamma	89.988135
loop_
_atom_site_label
_atom_site_type_symbol
_atom_site_fract_x
_atom_site_fract_y
_atom_site_fract_z
Zn1	Zn	-0.477694	-1.606293	-0.594041
Zn2	Zn	-0.678425	-1.606199	-0.418371
Zn3	Zn	-0.477759	-1.430594	-0.418377
Zn4	Zn	-0.678339	-1.430597	-0.594008
O5	O	-0.578054	-1.518421	-0.506199
O6	O	-0.504329	-1.753302	-0.570750
O7	O	-0.651869	-1.582864	-0.271350
O8	O	-0.309801	-1.453938	-0.441696
O9	O	-0.651806	-1.753233	-0.441685
O10	O	-0.309753	-1.583024	-0.570756
O11	O	-0.504442	-1.453847	-0.271355
O12	O	-0.504358	-1.283573	-0.441663
O13	O	-0.651659	-1.453945	-0.741033
O14	O	-0.651723	-1.283576	-0.570698
O15	O	-0.504246	-1.583028	-0.741058
O16	O	-0.846363	-1.582868	-0.441653
O17	O	-0.846300	-1.453854	-0.570692
C18	C	-0.889879	-1.518379	-0.506191
C19	C	-1.023279	-1.518458	-0.506223
C20	C	-0.578039	-1.245454	-0.506178
C21	C	-0.578062	-1.128677	-0.506194
C22	C	-0.577936	-1.518497	-0.780233
C23	C	-0.577885	-1.518530	-0.897009
C24	C	-0.265012	-1.518491	-0.506230
C25	C	-0.131612	-1.518521	-0.506243
C26	C	-0.578070	-1.792454	-0.506221
C27	C	-0.578076	-1.909231	-0.506230
C28	C	-0.654912	-1.073844	-0.573277
C29	C	-0.654916	-0.964120	-0.573298
C30	C	-0.501218	-0.964071	-0.439144
C31	C	-0.501209	-1.073793	-0.439129
C32	C	-0.501070	-1.585770	-1.061617
C33	C	-0.501116	-1.585750	-0.951893
C34	C	-0.654622	-1.451333	-0.951856
C35	C	-0.654580	-1.451359	-1.061578
C36	C	-0.578085	-1.518405	-0.233232
C37	C	-0.577798	-1.518576	-0.116456
H38	H	-0.717493	-0.919480	-0.627925
O39	O	-0.729156	-1.385898	-0.898669
C40	C	-0.702909	-1.281194	-0.925452
H41	H	-0.656726	-1.279040	-1.005117
H42	H	-0.789533	-1.234080	-0.929204
H43	H	-0.641247	-1.245793	-0.863696
H44	H	-0.438649	-0.919372	-0.384540
H45	H	-0.717068	-1.396641	-1.106228
H46	H	-0.717488	-1.118527	-0.627889
H47	H	-0.438621	-1.118440	-0.384502
H48	H	-0.438548	-1.640502	-1.106296
H49	H	-0.438638	-1.640467	-0.907248
