data_functionalizedCrystal
_audit_creation_method	'MofGen! by Chris Wilmer'
_symmetry_space_group_name_H-M	'P1'
_symmetry_Int_Tables_number	1
_symmetry_cell_setting	triclinic
loop_
_symmetry_equiv_pos_as_xyz
  x,y,z
_cell_length_a	11.169417
_cell_length_b	29.839131
_cell_length_c	11.169417
_cell_angle_alpha	90.015401
_cell_angle_beta	90.000863
_cell_angle_gamma	90.042299
loop_
_atom_site_label
_atom_site_type_symbol
_atom_site_fract_x
_atom_site_fract_y
_atom_site_fract_z
Zn1	Zn	1.834478	-0.178916	0.678477
Zn2	Zn	1.834325	-0.254025	0.477767
Zn3	Zn	1.633831	-0.178911	0.477812
Zn4	Zn	1.633663	-0.254021	0.678412
O5	O	1.734074	-0.216468	0.578117
O6	O	2.002408	-0.188883	0.651861
O7	O	1.807735	-0.244061	0.309823
O8	O	1.660581	-0.116045	0.504477
O9	O	2.002295	-0.244066	0.504400
O10	O	1.807996	-0.116048	0.651905
O11	O	1.660433	-0.188875	0.309856
O12	O	1.465859	-0.188871	0.504413
O13	O	1.660295	-0.244058	0.846370
O14	O	1.465736	-0.244054	0.651793
O15	O	1.807834	-0.188879	0.846418
O16	O	1.807573	-0.316892	0.504337
O17	O	1.660147	-0.316889	0.651750
C18	C	1.422250	-0.216461	0.578101
C19	C	1.288850	-0.216469	0.578123
C20	C	1.733858	-0.333191	0.578057
C21	C	1.733875	-0.383125	0.578072
C22	C	1.810978	-0.692758	0.501471
C23	C	1.811127	-0.880431	0.501518
O24	O	1.876511	-0.904686	0.436343
N25	N	1.734323	-0.903910	0.578207
C26	C	1.657483	-0.880469	0.654896
O27	O	1.592169	-0.904746	0.720135
C28	C	1.657342	-0.692797	0.654855
C29	C	1.734142	-0.669319	0.578152
C30	C	1.887773	-0.669280	0.424775
C31	C	1.887731	-0.622365	0.424760
C32	C	1.810894	-0.598927	0.501440
C33	C	1.734099	-0.622404	0.578136
C34	C	1.580508	-0.669356	0.731549
C35	C	1.580482	-0.622435	0.731534
C36	C	1.657282	-0.598958	0.654831
C37	C	1.657220	-0.552050	0.654801
N38	N	1.734023	-0.528571	0.578112
C39	C	1.810860	-0.552009	0.501431
C40	C	1.657561	-0.978999	0.654911
C41	C	1.657594	-1.025917	0.654920
C42	C	1.811240	-1.025876	0.501543
C43	C	1.811199	-0.978957	0.501528
C44	C	1.734364	-0.955520	0.578221
C45	C	1.810764	-0.453483	0.501404
C46	C	1.810712	-0.406563	0.501391
C47	C	1.657071	-0.406609	0.654773
C48	C	1.657119	-0.453525	0.654781
C49	C	1.733975	-0.476960	0.578092
O50	O	1.591879	-0.527766	0.719951
O51	O	1.876183	-0.527724	0.436221
C52	C	1.811021	-0.739673	0.501487
C53	C	1.734226	-0.763150	0.578183
C54	C	1.657389	-0.739712	0.654863
C55	C	1.734260	-0.810068	0.578192
C56	C	1.811097	-0.833506	0.501511
C57	C	1.887900	-0.810027	0.424822
C58	C	1.887858	-0.763111	0.424806
C59	C	1.580586	-0.763192	0.731553
C60	C	1.580634	-0.810107	0.731561
C61	C	1.657471	-0.833545	0.654881
C62	C	2.047117	-0.216475	0.578133
C63	C	2.180517	-0.216478	0.578140
C64	C	1.734063	-0.216469	0.891159
C65	C	1.734058	-0.216469	1.024559
C66	C	1.734325	-0.099290	0.578203
C67	C	1.734431	-0.049355	0.578239
C68	C	1.734072	-0.216476	1.266292
C69	C	1.734061	-0.216470	1.132892
H70	H	1.873251	-0.387450	0.438926
H71	H	1.517915	-0.603355	0.793991
C72	C	1.573109	-1.051739	0.739283
H73	H	1.584121	-1.083040	0.728309
H74	H	1.590603	-1.044030	0.819933
H75	H	1.492475	-1.044082	0.721641
H76	H	1.873351	-0.472559	0.438959
H77	H	1.517964	-0.688463	0.794003
C78	C	1.572563	-0.380821	0.739120
H79	H	1.583554	-0.349517	0.728129
H80	H	1.491939	-0.388540	0.721503
H81	H	1.590083	-0.388491	0.819780
H82	H	1.594989	-0.959920	0.717365
H83	H	1.950349	-0.688359	0.362332
H84	H	1.950460	-0.829118	0.362382
H85	H	1.594586	-0.472641	0.717243
C86	C	1.972226	-0.596546	0.340400
H87	H	2.017996	-0.617230	0.294750
H88	H	1.926362	-0.578266	0.288054
H89	H	2.024473	-0.578220	0.386363
C90	C	1.895755	-1.051663	0.417193
H91	H	1.884773	-1.082968	0.428194
H92	H	1.878261	-1.043993	0.336534
H93	H	1.976380	-1.043945	0.434835
C94	C	1.972347	-0.737292	0.340441
H95	H	2.018116	-0.757976	0.294789
H96	H	1.926479	-0.719013	0.288096
H97	H	2.024597	-0.718965	0.386398
H98	H	1.873737	-0.959845	0.439071
C99	C	1.496150	-0.835927	0.815943
H100	H	1.450396	-0.815245	0.861613
H101	H	1.443905	-0.854260	0.770010
H102	H	1.542047	-0.854200	0.868288
C103	C	1.496051	-0.737416	0.815896
H104	H	1.450314	-0.758123	0.861558
H105	H	1.541883	-0.719085	0.868232
H106	H	1.443774	-0.719144	0.769922
