data_functionalizedCrystal
_audit_creation_method	'MofGen! by Chris Wilmer'
_symmetry_space_group_name_H-M	'P1'
_symmetry_Int_Tables_number	1
_symmetry_cell_setting	triclinic
loop_
_symmetry_equiv_pos_as_xyz
  x,y,z
_cell_length_a	19.188930
_cell_length_b	19.188930
_cell_length_c	18.266242
_cell_angle_alpha	90.022918
_cell_angle_beta	89.988525
_cell_angle_gamma	96.855221
loop_
_atom_site_label
_atom_site_type_symbol
_atom_site_fract_x
_atom_site_fract_y
_atom_site_fract_z
O1	O	0.087169	-0.926149	-0.061124
O2	O	0.098903	-0.722838	-0.061075
O3	O	-0.008620	-0.830361	-0.061087
O4	O	0.194691	-0.818627	-0.061113
O5	O	-0.008625	-0.830343	0.060675
O6	O	0.098897	-0.722820	0.060687
O7	O	0.087163	-0.926131	0.060638
Zn8	Zn	0.093029	-0.824473	0.079994
Zn9	Zn	0.093037	-0.824497	-0.080432
O10	O	0.194686	-0.818608	0.060649
C11	C	0.098520	-0.696818	-0.000188
C12	C	0.097380	-0.619313	-0.000169
N13	N	0.093024	-0.824461	0.189481
C14	C	-0.034634	-0.829972	-0.000204
C15	C	-0.112138	-0.828831	-0.000197
C16	C	-0.157062	-0.891922	-0.000209
C17	C	-0.229886	-0.890850	-0.000220
C18	C	-0.257782	-0.826684	-0.000206
C19	C	-0.212849	-0.763585	-0.000198
C20	C	-0.140026	-0.764658	-0.000194
N21	N	-0.365789	-0.777631	0.041244
N22	N	-0.434968	-0.776615	0.041242
C23	C	-0.477191	-0.823446	-0.000220
N24	N	-0.447624	-0.871341	-0.041669
N25	N	-0.378439	-0.872359	-0.041664
C26	C	-0.336745	-0.825513	-0.000210
C27	C	-0.601079	-0.885379	-0.000245
C28	C	-0.673904	-0.884305	-0.000261
C29	C	-0.656865	-0.757038	-0.000231
C30	C	-0.584042	-0.758114	-0.000222
C31	C	-0.556154	-0.822287	-0.000226
C32	C	0.220700	-0.818997	-0.000236
C33	C	0.298204	-0.820138	-0.000247
C34	C	0.087546	-0.952151	-0.000252
C35	C	0.088687	-1.029656	-0.000276
C36	C	0.160470	-0.574389	-0.000188
C37	C	0.159399	-0.501566	-0.000196
C38	C	0.095233	-0.473669	-0.000199
C39	C	0.032133	-0.518603	-0.000175
C40	C	0.033207	-0.591425	-0.000160
N41	N	0.046188	-0.365695	-0.041663
N42	N	0.045172	-0.296516	-0.041679
C43	C	0.091994	-0.254260	-0.000243
N44	N	0.139881	-0.283795	0.041200
N45	N	0.140899	-0.352980	0.041213
C46	C	0.094062	-0.394707	-0.000215
C47	C	0.153928	-0.130372	-0.000270
C48	C	0.152853	-0.057547	-0.000274
C49	C	0.025586	-0.074586	-0.000261
C50	C	0.026662	-0.147409	-0.000250
C51	C	0.090835	-0.175298	-0.000258
N52	N	0.093037	-0.824513	-0.189919
C53	C	0.045436	-0.872088	0.227785
C54	C	0.045433	-0.872092	0.304430
C55	C	0.093030	-0.824477	0.342768
C56	C	0.140621	-0.776841	0.304455
C57	C	0.140618	-0.776834	0.227812
N58	N	0.154837	-0.815401	0.463094
N59	N	0.154838	-0.815413	0.535902
C60	C	0.093040	-0.824496	0.573691
N61	N	0.031239	-0.833582	0.535920
N62	N	0.031240	-0.833574	0.463106
C63	C	0.093038	-0.824480	0.425875
C64	C	0.045444	-0.872131	0.695101
C65	C	0.045440	-0.872130	0.771748
C66	C	0.140634	-0.776882	0.771772
C67	C	0.140632	-0.776879	0.695127
C68	C	0.093038	-0.824507	0.656796
H69	H	-0.266470	-0.942228	-0.000233
C70	C	-0.492274	-0.685488	0.062393
C71	C	-0.534653	-0.688763	-0.000201
H72	H	-0.461781	-0.642673	0.062400
H73	H	-0.521047	-0.687702	0.104844
H74	H	-0.465246	-0.723862	0.062379
H75	H	-0.561686	-0.650392	-0.000184
H76	H	-0.505878	-0.686542	-0.042663
H77	H	0.212725	-0.597091	-0.000196
H78	H	-0.235567	-0.711340	-0.000187
C79	C	0.225472	0.034196	-0.062896
C80	C	0.222208	-0.008163	-0.000297
H81	H	0.268288	0.064687	-0.062908
H82	H	0.223245	0.005410	-0.105344
H83	H	0.187100	0.061228	-0.062884
H84	H	0.260578	-0.035198	-0.000312
H85	H	0.224442	0.020627	0.042162
H86	H	0.210776	-0.464982	-0.000210
C87	C	-0.074931	-0.628402	-0.062740
C88	C	-0.036147	-0.640812	-0.000147
H89	H	-0.117745	-0.658896	-0.062734
H90	H	-0.084754	-0.581046	-0.062740
H91	H	-0.048599	-0.636859	-0.105197
H92	H	-0.062477	-0.632349	0.042310
H93	H	-0.026326	-0.688179	-0.000141
H94	H	-0.020111	-0.495885	-0.000188
H95	H	-0.710481	-0.935683	-0.000274
C96	C	0.003250	-0.914490	0.577599
C97	C	-0.006824	-0.924525	0.652962
H98	H	-0.029001	-0.946854	0.551587
H99	H	-0.004270	-0.867944	0.565038
H100	H	0.049854	-0.921877	0.565062
H101	H	-0.053426	-0.917133	0.665499
H102	H	0.000691	-0.971082	0.665528
H103	H	-0.679578	-0.704792	-0.000222
H104	H	-0.026659	-0.051874	-0.000309
C105	C	-0.099239	-0.156934	-0.000247
C106	C	-0.042690	-0.196795	-0.000240
H107	H	-0.142055	-0.187424	-0.000244
H108	H	-0.097015	-0.128155	0.042206
H109	H	-0.097002	-0.128197	-0.042717
H110	H	-0.044924	-0.225528	0.042233
H111	H	-0.044916	-0.225586	-0.042697
H112	H	0.006681	-0.910868	0.196579
H113	H	-0.578372	-0.937632	-0.000251
C114	C	-0.085044	-0.966973	-0.062815
C115	C	-0.126408	-0.962460	-0.000223
H116	H	-0.066117	-1.010519	-0.062822
H117	H	-0.113092	-0.963917	-0.105268
H118	H	-0.047864	-0.929550	-0.062798
H119	H	-0.163591	-0.999881	-0.000243
H120	H	-0.098359	-0.965523	0.042241
H121	H	0.179371	-0.738049	0.196624
C122	C	-0.048658	-0.966244	0.296716
C123	C	-0.006881	-0.924445	0.346545
H124	H	-0.080953	-0.998565	0.322716
H125	H	-0.073703	-0.937260	0.266844
H126	H	-0.019651	-0.991265	0.266801
H127	H	-0.035889	-0.899420	0.376457
H128	H	0.018165	-0.953433	0.376429
H129	H	0.206181	-0.153080	-0.000267
C130	C	0.234725	-0.682734	0.764092
C131	C	0.192953	-0.724539	0.813903
H132	H	0.267021	-0.650416	0.790106
H133	H	0.259768	-0.711715	0.734180
H134	H	0.205715	-0.657712	0.734216
H135	H	0.221964	-0.749566	0.843776
H136	H	0.167909	-0.695555	0.843828
H137	H	0.006685	-0.910911	0.802935
C138	C	0.234707	-0.682689	0.296782
C139	C	0.192938	-0.724498	0.346593
H140	H	0.267001	-0.650369	0.322797
H141	H	0.259752	-0.711666	0.266869
H142	H	0.205694	-0.657668	0.266908
H143	H	0.221951	-0.749524	0.376464
H144	H	0.167892	-0.695517	0.376519
H145	H	0.179386	-0.738100	0.663938
H146	H	-0.103448	-0.713281	-0.000184
