data_functionalizedCrystal
_audit_creation_method	'MofGen! by Chris Wilmer'
_symmetry_space_group_name_H-M	'P1'
_symmetry_Int_Tables_number	1
_symmetry_cell_setting	triclinic
loop_
_symmetry_equiv_pos_as_xyz
  x,y,z
_cell_length_a	11.026607
_cell_length_b	16.974897
_cell_length_c	15.455313
_cell_angle_alpha	90.971552
_cell_angle_beta	93.261289
_cell_angle_gamma	95.967972
loop_
_atom_site_label
_atom_site_type_symbol
_atom_site_fract_x
_atom_site_fract_y
_atom_site_fract_z
O1	O	0.165535	1.065626	0.146854
O2	O	0.184041	0.838822	0.130951
O3	O	-0.001933	0.933427	0.137581
O4	O	0.351508	0.971021	0.140224
O5	O	-0.012535	0.938834	-0.006302
O6	O	0.173438	0.844229	-0.012932
O7	O	0.154933	1.071033	0.002971
Cu8	Cu	0.163217	0.958124	-0.018118
Cu9	Cu	0.175756	0.951730	0.152040
O10	O	0.340906	0.976428	-0.003660
C11	C	0.177835	0.812038	0.056942
C12	C	0.175127	0.724174	0.050781
C13	C	0.179637	0.679941	0.126311
C14	C	0.177111	0.597384	0.120510
C15	C	0.170067	0.559062	0.039178
C16	C	0.165560	0.603301	-0.036358
C17	C	0.168095	0.685856	-0.030556
C18	C	0.161875	0.312475	0.013415
C19	C	0.159337	0.229914	0.007618
C20	C	0.170890	0.224003	0.164487
C21	C	0.173417	0.306560	0.170282
C22	C	0.168917	0.350792	0.094746
N23	N	0.167481	0.474676	0.033246
N24	N	0.171511	0.435177	0.100679
C25	C	-0.052469	0.929195	0.065154
C26	C	-0.187257	0.908519	0.063708
C27	C	-0.260859	0.965607	0.067712
C28	C	-0.400169	0.944239	0.066217
C29	C	0.391443	0.980660	0.068769
C30	C	0.526231	1.001335	0.070221
C31	C	0.161138	1.097816	0.076982
C32	C	0.163846	1.185681	0.083148
N33	N	0.184566	0.947232	0.271720
N34	N	0.154397	0.962627	-0.137798
C35	C	0.105711	0.987543	0.319940
C36	C	0.112372	0.984139	0.410509
C37	C	0.197882	0.940420	0.452857
C38	C	0.276745	0.900108	0.404631
C39	C	0.270090	0.903516	0.314064
C40	C	0.226605	0.925724	0.723409
C41	C	0.233252	0.922316	0.813982
C42	C	0.068879	1.006350	0.819854
C43	C	0.062227	1.009751	0.729284
C44	C	0.141094	0.969442	0.681067
N45	N	0.204690	0.936938	0.545433
N46	N	0.134291	0.972929	0.588492
H47	H	0.164428	0.721870	-0.092061
H48	H	0.180784	0.561373	0.182015
H49	H	-0.433649	1.066030	0.074823
H50	H	-0.220736	1.030300	0.072243
C51	C	0.187384	0.722087	0.215784
N52	N	0.193225	0.753830	0.283177
H53	H	-0.227379	0.843826	0.059177
H54	H	0.334303	0.870692	0.274804
C55	C	0.327246	0.874158	0.860559
N56	N	0.398008	0.837862	0.895638
H57	H	0.153634	0.198716	-0.058616
C58	C	-0.031877	1.057817	0.682706
N59	N	-0.102774	1.094010	0.647623
H60	H	0.179144	0.337755	0.236511
C61	C	0.175850	0.175341	0.247570
N62	N	0.179592	0.138690	0.310152
H63	H	0.159832	0.572093	-0.102580
C64	C	0.011639	1.035636	0.273365
N65	N	-0.059216	1.071863	0.238288
H66	H	0.158202	0.348479	-0.048092
C67	C	-0.454361	0.856835	0.060087
N68	N	-0.495181	0.791003	0.055468
H69	H	0.048163	1.016964	0.449769
C70	C	-0.017874	1.050682	0.872900
N71	N	-0.083221	1.084075	0.912855
H72	H	0.290820	0.892901	0.684157
C73	C	0.370808	0.852015	0.451217
N74	N	0.441654	0.815788	0.486305
