data_functionalizedCrystal
_audit_creation_method	'MofGen! by Chris Wilmer'
_symmetry_space_group_name_H-M	'P1'
_symmetry_Int_Tables_number	1
_symmetry_cell_setting	triclinic
loop_
_symmetry_equiv_pos_as_xyz
  x,y,z
_cell_length_a	18.101398
_cell_length_b	25.639239
_cell_length_c	18.101389
_cell_angle_alpha	89.979551
_cell_angle_beta	89.975673
_cell_angle_gamma	90.033952
loop_
_atom_site_label
_atom_site_type_symbol
_atom_site_fract_x
_atom_site_fract_y
_atom_site_fract_z
Zn1	Zn	1.132082	-0.208272	-0.418828
Zn2	Zn	1.131961	-0.295693	-0.294982
Zn3	Zn	1.008241	-0.208266	-0.294989
Zn4	Zn	1.008175	-0.295671	-0.418771
O5	O	1.070115	-0.251975	-0.356893
O6	O	1.235699	-0.219880	-0.402421
O7	O	1.115527	-0.284103	-0.191350
O8	O	1.024747	-0.135102	-0.311444
O9	O	1.235610	-0.284108	-0.311432
O10	O	1.115732	-0.135106	-0.402428
O11	O	1.024630	-0.219871	-0.191356
O12	O	0.904599	-0.219849	-0.311388
O13	O	1.024635	-0.284070	-0.522411
O14	O	0.904551	-0.284065	-0.402330
O15	O	1.115668	-0.219858	-0.522454
O16	O	1.115463	-0.368855	-0.311376
O17	O	1.024518	-0.368839	-0.402323
C18	C	0.877704	-0.251954	-0.356854
C19	C	0.795390	-0.251958	-0.356855
C20	C	0.496299	-0.251990	-0.356917
C21	C	0.527630	-0.211386	-0.299978
C22	C	0.613248	-0.211495	-0.299735
C23	C	0.644682	-0.251974	-0.356886
C24	C	0.613553	-0.307048	-0.335559
C25	C	0.527908	-0.306822	-0.335163
C26	C	0.527917	-0.238000	-0.435317
C27	C	0.613568	-0.236773	-0.434890
C28	C	0.728541	-0.251968	-0.356870
C29	C	0.412440	-0.252000	-0.356932
C30	C	1.069990	-0.387818	-0.356859
C31	C	1.070005	-0.445932	-0.356869
C32	C	1.117594	-0.806291	-0.309617
C33	C	1.117622	-0.860895	-0.309627
O34	O	1.157955	-0.889129	-0.269415
N35	N	1.070245	-0.888214	-0.356942
C36	C	1.022841	-0.860926	-0.404255
O37	O	0.982546	-0.889177	-0.444501
C38	C	1.022817	-0.806323	-0.404248
C39	C	1.070192	-0.779007	-0.356925
C40	C	1.164965	-0.778975	-0.262299
C41	C	1.164936	-0.724374	-0.262288
C42	C	1.117534	-0.697090	-0.309596
C43	C	1.070162	-0.724406	-0.356914
C44	C	0.975417	-0.779036	-0.451564
C45	C	0.975397	-0.724429	-0.451554
C46	C	1.022773	-0.697113	-0.404231
C47	C	1.022731	-0.642522	-0.404212
N48	N	1.070108	-0.615202	-0.356897
C49	C	1.117509	-0.642487	-0.309589
C50	C	1.022897	-0.975597	-0.404266
C51	C	1.022917	-1.030199	-0.404270
C52	C	1.117699	-1.030164	-0.309643
C53	C	1.117675	-0.975561	-0.309636
C54	C	1.070274	-0.948278	-0.356952
C55	C	1.117443	-0.527822	-0.309570
C56	C	1.117406	-0.473216	-0.309561
C57	C	1.022627	-0.473256	-0.404190
C58	C	1.022661	-0.527856	-0.404197
C59	C	1.070074	-0.555138	-0.356884
O60	O	0.982421	-0.614254	-0.444405
O61	O	1.157804	-0.614229	-0.269357
C62	C	1.263277	-0.251997	-0.356932
C63	C	1.345591	-0.252006	-0.356949
C64	C	1.070158	-0.251962	-0.550055
C65	C	1.070176	-0.251957	-0.632369
C66	C	1.070260	-0.115602	-0.356943
C67	C	1.070322	-0.057488	-0.356964
C68	C	1.070219	-0.251859	-0.931460
C69	C	1.012746	-0.292130	-0.900108
C70	C	1.012901	-0.292317	-0.814490
C71	C	1.070197	-0.251907	-0.783077
C72	C	1.148220	-0.266868	-0.814182
C73	C	1.147899	-0.267132	-0.899827
C74	C	1.050348	-0.196537	-0.899887
C75	C	1.048612	-0.196856	-0.814236
C76	C	1.070189	-0.251934	-0.699218
C77	C	1.070232	-0.251833	-1.015320
C78	C	1.070115	-0.251951	-0.164482
C79	C	1.070240	-0.251809	-0.082169
H80	H	0.633919	-0.196245	-0.450971
H81	H	1.192172	-0.239073	-0.920569
C82	C	0.500543	-0.277949	-0.492632
H83	H	0.469993	-0.303033	-0.468938
H84	H	0.541723	-0.294958	-0.514470
H85	H	0.473007	-0.260500	-0.529838
C86	C	1.169524	-0.443171	-0.257508
H87	H	1.197764	-0.467244	-0.229341
H88	H	1.141208	-0.421900	-0.225205
H89	H	1.201767	-0.421840	-0.285870
C90	C	0.499902	-0.349031	-0.388808
H91	H	0.540870	-0.366248	-0.410734
H92	H	0.470796	-0.333217	-0.426278
H93	H	0.470774	-0.373663	-0.362519
H94	H	0.936799	-0.702218	-0.490086
H95	H	0.984031	-0.451032	-0.442706
H96	H	1.156252	-0.953323	-0.271102
C97	C	0.923314	-0.809075	-0.503628
H98	H	0.930109	-0.845504	-0.496864
H99	H	0.934131	-0.800095	-0.553390
H100	H	0.873554	-0.800162	-0.492742
H101	H	1.156299	-1.052389	-0.271125
C102	C	0.970549	-0.557905	-0.456249
H103	H	0.942317	-0.533833	-0.484424
H104	H	0.938310	-0.579243	-0.427899
H105	H	0.998880	-0.579170	-0.488554
C106	C	1.217058	-0.694333	-0.210242
H107	H	1.245294	-0.718409	-0.182078
H108	H	1.188748	-0.673059	-0.177937
H109	H	1.249303	-0.673005	-0.238607
C110	C	0.934746	-0.279663	-0.786073
H111	H	0.902613	-0.274365	-0.826872
H112	H	0.936340	-0.248932	-0.756819
H113	H	0.917060	-0.307894	-0.757008
H114	H	0.984333	-1.052436	-0.442798
C115	C	0.641691	-0.156325	-0.317790
H116	H	0.694174	-0.156318	-0.317668
H117	H	0.624109	-0.132486	-0.281683
H118	H	0.624340	-0.146137	-0.365167
C119	C	0.934348	-0.279612	-0.927910
H120	H	0.935961	-0.249715	-0.958891
H121	H	0.902962	-0.272935	-0.886922
H122	H	0.915756	-0.308462	-0.955085
C123	C	1.217101	-0.808982	-0.210247
H124	H	1.210340	-0.845415	-0.217020
H125	H	1.206277	-0.800047	-0.160483
H126	H	1.266853	-0.799997	-0.221132
C127	C	0.971052	-0.181609	-0.786764
H128	H	0.951900	-0.208675	-0.756428
H129	H	0.939316	-0.176495	-0.827913
H130	H	0.974095	-0.150253	-0.758984
H131	H	0.984292	-0.953386	-0.442794
H132	H	1.025734	-0.332886	-0.921632
C133	C	0.641059	-0.349015	-0.389821
H134	H	0.671848	-0.333284	-0.426050
H135	H	0.599942	-0.364991	-0.413298
H136	H	0.668373	-0.374657	-0.363590
C137	C	1.030616	-0.347713	-0.786812
H138	H	1.037757	-0.370188	-0.827911
H139	H	0.990707	-0.360229	-0.757671
H140	H	1.074314	-0.346900	-0.757786
C141	C	1.101076	-0.154174	-0.785412
H142	H	1.086748	-0.121360	-0.805127
H143	H	1.150195	-0.161868	-0.800324
H144	H	1.098656	-0.152958	-0.733013
H145	H	0.634966	-0.319119	-0.278864
C146	C	1.207625	-0.228494	-0.786696
H147	H	1.185319	-0.202948	-0.755930
H148	H	1.230237	-0.211885	-0.827822
H149	H	1.243965	-0.246976	-0.759363
H150	H	0.634968	-0.264193	-0.479587
H151	H	1.164746	-0.307573	-0.919809
C152	C	1.169591	-0.557824	-0.257522
H153	H	1.197790	-0.533728	-0.229338
H154	H	1.201858	-0.579094	-0.285878
H155	H	1.141286	-0.579152	-0.225225
C156	C	1.171372	-0.320921	-0.785223
H157	H	1.133601	-0.334443	-0.754186
H158	H	1.215937	-0.317815	-0.757880
H159	H	1.178846	-0.343858	-0.825746
C160	C	0.499833	-0.156047	-0.317819
H161	H	0.468868	-0.157209	-0.360150
H162	H	0.540819	-0.133884	-0.327339
H163	H	0.472639	-0.142913	-0.276971
C164	C	0.974828	-0.178122	-0.929048
H165	H	0.954708	-0.204005	-0.960752
H166	H	0.980912	-0.146496	-0.955724
H167	H	0.942266	-0.172517	-0.888654
C168	C	1.106887	-0.156001	-0.927289
H169	H	1.142432	-0.172681	-0.957823
H170	H	1.130967	-0.140558	-0.886121
H171	H	1.082139	-0.129760	-0.954849
H172	H	0.633700	-0.220743	-0.241642
C173	C	0.498522	-0.223736	-0.221954
H174	H	0.467360	-0.253531	-0.223928
H175	H	0.471280	-0.194778	-0.203844
H176	H	0.538977	-0.230530	-0.189957
C177	C	0.498790	-0.184692	-0.461513
H178	H	0.467071	-0.170469	-0.424875
H179	H	0.472136	-0.189005	-0.506293
H180	H	0.539198	-0.161711	-0.469513
H181	H	0.507894	-0.318688	-0.277849
