data_functionalizedCrystal
_audit_creation_method	'MofGen! by Chris Wilmer'
_symmetry_space_group_name_H-M	'P1'
_symmetry_Int_Tables_number	1
_symmetry_cell_setting	triclinic
loop_
_symmetry_equiv_pos_as_xyz
  x,y,z
_cell_length_a	19.077105
_cell_length_b	19.077174
_cell_length_c	18.215405
_cell_angle_alpha	92.269720
_cell_angle_beta	87.721119
_cell_angle_gamma	85.483752
loop_
_atom_site_label
_atom_site_type_symbol
_atom_site_fract_x
_atom_site_fract_y
_atom_site_fract_z
Zn1	Zn	1.093703	-0.441824	-0.357575
Zn2	Zn	1.593703	0.058176	0.142425
Zn3	Zn	1.088887	-0.323930	-0.475490
Zn4	Zn	1.588887	0.176070	0.024510
Zn5	Zn	0.971088	-0.319222	-0.347287
Zn6	Zn	1.471088	0.180778	0.152713
Zn7	Zn	0.975781	-0.437048	-0.475442
Zn8	Zn	1.475781	0.062952	0.024558
O9	O	1.032365	-0.380506	-0.413949
O10	O	1.532365	0.119494	0.086051
O11	O	1.191715	-0.430155	-0.377542
O12	O	1.691715	0.069845	0.122458
O13	O	1.069282	-0.224656	-0.454198
O14	O	1.569282	0.275344	0.045802
O15	O	0.987405	-0.335514	-0.245671
O16	O	1.487405	0.164486	0.254329
O17	O	1.188176	-0.343538	-0.464174
O18	O	1.688176	0.156462	0.035826
O19	O	1.077490	-0.425590	-0.253229
O20	O	1.577490	0.074410	0.246771
O21	O	0.982735	-0.221197	-0.360009
O22	O	1.482735	0.278803	0.139991
O23	O	0.873061	-0.330883	-0.359962
O24	O	1.373061	0.169117	0.140038
O25	O	0.995403	-0.536331	-0.464092
O26	O	1.495403	-0.036331	0.035908
O27	O	0.876509	-0.417449	-0.454116
O28	O	1.376509	0.082551	0.045884
O29	O	1.082040	-0.539840	-0.377495
O30	O	1.582040	-0.039840	0.122505
O31	O	1.073832	-0.338907	-0.578464
O32	O	1.573832	0.161093	-0.078464
O33	O	0.990734	-0.422014	-0.578429
O34	O	1.490734	0.077986	-0.078429
C35	C	0.849206	-0.373137	-0.405918
C36	C	1.349206	0.126863	0.094082
C37	C	0.770850	-0.370002	-0.402501
C38	C	1.270850	0.129998	0.097499
C39	C	0.735849	-0.413528	-0.449985
C40	C	1.235849	0.086472	0.050015
C41	C	0.662226	-0.410585	-0.446765
C42	C	1.162226	0.089415	0.053235
C43	C	0.623605	-0.364112	-0.396064
C44	C	1.123605	0.135888	0.103936
C45	C	0.658611	-0.320584	-0.348575
C46	C	1.158611	0.179416	0.151425
C47	C	0.732233	-0.323531	-0.351792
C48	C	1.232233	0.176469	0.148208
C49	C	0.403224	-0.350476	-0.381175
C50	C	0.903224	0.149524	0.118825
C51	C	0.329597	-0.347531	-0.377963
C52	C	0.829597	0.152469	0.122037
C53	C	0.333217	-0.437533	-0.476152
C54	C	0.833217	0.062467	0.023848
C55	C	0.406840	-0.440473	-0.479367
C56	C	0.906840	0.059527	0.020633
C57	C	0.441840	-0.396948	-0.431876
C58	C	0.941840	0.103052	0.068124
N59	N	0.548350	-0.361101	-0.392773
N60	N	1.048350	0.138899	0.107227
N61	N	0.517094	-0.399963	-0.435164
N62	N	1.017094	0.100037	0.064836
C63	C	1.039782	-0.564380	-0.421936
C64	C	1.539782	-0.064380	0.078064
C65	C	1.042943	-0.642736	-0.425339
C66	C	1.542943	-0.142736	0.074661
C67	C	0.999370	-0.677746	-0.377900
C68	C	1.499370	-0.177746	0.122100
C69	C	1.002337	-0.751370	-0.381104
C70	C	1.502337	-0.251370	0.118896
C71	C	1.048882	-0.789982	-0.431744
C72	C	1.548882	-0.289982	0.068256
C73	C	1.092457	-0.754966	-0.479189
C74	C	1.592457	-0.254966	0.020811
C75	C	1.089485	-0.681344	-0.475988
C76	C	1.589485	-0.181344	0.024012
C77	C	1.062597	-1.010362	-0.446580
C78	C	1.562597	-0.510362	0.053420
C79	C	1.065566	-1.083990	-0.449776
C80	C	1.565566	-0.583990	0.050224
C81	C	0.975445	-1.080388	-0.351691
C82	C	1.475445	-0.580388	0.148309
C83	C	0.972481	-1.006764	-0.348492
C84	C	1.472481	-0.506764	0.151508
C85	C	1.016054	-0.971755	-0.395939
C86	C	1.516054	-0.471755	0.104061
N87	N	1.051917	-0.865237	-0.435019
N88	N	1.551917	-0.365237	0.064981
N89	N	1.013014	-0.896501	-0.392667
N90	N	1.513014	-0.396501	0.107333
C91	C	1.216239	-0.387904	-0.422011
C92	C	1.716239	0.112096	0.077989
C93	C	1.294596	-0.391057	-0.425446
C94	C	1.794596	0.108943	0.074554
C95	C	1.032289	-0.380469	-0.605150
C96	C	1.532289	0.119531	-0.105150
C97	C	1.032322	-0.380480	-0.686951
C98	C	1.532322	0.119520	-0.186951
C99	C	1.025017	-0.197350	-0.405941
C100	C	1.525017	0.302650	0.094059
C101	C	1.021993	-0.119000	-0.402336
C102	C	1.521993	0.381000	0.097664
C103	C	1.075701	-0.337293	-0.875147
C104	C	1.575701	0.162707	-0.375147
C105	C	1.075733	-0.337311	-0.952008
C106	C	1.575733	0.162689	-0.452008
C107	C	0.989121	-0.423774	-0.952004
C108	C	1.489121	0.076226	-0.452004
C109	C	0.989093	-0.423759	-0.875145
C110	C	1.489093	0.076241	-0.375145
C111	C	1.032382	-0.380514	-0.836718
C112	C	1.532382	0.119486	-0.336718
C113	C	1.032442	-0.380548	-0.990438
C114	C	1.532442	0.119452	-0.490438
C115	C	1.032477	-0.380568	-1.073774
C116	C	1.532477	0.119432	-0.573774
C117	C	1.032349	-0.380495	-0.753377
C118	C	1.532349	0.119505	-0.253377
C119	C	1.032461	-0.380560	-0.222002
C120	C	1.532461	0.119440	0.277998
C121	C	1.032502	-0.380582	-0.140206
C122	C	1.532502	0.119418	0.359794
H123	H	0.431712	-0.315029	-0.342509
H124	H	0.931712	0.184971	0.157491
Cl125	Cl	0.934702	-0.478133	-1.000317
Cl126	Cl	1.434702	0.021867	-0.500317
Cl127	Cl	1.130122	-0.282931	-0.826842
Cl128	Cl	1.630122	0.217069	-0.326842
H129	H	0.767289	-0.451369	-0.491273
H130	H	1.267289	0.048631	0.008727
Cl131	Cl	0.618228	-0.465307	-0.506462
Cl132	Cl	1.118228	0.034693	-0.006462
Cl133	Cl	0.455387	-0.498897	-0.543110
Cl134	Cl	0.955387	0.001103	-0.043110
H135	H	0.966853	-0.779872	-0.342476
H136	H	1.466853	-0.279872	0.157524
H137	H	0.627160	-0.282747	-0.307290
H138	H	1.127160	0.217253	0.192710
Cl139	Cl	0.289213	-0.492246	-0.535852
Cl140	Cl	0.789213	0.007754	-0.035852
Cl141	Cl	0.281045	-0.289098	-0.314225
Cl142	Cl	0.781045	0.210902	0.185775
H143	H	1.103471	-1.115426	-0.491014
H144	H	1.603471	-0.615426	0.008986
H145	H	1.111009	-0.302117	-0.983293
H146	H	1.611009	0.197883	-0.483293
Cl147	Cl	0.776234	-0.268811	-0.292094
Cl148	Cl	1.276234	0.231189	0.207906
H149	H	0.953818	-0.458958	-0.843854
H150	H	1.453818	0.041042	-0.343854
H151	H	0.961473	-0.646313	-0.336659
H152	H	1.461473	-0.146313	0.163341
Cl153	Cl	0.913967	-0.958229	-0.284825
Cl154	Cl	1.413967	-0.458229	0.215175
Cl155	Cl	0.920670	-1.124404	-0.292050
Cl156	Cl	1.420670	-0.624404	0.207950
H157	H	1.124973	-0.652839	-0.514613
H158	H	1.624973	-0.152839	-0.014613
Cl159	Cl	1.117379	-0.966360	-0.506223
Cl160	Cl	1.617379	-0.466360	-0.006223
H161	H	1.130351	-0.786410	-0.520425
H162	H	1.630351	-0.286410	-0.020425
