data_functionalizedCrystal
_audit_creation_method	'MofGen! by Chris Wilmer'
_symmetry_space_group_name_H-M	'P1'
_symmetry_Int_Tables_number	1
_symmetry_cell_setting	triclinic
loop_
_symmetry_equiv_pos_as_xyz
  x,y,z
_cell_length_a	19.805407
_cell_length_b	19.805404
_cell_length_c	19.805399
_cell_angle_alpha	90.027110
_cell_angle_beta	90.024201
_cell_angle_gamma	90.028840
loop_
_atom_site_label
_atom_site_type_symbol
_atom_site_fract_x
_atom_site_fract_y
_atom_site_fract_z
Zn1	Zn	1.034721	-0.269492	0.382805
Zn2	Zn	1.034629	-0.382681	0.269618
Zn3	Zn	0.921535	-0.269510	0.269621
Zn4	Zn	0.921493	-0.382643	0.382756
O5	O	0.978095	-0.326082	0.326200
O6	O	1.129425	-0.284516	0.367811
O7	O	1.019607	-0.367691	0.174902
O8	O	0.936606	-0.174791	0.284657
O9	O	1.129358	-0.367675	0.284652
O10	O	1.019763	-0.174778	0.367813
O11	O	0.936517	-0.284545	0.174904
O12	O	0.826813	-0.284509	0.284609
O13	O	0.936533	-0.367611	0.477479
O14	O	0.826782	-0.367627	0.367728
O15	O	1.019721	-0.284479	0.477515
O16	O	1.019565	-0.477392	0.284604
O17	O	0.936444	-0.477365	0.367726
C18	C	0.802238	-0.326066	0.326164
C19	C	0.727006	-0.326076	0.326165
C20	C	0.265217	-0.369443	0.369456
C21	C	0.335905	-0.369442	0.369441
C22	C	0.371245	-0.326098	0.326226
C23	C	0.335892	-0.282757	0.283018
C24	C	0.265205	-0.282762	0.283030
C25	C	0.620965	-0.282736	0.282971
C26	C	0.691658	-0.282733	0.282964
C27	C	0.691666	-0.369416	0.369382
C28	C	0.620979	-0.369421	0.369394
C29	C	0.585632	-0.326083	0.326183
C30	C	0.508984	-0.326086	0.326198
C31	C	0.447892	-0.326091	0.326214
C32	C	0.978009	-0.501938	0.326174
C33	C	0.978034	-0.577170	0.326185
C34	C	1.021542	-1.038952	0.283013
C35	C	1.021510	-0.968264	0.283000
C36	C	0.978183	-0.932931	0.326236
C37	C	0.934880	-0.968291	0.369483
C38	C	0.934909	-1.038978	0.369492
C39	C	0.934763	-0.683217	0.369446
C40	C	0.934739	-0.612525	0.369434
C41	C	1.021364	-0.612504	0.282954
C42	C	1.021392	-0.683191	0.282963
C43	C	0.978087	-0.718544	0.326207
C44	C	0.978121	-0.795192	0.326220
C45	C	0.978152	-0.856284	0.326227
C46	C	1.154637	-0.326097	0.326237
C47	C	1.229869	-0.326104	0.326252
C48	C	0.978132	-0.326039	0.502743
C49	C	0.978149	-0.326021	0.577975
C50	C	0.978199	-0.149539	0.326241
C51	C	0.978244	-0.074307	0.326258
C52	C	0.978096	-0.326075	0.150344
C53	C	0.978211	-0.325903	0.075112
C54	C	1.021466	-0.282732	0.613339
C55	C	1.021473	-0.282712	0.684028
C56	C	0.978165	-0.325985	0.719351
C57	C	0.934844	-0.369276	0.683981
C58	C	0.934834	-0.369292	0.613294
C59	C	0.934882	-0.369213	0.969055
C60	C	0.934896	-0.369195	1.039747
C61	C	1.021521	-0.282634	1.039788
C62	C	1.021511	-0.282649	0.969101
C63	C	0.978187	-0.325937	0.933738
C64	C	0.978179	-0.325957	0.857090
C65	C	0.978176	-0.325969	0.795998
H66	H	0.236448	-0.404735	0.404650
O67	O	0.370142	-0.240561	0.241068
C68	C	0.352918	-0.173120	0.255989
H69	H	0.301612	-0.171754	0.282022
H70	H	0.350481	-0.142711	0.207192
H71	H	0.392734	-0.150361	0.290817
H72	H	0.899599	-0.939519	0.404684
O73	O	0.370137	-0.411562	0.411474
C74	C	0.323788	-0.449828	0.449610
H75	H	0.273415	-0.422108	0.452011
H76	H	0.344240	-0.457116	0.502922
H77	H	0.316230	-0.501202	0.424735
H78	H	1.056827	-1.067715	0.247809
O79	O	0.725883	-0.240610	0.240914
C80	C	0.679528	-0.202349	0.202787
H81	H	0.629125	-0.230071	0.200402
H82	H	0.699928	-0.195066	0.149468
H83	H	0.672048	-0.150972	0.227658
O84	O	1.063506	-0.240512	0.934824
C85	C	1.048761	-0.173052	0.952130
H86	H	0.994692	-0.169633	0.971546
H87	H	1.054603	-0.139618	0.905657
H88	H	1.085062	-0.155354	0.993179
O89	O	1.063605	-0.240791	0.578998
C90	C	1.107283	-0.279335	0.538098
H91	H	1.111441	-0.332639	0.559386
H92	H	1.159385	-0.254855	0.537315
H93	H	1.086346	-0.281677	0.484519
O94	O	1.063392	-0.578234	0.240844
C95	C	1.048638	-0.595553	0.173372
H96	H	1.022641	-0.646901	0.171952
H97	H	1.097506	-0.597947	0.143074
H98	H	1.013837	-0.555817	0.150531
H99	H	0.236426	-0.247469	0.247851
O100	O	0.892582	-0.578307	0.411456
C101	C	0.854377	-0.624667	0.449638
H102	H	0.852067	-0.675075	0.421920
H103	H	0.801038	-0.604282	0.456798
H104	H	0.879132	-0.632133	0.501072
H105	H	0.720453	-0.404706	0.404565
H106	H	1.056795	-0.247384	1.068589
O107	O	0.892873	-1.073428	0.411439
C108	C	0.902199	-1.143394	0.402187
H109	H	0.924403	-1.153059	0.349977
H110	H	0.851508	-1.170302	0.406728
H111	H	0.938227	-1.163398	0.442375
H112	H	1.056766	-0.939479	0.247786
O113	O	0.892685	-0.411251	0.578913
C114	C	0.848994	-0.372726	0.538009
H115	H	0.844847	-0.319410	0.559320
H116	H	0.796891	-0.397203	0.537191
H117	H	0.869911	-0.370412	0.484441
O118	O	1.063593	-0.717415	0.240998
C119	C	1.131025	-0.700054	0.255890
H120	H	1.132358	-0.648721	0.281920
H121	H	1.161414	-0.697608	0.207081
H122	H	1.153829	-0.739795	0.290712
O123	O	0.586755	-0.411590	0.411394
C124	C	0.633113	-0.449832	0.449536
H125	H	0.683485	-0.452135	0.421802
H126	H	0.612669	-0.503171	0.456662
H127	H	0.640670	-0.425114	0.500985
O128	O	1.063618	-0.240643	0.718276
C129	C	1.101831	-0.202445	0.671941
H130	H	1.104148	-0.230182	0.621547
H131	H	1.155167	-0.195229	0.692381
H132	H	1.077079	-0.151037	0.664427
H133	H	0.899580	-0.404507	0.712747
O134	O	0.892732	-0.411163	0.934672
C135	C	0.849046	-0.372628	0.893771
H136	H	0.844901	-0.319316	0.915092
H137	H	0.796942	-0.397101	0.892944
H138	H	0.869969	-0.370305	0.840206
H139	H	0.592195	-0.247451	0.247783
O140	O	0.892798	-0.717625	0.411492
C141	C	0.931324	-0.758438	0.455266
H142	H	0.982634	-0.769003	0.431445
H143	H	0.903765	-0.808161	0.464324
H144	H	0.938727	-0.731153	0.505426
H145	H	0.899628	-0.404435	1.068505
