data_functionalizedCrystal
_audit_creation_method	'MofGen! by Chris Wilmer'
_symmetry_space_group_name_H-M	'P1'
_symmetry_Int_Tables_number	1
_symmetry_cell_setting	triclinic
loop_
_symmetry_equiv_pos_as_xyz
  x,y,z
_cell_length_a	12.827893
_cell_length_b	12.759394
_cell_length_c	12.827885
_cell_angle_alpha	89.970470
_cell_angle_beta	89.980728
_cell_angle_gamma	90.014016
loop_
_atom_site_label
_atom_site_type_symbol
_atom_site_fract_x
_atom_site_fract_y
_atom_site_fract_z
Zn1	Zn	1.597681	-0.418211	-0.590851
Zn2	Zn	1.597580	-0.593927	-0.416112
Zn3	Zn	1.422922	-0.418263	-0.416124
Zn4	Zn	1.422912	-0.593849	-0.590812
O5	O	1.510274	-0.506062	-0.503474
O6	O	1.743903	-0.441531	-0.567682
O7	O	1.574373	-0.570679	-0.269877
O8	O	1.446151	-0.271235	-0.439324
O9	O	1.743829	-0.570629	-0.439302
O10	O	1.574545	-0.271197	-0.567694
O11	O	1.446053	-0.441619	-0.269886
O12	O	1.276685	-0.441544	-0.439286
O13	O	1.446134	-0.570496	-0.737053
O14	O	1.276677	-0.570546	-0.567628
O15	O	1.574535	-0.441456	-0.737081
O16	O	1.574363	-0.740938	-0.439264
O17	O	1.446036	-0.740881	-0.567616
C18	C	1.238764	-0.506043	-0.503455
C19	C	1.122611	-0.506060	-0.503471
C20	C	1.070862	-0.442292	-0.567096
C21	C	0.950812	-0.442308	-0.567115
C22	C	1.510216	-0.779030	-0.503457
C23	C	1.510286	-0.895807	-0.503485
C24	C	1.643883	-0.895609	-0.637257
C25	C	1.710715	-0.950371	-0.704152
C26	C	1.710777	-1.060092	-0.704174
C27	C	1.643998	-1.115055	-0.637298
C28	C	1.577167	-1.060293	-0.570403
C29	C	1.577114	-0.950569	-0.570386
C30	C	1.443566	-1.060490	-0.436638
C31	C	1.443508	-0.950769	-0.436608
C32	C	1.376787	-1.115453	-0.369761
C33	C	1.309959	-1.060691	-0.302860
C34	C	1.309901	-0.950962	-0.302839
C35	C	1.376676	-0.896007	-0.369714
C36	C	1.782844	-0.506083	-0.503495
C37	C	1.898997	-0.506091	-0.503504
C38	C	1.510345	-0.505962	-0.776045
C39	C	1.510375	-0.505919	-0.892198
C40	C	1.510360	-0.232029	-0.503515
C41	C	1.510397	-0.115252	-0.503532
C42	C	1.573919	-0.442053	-0.943997
C43	C	1.573952	-0.442007	-1.064047
C44	C	1.510263	-0.506087	-0.231965
C45	C	1.510435	-0.505834	-0.115812
H46	H	0.906310	-0.387717	-0.621590
C47	C	1.436932	-0.579708	-1.055650
C48	C	1.354950	-0.534138	-0.980590
C49	C	1.281447	-0.608012	-0.920419
C50	C	1.289927	-0.727456	-0.935309
C51	C	1.371912	-0.773033	-1.010373
C52	C	1.445415	-0.699159	-1.070544
H53	H	1.348670	-0.445712	-0.969564
H54	H	1.220756	-0.574272	-0.864852
H55	H	1.235515	-0.782142	-0.890767
H56	H	1.378192	-0.861459	-1.021399
H57	H	1.506106	-0.732899	-1.126111
H58	H	1.455990	-0.560556	-0.936728
C59	C	0.959100	-0.579853	-0.429907
C60	C	1.034127	-0.534152	-0.347997
C61	C	1.094239	-0.607914	-0.274401
C62	C	1.079324	-0.727375	-0.282715
C63	C	1.004294	-0.773082	-0.364629
C64	C	0.944182	-0.699321	-0.438225
H65	H	1.045171	-0.445714	-0.341839
H66	H	1.149781	-0.574078	-0.213763
H67	H	1.123823	-0.781978	-0.228235
H68	H	0.993250	-0.861520	-0.370787
H69	H	0.888640	-0.733157	-0.498863
H70	H	1.115436	-0.387682	-0.621551
H71	H	1.078037	-0.560664	-0.449010
H72	H	1.628294	-0.387405	-0.899467
C73	C	1.784170	-0.889912	-0.777713
C74	C	1.784113	-0.769222	-0.777693
C75	C	1.857566	-0.708768	-0.851255
C76	C	1.931076	-0.769004	-0.924838
C77	C	1.931136	-0.889701	-0.924861
C78	C	1.857683	-0.950155	-0.851298
H79	H	1.729694	-0.724626	-0.723220
H80	H	1.857521	-0.619420	-0.851238
H81	H	1.985450	-0.724252	-0.979294
H82	H	1.985555	-0.934297	-0.979333
H83	H	1.857728	-1.039503	-0.851315
C84	C	1.784289	-1.120339	-0.777756
C85	C	1.903085	-1.105174	-0.769321
C86	C	1.976596	-1.165421	-0.842902
C87	C	1.931312	-1.240833	-0.924918
C88	C	1.812511	-1.256001	-0.933357
C89	C	1.738999	-1.195754	-0.859776
H90	H	1.936612	-1.049346	-0.708604
H91	H	2.064541	-1.154192	-0.836655
H92	H	1.985729	-1.285432	-0.979388
H93	H	1.778983	-1.311829	-0.994074
H94	H	1.651054	-1.206983	-0.866023
H95	H	1.644046	-1.204396	-0.637331
C96	C	1.647451	-0.368135	-1.124216
C97	C	1.729434	-0.413706	-1.199277
C98	C	1.802936	-0.339831	-1.259448
C99	C	1.794456	-0.220387	-1.244558
C100	C	1.712470	-0.174810	-1.169494
C101	C	1.638968	-0.248684	-1.109323
H102	H	1.735714	-0.502131	-1.210302
H103	H	1.863627	-0.373571	-1.315016
H104	H	1.848866	-0.165701	-1.289100
H105	H	1.706190	-0.086384	-1.158468
H106	H	1.578277	-0.214945	-1.053755
H107	H	1.643849	-0.806268	-0.637236
H108	H	1.255589	-1.105450	-0.248419
H109	H	1.376839	-1.204794	-0.369788
H110	H	1.376639	-0.806666	-0.369699
H111	H	1.255475	-0.906381	-0.248370
