data_functionalizedCrystal
_audit_creation_method	'MofGen! by Chris Wilmer'
_symmetry_space_group_name_H-M	'P1'
_symmetry_Int_Tables_number	1
_symmetry_cell_setting	triclinic
loop_
_symmetry_equiv_pos_as_xyz
  x,y,z
_cell_length_a	17.052844
_cell_length_b	17.052832
_cell_length_c	17.052862
_cell_angle_alpha	77.972185
_cell_angle_beta	118.506734
_cell_angle_gamma	134.157327
loop_
_atom_site_label
_atom_site_type_symbol
_atom_site_fract_x
_atom_site_fract_y
_atom_site_fract_z
Zr1	Zr	-0.561911	-0.033747	1.025672
O2	O	-0.751989	-0.202566	0.952392
O3	O	-0.394714	0.031224	1.024841
O4	O	-0.539756	-0.147413	1.097433
O5	O	-0.616444	0.101946	0.849037
O6	O	-0.496251	-0.118945	1.238344
O7	O	-0.606948	-0.023929	0.879800
O8	O	-0.236797	0.200605	1.108489
O9	O	-0.875898	-0.217604	0.978892
O10	O	-0.422542	0.064208	1.157791
O11	O	-0.462097	0.136901	1.029673
O12	O	-0.632865	-0.073421	1.115142
O13	O	-0.672420	-0.000728	0.987024
Zr14	Zr	-0.507671	0.212412	1.201345
Zr15	Zr	-0.492525	0.011656	1.250408
Zr16	Zr	-0.577057	0.167008	0.976609
Zr17	Zr	-0.759530	-0.057731	1.067936
Zr18	Zr	-0.310052	0.236395	1.159081
O19	O	-0.674868	0.147440	1.202177
O20	O	-0.653332	-0.138008	1.271938
O21	O	-0.773525	0.082882	0.882631
O22	O	-0.317593	0.381231	1.274625
O23	O	-0.296056	0.095783	1.344386
O24	O	-0.416250	0.316673	0.955079
O25	O	-0.453138	0.076719	1.377981
O26	O	-0.529826	0.326077	1.129584
O27	O	-0.573331	0.297609	0.988674
O28	O	-0.462634	0.202594	1.347218
O29	O	-0.820745	-0.181514	1.157528
O30	O	-0.248837	0.360179	1.069490
O31	O	-0.193684	0.396269	1.248125
O32	O	-0.181645	0.236695	1.287124
O33	O	-0.887937	-0.058030	0.939894
O34	O	-0.832785	-0.021940	1.118529
O35	O	-0.436717	0.252086	1.111875
O36	O	-0.397162	0.179392	1.239993
O37	O	-0.607485	0.041763	1.197344
O38	O	-0.647040	0.114456	1.069226
C39	C	-0.287599	0.119332	1.060643
C40	C	-0.203705	0.129513	1.042701
C41	C	-0.515845	-0.161782	1.174879
C42	C	-0.509415	-0.247008	1.195708
C43	C	0.115361	0.006418	1.259631
C44	C	0.036533	-0.003155	1.276488
C45	C	-0.023530	0.030011	1.218043
C46	C	-0.004758	0.072753	1.142737
C47	C	0.074070	0.082319	1.125874
C48	C	-0.064820	0.105912	1.084287
C49	C	-0.046048	0.148653	1.008981
C50	C	0.032773	0.158218	0.992122
C51	C	0.092836	0.125052	1.050567
C52	C	-0.143648	0.096346	1.101149
C53	C	-0.184939	0.172246	0.967393
C54	C	-0.106111	0.181820	0.950536
C55	C	0.218018	0.059333	1.166376
C56	C	0.134127	0.049151	1.184323
C57	C	-0.587153	-0.549972	0.943892
C58	C	-0.593187	-0.469893	0.924323
C59	C	-0.572245	-0.414168	0.992167
C60	C	-0.545267	-0.438529	1.079585
C61	C	-0.539223	-0.518610	1.099158
C62	C	-0.524315	-0.382806	1.147433
C63	C	-0.497337	-0.407167	1.234851
C64	C	-0.491295	-0.487240	1.254420
C65	C	-0.512236	-0.542965	1.186576
C66	C	-0.530359	-0.302726	1.127859
C67	C	-0.482429	-0.271364	1.283126
C68	C	-0.476395	-0.351442	1.302695
C69	C	-0.621582	0.032539	0.832398
C70	C	-0.651038	0.013264	0.736992
C71	C	-0.553737	0.340447	1.052138
C72	C	-0.560167	0.425673	1.031310
C73	C	-0.294913	0.246298	0.557110
C74	C	-0.267234	0.264405	0.646751
C75	C	-0.363182	0.201621	0.669316
C76	C	-0.486816	0.120728	0.602230
C77	C	-0.514498	0.102613	0.512581
C78	C	-0.582766	0.057937	0.624788
C79	C	-0.706400	-0.022957	0.557702
C80	C	-0.734077	-0.041067	0.468063
C81	C	-0.638128	0.021716	0.445498
C82	C	-0.555084	0.076051	0.714436
C83	C	-0.774669	-0.067633	0.669908
C84	C	-0.802348	-0.085740	0.580267
C85	C	-0.448000	0.146125	1.394620
C86	C	-0.418544	0.165400	1.490026
C87	C	-0.200808	0.176125	1.341754
C88	C	-0.087458	0.205581	1.419218
C89	C	-0.306545	0.370446	0.999272
C90	C	-0.229080	0.465854	0.960502
C91	C	-0.219754	0.427239	1.280383
C92	C	-0.112833	0.541922	1.337019
C93	C	-0.849828	-0.248575	0.946634
C94	C	-0.956749	-0.363257	0.889999
C95	C	-0.868774	0.002540	0.885264
C96	C	-0.982124	-0.026917	0.807800
C97	C	-0.763037	-0.191782	1.227745
C98	C	-0.840502	-0.287189	1.266516
C99	C	-0.047474	0.159281	1.412689
C100	C	0.059019	0.186937	1.485473
C101	C	0.125531	0.260899	1.564783
C102	C	0.085540	0.307200	1.571311
C103	C	-0.020956	0.279538	1.498530
C104	C	-0.179455	0.570791	0.985201
C105	C	-0.106681	0.660443	0.948768
C106	C	-0.083528	0.645155	0.887641
C107	C	-0.133163	0.540206	0.862939
C108	C	-0.205942	0.450555	0.899367
C109	C	-0.041972	0.557835	1.430501
C110	C	0.058484	0.665584	1.483729
C111	C	0.088081	0.757419	1.443472
C112	C	0.017209	0.741501	1.349981
C113	C	-0.083250	0.633753	1.296756
C114	C	-1.027619	-0.379171	0.796519
C115	C	-1.128100	-0.486924	0.743296
C116	C	-1.157701	-0.578759	0.783554
C117	C	-1.086824	-0.562841	0.877044
C118	C	-0.986352	-0.455091	0.930266
C119	C	-1.022115	0.019374	0.814332
C120	C	-1.128628	-0.008307	0.741558
C121	C	-1.195144	-0.082272	0.662250
C122	C	-1.155148	-0.128568	0.655720
C123	C	-1.048642	-0.100894	0.728496
C124	C	-0.863629	-0.271867	1.327641
C125	C	-0.936399	-0.361499	1.364087
C126	C	-0.986048	-0.466455	1.339401
C127	C	-0.962913	-0.481775	1.278272
C128	C	-0.890137	-0.392142	1.241833
H129	H	-0.158925	0.061545	1.162464
C130	C	-0.461603	-0.514029	1.350579
H131	H	-0.460991	-0.569692	1.352521
H132	H	-0.522978	-0.540423	1.365030
H133	H	-0.382502	-0.448494	1.393509
C134	C	-0.948965	0.100737	0.901561
H135	H	-0.988057	0.124326	0.895020
H136	H	-0.866546	0.163702	0.911555
H137	H	-0.947192	0.064366	0.951923
H138	H	0.091564	0.149228	1.480141
H139	H	-0.660658	0.006982	0.372505
C140	C	0.053416	0.205221	0.909285
H141	H	0.108954	0.206159	0.907609
H142	H	0.087672	0.278942	0.914050
H143	H	-0.023650	0.159540	0.855086
H144	H	-0.114300	0.527774	0.813165
C145	C	-0.204918	0.587622	1.052434
H146	H	-0.255362	0.519208	1.070604
H147	H	-0.246556	0.611679	1.023767
H148	H	-0.128536	0.642358	1.104421
H149	H	-0.454421	0.141923	0.769048
C150	C	-0.064930	0.330473	1.505717
H151	H	-0.137887	0.303406	1.451020
H152	H	-0.001698	0.409377	1.515104
H153	H	-0.082357	0.310038	1.555462
C154	C	-0.908361	-0.437589	1.033085
H155	H	-0.844275	-0.360267	1.059025
H156	H	-0.872702	-0.465559	1.042460
H157	H	-0.959991	-0.476135	1.061206
C158	C	-1.017617	-0.597249	1.251063
H159	H	-0.993445	-0.593554	1.209425
H160	H	-1.105560	-0.649989	1.223173
H161	H	-0.987601	-0.619444	1.303790
H162	H	-0.066274	0.745889	0.968894
H163	H	-1.161173	0.029403	0.746890
C164	C	-0.003462	0.743780	0.847584
H165	H	0.022784	0.808466	0.871060
H166	H	-0.050880	0.726534	0.783171
H167	H	0.067129	0.757199	0.863828
C168	C	-0.938336	-0.174725	0.506471
H169	H	-0.941073	-0.176522	0.449855
H170	H	-0.982261	-0.156915	0.501170
H171	H	-0.975563	-0.245645	0.522856
H172	H	-1.185794	-0.499863	0.667174
H173	H	0.164260	-0.020590	1.307206
C174	C	-0.446707	-0.378233	1.398853
H175	H	-0.435106	-0.333587	1.436458
H176	H	-0.373120	-0.362861	1.423955
H177	H	-0.513599	-0.454785	1.395467
H178	H	0.212246	0.283415	1.624038
C179	C	-0.260514	0.335131	0.872197
H180	H	-0.236286	0.338879	0.830582
H181	H	-0.348463	0.282313	0.844300
H182	H	-0.230435	0.313002	0.924950
H183	H	-0.090816	0.216619	0.889221
C184	C	-0.578898	-0.326094	0.970638
H185	H	-0.597977	-0.319574	0.908857
H186	H	-0.501185	-0.256224	1.009126
H187	H	-0.641666	-0.348165	0.980631
H188	H	-0.066053	0.483071	1.463296
H189	H	0.116180	0.678526	1.559851
C190	C	-0.864722	-0.409014	1.174584
H191	H	-0.904730	-0.484364	1.165099
H192	H	-0.777881	-0.361219	1.198894
H193	H	-0.895907	-0.391892	1.118260
C194	C	-1.312293	-0.112701	0.582203
H195	H	-1.326569	-0.074526	0.597456
H196	H	-1.381612	-0.190831	0.570066
H197	H	-1.300956	-0.091494	0.529704
C198	C	-1.228317	-0.209919	0.568476
H199	H	-1.297463	-0.219752	0.526071
H200	H	-1.256640	-0.279760	0.582937
H201	H	-1.175983	-0.180411	0.542582
H202	H	-0.465373	-0.225990	1.338371
H203	H	0.041323	0.816289	1.317214
H204	H	0.169885	0.845149	1.486822
C205	C	0.015892	-0.050156	1.359319
H206	H	-0.039663	-0.051112	1.360987
H207	H	0.092951	-0.004484	1.413516
H208	H	-0.018371	-0.123884	1.354548
H209	H	0.139710	0.367422	1.635894
C210	C	0.179577	0.135615	1.032038
H211	H	0.182167	0.165831	0.978825
H212	H	0.149412	0.064083	1.023446
H213	H	0.260688	0.183481	1.082417
H214	H	-0.552325	-0.282899	1.056683
C215	C	-0.110228	0.019493	1.236590
H216	H	-0.112796	-0.010702	1.289814
H217	H	-0.191344	-0.028345	1.186224
H218	H	-0.080009	0.091052	1.245197
H219	H	-0.615151	-0.450060	0.853148
H220	H	-0.340638	0.216369	0.742307
C221	C	-0.161176	0.616264	1.193924
H222	H	-0.129144	0.686395	1.177578
H223	H	-0.244902	0.570507	1.179703
H224	H	-0.157531	0.581121	1.161047
H225	H	-1.239515	-0.666490	0.740206
H226	H	-1.003528	-0.304406	0.763722
H227	H	-1.016088	-0.138590	0.723164
H228	H	-0.823215	-0.186415	1.347750
C229	C	-1.119389	-0.663865	0.921314
H230	H	-1.189368	-0.730309	0.876219
H231	H	-1.138113	-0.667115	0.966859
H232	H	-1.050772	-0.656505	0.948161
C233	C	-1.066102	-0.565046	1.379485
H234	H	-1.092356	-0.629751	1.356038
H235	H	-1.136670	-0.578441	1.363255
H236	H	-1.018651	-0.547769	1.443901
C237	C	-0.610184	-0.611265	0.869276
H238	H	-0.602725	-0.662447	0.893454
H239	H	-0.550787	-0.558628	0.848413
H240	H	-0.691266	-0.650557	0.819927
H241	H	-0.955227	-0.349005	1.413856
H242	H	-0.507329	-0.608176	1.202507
C243	C	-0.131250	0.353382	0.720536
H244	H	-0.078071	0.388187	0.694259
H245	H	-0.112543	0.319070	0.767273
H246	H	-0.119233	0.407805	0.745588
H247	H	-0.852798	-0.118759	0.688279
C248	C	-0.120626	0.077916	1.325461
H249	H	-0.081556	0.054300	1.332014
H250	H	-0.122402	0.114275	1.275097
H251	H	-0.203050	0.014955	1.315473
C252	C	-0.189383	0.315349	0.532290
H253	H	-0.111786	0.366119	0.585080
H254	H	-0.198964	0.355632	0.487401
H255	H	-0.192277	0.266894	0.509091
H256	H	-0.834747	-0.106945	0.413444
H257	H	-0.233847	0.199250	0.919801
