data_functionalizedCrystal
_audit_creation_method	'MofGen! by Chris Wilmer'
_symmetry_space_group_name_H-M	'P1'
_symmetry_Int_Tables_number	1
_symmetry_cell_setting	triclinic
loop_
_symmetry_equiv_pos_as_xyz
  x,y,z
_cell_length_a	16.625548
_cell_length_b	16.625539
_cell_length_c	16.625546
_cell_angle_alpha	90.028532
_cell_angle_beta	89.976464
_cell_angle_gamma	89.982945
loop_
_atom_site_label
_atom_site_type_symbol
_atom_site_fract_x
_atom_site_fract_y
_atom_site_fract_z
Zn1	Zn	1.232652	-0.455898	0.320992
Zn2	Zn	1.232564	-0.321060	0.455831
Zn3	Zn	1.097823	-0.321078	0.321018
Zn4	Zn	1.097785	-0.455850	0.455789
O5	O	1.165206	-0.388471	0.388408
O6	O	1.345473	-0.438024	0.338885
O7	O	1.214669	-0.208230	0.437976
O8	O	1.115761	-0.338990	0.208182
O9	O	1.345408	-0.338959	0.437951
O10	O	1.214820	-0.438041	0.208163
O11	O	1.115675	-0.208243	0.338930
O12	O	0.984985	-0.338944	0.338889
O13	O	1.115696	-0.568689	0.437879
O14	O	0.984957	-0.437960	0.437905
O15	O	1.214783	-0.568724	0.338845
O16	O	1.214632	-0.338912	0.568658
O17	O	1.115611	-0.437942	0.568627
C18	C	0.955715	-0.388449	0.388396
C19	C	0.866094	-0.388458	0.388410
C20	C	0.537918	-0.388493	0.388416
C21	C	0.629227	-0.388481	0.388412
C22	C	0.702003	-0.388475	0.388414
C23	C	0.793318	-0.388464	0.388409
C24	C	1.165245	-0.598780	0.388354
C25	C	1.165262	-0.688402	0.388332
C26	C	1.165275	-0.761184	0.388314
C27	C	1.165294	-0.852493	0.388284
C28	C	1.165313	-0.925269	0.388255
C29	C	1.165333	-1.016583	0.388226
C30	C	1.375515	-0.388494	0.388420
C31	C	1.465136	-0.388504	0.388425
C32	C	1.165130	-0.388438	0.597898
C33	C	1.165171	-0.388450	0.687519
C34	C	1.165213	-0.178981	0.388402
C35	C	1.165352	-0.089360	0.388198
C36	C	1.165305	-0.388523	0.178099
C37	C	1.165347	-0.388545	0.088477
C38	C	1.165311	-0.388534	1.015695
C39	C	1.165270	-0.388513	0.924387
C40	C	1.165240	-0.388492	0.851610
C41	C	1.165200	-0.388471	0.760296
