data_functionalizedCrystal
_audit_creation_method	'MofGen! by Chris Wilmer'
_symmetry_space_group_name_H-M	'P1'
_symmetry_Int_Tables_number	1
_symmetry_cell_setting	triclinic
loop_
_symmetry_equiv_pos_as_xyz
  x,y,z
_cell_length_a	17.699083
_cell_length_b	14.044220
_cell_length_c	16.776229
_cell_angle_alpha	89.992645
_cell_angle_beta	89.998886
_cell_angle_gamma	88.235946
loop_
_atom_site_label
_atom_site_type_symbol
_atom_site_fract_x
_atom_site_fract_y
_atom_site_fract_z
O1	O	1.012346	0.119850	-0.066178
O2	O	1.512346	0.619850	0.433822
O3	O	0.793043	0.135443	-0.066204
O4	O	1.293043	0.635443	0.433796
O5	O	0.899403	-0.010330	-0.066183
O6	O	1.399403	0.489670	0.433817
O7	O	0.905986	0.265624	-0.066198
O8	O	1.405986	0.765624	0.433802
O9	O	0.899387	-0.010339	0.066393
O10	O	1.399387	0.489661	0.566393
O11	O	0.793027	0.135434	0.066372
O12	O	1.293027	0.635434	0.566372
O13	O	1.012330	0.119841	0.066399
O14	O	1.512330	0.619841	0.566399
Zn15	Zn	0.902676	0.127636	0.087435
Zn16	Zn	1.402676	0.627636	0.587435
Zn17	Zn	0.902697	0.127648	-0.087240
Zn18	Zn	1.402697	0.627648	0.412760
O19	O	0.905970	0.265615	0.066378
O20	O	1.405970	0.765615	0.566378
C21	C	0.764800	0.134880	0.000081
C22	C	1.264800	0.634880	0.500081
C23	C	0.680666	0.133204	0.000071
C24	C	1.180666	0.633204	0.500071
C25	C	0.637948	0.218769	0.000067
C26	C	1.137948	0.718769	0.500067
C27	C	0.558895	0.217189	0.000077
C28	C	1.058895	0.717189	0.500077
C29	C	0.522563	0.130041	0.000086
C30	C	1.022563	0.630041	0.500086
C31	C	0.565287	0.044469	0.000093
C32	C	1.065287	0.544469	0.500093
C33	C	0.644338	0.046050	0.000088
C34	C	1.144338	0.546050	0.500088
C35	C	0.246484	0.038089	0.000113
C36	C	0.746484	0.538089	0.500113
C37	C	0.167427	0.036514	0.000115
C38	C	0.667427	0.536514	0.500115
C39	C	0.161041	0.209227	0.000102
C40	C	0.661041	0.709227	0.500102
C41	C	0.240092	0.210809	0.000097
C42	C	0.740092	0.710809	0.500097
C43	C	0.282809	0.125237	0.000108
C44	C	0.782809	0.625237	0.500108
C45	C	0.368527	0.126952	0.000098
C46	C	0.868527	0.626952	0.500098
C47	C	0.436847	0.128325	0.000090
C48	C	0.936847	0.628325	0.500090
C49	C	0.896513	-0.045643	0.000105
C50	C	1.396513	0.454357	0.500105
C51	C	0.887917	-0.150849	0.000105
C52	C	1.387917	0.349151	0.500105
C53	C	0.872202	-0.343474	0.000091
C54	C	1.372202	0.156526	0.500091
C55	C	0.933168	-0.401248	0.000096
C56	C	1.433168	0.098752	0.500096
C57	C	0.924424	-0.508431	0.000089
C58	C	1.424424	-0.008431	0.500089
C59	C	0.880945	-0.236281	0.000099
C60	C	1.380945	0.263719	0.500099
C61	C	1.040574	0.120404	0.000112
C62	C	1.540574	0.620404	0.500112
C63	C	1.124707	0.122081	0.000117
C64	C	1.624707	0.622081	0.500117
C65	C	0.908860	0.300927	0.000088
C66	C	1.408860	0.800927	0.500088
C67	C	0.917456	0.406133	0.000083
C68	C	1.417456	0.906133	0.500083
N69	N	0.902667	0.127628	0.206646
N70	N	1.402667	0.627628	0.706646
N71	N	0.902712	0.127649	-0.206452
N72	N	1.402712	0.627649	0.293548
C73	C	0.949781	0.063106	0.248372
C74	C	1.449781	0.563106	0.748372
C75	C	0.949785	0.063105	0.331825
C76	C	1.449785	0.563105	0.831825
C77	C	0.902679	0.127631	0.373549
C78	C	1.402679	0.627631	0.873549
C79	C	0.855560	0.192156	0.331817
C80	C	1.355560	0.692156	0.831817
C81	C	0.855552	0.192152	0.248366
C82	C	1.355552	0.692152	0.748366
C83	C	0.855589	0.192175	0.668364
C84	C	1.355589	0.692175	1.168364
C85	C	0.855601	0.192176	0.751821
C86	C	1.355601	0.692176	1.251821
C87	C	0.949821	0.063128	0.751822
C88	C	1.449821	0.563128	1.251822
C89	C	0.949813	0.063123	0.668372
C90	C	1.449813	0.563123	1.168372
C91	C	0.902692	0.127645	0.626647
C92	C	1.402692	0.627645	1.126647
C93	C	0.902687	0.127644	0.536159
C94	C	1.402687	0.627644	1.036159
C95	C	0.902687	0.127638	0.464036
C96	C	1.402687	0.627638	0.964036
H97	H	0.679119	-0.023626	0.000091
H98	H	1.179119	0.476374	0.500091
C99	C	0.280057	0.306668	0.000085
C100	C	0.780057	0.806668	0.500085
H101	H	0.333256	0.295354	0.000075
H102	H	0.833256	0.795354	0.500075
H103	H	0.265792	0.341892	0.046314
H104	H	0.765792	0.841892	0.546314
H105	H	0.265788	0.341892	-0.046156
H106	H	0.765788	0.841892	0.453844
C107	C	1.001627	-0.007858	0.622479
C108	C	1.501627	0.492142	1.122479
H109	H	1.029682	-0.046293	0.659283
H110	H	1.529682	0.453707	1.159283
H111	H	1.035425	0.026180	0.589913
H112	H	1.535425	0.526180	1.089913
H113	H	0.971732	-0.047271	0.589938
H114	H	1.471732	0.452729	1.089938
C115	C	1.012550	-0.359328	0.000124
C116	C	1.512550	0.140672	0.500124
H117	H	1.008092	-0.291742	0.000136
H118	H	1.508092	0.208258	0.500136
H119	H	1.039280	-0.380169	-0.046101
H120	H	1.539280	0.119831	0.453899
H121	H	1.039246	-0.380197	0.046370
H122	H	1.539246	0.119803	0.546370
H123	H	0.813445	-0.374508	0.000082
H124	H	1.313445	0.125492	0.500082
C125	C	0.127463	-0.059353	0.000133
C126	C	0.627463	0.440647	0.500133
H127	H	0.164225	-0.110091	0.000147
H128	H	0.664225	0.389909	0.500147
H129	H	0.096756	-0.063562	-0.046097
H130	H	0.596756	0.436438	0.453903
H131	H	0.096759	-0.063551	0.046374
H132	H	0.596759	0.436449	0.546374
H133	H	0.988143	0.010565	0.214406
H134	H	1.488143	0.510565	0.714406
H135	H	0.988148	0.010565	0.365798
H136	H	1.488148	0.510565	0.865798
C137	C	0.293463	-0.056036	0.000120
C138	C	0.793463	0.443964	0.500120
H139	H	0.260501	-0.108162	0.000117
H140	H	0.760501	0.391838	0.500117
H141	H	0.324434	-0.059016	0.046351
H142	H	0.824434	0.440984	0.546351
H143	H	0.324432	-0.059009	-0.046119
H144	H	0.824432	0.440991	0.453881
C145	C	0.525323	-0.051391	0.000102
C146	C	1.025323	0.448609	0.500102
H147	H	0.472125	-0.040080	0.000095
H148	H	0.972125	0.459920	0.500095
H149	H	0.539591	-0.086621	0.046335
H150	H	1.039591	0.413379	0.546335
H151	H	0.539592	-0.086609	-0.046136
H152	H	1.039592	0.413391	0.453864
C153	C	1.001646	-0.007855	0.797722
C154	C	1.501646	0.492145	1.297722
H155	H	0.994900	0.001378	0.853398
H156	H	1.494900	0.501378	1.353398
H157	H	1.052844	0.002358	0.784039
H158	H	1.552844	0.502358	1.284039
H159	H	0.989154	-0.071098	0.784052
H160	H	1.489154	0.428902	1.284052
H161	H	0.817239	0.244723	0.785791
H162	H	1.317239	0.744723	1.285791
C163	C	0.677906	0.314633	0.000056
C164	C	1.177906	0.814633	0.500056
H165	H	0.641140	0.365366	0.000062
H166	H	1.141140	0.865366	0.500062
H167	H	0.708610	0.318846	-0.046178
H168	H	1.208610	0.818846	0.453822
H169	H	0.708612	0.318836	0.046293
H170	H	1.208612	0.818836	0.546293
C171	C	0.803764	0.263153	0.622477
C172	C	1.303764	0.763153	1.122477
H173	H	0.775719	0.301589	0.659281
H174	H	1.275719	0.801589	1.159281
H175	H	0.769957	0.229113	0.589932
H176	H	1.269957	0.729113	1.089932
H177	H	0.833650	0.302565	0.589915
H178	H	1.333650	0.802565	1.089915
C179	C	0.803746	0.263136	0.377712
C180	C	1.303746	0.763136	0.877712
H181	H	0.810503	0.253906	0.433388
H182	H	1.310503	0.753906	0.933388
H183	H	0.752545	0.252924	0.364045
H184	H	1.252545	0.752924	0.864045
H185	H	0.816237	0.326377	0.364022
H186	H	1.316237	0.826377	0.864022
H187	H	0.817187	0.244691	0.214394
H188	H	1.317187	0.744691	0.714394
H189	H	0.524117	0.286865	0.000073
H190	H	1.024117	0.786865	0.500073
H191	H	0.126251	0.278904	0.000097
H192	H	0.626251	0.778904	0.500097
