data_functionalizedCrystal
_audit_creation_method	'MofGen! by Chris Wilmer'
_symmetry_space_group_name_H-M	'P1'
_symmetry_Int_Tables_number	1
_symmetry_cell_setting	triclinic
loop_
_symmetry_equiv_pos_as_xyz
  x,y,z
_cell_length_a	13.897449
_cell_length_b	13.897448
_cell_length_c	13.897441
_cell_angle_alpha	90.027040
_cell_angle_beta	89.978743
_cell_angle_gamma	89.979604
loop_
_atom_site_label
_atom_site_type_symbol
_atom_site_fract_x
_atom_site_fract_y
_atom_site_fract_z
Zn1	Zn	1.474670	0.383972	-0.545467
Zn2	Zn	1.474564	0.545291	-0.384176
Zn3	Zn	1.313365	0.384014	-0.384178
Zn4	Zn	1.313335	0.545229	-0.545421
O5	O	1.393984	0.464627	-0.464810
O6	O	1.609637	0.405380	-0.524090
O7	O	1.453149	0.523941	-0.249194
O8	O	1.334819	0.249027	-0.405593
O9	O	1.609560	0.523900	-0.405590
O10	O	1.453329	0.248996	-0.524092
O11	O	1.334717	0.405451	-0.249196
O12	O	1.178379	0.405391	-0.405549
O13	O	1.334768	0.523795	-0.680409
O14	O	1.178358	0.523835	-0.524013
O15	O	1.453300	0.405320	-0.680443
O16	O	1.453121	0.680264	-0.405545
O17	O	1.334666	0.680219	-0.524011
C18	C	1.143369	0.464612	-0.464777
C19	C	1.036155	0.464629	-0.464785
C20	C	0.949086	0.464632	-0.464801
C21	C	0.839853	0.464639	-0.464831
C22	C	1.393905	0.715241	-0.464794
C23	C	1.393960	0.822455	-0.464819
C24	C	1.394054	1.018750	-0.464888
C25	C	1.393999	0.909517	-0.464853
C26	C	1.645577	0.464642	-0.464845
C27	C	1.752790	0.464649	-0.464859
C28	C	1.394081	1.213034	-0.464859
C29	C	1.394101	1.105820	-0.464909
C30	C	1.394043	0.464546	-0.716403
C31	C	1.394068	0.464511	-0.823617
C32	C	1.394088	0.464484	-0.910687
C33	C	1.394115	0.464440	-1.019920
C34	C	1.393980	0.464638	-0.214196
C35	C	1.394142	0.464400	-0.106983
