data_functionalizedCrystal
_audit_creation_method	'MofGen! by Chris Wilmer'
_symmetry_space_group_name_H-M	'P1'
_symmetry_Int_Tables_number	1
_symmetry_cell_setting	triclinic
loop_
_symmetry_equiv_pos_as_xyz
  x,y,z
_cell_length_a	12.759401
_cell_length_b	18.101395
_cell_length_c	12.759401
_cell_angle_alpha	90.007333
_cell_angle_beta	90.004861
_cell_angle_gamma	90.032629
loop_
_atom_site_label
_atom_site_type_symbol
_atom_site_fract_x
_atom_site_fract_y
_atom_site_fract_z
Zn1	Zn	1.605980	-0.294947	0.594006
Zn2	Zn	2.105980	0.205053	1.094006
Zn3	Zn	1.605870	-0.418752	0.418320
Zn4	Zn	2.105870	0.081248	0.918320
Zn5	Zn	1.430328	-0.294932	0.418341
Zn6	Zn	1.930328	0.205068	0.918341
Zn7	Zn	1.430220	-0.418754	0.593957
Zn8	Zn	1.930220	0.081246	1.093957
O9	O	1.518099	-0.356846	0.506156
O10	O	2.018099	0.143154	1.006156
O11	O	1.752986	-0.311375	0.570712
O12	O	2.252986	0.188625	1.070712
O13	O	1.582583	-0.402320	0.271302
O14	O	2.082583	0.097680	0.771302
O15	O	1.453720	-0.191301	0.441672
O16	O	1.953720	0.308699	0.941672
O17	O	1.752906	-0.402334	0.441637
O18	O	2.252906	0.097666	0.941637
O19	O	1.582770	-0.191312	0.570733
O20	O	2.082770	0.308688	1.070733
O21	O	1.453613	-0.311350	0.271317
O22	O	1.953613	0.188650	0.771317
O23	O	1.283293	-0.311352	0.441626
O24	O	1.783293	0.188648	0.941626
O25	O	1.453536	-0.402338	0.740985
O26	O	1.953536	0.097662	1.240985
O27	O	1.283213	-0.402324	0.570650
O28	O	1.783213	0.097676	1.070650
O29	O	1.582666	-0.311377	0.741020
O30	O	2.082666	0.188623	1.241020
O31	O	1.582479	-0.522385	0.441590
O32	O	2.082479	-0.022385	0.941590
O33	O	1.453429	-0.522387	0.570630
O34	O	1.953429	-0.022387	1.070630
C35	C	1.245132	-0.356837	0.506135
C36	C	1.745132	0.143163	1.006135
C37	C	1.128355	-0.356851	0.506151
C38	C	1.628355	0.143149	1.006151
C39	C	1.073480	-0.404292	0.573229
C40	C	1.573480	0.095708	1.073229
C41	C	0.963756	-0.404295	0.573250
C42	C	1.463756	0.095705	1.073250
C43	C	0.963793	-0.309414	0.439107
C44	C	1.463793	0.190586	0.939107
C45	C	1.073515	-0.309408	0.439092
C46	C	1.573515	0.190592	0.939092
C47	C	0.813814	-0.430906	0.697109
C48	C	1.313814	0.069094	1.197109
C49	C	0.758935	-0.478359	0.764177
C50	C	1.258935	0.021641	1.264177
C51	C	0.794499	-0.550636	0.780121
C52	C	1.294499	-0.050636	1.280121
C53	C	0.884940	-0.575476	0.728982
C54	C	1.384940	-0.075476	1.228982
C55	C	0.939814	-0.528027	0.661906
C56	C	1.439814	-0.028027	1.161906
C57	C	0.904252	-0.455739	0.645982
C58	C	1.404252	0.044261	1.145982
C59	C	1.223458	-0.282804	0.315231
C60	C	1.723458	0.217196	0.815231
C61	C	1.278334	-0.235359	0.248149
C62	C	1.778334	0.264641	0.748149
C63	C	1.242772	-0.163080	0.232194
C64	C	1.742772	0.336920	0.732194
C65	C	1.152327	-0.138243	0.283315
C66	C	1.652327	0.361757	0.783315
C67	C	1.097451	-0.185689	0.350397
C68	C	1.597451	0.314311	0.850397
C69	C	1.133021	-0.257966	0.366353
C70	C	1.633021	0.242034	0.866353
C71	C	1.517959	-0.549257	0.506125
C72	C	2.017959	-0.049257	1.006125
C73	C	1.517995	-0.631571	0.506147
C74	C	2.017995	-0.131571	1.006147
C75	C	1.518225	-0.930662	0.506204
C76	C	2.018225	-0.430662	1.006204
C77	C	1.437219	-0.899369	0.587594
C78	C	1.937219	-0.399369	1.087594
C79	C	1.436835	-0.813751	0.587339
C80	C	1.936835	-0.313751	1.087339
C81	C	1.518111	-0.782279	0.506177
C82	C	2.018111	-0.282279	1.006177
C83	C	1.488159	-0.813404	0.395451
C84	C	1.988159	-0.313404	0.895451
C85	C	1.487637	-0.899049	0.395938
C86	C	1.987637	-0.399049	0.895938
C87	C	1.629360	-0.899010	0.534565
C88	C	2.129360	-0.399010	1.034565
C89	C	1.628706	-0.813360	0.536993
C90	C	2.128706	-0.313360	1.036993
C91	C	1.518048	-0.698420	0.506155
C92	C	2.018048	-0.198420	1.006155
C93	C	1.518286	-1.014521	0.506219
C94	C	2.018286	-0.514521	1.006219
C95	C	1.792133	-0.356856	0.506178
C96	C	2.292133	0.143144	1.006178
C97	C	1.908909	-0.356860	0.506187
C98	C	2.408909	0.143140	1.006187
C99	C	1.518101	-0.356860	0.780189
C100	C	2.018101	0.143140	1.280189
C101	C	1.518102	-0.356865	0.896966
C102	C	2.018102	0.143135	1.396966
C103	C	1.518269	-0.163684	0.506210
C104	C	2.018269	0.336316	1.006210
C105	C	1.518341	-0.081370	0.506233
C106	C	2.018341	0.418630	1.006233
C107	C	1.585246	-0.404228	0.951824
C108	C	2.085246	0.095772	1.451824
C109	C	1.585248	-0.404224	1.061548
C110	C	2.085248	0.095776	1.561548
C111	C	1.450953	-0.309491	1.061547
C112	C	1.950953	0.190509	1.561547
C113	C	1.450957	-0.309493	0.951825
C114	C	1.950957	0.190507	1.451825
C115	C	1.709124	-0.430688	1.211509
C116	C	2.209124	0.069312	1.711509
C117	C	1.776258	-0.478063	1.266370
C118	C	2.276258	0.021937	1.766370
C119	C	1.792325	-0.550325	1.230750
C120	C	2.292325	-0.050325	1.730750
C121	C	1.741241	-0.575227	1.140270
C122	C	2.241241	-0.075227	1.640270
C123	C	1.674099	-0.527856	1.085414
C124	C	2.174099	-0.027856	1.585414
C125	C	1.658052	-0.455584	1.121033
C126	C	2.158052	0.044416	1.621033
C127	C	1.327080	-0.283036	0.801862
C128	C	1.827080	0.216964	1.301862
C129	C	1.259931	-0.235668	0.747004
C130	C	1.759931	0.264332	1.247004
C131	C	1.243854	-0.163405	0.782622
C132	C	1.743854	0.336595	1.282622
C133	C	1.294919	-0.138506	0.873106
C134	C	1.794919	0.361494	1.373106
C135	C	1.362068	-0.185873	0.927964
C136	C	1.862068	0.314127	1.427964
C137	C	1.378147	-0.258136	0.892338
C138	C	1.878147	0.241864	1.392338
C139	C	1.518093	-0.356853	1.233189
C140	C	2.018093	0.143147	1.733189
C141	C	1.518100	-0.356860	1.116412
C142	C	2.018100	0.143140	1.616412
H143	H	1.013449	-0.548251	0.620270
H144	H	1.513449	-0.048251	1.120270
H145	H	1.544080	-0.919750	0.333229
H146	H	2.044080	-0.419750	0.833229
H147	H	1.846981	-0.588900	1.275431
H148	H	2.346981	-0.088900	1.775431
H149	H	1.406399	-0.919088	0.371913
H150	H	1.906399	-0.419088	0.871913
H151	H	1.656672	-0.920577	0.613930
H152	H	2.156672	-0.420577	1.113930
H153	H	1.639929	-0.442796	0.907161
H154	H	2.139929	0.057204	1.407161
H155	H	1.632503	-0.548132	1.011749
H156	H	2.132503	-0.048132	1.511749
H157	H	1.545305	-0.793017	0.333156
H158	H	2.045305	-0.293017	0.833156
H159	H	1.118128	-0.442922	0.627835
H160	H	1.618128	0.057078	1.127835
H161	H	1.355344	-0.920952	0.569044
H162	H	1.855344	-0.420952	1.069044
H163	H	1.692251	-0.791933	0.482034
H164	H	2.192251	-0.291933	0.982034
H165	H	1.754317	-0.634074	1.111283
H166	H	2.254317	-0.134074	1.611283
H167	H	1.407782	-0.792015	0.370995
H168	H	1.907782	-0.292015	0.870995
H169	H	1.651293	-0.793016	0.618481
H170	H	2.151293	-0.293016	1.118481
H171	H	1.218342	-0.255950	0.673334
H172	H	1.718342	0.244050	1.173334
H173	H	1.817852	-0.457781	1.340039
H174	H	2.317852	0.042219	1.840039
H175	H	1.351979	-0.255588	0.206524
H176	H	1.851979	0.244412	0.706524
H177	H	1.696059	-0.371845	1.240513
H178	H	2.196059	0.128155	1.740513
H179	H	1.689712	-0.919244	0.475286
H180	H	2.189712	-0.419244	0.975286
H181	H	0.913883	-0.634334	0.741961
H182	H	1.413883	-0.134334	1.241961
H183	H	1.354458	-0.793324	0.568553
H184	H	1.854458	-0.293324	1.068553
H185	H	0.784856	-0.372050	0.684144
H186	H	1.284856	0.127950	1.184144
H187	H	1.396285	-0.270923	1.106226
H188	H	1.896285	0.229077	1.606226
H189	H	0.749808	-0.589272	0.834731
H190	H	1.249808	-0.089272	1.334731
H191	H	1.403661	-0.165590	1.001631
H192	H	1.903661	0.334410	1.501631
H193	H	1.281829	-0.079663	0.902108
H194	H	1.781829	0.420337	1.402108
H195	H	1.189168	-0.124841	0.737951
H196	H	1.689168	0.375159	1.237951
H197	H	1.123360	-0.079392	0.270307
H198	H	1.623360	0.420608	0.770307
H199	H	0.685298	-0.458127	0.805815
H200	H	1.185298	0.041873	1.305815
H201	H	0.919128	-0.270788	0.384508
H202	H	1.419128	0.229212	0.884508
H203	H	1.023811	-0.165458	0.392029
H204	H	1.523811	0.334542	0.892029
H205	H	1.287457	-0.124453	0.177561
H206	H	1.787457	0.375547	0.677561
H207	H	1.340171	-0.341877	0.772848
H208	H	1.840171	0.158123	1.272848
H209	H	1.252428	-0.341657	0.328226
H210	H	1.752428	0.158343	0.828226
H211	H	1.455769	-0.919936	0.669962
H212	H	1.955769	-0.419936	1.169962
H213	H	1.455571	-0.792706	0.669441
H214	H	1.955571	-0.292706	1.169441
