data_functionalizedCrystal
_audit_creation_method	'MofGen! by Chris Wilmer'
_symmetry_space_group_name_H-M	'P1'
_symmetry_Int_Tables_number	1
_symmetry_cell_setting	triclinic
loop_
_symmetry_equiv_pos_as_xyz
  x,y,z
_cell_length_a	13.032831
_cell_length_b	12.645330
_cell_length_c	13.032268
_cell_angle_alpha	97.151313
_cell_angle_beta	90.886977
_cell_angle_gamma	82.822813
loop_
_atom_site_label
_atom_site_type_symbol
_atom_site_fract_x
_atom_site_fract_y
_atom_site_fract_z
Zn1	Zn	1.498478	-0.715929	-0.780858
Zn2	Zn	1.520220	-0.873876	-0.608884
Zn3	Zn	1.348336	-0.671644	-0.587098
Zn4	Zn	1.326468	-0.868144	-0.759009
O5	O	1.423375	-0.782398	-0.683962
O6	O	1.645282	-0.757814	-0.776307
O7	O	1.515670	-0.830915	-0.462076
O8	O	1.368306	-0.529182	-0.612827
O9	O	1.661256	-0.873856	-0.649958
O10	O	1.478614	-0.561718	-0.755182
O11	O	1.389388	-0.682336	-0.446071
O12	O	1.201515	-0.676778	-0.591641
O13	O	1.331034	-0.864087	-0.905824
O14	O	1.185448	-0.821146	-0.717943
O15	O	1.457409	-0.752256	-0.921877
O16	O	1.494465	-1.021452	-0.628771
O17	O	1.352116	-1.017241	-0.739067
C18	C	1.156164	-0.743535	-0.650057
C19	C	1.041847	-0.726938	-0.635577
C20	C	0.982971	-0.791061	-0.691519
C21	C	0.864818	-0.773908	-0.676555
C22	C	1.423302	-1.057816	-0.683938
C23	C	1.423360	-1.175658	-0.683974
C24	C	1.334105	-1.340692	-0.753648
C25	C	1.333733	-1.218045	-0.753341
C26	C	1.407793	-1.203807	-0.571873
C27	C	1.407248	-1.326389	-0.572295
C28	C	1.528779	-1.361707	-0.725584
C29	C	1.527810	-1.239270	-0.727870
C30	C	1.691630	-0.821414	-0.718000
C31	C	1.805944	-0.838040	-0.732505
C32	C	1.389357	-0.812472	-0.952210
C33	C	1.374860	-0.825288	-1.066522
C34	C	1.423474	-0.505912	-0.684012
C35	C	1.423516	-0.388090	-0.684033
C36	C	1.430925	-0.775669	-1.125428
C37	C	1.415944	-0.788914	-1.243575
C38	C	1.457320	-0.752374	-0.416765
C39	C	1.472016	-0.739288	-0.302479
H40	H	0.827756	-0.706302	-0.617582
C41	C	0.991789	-0.635615	-0.555908
H42	H	1.044049	-0.597603	-0.522756
H43	H	0.955550	-0.665017	-0.505760
H44	H	0.944899	-0.587866	-0.590067
C45	C	1.344698	-1.193104	-0.865050
H46	H	1.349419	-1.258011	-0.911029
H47	H	1.405398	-1.159705	-0.870617
H48	H	1.286012	-1.146223	-0.882432
H49	H	1.356842	-0.841195	-1.280605
H50	H	1.595223	-1.392760	-0.675049
C51	C	1.551848	-0.668650	-1.252465
H52	H	1.551451	-0.669018	-1.179619
H53	H	1.534614	-0.597193	-1.268125
H54	H	1.618738	-0.696176	-1.278785
H55	H	1.315763	-0.877565	-1.103557
H56	H	1.490012	-0.723380	-1.088392
H57	H	0.843003	-0.905637	-0.791489
C58	C	1.033033	-0.882380	-0.771189
H59	H	1.105879	-0.881932	-0.770791
H60	H	1.006728	-0.872200	-0.838109
H61	H	1.017389	-0.949354	-0.753805
H62	H	1.342048	-1.381809	-0.836582
H63	H	1.255418	-1.175020	-0.724725
C64	C	1.228946	-1.363927	-0.715394
H65	H	1.239294	-1.402385	-0.657180
H66	H	1.196457	-1.405650	-0.769108
H67	H	1.186216	-1.298070	-0.696271
H68	H	1.330710	-1.340879	-0.538698
H69	H	1.470292	-1.357178	-0.517917
H70	H	1.471460	-1.175923	-0.517982
H71	H	1.332138	-1.159066	-0.537955
C72	C	1.551599	-1.420415	-0.835120
H73	H	1.497135	-1.461569	-0.856538
H74	H	1.614886	-1.466652	-0.834686
H75	H	1.556826	-1.369234	-0.881721
C76	C	1.544024	-1.216333	-0.839405
H77	H	1.487384	-1.168187	-0.859145
H78	H	1.548466	-1.281628	-0.884783
H79	H	1.606221	-1.185005	-0.843088
C80	C	1.621052	-1.201927	-0.665831
H81	H	1.597395	-1.146811	-0.612104
H82	H	1.665773	-1.175079	-0.710462
H83	H	1.657503	-1.260863	-0.636626
