data_functionalizedCrystal
_audit_creation_method	'MofGen! by Chris Wilmer'
_symmetry_space_group_name_H-M	'P1'
_symmetry_Int_Tables_number	1
_symmetry_cell_setting	triclinic
loop_
_symmetry_equiv_pos_as_xyz
  x,y,z
_cell_length_a	19.077105
_cell_length_b	12.759394
_cell_length_c	19.076919
_cell_angle_alpha	87.724147
_cell_angle_beta	89.923776
_cell_angle_gamma	87.710378
loop_
_atom_site_label
_atom_site_type_symbol
_atom_site_fract_x
_atom_site_fract_y
_atom_site_fract_z
Zn1	Zn	1.058332	-0.508277	0.440442
Zn2	Zn	1.062993	-0.677204	0.322943
Zn3	Zn	0.945548	-0.494202	0.318235
Zn4	Zn	0.940815	-0.676570	0.435696
O5	O	1.001922	-0.589063	0.379329
O6	O	1.157283	-0.536841	0.428812
O7	O	1.051345	-0.647303	0.223987
O8	O	0.960540	-0.349051	0.334462
O9	O	1.160707	-0.660951	0.342487
O10	O	1.043402	-0.359391	0.424247
O11	O	0.965059	-0.512853	0.220528
O12	O	0.846588	-0.512239	0.329859
O13	O	0.952472	-0.659871	0.534657
O14	O	0.843110	-0.646224	0.416158
O15	O	1.038812	-0.536226	0.538144
O16	O	1.046755	-0.824138	0.337884
O17	O	0.956991	-0.823673	0.420723
C18	C	0.819352	-0.577636	0.371983
C19	C	0.741248	-0.572773	0.368857
C20	C	0.702764	-0.640345	0.412248
C21	C	0.629376	-0.635763	0.409315
C22	C	0.594473	-0.563613	0.362985
C23	C	0.632962	-0.496034	0.319592
C24	C	0.706348	-0.500612	0.322530
C25	C	0.375184	-0.542425	0.349391
C26	C	0.301792	-0.537854	0.346455
C27	C	0.298211	-0.677582	0.436180
C28	C	0.371600	-0.682158	0.439110
C29	C	0.410082	-0.614575	0.395720
N30	N	0.519459	-0.558929	0.359984
N31	N	0.485094	-0.619254	0.398725
C32	C	1.001883	-0.862028	0.379316
C33	C	1.001930	-0.978809	0.379336
C34	C	1.088144	-0.989417	0.472894
C35	C	1.131273	-1.049584	0.519679
C36	C	1.131314	-1.159309	0.519696
C37	C	1.088220	-1.208870	0.472924
C38	C	1.045091	-1.148703	0.426139
C39	C	1.045057	-1.038976	0.426126
C40	C	0.958875	-1.138094	0.332586
C41	C	0.958836	-1.028369	0.332564
C42	C	0.915781	-1.187654	0.285814
C43	C	0.872655	-1.127487	0.239024
C44	C	0.872616	-1.017755	0.239009
C45	C	0.915707	-0.968202	0.285779
C46	C	1.185205	-0.600536	0.386704
C47	C	1.263309	-0.605426	0.389847
C48	C	0.994594	-0.599548	0.562610
C49	C	0.991471	-0.604016	0.640713
C50	C	1.001979	-0.315035	0.379358
C51	C	1.002004	-0.198261	0.379371
C52	C	1.009262	-0.578546	0.196763
C53	C	1.012521	-0.573791	0.118665
C54	C	1.034954	-0.541743	0.679223
C55	C	1.032011	-0.545936	0.752609
C56	C	0.985589	-0.612409	0.787484
C57	C	0.942101	-0.674685	0.748969
C58	C	0.945040	-0.670485	0.675584
C59	C	0.971973	-0.631867	1.006766
C60	C	0.969038	-0.636064	1.080156
C61	C	1.058948	-0.507314	1.083791
C62	C	1.061887	-0.503125	1.010404
C63	C	1.018396	-0.565396	0.971896
N64	N	0.982581	-0.616699	0.862496
N65	N	1.021401	-0.561099	0.896885
H66	H	0.400012	-0.740912	0.476835
H67	H	0.904300	-0.728804	0.777370
H68	H	1.094355	-0.456615	1.115152
C69	C	0.880448	-0.762901	1.069195
C70	C	0.918003	-0.709132	1.118492
H71	H	0.848942	-0.808003	1.092864
H72	H	0.912197	-0.803368	1.041801
H73	H	0.854726	-0.713792	1.039495
H74	H	0.943729	-0.758241	1.148189
H75	H	0.886250	-0.668662	1.145898
C76	C	0.855893	-0.798200	0.679358
C77	C	0.897255	-0.738956	0.633252
H78	H	0.826396	-0.840479	0.653223
H79	H	0.827871	-0.752386	0.706896
H80	H	0.885364	-0.841928	0.709217
H81	H	0.867783	-0.695222	0.603397
H82	H	0.925280	-0.784776	0.605702
H83	H	0.266872	-0.732602	0.471507
H84	H	0.737681	-0.445583	0.287199
C85	C	0.720624	-0.700004	0.532081
C86	C	0.741128	-0.719652	0.463177
H87	H	0.744311	-0.748961	0.563524
H88	H	0.671417	-0.706952	0.536537
H89	H	0.732252	-0.630778	0.542916
H90	H	0.729496	-0.788876	0.452341
H91	H	0.790347	-0.712713	0.458719
C92	C	0.880754	-0.635805	0.920435
C93	C	0.924173	-0.700312	0.964435
H94	H	0.851241	-0.678062	0.894301
H95	H	0.908824	-0.595622	0.889170
H96	H	0.852741	-0.589994	0.947996
H97	H	0.952190	-0.746118	0.936874
H98	H	0.896101	-0.740513	0.995704
C99	C	1.065382	-0.371474	0.776583
C100	C	1.079814	-0.477480	0.794931
H101	H	1.094898	-0.329210	0.802706
H102	H	1.017698	-0.353834	0.786714
H103	H	1.073775	-0.359485	0.727884
H104	H	1.071416	-0.489470	0.843629
H105	H	1.127509	-0.495126	0.784805
H106	H	1.088122	-0.900074	0.472879
H107	H	0.273376	-0.479089	0.308733
C108	C	0.543098	-0.650860	0.500524
C109	C	0.587081	-0.710047	0.457012
H110	H	0.516992	-0.696725	0.529974
H111	H	0.511808	-0.607246	0.472516
H112	H	0.570670	-0.608479	0.528598
H113	H	0.559508	-0.752422	0.428933
H114	H	0.618375	-0.753679	0.485022
C115	C	0.371341	-0.403852	0.260410
C116	C	0.417477	-0.468140	0.301696
H117	H	0.397455	-0.357994	0.230962
H118	H	0.341501	-0.363715	0.289928
H119	H	0.343785	-0.446251	0.232333
H120	H	0.445029	-0.425741	0.329777
H121	H	0.447328	-0.508281	0.272175
C122	C	0.522057	-0.426972	0.275249
C123	C	0.594598	-0.416721	0.268668
H124	H	0.498376	-0.378010	0.243806
H125	H	0.508158	-0.413661	0.321994
H126	H	0.510441	-0.496197	0.264399
H127	H	0.606215	-0.347498	0.279523
H128	H	0.608502	-0.430025	0.221913
H129	H	1.166359	-1.009223	0.557762
H130	H	1.166426	-1.208298	0.557800
H131	H	1.088252	-1.298214	0.472948
C132	C	0.895214	-1.347530	0.351946
C133	C	0.915827	-1.308265	0.285831
H134	H	0.895248	-1.421991	0.351954
H135	H	0.849370	-1.320621	0.362231
H136	H	0.927054	-1.326618	0.386490
H137	H	0.883984	-1.329171	0.251288
H138	H	0.961678	-1.335184	0.275538
C139	C	0.834431	-1.290978	0.197515
C140	C	0.825291	-1.181964	0.187616
H141	H	0.805193	-1.324610	0.165773
H142	H	0.822228	-1.310990	0.244303
H143	H	0.882070	-1.311267	0.189170
H144	H	0.777652	-1.161674	0.195967
H145	H	0.837489	-1.161944	0.140818
H146	H	0.837492	-0.968772	0.200913
C147	C	0.848077	-0.807937	0.300933
C148	C	0.915663	-0.847590	0.285763
H149	H	0.848050	-0.733476	0.300921
H150	H	0.834099	-0.834585	0.345779
H151	H	0.816247	-0.828846	0.266378
H152	H	0.947492	-0.826688	0.320320
H153	H	0.929649	-0.820932	0.240911
H154	H	1.072759	-0.487616	0.650833
C155	C	1.150457	-0.376271	1.021371
C156	C	1.112913	-0.430049	0.972072
H157	H	1.181956	-0.331155	0.997704
H158	H	1.176179	-0.425364	1.051070
H159	H	1.118696	-0.335807	1.048766
H160	H	1.144674	-0.470520	0.944680
H161	H	1.087189	-0.380949	0.942361
