data_functionalizedCrystal
_audit_creation_method	'MofGen! by Chris Wilmer'
_symmetry_space_group_name_H-M	'P1'
_symmetry_Int_Tables_number	1
_symmetry_cell_setting	triclinic
loop_
_symmetry_equiv_pos_as_xyz
  x,y,z
_cell_length_a	19.288865
_cell_length_b	19.288864
_cell_length_c	17.766277
_cell_angle_alpha	90.023209
_cell_angle_beta	89.988397
_cell_angle_gamma	96.863755
loop_
_atom_site_label
_atom_site_type_symbol
_atom_site_fract_x
_atom_site_fract_y
_atom_site_fract_z
O1	O	0.086649	-0.921353	-0.062844
O2	O	0.098337	-0.719092	-0.062794
O3	O	-0.008637	-0.826067	-0.062806
O4	O	0.193623	-0.814378	-0.062832
O5	O	-0.008643	-0.826048	0.062383
O6	O	0.098332	-0.719074	0.062395
O7	O	0.086643	-0.921334	0.062344
Cu8	Cu	0.092487	-0.820202	0.073800
Cu9	Cu	0.092494	-0.820224	-0.074250
O10	O	0.193618	-0.814360	0.062356
C11	C	0.097959	-0.693207	-0.000193
C12	C	0.096830	-0.616103	-0.000173
C13	C	-0.034516	-0.825682	-0.000209
C14	C	-0.111620	-0.824553	-0.000202
N15	N	0.092482	-0.820192	0.177931
C16	C	-0.156316	-0.887321	-0.000214
C17	C	-0.228763	-0.886260	-0.000226
C18	C	-0.256511	-0.822428	-0.000210
C19	C	-0.211805	-0.759652	-0.000203
C20	C	-0.139359	-0.760714	-0.000198
C21	C	-0.364800	-0.772242	0.043653
C22	C	-0.437245	-0.771182	0.043654
C23	C	-0.479956	-0.819148	-0.000226
C24	C	-0.450216	-0.868186	-0.044097
C25	C	-0.377771	-0.869249	-0.044093
C26	C	-0.335065	-0.821269	-0.000215
C27	C	-0.603209	-0.880770	-0.000252
C28	C	-0.675657	-0.879707	-0.000268
C29	C	-0.658697	-0.753097	-0.000238
C30	C	-0.586250	-0.754162	-0.000229
C31	C	-0.558511	-0.818001	-0.000232
C32	C	0.219497	-0.814745	-0.000242
C33	C	0.296601	-0.815874	-0.000254
C34	C	0.087022	-0.947220	-0.000258
C35	C	0.088151	-1.024324	-0.000283
C36	C	0.159598	-0.571407	-0.000193
C37	C	0.158537	-0.498960	-0.000201
C38	C	0.094705	-0.471212	-0.000205
C39	C	0.031929	-0.515918	-0.000180
C40	C	0.032991	-0.588364	-0.000164
C41	C	0.044527	-0.362957	-0.044082
C42	C	0.043468	-0.290512	-0.044103
C43	C	0.091425	-0.247767	-0.000250
C44	C	0.140454	-0.277473	0.043614
C45	C	0.141517	-0.349918	0.043630
C46	C	0.093546	-0.392658	-0.000221
C47	C	0.153047	-0.124514	-0.000278
C48	C	0.151984	-0.052066	-0.000281
C49	C	0.025374	-0.069026	-0.000267
C50	C	0.026439	-0.141473	-0.000256
C51	C	0.090278	-0.169212	-0.000265
N52	N	0.092493	-0.820241	-0.178380
C53	C	0.045137	-0.867575	0.217312
C54	C	0.045134	-0.867579	0.296114
C55	C	0.092488	-0.820206	0.335531
C56	C	0.139837	-0.772814	0.296140
C57	C	0.139834	-0.772807	0.217340
C58	C	0.155775	-0.810908	0.460362
C59	C	0.155779	-0.810920	0.539161
C60	C	0.092496	-0.820225	0.578577
C61	C	0.029207	-0.829533	0.539185
C62	C	0.029204	-0.829525	0.460385
C63	C	0.092496	-0.820209	0.420977
C64	C	0.045143	-0.867616	0.703405
C65	C	0.045139	-0.867615	0.782208
C66	C	0.139848	-0.772853	0.782233
C67	C	0.139846	-0.772850	0.703431
C68	C	0.092495	-0.820235	0.664022
H69	H	-0.265162	-0.937375	-0.000238
H70	H	0.207313	-0.803345	0.571228
C71	C	0.180925	-0.652451	0.320465
C72	C	0.191887	-0.720739	0.339466
H73	H	0.213055	-0.620301	0.347217
H74	H	0.187703	-0.645668	0.267904
H75	H	0.134583	-0.645070	0.333400
H76	H	0.238227	-0.728122	0.326526
H77	H	0.185114	-0.727525	0.392038
H78	H	-0.549857	-0.703049	-0.000215
H79	H	-0.461453	-0.731249	0.079371
H80	H	-0.024674	-0.177866	-0.000244
H81	H	-0.022324	-0.837110	0.571277
C82	C	0.233465	-0.679192	0.711373
C83	C	0.191898	-0.720771	0.660137
H84	H	0.265602	-0.647041	0.684643
H85	H	0.204617	-0.654302	0.742126
H86	H	0.258375	-0.708034	0.742088
H87	H	0.166984	-0.691929	0.629426
H88	H	0.220750	-0.745662	0.629371
H89	H	0.178389	-0.734220	0.185274
H90	H	0.006585	-0.906198	0.671317
C91	C	-0.148459	-0.995574	-0.064592
C92	C	-0.125827	-0.957491	-0.000227
H93	H	-0.129632	-1.038892	-0.064601
H94	H	-0.197997	-1.003920	-0.064589
H95	H	-0.133088	-0.969739	-0.108236
H96	H	-0.141203	-0.983324	0.043418
H97	H	-0.076279	-0.949148	-0.000223
H98	H	-0.018124	-0.624756	-0.000148
H99	H	0.005473	-0.397755	-0.079797
C100	C	0.280892	-0.792538	0.468253
C101	C	0.225343	-0.800691	0.417040
H102	H	0.323838	-0.786238	0.441507
H103	H	0.277148	-0.752865	0.499004
H104	H	0.279369	-0.832990	0.498973
H105	H	0.226863	-0.760237	0.386324
H106	H	0.229089	-0.840368	0.386276
H107	H	0.006579	-0.906158	0.185228
H108	H	-0.580622	-0.932751	-0.000258
C109	C	-0.129873	-0.635460	-0.000168
C110	C	-0.090224	-0.691714	-0.000178
H111	H	-0.099537	-0.592863	-0.000149
H112	H	-0.158468	-0.637684	-0.043826
H113	H	-0.158497	-0.637677	0.043486
H114	H	-0.061604	-0.689501	-0.043836
H115	H	-0.061617	-0.689489	0.043484
H116	H	0.006581	-0.906198	0.814274
H117	H	0.006578	-0.906166	0.328185
H118	H	-0.353560	-0.909176	-0.079815
C119	C	-0.095909	-0.847913	0.468315
C120	C	-0.040359	-0.839745	0.417085
H121	H	-0.138854	-0.854216	0.441581
H122	H	-0.092159	-0.887589	0.499023
H123	H	-0.094391	-0.807466	0.499076
H124	H	-0.041874	-0.880194	0.386328
H125	H	-0.044111	-0.800065	0.386364
H126	H	-0.330029	-0.733180	0.079389
C127	C	0.224244	0.039274	0.064044
C128	C	0.220984	-0.002931	-0.000304
H129	H	0.266844	0.069605	0.064029
H130	H	0.186080	0.066162	0.064042
H131	H	0.222031	0.010675	0.107700
H132	H	0.223192	0.025667	-0.043960
H133	H	0.259159	-0.029822	-0.000309
H134	H	-0.234401	-0.707679	-0.000192
H135	H	-0.484991	-0.907245	-0.079829
H136	H	-0.712049	-0.930822	-0.000282
C137	C	-0.634651	-0.628058	-0.000210
C138	C	-0.689187	-0.682929	-0.000224
H139	H	-0.653479	-0.584739	-0.000208
H140	H	-0.606761	-0.631098	0.043446
H141	H	-0.606736	-0.631119	-0.043866
H142	H	-0.717100	-0.679872	0.043436
H143	H	-0.717089	-0.679888	-0.043884
C144	C	0.267842	-0.579268	-0.064562
C145	C	0.229774	-0.601887	-0.000198
H146	H	0.311169	-0.598080	-0.064562
H147	H	0.242009	-0.594658	-0.108202
H148	H	0.276177	-0.529723	-0.064566
H149	H	0.221435	-0.651431	-0.000197
H150	H	0.255612	-0.586500	0.043453
C151	C	0.230778	-0.407680	-0.064594
C152	C	0.227534	-0.449814	-0.000229
H153	H	0.273372	-0.377339	-0.064608
H154	H	0.228564	-0.436321	-0.108233
H155	H	0.192603	-0.380796	-0.064584
H156	H	0.265707	-0.476702	-0.000241
H157	H	0.229754	-0.421170	0.043422
C158	C	0.186125	-0.366230	0.167707
C159	C	0.195399	-0.382573	0.091850
H160	H	0.219386	-0.386394	0.197478
H161	H	0.192362	-0.316973	0.173969
H162	H	0.140338	-0.384250	0.183121
H163	H	0.241183	-0.364549	0.076435
H164	H	0.189167	-0.431840	0.085585
H165	H	0.179505	-0.242670	0.079324
C166	C	0.278088	-0.100476	-0.000284
C167	C	0.223216	-0.155011	-0.000276
H168	H	0.321407	-0.119304	-0.000278
H169	H	0.275045	-0.072596	-0.043942
H170	H	0.275031	-0.072550	0.043371
H171	H	0.226270	-0.182935	-0.043933
H172	H	0.226261	-0.182903	0.043387
H173	H	0.003548	-0.266331	-0.079822
C174	C	-0.049270	0.002561	-0.064637
C175	C	-0.044795	-0.038538	-0.000273
H176	H	-0.092593	0.021381	-0.064640
H177	H	-0.012045	0.039550	-0.064641
H178	H	-0.046218	-0.025379	-0.108282
H179	H	-0.047841	-0.010597	0.043372
H180	H	-0.082030	-0.075532	-0.000263
H181	H	0.178402	-0.734278	0.814325
C182	C	-0.076310	-0.508108	-0.064530
C183	C	-0.038238	-0.485423	-0.000186
H184	H	-0.119631	-0.489285	-0.064527
H185	H	-0.050473	-0.492774	-0.108184
H186	H	-0.084655	-0.557652	-0.064507
H187	H	-0.029889	-0.435879	-0.000211
H188	H	-0.064081	-0.500753	0.043479
