data_functionalizedCrystal
_audit_creation_method	'MofGen! by Chris Wilmer'
_symmetry_space_group_name_H-M	'P1'
_symmetry_Int_Tables_number	1
_symmetry_cell_setting	triclinic
loop_
_symmetry_equiv_pos_as_xyz
  x,y,z
_cell_length_a	12.759401
_cell_length_b	13.897447
_cell_length_c	12.759393
_cell_angle_alpha	89.967722
_cell_angle_beta	89.982549
_cell_angle_gamma	90.018574
loop_
_atom_site_label
_atom_site_type_symbol
_atom_site_fract_x
_atom_site_fract_y
_atom_site_fract_z
Zn1	Zn	1.606209	-0.383981	-0.593980
Zn2	Zn	1.606091	-0.545311	-0.418298
Zn3	Zn	1.430514	-0.384029	-0.418319
Zn4	Zn	1.430484	-0.545233	-0.593939
O5	O	1.518325	-0.464638	-0.506134
O6	O	1.753214	-0.405394	-0.570683
O7	O	1.582764	-0.523969	-0.271280
O8	O	1.453882	-0.249041	-0.441646
O9	O	1.753128	-0.523922	-0.441611
O10	O	1.582964	-0.249005	-0.570703
O11	O	1.453768	-0.405476	-0.271295
O12	O	1.283489	-0.405400	-0.441607
O13	O	1.453831	-0.523790	-0.740966
O14	O	1.283467	-0.523836	-0.570635
O15	O	1.582935	-0.405318	-0.740995
O16	O	1.582735	-0.680282	-0.441572
O17	O	1.453718	-0.680225	-0.570615
C18	C	1.245357	-0.464616	-0.506119
C19	C	1.128581	-0.464629	-0.506138
C20	C	1.073756	-0.403028	-0.573450
C21	C	0.964032	-0.403046	-0.573457
C22	C	0.963966	-0.526276	-0.438836
C23	C	1.073688	-0.526252	-0.438825
C24	C	1.073794	-0.331885	-0.651176
C25	C	0.964069	-0.331904	-0.651182
C26	C	1.518239	-0.715253	-0.506110
C27	C	1.518299	-0.822466	-0.506134
C28	C	1.518350	-0.909536	-0.506158
C29	C	1.518423	-1.018769	-0.506185
C30	C	1.792358	-0.464662	-0.506149
C31	C	1.909134	-0.464672	-0.506156
C32	C	1.518393	-0.464540	-0.780167
C33	C	1.518422	-0.464498	-0.896944
C34	C	1.518439	-0.213045	-0.506181
C35	C	1.518488	-0.105831	-0.506202
C36	C	1.451282	-0.402787	-0.951820
C37	C	1.451314	-0.402759	-1.061544
C38	C	1.585634	-0.526154	-1.061507
C39	C	1.585596	-0.526187	-0.951785
C40	C	1.373736	-0.331543	-0.951843
C41	C	1.373768	-0.331514	-1.061567
C42	C	1.518317	-0.464666	-0.233167
C43	C	1.518492	-0.464437	-0.116390
H44	H	1.107855	-0.358723	-0.728413
H45	H	1.640253	-0.576452	-0.907109
C46	C	0.918085	-0.235993	-0.612011
N47	N	0.883448	-0.163754	-0.582509
H48	H	1.395592	-0.256797	-1.091365
C49	C	0.923876	-0.359067	-0.761058
N50	N	0.893602	-0.379526	-0.843814
C51	C	1.659382	-0.594137	-1.121841
N52	N	1.714880	-0.645389	-1.167284
C53	C	1.263785	-0.358574	-0.911609
N54	N	1.180972	-0.378936	-0.881306
C55	C	1.413135	-0.235691	-0.905884
N56	N	1.442809	-0.163494	-0.871268
H57	H	1.296469	-0.358253	-1.095592
H58	H	0.919260	-0.576447	-0.384033
H59	H	1.103568	-0.257148	-0.629523
C60	C	1.133991	-0.594008	-0.364766
N61	N	1.179411	-0.645044	-0.308982
