data_functionalizedCrystal
_audit_creation_method	'MofGen! by Chris Wilmer'
_symmetry_space_group_name_H-M	'P1'
_symmetry_Int_Tables_number	1
_symmetry_cell_setting	triclinic
loop_
_symmetry_equiv_pos_as_xyz
  x,y,z
_cell_length_a	10.489741
_cell_length_b	15.944493
_cell_length_c	9.565339
_cell_angle_alpha	90.006105
_cell_angle_beta	89.999100
_cell_angle_gamma	84.007109
loop_
_atom_site_label
_atom_site_type_symbol
_atom_site_fract_x
_atom_site_fract_y
_atom_site_fract_z
O1	O	1.692373	0.118504	-0.116153
O2	O	1.321019	0.129628	-0.116173
O3	O	1.516875	0.001849	-0.116174
O4	O	1.496517	0.246283	-0.116152
O5	O	1.516860	0.001857	0.116346
O6	O	1.321004	0.129636	0.116347
O7	O	1.692357	0.118512	0.116367
Zn8	Zn	1.506678	0.124075	0.153274
Zn9	Zn	1.506698	0.124064	-0.153081
O10	O	1.496501	0.246291	0.116368
C11	C	1.273492	0.128791	0.000084
C12	C	1.131898	0.126278	0.000075
C13	C	1.064911	0.044976	0.000081
C14	C	0.972247	0.083378	-0.114557
C15	C	0.972265	0.083405	0.114690
C16	C	1.041099	0.164714	-0.114657
C17	C	1.041127	0.164729	0.114692
C18	C	0.948490	0.203191	0.000026
C19	C	1.516035	-0.029447	0.000080
C20	C	1.513541	-0.122711	0.000062
C21	C	1.628826	-0.357778	0.000094
C22	C	1.566665	-0.408723	-0.114553
C23	C	1.508918	-0.293460	0.000079
C24	C	1.566622	-0.408692	0.114694
C25	C	1.504462	-0.458396	0.000101
C26	C	1.446789	-0.343177	-0.114663
C27	C	1.446764	-0.343142	0.114686
C28	C	1.384514	-0.394055	0.000011
C29	C	1.511489	-0.198444	0.000064
C30	C	1.501882	-0.553409	0.000105
C31	C	1.739885	0.119348	0.000106
C32	C	1.881478	0.121861	0.000106
C33	C	1.497341	0.277586	0.000111
C34	C	1.499836	0.370850	0.000119
N35	N	1.506673	0.124081	0.362354
N36	N	1.506713	0.124051	-0.362160
C37	C	1.416069	0.183155	0.453557
C38	C	1.531325	0.200151	0.546745
C39	C	1.391467	0.107092	0.546722
C40	C	1.621987	0.141116	0.453489
C41	C	1.482054	0.048023	0.453458
C42	C	1.597393	0.064988	0.546603
H43	H	1.071679	0.199105	0.211623
O44	O	1.261184	-0.413213	-0.000310
C45	C	1.198450	-0.379524	-0.121327
H46	H	1.272520	-0.369865	-0.205429
H47	H	1.142207	-0.316413	-0.095073
C48	C	1.014864	-0.452887	-0.072085
C49	C	1.105839	-0.441030	-0.175384
H50	H	0.957733	-0.490824	-0.105427
H51	H	1.057126	-0.475582	0.009450
H52	H	0.968009	-0.400289	-0.050216
H53	H	1.152703	-0.493625	-0.197238
H54	H	1.063582	-0.418345	-0.256924
O55	O	1.386581	-0.308998	0.230457
C56	C	1.450129	-0.342545	0.351103
H57	H	1.553278	-0.366531	0.323641
H58	H	1.398742	-0.396911	0.392930
C59	C	1.322934	-0.243888	0.497214
C60	C	1.449626	-0.273342	0.463487
H61	H	1.322620	-0.201202	0.566542
H62	H	1.280117	-0.221288	0.415934
H63	H	1.280125	-0.289200	0.532062
H64	H	1.492427	-0.228032	0.428624
H65	H	1.492451	-0.295932	0.544765
O66	O	1.627285	-0.442881	-0.230074
C67	C	1.755982	-0.424725	-0.229683
H68	H	1.786420	-0.411460	-0.118117
H69	H	1.765813	-0.367015	-0.297632
C70	C	1.804786	-0.517059	-0.425200
C71	C	1.842173	-0.500774	-0.288172
H72	H	1.857954	-0.563968	-0.461285
H73	H	1.718080	-0.529289	-0.425468
H74	H	1.812979	-0.468962	-0.481807
H75	H	1.833965	-0.548867	-0.231564
H76	H	1.928881	-0.488554	-0.287896
O77	O	0.936053	0.042245	0.230274
C78	C	0.995897	-0.041151	0.229802
H79	H	1.086102	-0.044637	0.162687
H80	H	0.927199	-0.085128	0.185048
C81	C	0.921424	-0.063852	0.462838
C82	C	1.032222	-0.068132	0.380415
H83	H	0.943827	-0.080498	0.555742
H84	H	0.881102	-0.007668	0.463155
H85	H	0.864186	-0.100500	0.425526
H86	H	1.089450	-0.031478	0.417717
H87	H	1.072555	-0.124312	0.380108
H88	H	1.719453	0.155550	0.412708
H89	H	0.941727	0.048974	-0.211483
H90	H	1.674115	0.015015	0.587202
H91	H	1.461167	-0.016264	0.412451
H92	H	1.396186	-0.314665	-0.211692
H93	H	0.898117	0.270097	-0.000030
H94	H	1.732111	-0.341528	-0.000015
H95	H	1.071446	0.199084	-0.211684
O96	O	1.324881	0.242914	0.404866
C97	C	1.351339	0.322987	0.452431
H98	H	1.457614	0.321259	0.478558
H99	H	1.292063	0.340618	0.549978
C100	C	1.186227	0.391097	0.305235
C101	C	1.316758	0.388976	0.337313
H102	H	1.164891	0.431803	0.234229
H103	H	1.168398	0.337150	0.273193
H104	H	1.136846	0.405786	0.386534
H105	H	1.366137	0.374277	0.256020
H106	H	1.334594	0.442922	0.369339
H107	H	1.617279	-0.437315	0.211613
O108	O	1.556236	0.276805	0.595879
C109	C	1.557026	0.275485	0.743262
H110	H	1.577839	0.207674	0.781258
H111	H	1.459521	0.303187	0.784137
C112	C	1.635924	0.411510	0.751046
C113	C	1.661498	0.328224	0.797713
H114	H	1.700362	0.444044	0.784636
H115	H	1.635387	0.412401	0.651752
H116	H	1.554667	0.434583	0.785112
H117	H	1.742745	0.305149	0.763632
H118	H	1.662051	0.327330	0.897004
H119	H	1.294023	0.092736	0.587679
H120	H	1.115548	-0.021860	-0.000068
