data_functionalizedCrystal
_audit_creation_method	'MofGen! by Chris Wilmer'
_symmetry_space_group_name_H-M	'P1'
_symmetry_Int_Tables_number	1
_symmetry_cell_setting	triclinic
loop_
_symmetry_equiv_pos_as_xyz
  x,y,z
_cell_length_a	13.897448
_cell_length_b	13.897449
_cell_length_c	12.759393
_cell_angle_alpha	89.976287
_cell_angle_beta	90.032272
_cell_angle_gamma	89.982475
loop_
_atom_site_label
_atom_site_type_symbol
_atom_site_fract_x
_atom_site_fract_y
_atom_site_fract_z
Zn1	Zn	-0.383972	-1.474711	0.594085
Zn2	Zn	-0.050639	-1.141377	0.927418
Zn3	Zn	0.282694	-0.808044	1.260752
Zn4	Zn	-0.545299	-1.474602	0.418400
Zn5	Zn	-0.211966	-1.141269	0.751733
Zn6	Zn	0.121368	-0.807936	1.085066
Zn7	Zn	-0.384019	-1.313397	0.418412
Zn8	Zn	-0.050686	-0.980064	0.751745
Zn9	Zn	0.282648	-0.646731	1.085078
Zn10	Zn	-0.545227	-1.313382	0.594028
Zn11	Zn	-0.211893	-0.980048	0.927362
Zn12	Zn	0.121440	-0.646715	1.260695
O13	O	-0.464629	-1.394023	0.506231
O14	O	-0.131296	-1.060690	0.839564
O15	O	0.202037	-0.727356	1.172898
O16	O	-0.405383	-1.609678	0.570799
O17	O	-0.072050	-1.276345	0.904132
O18	O	0.261283	-0.943011	1.237465
O19	O	-0.523954	-1.453179	0.271380
O20	O	-0.190621	-1.119846	0.604713
O21	O	0.142712	-0.786513	0.938047
O22	O	-0.249031	-1.334848	0.441744
O23	O	0.084302	-1.001515	0.775077
O24	O	0.417635	-0.668181	1.108410
O25	O	-0.523909	-1.609598	0.441723
O26	O	-0.190576	-1.276265	0.775057
O27	O	0.142757	-0.942932	1.108390
O28	O	-0.248997	-1.453364	0.570810
O29	O	0.084336	-1.120031	0.904144
O30	O	0.417670	-0.786698	1.237477
O31	O	-0.405463	-1.334743	0.271389
O32	O	-0.072130	-1.001410	0.604722
O33	O	0.261204	-0.668076	0.938056
O34	O	-0.405393	-1.178414	0.441689
O35	O	-0.072060	-0.845080	0.775022
O36	O	0.261274	-0.511747	1.108356
O37	O	-0.523786	-1.334821	0.741057
O38	O	-0.190453	-1.001488	1.074390
O39	O	0.142880	-0.668154	1.407724
O40	O	-0.523831	-1.178402	0.570714
O41	O	-0.190498	-0.845069	0.904047
O42	O	0.142835	-0.511735	1.237380
O43	O	-0.405314	-1.453349	0.741099
O44	O	-0.071980	-1.120015	1.074432
O45	O	0.261353	-0.786682	1.407765
O46	O	-0.680271	-1.453164	0.441668
O47	O	-0.346938	-1.119831	0.775002
O48	O	-0.013604	-0.786497	1.108335
O49	O	-0.680218	-1.334716	0.570702
O50	O	-0.346885	-1.001383	0.904035
O51	O	-0.013551	-0.668049	1.237369
C52	C	-0.464610	-1.143409	0.506197
C53	C	-0.131277	-0.810075	0.839530
C54	C	0.202057	-0.476742	1.172864
C55	C	-0.464625	-1.036195	0.506207
C56	C	-0.131292	-0.702861	0.839541
C57	C	0.202042	-0.369528	1.172874
C58	C	-0.464624	-0.839900	0.506227
C59	C	-0.131290	-0.506566	0.839560
C60	C	0.202043	-0.173233	1.172894
C61	C	-0.464621	-0.949132	0.506213
C62	C	-0.131288	-0.615799	0.839547
C63	C	0.202045	-0.282466	1.172880
C64	C	-0.715244	-1.393953	0.506201
C65	C	-0.381910	-1.060619	0.839534
C66	C	-0.048577	-0.727286	1.172867
C67	C	-0.822458	-1.394011	0.506223
C68	C	-0.489124	-1.060677	0.839556
C69	C	-0.155791	-0.727344	1.172889
C70	C	-1.018753	-1.394112	0.506289
C71	C	-0.685419	-1.060779	0.839622
C72	C	-0.352086	-0.727445	1.172955
C73	C	-0.909520	-1.394053	0.506255
C74	C	-0.576187	-1.060720	0.839589
C75	C	-0.242853	-0.727386	1.172922
C76	C	-0.213036	-1.394120	0.506285
C77	C	0.120297	-1.060787	0.839618
C78	C	0.453630	-0.727453	1.172951
C79	C	-0.105822	-1.394161	0.506307
C80	C	0.227511	-1.060828	0.839641
C81	C	0.560844	-0.727495	1.172974
C82	C	-0.464537	-1.394095	0.780265
C83	C	-0.131203	-1.060762	1.113598
C84	C	0.202130	-0.727429	1.446931
C85	C	-0.464497	-1.394126	0.897041
C86	C	-0.131164	-1.060793	1.230375
C87	C	0.202169	-0.727459	1.563708
C88	C	-0.464643	-0.645616	0.506256
C89	C	-0.131310	-0.312283	0.839589
C90	C	0.202024	0.021051	1.172922
C91	C	-0.464633	-0.752830	0.506240
C92	C	-0.131299	-0.419497	0.839574
C93	C	0.202034	-0.086163	1.172907
C94	C	-0.464652	-1.394007	0.233264
C95	C	-0.131319	-1.060673	0.566597
C96	C	0.202015	-0.727340	0.899930
C97	C	-0.464420	-1.394163	0.116488
C98	C	-0.131086	-1.060829	0.449821
C99	C	0.202247	-0.727496	0.783154
C100	C	-0.402799	-1.455848	0.951927
C101	C	-0.069465	-1.122515	1.285260
C102	C	0.263868	-0.789181	1.618593
C103	C	-0.402757	-1.455864	1.061651
C104	C	-0.069424	-1.122531	1.394984
C105	C	0.263910	-0.789198	1.728317
C106	C	-0.526121	-1.332434	1.061595
C107	C	-0.192788	-0.999101	1.394928
C108	C	0.140546	-0.665767	1.728261
C109	C	-0.526157	-1.332413	0.951872
C110	C	-0.192824	-0.999080	1.285206
C111	C	0.140510	-0.665747	1.618539
H112	H	-0.352514	-1.506123	1.106334
H113	H	-0.019181	-1.172790	1.439667
H114	H	0.314152	-0.839456	1.773000
H115	H	-0.576324	-1.282192	1.106252
H116	H	-0.242991	-0.948859	1.439585
H117	H	0.090342	-0.615525	1.772918
H118	H	-0.352589	-1.506096	0.907286
H119	H	-0.019255	-1.172762	1.240620
H120	H	0.314078	-0.839429	1.573953
O121	O	-0.592678	-1.265811	0.892662
O122	O	-0.259345	-0.932478	1.225995
O123	O	0.073988	-0.599145	1.559329
H124	H	-0.635548	-1.222902	0.949221
H125	H	-0.302214	-0.889568	1.282554
H126	H	0.031119	-0.556235	1.615888
