data_functionalizedCrystal
_audit_creation_method	'MofGen! by Chris Wilmer'
_symmetry_space_group_name_H-M	'P1'
_symmetry_Int_Tables_number	1
_symmetry_cell_setting	triclinic
loop_
_symmetry_equiv_pos_as_xyz
  x,y,z
_cell_length_a	17.038272
_cell_length_b	17.019294
_cell_length_c	16.098538
_cell_angle_alpha	88.846036
_cell_angle_beta	87.069734
_cell_angle_gamma	87.244363
loop_
_atom_site_label
_atom_site_type_symbol
_atom_site_fract_x
_atom_site_fract_y
_atom_site_fract_z
O1	O	1.041327	0.167431	-0.081157
O2	O	1.374660	0.500764	0.252176
O3	O	1.707994	0.834098	0.585510
O4	O	0.813690	0.164719	-0.080987
O5	O	1.147023	0.498053	0.252346
O6	O	1.480357	0.831386	0.585680
O7	O	0.933445	0.052057	-0.072891
O8	O	1.266778	0.385391	0.260443
O9	O	1.600111	0.718724	0.593776
O10	O	0.921573	0.280093	-0.089254
O11	O	1.254906	0.613427	0.244080
O12	O	1.588239	0.946760	0.577413
O13	O	0.926449	0.058611	0.065151
O14	O	1.259782	0.391944	0.398485
O15	O	1.593116	0.725278	0.731818
O16	O	0.806695	0.171273	0.057055
O17	O	1.140028	0.504606	0.390388
O18	O	1.473361	0.837940	0.723721
O19	O	1.034332	0.173985	0.056885
O20	O	1.367665	0.507318	0.390218
O21	O	1.700998	0.840651	0.723552
Zn22	Zn	0.919402	0.173669	0.078887
Zn23	Zn	1.252736	0.507003	0.412220
Zn24	Zn	1.586069	0.840336	0.745554
Zn25	Zn	0.928619	0.165035	-0.102989
Zn26	Zn	1.261953	0.498368	0.230344
Zn27	Zn	1.595286	0.831701	0.563677
O28	O	0.914577	0.286647	0.048788
O29	O	1.247910	0.619980	0.382122
O30	O	1.581244	0.953313	0.715455
C31	C	0.781057	0.165531	-0.011792
C32	C	1.114391	0.498864	0.321541
C33	C	1.447724	0.832197	0.654874
C34	C	0.694245	0.158175	-0.011274
C35	C	1.027578	0.491508	0.322059
C36	C	1.360911	0.824842	0.655392
C37	C	0.644318	0.225705	-0.016119
C38	C	0.977651	0.559038	0.317214
C39	C	1.310984	0.892372	0.650547
C40	C	0.562747	0.218790	-0.015612
C41	C	0.896081	0.552123	0.317722
C42	C	1.229414	0.885457	0.651055
C43	C	0.531106	0.144344	-0.010265
C44	C	0.864439	0.477677	0.323069
C45	C	1.197773	0.811010	0.656402
C46	C	0.581039	0.076809	-0.005417
C47	C	0.914372	0.410142	0.327916
C48	C	1.247706	0.743475	0.661250
C49	C	0.662607	0.083725	-0.005919
C50	C	0.995941	0.417058	0.327415
C51	C	1.329274	0.750391	0.660748
C52	C	0.285279	0.119910	-0.008489
C53	C	0.618612	0.453243	0.324844
C54	C	0.951946	0.786577	0.658177
C55	C	0.203704	0.112999	-0.007990
C56	C	0.537038	0.446332	0.325343
C57	C	0.870371	0.779665	0.658676
C58	C	0.185418	0.254981	-0.018183
C59	C	0.518751	0.588314	0.315150
C60	C	0.852085	0.921648	0.648483
C61	C	0.266989	0.261890	-0.018690
C62	C	0.600323	0.595224	0.314644
C63	C	0.933656	0.928557	0.647977
C64	C	0.316915	0.194355	-0.013838
C65	C	0.650248	0.527689	0.319496
C66	C	0.983582	0.861022	0.652829
C67	C	0.447728	0.137273	-0.009748
C68	C	0.781062	0.470607	0.323585
C69	C	1.114395	0.803940	0.656918
C70	C	0.400291	0.201427	-0.014348
C71	C	0.733624	0.534760	0.318985
C72	C	1.066957	0.868093	0.652319
C73	C	0.929359	0.026012	-0.001768
C74	C	1.262692	0.359346	0.331566
C75	C	1.596025	0.692679	0.664899
C76	C	0.927597	-0.061357	0.004496
C77	C	1.260930	0.271976	0.337829
C78	C	1.594264	0.605309	0.671162
C79	C	0.930585	-0.105972	-0.067808
C80	C	1.263918	0.227362	0.265525
C81	C	1.597251	0.560695	0.598859
C82	C	0.928924	-0.188065	-0.061920
C83	C	1.262258	0.145269	0.271413
C84	C	1.595591	0.478602	0.604746
C85	C	0.924282	-0.225542	0.016272
C86	C	1.257615	0.107791	0.349605
C87	C	1.590949	0.441125	0.682938
C88	C	0.921292	-0.180921	0.088581
C89	C	1.254625	0.152412	0.421914
C90	C	1.587959	0.485745	0.755247
C91	C	0.922947	-0.098830	0.082692
C92	C	1.256280	0.234504	0.416026
C93	C	1.589613	0.567837	0.749359
C94	C	0.919090	-0.473227	0.037815
C95	C	1.252423	-0.139893	0.371149
C96	C	1.585756	0.193440	0.704482
C97	C	0.917437	-0.555325	0.043698
C98	C	1.250771	-0.221991	0.377032
C99	C	1.584104	0.111342	0.710365
C100	C	0.925068	-0.562462	-0.106803
C101	C	1.258402	-0.229129	0.226530
C102	C	1.591735	0.104205	0.559863
C103	C	0.926727	-0.480369	-0.112685
C104	C	1.260061	-0.147035	0.220649
C105	C	1.593394	0.186298	0.553982
C106	C	0.923733	-0.435755	-0.040376
C107	C	1.257067	-0.102422	0.292957
C108	C	1.590400	0.230912	0.626291
C109	C	0.922587	-0.309454	0.022292
C110	C	1.255921	0.023879	0.355625
C111	C	1.589254	0.357213	0.688958
C112	C	0.925422	-0.351844	-0.046397
C113	C	1.258756	-0.018511	0.286937
C114	C	1.592089	0.314822	0.620270
C115	C	1.066964	0.173173	-0.012312
C116	C	1.400298	0.506507	0.321022
C117	C	1.733631	0.839840	0.654355
C118	C	1.153777	0.180529	-0.012835
C119	C	1.487111	0.513862	0.320498
C120	C	1.820444	0.847195	0.653831
C121	C	0.918663	0.312692	-0.022336
C122	C	1.251996	0.646025	0.310997
C123	C	1.585330	0.979358	0.644330
C124	C	0.920425	0.400061	-0.028605
C125	C	1.253758	0.733395	0.304728
C126	C	1.587092	1.066728	0.638062
N127	N	0.913118	0.179562	0.203013
N128	N	1.246451	0.512895	0.536346
N129	N	1.579784	0.846229	0.869679
N130	N	0.934910	0.159136	-0.227115
N131	N	1.268243	0.492470	0.106219
N132	N	1.601577	0.825803	0.439552
C133	C	0.963965	0.131763	0.250033
C134	C	1.297298	0.465097	0.583366
C135	C	1.630632	0.798430	0.916699
C136	C	0.959576	0.135893	0.336925
C137	C	1.292909	0.469227	0.670258
C138	C	1.626243	0.802560	1.003592
C139	C	0.904343	0.187827	0.376795
C140	C	1.237676	0.521160	0.710128
C141	C	1.571009	0.854494	1.043462
C142	C	0.853490	0.235628	0.329769
C143	C	1.186823	0.568961	0.663102
C144	C	1.520157	0.902294	0.996435
C145	C	0.857876	0.231493	0.242878
C146	C	1.191209	0.564826	0.576212
C147	C	1.524543	0.898160	0.909545
C148	C	0.888443	0.202802	0.638969
C149	C	1.221777	0.536136	0.972302
C150	C	1.555110	0.869469	1.305636
C151	C	0.884063	0.206935	0.725865
C152	C	1.217396	0.540268	1.059199
C153	C	1.550729	0.873602	1.392532
C154	C	0.990148	0.107199	0.733016
C155	C	1.323482	0.440532	1.066349
C156	C	1.656815	0.773866	1.399682
C157	C	0.994532	0.103072	0.646123
C158	C	1.327866	0.436406	0.979457
C159	C	1.661199	0.769739	1.312790
C160	C	0.943677	0.150870	0.599105
C161	C	1.277010	0.484204	0.932438
C162	C	1.610344	0.817537	1.265771
C163	C	0.899857	0.192052	0.465613
C164	C	1.233190	0.525385	0.798946
C165	C	1.566523	0.858718	1.132279
C166	C	0.948160	0.146641	0.510289
C167	C	1.281493	0.479974	0.843622
C168	C	1.614826	0.813308	1.176956
H169	H	0.703258	0.028734	-0.001974
H170	H	1.036591	0.362068	0.331360
H171	H	1.369925	0.695401	0.664693
F172	F	1.044267	0.056331	0.783061
F173	F	1.377600	0.389664	1.116395
F174	F	1.710934	0.722997	1.449728
H175	H	0.816470	0.270415	0.204595
H176	H	1.149803	0.603748	0.537929
H177	H	1.483136	0.937082	0.871262
F178	F	0.825273	0.262215	0.768292
F179	F	1.158607	0.595548	1.101625
F180	F	1.491940	0.928882	1.434959
F181	F	0.932105	-0.235543	-0.138876
F182	F	1.265438	0.097790	0.194457
F183	F	1.598771	0.431124	0.527790
H184	H	0.929197	-0.321326	-0.110060
H185	H	1.262530	0.012007	0.223273
H186	H	1.595863	0.345340	0.556606
H187	H	0.144760	0.309964	-0.022132
H188	H	0.478093	0.643297	0.311201
H189	H	0.811427	0.976630	0.644534
F190	F	0.794702	0.290896	0.372202
F191	F	1.128035	0.624230	0.705536
F192	F	1.461369	0.957563	1.038869
F193	F	0.931670	-0.440489	-0.195908
F194	F	1.265003	-0.107155	0.137426
F195	F	1.598337	0.226178	0.470759
H196	H	0.847036	0.241723	0.600693
H197	H	1.180369	0.575056	0.934026
H198	H	1.513703	0.908389	1.267360
F199	F	1.006938	0.091368	0.467856
F200	F	1.340272	0.424701	0.801189
F201	F	1.673605	0.758034	1.134522
F202	F	0.841075	0.247324	0.508050
F203	F	1.174409	0.580658	0.841383
F204	F	1.507742	0.913991	1.174717
H205	H	0.670073	0.286327	-0.020474
H206	H	1.003407	0.619661	0.312859
H207	H	1.336740	0.952994	0.646193
H208	H	0.426057	0.262041	-0.018697
H209	H	0.759390	0.595374	0.314636
H210	H	1.092723	0.928708	0.647970
H211	H	0.918810	-0.339977	0.085956
H212	H	1.252143	-0.006644	0.419289
H213	H	1.585477	0.326689	0.752623
H214	H	0.522100	0.273780	-0.019558
H215	H	0.855433	0.607114	0.313775
H216	H	1.188766	0.940447	0.647109
F217	F	1.013692	0.085020	0.386968
F218	F	1.347026	0.418353	0.720301
F219	F	1.680359	0.751686	1.053634
H220	H	0.177946	0.052373	-0.003637
H221	H	0.511279	0.385706	0.329696
H222	H	0.844612	0.719039	0.663030
F223	F	0.338404	0.048032	-0.003325
F224	F	0.671737	0.381366	0.330008
F225	F	1.005070	0.714699	0.663342
F226	F	0.300658	0.341126	-0.024385
F227	F	0.633992	0.674459	0.308948
F228	F	0.967325	1.007793	0.642282
F229	F	1.053318	0.047800	0.603692
F230	F	1.386651	0.381133	0.937025
F231	F	1.719985	0.714467	1.270358
F232	F	1.022756	0.076492	0.207608
F233	F	1.356089	0.409825	0.540942
F234	F	1.689423	0.743158	0.874275
F235	F	0.915893	-0.425755	0.114774
F236	F	1.249226	-0.092422	0.448107
F237	F	1.582559	0.240911	0.781441
H238	H	0.555270	0.016193	-0.001051
H239	H	0.888603	0.349526	0.332282
H240	H	1.221936	0.682860	0.665615
F241	F	0.414046	0.058044	-0.004061
F242	F	0.747379	0.391377	0.329272
F243	F	1.080713	0.724710	0.662606
H244	H	0.927504	-0.598795	-0.165673
H245	H	1.260838	-0.265461	0.167660
H246	H	1.594171	0.067872	0.500994
F247	F	0.935531	-0.066093	-0.151031
F248	F	1.268864	0.267240	0.182302
F249	F	1.602198	0.600573	0.515635
H250	H	0.913653	-0.585836	0.107375
H251	H	1.246986	-0.252502	0.440708
H252	H	1.580320	0.080831	0.774042
H253	H	0.917507	-0.211442	0.152246
H254	H	1.250841	0.121892	0.485580
H255	H	1.584174	0.455225	0.818913
H256	H	0.920503	-0.062505	0.141570
H257	H	1.253836	0.270828	0.474903
H258	H	1.587170	0.604162	0.808236
