data_functionalizedCrystal
_audit_creation_method	'MofGen! by Chris Wilmer'
_symmetry_space_group_name_H-M	'P1'
_symmetry_Int_Tables_number	1
_symmetry_cell_setting	triclinic
loop_
_symmetry_equiv_pos_as_xyz
  x,y,z
_cell_length_a	19.077105
_cell_length_b	19.077600
_cell_length_c	19.076919
_cell_angle_alpha	94.656929
_cell_angle_beta	89.923776
_cell_angle_gamma	94.467655
loop_
_atom_site_label
_atom_site_type_symbol
_atom_site_fract_x
_atom_site_fract_y
_atom_site_fract_z
Zn1	Zn	1.071340	0.341570	0.454658
Zn2	Zn	1.404673	0.674904	0.787991
Zn3	Zn	1.738007	1.008237	1.121324
Zn4	Zn	1.080323	0.455092	0.341884
Zn5	Zn	1.413657	0.788426	0.675217
Zn6	Zn	1.746990	1.121759	1.008550
Zn7	Zn	0.958196	0.332112	0.332057
Zn8	Zn	1.291529	0.665446	0.665390
Zn9	Zn	1.624862	0.998779	0.998723
Zn10	Zn	0.958129	0.454667	0.454618
Zn11	Zn	1.291462	0.788000	0.787952
Zn12	Zn	1.624796	1.121333	1.121285
O13	O	1.016997	0.395860	0.395804
O14	O	1.350330	0.729194	0.729137
O15	O	1.683664	1.062527	1.062471
O16	O	1.171022	0.360766	0.443827
O17	O	1.504355	0.694099	0.777160
O18	O	1.837688	1.027432	1.110494
O19	O	1.067911	0.434999	0.242091
O20	O	1.401244	0.768332	0.575424
O21	O	1.734577	1.101665	0.908758
O22	O	0.969473	0.234568	0.344224
O23	O	1.302806	0.567901	0.677557
O24	O	1.636140	0.901235	1.010891
O25	O	1.177622	0.444170	0.360972
O26	O	1.510955	0.777503	0.694306
O27	O	1.844288	1.110837	1.027639
O28	O	1.052599	0.241517	0.434298
O29	O	1.385933	0.574850	0.767632
O30	O	1.719266	0.908184	1.100965
O31	O	0.978184	0.344646	0.234871
O32	O	1.311517	0.677979	0.568205
O33	O	1.644851	1.011312	0.901538
O34	O	0.859697	0.344233	0.344186
O35	O	1.193030	0.677566	0.677519
O36	O	1.526363	1.010899	1.010852
O37	O	0.969359	0.443444	0.553112
O38	O	1.302692	0.776778	0.886446
O39	O	1.636026	1.110111	1.219779
O40	O	0.859648	0.434273	0.434231
O41	O	1.192981	0.767606	0.767565
O42	O	1.526314	1.100940	1.100898
O43	O	1.052534	0.360353	0.553141
O44	O	1.385868	0.693686	0.886475
O45	O	1.719201	1.027020	1.219808
O46	O	1.067846	0.553835	0.360934
O47	O	1.401179	0.887168	0.694268
O48	O	1.734512	1.220501	1.027601
O49	O	0.978070	0.553522	0.443760
O50	O	1.311403	0.886855	0.777093
O51	O	1.644737	1.220188	1.110427
C52	C	0.834135	0.388181	0.388138
C53	C	1.167468	0.721514	0.721472
C54	C	1.500802	1.054848	1.054805
C55	C	0.755906	0.384913	0.384876
C56	C	1.089239	0.718247	0.718210
C57	C	1.422572	1.051580	1.051543
C58	C	0.719152	0.430322	0.430158
C59	C	1.052485	0.763656	0.763491
C60	C	1.385818	1.096989	1.096825
C61	C	0.645646	0.427243	0.427096
C62	C	0.978980	0.760576	0.760429
C63	C	1.312313	1.093910	1.093763
C64	C	0.608897	0.378757	0.378748
C65	C	0.942230	0.712090	0.712082
C66	C	1.275564	1.045424	1.045415
C67	C	0.645656	0.333343	0.333465
C68	C	0.978989	0.666676	0.666798
C69	C	1.312323	1.000010	1.000132
C70	C	0.719160	0.336420	0.336531
C71	C	1.052493	0.669753	0.669864
C72	C	1.385826	1.003086	1.003198
C73	C	0.389065	0.364518	0.364562
C74	C	0.722398	0.697852	0.697896
C75	C	1.055732	1.031185	1.031229
C76	C	0.315556	0.361447	0.361498
C77	C	0.648890	0.694780	0.694832
C78	C	0.982223	1.028113	1.028165
C79	C	0.315552	0.455346	0.455130
C80	C	0.648885	0.788679	0.788464
C81	C	0.982218	1.122013	1.121797
C82	C	0.389057	0.458421	0.458189
C83	C	0.722390	0.791755	0.791522
C84	C	1.055724	1.125088	1.124856
C85	C	0.425809	0.413005	0.412908
C86	C	0.759143	0.746338	0.746242
C87	C	1.092476	1.079671	1.079575
N88	N	0.533763	0.375610	0.375616
N89	N	0.867096	0.708943	0.708949
N90	N	1.200430	1.042276	1.042283
N91	N	0.500942	0.416149	0.416045
N92	N	0.834275	0.749483	0.749378
N93	N	1.167608	1.082816	1.082711
C94	C	1.023944	0.579297	0.403425
C95	C	1.357277	0.912630	0.736759
C96	C	1.690611	1.245964	1.070092
C97	C	1.026979	0.657776	0.406712
C98	C	1.360313	0.991109	0.740045
C99	C	1.693646	1.324442	1.073379
C100	C	1.048763	1.099911	0.430267
C101	C	1.382096	1.433244	0.763600
C102	C	1.715430	1.766578	1.096934
C103	C	1.045903	1.026172	0.427172
C104	C	1.379237	1.359505	0.760506
C105	C	1.712570	1.692838	1.093839
C106	C	1.001231	0.985751	0.378700
C107	C	1.334564	1.319084	0.712033
C108	C	1.667898	1.652417	1.045366
C109	C	0.959421	1.019073	0.333314
C110	C	1.292754	1.352406	0.666647
C111	C	1.626088	1.685740	0.999980
C112	C	0.962285	1.092811	0.336405
C113	C	1.295618	1.426144	0.669739
C114	C	1.628951	1.759478	1.003072
C115	C	0.988033	0.764836	0.364418
C116	C	1.321366	1.098169	0.697751
C117	C	1.654700	1.431503	1.031084
C118	C	0.985171	0.691093	0.361331
C119	C	1.318504	1.024426	0.694664
C120	C	1.651837	1.357759	1.027997
C121	C	1.071655	0.698197	0.455189
C122	C	1.404988	1.031530	0.788523
C123	C	1.738321	1.364863	1.121856
C124	C	1.074511	0.771936	0.458280
C125	C	1.407845	1.105269	0.791613
C126	C	1.741178	1.438603	1.124946
C127	C	1.032704	0.805252	0.412891
C128	C	1.366037	1.138585	0.746224
C129	C	1.699371	1.471918	1.079558
N130	N	0.998305	0.910377	0.375537
N131	N	1.331639	1.243710	0.708870
N132	N	1.664972	1.577044	1.042203
N133	N	1.035634	0.880624	0.416051
N134	N	1.368967	1.213957	0.749384
N135	N	1.702300	1.547291	1.082718
C136	C	1.200573	0.403570	0.403500
C137	C	1.533906	0.736904	0.736833
C138	C	1.867240	1.070237	1.070167
C139	C	1.278802	0.406856	0.406780
C140	C	1.612136	0.740189	0.740113
C141	C	1.945469	1.073523	1.073446
C142	C	1.010011	1.211707	0.388162
C143	C	1.343344	1.545041	0.721495
C144	C	1.676677	1.878374	1.054828
C145	C	1.006954	1.133228	0.384886
C146	C	1.340288	1.466562	0.718219
C147	C	1.673621	1.799895	1.051553
C148	C	1.009937	0.402906	0.579378
C149	C	1.343270	0.736239	0.912711
C150	C	1.676604	1.069573	1.246045
C151	C	1.006929	0.405909	0.657606
C152	C	1.340262	0.739242	0.990940
C153	C	1.673595	1.072575	1.324273
C154	C	1.024068	0.388793	0.212944
C155	C	1.357401	0.722126	0.546277
C156	C	1.690735	1.055459	0.879611
C157	C	1.027205	0.385597	0.134713
C158	C	1.360538	0.718930	0.468047
C159	C	1.693872	1.052264	0.801380
C160	C	1.048818	0.364060	0.694374
C161	C	1.382151	0.697393	1.027708
C162	C	1.715485	1.030727	1.361041
C163	C	1.045983	0.366878	0.767878
C164	C	1.379316	0.700211	1.101211
C165	C	1.712649	1.033545	1.434544
C166	C	1.001261	0.411549	0.804612
C167	C	1.334594	0.744882	1.137945
C168	C	1.667928	1.078216	1.471278
C169	C	0.959367	0.453399	0.767839
C170	C	1.292700	0.786733	1.101172
C171	C	1.626033	1.120066	1.434505
C172	C	0.962199	0.450577	0.694336
C173	C	1.295532	0.783910	1.027670
C174	C	1.628866	1.117244	1.361003
C175	C	0.988143	0.424625	1.024438
C176	C	1.321477	0.757958	1.357771
C177	C	1.654810	1.091292	1.691105
C178	C	0.985316	0.427446	1.097946
C179	C	1.318649	0.760779	1.431279
C180	C	1.651982	1.094112	1.764612
C181	C	1.071931	0.340923	1.097979
C182	C	1.405264	0.674257	1.431313
C183	C	1.738598	1.007590	1.764646
C184	C	1.074762	0.338108	1.024476
C185	C	1.408096	0.671441	1.357809
C186	C	1.741429	1.004775	1.691143
C187	C	1.032866	0.379956	0.987709
C188	C	1.366199	0.713289	1.321042
C189	C	1.699532	1.046622	1.654376
N190	N	0.998363	0.414432	0.879744
N191	N	1.331696	0.747766	1.213077
N192	N	1.665030	1.081099	1.546411
N193	N	1.035760	0.377068	0.912578
N194	N	1.369093	0.710401	1.245911
N195	N	1.702427	1.043735	1.579244
H196	H	0.418980	0.327542	0.327686
H197	H	0.752314	0.660875	0.661019
H198	H	1.085647	0.994209	0.994353
Cl199	Cl	0.269345	0.512438	0.512050
Cl200	Cl	0.602678	0.845772	0.845384
Cl201	Cl	0.936011	1.179105	1.178717
Cl202	Cl	0.269358	0.300493	0.300709
Cl203	Cl	0.602692	0.633827	0.634042
Cl204	Cl	0.936025	0.967160	0.967376
H205	H	0.418973	0.497905	0.497557
H206	H	0.752307	0.831239	0.830891
H207	H	1.085640	1.164572	1.164224
H208	H	0.749068	0.469807	0.469525
H209	H	1.082401	0.803141	0.802859
H210	H	1.415735	1.136474	1.136192
Cl211	Cl	0.599456	0.272384	0.272689
Cl212	Cl	0.932790	0.605718	0.606023
Cl213	Cl	1.266123	0.939051	0.939356
Cl214	Cl	1.130661	0.822746	0.519231
Cl215	Cl	1.463994	1.156079	0.852564
Cl216	Cl	1.797328	1.489412	1.185897
H217	H	0.953990	0.791952	0.327459
H218	H	1.287323	1.125286	0.660793
H219	H	1.620657	1.458619	0.994126
Cl220	Cl	1.105046	0.307903	0.648202
Cl221	Cl	1.438380	0.641236	0.981535
Cl222	Cl	1.771713	0.974570	1.314868
H223	H	0.749084	0.299439	0.299661
H224	H	1.082417	0.632772	0.632995
H225	H	1.415750	0.966106	0.966328
H226	H	0.948790	0.658185	0.321856
H227	H	1.282124	0.991518	0.655189
H228	H	1.615457	1.324851	0.988523
Cl229	Cl	1.130987	0.281948	0.978301
Cl230	Cl	1.464320	0.615282	1.311634
Cl231	Cl	1.797653	0.948615	1.644968
H232	H	1.085133	1.132817	0.469746
H233	H	1.418466	1.466150	0.803079
H234	H	1.751800	1.799484	1.136412
Cl235	Cl	1.098679	0.314298	0.814100
Cl236	Cl	1.432012	0.647632	1.147433
Cl237	Cl	1.765345	0.980965	1.480766
H238	H	1.079948	0.999045	0.464125
H239	H	1.413281	1.332379	0.797458
H240	H	1.746614	1.665712	1.130792
Cl241	Cl	1.124210	0.656310	0.512244
Cl242	Cl	1.457543	0.989643	0.845578
Cl243	Cl	1.790877	1.322976	1.178911
H244	H	0.923050	0.986158	0.293842
H245	H	1.256384	1.319491	0.627176
H246	H	1.589717	1.652824	0.960509
Cl247	Cl	1.124595	0.288316	1.144205
Cl248	Cl	1.457928	0.621649	1.477538
Cl249	Cl	1.791262	0.954983	1.810871
H250	H	0.928240	1.119937	0.299451
H251	H	1.261573	1.453270	0.632784
H252	H	1.594906	1.786603	0.966118
H253	H	0.922951	0.489769	0.797753
H254	H	1.256284	0.823102	1.131087
H255	H	1.589617	1.156435	1.464420
Cl256	Cl	0.929086	0.483604	1.144125
Cl257	Cl	1.262419	0.816937	1.477458
Cl258	Cl	1.595752	1.150270	1.810791
Cl259	Cl	0.935473	0.477234	0.978226
Cl260	Cl	1.268806	0.810568	1.311560
Cl261	Cl	1.602140	1.143901	1.644893
Cl262	Cl	0.909533	0.503187	0.648113
Cl263	Cl	1.242867	0.836520	0.981447
Cl264	Cl	1.576200	1.169853	1.314780
H265	H	0.615725	0.464221	0.463968
H266	H	0.949058	0.797554	0.797302
H267	H	1.282391	1.130887	1.130635
