data_functionalizedCrystal
_audit_creation_method	'MofGen! by Chris Wilmer'
_symmetry_space_group_name_H-M	'P1'
_symmetry_Int_Tables_number	1
_symmetry_cell_setting	triclinic
loop_
_symmetry_equiv_pos_as_xyz
  x,y,z
_cell_length_a	14.519731
_cell_length_b	10.540510
_cell_length_c	13.596369
_cell_angle_alpha	89.996501
_cell_angle_beta	89.994584
_cell_angle_gamma	84.101082
loop_
_atom_site_label
_atom_site_type_symbol
_atom_site_fract_x
_atom_site_fract_y
_atom_site_fract_z
O1	O	1.224741	0.166531	-0.081788
O2	O	0.956370	0.186098	-0.081789
O3	O	1.096693	-0.008456	-0.081788
O4	O	1.084418	0.361086	-0.081789
O5	O	1.096678	-0.008467	0.081795
O6	O	0.956356	0.186088	0.081794
O7	O	1.224727	0.166521	0.081795
Zn8	Zn	1.090539	0.176303	0.107767
Zn9	Zn	1.090558	0.176316	-0.107761
O10	O	1.084404	0.361075	0.081794
C11	C	0.921999	0.185176	0.000002
C12	C	0.819604	0.182429	0.000002
C13	C	0.736448	0.180197	-0.000002
C14	C	0.632125	0.177407	-0.000002
C15	C	0.548974	0.175193	-0.000002
C16	C	0.444644	0.172404	-0.000005
C17	C	1.095771	-0.055756	0.000001
C18	C	1.093034	-0.196678	-0.000005
C19	C	1.190516	-0.415118	0.000370
C20	C	1.193435	-0.268552	-0.000003
C21	C	1.041647	-0.240912	-0.093417
C22	C	1.039439	-0.387650	-0.093490
C23	C	1.037332	-0.387449	0.092535
C24	C	1.042094	-0.241156	0.093764
C25	C	1.259098	0.167443	0.000001
C26	C	1.361493	0.170190	-0.000004
C27	C	1.085326	0.408375	0.000002
C28	C	1.088063	0.549297	0.000002
N29	N	1.090533	0.176293	0.254859
N30	N	1.090571	0.176316	-0.254853
C31	C	1.090557	0.176318	0.656150
C32	C	1.090547	0.176315	0.544498
C33	C	1.090545	0.176306	0.455508
C34	C	1.090535	0.176301	0.343849
H35	H	1.233642	-0.239619	0.066957
C36	C	0.929921	-0.104560	-0.184888
C37	C	0.941871	-0.175920	-0.098122
H38	H	0.868323	-0.064440	-0.187792
H39	H	0.972134	-0.041447	-0.185747
H40	H	0.941188	-0.159405	-0.239969
H41	H	0.930611	-0.121073	-0.043041
H42	H	0.899645	-0.239040	-0.097254
C43	C	1.120487	-0.307815	-0.242766
C44	C	1.089835	-0.199753	-0.187269
H45	H	1.150233	-0.282404	-0.300707
H46	H	1.162965	-0.362366	-0.204976
H47	H	1.069044	-0.351949	-0.260266
H48	H	1.141278	-0.155624	-0.169763
H49	H	1.047354	-0.145180	-0.225067
H50	H	1.229625	-0.457473	0.067361
C51	C	1.334164	-0.441972	-0.088391
C52	C	1.243028	-0.474355	-0.089556
H53	H	1.366580	-0.478549	-0.143907
H54	H	1.333667	-0.351838	-0.090589
H55	H	1.364057	-0.473590	-0.029891
H56	H	1.213132	-0.442728	-0.148053
H57	H	1.243521	-0.564508	-0.087367
C58	C	0.925453	-0.489065	-0.184132
C59	C	0.938074	-0.417691	-0.099228
H60	H	0.862877	-0.507615	-0.187675
H61	H	0.939771	-0.441510	-0.240450
H62	H	0.965142	-0.566489	-0.181842
H63	H	0.898389	-0.340262	-0.101522
H64	H	0.923745	-0.465247	-0.042896
C65	C	1.012448	-0.500668	0.241867
C66	C	1.080158	-0.445176	0.188121
H67	H	1.038897	-0.536313	0.300871
H68	H	0.963227	-0.437425	0.257462
H69	H	0.989313	-0.565916	0.203722
H70	H	1.103288	-0.379920	0.226264
H71	H	1.129396	-0.508425	0.172529
H72	H	1.079486	-0.212927	0.162870
C73	C	0.879553	-0.265197	0.100224
C74	C	0.943137	-0.173928	0.101380
H75	H	0.818460	-0.223690	0.104925
H76	H	0.885881	-0.312257	0.040609
H77	H	0.891188	-0.321530	0.154368
H78	H	0.931506	-0.117600	0.047231
H79	H	0.936806	-0.126846	0.161002
H80	H	1.074569	-0.428216	-0.163316
H81	H	1.233887	-0.240551	-0.067080
H82	H	0.961951	-0.408838	0.093164
