data_functionalizedCrystal
_audit_creation_method	'MofGen! by Chris Wilmer'
_symmetry_space_group_name_H-M	'P1'
_symmetry_Int_Tables_number	1
_symmetry_cell_setting	triclinic
loop_
_symmetry_equiv_pos_as_xyz
  x,y,z
_cell_length_a	10.654562
_cell_length_b	14.853567
_cell_length_c	9.730223
_cell_angle_alpha	90.002458
_cell_angle_beta	89.996961
_cell_angle_gamma	84.062517
loop_
_atom_site_label
_atom_site_type_symbol
_atom_site_fract_x
_atom_site_fract_y
_atom_site_fract_z
O1	O	1.666509	0.126677	-0.114368
O2	O	1.300907	0.138729	-0.114349
O3	O	1.493474	0.001525	-0.114363
O4	O	1.473942	0.263880	-0.114354
O5	O	1.493471	0.001529	0.114217
O6	O	1.300905	0.138732	0.114231
O7	O	1.666506	0.126680	0.114212
Zn8	Zn	1.483705	0.132707	0.150514
Zn9	Zn	1.483708	0.132702	-0.150650
O10	O	1.473940	0.263883	0.114226
C11	C	1.254117	0.137843	-0.000057
C12	C	1.114703	0.135188	-0.000051
C13	C	1.049183	0.133952	0.124537
C14	C	0.918187	0.131465	0.124514
C15	C	0.918240	0.131454	-0.124696
C16	C	1.049235	0.133935	-0.124671
C17	C	1.114651	0.135205	0.249158
C18	C	1.049132	0.133970	0.373757
C19	C	0.918135	0.131483	0.373734
C20	C	0.852658	0.130231	0.249112
C21	C	1.492588	-0.032066	-0.000077
C22	C	1.489936	-0.132164	-0.000089
C23	C	1.364336	-0.545375	-0.000056
C24	C	1.593110	-0.565423	-0.000068
C25	C	1.595603	-0.471376	-0.000076
C26	C	1.482462	-0.414324	-0.000072
C27	C	1.366826	-0.451318	-0.000060
C28	C	1.711237	-0.434374	-0.000074
C29	C	1.713735	-0.340322	-0.000081
C30	C	1.600592	-0.283267	-0.000087
C31	C	1.484952	-0.320268	-0.000077
C32	C	1.371810	-0.263215	-0.000073
C33	C	1.256169	-0.300213	-0.000072
C34	C	1.253683	-0.394264	-0.000067
C35	C	1.603077	-0.189217	-0.000093
C36	C	1.374300	-0.169159	-0.000077
C37	C	1.713296	0.127566	-0.000083
C38	C	1.852711	0.130220	-0.000098
C39	C	1.474826	0.297475	-0.000063
C40	C	1.477478	0.397573	-0.000060
N41	N	1.483712	0.132709	0.356050
N42	N	1.483711	0.132692	-0.356187
C43	C	1.569003	0.071976	0.427970
C44	C	1.568999	0.071965	0.571853
C45	C	1.398412	0.193428	0.571883
C46	C	1.398410	0.193434	0.428003
C47	C	1.654305	0.011252	0.356017
C48	C	1.739603	-0.049485	0.427937
C49	C	1.739600	-0.049496	0.571820
C50	C	1.654299	0.011230	0.643783
H51	H	0.864794	0.130470	0.475187
H52	H	1.328964	0.242870	0.630485
O53	O	1.715426	-0.153317	-0.000340
C54	C	1.784424	-0.182426	-0.118704
H55	H	1.716816	-0.202424	-0.201442
H56	H	1.854304	-0.243266	-0.091932
C57	C	1.939764	-0.080462	-0.070775
C58	C	1.856724	-0.105017	-0.172400
H59	H	1.984367	-0.032715	-0.103896
H60	H	1.893282	-0.060853	0.008972
H61	H	1.997985	-0.131169	-0.048474
H62	H	1.798495	-0.054314	-0.194687
H63	H	1.903199	-0.124616	-0.252153
H64	H	0.745993	0.128203	0.249104
O65	O	1.315518	0.252519	0.358344
C66	C	1.240216	0.306106	0.452701
H67	H	1.291699	0.307469	0.555263
H68	H	1.146881	0.276205	0.468002
C69	C	1.151261	0.401516	0.270588
C70	C	1.214499	0.403197	0.396554
H71	H	1.135392	0.461406	0.235953
H72	H	1.201990	0.365412	0.207017
H73	H	1.073489	0.376595	0.283356
H74	H	1.292275	0.428108	0.383781
H75	H	1.163782	0.439308	0.460122
H76	H	1.654318	0.011257	0.238860
O77	O	0.854551	0.130406	-0.245708
C78	C	0.764691	0.206903	-0.253154
H79	H	0.794325	0.262127	-0.182436
H80	H	0.668587	0.187404	-0.219692
C81	C	0.719926	0.174380	-0.488874
C82	C	0.756329	0.242210	-0.402026
H83	H	0.714762	0.196158	-0.580705
H84	H	0.780462	0.122841	-0.483857
H85	H	0.639842	0.158137	-0.460972
H86	H	0.836417	0.258444	-0.429917
H87	H	0.695805	0.293753	-0.407051
O88	O	1.822263	-0.108543	0.357914
C89	C	1.754884	-0.164622	0.274740
H90	H	1.656701	-0.129346	0.253168
H91	H	1.746191	-0.231292	0.330221
C92	C	1.946246	-0.226799	0.164571
C93	C	1.825659	-0.183469	0.138067
H94	H	1.989905	-0.238428	0.080268
H95	H	1.991642	-0.189020	0.220611
H96	H	1.938985	-0.282352	0.210809
H97	H	1.832922	-0.127912	0.091846
H98	H	1.780266	-0.221239	0.082017
H99	H	1.102581	0.134946	-0.226122
O100	O	1.703090	-0.620749	-0.000255
C101	C	1.773270	-0.603894	-0.118665
H102	H	1.742559	-0.532758	-0.158137
H103	H	1.756004	-0.655442	-0.201554
C104	C	1.952462	-0.699314	-0.034239
C105	C	1.914749	-0.611940	-0.082713
H106	H	2.039734	-0.704281	-0.012066
H107	H	1.905180	-0.710673	0.045534
H108	H	1.938063	-0.742261	-0.103322
H109	H	1.929134	-0.568996	-0.013624
H110	H	1.962037	-0.600574	-0.162474
O111	O	1.264474	-0.113649	0.000108
C112	C	1.259046	-0.058659	0.118510
H113	H	1.358731	-0.053273	0.157980
H114	H	1.201634	-0.089957	0.201405
C115	C	1.073580	0.029794	0.034073
C116	C	1.196015	0.036417	0.082544
H117	H	1.034695	0.088441	0.011892
H118	H	1.077233	-0.007255	-0.045694
H119	H	1.025752	0.003709	0.103161
H120	H	1.243845	0.062491	0.013451
H121	H	1.192368	0.073473	0.162300
O122	O	1.821215	-0.489703	-0.000261
C123	C	1.891403	-0.472843	-0.118663
H124	H	1.860700	-0.401703	-0.158126
H125	H	1.874136	-0.524384	-0.201563
C126	C	2.070583	-0.568277	-0.034240
C127	C	2.032880	-0.480898	-0.082701
H128	H	2.157853	-0.573249	-0.012061
H129	H	2.023295	-0.579639	0.045528
H130	H	2.056183	-0.611218	-0.103331
H131	H	2.047265	-0.437960	-0.013605
H132	H	2.080174	-0.469529	-0.162457
H133	H	1.164049	-0.253749	-0.000060
O134	O	1.822570	-0.108529	0.641472
C135	C	1.897831	-0.162137	0.547105
H136	H	1.899307	-0.125156	0.444551
H137	H	1.856951	-0.229386	0.531789
C138	C	2.031456	-0.225229	0.729207
C139	C	2.033278	-0.179805	0.603251
H140	H	2.115004	-0.236132	0.763841
H141	H	1.980749	-0.189115	0.792785
H142	H	1.997383	-0.281265	0.716426
H143	H	2.067334	-0.123766	0.616037
H144	H	2.083994	-0.215911	0.539676
H145	H	1.221314	0.137233	0.249191
H146	H	1.159534	-0.424397	-0.000065
H147	H	1.270184	-0.575503	-0.000061
H148	H	1.102453	0.134982	0.475218
H149	H	1.807897	-0.310206	-0.000083
H150	H	1.654295	0.011210	0.760942
