data_functionalizedCrystal
_audit_creation_method	'MofGen! by Chris Wilmer'
_symmetry_space_group_name_H-M	'P1'
_symmetry_Int_Tables_number	1
_symmetry_cell_setting	triclinic
loop_
_symmetry_equiv_pos_as_xyz
  x,y,z
_cell_length_a	15.944551
_cell_length_b	10.654541
_cell_length_c	9.730217
_cell_angle_alpha	89.999538
_cell_angle_beta	90.003081
_cell_angle_gamma	83.991333
loop_
_atom_site_label
_atom_site_type_symbol
_atom_site_fract_x
_atom_site_fract_y
_atom_site_fract_z
O1	O	1.115457	0.161964	-0.114138
O2	O	1.615457	0.661964	0.385862
O3	O	0.871023	0.181933	-0.114171
O4	O	1.371023	0.681933	0.385829
O5	O	0.998861	-0.010863	-0.114154
O6	O	1.498861	0.489137	0.385846
O7	O	0.987619	0.354761	-0.114155
O8	O	1.487619	0.854761	0.385845
O9	O	0.998857	-0.010865	0.114426
O10	O	1.498857	0.489135	0.614426
O11	O	0.871019	0.181931	0.114409
O12	O	1.371019	0.681931	0.614409
O13	O	1.115453	0.161963	0.114442
O14	O	1.615453	0.661963	0.614442
Zn15	Zn	0.993235	0.171947	0.150718
Zn16	Zn	1.493235	0.671947	0.650718
Zn17	Zn	0.993241	0.171949	-0.150446
Zn18	Zn	1.493241	0.671949	0.349554
O19	O	0.987615	0.354759	0.114425
O20	O	1.487615	0.854759	0.614425
C21	C	0.839722	0.181103	0.000115
C22	C	1.339722	0.681103	0.500115
C23	C	0.746462	0.178618	0.000102
C24	C	1.246462	0.678618	0.500102
C25	C	0.988442	0.401548	0.000136
C26	C	1.488442	0.901548	0.500136
C27	C	0.990910	0.540959	0.000136
C28	C	1.490910	1.040959	0.500136
C29	C	0.998034	-0.057652	0.000132
C30	C	1.498034	0.442348	0.500132
C31	C	0.995566	-0.197063	0.000123
C32	C	1.495566	0.302937	0.500123
C33	C	0.530880	0.053173	0.000128
C34	C	1.030880	0.553173	0.500128
C35	C	0.470198	0.111426	-0.112574
C36	C	0.970198	0.611426	0.387426
C37	C	0.575710	0.174122	0.000118
C38	C	1.075710	0.674122	0.500118
C39	C	0.470217	0.111453	0.112788
C40	C	0.970217	0.611453	0.612788
C41	C	0.410772	0.169770	0.000140
C42	C	0.910772	0.669770	0.500140
C43	C	0.516257	0.232408	-0.112677
C44	C	1.016257	0.732408	0.387323
C45	C	0.516282	0.232418	0.112786
C46	C	1.016282	0.732418	0.612786
C47	C	0.455618	0.290760	0.000056
C48	C	0.955618	0.790760	0.500056
C49	C	0.670727	0.176625	0.000104
C50	C	1.170727	0.676625	0.500104
C51	C	0.315756	0.167276	0.000143
C52	C	0.815756	0.667276	0.500143
C53	C	1.146754	0.162793	0.000153
C54	C	1.646754	0.662793	0.500153
C55	C	1.240014	0.165278	0.000157
C56	C	1.740014	0.665278	0.500157
N57	N	0.993238	0.171944	0.356254
N58	N	1.493238	0.671944	0.856254
C59	C	0.838045	0.570908	0.000132
C60	C	1.338045	1.070908	0.500132
C61	C	0.762776	0.651376	0.000135
C62	C	1.262776	1.151376	0.500135
C63	C	0.765100	0.782364	0.000136
C64	C	1.265100	1.282364	0.500136
C65	C	0.842702	0.832885	0.000129
C66	C	1.342702	1.332885	0.500129
C67	C	0.917972	0.752417	0.000126
C68	C	1.417972	1.252417	0.500126
C69	C	0.915639	0.621428	0.000129
C70	C	1.415639	1.121428	0.500129
C71	C	1.070835	0.722469	0.000120
C72	C	1.570835	1.222469	0.500120
C73	C	1.068513	0.591480	0.000129
C74	C	1.568513	1.091480	0.500129
C75	C	1.148437	0.772990	0.000113
C76	C	1.648437	1.272990	0.500113
C77	C	1.223709	0.692521	0.000120
C78	C	1.723709	1.192521	0.500120
C79	C	1.221381	0.561526	0.000121
C80	C	1.721381	1.061526	0.500121
C81	C	1.143782	0.511012	0.000126
C82	C	1.643782	1.011012	0.500126
N83	N	0.993245	0.171941	-0.355983
N84	N	1.493245	0.671941	0.144017
C85	C	1.106485	0.001272	0.356260
C86	C	1.606485	0.501272	0.856260
C87	C	1.163115	-0.084060	0.428202
C88	C	1.663115	0.415940	0.928202
C89	C	1.163123	-0.084061	0.572082
C90	C	1.663123	0.415939	1.072082
C91	C	1.106495	0.001277	0.644022
C92	C	1.606495	0.501277	1.144022
C93	C	1.049865	0.086610	0.572080
C94	C	1.549865	0.586610	1.072080
C95	C	1.049865	0.086604	0.428197
C96	C	1.549865	0.586604	0.928197
C97	C	0.936615	0.257274	0.572074
C98	C	1.436615	0.757274	1.072074
C99	C	0.936609	0.257283	0.428195
C100	C	1.436609	0.757283	0.928195
C101	C	0.879987	0.342612	0.644015
C102	C	1.379987	0.842612	1.144015
C103	C	0.823360	0.427953	0.572072
C104	C	1.323360	0.927953	1.072072
C105	C	0.823355	0.427951	0.428184
C106	C	1.323355	0.927951	0.928184
C107	C	0.879980	0.342615	0.356252
C108	C	1.379980	0.842615	0.856252
H109	H	0.563632	-0.047204	-0.000011
H110	H	1.063632	0.452796	0.499989
H111	H	0.449794	0.060271	-0.207855
H112	H	0.949794	0.560271	0.292145
Cl113	Cl	0.670475	0.883528	0.000131
Cl114	Cl	1.170475	1.383528	0.500131
Cl115	Cl	1.106491	0.001280	0.175381
Cl116	Cl	1.606491	0.501280	0.675381
Cl117	Cl	1.151360	0.937661	0.000101
Cl118	Cl	1.651360	1.437661	0.500101
Cl119	Cl	1.234311	-0.191344	0.662526
Cl120	Cl	1.734311	0.308656	1.162526
Cl121	Cl	1.140849	0.346342	0.000135
Cl122	Cl	1.640849	0.846342	0.500135
Cl123	Cl	0.835117	0.406237	0.000158
Cl124	Cl	1.335117	0.906237	0.500158
Cl125	Cl	0.752173	0.535217	0.662515
Cl126	Cl	1.252173	1.035217	1.162515
H127	H	0.777237	0.497435	0.369616
H128	H	1.277237	0.997435	0.869616
H129	H	1.282675	0.496015	0.000108
H130	H	1.782675	0.996015	0.500108
H131	H	0.536542	0.283527	-0.208062
H132	H	1.036542	0.783527	0.291938
H133	H	0.423041	0.391241	-0.000007
H134	H	0.923041	0.891241	0.499993
H135	H	1.209220	-0.153545	0.369616
H136	H	1.709220	0.346455	0.869616
H137	H	0.536707	0.283532	0.208072
H138	H	1.036707	0.783532	0.708072
H139	H	0.449833	0.060274	0.208066
H140	H	0.949833	0.560274	0.708066
Cl141	Cl	0.665224	0.587858	0.000129
Cl142	Cl	1.165224	1.087858	0.500129
Cl143	Cl	0.845622	0.997557	0.000101
Cl144	Cl	1.345622	1.497557	0.500101
Cl145	Cl	1.106495	0.001260	0.824901
Cl146	Cl	1.606495	0.501260	1.324901
H147	H	0.879993	0.342603	0.761169
H148	H	1.379993	0.842603	1.261169
H149	H	1.286886	0.733667	0.000095
H150	H	1.786886	1.233667	0.500095
Cl151	Cl	0.879982	0.342610	0.175373
Cl152	Cl	1.379982	0.842610	0.675373
