data_functionalizedCrystal
_audit_creation_method	'MofGen! by Chris Wilmer'
_symmetry_space_group_name_H-M	'P1'
_symmetry_Int_Tables_number	1
_symmetry_cell_setting	triclinic
loop_
_symmetry_equiv_pos_as_xyz
  x,y,z
_cell_length_a	15.298114
_cell_length_b	12.645330
_cell_length_c	15.298259
_cell_angle_alpha	80.290637
_cell_angle_beta	107.353098
_cell_angle_gamma	80.350376
loop_
_atom_site_label
_atom_site_type_symbol
_atom_site_fract_x
_atom_site_fract_y
_atom_site_fract_z
Zn1	Zn	1.330778	-0.635537	-0.279360
Zn2	Zn	1.357605	-0.849910	-0.123853
Zn3	Zn	1.202172	-0.635602	-0.150815
Zn4	Zn	1.175263	-0.775690	-0.306284
O5	O	1.266455	-0.724185	-0.215078
O6	O	1.464470	-0.695009	-0.236181
O7	O	1.359475	-0.852570	0.002715
O8	O	1.219267	-0.487250	-0.167883
O9	O	1.484180	-0.852508	-0.121930
O10	O	1.313753	-0.487202	-0.262325
O11	O	1.245279	-0.695118	-0.017093
O12	O	1.068469	-0.623150	-0.193989
O13	O	1.173403	-0.726010	-0.432857
O14	O	1.048699	-0.726073	-0.308212
O15	O	1.287660	-0.623041	-0.413077
O16	O	1.333382	-0.988408	-0.148037
O17	O	1.199416	-0.933879	-0.282068
C18	C	1.024842	-0.666565	-0.256948
C19	C	0.921475	-0.641935	-0.274883
C20	C	0.671210	-0.900171	-0.087127
C21	C	0.768329	-0.923312	-0.070270
C22	C	0.806620	-0.852970	-0.121422
C23	C	0.747783	-0.759482	-0.189433
C24	C	0.650655	-0.736334	-0.206287
C25	C	0.786066	-0.689134	-0.240582
C26	C	0.727228	-0.595646	-0.308593
C27	C	0.630110	-0.572502	-0.325444
C28	C	0.591818	-0.642844	-0.274293
C29	C	0.883194	-0.712282	-0.223728
C30	C	0.862639	-0.548445	-0.342888
C31	C	0.765520	-0.525304	-0.359745
C32	C	1.266412	-0.999609	-0.215064
C33	C	1.266473	-1.117449	-0.215074
C34	C	1.350661	-1.319281	-0.130629
C35	C	1.350864	-1.196734	-0.130765
C36	C	1.276086	-1.144777	-0.308504
C37	C	1.276721	-1.267602	-0.308023
C38	C	1.172477	-1.267312	-0.207061
C39	C	1.173329	-1.145345	-0.204781
C40	C	1.509010	-0.782030	-0.173045
C41	C	1.612373	-0.806681	-0.155133
C42	C	1.224538	-0.666239	-0.457656
C43	C	1.206675	-0.641546	-0.561028
C44	C	1.266519	-0.447687	-0.215108
C45	C	1.266547	-0.329860	-0.215121
C46	C	1.394151	-0.899860	-0.811155
C47	C	1.410928	-0.923065	-0.714033
C48	C	1.359867	-0.852688	-0.675776
C49	C	1.292024	-0.759100	-0.734653
C50	C	1.275239	-0.735897	-0.831786
C51	C	1.240956	-0.688725	-0.696407
C52	C	1.173113	-0.595137	-0.755283
C53	C	1.156332	-0.571938	-0.852406
C54	C	1.207393	-0.642316	-0.890662
C55	C	1.257740	-0.711928	-0.599274
C56	C	1.138829	-0.547965	-0.619905
C57	C	1.122051	-0.524759	-0.717027
C58	C	1.308262	-0.781841	0.026565
C59	C	1.326304	-0.806278	0.129968
H60	H	0.582207	-0.496372	-0.380818
C61	C	0.448626	-0.704963	-0.321984
C62	C	0.485061	-0.617411	-0.292817
H63	H	0.382719	-0.689266	-0.333411
H64	H	0.460241	-0.714295	-0.378154
H65	H	0.478200	-0.770704	-0.274157
H66	H	0.455491	-0.551671	-0.340647
H67	H	0.473438	-0.608066	-0.236639
H68	H	0.717601	-0.449184	-0.415121
C69	C	0.564232	-1.019835	-0.092946
C70	C	0.629119	-0.977481	-0.030905
H71	H	0.538253	-1.067570	-0.058231
H72	H	0.515302	-0.960843	-0.135850
H73	H	0.595144	-1.059830	-0.126821
H74	H	0.598205	-0.937478	0.002965
H75	H	0.678056	-1.036482	0.012015
C76	C	1.041196	-0.820511	-0.144980
C77	C	0.947861	-0.815042	-0.148977
H78	H	1.081118	-0.883953	-0.098825
H79	H	1.046330	-0.825018	-0.204672
H80	H	1.059443	-0.756275	-0.128715
H81	H	0.929612	-0.879275	-0.165249
H82	H	0.942724	-0.810545	-0.089272
C83	C	1.446040	-1.064505	-0.136282
C84	C	1.445384	-1.175130	-0.136139
H85	H	1.504398	-1.051173	-0.139594
H86	H	1.396092	-1.018342	-0.189206
H87	H	1.438090	-1.048984	-0.080131
H88	H	1.453328	-1.190650	-0.192293
H89	H	1.495347	-1.221307	-0.083209
H90	H	0.893815	-0.491164	-0.384538
H91	H	1.420321	-1.363376	-0.134490
H92	H	0.885700	-0.871818	-0.107693
C93	C	1.341935	-1.271365	0.020576
C94	C	1.345416	-1.174289	-0.036519
H95	H	1.338584	-1.257513	0.078766
H96	H	1.287912	-1.295729	-0.010246
H97	H	1.396958	-1.326684	0.031940
H98	H	1.290389	-1.118971	-0.047889
H99	H	1.399444	-1.149910	-0.005690
C100	C	1.308154	-0.909374	-0.561515
C101	C	1.332313	-0.814792	-0.534565
H102	H	1.354200	-0.972879	-0.521568
H103	H	1.248429	-0.913782	-0.556415
H104	H	1.305466	-0.905610	-0.624837
H105	H	1.334995	-0.818552	-0.471244
H106	H	1.392055	-0.810383	-0.539656
H107	H	1.217213	-1.272121	-0.372221
C108	C	0.959428	-0.428414	-0.774232
C109	C	1.047473	-0.421894	-0.781749
H110	H	0.913390	-0.364905	-0.814185
H111	H	0.943057	-0.492582	-0.792503
H112	H	0.962124	-0.432157	-0.710910
H113	H	1.044779	-0.418159	-0.845070
H114	H	1.063848	-0.357707	-0.763483
C115	C	1.028727	-1.010358	-0.243910
C116	C	1.086010	-1.070251	-0.283614
H117	H	0.974823	-0.963996	-0.292586
H118	H	1.009473	-1.059950	-0.203490
H119	H	1.063033	-0.966494	-0.208740
H120	H	1.051705	-1.114121	-0.318778
H121	H	1.105263	-1.020652	-0.324050
H122	H	1.097250	-0.490658	-0.588758
H123	H	1.344977	-1.308189	-0.316831
C124	C	1.071451	-1.357935	-0.143403
C125	C	1.156258	-1.324007	-0.117889
H126	H	1.061450	-1.392944	-0.088347
H127	H	1.021022	-1.295568	-0.176573
H128	H	1.074373	-1.408319	-0.182582
H129	H	1.153333	-1.273617	-0.078715
H130	H	1.206700	-1.386383	-0.084704
H131	H	1.215952	-1.090415	-0.372412
H132	H	1.346857	-1.362313	-0.060571
H133	H	0.816228	-0.999429	-0.014893
H134	H	1.110014	-1.271070	-0.268808
C135	C	1.526789	-1.082789	-0.703402
C136	C	1.485508	-1.025921	-0.649318
H137	H	1.572840	-1.146285	-0.663446
H138	H	1.479719	-1.104630	-0.748298
H139	H	1.555818	-1.036020	-0.735131
H140	H	1.456472	-1.072688	-0.617594
H141	H	1.532586	-1.004082	-0.604406
H142	H	1.343468	-1.125785	-0.317807
C143	C	1.421202	-0.937085	-0.950893
C144	C	1.450266	-0.977215	-0.853209
H145	H	1.455852	-0.984845	-0.976853
H146	H	1.355972	-0.933893	-0.977624
H147	H	1.432087	-0.865305	-0.964450
H148	H	1.439375	-1.048992	-0.839652
H149	H	1.515512	-0.980419	-0.826469
H150	H	1.165774	-1.128784	-0.136108
H151	H	1.373531	-0.871588	-0.596695
H152	H	1.193738	-0.623424	-0.969746
C153	C	0.993710	-0.475600	-0.909588
C154	C	1.081749	-0.469070	-0.917118
H155	H	0.947667	-0.412090	-0.949532
H156	H	0.977337	-0.539766	-0.927863
H157	H	0.996416	-0.479353	-0.846262
H158	H	1.079044	-0.465326	-0.980443
H159	H	1.098125	-0.404886	-0.898848
