data_functionalizedCrystal
_audit_creation_method	'MofGen! by Chris Wilmer'
_symmetry_space_group_name_H-M	'P1'
_symmetry_Int_Tables_number	1
_symmetry_cell_setting	triclinic
loop_
_symmetry_equiv_pos_as_xyz
  x,y,z
_cell_length_a	8.497374
_cell_length_b	19.805407
_cell_length_c	19.805399
_cell_angle_alpha	90.019573
_cell_angle_beta	89.990018
_cell_angle_gamma	89.998906
loop_
_atom_site_label
_atom_site_type_symbol
_atom_site_fract_x
_atom_site_fract_y
_atom_site_fract_z
Zn1	Zn	0.628092	1.034855	0.382802
Zn2	Zn	0.891908	1.034820	0.269649
Zn3	Zn	0.628136	0.921669	0.269627
Zn4	Zn	0.891824	0.921683	0.382796
O5	O	0.759990	0.978257	0.326219
O6	O	0.663105	1.129567	0.367804
O7	O	0.856972	1.019790	0.174929
O8	O	0.407368	0.936693	0.284634
O9	O	0.856929	1.129541	0.284671
O10	O	0.407336	1.019850	0.367783
O11	O	0.663179	0.936659	0.174913
O12	O	0.663098	0.826955	0.284627
O13	O	0.856786	0.936716	0.477513
O14	O	0.856829	0.826965	0.367772
O15	O	0.663024	1.019863	0.477518
O16	O	1.112659	1.019803	0.284665
O17	O	1.112598	0.936682	0.367793
C18	C	0.759960	0.802401	0.326197
C19	C	0.759985	0.727169	0.326203
C20	C	0.861013	0.691847	0.369427
C21	C	0.861015	0.621159	0.369436
C22	C	0.759997	0.585793	0.326219
C23	C	0.658959	0.621119	0.282993
C24	C	0.658949	0.691806	0.282988
C25	C	0.658994	0.336046	0.283016
C26	C	0.659014	0.265354	0.283023
C27	C	0.861060	0.265399	0.369464
C28	C	0.861050	0.336086	0.369459
C29	C	0.760007	0.371406	0.326236
C30	C	0.760003	0.448054	0.326227
C31	C	0.760008	0.509146	0.326224
C32	C	1.169870	0.978248	0.326228
C33	C	1.348514	0.978266	0.326217
C34	C	0.759891	0.978295	0.502761
C35	C	0.759849	0.978311	0.577993
C36	C	0.760022	1.154799	0.326241
C37	C	0.760035	1.230031	0.326250
C38	C	0.759975	0.978258	0.150363
C39	C	0.759573	0.978373	0.075131
C40	C	0.658951	1.021606	0.613341
C41	C	0.658906	1.021613	0.684030
C42	C	0.759766	0.978328	0.719369
C43	C	0.860668	0.935027	0.684016
C44	C	0.860705	0.935017	0.613329
C45	C	0.860521	0.935065	0.969090
C46	C	0.860480	0.935080	1.039782
C47	C	0.658722	1.021661	1.039790
C48	C	0.658759	1.021651	0.969103
C49	C	0.759654	0.978349	0.933756
C50	C	0.759700	0.978341	0.857108
C51	C	0.759729	0.978338	0.796016
H52	H	0.943329	0.236633	0.404661
Cl53	Cl	0.532008	0.220895	0.228689
Cl54	Cl	0.531963	0.380439	0.228681
H55	H	0.942785	0.899781	0.712795
Cl56	Cl	0.531934	0.736211	0.228649
Cl57	Cl	0.531954	0.576659	0.228667
H58	H	0.943279	0.720637	0.404617
Cl59	Cl	0.532155	1.076029	0.568922
H60	H	0.943284	0.592404	0.404632
Cl61	Cl	0.532127	1.076074	0.728464
Cl62	Cl	0.531962	1.076072	0.924680
H63	H	0.943315	0.364877	0.404649
Cl64	Cl	0.531874	1.076097	1.084230
Cl65	Cl	0.987284	0.880659	1.084208
H66	H	0.942699	0.899816	0.940319
Cl67	Cl	0.987547	0.880584	0.568892
