data_functionalizedCrystal
_audit_creation_method	'MofGen! by Chris Wilmer'
_symmetry_space_group_name_H-M	'P1'
_symmetry_Int_Tables_number	1
_symmetry_cell_setting	triclinic
loop_
_symmetry_equiv_pos_as_xyz
  x,y,z
_cell_length_a	6.817900
_cell_length_b	16.015009
_cell_length_c	16.015572
_cell_angle_alpha	60.346181
_cell_angle_beta	104.485554
_cell_angle_gamma	104.487874
loop_
_atom_site_label
_atom_site_type_symbol
_atom_site_fract_x
_atom_site_fract_y
_atom_site_fract_z
V1	V	-3.988169	-0.038676	-0.257230
O2	O	-3.988559	0.098579	-0.295267
O3	O	-3.928272	-0.169710	-0.214178
O4	O	-3.928265	0.004358	-0.388255
O5	O	-3.988567	-0.076695	-0.119985
V6	V	-4.474777	-0.027273	-0.245830
O7	O	-4.242659	-0.063689	-0.282235
O8	O	-4.670484	-0.002260	-0.220825
O9	O	-4.311468	0.103761	-0.288882
O10	O	-4.591784	-0.164529	-0.207793
O11	O	-4.591777	0.010745	-0.383075
O12	O	-4.311475	-0.070308	-0.114805
C13	C	-3.770849	-0.202980	-0.199466
C14	C	-3.803086	-0.309829	-0.165140
C15	C	-3.817370	-0.474343	-0.033264
C16	C	-3.787080	-0.373940	-0.065529
C17	C	-3.849401	-0.346103	-0.232526
C18	C	-3.879706	-0.446506	-0.200276
C19	C	-3.863685	-0.510618	-0.100644
C20	C	-3.926021	-0.482781	-0.267655
C21	C	-3.956313	-0.583175	-0.235407
C22	C	-3.940290	-0.647293	-0.135779
C23	C	-3.893976	-0.611012	-0.068396
C24	C	-3.942028	-0.418667	-0.367287
C25	C	-3.988343	-0.454943	-0.434666
C26	C	-4.018650	-0.555338	-0.402419
C27	C	-4.002627	-0.619456	-0.302791
C28	C	-4.064963	-0.591620	-0.469802
C29	C	-4.095255	-0.692013	-0.437554
C30	C	-4.032918	-0.719850	-0.270543
C31	C	-3.770838	0.019063	-0.421517
C32	C	-3.803067	0.053381	-0.528360
C33	C	-4.064975	-0.251227	-0.810197
C34	C	-4.095267	-0.218949	-0.910597
C35	C	-4.032931	-0.051951	-0.938409
C36	C	-4.002623	-0.084216	-0.838009
C37	C	-4.018652	-0.183855	-0.773910
C38	C	-3.956300	-0.016843	-0.801722
C39	C	-3.926006	-0.049106	-0.701331
C40	C	-3.942036	-0.148740	-0.637226
C41	C	-3.988358	-0.216117	-0.673518
C42	C	-3.940287	0.082795	-0.865823
C43	C	-3.893963	0.150167	-0.829536
C44	C	-3.863654	0.117906	-0.729143
C45	C	-3.879684	0.018271	-0.665038
C46	C	-3.817332	0.185282	-0.692850
C47	C	-3.787039	0.153020	-0.592459
C48	C	-3.849390	-0.013991	-0.564647
C49	C	-4.132233	0.137025	-0.303590
C50	C	-4.079233	0.243875	-0.337922
C51	C	-4.132244	-0.085017	-0.081537
C52	C	-4.079254	-0.119331	0.025305
H53	H	-4.001375	-0.402729	-0.515787
H54	H	-4.001383	-0.297252	-0.621324
O55	O	-4.017684	0.044804	-1.000781
C56	C	-4.205565	0.065378	-1.062868
H57	H	-4.294589	-0.003321	-1.066897
H58	H	-4.174946	0.124098	-1.138631
H59	H	-4.299081	0.091995	-1.033283
H60	H	-3.749350	-0.344410	-0.010652
O61	O	-4.079832	-0.348005	-0.747912
C62	C	-3.933654	-0.387624	-0.760822
H63	H	-3.889833	-0.339466	-0.836692
H64	H	-4.001419	-0.463719	-0.752044
H65	H	-3.791512	-0.391726	-0.704171
H66	H	-3.917373	-0.175007	-0.555481
O67	O	-4.140524	-0.284496	-0.945738
C68	C	-4.324324	-0.346248	-0.915970
H69	H	-4.350869	-0.346961	-0.848099
H70	H	-4.313089	-0.423049	-0.899098
H71	H	-4.457635	-0.318672	-0.976641
H72	H	-3.964924	0.109060	-0.947567
O73	O	-3.878379	0.246920	-0.891938
C74	C	-3.915106	0.260950	-0.988329
H75	H	-3.883098	0.194719	-0.988920
H76	H	-3.810171	0.328270	-1.033570
H77	H	-4.081741	0.271207	-1.020443
O78	O	-3.969481	-0.744792	-0.104557
C79	C	-3.824450	-0.767492	-0.136479
H80	H	-3.767789	-0.700443	-0.202799
H81	H	-3.898757	-0.828543	-0.156640
H82	H	-3.689533	-0.791845	-0.075812
O83	O	-3.802103	0.282037	-0.755224
C84	C	-3.989996	0.302599	-0.817303
H85	H	-4.079007	0.233896	-0.821327
H86	H	-3.959397	0.361319	-0.893069
H87	H	-4.083516	0.329210	-0.787715
O88	O	-3.802032	-0.536542	0.063539
C89	C	-3.947921	-0.523716	0.103374
H90	H	-3.992199	-0.447935	0.055197
H91	H	-3.879654	-0.532305	0.179361
H92	H	-4.089875	-0.580535	0.107777
O93	O	-3.878199	-0.673386	0.028369
C94	C	-3.721605	-0.729057	0.055105
H95	H	-3.695790	-0.730940	-0.011538
H96	H	-3.768435	-0.806268	0.112431
H97	H	-3.573968	-0.694983	0.086043
O98	O	-4.139906	-0.727296	-0.502961
C99	C	-3.987113	-0.781344	-0.486207
H100	H	-3.839933	-0.756742	-0.446386
H101	H	-3.957225	-0.769097	-0.558661
H102	H	-4.040628	-0.861895	-0.440028
O103	O	-3.864976	-0.283689	-0.329271
C104	C	-3.828251	-0.187298	-0.343288
H105	H	-3.860269	-0.186720	-0.277053
H106	H	-3.933180	-0.142053	-0.410601
H107	H	-3.661613	-0.155177	-0.353543
H108	H	-3.862415	-0.095127	-0.512452
H109	H	-3.749319	0.207882	-0.562914
O110	O	-3.912961	-0.321158	-0.398580
C111	C	-4.057943	-0.298470	-0.366621
H112	H	-4.196297	-0.358331	-0.351661
H113	H	-4.108929	-0.226393	-0.425216
H114	H	-3.985842	-0.292338	-0.297146
H115	H	-4.019886	-0.772055	-0.189413
H116	H	-4.077982	-0.539405	-0.550923
