data_functionalizedCrystal
_audit_creation_method	'MofGen! by Chris Wilmer'
_symmetry_space_group_name_H-M	'P1'
_symmetry_Int_Tables_number	1
_symmetry_cell_setting	triclinic
loop_
_symmetry_equiv_pos_as_xyz
  x,y,z
_cell_length_a	10.685661
_cell_length_b	16.120484
_cell_length_c	10.686551
_cell_angle_alpha	88.707809
_cell_angle_beta	80.927378
_cell_angle_gamma	88.764103
loop_
_atom_site_label
_atom_site_type_symbol
_atom_site_fract_x
_atom_site_fract_y
_atom_site_fract_z
Zn1	Zn	1.968070	-0.386341	-0.893652
Zn2	Zn	1.941035	-0.534636	-0.691940
Zn3	Zn	1.739502	-0.386379	-0.665180
Zn4	Zn	1.746582	-0.514846	-0.886495
O5	O	1.848798	-0.455550	-0.784317
O6	O	2.141520	-0.414279	-0.881090
O7	O	1.900025	-0.523267	-0.511352
O8	O	1.778174	-0.270548	-0.687284
O9	O	2.121657	-0.523231	-0.732893
O10	O	1.946101	-0.270520	-0.855141
O11	O	1.751959	-0.414343	-0.491692
O12	O	1.563406	-0.395154	-0.680343
O13	O	1.790240	-0.489502	-1.064483
O14	O	1.568607	-0.489538	-0.842943
O15	O	1.952966	-0.395090	-1.069741
O16	O	1.906889	-0.647836	-0.725952
O17	O	1.764026	-0.633297	-0.868891
C18	C	1.520103	-0.440203	-0.757963
C19	C	1.379487	-0.433656	-0.746720
C20	C	1.833329	-0.670599	-0.799579
C21	C	1.826830	-0.762601	-0.806160
C22	C	1.814975	-0.931051	-0.818201
C23	C	1.882848	-0.979220	-0.750472
C24	C	1.876252	-1.072950	-0.757172
C25	C	1.821570	-0.837311	-0.811503
C26	C	2.178775	-0.470958	-0.810774
C27	C	2.319392	-0.477524	-0.822049
C28	C	1.875409	-0.440084	-1.114300
C29	C	1.886749	-0.433493	-1.254918
C30	C	1.864364	-0.239662	-0.769026
C31	C	1.870997	-0.147664	-0.762510
C32	C	1.822367	-0.470900	-0.455620
C33	C	1.811289	-0.477270	-0.315005
H34	H	1.375519	-0.520084	-0.895150
C35	C	1.303660	-0.376148	-0.647965
N36	N	1.246546	-0.332835	-0.573583
C37	C	1.729772	-0.970437	-0.903315
N38	N	1.665592	-1.000112	-0.967415
H39	H	1.945910	-0.950064	-0.687454
C40	C	1.712286	-0.534714	-1.239169
N41	N	1.637713	-0.577980	-1.182042
C42	C	1.985753	-0.376043	-1.330759
N43	N	2.060319	-0.332770	-1.387882
