data_functionalizedCrystal
_audit_creation_method	'MofGen! by Chris Wilmer'
_symmetry_space_group_name_H-M	'P1'
_symmetry_Int_Tables_number	1
_symmetry_cell_setting	triclinic
loop_
_symmetry_equiv_pos_as_xyz
  x,y,z
_cell_length_a	15.298708
_cell_length_b	15.297327
_cell_length_c	19.076919
_cell_angle_alpha	101.510342
_cell_angle_beta	101.509970
_cell_angle_gamma	107.405650
loop_
_atom_site_label
_atom_site_type_symbol
_atom_site_fract_x
_atom_site_fract_y
_atom_site_fract_z
Zn1	Zn	1.342997	-0.138578	-0.235618
Zn2	Zn	1.321862	-0.288236	-0.140968
Zn3	Zn	1.193372	-0.159659	-0.140951
Zn4	Zn	1.157402	-0.324139	-0.285636
O5	O	1.253908	-0.227653	-0.200793
O6	O	1.471640	-0.134583	-0.202137
O7	O	1.311026	-0.264977	-0.040803
O8	O	1.237118	-0.025394	-0.132569
O9	O	1.456112	-0.244536	-0.132598
O10	O	1.347048	-0.009907	-0.202121
O11	O	1.216625	-0.170512	-0.040790
O12	O	1.057154	-0.205325	-0.181069
O13	O	1.175813	-0.305727	-0.379164
O14	O	1.030728	-0.326168	-0.287369
O15	O	1.312170	-0.169397	-0.342416
O16	O	1.276148	-0.424467	-0.181098
O17	O	1.155320	-0.450844	-0.287386
C18	C	1.009858	-0.271931	-0.239645
C19	C	0.905447	-0.290897	-0.256287
C20	C	0.666113	-0.092348	-0.082066
C21	C	0.764213	-0.074523	-0.066430
C22	C	0.799526	-0.128615	-0.113893
C23	C	0.736730	-0.200535	-0.176994
C24	C	0.638621	-0.218356	-0.192635
C25	C	0.772035	-0.254623	-0.224462
C26	C	0.709238	-0.326543	-0.287564
C27	C	0.611139	-0.344362	-0.303201
C28	C	0.575825	-0.290270	-0.255738
C29	C	0.870144	-0.236802	-0.208821
C30	C	0.842652	-0.362810	-0.319391
C31	C	0.744552	-0.380635	-0.335026
C32	C	1.209562	-0.471740	-0.239683
C33	C	1.190675	-0.576148	-0.256330
C34	C	1.389270	-0.815365	-0.081994
C35	C	1.407016	-0.717269	-0.066350
C36	C	1.352932	-0.681984	-0.113844
C37	C	1.281100	-0.744804	-0.176985
C38	C	1.263348	-0.842911	-0.192628
C39	C	1.227010	-0.709529	-0.224477
C40	C	1.155177	-0.772350	-0.287618
C41	C	1.137429	-0.870446	-0.303258
C42	C	1.191513	-0.905732	-0.255764
C43	C	1.244762	-0.611423	-0.208834
C44	C	1.118839	-0.638968	-0.319467
C45	C	1.101094	-0.737064	-0.335112
C46	C	1.498911	-0.183203	-0.161790
C47	C	1.603317	-0.164261	-0.145169
C48	C	1.242337	-0.239215	-0.387487
C49	C	1.237406	-0.244142	-0.467045
C50	C	1.298453	0.017391	-0.161763
C51	C	1.317435	0.121814	-0.145131
C52	C	1.306079	-0.175480	-0.485291
C53	C	1.301434	-0.180109	-0.560046
C54	C	1.228120	-0.253403	-0.616553
C55	C	1.159441	-0.322069	-0.598304
C56	C	1.164082	-0.317436	-0.523550
C57	C	1.206624	-0.274866	-0.842174
C58	C	1.201990	-0.279495	-0.916931
C59	C	1.343983	-0.137533	-0.878668
C60	C	1.348621	-0.132910	-0.803915
C61	C	1.279938	-0.201573	-0.785672
N62	N	1.223373	-0.258137	-0.692965
N63	N	1.284682	-0.196834	-0.709262
C64	C	1.265501	-0.216058	-0.014806
C65	C	1.270663	-0.210833	0.064823
H66	H	0.693409	-0.439192	-0.386405
H67	H	1.408323	-0.073228	-0.757910
H68	H	1.303248	-0.560283	-0.157424
F69	F	1.417073	-0.064461	-0.898090
H70	H	1.108153	-0.373340	-0.508697
H71	H	0.879405	-0.114097	-0.101158
H72	H	1.465500	-0.666124	-0.014940
H73	H	0.560012	-0.402917	-0.354587
H74	H	1.142285	-0.339184	-0.962941
H75	H	0.815335	-0.015968	-0.015051
H76	H	1.150709	-0.330788	-0.827331
H77	H	1.357357	-0.124198	-0.574896
H78	H	1.099744	-0.381744	-0.644318
H79	H	0.495945	-0.304783	-0.268463
F80	F	1.372012	-0.577554	-0.097313
F81	F	0.936965	-0.160262	-0.141666
F82	F	1.024647	-0.803933	-0.402309
F83	F	0.628524	-0.034779	-0.031565
H84	H	1.074798	-0.610241	-0.358140
H85	H	0.871403	-0.406854	-0.358041
H86	H	1.433292	-0.844106	-0.043328
H87	H	1.177070	-0.985608	-0.268500
H88	H	1.078928	-0.921595	-0.354665
F89	F	1.384114	-0.097473	-0.425157
