data_functionalizedCrystal
_audit_creation_method	'MofGen! by Chris Wilmer'
_symmetry_space_group_name_H-M	'P1'
_symmetry_Int_Tables_number	1
_symmetry_cell_setting	triclinic
loop_
_symmetry_equiv_pos_as_xyz
  x,y,z
_cell_length_a	10.654562
_cell_length_b	9.730223
_cell_length_c	10.654554
_cell_angle_alpha	90.000869
_cell_angle_beta	95.511576
_cell_angle_gamma	89.996961
loop_
_atom_site_label
_atom_site_type_symbol
_atom_site_fract_x
_atom_site_fract_y
_atom_site_fract_z
O1	O	1.667828	-0.114379	-0.176469
O2	O	1.302351	-0.114362	-0.193258
O3	O	1.493490	-0.114363	-0.002125
O4	O	1.476689	-0.114377	-0.367602
O5	O	1.493487	0.114217	-0.002130
O6	O	1.302349	0.114218	-0.193263
O7	O	1.667825	0.114201	-0.176474
Zn8	Zn	1.485087	0.150502	-0.184869
Zn9	Zn	1.485090	-0.150662	-0.184863
O10	O	1.476687	0.114203	-0.367607
C11	C	1.255553	-0.000069	-0.192025
C12	C	1.116110	-0.000063	-0.188326
C13	C	1.050578	0.124526	-0.186604
C14	C	0.919556	0.124503	-0.183139
C15	C	0.919608	-0.124708	-0.183124
C16	C	1.050629	-0.124683	-0.186580
C17	C	1.050546	0.268405	-0.186618
C18	C	0.919524	0.268383	-0.183153
C19	C	1.492254	-0.000074	0.044670
C20	C	1.488560	-0.000077	0.184114
C21	C	1.714624	-0.000094	-0.177707
C22	C	1.854067	-0.000110	-0.181406
N23	N	1.485094	0.356038	-0.184873
N24	N	1.485092	-0.356199	-0.184849
C25	C	1.569752	0.427963	-0.100268
C26	C	1.569749	0.571846	-0.100253
C27	C	1.400425	0.571866	-0.269458
C28	C	1.400424	0.427986	-0.269466
C29	C	1.667513	0.427953	-0.002582
C30	C	1.667510	0.571836	-0.002567
C31	C	1.477923	-0.000089	-0.414402
C32	C	1.481617	-0.000096	-0.553846
C33	C	1.597632	-0.000100	0.394617
C34	C	1.601104	-0.000086	0.263596
C35	C	1.372536	-0.000068	0.235659
C36	C	1.369065	-0.000073	0.366678
C37	C	1.729594	-0.000116	0.410745
C38	C	1.733066	-0.000102	0.279723
H39	H	1.103983	-0.226135	-0.187963
Cl40	Cl	1.791151	-0.152494	0.481218
Cl41	Cl	1.812741	-0.147788	0.234366
H42	H	1.280900	-0.000047	0.170934
Cl43	Cl	1.806364	0.147558	0.475217
Cl44	Cl	1.797927	0.152286	0.224707
H45	H	1.331478	0.369425	-0.338347
Cl46	Cl	0.837282	-0.281365	-0.180915
Cl47	Cl	1.121974	0.353714	-0.052622
Cl48	Cl	1.096219	0.337326	-0.328032
H49	H	1.636996	0.616457	0.088657
Cl50	Cl	0.873812	0.337612	-0.041869
Cl51	Cl	0.848054	0.353653	-0.317156
Cl52	Cl	1.816513	0.632130	-0.035785
H53	H	1.274595	-0.000057	0.408634
Cl54	Cl	1.634404	0.367653	0.146452
Cl55	Cl	1.293988	0.662323	-0.375799
H56	H	1.758697	0.383321	-0.033174
