data_functionalizedCrystal
_audit_creation_method	'MofGen! by Chris Wilmer'
_symmetry_space_group_name_H-M	'P1'
_symmetry_Int_Tables_number	1
_symmetry_cell_setting	triclinic
loop_
_symmetry_equiv_pos_as_xyz
  x,y,z
_cell_length_a	27.732048
_cell_length_b	17.699083
_cell_length_c	26.210047
_cell_angle_alpha	89.996398
_cell_angle_beta	89.996535
_cell_angle_gamma	97.037165
loop_
_atom_site_label
_atom_site_type_symbol
_atom_site_fract_x
_atom_site_fract_y
_atom_site_fract_z
O1	O	0.641255	-0.090047	-0.042364
O2	O	1.141255	0.409953	0.457636
O3	O	0.500511	-0.103740	-0.042380
O4	O	1.000511	0.396260	0.457620
O5	O	0.574859	0.013331	-0.042367
O6	O	1.074859	0.513331	0.457633
O7	O	0.566906	-0.207118	-0.042377
O8	O	1.066906	0.292882	0.457623
O9	O	0.574845	0.013313	0.042491
O10	O	1.074845	0.513313	0.542491
O11	O	0.500496	-0.103758	0.042478
O12	O	1.000496	0.396242	0.542478
O13	O	0.641241	-0.090065	0.042494
O14	O	1.141241	0.409935	0.542494
Cu15	Cu	0.570867	-0.096913	0.050234
Cu16	Cu	1.070867	0.403087	0.550234
Cu17	Cu	0.570884	-0.096892	-0.050120
Cu18	Cu	1.070884	0.403108	0.449880
O19	O	0.566892	-0.207136	0.042481
O20	O	1.066892	0.292864	0.542481
C21	C	0.482496	-0.103462	0.000047
C22	C	0.982496	0.396538	0.500047
C23	C	0.428838	-0.102596	0.000041
C24	C	0.928838	0.397404	0.500041
N25	N	0.570859	-0.096928	0.120818
N26	N	1.070859	0.403072	0.620818
C27	C	0.574567	0.041516	0.000062
C28	C	1.074567	0.541516	0.500062
C29	C	0.573712	0.125527	0.000062
C30	C	1.073712	0.625527	0.500062
C31	C	0.090252	-0.166329	0.000061
C32	C	0.590252	0.333671	0.500061
C33	C	-0.111419	-0.163117	0.000065
C34	C	0.388581	0.336883	0.500065
O35	O	-0.142466	-0.221396	0.000085
O36	O	0.357534	0.278604	0.500085
N37	N	-0.130793	-0.093699	0.000067
N38	N	0.369207	0.406301	0.500067
C39	C	-0.099745	-0.025079	0.000072
C40	C	0.400255	0.474921	0.500072
O41	O	-0.120851	0.034039	0.000079
O42	O	0.379149	0.534039	0.500079
C43	C	0.101925	-0.028291	0.000071
C44	C	0.601925	0.471709	0.500071
C45	C	0.121296	-0.097714	0.000063
C46	C	0.621296	0.402286	0.500063
C47	C	0.109623	-0.235746	0.000054
C48	C	0.609623	0.264254	0.500054
C49	C	0.160037	-0.236548	0.000050
C50	C	0.660037	0.263452	0.500050
C51	C	0.191081	-0.167933	0.000053
C52	C	0.691081	0.332067	0.500053
C53	C	0.171710	-0.098516	0.000059
C54	C	0.671710	0.401484	0.500059
C55	C	0.132972	0.040329	0.000079
C56	C	0.632972	0.540329	0.500079
C57	C	0.183392	0.039519	0.000080
C58	C	0.683392	0.539519	0.500080
C59	C	0.202763	-0.029903	0.000073
C60	C	0.702763	0.470097	0.500073
C61	C	0.253169	-0.030703	0.000058
C62	C	0.753169	0.469297	0.500058
N63	N	0.272543	-0.100121	0.000056
N64	N	0.772543	0.399879	0.500056
C65	C	0.241499	-0.168736	0.000053
C66	C	0.741499	0.331264	0.500053
C67	C	-0.205625	-0.023397	0.000071
C68	C	0.294375	0.476603	0.500071
C69	C	-0.256042	-0.022594	0.000071
C70	C	0.243958	0.477406	0.500071
C71	C	-0.267713	-0.160633	0.000065
C72	C	0.232287	0.339367	0.500065
C73	C	-0.217295	-0.161435	0.000062
C74	C	0.282705	0.338565	0.500062
C75	C	-0.186252	-0.092815	0.000069
C76	C	0.313748	0.407185	0.500069
C77	C	0.347374	-0.170415	0.000045
C78	C	0.847374	0.329585	0.500045
C79	C	0.397794	-0.171211	0.000039
C80	C	0.897794	0.328789	0.500039
C81	C	0.409460	-0.033173	0.000047
C82	C	0.909460	0.466827	0.500047
C83	C	0.359045	-0.032376	0.000050
C84	C	0.859045	0.467624	0.500050
C85	C	0.328002	-0.101004	0.000051
C86	C	0.828002	0.398996	0.500051
O87	O	0.284244	0.027545	0.000045
O88	O	0.784244	0.527545	0.500045
O89	O	0.262614	-0.227845	0.000057
O90	O	0.762614	0.272155	0.500057
C91	C	0.039837	-0.165526	0.000065
C92	C	0.539837	0.334474	0.500065
C93	C	0.020466	-0.096109	0.000071
C94	C	0.520466	0.403891	0.500071
C95	C	0.051510	-0.027494	0.000074
C96	C	0.551510	0.472506	0.500074
C97	C	-0.029951	-0.095306	0.000071
C98	C	0.470049	0.404694	0.500071
C99	C	-0.060995	-0.163921	0.000068
C100	C	0.439005	0.336079	0.500068
C101	C	-0.041622	-0.233339	0.000066
C102	C	0.458378	0.266661	0.500066
C103	C	0.008793	-0.234141	0.000062
C104	C	0.508793	0.265859	0.500062
C105	C	0.032137	0.041924	0.000076
C106	C	0.532137	0.541924	0.500076
C107	C	-0.018279	0.042720	0.000080
C108	C	0.481721	0.542720	0.500080
C109	C	-0.049323	-0.025895	0.000077
C110	C	0.450677	0.474105	0.500077
C111	C	0.659256	-0.090343	0.000065
C112	C	1.159256	0.409657	0.500065
C113	C	0.712914	-0.091209	0.000068
C114	C	1.212914	0.408791	0.500068
C115	C	0.567184	-0.235321	0.000051
C116	C	1.067184	0.264679	0.500051
C117	C	0.568039	-0.319332	0.000047
C118	C	1.068039	0.180668	0.500047
C119	C	0.617353	0.174532	0.000068
C120	C	1.117353	0.674532	0.500068
C121	C	0.616547	0.253469	0.000063
C122	C	1.116547	0.753469	0.500063
C123	C	0.572099	0.283398	0.000056
C124	C	1.072099	0.783398	0.500056
C125	C	0.528455	0.234386	0.000049
C126	C	1.028455	0.734386	0.500049
C127	C	0.529262	0.155451	0.000050
C128	C	1.029262	0.655451	0.500050
C129	C	0.525201	0.552720	0.000045
C130	C	1.025201	1.052720	0.500045
C131	C	0.524398	0.631661	0.000045
C132	C	1.024398	1.131661	0.500045
C133	C	0.612486	0.650738	0.000057
C134	C	1.112486	1.150738	0.500057
C135	C	0.613293	0.571803	0.000058
C136	C	1.113293	1.071803	0.500058
C137	C	0.569649	0.522798	0.000049
C138	C	1.069649	1.022798	0.500049
C139	C	0.570524	0.437206	0.000053
C140	C	1.070524	0.937206	0.500053
C141	C	0.571224	0.368987	0.000056
C142	C	1.071224	0.868987	0.500056
N143	N	0.570896	-0.096871	-0.120704
N144	N	1.070896	0.403129	0.379296
C145	C	0.603802	-0.045064	0.473338
C146	C	1.103802	0.454936	0.973338
C147	C	0.603813	-0.045054	0.686996
C148	C	1.103813	0.454946	1.186996
O149	O	0.631804	-0.000961	0.714623
O150	O	1.131804	0.499039	1.214623
N151	N	0.570887	-0.096875	0.713712
N152	N	1.070887	0.403125	1.213712
C153	C	0.537953	-0.148699	0.687010
C154	C	1.037953	0.351301	1.187010
O155	O	0.509945	-0.192771	0.714635
O156	O	1.009945	0.307229	1.214635
C157	C	0.537941	-0.148706	0.473352
C158	C	1.037941	0.351294	0.973352
C159	C	0.570872	-0.096886	0.446639
C160	C	1.070872	0.403114	0.946639
C161	C	0.636731	0.006751	0.446625
C162	C	1.136731	0.506751	0.946625
C163	C	0.636730	0.006746	0.393213
C164	C	1.136730	0.506746	0.893213
C165	C	0.603800	-0.045076	0.366515
C166	C	1.103800	0.454924	0.866515
C167	C	0.570871	-0.096892	0.393228
C168	C	1.070871	0.403108	0.893228
C169	C	0.505006	-0.200526	0.446651
C170	C	1.005006	0.299474	0.946651
C171	C	0.505005	-0.200522	0.393233
C172	C	1.005005	0.299478	0.893233
C173	C	0.537936	-0.148702	0.366520
C174	C	1.037936	0.351298	0.866520
C175	C	0.537940	-0.148720	0.313118
C176	C	1.037940	0.351280	0.813118
N177	N	0.570866	-0.096899	0.286402
N178	N	1.070866	0.403101	0.786402
C179	C	0.603796	-0.045077	0.313101
C180	C	1.103796	0.454923	0.813101
C181	C	0.537963	-0.148693	0.799183
C182	C	1.037963	0.351307	1.299183
C183	C	0.537967	-0.148693	0.852597
C184	C	1.037967	0.351307	1.352597
C185	C	0.603826	-0.045046	0.852580
C186	C	1.103826	0.454954	1.352580
C187	C	0.603824	-0.045051	0.799165
C188	C	1.103824	0.454949	1.299165
C189	C	0.570889	-0.096872	0.772467
C190	C	1.070889	0.403128	1.272467
C191	C	0.603791	-0.045094	0.200933
C192	C	1.103791	0.454906	0.700933
C193	C	0.603789	-0.045106	0.147517
C194	C	1.103789	0.454894	0.647517
C195	C	0.537928	-0.148750	0.147538
C196	C	1.037928	0.351250	0.647538
C197	C	0.537932	-0.148740	0.200950
C198	C	1.037932	0.351260	0.700950
C199	C	0.570866	-0.096906	0.227646
C200	C	1.070866	0.403094	0.727646
O201	O	0.509960	-0.192784	0.285458
O202	O	1.009960	0.307216	0.785458
O203	O	0.631794	-0.001000	0.285466
O204	O	1.131794	0.499000	0.785466
C205	C	0.603804	-0.045059	0.526749
C206	C	1.103804	0.454941	1.026749
C207	C	0.570875	-0.096874	0.553462
C208	C	1.070875	0.403126	1.053462
C209	C	0.537945	-0.148696	0.526764
C210	C	1.037945	0.351304	1.026764
C211	C	0.570879	-0.096874	0.606876
C212	C	1.070879	0.403126	1.106876
C213	C	0.603808	-0.045052	0.633575
C214	C	1.103808	0.454948	1.133575
C215	C	0.636735	0.006769	0.606859
C216	C	1.136735	0.506769	1.106859
C217	C	0.636733	0.006763	0.553448
C218	C	1.136733	0.506763	1.053448
C219	C	0.505019	-0.200518	0.553479
C220	C	1.005019	0.299482	1.053479
C221	C	0.505023	-0.200508	0.606891
C222	C	1.005023	0.299492	1.106891
C223	C	0.537953	-0.148686	0.633589
C224	C	1.037953	0.351314	1.133589
H225	H	0.413562	-0.227746	0.000032
H226	H	0.913562	0.272254	0.500032
F227	F	0.658937	0.702899	0.000066
F228	F	1.158937	1.202899	0.500066
F229	F	0.638873	0.010103	0.770740
F230	F	1.138873	0.510103	1.270740
H231	H	0.488201	0.656025	0.000041
H232	H	0.988201	1.156025	0.500041
F233	F	0.502922	-0.203855	0.881022
F234	F	1.002922	0.296145	1.381022
F235	F	0.065170	0.114958	0.000080
F236	F	0.565170	0.614958	0.500080
H237	H	0.489663	0.512829	0.000037
H238	H	0.989663	1.012829	0.500037
H239	H	0.652084	0.293367	0.000069
H240	H	1.152084	0.793367	0.500069
F241	F	-0.074670	-0.306364	0.000060
F242	F	0.425330	0.193636	0.500060
H243	H	0.492265	0.258760	0.000041
H244	H	0.992265	0.758760	0.500041
H245	H	0.208666	0.095399	0.000086
H246	H	0.708666	0.595399	0.500086
F247	F	-0.196685	-0.235323	0.000055
F248	F	0.303315	0.264677	0.500055
F249	F	0.502887	-0.203901	0.229379
F250	F	1.002887	0.296099	0.729379
H251	H	0.493725	0.115550	0.000046
H252	H	0.993725	0.615550	0.500046
F253	F	0.469973	-0.255669	0.635315
F254	F	0.969973	0.244331	1.135315
H255	H	0.511143	-0.190895	0.777449
H256	H	1.011143	0.309105	1.277449
F257	F	0.442508	0.039848	0.000051
F258	F	0.942508	0.539848	0.500051
F259	F	0.638872	0.010106	0.881004
F260	F	1.138872	0.510106	1.381004
H261	H	-0.034045	0.099257	0.000082
H262	H	0.465955	0.599257	0.500082
H263	H	0.630607	-0.002908	0.125769
H264	H	1.130607	0.497092	0.625769
H265	H	0.511118	-0.190945	0.125792
H266	H	1.011118	0.309055	0.625792
H267	H	0.630608	-0.002884	0.222663
H268	H	1.130608	0.497116	0.722663
H269	H	0.663544	0.048944	0.371467
H270	H	1.163544	0.548944	0.871467
F271	F	0.469969	-0.255676	0.525071
F272	F	0.969969	0.244324	1.025071
F273	F	-0.172592	0.049643	0.000078
F274	F	0.327408	0.549643	0.500078
F275	F	0.660600	0.539955	0.000065
F276	F	1.160600	1.039955	0.500065
F277	F	0.671782	0.061913	0.475032
F278	F	1.171782	0.561913	0.975032
F279	F	0.469955	-0.255678	0.475071
F280	F	0.969955	0.244322	0.975071
H281	H	0.653548	0.150171	0.000076
H282	H	1.153548	0.650171	0.500076
H283	H	0.663549	0.048960	0.531702
H284	H	1.163549	0.548960	1.031702
F285	F	0.671783	0.061920	0.635283
F286	F	1.171783	0.561920	1.135283
F287	F	0.314343	-0.243456	0.000046
F288	F	0.814343	0.256544	0.500046
F289	F	0.180646	-0.310437	0.000044
F290	F	0.680646	0.189563	0.500044
F291	F	0.469949	-0.255677	0.364823
F292	F	0.969949	0.244323	0.864823
H293	H	-0.271809	0.033937	0.000069
H294	H	0.228191	0.533937	0.500069
H295	H	-0.292998	-0.216502	0.000063
H296	H	0.207002	0.283498	0.500063
F297	F	0.076590	-0.308782	0.000051
F298	F	0.576590	0.191218	0.500051
H299	H	0.343273	0.024153	0.000049
H300	H	0.843273	0.524153	0.500049
F301	F	0.112368	0.114219	0.000080
F302	F	0.612368	0.614219	0.500080
H303	H	0.024559	-0.290672	0.000056
H304	H	0.524559	0.209328	0.500056
