data_functionalizedCrystal
_audit_creation_method	'MofGen! by Chris Wilmer'
_symmetry_space_group_name_H-M	'P1'
_symmetry_Int_Tables_number	1
_symmetry_cell_setting	triclinic
loop_
_symmetry_equiv_pos_as_xyz
  x,y,z
_cell_length_a	12.594516
_cell_length_b	16.120566
_cell_length_c	16.120297
_cell_angle_alpha	89.874982
_cell_angle_beta	92.873262
_cell_angle_gamma	92.890314
loop_
_atom_site_label
_atom_site_type_symbol
_atom_site_fract_x
_atom_site_fract_y
_atom_site_fract_z
Zn1	Zn	-0.539236	-1.247510	-0.534637
Zn2	Zn	-0.205903	-0.914177	-0.201304
Zn3	Zn	0.127431	-0.580844	0.132030
Zn4	Zn	-0.708679	-1.254484	-0.395581
Zn5	Zn	-0.375345	-0.921151	-0.062248
Zn6	Zn	-0.042012	-0.587817	0.271085
Zn7	Zn	-0.521251	-1.115498	-0.388548
Zn8	Zn	-0.187918	-0.782165	-0.055214
Zn9	Zn	0.145416	-0.448832	0.278119
Zn10	Zn	-0.707700	-1.108441	-0.527543
Zn11	Zn	-0.374367	-0.775107	-0.194209
Zn12	Zn	-0.041033	-0.441774	0.139124
O13	O	-0.619216	-1.181483	-0.461577
O14	O	-0.285883	-0.848150	-0.128244
O15	O	0.047450	-0.514817	0.205089
O16	O	-0.569649	-1.364802	-0.522104
O17	O	-0.236316	-1.031469	-0.188770
O18	O	0.097017	-0.698136	0.144563
O19	O	-0.676699	-1.241920	-0.278283
O20	O	-0.343366	-0.908586	0.055050
O21	O	-0.010032	-0.575253	0.388384
O22	O	-0.374695	-1.133045	-0.407952
O23	O	-0.041362	-0.799712	-0.074619
O24	O	0.291972	-0.466379	0.258714
O25	O	-0.694138	-1.369926	-0.419940
O26	O	-0.360805	-1.036593	-0.086607
O27	O	-0.027471	-0.703259	0.246727
O28	O	-0.387908	-1.230034	-0.515283
O29	O	-0.054575	-0.896700	-0.181950
O30	O	0.278758	-0.563367	0.151383
O31	O	-0.538997	-1.139807	-0.273116
O32	O	-0.205663	-0.806474	0.060218
O33	O	0.127670	-0.473141	0.393551
O34	O	-0.538048	-0.998195	-0.401073
O35	O	-0.204714	-0.664862	-0.067740
O36	O	0.128619	-0.331529	0.265594
O37	O	-0.692470	-1.121016	-0.644849
O38	O	-0.359137	-0.787683	-0.311516
O39	O	-0.025803	-0.454350	0.021818
O40	O	-0.675031	-0.993010	-0.503192
O41	O	-0.341697	-0.659677	-0.169859
O42	O	-0.008364	-0.326343	0.163475
O43	O	-0.568700	-1.223190	-0.650061
O44	O	-0.235367	-0.889857	-0.316728
O45	O	0.097966	-0.556523	0.016606
O46	O	-0.857491	-1.235076	-0.413061
O47	O	-0.524157	-0.901743	-0.079728
O48	O	-0.190824	-0.568409	0.253606
O49	O	-0.856772	-1.127778	-0.510012
O50	O	-0.523438	-0.794445	-0.176679
O51	O	-0.190105	-0.461112	0.156654
C52	C	-0.604482	-0.965430	-0.450600
C53	C	-0.271149	-0.632096	-0.117267
C54	C	0.062185	-0.298763	0.216067
C55	C	-0.598206	-0.873000	-0.445924
C56	C	-0.264872	-0.539667	-0.112590
C57	C	0.068461	-0.206334	0.220743
C58	C	-0.895753	-1.181440	-0.461549
C59	C	-0.562419	-0.848106	-0.128216
C60	C	-0.229086	-0.514773	0.205117
C61	C	-1.014063	-1.181496	-0.461569
C62	C	-0.680730	-0.848162	-0.128236
C63	C	-0.347396	-0.514829	0.205098
C64	C	-0.586722	-0.703770	-0.437393
C65	C	-0.253389	-0.370436	-0.104060
C66	C	0.079945	-0.037103	0.229274
C67	C	-0.651803	-0.660037	-0.485768
C68	C	-0.318470	-0.326704	-0.152435
C69	C	0.014864	0.006629	0.180899
C70	C	-0.645413	-0.565872	-0.481022
C71	C	-0.312080	-0.232538	-0.147688
C72	C	0.021253	0.100795	0.185645
C73	C	-0.593110	-0.797944	-0.442138
C74	C	-0.259777	-0.464611	-0.108805
C75	C	0.073557	-0.131277	0.224528
C76	C	-1.154445	-1.239952	-0.408939
C77	C	-0.821112	-0.906618	-0.075606
C78	C	-0.487778	-0.573285	0.257728
C79	C	-1.077335	-1.165103	-0.384656
C80	C	-0.744002	-0.831770	-0.051322
C81	C	-0.410668	-0.498436	0.282011
C82	C	-1.089599	-1.256337	-0.485814
C83	C	-0.756265	-0.923004	-0.152481
C84	C	-0.422932	-0.589670	0.180853
C85	C	-1.147744	-1.106691	-0.437321
C86	C	-0.814410	-0.773357	-0.103987
C87	C	-0.481077	-0.440024	0.229346
C88	C	-1.160019	-1.197974	-0.538517
C89	C	-0.826686	-0.864641	-0.205184
C90	C	-0.493353	-0.531308	0.128149
C91	C	-1.082939	-1.123072	-0.514260
C92	C	-0.749606	-0.789738	-0.180927
C93	C	-0.416273	-0.456405	0.152407
C94	C	-0.341603	-1.181549	-0.461625
C95	C	-0.008270	-0.848216	-0.128291
C96	C	0.325064	-0.514882	0.205042
C97	C	-0.223301	-1.181577	-0.461645
C98	C	0.110033	-0.848244	-0.128311
C99	C	0.443366	-0.514910	0.205022
C100	C	-0.632482	-1.170538	-0.678471
C101	C	-0.299149	-0.837205	-0.345138
C102	C	0.034185	-0.503871	-0.011804
C103	C	-0.638135	-1.165874	-0.770898
C104	C	-0.304802	-0.832540	-0.437565
C105	C	0.028532	-0.499207	-0.104231
C106	C	-0.634012	-0.398381	-0.472584
C107	C	-0.300678	-0.065048	-0.139251
C108	C	0.032655	0.268286	0.194083
C109	C	-0.640323	-0.490812	-0.477240
C110	C	-0.306989	-0.157478	-0.143907
C111	C	0.026344	0.175855	0.189427
C112	C	-0.648430	-1.157327	-0.940122
C113	C	-0.315097	-0.823994	-0.606789
C114	C	0.018236	-0.490661	-0.273456
C115	C	-0.589695	-1.205803	-0.983892
C116	C	-0.256361	-0.872470	-0.650559
C117	C	0.076972	-0.539136	-0.317226
C118	C	-0.595423	-1.201048	-1.078054
C119	C	-0.262090	-0.867714	-0.744721
C120	C	0.071244	-0.534381	-0.411388
C121	C	-0.642703	-1.162082	-0.845952
C122	C	-0.309370	-0.828748	-0.512618
C123	C	0.023963	-0.495415	-0.179285
C124	C	-0.605929	-1.192434	-0.245530
C125	C	-0.272596	-0.859101	0.087804
C126	C	0.060738	-0.525767	0.421137
C127	C	-0.599987	-1.197259	-0.153111
C128	C	-0.266654	-0.863926	0.180222
C129	C	0.066680	-0.530593	0.513555
H130	H	-0.712318	-0.693318	-0.530749
H131	H	-0.378985	-0.359984	-0.197416
H132	H	-0.045651	-0.026651	0.135918
N133	N	-1.181664	-1.022883	-0.410086
N134	N	-0.848331	-0.689550	-0.076753
N135	N	-0.514998	-0.356217	0.256580
H136	H	-1.116579	-0.984894	-0.397750
H137	H	-0.783246	-0.651561	-0.064417
H138	H	-0.449912	-0.318227	0.268916
H139	H	-1.227707	-0.998065	-0.455859
H140	H	-0.894374	-0.664731	-0.122526
H141	H	-0.561041	-0.331398	0.210807
H142	H	-1.196166	-1.211907	-0.603543
H143	H	-0.862833	-0.878574	-0.270209
H144	H	-0.529500	-0.545241	0.063124
N145	N	-0.517389	-1.265515	-0.939869
N146	N	-0.184055	-0.932181	-0.606536
N147	N	0.149278	-0.598848	-0.273203
H148	H	-0.463608	-1.233523	-0.902110
H149	H	-0.130274	-0.900190	-0.568776
H150	H	0.203059	-0.566856	-0.235443
H151	H	-0.561205	-1.305810	-0.905842
H152	H	-0.227872	-0.972476	-0.572509
H153	H	0.105461	-0.639143	-0.239175
N154	N	-0.506588	-0.659696	-0.377795
N155	N	-0.173254	-0.326363	-0.044461
N156	N	0.160079	0.006971	0.288872
H157	H	-0.513342	-0.597701	-0.382803
H158	H	-0.180009	-0.264367	-0.049469
H159	H	0.153325	0.068966	0.283864
H160	H	-0.520440	-0.677814	-0.319138
H161	H	-0.187106	-0.344480	0.014195
H162	H	0.146227	-0.011147	0.347528
N163	N	-1.196013	-1.305317	-0.349899
N164	N	-0.862679	-0.971983	-0.016566
N165	N	-0.529346	-0.638650	0.316768
H166	H	-1.165762	-1.292787	-0.291811
H167	H	-0.832429	-0.959454	0.041523
H168	H	-0.499095	-0.626120	0.374856
H169	H	-1.276246	-1.305213	-0.350808
H170	H	-0.942913	-0.971880	-0.017474
H171	H	-0.609579	-0.638546	0.315859
N172	N	-1.029478	-1.146671	-0.298504
N173	N	-0.696145	-0.813338	0.034829
N174	N	-0.362812	-0.480004	0.368163
H175	H	-1.055495	-1.190826	-0.258758
H176	H	-0.722162	-0.857493	0.074575
H177	H	-0.388828	-0.524160	0.407909
H178	H	-0.949319	-1.146224	-0.299300
H179	H	-0.615985	-0.812890	0.034034
H180	H	-0.282652	-0.479557	0.367367
H181	H	-1.051749	-1.073617	-0.558797
H182	H	-0.718416	-0.740284	-0.225463
H183	H	-0.385083	-0.406951	0.107870
N184	N	-0.720719	-1.097614	-0.984150
N185	N	-0.387385	-0.764281	-0.650817
N186	N	-0.054052	-0.430947	-0.317483
H187	H	-0.714605	-1.102638	-1.046150
H188	H	-0.381271	-0.769304	-0.712816
H189	H	-0.047938	-0.435971	-0.379483
H190	H	-0.796720	-1.111278	-0.969684
H191	H	-0.463386	-0.777945	-0.636351
H192	H	-0.130053	-0.444612	-0.303017
H193	H	-1.063845	-1.319595	-0.506287
H194	H	-0.730512	-0.986261	-0.172954
H195	H	-0.397179	-0.652928	0.160379
