data_functionalizedCrystal
_audit_creation_method	'MofGen! by Chris Wilmer'
_symmetry_space_group_name_H-M	'P1'
_symmetry_Int_Tables_number	1
_symmetry_cell_setting	triclinic
loop_
_symmetry_equiv_pos_as_xyz
  x,y,z
_cell_length_a	26.374263
_cell_length_b	26.373608
_cell_length_c	26.370205
_cell_angle_alpha	60.005297
_cell_angle_beta	60.010839
_cell_angle_gamma	59.993700
loop_
_atom_site_label
_atom_site_type_symbol
_atom_site_fract_x
_atom_site_fract_y
_atom_site_fract_z
O1	O	0.070152	-0.740800	0.619517
O2	O	0.026377	-0.576764	0.499159
O3	O	0.130245	-0.680560	0.499088
O4	O	-0.033715	-0.637003	0.619589
O5	O	0.164701	-0.646107	0.533470
O6	O	0.060833	-0.542310	0.533541
O7	O	0.104608	-0.706346	0.653899
Cu8	Cu	0.085867	-0.621182	0.596859
Cu9	Cu	0.045119	-0.661927	0.556199
O10	O	0.000741	-0.602549	0.653971
N11	N	0.114528	-0.592529	0.625461
N12	N	0.016463	-0.690587	0.527598
C13	C	0.181428	-0.355400	0.692330
C14	C	0.181530	-0.525690	0.862573
C15	C	0.181440	-0.525667	0.692313
C16	C	0.351736	-0.525673	0.692271
C17	C	0.200174	-0.411588	0.711047
C18	C	0.200232	-0.506954	0.806384
C19	C	0.295546	-0.506943	0.711016
C20	C	0.200182	-0.506940	0.711037
C21	C	0.157567	-0.283881	0.668507
C22	C	0.157587	-0.549500	0.668479
C23	C	0.224035	-0.483107	0.734871
C24	C	0.455739	-0.507754	0.637520
C25	C	0.520749	-0.529425	0.615835
C26	C	0.520768	-0.634611	0.655947
C27	C	0.455759	-0.612939	0.677633
C28	C	0.173240	-0.251367	0.604595
C29	C	0.151546	-0.186351	0.582941
C30	C	0.098512	-0.186369	0.689113
C31	C	0.120206	-0.251385	0.710768
C32	C	0.093669	-0.533798	0.684205
C33	C	0.071992	-0.555464	0.662532
C34	C	0.178144	-0.608536	0.609422
C35	C	0.199825	-0.586869	0.631088
C36	C	0.093821	-0.533842	0.966616
C37	C	0.072187	-0.555526	1.031630
C38	C	0.178370	-0.608608	1.031591
C39	C	0.200004	-0.586926	0.966576
C40	C	0.157728	-0.549541	0.934090
C41	C	0.423247	-0.549509	0.668416
C42	C	-0.097522	-0.709158	0.508557
C43	C	-0.002050	-0.709295	0.413344
C44	C	-0.002241	-0.804604	0.508735
C45	C	-0.002225	-0.709288	0.508793
C46	C	-0.026009	-0.733087	0.484858
N47	N	0.552340	-0.592538	0.625346
O48	O	0.750867	-0.598274	0.477076
O49	O	0.751048	-0.718989	0.640960
O50	O	0.750981	-0.718715	0.537020
O51	O	0.750934	-0.598547	0.581017
O52	O	0.647701	-0.684348	0.571512
O53	O	0.647768	-0.684622	0.675452
O54	O	0.647587	-0.563907	0.511569
Cu55	Cu	0.638247	-0.621127	0.596660
Cu56	Cu	0.760388	-0.661769	0.555869
O57	O	0.647654	-0.564181	0.615509
N58	N	0.846295	-0.690358	0.527176
N59	N	0.114503	-0.154778	0.625499
O60	O	-0.033701	0.043855	0.619632
O61	O	0.130190	0.043858	0.498933
O62	O	0.026233	0.043841	0.499224
O63	O	0.070257	0.043872	0.619341
O64	O	0.060690	-0.059448	0.533654
O65	O	0.164647	-0.059431	0.533363
O66	O	0.000756	-0.059434	0.654062
Cu67	Cu	0.085848	-0.068863	0.596857
Cu68	Cu	0.045099	0.053287	0.556138
O69	O	0.104714	-0.059417	0.653771
N70	N	0.016435	0.139202	0.527497
N71	N	0.114760	-0.592585	1.063190
O72	O	0.108896	-0.740779	1.261808
O73	O	-0.011787	-0.576838	1.261822
O74	O	-0.011509	-0.680779	1.261780
O75	O	0.108618	-0.636838	1.261850
O76	O	0.022916	-0.646341	1.158496
O77	O	0.022638	-0.542399	1.158538
O78	O	0.143321	-0.706341	1.158524
Cu79	Cu	0.086123	-0.621225	1.149100
Cu80	Cu	0.045411	-0.661953	1.271246
O81	O	0.143044	-0.602399	1.158566
N82	N	0.016774	-0.690600	1.357156
C83	C	0.039504	-0.538867	0.499769
C84	C	0.168130	-0.667407	0.499680
C85	C	0.091482	-0.744243	0.653289
C86	C	-0.037145	-0.615703	0.653378
C87	C	0.699429	-0.718429	0.678853
C88	C	0.699348	-0.718091	0.550135
C89	C	0.699202	-0.564465	0.473677
C90	C	0.699287	-0.564805	0.602393
C91	C	0.168023	-0.007659	0.499484
C92	C	0.039327	-0.007807	0.499887
C93	C	-0.037119	-0.007789	0.653468
C94	C	0.091620	-0.007770	0.653109
C95	C	-0.011194	-0.538964	1.210181
C96	C	-0.010843	-0.667676	1.210109
C97	C	0.142729	-0.744214	1.210165
C98	C	0.142386	-0.615494	1.210214
H99	H	0.059391	-0.503396	0.940172
H100	H	0.180620	-0.791296	1.210154
H101	H	0.101045	-0.007760	0.690842
H102	H	0.699278	-0.527058	0.611808
C103	C	0.224040	-0.649003	0.568724
C104	C	0.261298	-0.616339	0.514591
C105	C	0.303578	-0.653591	0.477081
H106	H	0.249480	-0.685777	0.590689
H107	H	0.202002	-0.659648	0.558024
H108	H	0.283334	-0.605703	0.525292
H109	H	0.235876	-0.579568	0.492610
H110	H	0.281540	-0.664236	0.466380
H111	H	0.329013	-0.690363	0.499051
H112	H	0.328858	-0.631432	0.440345
C113	C	0.103823	-0.807076	0.703720
C114	C	0.061475	-0.834406	0.720291
C115	C	0.072819	-0.892284	0.766751
H116	H	0.144906	-0.833160	0.688676
H117	H	0.099151	-0.801711	0.739046
H118	H	0.066152	-0.839774	0.684972
H119	H	0.020388	-0.808339	0.735346
H120	H	0.068147	-0.886919	0.802078
H121	H	0.113903	-0.918362	0.751703
H122	H	0.044084	-0.910831	0.778005
H123	H	0.699142	-0.526565	0.426612
H124	H	0.699474	-0.756325	0.725922
C125	C	-0.099965	-0.603197	0.703770
C126	C	-0.138231	-0.542583	0.681421
C127	C	-0.196102	-0.531038	0.727827
H128	H	-0.118660	-0.631839	0.715117
H129	H	-0.094568	-0.607830	0.739061
H130	H	-0.143630	-0.537956	0.646141
H131	H	-0.119556	-0.513929	0.670078
H132	H	-0.190705	-0.535670	0.763119
H133	H	-0.214791	-0.559683	0.739172
H134	H	-0.222071	-0.489909	0.712673
C135	C	-0.061121	-0.680300	1.210118
C136	C	-0.075257	-0.730255	1.263219
C137	C	-0.121564	-0.741907	1.263245
H138	H	-0.097306	-0.644448	1.210136
H139	H	-0.046752	-0.690183	1.174100
H140	H	-0.089628	-0.720369	1.299228
H141	H	-0.039086	-0.766117	1.263212
H142	H	-0.107194	-0.751790	1.227226
H143	H	-0.157745	-0.706052	1.263260
H144	H	-0.131157	-0.775805	1.299269
H145	H	0.699366	-0.755841	0.540718
C146	C	0.224369	-0.649214	1.066749
C147	C	0.284967	-0.658335	1.024349
C148	C	0.327356	-0.695751	1.056714
H149	H	0.218219	-0.629425	1.092120
H150	H	0.218172	-0.688206	1.092088
H151	H	0.291161	-0.619350	0.999021
H152	H	0.291137	-0.678131	0.998977
H153	H	0.321159	-0.734743	1.082053
H154	H	0.321200	-0.675958	1.082084
H155	H	0.368476	-0.701949	1.027951
C156	C	0.026788	-0.007962	0.449633
C157	C	0.012311	-0.061121	0.470943
C158	C	0.000771	-0.061296	0.424664
H159	H	-0.007105	0.028007	0.439926
H160	H	0.062683	-0.008002	0.413491
H161	H	-0.023580	-0.061075	0.507074
H162	H	0.046196	-0.097098	0.480646
H163	H	0.036666	-0.061336	0.388522
H164	H	-0.033121	-0.025325	0.414960
H165	H	-0.009048	-0.097366	0.439114
H166	H	0.214995	-0.007372	0.461496
C167	C	-0.099933	-0.007744	0.703904
C168	C	-0.138284	-0.007734	0.681651
C169	C	-0.196157	-0.007679	0.728090
H170	H	-0.094576	-0.043745	0.739229
H171	H	-0.118538	0.028297	0.715167
H172	H	-0.119683	-0.043772	0.670397
H173	H	-0.143659	0.028264	0.646332
H174	H	-0.214762	0.028363	0.739353
H175	H	-0.190794	-0.043680	0.763412
H176	H	-0.222187	-0.007666	0.712997
H177	H	0.215222	-0.676694	0.461838
C178	C	-0.061649	-0.476154	1.210216
C179	C	-0.039403	-0.437835	1.210256
C180	C	-0.085867	-0.379973	1.210296
H181	H	-0.072964	-0.457489	1.174201
H182	H	-0.096943	-0.481563	1.246241
H183	H	-0.004120	-0.432425	1.174234
H184	H	-0.028092	-0.456480	1.246267
H185	H	-0.121160	-0.385382	1.246321
H186	H	-0.097179	-0.361314	1.174281
H187	H	-0.070781	-0.353968	1.210329
C188	C	0.192730	-0.602887	1.210104
C189	C	0.206857	-0.552954	1.156967
C190	C	0.253237	-0.541327	1.156840
H191	H	0.178449	-0.592991	1.246085
H192	H	0.228899	-0.638769	1.210069
H193	H	0.170696	-0.517079	1.157008
H194	H	0.221149	-0.562837	1.120977
H195	H	0.289406	-0.577210	1.156805
H196	H	0.238951	-0.531433	1.192823
H197	H	0.262832	-0.507451	1.120785
C198	C	0.002775	-0.538375	1.066826
C199	C	-0.029612	-0.500978	1.024457
C200	C	-0.093554	-0.485163	1.056856
H201	H	-0.007960	-0.575085	1.092187
H202	H	-0.007898	-0.516292	1.092178
H203	H	-0.018943	-0.523062	0.999115
H204	H	-0.018896	-0.464260	0.999095
H205	H	-0.104227	-0.463079	1.082209
H206	H	-0.104283	-0.521876	1.082216
H207	H	-0.115537	-0.459783	1.028114
H208	H	0.252044	-0.599714	0.940097
H209	H	0.059274	-0.503369	0.714648
H210	H	0.429307	-0.646943	0.702793
C211	C	0.002571	-0.538383	0.679701
C212	C	-0.029781	-0.501041	0.717106
C213	C	-0.093731	-0.485304	0.732942
H214	H	-0.008200	-0.516285	0.643001
H215	H	-0.008094	-0.575142	0.701783
H216	H	-0.019121	-0.464289	0.695024
H217	H	-0.019028	-0.523127	0.753814
H218	H	-0.104396	-0.522062	0.755024
H219	H	-0.104496	-0.463207	0.696239
H220	H	-0.115690	-0.459970	0.758328
C221	C	0.269199	-0.603823	0.614061
C222	C	0.279146	-0.576838	0.641029
C223	C	0.343044	-0.592438	0.625351
H224	H	0.287540	-0.647679	0.628996
H225	H	0.287454	-0.588843	0.570194
H226	H	0.260899	-0.591822	0.684887
H227	H	0.260819	-0.532983	0.626098
H228	H	0.361299	-0.577457	0.581483
H229	H	0.361380	-0.636293	0.640287
H230	H	0.349802	-0.574126	0.643641
C231	C	0.555957	-0.703504	0.666036
C232	C	0.513587	-0.735437	0.697749
C233	C	0.545982	-0.798903	0.707060
H234	H	0.581304	-0.709617	0.627011
H235	H	0.581320	-0.718783	0.689876
H236	H	0.488234	-0.720163	0.673909
H237	H	0.488238	-0.729343	0.736780
H238	H	0.571346	-0.814183	0.730901
H239	H	0.571329	-0.805010	0.668032
H240	H	0.517239	-0.820579	0.728583
H241	H	0.429268	-0.456103	0.630015
C242	C	0.555920	-0.483988	0.582273
C243	C	0.513534	-0.423797	0.578827
C244	C	0.545911	-0.381924	0.547903
H245	H	0.581301	-0.494782	0.604373
H246	H	0.581249	-0.485612	0.541523
H247	H	0.488216	-0.422174	0.619570
H248	H	0.488152	-0.412983	0.556722
H249	H	0.571240	-0.383549	0.507153
H250	H	0.571291	-0.392725	0.570006
H251	H	0.517158	-0.341080	0.545556
H252	H	0.203661	-0.277820	0.570179
H253	H	0.068098	-0.159910	0.723527
C254	C	0.168650	-0.151156	0.513523
C255	C	0.206026	-0.193532	0.481149
C256	C	0.221799	-0.161136	0.417201
H257	H	0.131926	-0.125794	0.502795
H258	H	0.190732	-0.125803	0.502831
H259	H	0.183944	-0.218874	0.491837
H260	H	0.242758	-0.218895	0.491858
H261	H	0.243881	-0.135783	0.406509
H262	H	0.185072	-0.135775	0.406480
H263	H	0.247165	-0.189882	0.395228
C264	C	0.026912	-0.476010	0.449430
C265	C	-0.033708	-0.437804	0.471847
C266	C	-0.045332	-0.379899	0.425490
H267	H	0.055530	-0.457286	0.438078
H268	H	0.031519	-0.481372	0.414131
H269	H	-0.038309	-0.432441	0.507135
H270	H	-0.062339	-0.456508	0.483195
H271	H	-0.040725	-0.385261	0.390190
H272	H	-0.016710	-0.361181	0.414141
H273	H	-0.086464	-0.353971	0.440691
H274	H	0.107441	-0.277854	0.762810
