data_functionalizedCrystal
_audit_creation_method	'MofGen! by Chris Wilmer'
_symmetry_space_group_name_H-M	'P1'
_symmetry_Int_Tables_number	1
_symmetry_cell_setting	triclinic
loop_
_symmetry_equiv_pos_as_xyz
  x,y,z
_cell_length_a	14.044220
_cell_length_b	14.586319
_cell_length_c	16.109301
_cell_angle_alpha	89.994786
_cell_angle_beta	88.325179
_cell_angle_gamma	90.001391
loop_
_atom_site_label
_atom_site_type_symbol
_atom_site_fract_x
_atom_site_fract_y
_atom_site_fract_z
O1	O	1.257643	-0.076149	0.200436
O2	O	1.757643	0.423851	0.700436
O3	O	0.981677	-0.076172	0.193203
O4	O	1.481677	0.423828	0.693203
O5	O	1.127241	-0.076150	0.076352
O6	O	1.627241	0.423850	0.576352
O7	O	1.112079	-0.076170	0.317286
O8	O	1.612079	0.423830	0.817286
O9	O	1.127231	0.076331	0.076350
O10	O	1.627231	0.576331	0.576350
O11	O	0.981666	0.076309	0.193200
O12	O	1.481666	0.576309	0.693200
O13	O	1.257633	0.076332	0.200433
O14	O	1.757633	0.576332	0.700433
Cu15	Cu	1.119649	0.090243	0.196816
Cu16	Cu	1.619649	0.590243	0.696816
Cu17	Cu	1.119661	-0.090083	0.196820
Cu18	Cu	1.619661	0.409917	0.696820
O19	O	1.112069	0.076311	0.317284
O20	O	1.612069	0.576311	0.817284
C21	C	0.946358	0.000066	0.190036
C22	C	1.446358	0.500066	0.690036
C23	C	0.841135	0.000058	0.180592
C24	C	1.341135	0.500058	0.680592
C25	C	1.126622	0.000091	0.045330
C26	C	1.626622	0.500091	0.545330
C27	C	1.124781	0.000092	-0.047102
C28	C	1.624781	0.500092	0.452898
C29	C	0.648479	0.000077	0.163326
C30	C	1.148479	0.500077	0.663326
C31	C	0.590825	0.000075	0.230306
C32	C	1.090825	0.500075	0.730306
C33	C	0.483625	0.000086	0.220699
C34	C	0.983625	0.500086	0.720699
C35	C	0.755690	0.000066	0.172932
C36	C	1.255690	0.500066	0.672932
C37	C	1.292952	0.000093	0.203600
C38	C	1.792952	0.500093	0.703600
C39	C	1.398175	0.000095	0.213044
C40	C	1.898175	0.500095	0.713044
N41	N	1.119647	0.217075	0.196814
N42	N	1.619647	0.717075	0.696814
N43	N	1.119670	-0.216915	0.196816
N44	N	1.619670	0.283085	0.696816
C45	C	1.184125	0.452091	0.145093
C46	C	1.684125	0.952091	0.645093
C47	C	1.184128	0.548072	0.145092
C48	C	1.684128	1.048072	0.645092
C49	C	1.055186	0.548063	0.248539
C50	C	1.555186	1.048063	0.748539
C51	C	1.055179	0.452083	0.248536
C52	C	1.555179	0.952083	0.748536
C53	C	1.119654	0.404100	0.196814
C54	C	1.619654	0.904100	0.696814
C55	C	1.119663	0.596061	0.196816
C56	C	1.619663	1.096061	0.696816
C57	C	1.119666	0.700128	0.196814
C58	C	1.619666	1.200128	0.696814
C59	C	1.119651	0.300026	0.196815
C60	C	1.619651	0.800026	0.696815
C61	C	1.206874	0.000084	-0.263266
C62	C	1.706874	0.500084	0.236734
C63	C	1.205137	0.000076	-0.350116
C64	C	1.705137	0.500076	0.149884
C65	C	1.032429	0.000066	-0.343091
C66	C	1.532429	0.500066	0.156909
C67	C	1.034168	0.000067	-0.256243
C68	C	1.534168	0.500067	0.243757
C69	C	1.121393	0.000081	-0.216333
C70	C	1.621393	0.500081	0.283667
C71	C	1.117917	0.000072	-0.390031
C72	C	1.617917	0.500072	0.109969
C73	C	1.116032	0.000064	-0.484197
C74	C	1.616032	0.500064	0.015803
C75	C	1.123278	0.000087	-0.122161
C76	C	1.623278	0.500087	0.377839
C77	C	1.112688	0.000068	0.348306
C78	C	1.612688	0.500068	0.848306
C79	C	1.114529	0.000061	0.440738
C80	C	1.614529	0.500061	0.940738
H81	H	0.617330	0.000087	0.098774
H82	H	1.117330	0.500087	0.598774
H83	H	1.277898	0.000094	-0.230774
H84	H	1.777898	0.500094	0.269226
C85	C	0.985332	0.399856	0.304749
C86	C	1.485332	0.899856	0.804749
C87	C	1.035803	0.344726	0.359394
C88	C	1.535803	0.844726	0.859394
C89	C	0.971493	0.296593	0.411178
C90	C	1.471493	0.796593	0.911178
H91	H	0.946913	0.442073	0.335636
H92	H	1.446913	0.942073	0.835636
H93	H	0.945898	0.362367	0.271918
H94	H	1.445898	0.862367	0.771918
H95	H	1.075220	0.382212	0.392222
H96	H	1.575220	0.882212	0.892222
H97	H	1.074218	0.302492	0.328530
H98	H	1.574218	0.802492	0.828530
H99	H	0.932059	0.259104	0.378347
H100	H	1.432059	0.759104	0.878347
H101	H	0.933078	0.338817	0.442059
H102	H	1.433078	0.838817	0.942059
H103	H	1.005728	0.259176	0.448255
H104	H	1.505728	0.759176	0.948255
H105	H	1.236623	0.413025	0.102977
H106	H	1.736623	0.913025	0.602977
H107	H	1.236624	0.587144	0.102975
H108	H	1.736624	1.087144	0.602975
C109	C	0.632215	-0.000094	0.316442
C110	C	1.132215	0.499906	0.816442
C111	C	0.601372	-0.078539	0.359504
C112	C	1.101372	0.421461	0.859504
C113	C	0.639471	-0.078726	0.438856
C114	C	1.139471	0.421274	0.938856
H115	H	0.699789	-0.000150	0.311670
H116	H	1.199789	0.499850	0.811670
H117	H	0.611391	0.053046	0.345841
H118	H	1.111391	0.553046	0.845841
H119	H	0.622201	-0.131665	0.330113
H120	H	1.122201	0.368335	0.830113
H121	H	0.533803	-0.078499	0.364299
H122	H	1.033803	0.421501	0.864299
H123	H	0.618647	-0.025586	0.468255
H124	H	1.118647	0.474414	0.968255
H125	H	0.707044	-0.078780	0.434075
H126	H	1.207044	0.421220	0.934075
H127	H	0.618543	-0.131945	0.468086
H128	H	1.118543	0.368055	0.968086
C129	C	1.298049	0.000130	-0.400926
C130	C	1.798049	0.500130	0.099074
C131	C	1.374803	0.000165	-0.347382
C132	C	1.874803	0.500165	0.152618
C133	C	1.460412	0.000225	-0.394158
C134	C	1.960412	0.500225	0.105842
H135	H	1.301101	-0.053030	-0.434954
H136	H	1.801101	0.446970	0.065046
H137	H	1.301009	0.053323	-0.434943
H138	H	1.801009	0.553323	0.065057
H139	H	1.371844	-0.053023	-0.313380
H140	H	1.871844	0.446977	0.186620
H141	H	1.371782	0.053321	-0.313354
H142	H	1.871782	0.553321	0.186646
H143	H	1.463372	0.053418	-0.428175
H144	H	1.963372	0.553418	0.071825
H145	H	1.463454	-0.052936	-0.428184
H146	H	1.963454	0.447064	0.071816
H147	H	1.512500	0.000257	-0.357836
H148	H	2.012500	0.500257	0.142164
C149	C	0.941383	-0.000127	-0.205238
C150	C	1.441383	0.499873	0.294762
C151	C	0.937332	-0.078588	-0.155185
C152	C	1.437332	0.421412	0.344815
C153	C	0.851872	-0.078808	-0.108197
C154	C	1.351872	0.421192	0.391803
H155	H	0.938378	0.052983	-0.171144
H156	H	1.438378	0.552983	0.328856
H157	H	0.889159	-0.000179	-0.241418
H158	H	1.389159	0.499821	0.258582
H159	H	0.989542	-0.078527	-0.119009
H160	H	1.489542	0.421473	0.380991
H161	H	0.940321	-0.131711	-0.189258
H162	H	1.440321	0.368289	0.310742
H163	H	0.799649	-0.078861	-0.144376
H164	H	1.299649	0.421139	0.355624
H165	H	0.848875	-0.025695	-0.074107
H166	H	1.348875	0.474305	0.425893
H167	H	0.849109	-0.132047	-0.074236
H168	H	1.349109	0.367953	0.425764
C169	C	0.985301	0.600327	0.304669
C170	C	1.485301	1.100327	0.804669
C171	C	0.999122	0.694654	0.293621
C172	C	1.499122	1.194654	0.793621
C173	C	0.934771	0.742826	0.345325
C174	C	1.434771	1.242826	0.845325
H175	H	0.922003	0.584715	0.290971
H176	H	1.422003	1.084715	0.790971
H177	H	0.995585	0.584640	0.360942
H178	H	1.495585	1.084640	0.860942
H179	H	0.988830	0.710335	0.237361
H180	H	1.488830	1.210335	0.737361
H181	H	1.062407	0.710294	0.307325
H182	H	1.562407	1.210294	0.807325
H183	H	0.945056	0.727139	0.401598
H184	H	1.445056	1.227139	0.901598
H185	H	0.871477	0.727207	0.331623
H186	H	1.371477	1.227207	0.831623
H187	H	0.944146	0.806832	0.337842
H188	H	1.444146	1.306832	0.837842
C189	C	0.937828	0.000108	-0.386578
C190	C	1.437828	0.500108	0.113422
C191	C	0.954598	0.000135	-0.472682
C192	C	1.454598	0.500135	0.027318
C193	C	0.867473	0.000189	-0.512767
C194	C	1.367473	0.500189	-0.012767
H195	H	0.902559	-0.053052	-0.370997
H196	H	1.402559	0.446948	0.129003
H197	H	0.902624	0.053301	-0.370953
H198	H	1.402624	0.553301	0.129047
H199	H	0.989787	-0.053054	-0.488302
H200	H	1.489787	0.446946	0.011698
H201	H	0.989853	0.053291	-0.488288
H202	H	1.489853	0.553291	0.011712
H203	H	0.832269	0.053383	-0.497141
H204	H	1.332269	0.553383	0.002859
H205	H	0.832210	-0.052972	-0.497179
H206	H	1.332210	0.447028	0.002821
H207	H	0.878840	0.000216	-0.571192
H208	H	1.378840	0.500216	-0.071192
