data_functionalizedCrystal
_audit_creation_method	'MofGen! by Chris Wilmer'
_symmetry_space_group_name_H-M	'P1'
_symmetry_Int_Tables_number	1
_symmetry_cell_setting	triclinic
loop_
_symmetry_equiv_pos_as_xyz
  x,y,z
_cell_length_a	23.096457
_cell_length_b	23.096457
_cell_length_c	20.875658
_cell_angle_alpha	58.317767
_cell_angle_beta	87.028370
_cell_angle_gamma	59.998275
loop_
_atom_site_label
_atom_site_type_symbol
_atom_site_fract_x
_atom_site_fract_y
_atom_site_fract_z
Zr1	Zr	0.561695	0.633759	-0.084186
O2	O	0.474041	0.754546	-0.186601
O3	O	0.588567	0.512970	-0.052792
O4	O	0.594832	0.633758	-0.186608
O5	O	0.462831	0.633760	0.052774
O6	O	0.690113	0.633760	-0.186612
O7	O	0.467775	0.633758	-0.052785
O8	O	0.678905	0.417692	0.052760
O9	O	0.474038	0.849828	-0.186599
O10	O	0.671132	0.562655	-0.039404
O11	O	0.596336	0.562655	0.039376
O12	O	0.603712	0.704867	-0.118175
O13	O	0.528916	0.704867	-0.039395
Zr14	Zr	0.705771	0.633765	0.084161
Zr15	Zr	0.713656	0.633762	-0.084192
Zr16	Zr	0.553809	0.633762	0.084167
Zr17	Zr	0.561691	0.785722	-0.084183
Zr18	Zr	0.705774	0.481802	0.084158
O19	O	0.678898	0.754554	0.052767
O20	O	0.690110	0.754550	-0.186610
O21	O	0.462828	0.754550	0.052776
O22	O	0.793425	0.512978	0.186576
O23	O	0.804637	0.512974	-0.052801
O24	O	0.577355	0.512974	0.186585
O25	O	0.804634	0.633764	-0.052799
O26	O	0.672633	0.633766	0.186583
O27	O	0.577352	0.633764	0.186587
O28	O	0.799690	0.633766	0.052760
O29	O	0.594828	0.849830	-0.186604
O30	O	0.672638	0.417694	0.186579
O31	O	0.793427	0.417696	0.186574
O32	O	0.799695	0.417694	0.052755
O33	O	0.467771	0.849830	-0.052780
O34	O	0.588560	0.849832	-0.052785
O35	O	0.663753	0.562657	0.118150
O36	O	0.738549	0.562657	0.039370
O37	O	0.671129	0.704869	-0.039401
O38	O	0.596333	0.704869	0.039379
C39	C	0.633737	0.443680	-0.000016
C40	C	0.633738	0.379168	-0.000018
C41	C	0.443652	0.633759	-0.000005
C42	C	0.379140	0.633758	-0.000002
C43	C	0.672776	-0.081350	-0.041122
C44	C	0.672775	-0.020730	-0.041129
C45	C	0.633733	0.009582	-0.000006
C46	C	0.594675	-0.020715	0.041110
C47	C	0.594672	-0.081328	0.041109
N48	N	0.635751	0.071977	0.066914
N49	N	0.635758	0.129556	0.066913
C50	C	0.633738	0.192208	-0.000004
N51	N	0.631725	0.195099	-0.066919
N52	N	0.631722	0.137512	-0.066916
C53	C	0.633731	0.075308	-0.000002
C54	C	0.672788	0.288233	-0.041130
C55	C	0.672781	0.348858	-0.041140
C56	C	0.594686	0.348866	0.041107
C57	C	0.594688	0.288249	0.041109
C58	C	0.633743	0.257933	-0.000008
C59	C	0.384027	0.559527	0.041108
C60	C	0.323412	0.559525	0.041111
C61	C	0.257910	0.633760	-0.000011
C62	C	0.253025	0.708000	-0.041123
C63	C	0.313640	0.708000	-0.041119
N64	N	0.138248	0.689015	-0.066936
N65	N	0.080669	0.689011	-0.066939
C66	C	0.075278	0.633767	-0.000025
N67	N	0.129648	0.578514	0.066891
N68	N	0.187234	0.578516	0.066892
C69	C	0.192179	0.633769	-0.000019
C70	C	0.014441	0.559529	0.041093
C71	C	-0.046177	0.559531	0.041099
C72	C	-0.116563	0.708009	-0.041143
C73	C	-0.055945	0.708004	-0.041141
C74	C	0.009555	0.633763	-0.000025
C75	C	0.823813	0.633765	-0.000020
C76	C	0.888325	0.633766	-0.000023
C77	C	0.643596	0.633759	-0.210597
C78	C	0.646944	0.633758	-0.282068
C79	C	0.633728	0.823844	-0.000009
C80	C	0.633727	0.888356	-0.000007
C81	C	0.596028	0.633755	-0.315645
C82	C	0.599175	0.633762	-0.382803
C83	C	0.653241	0.633764	-0.416379
C84	C	0.704160	0.633769	-0.382799
C85	C	0.701010	0.633768	-0.315645
C86	C	0.668290	0.633771	-0.617223
C87	C	0.671437	0.633769	-0.684380
C88	C	0.566451	0.633763	-0.684380
C89	C	0.563308	0.633758	-0.617223
C90	C	0.614224	0.633767	-0.583651
N91	N	0.656461	0.633768	-0.485024
N92	N	0.611002	0.633769	-0.515010
C93	C	0.623869	0.633765	0.210572
C94	C	0.620521	0.633766	0.282043
C95	C	0.823817	0.443683	-0.000024
C96	C	0.888330	0.379172	-0.000028
C97	C	0.623873	0.443683	0.210568
C98	C	0.620527	0.379172	0.282037
C99	C	0.813954	0.443686	0.210560
C100	C	0.875119	0.379176	0.282027
C101	C	0.453511	0.823838	-0.210585
C102	C	0.392346	0.888348	-0.282052
C103	C	0.443648	0.823841	-0.000001
C104	C	0.379135	0.888352	0.000003
C105	C	0.643592	0.823841	-0.210593
C106	C	0.646938	0.888352	-0.282062
C107	C	0.883436	0.348876	-0.041156
C108	C	0.944048	0.288269	-0.041176
C109	C	1.009553	0.257956	-0.000062
C110	C	1.014446	0.288258	0.041068
C111	C	0.953835	0.348868	0.041082
C112	C	0.654146	0.348878	0.356726
C113	C	0.650999	0.288272	0.423886
C114	C	0.614237	0.257956	0.416354
C115	C	0.580613	0.288256	0.341657
C116	C	0.583756	0.348865	0.274500
C117	C	0.942893	0.348882	0.274466
C118	C	1.000370	0.288276	0.341610
C119	C	0.990073	0.257962	0.416314
C120	C	0.922292	0.288263	0.423874
C121	C	0.864816	0.348871	0.356730
C122	C	0.324572	0.918649	-0.274491
C123	C	0.267095	0.979274	-0.341635
C124	C	0.277392	1.009591	-0.416339
C125	C	0.345173	0.979286	-0.423899
C126	C	0.402649	0.918667	-0.356755
C127	C	0.384030	0.918655	0.041124
C128	C	0.323419	0.979278	0.041125
C129	C	0.257913	1.009593	0.000009
C130	C	0.253020	0.979288	-0.041117
C131	C	0.313630	0.918670	-0.041122
C132	C	0.683707	0.918648	-0.274506
C133	C	0.686864	0.979255	-0.341652
C134	C	0.653249	1.009569	-0.416354
C135	C	0.616479	0.979266	-0.423910
C136	C	0.613326	0.918656	-0.356764
H137	H	0.704575	-0.106030	-0.074603
H138	H	0.316175	0.893968	-0.213669
H139	H	0.748180	0.633776	-0.410144
N140	N	-0.061214	0.788070	-0.085498
H141	H	-0.012876	0.776806	-0.079256
H142	H	-0.089033	0.820492	-0.063908
H143	H	0.830104	0.373556	-0.074646
H144	H	1.058901	0.208603	-0.000079
N145	N	0.573653	0.885997	-0.364923
H146	H	0.576750	0.843002	-0.311056
H147	H	0.594531	0.860897	-0.394623
N148	N	0.552557	-0.114011	0.085461
H149	H	0.527823	-0.085611	0.111512
H150	H	0.584706	-0.174857	0.126801
H151	H	0.199690	0.768442	-0.074604
H152	H	1.036880	0.208611	0.470980
H153	H	0.552003	0.633748	-0.288308
H154	H	0.211910	1.003937	-0.335465
H155	H	0.230586	1.058951	-0.471005
N156	N	0.719977	0.885959	-0.193944
H157	H	0.755937	0.825114	-0.164255
H158	H	0.684506	0.896565	-0.164303
H159	H	0.655822	1.058921	-0.471022
H160	H	0.589111	1.003957	-0.484741
H161	H	0.353549	1.003979	-0.484731
H162	H	0.957830	0.373527	0.074578
N163	N	0.693797	0.381567	0.364869
H164	H	0.660971	0.442414	0.338839
H165	H	0.732373	0.370959	0.338857
H166	H	0.611682	0.208604	0.471045
H167	H	0.327416	1.003942	0.074618
H168	H	0.940050	0.263604	-0.074668
H169	H	0.704586	0.263552	-0.074613
H170	H	0.309635	0.893999	-0.074606
H171	H	0.550682	0.263564	0.335537
H172	H	0.309656	0.768449	-0.074594
H173	H	0.208566	1.058952	0.000020
N174	N	0.511538	0.633755	-0.720595
H175	H	0.486571	0.684239	-0.776419
H176	H	0.476855	0.633722	-0.689078
N177	N	0.714896	0.011950	-0.085475
H178	H	0.708969	0.054950	-0.079236
H179	H	0.698101	0.037052	-0.142981
H180	H	0.709749	0.633776	-0.589893
N181	N	0.544263	0.633744	-0.419006
H182	H	0.519287	0.684226	-0.474829
H183	H	0.509588	0.633703	-0.387479
H184	H	1.067789	0.263568	0.074541
H185	H	0.199677	1.003980	-0.074593
H186	H	0.716805	1.003921	-0.335485
N187	N	0.687269	0.255596	0.504445
H188	H	0.711039	0.283995	0.499019
H189	H	0.723195	0.194748	0.534099
H190	H	0.951290	0.373555	0.213644
H191	H	0.556382	0.373523	0.213687
H192	H	1.055555	0.263612	0.335441
N193	N	0.729758	0.633774	-0.720588
H194	H	0.709474	0.684254	-0.776414
H195	H	0.757324	0.583255	-0.720427
H196	H	0.562886	0.003971	0.074590
H197	H	0.913918	0.263572	0.484707
H198	H	0.809634	0.373529	0.362897
H199	H	0.742470	0.633772	-0.288308
H200	H	0.457832	0.893996	-0.362921
H201	H	0.437362	0.893976	0.074611
H202	H	0.704577	0.373527	-0.074625
N203	N	0.504985	0.633762	-0.581023
H204	H	0.477404	0.684245	-0.581123
H205	H	0.525319	0.583245	-0.525218
N206	N	0.328668	0.479463	0.085437
H207	H	0.303232	0.476147	0.126817
H208	H	0.379373	0.432475	0.111435
H209	H	0.562894	0.373550	0.074585
N210	N	-0.187206	0.788074	-0.085494
H211	H	-0.190191	0.820531	-0.143018
H212	H	-0.193854	0.820462	-0.063857
N213	N	0.552582	0.255557	0.085467
H214	H	0.501667	0.301802	0.063904
H215	H	0.569420	0.230400	0.142981
N216	N	0.454672	0.479455	0.085449
H217	H	0.448567	0.432429	0.111492
H218	H	0.479504	0.476213	0.126795
H219	H	0.067774	0.499077	0.074589
H220	H	-0.042192	0.499081	0.074581
