data_functionalizedCrystal
_audit_creation_method	'MofGen! by Chris Wilmer'
_symmetry_space_group_name_H-M	'P1'
_symmetry_Int_Tables_number	1
_symmetry_cell_setting	triclinic
loop_
_symmetry_equiv_pos_as_xyz
  x,y,z
_cell_length_a	12.827893
_cell_length_b	13.897447
_cell_length_c	12.827885
_cell_angle_alpha	89.968996
_cell_angle_beta	89.980728
_cell_angle_gamma	90.019691
loop_
_atom_site_label
_atom_site_type_symbol
_atom_site_fract_x
_atom_site_fract_y
_atom_site_fract_z
Zn1	Zn	1.597640	-0.383964	-0.590840
Zn2	Zn	2.097640	0.116036	-0.090840
Zn3	Zn	1.597521	-0.545290	-0.416096
Zn4	Zn	2.097521	-0.045290	0.083904
Zn5	Zn	1.422881	-0.384012	-0.416113
Zn6	Zn	1.922881	0.115988	0.083887
Zn7	Zn	1.422854	-0.545219	-0.590796
Zn8	Zn	1.922854	-0.045219	-0.090796
O9	O	1.510224	-0.464621	-0.503462
O10	O	2.010224	0.035379	-0.003462
O11	O	1.743860	-0.405374	-0.567671
O12	O	2.243860	0.094626	-0.067671
O13	O	1.574316	-0.523946	-0.269863
O14	O	2.074316	-0.023946	0.230137
O15	O	1.446124	-0.249024	-0.439317
O16	O	1.946124	0.250976	0.060683
O17	O	1.743773	-0.523900	-0.439288
O18	O	2.243773	-0.023900	0.060712
O19	O	1.574518	-0.248989	-0.567687
O20	O	2.074518	0.251011	-0.067687
O21	O	1.446009	-0.405455	-0.269875
O22	O	1.946009	0.094545	0.230125
O23	O	1.276641	-0.405386	-0.439274
O24	O	1.776641	0.094614	0.060726
O25	O	1.446077	-0.523779	-0.737038
O26	O	1.946077	-0.023779	-0.237038
O27	O	1.276621	-0.523825	-0.567613
O28	O	1.776621	-0.023825	-0.067613
O29	O	1.574492	-0.405305	-0.737070
O30	O	2.074492	0.094695	-0.237070
O31	O	1.574290	-0.680263	-0.439245
O32	O	2.074290	-0.180263	0.060755
O33	O	1.445963	-0.680210	-0.567597
O34	O	1.945963	-0.180210	-0.067597
C35	C	1.238714	-0.464604	-0.503442
C36	C	1.738714	0.035396	-0.003442
C37	C	1.122561	-0.464619	-0.503458
C38	C	1.622561	0.035381	-0.003458
C39	C	0.950689	-0.523194	-0.439864
C40	C	1.450689	-0.023194	0.060136
C41	C	1.070739	-0.523179	-0.439846
C42	C	1.570739	-0.023179	0.060154
C43	C	1.510139	-0.715236	-0.503437
C44	C	2.010139	-0.215236	-0.003437
C45	C	1.510198	-0.822450	-0.503462
C46	C	2.010198	-0.322450	-0.003462
C47	C	1.510249	-0.909519	-0.503486
C48	C	2.010249	-0.409519	-0.003486
C49	C	1.510322	-1.018752	-0.503513
C50	C	2.010322	-0.518752	-0.003513
C51	C	1.782794	-0.464640	-0.503482
C52	C	2.282794	0.035360	-0.003482
C53	C	1.898947	-0.464648	-0.503491
C54	C	2.398947	0.035352	-0.003491
C55	C	1.510295	-0.464529	-0.776032
C56	C	2.010295	0.035471	-0.276032
C57	C	1.510325	-0.464489	-0.892185
C58	C	2.010325	0.035511	-0.392185
C59	C	1.510338	-0.213028	-0.503509
C60	C	2.010338	0.286972	-0.003509
C61	C	1.510386	-0.105814	-0.503529
C62	C	2.010386	0.394186	-0.003529
C63	C	1.446835	-0.523048	-1.063998
C64	C	1.946835	-0.023048	-0.563998
C65	C	1.446802	-0.523090	-0.943948
C66	C	1.946802	-0.023090	-0.443948
C67	C	1.510213	-0.464644	-0.231952
C68	C	2.010213	0.035356	0.268048
C69	C	1.510385	-0.464412	-0.115799
C70	C	2.010385	0.035588	0.384201
H71	H	1.392448	-0.573214	-1.108527
H72	H	1.892448	-0.073214	-0.608527
H73	H	1.115236	-0.573308	-0.385378
H74	H	1.615236	-0.073308	0.114622
H75	H	1.078071	-0.414496	-0.557938
H76	H	1.578071	0.085504	-0.057938
H77	H	1.392398	-0.573294	-0.899401
H78	H	1.892398	-0.073294	-0.399401
O79	O	0.891646	-0.589602	-0.367718
O80	O	1.391646	-0.089602	0.132282
H81	H	0.947810	-0.632480	-0.321100
H82	H	1.447810	-0.132480	0.178900
O83	O	0.957979	-0.398228	-0.575632
O84	O	1.457979	0.101772	-0.075632
H85	H	1.007719	-0.441490	-0.628674
H86	H	1.507719	0.058510	-0.128674
O87	O	1.582383	-0.397974	-0.951186
O88	O	2.082383	0.102026	-0.451186
H89	H	1.635495	-0.441165	-1.000924
H90	H	2.135495	0.058835	-0.500924
O91	O	1.582435	-0.397960	-1.056827
O92	O	2.082435	0.102040	-0.556827
H93	H	1.535631	-0.348943	-1.007096
H94	H	2.035631	0.151057	-0.507096
