data_functionalizedCrystal
_audit_creation_method	'MofGen! by Chris Wilmer'
_symmetry_space_group_name_H-M	'P1'
_symmetry_Int_Tables_number	1
_symmetry_cell_setting	triclinic
loop_
_symmetry_equiv_pos_as_xyz
  x,y,z
_cell_length_a	19.077105
_cell_length_b	13.032905
_cell_length_c	19.077258
_cell_angle_alpha	94.591733
_cell_angle_beta	89.903411
_cell_angle_gamma	95.208085
loop_
_atom_site_label
_atom_site_type_symbol
_atom_site_fract_x
_atom_site_fract_y
_atom_site_fract_z
Zn1	Zn	-1.018319	0.448649	0.477170
Zn2	Zn	-1.006964	0.628814	0.374420
Zn3	Zn	-0.905510	0.449173	0.355006
Zn4	Zn	-0.886002	0.614921	0.486035
O5	O	-0.954199	0.535389	0.423158
O6	O	-1.114647	0.478143	0.467955
O7	O	-0.996918	0.611018	0.274007
O8	O	-0.933391	0.304337	0.359376
O9	O	-1.106304	0.610510	0.392465
O10	O	-1.016271	0.303952	0.449130
O11	O	-0.922380	0.479036	0.259743
O12	O	-0.805089	0.465564	0.367972
O13	O	-0.900142	0.586830	0.582697
O14	O	-0.790756	0.587338	0.464239
O15	O	-0.997355	0.464671	0.576184
O16	O	-0.978001	0.771737	0.401061
O17	O	-0.889131	0.761530	0.483064
C18	C	-0.772555	0.525001	0.414961
C19	C	-0.694844	0.520581	0.411473
C20	C	-0.930235	0.804170	0.445147
C21	C	-0.920047	0.919158	0.454581
C22	C	-0.947839	0.524142	0.605518
C23	C	-0.945129	0.519350	0.683229
C24	C	-1.136552	0.545818	0.431387
C25	C	-1.214260	0.550262	0.434893
C26	C	-0.650885	0.582010	0.459894
C27	C	-0.577869	0.577843	0.456619
C28	C	-0.548812	0.512252	0.404920
C29	C	-0.592777	0.450816	0.356497
C30	C	-0.665793	0.454978	0.359776
C31	C	-0.331240	0.492989	0.389749
C32	C	-0.258219	0.488833	0.386473
C33	C	-0.243315	0.615859	0.486596
C34	C	-0.316332	0.620020	0.489867
C35	C	-0.360291	0.558581	0.441447
N36	N	-0.474178	0.507994	0.401570
N37	N	-0.434924	0.562834	0.444801
C38	C	-0.948984	1.094286	0.427992
C39	C	-0.959516	0.975440	0.418242
C40	C	-0.978253	1.265558	0.401088
C41	C	-0.988448	1.150570	0.391659
C42	C	-0.982660	0.585811	0.727167
C43	C	-0.980115	0.581295	0.800184
C44	C	-0.940034	0.510323	0.829262
C45	C	-0.902502	0.443855	0.785319
C46	C	-0.905051	0.448366	0.712303
C47	C	-0.928251	0.489457	1.046838
C48	C	-0.925702	0.484952	1.119860
C49	C	-1.003317	0.622392	1.134720
C50	C	-1.005860	0.626901	1.061702
C51	C	-0.968330	0.560430	1.017765
N52	N	-0.937429	0.505707	0.903897
N53	N	-0.970939	0.565041	0.943131
C54	C	-0.960526	0.546616	1.241508
C55	C	-0.963233	0.551413	1.163797
H56	H	-0.674537	0.635425	0.501991
H57	H	-0.234565	0.435409	0.344377
O58	O	-0.713210	0.388737	0.307545
H59	H	-0.680740	0.342438	0.271038
H60	H	-1.001106	0.935648	0.379917
O61	O	-0.195920	0.682180	0.538805
H62	H	-0.209599	0.662024	0.592896
O63	O	-0.378646	0.426759	0.337508
H64	H	-0.346171	0.380471	0.300999
H65	H	-1.030034	1.110773	0.353336
H66	H	-0.569114	0.397406	0.314405
O67	O	-0.864960	0.971861	0.505352
H68	H	-0.837658	0.912551	0.530487
O69	O	-0.893900	1.146985	0.478763
H70	H	-0.841274	1.123980	0.462574
O71	O	-1.025897	0.662351	0.695804
H72	H	-1.051575	0.707796	0.738626
H73	H	-0.542080	0.627866	0.496047
O74	O	-1.020575	0.653001	0.847578
H75	H	-1.048860	0.703128	0.815092
H76	H	-0.874492	0.394244	0.676529
H77	H	-1.038485	0.684710	1.038034
O78	O	-1.043801	0.694074	1.182106
H79	H	-1.035302	0.679011	1.237764
O80	O	-0.882476	0.408394	1.151227
H81	H	-0.856813	0.362921	1.108408
H82	H	-0.897688	0.435335	1.011073
O83	O	-0.859288	0.367287	0.816684
H84	H	-0.818420	0.409484	0.852131
O85	O	-0.347673	0.690755	0.545634
H86	H	-0.304839	0.732764	0.578759
