data_functionalizedCrystal
_audit_creation_method	'MofGen! by Chris Wilmer'
_symmetry_space_group_name_H-M	'P1'
_symmetry_Int_Tables_number	1
_symmetry_cell_setting	triclinic
loop_
_symmetry_equiv_pos_as_xyz
  x,y,z
_cell_length_a	16.109302
_cell_length_b	10.540535
_cell_length_c	14.586319
_cell_angle_alpha	89.994854
_cell_angle_beta	89.994552
_cell_angle_gamma	83.992711
loop_
_atom_site_label
_atom_site_type_symbol
_atom_site_fract_x
_atom_site_fract_y
_atom_site_fract_z
O1	O	1.104126	0.163164	-0.076284
O2	O	0.862189	0.183468	-0.076278
O3	O	0.988679	-0.011470	-0.076272
O4	O	0.977636	0.358101	-0.076290
O5	O	0.988670	-0.011473	0.076209
O6	O	0.862180	0.183465	0.076203
O7	O	1.104118	0.163161	0.076196
Cu8	Cu	0.983148	0.173312	0.090123
Cu9	Cu	0.983158	0.173316	-0.090204
O10	O	0.977627	0.358098	0.076191
C11	C	0.831204	0.182644	-0.000036
C12	C	0.738894	0.180177	-0.000033
C13	C	0.526513	0.174473	0.083075
C14	C	0.439779	0.172142	0.083072
C15	C	0.439799	0.172152	-0.083171
C16	C	0.526533	0.174473	-0.083167
C17	C	0.569887	0.175641	-0.000041
C18	C	0.396419	0.170988	-0.000048
C19	C	0.302378	0.168460	-0.000052
C20	C	0.663934	0.178166	-0.000037
C21	C	0.987847	-0.058763	-0.000031
C22	C	0.985372	-0.199676	-0.000030
C23	C	0.893018	-0.235030	-0.000034
C24	C	0.890413	-0.381593	-0.000396
C25	C	1.027535	-0.409600	-0.086956
C26	C	1.029500	-0.262862	-0.087013
C27	C	1.030833	-0.263023	0.086392
C28	C	1.026562	-0.409309	0.087518
C29	C	1.135102	0.163985	-0.000047
C30	C	1.227412	0.166451	-0.000056
C31	C	0.978459	0.405391	-0.000052
C32	C	0.980934	0.546304	-0.000059
N33	N	0.983146	0.173309	0.216954
N34	N	0.983166	0.173309	-0.217035
C35	C	1.039175	0.087020	0.451963
C36	C	1.039178	0.087017	0.547945
C37	C	0.927131	0.259603	0.547949
C38	C	0.927125	0.259599	0.451969
C39	C	0.983152	0.173309	0.403979
C40	C	0.983160	0.173310	0.595940
C41	C	0.983163	0.173307	0.700007
C42	C	0.983149	0.173309	0.299905
H43	H	0.404489	0.171203	-0.150849
N44	N	0.869906	0.347760	0.596958
N45	N	0.819887	0.424795	0.554100
H46	H	0.779470	0.487060	0.588710
N47	N	0.990020	-0.211859	-0.168797
N48	N	0.984326	-0.094469	-0.183624
H49	H	0.956441	-0.058450	-0.241384
N50	N	0.869898	0.347731	0.402933
N51	N	0.818056	0.307424	0.349386
H52	H	0.777640	0.369661	0.314751
N53	N	1.111139	-0.470219	-0.090728
N54	N	1.134364	-0.539047	-0.157651
H55	H	1.193410	-0.581864	-0.160315
H56	H	0.561810	0.175423	0.150762
N57	N	1.096385	-0.001129	0.402927
N58	N	1.096373	-0.001127	0.317232
H59	H	1.136776	-0.063388	0.282601
N60	N	0.570842	0.175637	-0.168075
N61	N	0.568295	0.085950	-0.223722
H62	H	0.599589	0.086763	-0.283687
N63	N	0.395488	0.170940	0.167982
N64	N	0.434211	0.171975	0.242190
H65	H	0.402932	0.171123	0.302162
N66	N	0.844705	-0.417749	0.077743
N67	N	0.814508	-0.334659	0.132925
H68	H	0.782226	-0.360186	0.188115
H69	H	0.857550	-0.192564	0.062276
N70	N	1.116077	-0.236425	0.087466
N71	N	1.173386	-0.326016	0.085493
H72	H	1.233588	-0.307227	0.086246
H73	H	0.858151	-0.191067	-0.062256
N74	N	0.845006	-0.416352	-0.079140
N75	N	0.869873	-0.391609	-0.157674
H76	H	0.837829	-0.416053	-0.213340
N77	N	1.114434	-0.235191	-0.091649
N78	N	1.172070	-0.324217	-0.094839
H79	H	1.232055	-0.304680	-0.098115
N80	N	0.987434	-0.447792	-0.168393
N81	N	0.924545	-0.507472	-0.162660
H82	H	0.896219	-0.534445	-0.220172
H83	H	1.002011	-0.220163	0.152284
N84	N	0.984016	-0.444604	0.168162
N85	N	0.920326	-0.502239	0.161234
H86	H	0.890275	-0.527175	0.218187
H87	H	1.092630	-0.459286	0.093025
N88	N	1.096406	-0.001140	0.596945
N89	N	1.146418	-0.078178	0.554081
H90	H	1.186837	-0.140446	0.588686
