data_functionalizedCrystal
_audit_creation_method	'MofGen! by Chris Wilmer'
_symmetry_space_group_name_H-M	'P1'
_symmetry_Int_Tables_number	1
_symmetry_cell_setting	triclinic
loop_
_symmetry_equiv_pos_as_xyz
  x,y,z
_cell_length_a	18.101398
_cell_length_b	14.908520
_cell_length_c	14.908308
_cell_angle_alpha	83.639235
_cell_angle_beta	93.272964
_cell_angle_gamma	86.683700
loop_
_atom_site_label
_atom_site_type_symbol
_atom_site_fract_x
_atom_site_fract_y
_atom_site_fract_z
Zn1	Zn	1.088449	0.389993	-0.532704
Zn2	Zn	1.588449	0.889993	-0.032704
Zn3	Zn	1.088365	0.532638	-0.390074
Zn4	Zn	1.588365	1.032638	0.109926
Zn5	Zn	0.972193	0.381283	-0.381347
Zn6	Zn	1.472193	0.881283	0.118653
Zn7	Zn	0.957000	0.541297	-0.541367
Zn8	Zn	1.457000	1.041297	-0.041367
O9	O	1.026502	0.461303	-0.461373
O10	O	1.526502	0.961303	0.038627
O11	O	1.192069	0.408937	-0.513810
O12	O	1.692069	0.908937	-0.013810
O13	O	1.079278	0.505292	-0.262257
O14	O	1.579278	1.005292	0.237743
O15	O	0.994008	0.255774	-0.394147
O16	O	1.494008	0.755774	0.105853
O17	O	1.192007	0.513738	-0.409021
O18	O	1.692007	1.013738	0.090979
O19	O	1.079421	0.262174	-0.505348
O20	O	1.579421	0.762174	-0.005348
O21	O	0.993927	0.394092	-0.255845
O22	O	1.493927	0.894092	0.244155
O23	O	0.866547	0.402487	-0.402547
O24	O	1.366547	0.902487	0.097453
O25	O	0.968114	0.528495	-0.666877
O26	O	1.468114	1.028495	-0.166877
O27	O	0.855385	0.520049	-0.520113
O28	O	1.355385	1.020049	-0.020113
O29	O	1.064689	0.417333	-0.660513
O30	O	1.564689	0.917333	-0.160513
O31	O	1.064546	0.660451	-0.417421
O32	O	1.564546	1.160451	0.082579
O33	O	0.968032	0.666812	-0.528575
O34	O	1.468032	1.166812	-0.028575
C35	C	0.834095	0.461263	-0.461323
C36	C	1.334095	0.961263	0.038677
C37	C	0.751781	0.461269	-0.461325
C38	C	1.251781	0.961269	0.038675
C39	C	1.014650	0.696475	-0.474905
C40	C	1.514650	1.196475	0.025095
C41	C	1.009647	0.797085	-0.480724
C42	C	1.509647	1.297085	0.019276
C43	C	1.014716	0.474851	-0.697455
C44	C	1.514716	0.974851	-0.197455
C45	C	1.009694	0.480625	-0.798059
C46	C	1.509694	0.980625	-0.298059
C47	C	0.452683	0.461330	-0.461404
C48	C	0.952683	0.961330	0.038596
C49	C	0.491007	0.387034	-0.387756
C50	C	0.991007	0.887034	0.112244
C51	C	0.576631	0.387205	-0.387470
C52	C	1.076631	0.887205	0.112530
C53	C	0.601069	0.461299	-0.461365
C54	C	1.101069	0.961299	0.038635
C55	C	0.566492	0.555147	-0.440802
C56	C	1.066492	1.055147	0.059198
C57	C	0.480890	0.554728	-0.440295
C58	C	0.980890	1.054728	0.059705
C59	C	0.480707	0.442618	-0.555827
C60	C	0.980707	0.942618	-0.055827
C61	C	0.566490	0.440465	-0.555182
C62	C	1.066490	0.940465	-0.055182
C63	C	0.684930	0.461288	-0.461345
C64	C	1.184930	0.961288	0.038655
C65	C	0.368822	0.461348	-0.461423
C66	C	0.868822	0.961348	0.038577
C67	C	1.219659	0.461343	-0.461423
C68	C	1.719659	0.961343	0.038577
C69	C	1.301972	0.461360	-0.461444
C70	C	1.801972	0.961360	0.038556
C71	C	1.038419	0.225213	-0.447808
C72	C	1.538419	0.725213	0.052192
C73	C	1.043497	0.124606	-0.442027
C74	C	1.543497	0.624606	0.057973
C75	C	1.100836	0.979461	-0.376008
C76	C	1.600836	1.479461	0.123992
C77	C	1.096137	1.073993	-0.381473
C78	C	1.596137	1.573993	0.118527
C79	C	0.995554	1.080681	-0.497123
C80	C	1.495554	1.580681	0.002877
C81	C	1.000253	0.986150	-0.491658
C82	C	1.500253	1.486150	0.008342
C83	C	1.052895	0.935543	-0.431097
C84	C	1.552895	1.435543	0.068903
C85	C	1.057590	0.841009	-0.425629
C86	C	1.557590	1.341009	0.074371
C87	C	0.957010	0.847700	-0.541282
C88	C	1.457010	1.347700	-0.041282
C89	C	0.952312	0.942232	-0.546747
C90	C	1.452312	1.442232	-0.046747
C91	C	1.100819	0.375700	-0.980477
C92	C	1.600819	0.875700	-0.480477
C93	C	1.096103	0.381122	-1.075004
C94	C	1.596103	0.881122	-0.575004
C95	C	0.995541	0.496885	-1.081639
C96	C	1.495541	0.996885	-0.581639
C97	C	1.000258	0.491463	-0.987113
C98	C	1.500258	0.991463	-0.487113
C99	C	1.052899	0.430870	-0.936535
C100	C	1.552899	0.930870	-0.436535
C101	C	1.057619	0.425453	-0.842007
C102	C	1.557619	0.925453	-0.342007
C103	C	0.957054	0.541211	-0.848644
C104	C	1.457054	1.041211	-0.348644
C105	C	0.952338	0.546633	-0.943170
C106	C	1.452338	1.046633	-0.443170
C107	C	1.038288	0.447742	-0.226206
C108	C	1.538288	0.947742	0.273794
C109	C	1.043466	0.441713	-0.125588
C110	C	1.543466	0.941713	0.374412
H111	H	0.600387	0.317441	-0.399729
H112	H	1.100387	0.817441	0.100271
H113	H	1.135177	1.109747	-0.336615
H114	H	1.635177	1.609747	0.163385
F115	F	1.147105	0.322401	-1.121767
F116	F	1.647105	0.822401	-0.621767
F117	F	0.939517	0.561361	-1.135481
F118	F	1.439517	1.061361	-0.635481
H119	H	0.473172	0.317043	-0.399822
H120	H	0.973172	0.817043	0.100178
F121	F	0.466418	0.402405	-0.296686
F122	F	0.966418	0.902405	0.203314
F123	F	0.457977	0.576313	-0.350285
F124	F	0.957977	1.076313	0.149715
F125	F	1.156852	0.925599	-0.311545
F126	F	1.656852	1.425599	0.188455
F127	F	0.596386	0.350239	-0.575589
F128	F	1.096386	0.850239	-0.075589
H129	H	0.952700	1.121902	-0.546434
H130	H	1.452700	1.621902	-0.046434
H131	H	0.909454	0.983449	-0.596056
H132	H	1.409454	1.483449	-0.096056
F133	F	0.905977	0.800952	-0.599907
F134	F	1.405977	1.300952	-0.099907
H135	H	0.909478	0.595965	-0.984363
H136	H	1.409478	1.095965	-0.484363
F137	F	0.906057	0.599939	-0.801872
F138	F	1.406057	1.099939	-0.301872
F139	F	1.113645	0.360967	-0.788180
F140	F	1.613645	0.860967	-0.288180
F141	F	0.447091	0.629148	-0.507737
F142	F	0.947091	1.129148	-0.007737
F143	F	0.606973	0.402793	-0.295872
F144	F	1.106973	0.902793	0.204128
F145	F	1.156849	0.311222	-0.926648
F146	F	1.656849	0.811222	-0.426648
F147	F	0.586372	0.629130	-0.509041
F148	F	1.086372	1.129130	-0.009041
F149	F	0.597652	0.577258	-0.351806
F150	F	1.097652	1.077258	0.148194
H151	H	0.582786	0.491075	-0.612551
H152	H	1.082786	0.991075	-0.112551
F153	F	0.447490	0.513436	-0.627465
F154	F	0.947490	1.013436	-0.127465
F155	F	1.113613	0.787151	-0.361172
F156	F	1.613613	1.287151	0.138828
F157	F	0.455425	0.355105	-0.581649
F158	F	0.955425	0.855105	-0.081649
