data_functionalizedCrystal
_audit_creation_method	'MofGen! by Chris Wilmer'
_symmetry_space_group_name_H-M	'P1'
_symmetry_Int_Tables_number	1
_symmetry_cell_setting	triclinic
loop_
_symmetry_equiv_pos_as_xyz
  x,y,z
_cell_length_a	18.050591
_cell_length_b	18.050589
_cell_length_c	18.050582
_cell_angle_alpha	89.981795
_cell_angle_beta	89.979078
_cell_angle_gamma	90.024227
loop_
_atom_site_label
_atom_site_type_symbol
_atom_site_fract_x
_atom_site_fract_y
_atom_site_fract_z
Zn1	Zn	1.135293	-0.295786	-0.420054
Zn2	Zn	1.385293	-0.045786	-0.170054
Zn3	Zn	1.635293	0.204214	0.079946
Zn4	Zn	1.885293	0.454214	0.329946
Zn5	Zn	1.135203	-0.419969	-0.295873
Zn6	Zn	1.385203	-0.169969	-0.045873
Zn7	Zn	1.635203	0.080031	0.204127
Zn8	Zn	1.885203	0.330031	0.454127
Zn9	Zn	1.011112	-0.295789	-0.295865
Zn10	Zn	1.261112	-0.045789	-0.045865
Zn11	Zn	1.511112	0.204211	0.204135
Zn12	Zn	1.761112	0.454211	0.454135
Zn13	Zn	1.011060	-0.419930	-0.420009
Zn14	Zn	1.261060	-0.169930	-0.170009
Zn15	Zn	1.511060	0.080070	0.079991
Zn16	Zn	1.761060	0.330070	0.329991
O17	O	1.073167	-0.357868	-0.357950
O18	O	1.323167	-0.107868	-0.107950
O19	O	1.573167	0.142132	0.142050
O20	O	1.823167	0.392132	0.392050
O21	O	1.239205	-0.312274	-0.403603
O22	O	1.489205	-0.062274	-0.153603
O23	O	1.739205	0.187726	0.096397
O24	O	1.989205	0.437726	0.346397
O25	O	1.118727	-0.403514	-0.191948
O26	O	1.368727	-0.153514	0.058052
O27	O	1.618727	0.096486	0.308052
O28	O	1.868727	0.346486	0.558052
O29	O	1.027644	-0.191864	-0.312354
O30	O	1.277644	0.058136	-0.062354
O31	O	1.527644	0.308136	0.187646
O32	O	1.777644	0.558136	0.437646
O33	O	1.239140	-0.403511	-0.312369
O34	O	1.489140	-0.153511	-0.062369
O35	O	1.739140	0.096489	0.187631
O36	O	1.989140	0.346489	0.437631
O37	O	1.118879	-0.191862	-0.403595
O38	O	1.368879	0.058138	-0.153595
O39	O	1.618879	0.308138	0.096405
O40	O	1.868879	0.558138	0.346405
O41	O	1.027557	-0.312279	-0.191942
O42	O	1.277557	-0.062279	0.058058
O43	O	1.527557	0.187721	0.308058
O44	O	1.777557	0.437721	0.558058
O45	O	0.907180	-0.312241	-0.312311
O46	O	1.157180	-0.062241	-0.062311
O47	O	1.407180	0.187759	0.187689
O48	O	1.657180	0.437759	0.437689
O49	O	1.027555	-0.403444	-0.523940
O50	O	1.277555	-0.153444	-0.273940
O51	O	1.527555	0.096556	-0.023940
O52	O	1.777555	0.346556	0.226060
O53	O	0.907142	-0.403447	-0.403519
O54	O	1.157142	-0.153447	-0.153519
O55	O	1.407142	0.096553	0.096481
O56	O	1.657142	0.346553	0.346481
O57	O	1.118828	-0.312236	-0.523973
O58	O	1.368828	-0.062236	-0.273973
O59	O	1.618828	0.187764	-0.023973
O60	O	1.868828	0.437764	0.226027
O61	O	1.118676	-0.523888	-0.312325
O62	O	1.368676	-0.273888	-0.062325
O63	O	1.618676	-0.023888	0.187675
O64	O	1.868676	0.226112	0.437675
O65	O	1.027468	-0.523860	-0.403527
O66	O	1.277468	-0.273860	-0.153527
O67	O	1.527468	-0.023860	0.096473
O68	O	1.777468	0.226140	0.346473
C69	C	0.880215	-0.357841	-0.357909
C70	C	1.130215	-0.107841	-0.107909
C71	C	1.380215	0.142159	0.142091
C72	C	1.630215	0.392159	0.392091
C73	C	0.797669	-0.357847	-0.357909
C74	C	1.047669	-0.107847	-0.107909
C75	C	1.297669	0.142153	0.142091
C76	C	1.547669	0.392153	0.392091
C77	C	0.598217	-0.308191	-0.308425
C78	C	0.848217	-0.058191	-0.058425
C79	C	1.098217	0.191809	0.191575
C80	C	1.348217	0.441809	0.441575
C81	C	0.548798	-0.375927	-0.290154
C82	C	0.798798	-0.125927	-0.040154
C83	C	1.048798	0.124073	0.209846
C84	C	1.298798	0.374073	0.459846
C85	C	0.646539	-0.357869	-0.357943
C86	C	0.896539	-0.107869	-0.107943
C87	C	1.146539	0.142131	0.142057
C88	C	1.396539	0.392131	0.392057
C89	C	0.548877	-0.290157	-0.376212
C90	C	0.798877	-0.040157	-0.126212
C91	C	1.048877	0.209843	0.123788
C92	C	1.298877	0.459843	0.373788
C93	C	0.500553	-0.357885	-0.357974
C94	C	0.750553	-0.107885	-0.107974
C95	C	1.000553	0.142115	0.142026
C96	C	1.250553	0.392115	0.392026
C97	C	0.598206	-0.425641	-0.339637
C98	C	0.848206	-0.175641	-0.089637
C99	C	1.098206	0.074359	0.160363
C100	C	1.348206	0.324359	0.410363
C101	C	0.598289	-0.339825	-0.425726
C102	C	0.848289	-0.089825	-0.175726
C103	C	1.098289	0.160175	0.074274
C104	C	1.348289	0.410175	0.324274
C105	C	0.548892	-0.407607	-0.407481
C106	C	0.798892	-0.157607	-0.157481
C107	C	1.048892	0.092393	0.092519
C108	C	1.298892	0.342393	0.342519
C109	C	0.730637	-0.357859	-0.357923
C110	C	0.980637	-0.107859	-0.107923
C111	C	1.230637	0.142141	0.142077
C112	C	1.480637	0.392141	0.392077
C113	C	0.416457	-0.357903	-0.357994
C114	C	0.666457	-0.107903	-0.107994
C115	C	0.916457	0.142097	0.142006
C116	C	1.166457	0.392097	0.392006
C117	C	1.073077	-0.550820	-0.357938
C118	C	1.323077	-0.300820	-0.107938
C119	C	1.573077	-0.050820	0.142062
C120	C	1.823077	0.199180	0.392062
C121	C	1.073107	-0.633366	-0.357958
C122	C	1.323107	-0.383366	-0.107958
C123	C	1.573107	-0.133366	0.142042
C124	C	1.823107	0.116634	0.392042
C125	C	1.023557	-0.832828	-0.407536
C126	C	1.273557	-0.582828	-0.157536
C127	C	1.523557	-0.332828	0.092464
C128	C	1.773557	-0.082828	0.342464
C129	C	1.005459	-0.882261	-0.339767
C130	C	1.255459	-0.632261	-0.089767
C131	C	1.505459	-0.382261	0.160233
C132	C	1.755459	-0.132261	0.410233
C133	C	1.073180	-0.784497	-0.357967
C134	C	1.323180	-0.534497	-0.107967
C135	C	1.573180	-0.284497	0.142033
C136	C	1.823180	-0.034497	0.392033
C137	C	1.091314	-0.882146	-0.425744
C138	C	1.341314	-0.632146	-0.175744
C139	C	1.591314	-0.382146	0.074256
C140	C	1.841314	-0.132146	0.324256
C141	C	1.073249	-0.930482	-0.357983
C142	C	1.323249	-0.680482	-0.107983
C143	C	1.573249	-0.430482	0.142017
C144	C	1.823249	-0.180482	0.392017
C145	C	1.055046	-0.832842	-0.290162
C146	C	1.305046	-0.582842	-0.040162
C147	C	1.555046	-0.332842	0.209838
C148	C	1.805046	-0.082842	0.459838
C149	C	1.140933	-0.832722	-0.376186
C150	C	1.390933	-0.582722	-0.126186
C151	C	1.640933	-0.332722	0.123814
C152	C	1.890933	-0.082722	0.373814
C153	C	1.122861	-0.882133	-0.308370
C154	C	1.372861	-0.632133	-0.058370
C155	C	1.622861	-0.382133	0.191630
C156	C	1.872861	-0.132133	0.441630
C157	C	1.073138	-0.700398	-0.357959
C158	C	1.323138	-0.450398	-0.107959
C159	C	1.573138	-0.200398	0.142041
C160	C	1.823138	0.049602	0.392041
C161	C	1.073291	-1.014578	-0.357983
C162	C	1.323291	-0.764578	-0.107983
C163	C	1.573291	-0.514578	0.142017
C164	C	1.823291	-0.264578	0.392017
C165	C	1.266872	-0.357897	-0.357992
C166	C	1.516872	-0.107897	-0.107992
C167	C	1.766872	0.142103	0.142008
C168	C	2.016872	0.392103	0.392008
C169	C	1.349418	-0.357909	-0.358010
C170	C	1.599418	-0.107909	-0.108010
C171	C	1.849418	0.142091	0.141990
C172	C	2.099418	0.392091	0.391990
C173	C	1.073196	-0.357835	-0.551656
C174	C	1.323196	-0.107835	-0.301656
C175	C	1.573196	0.142165	-0.051656
C176	C	1.823196	0.392165	0.198344
C177	C	1.073208	-0.357821	-0.634202
C178	C	1.323208	-0.107821	-0.384202
C179	C	1.573208	0.142179	-0.134202
C180	C	1.823208	0.392179	0.115798
C181	C	1.073277	-0.164163	-0.357979
C182	C	1.323277	0.085837	-0.107979
C183	C	1.573277	0.335837	0.142021
C184	C	1.823277	0.585837	0.392021
C185	C	1.073324	-0.081617	-0.357991
C186	C	1.323324	0.168383	-0.107991
C187	C	1.573324	0.418383	0.142009
C188	C	1.823324	0.668383	0.392009
C189	C	1.023612	-0.407353	-0.833635
C190	C	1.273612	-0.157353	-0.583635
C191	C	1.523612	0.092647	-0.333635
C192	C	1.773612	0.342647	-0.083635
C193	C	1.091367	-0.425511	-0.883034
C194	C	1.341367	-0.175511	-0.633034
C195	C	1.591367	0.074489	-0.383034
C196	C	1.841367	0.324489	-0.133034
C197	C	1.073245	-0.357765	-0.785332
C198	C	1.323245	-0.107765	-0.535332
C199	C	1.573245	0.142235	-0.285332
C200	C	1.823245	0.392235	-0.035332
C201	C	1.005527	-0.339586	-0.883014
C202	C	1.255527	-0.089586	-0.633014
C203	C	1.505527	0.160414	-0.383014
C204	C	1.755527	0.410414	-0.133014
C205	C	1.073274	-0.357711	-0.931317
C206	C	1.323274	-0.107711	-0.681317
C207	C	1.573274	0.142289	-0.431317
C208	C	1.823274	0.392289	-0.181317
C209	C	1.141036	-0.375958	-0.833645
C210	C	1.391036	-0.125958	-0.583645
C211	C	1.641036	0.124042	-0.333645
C212	C	1.891036	0.374042	-0.083645
C213	C	1.055150	-0.290002	-0.833620
C214	C	1.305150	-0.040002	-0.583620
C215	C	1.555150	0.209998	-0.333620
C216	C	1.805150	0.459998	-0.083620
C217	C	1.122952	-0.308134	-0.882998
C218	C	1.372952	-0.058134	-0.632998
C219	C	1.622952	0.191866	-0.382998
C220	C	1.872952	0.441866	-0.132998
C221	C	1.073227	-0.357797	-0.701234
C222	C	1.323227	-0.107797	-0.451234
C223	C	1.573227	0.142203	-0.201234
C224	C	1.823227	0.392203	0.048766
C225	C	1.073300	-0.357679	-1.015414
C226	C	1.323300	-0.107679	-0.765414
C227	C	1.573300	0.142321	-0.515414
C228	C	1.823300	0.392321	-0.265414
C229	C	1.073181	-0.357848	-0.164998
C230	C	1.323181	-0.107848	0.085002
C231	C	1.573181	0.142152	0.335002
C232	C	1.823181	0.392152	0.585002
C233	C	1.073312	-0.357652	-0.082453
C234	C	1.323312	-0.107652	0.167547
C235	C	1.573312	0.142348	0.417547
C236	C	1.823312	0.392348	0.667547
H237	H	0.527169	-0.232894	-0.391625
H238	H	0.777169	0.017106	-0.141625
H239	H	1.027169	0.267106	0.108375
H240	H	1.277169	0.517106	0.358375
H241	H	1.039807	-0.232736	-0.811899
H242	H	1.289807	0.017264	-0.561899
H243	H	1.539807	0.267264	-0.311899
H244	H	1.789807	0.517264	-0.061899
H245	H	0.981678	-0.449342	-0.811961
H246	H	1.231678	-0.199342	-0.561961
H247	H	1.481678	0.050658	-0.311961
H248	H	1.731678	0.300658	-0.061961
C249	C	1.111999	-0.911403	-0.503170
C250	C	1.361999	-0.661403	-0.253170
C251	C	1.611999	-0.411403	-0.003170
C252	C	1.861999	-0.161403	0.246830
N253	N	1.127574	-0.933436	-0.561489
N254	N	1.377574	-0.683436	-0.311489
N255	N	1.627574	-0.433436	-0.061489
N256	N	1.877574	-0.183436	0.188511
H257	H	0.620045	-0.324530	-0.483019
H258	H	0.870045	-0.074530	-0.233019
H259	H	1.120045	0.175470	0.016981
H260	H	1.370045	0.425470	0.266981
H261	H	0.981531	-0.811178	-0.449395
H262	H	1.231531	-0.561178	-0.199395
H263	H	1.481531	-0.311178	0.050605
H264	H	1.731531	-0.061178	0.300605
C265	C	0.928093	-0.911658	-0.318952
C266	C	1.178093	-0.661658	-0.068952
C267	C	1.428093	-0.411658	0.181048
C268	C	1.678093	-0.161658	0.431048
N269	N	0.869820	-0.933797	-0.303280
N270	N	1.119820	-0.683797	-0.053280
N271	N	1.369820	-0.433797	0.196720
N272	N	1.619820	-0.183797	0.446720
C273	C	1.179591	-0.911202	-0.251684
C274	C	1.429591	-0.661202	-0.001684
C275	C	1.679591	-0.411202	0.248316
C276	C	1.929591	-0.161202	0.498316
N277	N	1.222316	-0.933099	-0.208986
N278	N	1.472316	-0.683099	0.041014
N279	N	1.722316	-0.433099	0.291014
N280	N	1.972316	-0.183099	0.541014
C281	C	0.627482	-0.251500	-0.251792
C282	C	0.877482	-0.001500	-0.001792
C283	C	1.127482	0.248500	0.248208
C284	C	1.377482	0.498500	0.498208
N285	N	0.649526	-0.208804	-0.209135
N286	N	0.899526	0.041196	0.040865
N287	N	1.149526	0.291196	0.290865
N288	N	1.399526	0.541196	0.540865
H289	H	1.198333	-0.391377	-0.812050
H290	H	1.448333	-0.141377	-0.562050
H291	H	1.698333	0.108623	-0.312050
H292	H	1.948333	0.358623	-0.062050
C293	C	0.928143	-0.318840	-0.912308
C294	C	1.178143	-0.068840	-0.662308
C295	C	1.428143	0.181160	-0.412308
C296	C	1.678143	0.431160	-0.162308
N297	N	0.869856	-0.303220	-0.934369
N298	N	1.119856	-0.053220	-0.684369
N299	N	1.369856	0.196780	-0.434369
N300	N	1.619856	0.446780	-0.184369
C301	C	1.034269	-0.803708	-0.212715
C302	C	1.284269	-0.553708	0.037285
C303	C	1.534269	-0.303708	0.287285
C304	C	1.784269	-0.053708	0.537285
N305	N	1.018616	-0.781762	-0.154384
N306	N	1.268616	-0.531762	0.095616
N307	N	1.518616	-0.281762	0.345616
N308	N	1.768616	-0.031762	0.595616
H309	H	0.527060	-0.391202	-0.232844
H310	H	0.777060	-0.141202	0.017156
H311	H	1.027060	0.108798	0.267156
H312	H	1.277060	0.358798	0.517156
C313	C	1.112066	-0.502896	-0.912361
C314	C	1.362066	-0.252896	-0.662361
C315	C	1.612066	-0.002896	-0.412361
C316	C	1.862066	0.247104	-0.162361
N317	N	1.127651	-0.561184	-0.934448
N318	N	1.377651	-0.311184	-0.684448
N319	N	1.627651	-0.061184	-0.434448
N320	N	1.877651	0.188816	-0.184448
C321	C	0.627355	-0.503031	-0.318684
C322	C	0.877355	-0.253031	-0.068684
C323	C	1.127355	-0.003031	0.181316
C324	C	1.377355	0.246969	0.431316
N325	N	0.649312	-0.561320	-0.302899
N326	N	0.899312	-0.311320	-0.052899
N327	N	1.149312	-0.061320	0.197101
N328	N	1.399312	0.188680	0.447101
C329	C	0.519809	-0.464436	-0.464068
C330	C	0.769809	-0.214436	-0.214068
C331	C	1.019809	0.035564	0.035932
C332	C	1.269809	0.285564	0.285932
N333	N	0.497900	-0.507242	-0.506685
N334	N	0.747900	-0.257242	-0.256685
N335	N	0.997900	-0.007242	-0.006685
N336	N	1.247900	0.242758	0.243315
C337	C	1.218271	-0.803291	-0.397035
C338	C	1.468271	-0.553291	-0.147035
C339	C	1.718271	-0.303291	0.102965
C340	C	1.968271	-0.053291	0.352965
N341	N	1.276520	-0.781117	-0.412748
N342	N	1.526520	-0.531117	-0.162748
N343	N	1.776520	-0.281117	0.087252
N344	N	2.026520	-0.031117	0.337252
C345	C	1.179736	-0.251451	-0.912097
C346	C	1.429736	-0.001451	-0.662097
C347	C	1.679736	0.248549	-0.412097
C348	C	1.929736	0.498549	-0.162097
N349	N	1.222508	-0.208760	-0.934015
N350	N	1.472508	0.041240	-0.684015
N351	N	1.722508	0.291240	-0.434015
N352	N	1.972508	0.541240	-0.184015
