data_functionalizedCrystal
_audit_creation_method	'MofGen! by Chris Wilmer'
_symmetry_space_group_name_H-M	'P1'
_symmetry_Int_Tables_number	1
_symmetry_cell_setting	triclinic
loop_
_symmetry_equiv_pos_as_xyz
  x,y,z
_cell_length_a	12.811438
_cell_length_b	12.837942
_cell_length_c	16.053802
_cell_angle_alpha	92.838962
_cell_angle_beta	92.832066
_cell_angle_gamma	89.413151
loop_
_atom_site_label
_atom_site_type_symbol
_atom_site_fract_x
_atom_site_fract_y
_atom_site_fract_z
O1	O	1.404507	0.142016	0.036930
O2	O	1.904507	0.642016	0.536930
O3	O	1.101764	0.155765	0.014002
O4	O	1.601764	0.655765	0.514002
O5	O	1.246422	-0.002073	0.024963
O6	O	1.746422	0.497927	0.524963
O7	O	1.259849	0.299854	0.025969
O8	O	1.759849	0.799854	0.525969
O9	O	1.238456	0.006578	0.163218
O10	O	1.738456	0.506578	0.663218
O11	O	1.093798	0.164416	0.152258
O12	O	1.593798	0.664416	0.652258
O13	O	1.396541	0.150667	0.175185
O14	O	1.896541	0.650667	0.675185
Zn15	Zn	1.243905	0.158915	0.185673
Zn16	Zn	1.743905	0.658915	0.685673
Zn17	Zn	1.254400	0.147516	0.003515
Zn18	Zn	1.754400	0.647516	0.503515
O19	O	1.251883	0.308505	0.164225
O20	O	1.751883	0.808505	0.664225
C21	C	1.058762	0.159054	0.080175
C22	C	1.558762	0.659054	0.580175
C23	C	0.942497	0.155952	0.071370
C24	C	1.442497	0.655952	0.571370
C25	C	0.782965	0.146865	-0.016393
C26	C	1.282965	0.646865	0.483607
C27	C	0.892207	0.149778	-0.008127
C28	C	1.392207	0.649778	0.491873
C29	C	0.883537	0.159211	0.142607
C30	C	1.383537	0.659211	0.642607
C31	C	0.774295	0.156298	0.134341
C32	C	1.274295	0.656298	0.634341
C33	C	0.724013	0.150126	0.054838
C34	C	1.224013	0.650126	0.554838
C35	C	0.614769	0.147221	0.046573
C36	C	1.114769	0.647221	0.546573
C37	C	0.606101	0.156646	0.197307
C38	C	1.106101	0.656646	0.697307
C39	C	0.715343	0.159559	0.205573
C40	C	1.215343	0.659559	0.705573
C41	C	1.237904	-0.036409	0.093747
C42	C	1.737904	0.463591	0.593747
C43	C	1.224377	-0.151609	0.092721
C44	C	1.724377	0.348391	0.592721
C45	C	1.386997	-0.391091	0.105019
C46	C	1.886997	0.108909	0.605019
C47	C	1.374293	-0.499333	0.104055
C48	C	1.874293	0.000667	0.604055
C49	C	1.186263	-0.476336	0.089824
C50	C	1.686263	0.023664	0.589824
C51	C	1.198968	-0.368095	0.090788
C52	C	1.698968	0.131905	0.590788
C53	C	1.299338	-0.325476	0.098387
C54	C	1.799338	0.174524	0.598387
C55	C	1.312042	-0.217233	0.099356
C56	C	1.812042	0.282767	0.599356
C57	C	1.124014	-0.194238	0.085119
C58	C	1.624014	0.305762	0.585119
C59	C	1.111309	-0.302480	0.084155
C60	C	1.611309	0.197520	0.584155
C61	C	1.439543	0.147378	0.109011
C62	C	1.939543	0.647378	0.609011
C63	C	1.555809	0.150479	0.117810
C64	C	2.055809	0.650479	0.617810
C65	C	1.260401	0.342841	0.095439
C66	C	1.760401	0.842841	0.595439
C67	C	1.273929	0.458041	0.096460
C68	C	1.773929	0.958041	0.596460
N69	N	1.236749	0.166694	0.309991
N70	N	1.736749	0.666694	0.809991
N71	N	1.261563	0.139729	-0.120802
N72	N	1.761563	0.639729	0.379198
C73	C	1.298329	0.099558	0.358350
C74	C	1.798329	0.599558	0.858350
C75	C	1.293335	0.105010	0.445379
C76	C	1.793335	0.605010	0.945379
C77	C	1.226765	0.177603	0.484046
C78	C	1.726765	0.677603	0.984046
C79	C	1.165178	0.244742	0.435680
C80	C	1.665178	0.744742	0.935680
C81	C	1.170168	0.239285	0.348653
C82	C	1.670168	0.739285	0.848653
C83	C	1.204966	0.201411	0.743804
C84	C	1.704966	0.701411	1.243804
C85	C	1.199983	0.206865	0.830838
C86	C	1.699983	0.706865	1.330838
C87	C	1.328139	0.067131	0.840531
C88	C	1.828139	0.567131	1.340531
C89	C	1.333127	0.061685	0.753502
C90	C	1.833127	0.561685	1.253502
C91	C	1.271536	0.128820	0.705143
C92	C	1.771536	0.628820	1.205143
N93	N	1.221661	0.183179	0.573003
N94	N	1.721661	0.683179	1.073003
N95	N	1.276636	0.123238	0.616187
N96	N	1.776636	0.623238	1.116187
H97	H	0.573831	0.142201	-0.018162
H98	H	1.073831	0.642201	0.481838
H99	H	1.468722	-0.356390	0.111214
H100	H	1.968722	0.143610	0.611214
H101	H	0.742024	0.141852	-0.081128
H102	H	1.242024	0.641852	0.418872
F103	F	1.139421	0.272863	0.692344
F104	F	1.639421	0.772863	1.192344
H105	H	0.940202	0.147123	-0.066132
H106	H	1.440202	0.647123	0.433868
F107	F	1.094324	0.321997	0.476833
F108	F	1.594324	0.821997	0.976833
H109	H	1.445674	-0.552753	0.109454
H110	H	1.945674	-0.052753	0.609454
H111	H	1.352542	0.040450	0.326874
H112	H	1.852542	0.540450	0.826874
H113	H	1.120022	0.293953	0.309278
H114	H	1.620022	0.793953	0.809278
H115	H	0.924496	0.164223	0.207335
H116	H	1.424496	0.664223	0.707335
H117	H	1.378282	0.012472	0.879912
H118	H	1.878282	0.512472	1.379912
H119	H	0.756298	0.164579	0.270302
H120	H	1.256298	0.664579	0.770302
F121	F	1.129128	0.284136	0.871985
F122	F	1.629128	0.784136	1.371985
H123	H	1.393768	-0.182535	0.105547
H124	H	1.893768	0.317465	0.605547
F125	F	0.543352	0.160123	0.273122
F126	F	1.043352	0.660123	0.773122
H127	H	1.387333	0.002574	0.722021
H128	H	1.887333	0.502574	1.222021
F129	F	1.079452	-0.521713	0.081717
F130	F	1.579452	-0.021713	0.581717
H131	H	1.029590	-0.337195	0.077965
H132	H	1.529590	0.162805	0.577965
F133	F	1.358873	0.033555	0.496847
F134	F	1.858873	0.533555	0.996847
H135	H	1.052635	-0.140802	0.079725
H136	H	1.552635	0.359198	0.579725
