data_functionalizedCrystal
_audit_creation_method	'MofGen! by Chris Wilmer'
_symmetry_space_group_name_H-M	'P1'
_symmetry_Int_Tables_number	1
_symmetry_cell_setting	triclinic
loop_
_symmetry_equiv_pos_as_xyz
  x,y,z
_cell_length_a	21.295419
_cell_length_b	21.295417
_cell_length_c	21.295411
_cell_angle_alpha	89.978356
_cell_angle_beta	90.024539
_cell_angle_gamma	89.954692
loop_
_atom_site_label
_atom_site_type_symbol
_atom_site_fract_x
_atom_site_fract_y
_atom_site_fract_z
Zn1	Zn	0.962356	0.250432	0.355911
Zn2	Zn	0.962258	0.355684	0.250637
Zn3	Zn	0.857079	0.250460	0.250656
Zn4	Zn	0.857048	0.355695	0.355868
O5	O	0.909685	0.303068	0.303268
O6	O	1.050432	0.264378	0.341956
O7	O	0.948278	0.341733	0.162550
O8	O	0.871098	0.162367	0.264645
O9	O	1.050360	0.341706	0.264611
O10	O	0.948444	0.162347	0.341975
O11	O	0.871003	0.264425	0.162564
O12	O	0.768985	0.264436	0.264603
O13	O	0.871045	0.341724	0.443963
O14	O	0.768963	0.341751	0.341902
O15	O	0.948414	0.264388	0.443995
O16	O	0.948248	0.443775	0.264570
O17	O	0.870951	0.443783	0.341883
C18	C	0.746133	0.303098	0.303250
C19	C	0.676165	0.303126	0.303258
C20	C	0.643358	0.262927	0.343593
C21	C	0.577616	0.262910	0.343596
C22	C	0.544683	0.303104	0.303269
C23	C	0.577498	0.343305	0.262926
C24	C	0.643239	0.343317	0.262920
N25	N	0.441407	0.358181	0.298349
N26	N	0.378956	0.358168	0.298359
C27	C	0.346608	0.303071	0.303283
N28	N	0.379071	0.247985	0.308210
N29	N	0.441528	0.247999	0.308205
C30	C	0.473397	0.303095	0.303271
C31	C	0.242516	0.262850	0.343624
C32	C	0.176772	0.262832	0.343622
C33	C	0.176655	0.343233	0.262955
C34	C	0.242397	0.343245	0.262953
C35	C	0.275324	0.303055	0.303291
C36	C	0.909603	0.466619	0.303233
C37	C	0.909625	0.536588	0.303239
C38	C	0.909737	0.303055	0.467458
C39	C	0.909760	0.303049	0.537426
C40	C	1.073875	0.303038	0.303286
C41	C	1.143843	0.303025	0.303294
C42	C	0.909785	0.138878	0.303317
C43	C	0.909828	0.068909	0.303338
C44	C	0.949909	0.569429	0.263024
C45	C	0.949939	0.635172	0.263038
C46	C	0.909673	0.668070	0.303261
C47	C	0.869385	0.635220	0.343485
C48	C	0.869361	0.569479	0.343474
N49	N	0.854606	0.771351	0.308054
N50	N	0.854630	0.833802	0.308061
C51	C	0.909743	0.866145	0.303297
N52	N	0.964832	0.833676	0.298514
N53	N	0.964807	0.771219	0.298504
C54	C	0.909694	0.739355	0.303278
C55	C	0.950063	0.970272	0.263095
C56	C	0.950093	1.036016	0.263113
C57	C	0.869534	1.036063	0.343557
C58	C	0.869510	0.970321	0.343541
C59	C	0.909773	0.937429	0.303307
C60	C	0.909669	0.303036	0.139716
C61	C	0.909769	0.302864	0.069749
C62	C	0.950044	0.262778	0.570311
C63	C	0.950043	0.262751	0.636053
C64	C	0.909764	0.303006	0.668909
C65	C	0.869472	0.343279	0.636017
C66	C	0.869470	0.343301	0.570276
N67	N	0.904908	0.358075	0.772124
N68	N	0.904914	0.358052	0.834576
C69	C	0.909768	0.302942	0.866984
N70	N	0.914629	0.247853	0.834581
N71	N	0.914626	0.247876	0.772124
C72	C	0.909762	0.302986	0.740194
C73	C	0.950054	0.262638	0.971154
C74	C	0.950049	0.262610	1.036897
C75	C	0.869481	0.343143	1.036860
C76	C	0.869483	0.343166	0.971118
C77	C	0.909773	0.302914	0.938268
H78	H	0.669950	0.376052	0.230073
O79	O	0.989238	0.223612	0.667908
C80	C	1.069132	0.143721	0.661012
C81	C	1.024786	0.188022	0.624861
H82	H	1.097874	0.114925	0.626224
H83	H	1.102068	0.172581	0.691784
H84	H	1.040245	0.110827	0.691800
H85	H	1.053622	0.220925	0.594039
H86	H	0.991847	0.159122	0.594130
H87	H	0.836602	0.662010	0.376236
O88	O	0.989098	0.223507	0.939168
C89	C	0.997620	0.138524	0.864971
C90	C	0.953331	0.182808	0.901143
H91	H	0.968719	0.105599	0.834230
H92	H	1.030506	0.167400	0.834166
H93	H	1.026425	0.109760	0.899780
H94	H	0.924485	0.211582	0.866380
H95	H	0.920487	0.153897	0.931958
O96	O	0.830487	1.067983	0.382722
C97	C	0.799860	1.088041	0.489774
C98	C	0.844129	1.051860	0.445488
H99	H	0.810865	1.075009	0.540529
H100	H	0.806799	1.140678	0.482932
H101	H	0.749106	1.075187	0.478638
H102	H	0.894900	1.064661	0.456597
H103	H	0.837136	0.999232	0.452338
O104	O	0.830385	0.382337	1.068696
C105	C	0.799789	0.489417	1.088814
C106	C	0.844099	0.445101	1.052709
H107	H	0.810871	0.540172	1.075912
H108	H	0.749027	0.478428	1.075853
H109	H	0.806695	0.482455	1.141448
H110	H	0.837249	0.452039	1.000066
H111	H	0.894845	0.456100	1.065722
O112	O	0.830461	0.938387	0.382669
C113	C	0.821918	0.864098	0.467612
C114	C	0.866213	0.900234	0.423345
H115	H	0.850805	0.833233	0.500501
H116	H	0.793154	0.898875	0.496410
H117	H	0.788993	0.833402	0.438662
H118	H	0.899175	0.930930	0.452247
H119	H	0.894933	0.865423	0.394546
H120	H	0.982902	1.062754	0.230366
O121	O	0.830443	0.382322	0.939102
C122	C	0.821921	0.467365	0.864903
C123	C	0.866209	0.423050	0.901108
H124	H	0.850821	0.500313	0.834186
H125	H	0.789032	0.438516	0.834070
H126	H	0.793119	0.496102	0.899690
H127	H	0.895053	0.394303	0.866367
H128	H	0.899057	0.451935	0.931950
H129	H	0.670163	0.230200	0.376439
H130	H	0.550899	0.230172	0.376441
O131	O	0.545578	0.382438	0.223785
C132	C	0.525317	0.489470	0.193058
C133	C	0.561515	0.445223	0.237417
H134	H	0.538178	0.540241	0.204072
H135	H	0.538238	0.478394	0.142307
H136	H	0.472698	0.482526	0.199981
H137	H	0.614143	0.452143	0.230550
H138	H	0.548542	0.456310	0.288151
O139	O	0.274408	0.223750	0.382823
C140	C	0.267587	0.144035	0.462864
C141	C	0.231394	0.188271	0.418491
H142	H	0.232826	0.115348	0.491722
H143	H	0.298370	0.111041	0.434056
H144	H	0.298367	0.173004	0.495696
H145	H	0.200580	0.159353	0.385649
H146	H	0.200651	0.221267	0.447338
O147	O	0.144833	0.223868	0.382838
C148	C	0.070690	0.215521	0.467875
C149	C	0.106810	0.259718	0.423491
H150	H	0.039950	0.244489	0.500763
H151	H	0.039888	0.182563	0.439076
H152	H	0.105532	0.186788	0.496673
H153	H	0.072014	0.288492	0.394682
H154	H	0.137622	0.292635	0.452325
O155	O	0.989090	0.666986	0.223908
C156	C	1.069006	0.660006	0.144135
C157	C	1.024690	0.623901	0.188407
H158	H	1.097809	0.625187	0.115430
H159	H	1.040156	0.690816	0.111160
H160	H	1.101892	0.690750	0.173078
H161	H	0.991795	0.593123	0.159515
H162	H	1.053579	0.593130	0.221383
O163	O	0.144575	0.382258	0.223841
C164	C	0.043245	0.417847	0.188073
C165	C	0.079501	0.373630	0.232414
H166	H	-0.009374	0.410878	0.194979
H167	H	0.056080	0.468638	0.199035
H168	H	0.056193	0.406730	0.137340
H169	H	0.066571	0.384691	0.283161
H170	H	0.066662	0.322853	0.221397
O171	O	0.989119	0.223504	1.068940
C172	C	1.024844	0.187795	1.170234
C173	C	0.980558	0.232107	1.134023
H174	H	1.017948	0.194744	1.222859
H175	H	1.013819	0.137030	1.157347
H176	H	1.075591	0.198837	1.157296
H177	H	0.929797	0.221122	1.146942
H178	H	0.991637	0.282858	1.146913
O179	O	0.274172	0.382359	0.223756
C180	C	0.267116	0.462076	0.143720
C181	C	0.231054	0.417822	0.188094
H182	H	0.232271	0.490749	0.114867
H183	H	0.297860	0.495081	0.172527
H184	H	0.297923	0.433122	0.110883
H185	H	0.200213	0.446725	0.220940
H186	H	0.200349	0.384815	0.159248
H187	H	0.982850	0.230001	0.543569
H188	H	0.836556	0.542739	0.376223
O189	O	0.830438	0.382451	0.667958
C190	C	0.821921	0.467395	0.742200
C191	C	0.866203	0.423082	0.706056
H192	H	0.850819	0.500248	0.773021
H193	H	0.793138	0.496229	0.707428
H194	H	0.789013	0.438478	0.772941
H195	H	0.899149	0.451951	0.675314
H196	H	0.894941	0.394246	0.740862
O197	O	0.989234	0.938414	0.223995
C198	C	1.069108	0.945304	0.144179
C199	C	1.024791	0.981458	0.188438
H200	H	1.097858	0.980089	0.115409
H201	H	1.102039	0.914484	0.173071
H202	H	1.040199	0.914564	0.111258
H203	H	1.053650	1.012232	0.221367
H204	H	0.991859	1.012238	0.159506
O205	O	0.830320	0.382485	0.538426
C206	C	0.750386	0.462336	0.545327
C207	C	0.794699	0.417999	0.581476
H208	H	0.721565	0.491051	0.580116
H209	H	0.779239	0.495298	0.514580
H210	H	0.717516	0.433443	0.514516
H211	H	0.827578	0.446841	0.612321
H212	H	0.765806	0.385035	0.612183
H213	H	0.982696	0.542651	0.230264
