data_functionalizedCrystal
_audit_creation_method	'MofGen! by Chris Wilmer'
_symmetry_space_group_name_H-M	'P1'
_symmetry_Int_Tables_number	1
_symmetry_cell_setting	triclinic
loop_
_symmetry_equiv_pos_as_xyz
  x,y,z
_cell_length_a	17.699077
_cell_length_b	14.853567
_cell_length_c	16.176319
_cell_angle_alpha	89.996997
_cell_angle_beta	89.993140
_cell_angle_gamma	83.457753
loop_
_atom_site_label
_atom_site_type_symbol
_atom_site_fract_x
_atom_site_fract_y
_atom_site_fract_z
O1	O	1.004377	0.113983	-0.068729
O2	O	0.784037	0.128821	-0.068732
O3	O	0.900093	-0.009850	-0.068733
O4	O	0.888322	0.252653	-0.068728
O5	O	0.900077	-0.009859	0.068761
O6	O	0.784021	0.128812	0.068761
O7	O	1.004361	0.113974	0.068765
Cu8	Cu	0.894190	0.121392	0.081317
Cu9	Cu	0.894209	0.121403	-0.081284
O10	O	0.888306	0.252645	0.068765
C11	C	0.755830	0.128286	0.000014
C12	C	0.671808	0.126694	0.000013
C13	C	0.632330	0.125938	0.074961
C14	C	0.553384	0.124428	0.074962
C15	C	0.513916	0.123679	0.000014
C16	C	0.553400	0.124431	-0.074941
C17	C	0.632345	0.125935	-0.074941
C18	C	0.235021	0.118364	-0.074942
C19	C	0.156069	0.116863	-0.074937
C20	C	0.156059	0.116857	0.074960
C21	C	0.235004	0.118361	0.074960
C22	C	0.274482	0.119108	0.000007
C23	C	0.360085	0.120745	0.000007
C24	C	0.428314	0.122049	0.000013
C25	C	0.899551	-0.043441	0.000012
C26	C	0.897953	-0.143519	0.000004
C27	C	0.822257	-0.555772	0.000019
C28	C	0.960134	-0.577564	0.000021
C29	C	0.961637	-0.483536	0.000016
C30	C	0.893449	-0.425621	0.000014
C31	C	0.823758	-0.461735	0.000017
C32	C	1.031327	-0.447415	0.000022
C33	C	1.032832	-0.353382	0.000018
C34	C	0.964643	-0.295465	0.000010
C35	C	0.894950	-0.331584	0.000012
C36	C	0.826761	-0.273669	0.000009
C37	C	0.757067	-0.309786	0.000005
C38	C	0.755569	-0.403818	0.000009
C39	C	0.966141	-0.201433	0.000006
C40	C	0.828262	-0.179632	0.000007
C41	C	1.032568	0.114509	0.000017
C42	C	1.116590	0.116101	0.000013
C43	C	0.888847	0.286236	0.000019
C44	C	0.890445	0.386313	0.000021
N45	N	0.894182	0.121384	0.195682
N46	N	0.894222	0.121403	-0.195650
C47	C	0.945587	0.060006	0.238946
C48	C	0.945591	0.060005	0.325493
C49	C	0.894193	0.121387	0.368775
C50	C	0.842782	0.182769	0.325505
C51	C	0.842775	0.182765	0.238960
C52	C	0.842808	0.182786	0.674533
C53	C	0.842820	0.182787	0.761085
C54	C	0.945624	0.060026	0.761067
C55	C	0.945617	0.060022	0.674522
C56	C	0.894204	0.121400	0.631259
C57	C	0.894199	0.121399	0.537415
C58	C	0.894200	0.121393	0.462618
H59	H	0.123937	0.116252	-0.135972
Cl60	Cl	0.106426	0.115912	0.169190
H61	H	0.664487	0.126552	-0.135971
H62	H	0.800947	0.232763	0.639316
Cl63	Cl	0.778146	0.259927	0.184572
H64	H	0.701548	-0.262620	0.000009
H65	H	1.086842	-0.494576	0.000031
Cl66	Cl	0.667961	-0.449229	0.000001
H67	H	1.015650	-0.624723	0.000029
Cl68	Cl	0.734646	-0.601173	0.000006
Cl69	Cl	1.120446	-0.307986	0.000009
Cl70	Cl	0.284639	0.119306	-0.169170
Cl71	Cl	0.503755	0.123495	0.169187
H72	H	0.987472	0.010042	0.639284
H73	H	0.521260	0.123815	-0.135965
Cl74	Cl	1.053750	-0.156032	0.000027
Cl75	Cl	0.681938	0.126886	0.169188
H76	H	0.987444	0.010025	0.203712
Cl77	Cl	0.742534	-0.106832	-0.000002
Cl78	Cl	0.284616	0.119307	0.169185
Cl79	Cl	1.010256	-0.017140	0.815459
H80	H	0.987448	0.010026	0.360718
H81	H	0.800963	0.232773	0.796323
H82	H	0.800929	0.232745	0.360750
