data_functionalizedCrystal
_audit_creation_method	'MofGen! by Chris Wilmer'
_symmetry_space_group_name_H-M	'P1'
_symmetry_Int_Tables_number	1
_symmetry_cell_setting	triclinic
loop_
_symmetry_equiv_pos_as_xyz
  x,y,z
_cell_length_a	12.759395
_cell_length_b	21.295417
_cell_length_c	12.759387
_cell_angle_alpha	89.960308
_cell_angle_beta	89.981185
_cell_angle_gamma	90.032044
loop_
_atom_site_label
_atom_site_type_symbol
_atom_site_fract_x
_atom_site_fract_y
_atom_site_fract_z
Zn1	Zn	1.606136	-0.250543	-0.593949
Zn2	Zn	1.605983	-0.355828	-0.418245
Zn3	Zn	1.430439	-0.250579	-0.418285
Zn4	Zn	1.430378	-0.355781	-0.593884
O5	O	1.518234	-0.303183	-0.506091
O6	O	1.753137	-0.264514	-0.570651
O7	O	1.582659	-0.341901	-0.271229
O8	O	1.453835	-0.162485	-0.441631
O9	O	1.753024	-0.341866	-0.441563
O10	O	1.582919	-0.162458	-0.570690
O11	O	1.453687	-0.264576	-0.271259
O12	O	1.283410	-0.264530	-0.441569
O13	O	1.453731	-0.341786	-0.740914
O14	O	1.283365	-0.341822	-0.570581
O15	O	1.582859	-0.264468	-0.740961
O16	O	1.582599	-0.443911	-0.441501
O17	O	1.453583	-0.443877	-0.570542
C18	C	1.245266	-0.303175	-0.506073
C19	C	1.128490	-0.303187	-0.506090
C20	C	1.128481	-0.383801	-0.640213
C21	C	1.073616	-0.424112	-0.707277
C22	C	0.963895	-0.424120	-0.707290
C23	C	0.909036	-0.383810	-0.640233
C24	C	0.963901	-0.343499	-0.573169
C25	C	1.073625	-0.343497	-0.573161
C26	C	0.963909	-0.262883	-0.439053
C27	C	1.073631	-0.262877	-0.439034
C28	C	0.909050	-0.222573	-0.371997
C29	C	0.963915	-0.182264	-0.304926
C30	C	1.073643	-0.182258	-0.304915
C31	C	1.128496	-0.222566	-0.371969
C32	C	1.518096	-0.466735	-0.506033
C33	C	1.518133	-0.536703	-0.506043
C34	C	1.585372	-0.569566	-0.438920
C35	C	1.585421	-0.635309	-0.438944
C36	C	1.518213	-0.668185	-0.506079
C37	C	1.450970	-0.635314	-0.573215
C38	C	1.450930	-0.569572	-0.573197
N39	N	1.426306	-0.771452	-0.514083
N40	N	1.426347	-0.833903	-0.514094
C41	C	1.518331	-0.866260	-0.506139
N42	N	1.610275	-0.833806	-0.498153
N43	N	1.610233	-0.771349	-0.498137
C44	C	1.518249	-0.739471	-0.506107
C45	C	1.585628	-0.970409	-0.439039
C46	C	1.585679	-1.036153	-0.439070
C47	C	1.451219	-1.036156	-0.573336
C48	C	1.451177	-0.970414	-0.573310
C49	C	1.518381	-0.937544	-0.506156
C50	C	1.792267	-0.303191	-0.506110
C51	C	1.909044	-0.303195	-0.506118
C52	C	1.518305	-0.303118	-0.780125
C53	C	1.518336	-0.303090	-0.896901
C54	C	1.518401	-0.138993	-0.506172
C55	C	1.518472	-0.069024	-0.506207
C56	C	1.384047	-0.222566	-0.896951
C57	C	1.316921	-0.182291	-0.951837
C58	C	1.316953	-0.182268	-1.061558
C59	C	1.384114	-0.222526	-1.116397
C60	C	1.451240	-0.262801	-1.061511
C61	C	1.451203	-0.262818	-0.951787
C62	C	1.585522	-0.343327	-1.061462
C63	C	1.585497	-0.343348	-0.951740
C64	C	1.652684	-0.383585	-1.116300
C65	C	1.719816	-0.423858	-1.061415
C66	C	1.719783	-0.423878	-0.951686
C67	C	1.652623	-0.383623	-0.896854
C68	C	1.518223	-0.303202	-0.233123
C69	C	1.518397	-0.303053	-0.116347
H70	H	1.118308	-0.149427	-0.250310
Br71	Br	1.676951	-1.080755	-0.347977
Br72	Br	1.277405	-0.222566	-0.371953
H73	H	1.262292	-0.149474	-1.106246
H74	H	1.652700	-0.383567	-1.205641
H75	H	1.384023	-0.222575	-0.807610
H76	H	0.819695	-0.383815	-0.640259
H77	H	1.774490	-0.456635	-1.106073
H78	H	1.640095	-0.542806	-0.384242
H79	H	1.396175	-0.542814	-0.627858
Br80	Br	0.760141	-0.222577	-0.372022
H81	H	1.118295	-0.456931	-0.761875
H82	H	1.774448	-0.456673	-0.907005
Br83	Br	1.360017	-1.080767	-0.664461
H84	H	1.384125	-0.222509	-1.205738
Br85	Br	1.652579	-0.383644	-0.747945
H86	H	1.396421	-0.943654	-0.627964
Br87	Br	1.225794	-0.127648	-0.877410
Br88	Br	1.676680	-0.679920	-0.347842
H89	H	1.217823	-0.383803	-0.640201
H90	H	1.640353	-0.943645	-0.384361
Br91	Br	0.889460	-0.127557	-0.213941
Br92	Br	0.889430	-0.478823	-0.798315
H93	H	1.396250	-0.662086	-0.627879
