data_functionalizedCrystal
_audit_creation_method	'MofGen! by Chris Wilmer'
_symmetry_space_group_name_H-M	'P1'
_symmetry_Int_Tables_number	1
_symmetry_cell_setting	triclinic
loop_
_symmetry_equiv_pos_as_xyz
  x,y,z
_cell_length_a	19.288864
_cell_length_b	15.995350
_cell_length_c	18.366186
_cell_angle_alpha	89.995992
_cell_angle_beta	89.977106
_cell_angle_gamma	83.314311
loop_
_atom_site_label
_atom_site_type_symbol
_atom_site_fract_x
_atom_site_fract_y
_atom_site_fract_z
O1	O	0.921624	0.104451	-0.060780
O2	O	0.719400	0.118542	-0.060729
O3	O	0.826040	-0.010412	-0.060755
O4	O	0.814984	0.233405	-0.060754
O5	O	0.826022	-0.010418	0.060344
O6	O	0.719382	0.118535	0.060370
O7	O	0.921606	0.104445	0.060320
Zn8	Zn	0.820491	0.111489	0.079572
Zn9	Zn	0.820515	0.111498	-0.079982
O10	O	0.814966	0.233399	0.060346
C11	C	0.693513	0.118085	-0.000173
C12	C	0.616406	0.116724	-0.000154
C13	C	0.571906	0.192388	-0.000165
C14	C	0.499456	0.191110	-0.000173
C15	C	0.471508	0.114163	-0.000185
C16	C	0.516018	0.038489	-0.000170
C17	C	0.588467	0.039769	-0.000155
C18	C	0.363096	0.053676	-0.042636
C19	C	0.290648	0.052398	-0.042656
C20	C	0.248053	0.110209	-0.000229
C21	C	0.277912	0.169312	0.042208
C22	C	0.350361	0.170593	0.042224
C23	C	0.392951	0.112765	-0.000201
C24	C	0.124993	0.184492	-0.000248
C25	C	0.052542	0.183210	-0.000251
C26	C	0.069106	0.030587	-0.000255
C27	C	0.141556	0.031871	-0.000244
C28	C	0.169495	0.108826	-0.000244
C29	C	0.825574	-0.041608	-0.000207
C30	C	0.824203	-0.134553	-0.000211
C31	C	0.819282	-0.472282	-0.000207
C32	C	0.743335	-0.424562	-0.000460
C33	C	0.744706	-0.327877	-0.000187
C34	C	0.821723	-0.304731	-0.000209
C35	C	0.859173	-0.345953	0.068934
C36	C	0.857265	-0.442582	0.068992
C37	C	0.858854	-0.442939	-0.068721
C38	C	0.858836	-0.345993	-0.069635
C39	C	0.823107	-0.210039	-0.000208
C40	C	0.817901	-0.566975	-0.000203
C41	C	0.947492	0.104902	-0.000238
C42	C	1.024600	0.106263	-0.000262
C43	C	0.815432	0.264595	-0.000204
C44	C	0.816802	0.357540	-0.000206
N45	N	0.820480	0.111483	0.188463
N46	N	0.820531	0.111497	-0.188873
C47	C	0.867715	0.054410	0.226552
C48	C	0.867720	0.054407	0.302780
C49	C	0.820495	0.111490	0.340916
C50	C	0.773250	0.168567	0.302818
C51	C	0.773243	0.168564	0.226591
C52	C	0.811395	0.187781	0.461678
C53	C	0.811407	0.187785	0.537903
C54	C	0.820515	0.111500	0.576023
C55	C	0.829624	0.035208	0.537909
C56	C	0.829617	0.035204	0.461683
C57	C	0.820498	0.111500	0.423571
C58	C	0.867758	0.054419	0.696767
C59	C	0.867757	0.054414	0.772996
C60	C	0.773292	0.168582	0.773033
C61	C	0.773289	0.168579	0.696805
C62	C	0.820525	0.111499	0.658677
H63	H	0.624700	-0.021848	-0.000146
Br64	Br	0.692749	-0.455249	-0.083103
H65	H	0.906220	0.007934	0.804009
Br66	Br	0.478092	-0.065941	-0.000178
H67	H	0.715267	-0.299341	-0.049751
Br68	Br	-0.007854	0.285907	-0.000260
Br69	Br	0.817475	-0.476999	-0.156071
Br70	Br	0.709154	0.246033	0.354571
Br71	Br	0.420897	-0.024791	-0.100219
H72	H	0.243232	0.216387	0.076757
Br73	Br	0.813584	-0.299863	-0.154904
H74	H	0.734838	0.215057	0.804083
H75	H	0.837032	-0.026916	0.430654
Br76	Br	0.931830	-0.023057	0.354481
Br77	Br	0.841994	-0.068330	0.589634
H78	H	0.829941	-0.460783	0.120694
Br79	Br	0.709132	0.246024	0.174895
H80	H	0.734828	0.215057	0.665791
Br81	Br	0.950196	-0.496686	0.074204
H82	H	0.594649	0.255051	-0.000166
Br83	Br	0.692807	-0.457432	0.081495
Br84	Br	0.815798	-0.298494	0.154723
Br85	Br	0.695281	-0.281243	0.082585
Br86	Br	0.162915	0.288928	-0.000242
H87	H	0.374670	0.218714	0.076780
Br88	Br	0.031186	-0.073843	-0.000259
H89	H	0.915001	-0.330843	-0.073826
H90	H	0.177789	-0.029743	-0.000239
H91	H	0.803966	0.249905	0.430647
H92	H	0.906219	0.007938	0.665722
H93	H	0.914850	-0.474911	-0.069202
Br94	Br	0.250130	-0.027800	-0.100259
H95	H	0.915755	-0.332041	0.071489
Br96	Br	0.439051	0.293804	-0.000184
Br97	Br	0.931818	-0.023056	0.174806
Br98	Br	0.799053	0.291324	0.589621
