data_functionalizedCrystal
_audit_creation_method	'MofGen! by Chris Wilmer'
_symmetry_space_group_name_H-M	'P1'
_symmetry_Int_Tables_number	1
_symmetry_cell_setting	triclinic
loop_
_symmetry_equiv_pos_as_xyz
  x,y,z
_cell_length_a	13.897449
_cell_length_b	13.897448
_cell_length_c	12.759393
_cell_angle_alpha	89.966654
_cell_angle_beta	89.976808
_cell_angle_gamma	90.018519
loop_
_atom_site_label
_atom_site_type_symbol
_atom_site_fract_x
_atom_site_fract_y
_atom_site_fract_z
Zn1	Zn	1.474701	-0.383937	-0.594100
Zn2	Zn	1.974701	0.116063	-0.094100
Zn3	Zn	1.474595	-0.545266	-0.418415
Zn4	Zn	1.974595	-0.045266	0.081585
Zn5	Zn	1.313390	-0.383989	-0.418425
Zn6	Zn	1.813390	0.116011	0.081575
Zn7	Zn	1.313372	-0.545194	-0.594042
Zn8	Zn	1.813372	-0.045194	-0.094042
O9	O	1.394015	-0.464596	-0.506245
O10	O	1.894015	0.035404	-0.006245
O11	O	1.609668	-0.405346	-0.570815
O12	O	2.109668	0.094654	-0.070815
O13	O	1.453175	-0.523925	-0.271395
O14	O	1.953175	-0.023925	0.228605
O15	O	1.334841	-0.249000	-0.441757
O16	O	1.834841	0.251000	0.058243
O17	O	1.609591	-0.523874	-0.441740
O18	O	2.109591	-0.023874	0.058260
O19	O	1.453355	-0.248962	-0.570825
O20	O	1.953355	0.251038	-0.070825
O21	O	1.334738	-0.405435	-0.271402
O22	O	1.834738	0.094565	0.228598
O23	O	1.178406	-0.405365	-0.441701
O24	O	1.678406	0.094635	0.058299
O25	O	1.334808	-0.523750	-0.741071
O26	O	1.834808	-0.023750	-0.241071
O27	O	1.178392	-0.523801	-0.570726
O28	O	1.678392	-0.023801	-0.070726
O29	O	1.453336	-0.405276	-0.741113
O30	O	1.953336	0.094724	-0.241113
O31	O	1.453157	-0.680238	-0.441683
O32	O	1.953157	-0.180238	0.058317
O33	O	1.334706	-0.680185	-0.570716
O34	O	1.834706	-0.180185	-0.070716
C35	C	1.143400	-0.464582	-0.506209
C36	C	1.643400	0.035418	-0.006209
C37	C	1.036186	-0.464598	-0.506218
C38	C	1.536186	0.035402	-0.006218
C39	C	0.949116	-0.464602	-0.506235
C40	C	1.449116	0.035398	-0.006235
C41	C	0.839884	-0.464608	-0.506267
C42	C	1.339884	0.035392	-0.006267
C43	C	1.393944	-0.715211	-0.506215
C44	C	1.893944	-0.215211	-0.006215
C45	C	1.394002	-0.822425	-0.506237
C46	C	1.894002	-0.322425	-0.006237
C47	C	1.394104	-1.018720	-0.506303
C48	C	1.894104	-0.518720	-0.006303
C49	C	1.394044	-0.909487	-0.506269
C50	C	1.894044	-0.409487	-0.006269
C51	C	1.645607	-0.464612	-0.506283
C52	C	2.145607	0.035388	-0.006283
C53	C	1.752821	-0.464619	-0.506299
C54	C	2.252821	0.035381	-0.006299
C55	C	1.394082	-0.464499	-0.780279
C56	C	1.894082	0.035501	-0.280279
C57	C	1.394111	-0.464458	-0.897056
C58	C	1.894111	0.035542	-0.397056
C59	C	1.394111	-0.213003	-0.506299
C60	C	1.894111	0.286997	-0.006299
C61	C	1.394153	-0.105789	-0.506322
C62	C	1.894153	0.394211	-0.006322
C63	C	1.455837	-0.402762	-0.951942
C64	C	1.955837	0.097238	-0.451942
C65	C	1.455860	-0.402727	-1.061666
C66	C	1.955860	0.097273	-0.561666
C67	C	1.332428	-0.526092	-1.061608
C68	C	1.832428	-0.026092	-0.561608
C69	C	1.332401	-0.526121	-0.951886
C70	C	1.832401	-0.026121	-0.451886
C71	C	1.517547	-0.341098	-0.897111
C72	C	2.017547	0.158902	-0.397111
C73	C	1.579278	-0.279398	-0.951997
C74	C	2.079278	0.220602	-0.451997
C75	C	1.579301	-0.279363	-1.061721
C76	C	2.079301	0.220637	-0.561721
C77	C	1.517592	-0.341029	-1.116559
C78	C	2.017592	0.158971	-0.616559
C79	C	1.394003	-0.464624	-0.233278
C80	C	1.894003	0.035376	0.266722
C81	C	1.394161	-0.464393	-0.116502
C82	C	1.894161	0.035607	0.383498
H83	H	1.629513	-0.229187	-0.907341
H84	H	2.129513	0.270813	-0.407341
H85	H	1.517605	-0.340984	-1.205904
H86	H	2.017605	0.159016	-0.705904
H87	H	1.282187	-0.576296	-1.106266
H88	H	1.782187	-0.076296	-0.606266
H89	H	1.282123	-0.576344	-0.907197
H90	H	1.782123	-0.076344	-0.407197
H91	H	1.517537	-0.341122	-0.807768
H92	H	2.017537	0.158878	-0.307768
H93	H	1.629559	-0.229117	-1.106407
H94	H	2.129559	0.270883	-0.606407
