data_functionalizedCrystal
_audit_creation_method	'MofGen! by Chris Wilmer'
_symmetry_space_group_name_H-M	'P1'
_symmetry_Int_Tables_number	1
_symmetry_cell_setting	triclinic
loop_
_symmetry_equiv_pos_as_xyz
  x,y,z
_cell_length_a	19.805407
_cell_length_b	19.805405
_cell_length_c	12.759393
_cell_angle_alpha	89.962167
_cell_angle_beta	89.977649
_cell_angle_gamma	90.028350
loop_
_atom_site_label
_atom_site_type_symbol
_atom_site_fract_x
_atom_site_fract_y
_atom_site_fract_z
Zn1	Zn	1.034749	-0.269387	-0.594076
Zn2	Zn	1.534749	0.230613	-0.094076
Zn3	Zn	1.034660	-0.382592	-0.418378
Zn4	Zn	1.534660	0.117408	0.081622
Zn5	Zn	0.921559	-0.269426	-0.418401
Zn6	Zn	1.421559	0.230574	0.081599
Zn7	Zn	0.921527	-0.382543	-0.594004
Zn8	Zn	1.421527	0.117457	-0.094004
O9	O	0.978124	-0.325987	-0.506215
O10	O	1.478124	0.174013	-0.006215
O11	O	1.129453	-0.284408	-0.570790
O12	O	1.629453	0.215592	-0.070790
O13	O	1.019633	-0.367617	-0.271360
O14	O	1.519633	0.132383	0.228640
O15	O	0.936625	-0.174704	-0.441744
O16	O	1.436625	0.325296	0.058256
O17	O	1.129388	-0.367579	-0.441706
O18	O	1.629388	0.132421	0.058294
O19	O	1.019785	-0.174675	-0.570812
O20	O	1.519785	0.325325	-0.070812
O21	O	0.936539	-0.284475	-0.271376
O22	O	1.436539	0.215525	0.228624
O23	O	0.826839	-0.284427	-0.441674
O24	O	1.326839	0.215573	0.058326
O25	O	0.936570	-0.367496	-0.741035
O26	O	1.436570	0.132504	-0.241035
O27	O	0.826815	-0.367534	-0.570689
O28	O	1.326815	0.132466	-0.070689
O29	O	1.019753	-0.284360	-0.741088
O30	O	1.519753	0.215640	-0.241088
O31	O	1.019601	-0.477302	-0.441635
O32	O	1.519601	0.022698	0.058365
O33	O	0.936483	-0.477266	-0.570667
O34	O	1.436483	0.022734	-0.070667
C35	C	0.802268	-0.325980	-0.506177
C36	C	1.302268	0.174020	-0.006177
C37	C	0.727036	-0.325993	-0.506186
C38	C	1.227036	0.174007	-0.006186
C39	C	0.978048	-0.501843	-0.506164
C40	C	1.478048	-0.001843	-0.006164
C41	C	0.978077	-0.577075	-0.506177
C42	C	1.478077	-0.077075	-0.006177
C43	C	0.265282	-0.282761	-0.573573
C44	C	0.765282	0.217239	-0.073573
C45	C	0.335971	-0.282762	-0.573565
C46	C	0.835971	0.217238	-0.073565
C47	C	0.371274	-0.325997	-0.506249
C48	C	0.871274	0.174003	-0.006249
C49	C	0.335885	-0.369239	-0.438943
C50	C	0.835885	0.130761	0.061057
C51	C	0.265198	-0.369241	-0.438957
C52	C	0.765198	0.130759	0.061043
C53	C	0.620958	-0.369234	-0.438887
C54	C	1.120958	0.130766	0.061113
C55	C	0.691651	-0.369228	-0.438877
C56	C	1.191651	0.130772	0.061123
C57	C	0.691731	-0.282755	-0.573496
C58	C	1.191731	0.217245	-0.073496
C59	C	0.621044	-0.282757	-0.573510
C60	C	1.121044	0.217243	-0.073510
C61	C	0.585661	-0.326001	-0.506208
C62	C	1.085661	0.173999	-0.006208
C63	C	0.509013	-0.326000	-0.506219
C64	C	1.009013	0.174000	-0.006219
C65	C	0.447921	-0.325995	-0.506232
C66	C	0.947921	0.174005	-0.006232
C67	C	1.021399	-0.612415	-0.439061
C68	C	1.521399	-0.112415	0.060939
C69	C	1.021427	-0.683104	-0.439084
C70	C	1.521427	-0.183104	0.060916
C71	C	0.978130	-0.718451	-0.506219
C72	C	1.478130	-0.218451	-0.006219
C73	C	0.934807	-0.683105	-0.573343
C74	C	1.434807	-0.183105	-0.073343
C75	C	0.934782	-0.612418	-0.573325
C76	C	1.434782	-0.112418	-0.073325
C77	C	0.934907	-0.968178	-0.573421
C78	C	1.434907	-0.468178	-0.073421
C79	C	0.934933	-1.038871	-0.573432
C80	C	1.434933	-0.538871	-0.073432
C81	C	1.021552	-1.038864	-0.439181
C82	C	1.521552	-0.538864	0.060819
C83	C	1.021527	-0.968177	-0.439162
C84	C	1.521527	-0.468177	0.060838
C85	C	0.978206	-0.932838	-0.506289
C86	C	1.478206	-0.432838	-0.006289
C87	C	0.978177	-0.856190	-0.506265
C88	C	1.478177	-0.356190	-0.006265
C89	C	0.978156	-0.795098	-0.506239
C90	C	1.478156	-0.295098	-0.006239
C91	C	1.154666	-0.325995	-0.506254
C92	C	1.654666	0.174005	-0.006254
C93	C	1.229898	-0.325998	-0.506270
C94	C	1.729898	0.174002	-0.006270
C95	C	0.978168	-0.325918	-0.780248
C96	C	1.478168	0.174082	-0.280248
C97	C	0.978186	-0.325889	-0.897025
C98	C	1.478186	0.174111	-0.397025
C99	C	0.978219	-0.149444	-0.506289
C100	C	1.478219	0.350556	-0.006289
C101	C	0.978259	-0.074212	-0.506320
C102	C	1.478259	0.425788	-0.006320
C103	C	0.934938	-0.282588	-0.951902
C104	C	1.434938	0.217412	-0.451902
C105	C	0.934958	-0.282568	-1.061626
C106	C	1.434958	0.217432	-0.561626
C107	C	1.021482	-0.369151	-1.061587
C108	C	1.521482	0.130849	-0.561587
C109	C	1.021458	-0.369174	-0.951865
C110	C	1.521458	0.130826	-0.451865
C111	C	0.884986	-0.232599	-0.951925
C112	C	1.384986	0.267401	-0.451925
C113	C	0.885006	-0.232579	-1.061649
C114	C	1.385006	0.267421	-0.561649
C115	C	0.978119	-0.326007	-0.233247
C116	C	1.478119	0.173993	0.266753
C117	C	0.978231	-0.325846	-0.116471
C118	C	1.478231	0.174154	0.383529
H119	H	0.364777	-0.247556	-0.628374
H120	H	0.864777	0.252444	-0.128374
N121	N	1.068150	-0.721219	-0.366687
N122	N	1.568150	-0.221219	0.133313
H123	H	1.061600	-0.771363	-0.376888
H124	H	1.561600	-0.271363	0.123112
H125	H	1.116479	-0.708810	-0.383105
H126	H	1.616479	-0.208810	0.116895
N127	N	1.068227	-0.930053	-0.366755
N128	N	1.568227	-0.430053	0.133245
H129	H	1.095679	-0.963168	-0.324243
H130	H	1.595679	-0.463168	0.175757
H131	H	1.099521	-0.900678	-0.409569
H132	H	1.599521	-0.400678	0.090431
H133	H	0.364635	-0.404445	-0.384137
H134	H	0.864635	0.095555	0.115863
H135	H	0.899557	-0.711890	-0.628010
H136	H	1.399557	-0.211890	-0.128010
H137	H	0.899632	-0.939411	-0.628076
H138	H	1.399632	-0.439411	-0.128076
N139	N	0.819043	-0.257436	-1.106718
N140	N	1.319043	0.242564	-0.606718
H141	H	0.798224	-0.220800	-1.151305
H142	H	1.298224	0.279200	-0.651305
H143	H	0.827612	-0.298714	-1.151203
H144	H	1.327612	0.201286	-0.651203
H145	H	0.832549	-0.246638	-0.922138
H146	H	1.332549	0.253362	-0.422138
H147	H	1.056828	-1.067646	-0.384526
H148	H	1.556828	-0.567646	0.115474
H149	H	0.899506	-0.583645	-0.627979
H150	H	1.399506	-0.083645	-0.127979
N151	N	0.227207	-0.236121	-0.646169
N152	N	0.727207	0.263879	-0.146169
H153	H	0.260352	-0.208731	-0.688803
H154	H	0.760352	0.291269	-0.188803
H155	H	0.197880	-0.263706	-0.694719
H156	H	0.697880	0.236294	-0.194719
N157	N	0.582967	-0.236116	-0.646101
N158	N	1.082967	0.263884	-0.146101
H159	H	0.616109	-0.208723	-0.688735
H160	H	1.116109	0.291277	-0.188735
H161	H	0.553638	-0.263699	-0.694651
H162	H	1.053638	0.236301	-0.194651
N163	N	0.729893	-0.236123	-0.646107
N164	N	1.229893	0.263877	-0.146107
H165	H	0.780031	-0.242685	-0.635896
H166	H	1.280031	0.257315	-0.135896
H167	H	0.717549	-0.246722	-0.721108
H168	H	1.217549	0.253278	-0.221108
H169	H	0.592158	-0.404444	-0.384083
H170	H	1.092158	0.095556	0.115917
N171	N	0.909877	-0.166655	-0.906859
N172	N	1.409877	0.333345	-0.406859
H173	H	0.951137	-0.175196	-0.862293
H174	H	1.451137	0.324804	-0.362293
H175	H	0.921887	-0.134803	-0.965843
H176	H	1.421887	0.365197	-0.465843
H177	H	1.056665	-0.404443	-0.907188
H178	H	1.556665	0.095557	-0.407188
N179	N	1.068147	-0.415838	-1.120736
N180	N	1.568147	0.084162	-0.620736
H181	H	1.061599	-0.409257	-1.198572
H182	H	1.561599	0.090743	-0.698572
H183	H	1.116491	-0.405315	-1.101572
H184	H	1.616491	0.094685	-0.601572
N185	N	0.903651	-0.163137	-1.101142
N186	N	1.403651	0.336863	-0.601142
H187	H	0.950094	-0.150673	-1.074799
H188	H	1.450094	0.349327	-0.574799
H189	H	0.903631	-0.163143	-1.180296
H190	H	1.403631	0.336857	-0.680296
H191	H	0.720393	-0.404438	-0.384057
H192	H	1.220393	0.095562	0.115943
N193	N	0.227030	-0.415877	-0.366370
N194	N	0.727030	0.084123	0.133630
H195	H	0.260120	-0.443266	-0.323721
H196	H	0.760120	0.056734	0.176279
H197	H	0.197697	-0.388292	-0.317833
H198	H	0.697697	0.111708	0.182167
N199	N	1.068104	-0.574296	-0.366656
N200	N	1.568104	-0.074296	0.133344
H201	H	1.061516	-0.524153	-0.376826
H202	H	1.561516	-0.024153	0.123174
H203	H	1.057604	-0.586701	-0.291609
H204	H	1.557604	-0.086701	0.208391
N205	N	0.888231	-1.076997	-0.645843
N206	N	1.388231	-0.576997	-0.145843
H207	H	0.860784	-1.043884	-0.688367
H208	H	1.360784	-0.543884	-0.188367
H209	H	0.915777	-1.106280	-0.694505
H210	H	1.415777	-0.606280	-0.194505
