data_functionalizedCrystal
_audit_creation_method	'MofGen! by Chris Wilmer'
_symmetry_space_group_name_H-M	'P1'
_symmetry_Int_Tables_number	1
_symmetry_cell_setting	triclinic
loop_
_symmetry_equiv_pos_as_xyz
  x,y,z
_cell_length_a	10.654541
_cell_length_b	9.130307
_cell_length_c	13.262975
_cell_angle_alpha	105.909820
_cell_angle_beta	95.538774
_cell_angle_gamma	90.000178
loop_
_atom_site_label
_atom_site_type_symbol
_atom_site_fract_x
_atom_site_fract_y
_atom_site_fract_z
O1	O	-1.667082	-0.063048	0.147399
O2	O	-1.301531	-0.057466	0.161446
O3	O	-1.493493	-0.121070	0.001711
O4	O	-1.475119	0.000555	0.307134
O5	O	-1.493487	0.122529	0.001710
O6	O	-1.301524	0.186132	0.161445
O7	O	-1.667076	0.180550	0.147398
Cu8	Cu	-1.484299	0.205584	0.154421
Cu9	Cu	-1.484307	-0.082500	0.154423
O10	O	-1.475113	0.244153	0.307133
C11	C	-1.254735	0.063921	0.160415
C12	C	-1.115307	0.062688	0.157330
N13	N	-1.484303	0.408206	0.154419
C14	C	-1.492457	-0.014847	-0.037398
C15	C	-1.489363	-0.061261	-0.153928
C16	C	-1.713872	0.059160	0.148429
C17	C	-1.853299	0.060383	0.151514
C18	C	-1.086356	0.138731	0.348337
C19	C	-1.006378	0.176169	0.442387
C20	C	-0.875375	0.175011	0.439483
C21	C	-0.824348	0.136416	0.342518
C22	C	-0.904325	0.098978	0.248468
C23	C	-1.035330	0.100136	0.251383
C24	C	-0.933276	0.022946	0.057463
C25	C	-1.064280	0.024093	0.060366
C26	C	-0.882249	-0.015649	-0.039501
C27	C	-0.962226	-0.053097	-0.133554
C28	C	-1.093237	-0.051939	-0.130645
C29	C	-1.144257	-0.013344	-0.033684
N30	N	-1.484313	-0.285125	0.154417
C31	C	-1.654356	0.351892	0.013015
C32	C	-1.739390	0.400402	-0.057684
C33	C	-1.739403	0.553736	-0.057684
C34	C	-1.654369	0.658564	0.013019
C35	C	-1.569335	0.610053	0.083718
C36	C	-1.569334	0.456714	0.083713
C37	C	-1.399278	0.666364	0.225116
C38	C	-1.399270	0.513034	0.225123
C39	C	-1.314245	0.771192	0.295819
C40	C	-1.229214	0.722684	0.366525
C41	C	-1.229206	0.569341	0.366524
C42	C	-1.314235	0.464523	0.295822
C43	C	-1.487929	-0.215863	-0.208648
C44	C	-1.485037	-0.259506	-0.318135
C45	C	-1.483589	-0.148550	-0.372914
C46	C	-1.485032	0.006055	-0.318195
C47	C	-1.487915	0.049702	-0.208696
C48	C	-1.483574	0.117016	-0.372962
C49	C	-1.485017	0.271621	-0.318242
C50	C	-1.487900	0.315261	-0.208754
C51	C	-1.489349	0.204305	-0.153976
C52	C	-1.480692	0.073369	-0.482460
C53	C	-1.480677	0.338934	-0.482508
C54	C	-1.483569	0.382577	-0.373021
C55	C	-1.476149	0.137928	0.346242
C56	C	-1.479243	0.184332	0.462772
H57	H	-1.193024	0.139646	0.350712
H58	H	-0.920669	-0.084520	-0.212495
H59	H	-1.158348	-0.082420	-0.207233
H60	H	-1.047940	0.207596	0.521334
O61	O	-1.822038	0.298761	-0.126461
C62	C	-1.897113	0.374468	-0.188842
H63	H	-1.845625	0.483139	-0.190432
H64	H	-1.915846	0.296848	-0.272512
H65	H	-1.990574	0.404632	-0.154027
H66	H	-1.314241	0.339669	0.295818
O67	O	-0.797628	0.211623	0.530812
C68	C	-0.720957	0.339365	0.534838
H69	H	-0.768651	0.406327	0.481528
H70	H	-0.706659	0.415324	0.619276
H71	H	-0.625566	0.299743	0.506967
H72	H	-0.717677	0.135494	0.340162
H73	H	-1.250925	-0.012415	-0.031307
H74	H	-1.484744	0.508459	-0.328453
H75	H	-0.775578	-0.016581	-0.041860
O76	O	-1.654484	0.202879	0.012851
C77	C	-1.747792	0.120769	-0.064687
H78	H	-1.769381	0.184297	-0.127042
H79	H	-1.712223	0.002847	-0.103201
H80	H	-1.837222	0.108765	-0.026519
H81	H	-1.808641	0.593229	-0.115257
O82	O	-1.314244	0.920217	0.296015
C83	C	-1.340304	1.011185	0.395840
H84	H	-1.314878	0.947359	0.457471
H85	H	-1.282161	1.122142	0.416870
H86	H	-1.444942	1.037612	0.393900
O87	O	-1.146568	0.824614	0.435053
C88	C	-1.068790	0.890648	0.378228
H89	H	-1.118387	0.881053	0.296488
H90	H	-1.049154	1.015860	0.421871
H91	H	-0.975938	0.828432	0.370376
H92	H	-1.489070	0.441151	-0.164204
H93	H	-1.654374	0.783410	0.013006
H94	H	-1.159956	0.529853	0.424091
H95	H	-1.491710	0.239831	-0.064823
O96	O	-1.479458	-0.076766	-0.535733
C97	C	-1.586441	-0.114394	-0.610128
H98	H	-1.622226	-0.007129	-0.630264
H99	H	-1.559980	-0.200305	-0.684613
H100	H	-1.663625	-0.166174	-0.575668
O101	O	-1.480838	-0.191203	-0.479275
C102	C	-1.479842	-0.351450	-0.515822
H103	H	-1.521216	-0.403102	-0.456759
H104	H	-1.538809	-0.391190	-0.595283
H105	H	-1.378697	-0.389639	-0.524978
O106	O	-1.479086	0.446606	-0.535798
C107	C	-1.368760	0.433723	-0.588026
H108	H	-1.332133	0.313360	-0.600719
H109	H	-1.391146	0.458253	-0.667521
H110	H	-1.293790	0.519134	-0.538074
O111	O	-1.489202	-0.323469	-0.155293
C112	C	-1.382232	-0.301796	-0.080881
H113	H	-1.346409	-0.178519	-0.060826
H114	H	-1.408727	-0.328246	-0.006360
H115	H	-1.305065	-0.381095	-0.115284
H116	H	-1.483865	-0.385385	-0.362680
