data_functionalizedCrystal
_audit_creation_method	'MofGen! by Chris Wilmer'
_symmetry_space_group_name_H-M	'P1'
_symmetry_Int_Tables_number	1
_symmetry_cell_setting	triclinic
loop_
_symmetry_equiv_pos_as_xyz
  x,y,z
_cell_length_a	11.026607
_cell_length_b	26.809956
_cell_length_c	10.967971
_cell_angle_alpha	77.865546
_cell_angle_beta	96.380373
_cell_angle_gamma	90.010075
loop_
_atom_site_label
_atom_site_type_symbol
_atom_site_fract_x
_atom_site_fract_y
_atom_site_fract_z
O1	O	1.614510	-0.003519	0.523493
O2	O	1.260710	0.001606	0.463882
O3	O	1.445778	0.014498	0.313872
O4	O	1.429442	-0.016411	0.673503
O5	O	1.445743	-0.068463	0.313893
O6	O	1.260675	-0.081355	0.463903
O7	O	1.614475	-0.086480	0.523515
Zn8	Zn	1.437570	-0.097090	0.493712
Zn9	Zn	1.437616	0.012215	0.493684
O10	O	1.429407	-0.099372	0.673525
C11	C	1.215391	-0.038929	0.452895
C12	C	1.080405	-0.036111	0.420111
N13	N	1.437547	-0.171687	0.493733
C14	C	1.007349	-0.043891	0.510632
C15	C	0.867834	-0.040978	0.476751
C16	C	1.519553	-0.510602	0.427278
C17	C	1.519582	-0.719479	0.427266
O18	O	1.589258	-0.741626	0.370760
N19	N	1.437622	-0.751308	0.493658
C20	C	1.355644	-0.730915	0.560051
O21	O	1.285924	-0.762779	0.616511
C22	C	1.355610	-0.522038	0.560056
C23	C	1.437584	-0.490212	0.493670
C24	C	1.601520	-0.478777	0.360896
C25	C	1.601516	-0.426561	0.360906
C26	C	1.519546	-0.406171	0.427297
C27	C	1.437580	-0.437997	0.493679
C28	C	1.273627	-0.501645	0.626441
C29	C	1.273624	-0.449422	0.626434
C30	C	1.355597	-0.417596	0.560048
C31	C	1.355607	-0.365392	0.560080
N32	N	1.437567	-0.333562	0.493687
C33	C	1.519537	-0.353952	0.427296
C34	C	1.355669	-0.840578	0.560046
C35	C	1.355678	-0.892797	0.560047
C36	C	1.519615	-0.881357	0.427259
C37	C	1.519611	-0.829138	0.427267
C38	C	1.437629	-0.808748	0.493654
C39	C	1.519524	-0.244296	0.427322
C40	C	1.519517	-0.192077	0.427341
C41	C	1.355576	-0.203521	0.560123
C42	C	1.355587	-0.255736	0.560110
C43	C	1.437565	-0.276122	0.493699
O44	O	1.285959	-0.343208	0.616544
O45	O	1.589228	-0.322077	0.370822
C46	C	1.519557	-0.562818	0.427269
C47	C	1.437591	-0.594643	0.493651
C48	C	1.355621	-0.574254	0.560042
C49	C	1.437600	-0.646862	0.493652
C50	C	1.519570	-0.667252	0.427261
C51	C	1.601530	-0.635423	0.360868
C52	C	1.601527	-0.583208	0.360878
C53	C	1.273661	-0.606083	0.626434
C54	C	1.273672	-0.658298	0.626421
C55	C	1.355642	-0.678688	0.560030
C56	C	1.659795	-0.045944	0.534501
C57	C	1.794780	-0.048759	0.567285
C58	C	1.444575	-0.022963	0.267126
C59	C	1.441026	-0.010986	0.127804
N60	N	1.437648	0.086814	0.493656
C61	C	1.439426	-0.048622	0.065695
C62	C	1.435759	-0.036243	-0.078302
C63	C	1.430610	-0.061910	0.720270
C64	C	1.434159	-0.073884	0.859592
H65	H	1.048091	-0.052710	0.613213
O66	O	1.440811	-0.097984	0.129470
C67	C	1.337642	-0.106336	0.195745
H68	H	1.263184	-0.076725	0.149574
H69	H	1.302378	-0.146198	0.194196
H70	H	1.363938	-0.102840	0.297055
H71	H	1.288848	-0.281651	0.614182
O72	O	1.193936	-0.532590	0.690740
C73	C	1.118362	-0.555578	0.606883
H74	H	1.165989	-0.555931	0.519974
H75	H	1.099535	-0.596411	0.654736
H76	H	1.028455	-0.532981	0.578133
O77	O	1.031871	-0.025679	0.297711
C78	C	1.071031	-0.063494	0.237871
H79	H	1.098047	-0.099815	0.311052
H80	H	0.993683	-0.071869	0.167526
H81	H	1.153025	-0.049376	0.186647
O82	O	1.439200	0.038381	0.063991
C83	C	1.332176	0.048365	-0.021241
H84	H	1.259709	0.019893	0.011677
H85	H	1.296864	0.088774	-0.026054
H86	H	1.353411	0.044501	-0.118264
O87	O	1.599104	-0.264025	0.362632
C88	C	1.578302	-0.240244	0.234423
H89	H	1.531430	-0.201442	0.224035
H90	H	1.669177	-0.234918	0.193441
H91	H	1.517479	-0.265140	0.182121
H92	H	1.435510	-0.115273	-0.086983
O93	O	0.819047	-0.030442	0.354426
C94	C	0.690611	-0.029888	0.347829
H95	H	0.661771	-0.021997	0.438752
H96	H	0.650971	0.001274	0.265502
H97	H	0.655233	-0.068490	0.333897
O98	O	0.843413	-0.059182	0.689658
C99	C	0.916021	-0.018310	0.713974
H100	H	0.885420	0.017908	0.641914
H101	H	0.905594	-0.012322	0.812188
H102	H	1.015761	-0.027466	0.707484
O103	O	1.681272	-0.498499	0.296381
C104	C	1.753581	-0.459200	0.237773
H105	H	1.755345	-0.426413	0.289346
H106	H	1.850523	-0.474510	0.240575
H107	H	1.713348	-0.444898	0.136009
H108	H	1.668262	-0.400650	0.306844
O109	O	1.599133	-0.161116	0.362944
C110	C	1.674682	-0.138051	0.446657
H111	H	1.677769	-0.162307	0.545732
H112	H	1.770821	-0.134863	0.417238
H113	H	1.636550	-0.098332	0.444695
H114	H	1.206860	-0.432824	0.680493
H115	H	1.586360	-0.803227	0.373209
O116	O	1.276005	-0.923749	0.624363
C117	C	1.200433	-0.946741	0.540514
H118	H	1.248050	-0.947089	0.453596
H119	H	1.181625	-0.987577	0.588367
H120	H	1.110516	-0.924150	0.511777
H121	H	1.434420	0.005145	-0.131727
O122	O	1.599120	-0.901247	0.362780
C123	C	1.581560	-0.954163	0.377050
H124	H	1.485295	-0.963446	0.402024
H125	H	1.594288	-0.966131	0.285420
H126	H	1.650896	-0.975701	0.455244
H127	H	1.288907	-0.823981	0.614110
H128	H	1.288840	-0.186912	0.614183
O129	O	1.681196	-0.552363	0.296272
C130	C	1.753555	-0.581568	0.237705
H131	H	1.703693	-0.617708	0.225076
H132	H	1.771280	-0.558257	0.142038
H133	H	1.844200	-0.592356	0.298639
H134	H	1.668278	-0.652033	0.306815
O135	O	1.193984	-0.689250	0.690732
C136	C	1.118412	-0.712235	0.606869
H137	H	1.166035	-0.712582	0.519955
H138	H	1.099592	-0.753071	0.654712
H139	H	1.028501	-0.689641	0.578130
O140	O	1.193991	-0.586368	0.691046
C141	C	1.121640	-0.625661	0.749609
H142	H	1.171506	-0.663964	0.762225
H143	H	1.103918	-0.618811	0.845281
H144	H	1.030992	-0.625982	0.688678
