data_functionalizedCrystal
_audit_creation_method	'MofGen! by Chris Wilmer'
_symmetry_space_group_name_H-M	'P1'
_symmetry_Int_Tables_number	1
_symmetry_cell_setting	triclinic
loop_
_symmetry_equiv_pos_as_xyz
  x,y,z
_cell_length_a	17.019282
_cell_length_b	19.188930
_cell_length_c	15.500227
_cell_angle_alpha	87.186616
_cell_angle_beta	88.965536
_cell_angle_gamma	83.267516
loop_
_atom_site_label
_atom_site_type_symbol
_atom_site_fract_x
_atom_site_fract_y
_atom_site_fract_z
O1	O	1.046067	0.089173	-0.006008
O2	O	1.379400	0.422506	0.327326
O3	O	1.712733	0.755840	0.660659
O4	O	0.817235	0.099757	0.011050
O5	O	1.150568	0.433090	0.344383
O6	O	1.483901	0.766424	0.677716
O7	O	0.938254	-0.007157	0.002012
O8	O	1.271587	0.326177	0.335345
O9	O	1.604920	0.659510	0.668679
O10	O	0.925048	0.196087	0.003030
O11	O	1.258381	0.529420	0.336364
O12	O	1.591715	0.862753	0.669697
O13	O	0.930910	-0.000694	-0.141328
O14	O	1.264243	0.332639	0.192005
O15	O	1.597577	0.665972	0.525338
O16	O	0.809891	0.106219	-0.132290
O17	O	1.143225	0.439553	0.201043
O18	O	1.476558	0.772886	0.534376
O19	O	1.038723	0.095635	-0.149348
O20	O	1.372056	0.428968	0.183986
O21	O	1.705390	0.762302	0.517319
Cu22	Cu	0.923637	0.101517	-0.153907
Cu23	Cu	1.256970	0.434851	0.179426
Cu24	Cu	1.590303	0.768184	0.512759
Cu25	Cu	0.932321	0.093875	0.015609
Cu26	Cu	1.265655	0.427208	0.348943
Cu27	Cu	1.598988	0.760542	0.682276
O28	O	0.917704	0.202549	-0.140310
O29	O	1.251038	0.535882	0.193023
O30	O	1.584371	0.869216	0.526357
C31	C	0.784287	0.102461	-0.058438
C32	C	1.117620	0.435794	0.274895
C33	C	1.450954	0.769128	0.608228
C34	C	0.697054	0.100882	-0.051937
C35	C	1.030387	0.434215	0.281397
C36	C	1.363720	0.767549	0.614730
C37	C	0.652073	0.103661	-0.127019
C38	C	0.985406	0.436994	0.206314
C39	C	1.318740	0.770328	0.539648
C40	C	0.570110	0.102166	-0.120912
C41	C	0.903443	0.435500	0.212421
C42	C	1.236776	0.768833	0.545754
C43	C	0.533128	0.097897	-0.039723
C44	C	0.866461	0.431231	0.293611
C45	C	1.199794	0.764564	0.626944
C46	C	0.578115	0.095116	0.035365
C47	C	0.911448	0.428449	0.368699
C48	C	1.244781	0.761783	0.702032
C49	C	0.660077	0.096606	0.029258
C50	C	0.993411	0.429939	0.362591
C51	C	1.326744	0.763272	0.695924
C52	C	0.285854	0.093218	-0.017373
C53	C	0.619188	0.426552	0.315960
C54	C	0.952521	0.759885	0.649293
C55	C	0.203885	0.091731	-0.011272
C56	C	0.537219	0.425064	0.322062
C57	C	0.870552	0.758397	0.655395
C58	C	0.195886	0.098780	-0.167550
C59	C	0.529219	0.432113	0.165783
C60	C	0.862553	0.765447	0.499117
C61	C	0.277850	0.100274	-0.173650
C62	C	0.611183	0.433607	0.159683
C63	C	0.944517	0.766940	0.493017
C64	C	0.322830	0.097488	-0.098562
C65	C	0.656164	0.430822	0.234771
C66	C	0.989497	0.764155	0.568104
C67	C	0.449348	0.096372	-0.033479
C68	C	0.782681	0.429705	0.299854
C69	C	1.116014	0.763038	0.633188
C70	C	0.406610	0.099009	-0.104807
C71	C	0.739943	0.432343	0.228526
C72	C	1.073276	0.765676	0.561860
C73	C	0.934154	-0.029939	-0.069629
C74	C	1.267487	0.303395	0.263705
C75	C	1.600821	0.636728	0.597038
C76	C	0.932870	-0.107449	-0.069540
C77	C	1.266203	0.225884	0.263793
C78	C	1.599536	0.559217	0.597126
C79	C	1.003880	-0.152016	-0.074838
C80	C	1.337213	0.181317	0.258496
C81	C	1.670546	0.514651	0.591829
C82	C	1.002674	-0.224847	-0.074734
C83	C	1.336008	0.108487	0.258599
C84	C	1.669341	0.441820	0.591933
C85	C	0.930454	-0.253106	-0.069350
C86	C	1.263787	0.080227	0.263983
C87	C	1.597120	0.413560	0.597317
C88	C	0.859435	-0.208530	-0.064047
C89	C	1.192768	0.124804	0.269286
C90	C	1.526101	0.458137	0.602620
C91	C	0.860642	-0.135701	-0.064142
C92	C	1.193976	0.197632	0.269191
C93	C	1.527309	0.530965	0.602524
N94	N	0.872751	-0.359189	-0.114016
N95	N	1.206084	-0.025856	0.219317
N96	N	1.539417	0.307477	0.552650
N97	N	0.871608	-0.428374	-0.113928
N98	N	1.204941	-0.095041	0.219405
N99	N	1.538274	0.238293	0.552739
C100	C	0.926810	-0.472534	-0.069061
C101	C	1.260143	-0.139201	0.264272
C102	C	1.593477	0.194133	0.597606
N103	N	0.983210	-0.444897	-0.024297
N104	N	1.316543	-0.111563	0.309037
N105	N	1.649876	0.221770	0.642370
N106	N	0.984354	-0.375706	-0.024389
N107	N	1.317688	-0.042373	0.308944
N108	N	1.651021	0.290961	0.642278
C109	C	0.929136	-0.332076	-0.069246
C110	C	1.262469	0.001258	0.264088
C111	C	1.595803	0.334591	0.597421
C112	C	0.996518	-0.596073	-0.074245
C113	C	1.329851	-0.262739	0.259089
C114	C	1.663185	0.070594	0.592422
C115	C	0.995310	-0.668904	-0.074136
C116	C	1.328643	-0.335571	0.259198
C117	C	1.661976	-0.002238	0.592531
C118	C	0.852068	-0.652585	-0.063457
C119	C	1.185401	-0.319252	0.269876
C120	C	1.518734	0.014081	0.603209
C121	C	0.853278	-0.579756	-0.063558
C122	C	1.186612	-0.246422	0.269775
C123	C	1.519945	0.086911	0.603109
C124	C	0.925505	-0.551504	-0.068956
C125	C	1.258839	-0.218170	0.264377
C126	C	1.592172	0.115163	0.597711
C127	C	1.071671	0.092931	-0.079858
C128	C	1.405004	0.426264	0.253476
C129	C	1.738338	0.759598	0.586809
C130	C	1.158905	0.094510	-0.086354
C131	C	1.492238	0.427843	0.246979
C132	C	1.825571	0.761177	0.580313
C133	C	0.921804	0.225331	-0.068667
C134	C	1.255137	0.558664	0.264666
C135	C	1.588471	0.891997	0.597999
C136	C	0.923089	0.302841	-0.068750
C137	C	1.256422	0.636174	0.264583
C138	C	1.589755	0.969508	0.597917
N139	N	0.917534	0.106892	-0.273136
N140	N	1.250867	0.440225	0.060197
N141	N	1.584201	0.773559	0.393530
C142	C	0.968832	0.061606	-0.322244
C143	C	1.302165	0.394939	0.011089
C144	C	1.635498	0.728272	0.344423
C145	C	0.964223	0.065677	-0.412473
C146	C	1.297557	0.399010	-0.079139
C147	C	1.630890	0.732344	0.254194
C148	C	0.908321	0.115039	-0.453592
C149	C	1.241654	0.448372	-0.120259
C150	C	1.574988	0.781705	0.213074
C151	C	0.857018	0.160327	-0.404478
C152	C	1.190351	0.493660	-0.071145
C153	C	1.523685	0.826994	0.262189
C154	C	0.861623	0.156252	-0.314251
C155	C	1.194956	0.489585	0.019082
C156	C	1.528290	0.822918	0.352416
C157	C	0.891732	0.129708	-0.725820
C158	C	1.225065	0.463041	-0.392487
C159	C	1.558399	0.796374	-0.059154
C160	C	0.887133	0.133781	-0.816054
C161	C	1.220466	0.467114	-0.482721
C162	C	1.553799	0.800448	-0.149388
C163	C	0.994338	0.039130	-0.824043
C164	C	1.327671	0.372463	-0.490709
C165	C	1.661004	0.705796	-0.157376
C166	C	0.998941	0.035062	-0.733814
C167	C	1.332274	0.368395	-0.400480
C168	C	1.665607	0.701728	-0.067147
C169	C	0.947635	0.080347	-0.684707
C170	C	1.280968	0.413681	-0.351374
C171	C	1.614302	0.747014	-0.018040
C172	C	0.903611	0.119203	-0.545821
C173	C	1.236944	0.452536	-0.212487
C174	C	1.570278	0.785870	0.120846
C175	C	0.952342	0.076179	-0.592480
C176	C	1.285675	0.409513	-0.259147
C177	C	1.619008	0.742846	0.074186
N178	N	0.938430	0.088495	0.134838
N179	N	1.271763	0.421828	0.468171
N180	N	1.605097	0.755161	0.801505
H181	H	0.533491	0.104418	-0.182053
H182	H	0.866825	0.437751	0.151281
H183	H	1.200158	0.771084	0.484614
N184	N	0.163990	0.087116	0.076298
N185	N	0.497324	0.420450	0.409631
N186	N	0.830657	0.753783	0.742964
H187	H	0.123642	0.129580	0.082809
H188	H	0.456975	0.462914	0.416142
H189	H	0.790308	0.796247	0.749476
H190	H	0.204968	0.085551	0.122891
H191	H	0.538301	0.418885	0.456224
H192	H	0.871635	0.752218	0.789558
H193	H	0.682176	0.107143	-0.193132
H194	H	1.015510	0.440476	0.140201
H195	H	1.348843	0.773810	0.473534
H196	H	0.322468	0.090948	0.043769
H197	H	0.655801	0.424282	0.377102
H198	H	0.989135	0.757615	0.710435
H199	H	0.307955	0.103746	-0.239763
H200	H	0.641288	0.437080	0.093570
H201	H	0.974622	0.770413	0.426903
H202	H	0.795454	-0.543468	-0.059249
H203	H	1.128787	-0.210135	0.274084
H204	H	1.462120	0.123199	0.607417
N205	N	0.147372	0.101783	-0.248533
N206	N	0.480706	0.435116	0.084800
N207	N	0.814039	0.768449	0.418134
H208	H	0.089701	0.101154	-0.232343
H209	H	0.423034	0.434487	0.100991
H210	H	0.756368	0.767821	0.434324
H211	H	0.165762	0.059829	-0.283644
H212	H	0.499095	0.393163	0.049689
H213	H	0.832428	0.726496	0.383022
H214	H	1.014356	0.021413	-0.288771
H215	H	1.347690	0.354747	0.044562
H216	H	1.681023	0.688080	0.377896
H217	H	0.793264	-0.675594	-0.059069
H218	H	1.126598	-0.342260	0.274264
H219	H	1.459931	-0.008927	0.607597
N220	N	0.796724	0.213572	-0.448820
N221	N	1.130057	0.546905	-0.115486
N222	N	1.463391	0.880239	0.217847
H223	H	0.741782	0.204664	-0.428981
H224	H	1.075115	0.537997	-0.095648
H225	H	1.408448	0.871330	0.237686
H226	H	0.801659	0.209261	-0.513421
H227	H	1.134992	0.542594	-0.180087
H228	H	1.468326	0.875928	0.153246
N229	N	0.784047	-0.087629	-0.058449
N230	N	1.117381	0.245705	0.274885
N231	N	1.450714	0.579038	0.608218
H232	H	0.795772	-0.037205	-0.059332
H233	H	1.129105	0.296129	0.274001
H234	H	1.462438	0.629462	0.607334
H235	H	0.755279	-0.099177	-0.002963
H236	H	1.088612	0.234156	0.330370
H237	H	1.421946	0.567490	0.663703
N238	N	0.538233	0.090503	0.122936
N239	N	0.871566	0.423836	0.456269
N240	N	1.204900	0.757170	0.789602
H241	H	0.479484	0.089982	0.115413
H242	H	0.812817	0.423315	0.448747
H243	H	1.146151	0.756649	0.782080
H244	H	0.547786	0.132463	0.156486
H245	H	0.881119	0.465796	0.489820
H246	H	1.214452	0.799130	0.823153
H247	H	1.005993	0.028801	-0.452456
H248	H	1.339327	0.362134	-0.119123
H249	H	1.672660	0.695468	0.214211
N250	N	0.409448	0.091777	0.054084
N251	N	0.742782	0.425110	0.387417
N252	N	1.076115	0.758443	0.720750
H253	H	0.418934	0.133736	0.087674
H254	H	0.752267	0.467070	0.421007
H255	H	1.085600	0.800403	0.754341
H256	H	0.431996	0.047234	0.086626
H257	H	0.765330	0.380567	0.419959
H258	H	1.098663	0.713900	0.753293
N259	N	1.049664	-0.009716	-0.877009
N260	N	1.382997	0.323617	-0.543676
N261	N	1.716331	0.656950	-0.210342
H262	H	1.085776	-0.041604	-0.837268
H263	H	1.419109	0.291729	-0.503935
H264	H	1.752443	0.625062	-0.170601
H265	H	1.082400	0.018802	-0.917009
H266	H	1.415734	0.352136	-0.583676
H267	H	1.749067	0.685469	-0.250342
H268	H	1.044461	-0.005132	-0.700336
H269	H	1.377794	0.328201	-0.367003
H270	H	1.711128	0.661534	-0.033669
N271	N	0.781539	-0.239007	-0.058252
N272	N	1.114873	0.094327	0.275081
N273	N	1.448206	0.427660	0.608414
H274	H	0.736736	-0.199719	-0.054913
H275	H	1.070069	0.133614	0.278421
H276	H	1.403402	0.466948	0.611754
H277	H	0.780639	-0.271259	-0.004845
H278	H	1.113972	0.062075	0.328488
H279	H	1.447305	0.395408	0.661821
H280	H	0.696700	0.094344	0.090398
H281	H	1.030033	0.427677	0.423731
H282	H	1.363366	0.761011	0.757065
N283	N	0.806291	0.205092	-0.261280
N284	N	1.139625	0.538425	0.072053
N285	N	1.472958	0.871759	0.405387
H286	H	0.770179	0.236982	-0.301019
H287	H	1.103512	0.570315	0.032315
H288	H	1.436845	0.903648	0.365648
H289	H	0.838175	0.234353	-0.226057
H290	H	1.171508	0.567687	0.107276
H291	H	1.504841	0.901020	0.440609
N292	N	0.836411	0.178555	-0.672855
N293	N	1.169744	0.511888	-0.339522
N294	N	1.503077	0.845221	-0.006189
H295	H	0.803619	0.150086	-0.632852
H296	H	1.136953	0.483420	-0.299519
H297	H	1.470286	0.816753	0.033815
H298	H	0.800351	0.210438	-0.712650
H299	H	1.133684	0.543771	-0.379317
H300	H	1.467018	0.877105	-0.045984
N301	N	0.446488	0.103615	-0.192376
N302	N	0.779821	0.436948	0.140957
N303	N	1.113154	0.770282	0.474291
H304	H	0.486839	0.061153	-0.198889
H305	H	0.820172	0.394486	0.134445
H306	H	1.153506	0.727819	0.467778
H307	H	0.473746	0.147655	-0.197836
H308	H	0.807080	0.480988	0.135497
H309	H	1.140413	0.814321	0.468831
H310	H	0.997855	0.035987	-0.558998
H311	H	1.331188	0.369320	-0.225664
H312	H	1.664522	0.702653	0.107669
N313	N	0.826843	0.187030	-0.860409
N314	N	1.160176	0.520363	-0.527075
N315	N	1.493509	0.853697	-0.193742
H316	H	0.795040	0.215102	-0.815610
H317	H	1.128373	0.548435	-0.482276
H318	H	1.461707	0.881768	-0.148943
H319	H	0.790288	0.161897	-0.895288
H320	H	1.123622	0.495230	-0.561955
H321	H	1.456955	0.828563	-0.228621
H322	H	0.858095	0.159395	-0.579308
H323	H	1.191429	0.492729	-0.245974
H324	H	1.524762	0.826062	0.087359
N325	N	1.074415	-0.565594	-0.080063
N326	N	1.407748	-0.232260	0.253270
N327	N	1.741082	0.101073	0.586604
H328	H	1.119219	-0.604882	-0.083396
H329	H	1.452552	-0.271548	0.249937
H330	H	1.785886	0.061785	0.583271
H331	H	1.080758	-0.538116	-0.027200
H332	H	1.414091	-0.204783	0.306134
H333	H	1.747424	0.128551	0.639467
N334	N	1.071901	-0.716979	-0.079850
N335	N	1.405235	-0.383646	0.253484
N336	N	1.738568	-0.050313	0.586817
H337	H	1.106151	-0.710257	-0.029071
H338	H	1.439485	-0.376924	0.304262
H339	H	1.772818	-0.043591	0.637596
H340	H	1.100628	-0.705461	-0.135373
H341	H	1.433961	-0.372128	0.197960
H342	H	1.767295	-0.038795	0.531294
N343	N	1.081783	-0.121553	-0.080654
N344	N	1.415117	0.211781	0.252679
N345	N	1.748450	0.545114	0.586013
H346	H	1.115604	-0.140185	-0.029836
H347	H	1.448938	0.193148	0.303498
H348	H	1.782271	0.526482	0.636831
H349	H	1.071715	-0.068656	-0.079939
H350	H	1.405048	0.264677	0.253395
H351	H	1.738382	0.598010	0.586728
N352	N	1.079266	-0.272928	-0.080446
N353	N	1.412599	0.060406	0.252888
N354	N	1.745933	0.393739	0.586221
H355	H	1.125204	-0.243979	-0.083878
H356	H	1.458537	0.089355	0.249455
H357	H	1.791871	0.422688	0.582788
H358	H	1.079154	-0.301111	-0.133778
H359	H	1.412488	0.032223	0.199556
H360	H	1.745821	0.365556	0.532889
