data_functionalizedCrystal
_audit_creation_method	'MofGen! by Chris Wilmer'
_symmetry_space_group_name_H-M	'P1'
_symmetry_Int_Tables_number	1
_symmetry_cell_setting	triclinic
loop_
_symmetry_equiv_pos_as_xyz
  x,y,z
_cell_length_a	16.120530
_cell_length_b	25.639240
_cell_length_c	16.120297
_cell_angle_alpha	92.861830
_cell_angle_beta	90.128140
_cell_angle_gamma	87.127770
loop_
_atom_site_label
_atom_site_type_symbol
_atom_site_fract_x
_atom_site_fract_y
_atom_site_fract_z
Zn1	Zn	1.247376	-0.264883	-0.534485
Zn2	Zn	1.580709	0.068451	-0.201152
Zn3	Zn	1.914043	0.401784	0.132181
Zn4	Zn	1.254307	-0.348114	-0.395403
Zn5	Zn	1.587640	-0.014781	-0.062069
Zn6	Zn	1.920973	0.318552	0.271264
Zn7	Zn	1.115369	-0.256048	-0.388406
Zn8	Zn	1.448702	0.077286	-0.055073
Zn9	Zn	1.782035	0.410619	0.278261
Zn10	Zn	1.108263	-0.347633	-0.527372
Zn11	Zn	1.441596	-0.014299	-0.194039
Zn12	Zn	1.774930	0.319034	0.139294
O13	O	1.181329	-0.304169	-0.461417
O14	O	1.514662	0.029164	-0.128083
O15	O	1.847995	0.362497	0.205250
O16	O	1.364661	-0.279823	-0.521941
O17	O	1.697994	0.053511	-0.188607
O18	O	2.031327	0.386844	0.144726
O19	O	1.241750	-0.332405	-0.278110
O20	O	1.575084	0.000928	0.055223
O21	O	1.908417	0.334261	0.388556
O22	O	1.132953	-0.184058	-0.407832
O23	O	1.466286	0.149275	-0.074499
O24	O	1.799619	0.482608	0.258834
O25	O	1.369753	-0.340972	-0.419757
O26	O	1.703086	-0.007639	-0.086424
O27	O	2.036419	0.325694	0.246909
O28	O	1.229938	-0.190549	-0.515156
O29	O	1.563271	0.142784	-0.181823
O30	O	1.896605	0.476117	0.151510
O31	O	1.139673	-0.264765	-0.272970
O32	O	1.473006	0.068569	0.060364
O33	O	1.806340	0.401902	0.393697
O34	O	0.998061	-0.264298	-0.400935
O35	O	1.331394	0.069036	-0.067602
O36	O	1.664727	0.402369	0.265732
O37	O	1.120843	-0.340152	-0.644680
O38	O	1.454176	-0.006818	-0.311347
O39	O	1.787509	0.326515	0.021986
O40	O	0.992840	-0.331585	-0.503033
O41	O	1.326174	0.001748	-0.169700
O42	O	1.659507	0.335082	0.163634
O43	O	1.223048	-0.279356	-0.649906
O44	O	1.556382	0.053978	-0.316573
O45	O	1.889715	0.387311	0.016761
O46	O	1.234860	-0.421212	-0.412860
O47	O	1.568194	-0.087878	-0.079527
O48	O	1.901527	0.245455	0.253807
O49	O	1.127563	-0.420858	-0.509818
O50	O	1.460896	-0.087525	-0.176484
O51	O	1.794230	0.245809	0.156849
C52	C	0.965278	-0.296931	-0.450453
C53	C	1.298612	0.036403	-0.117120
C54	C	1.631945	0.369736	0.216213
C55	C	0.872850	-0.293847	-0.445783
C56	C	1.206183	0.039486	-0.112450
C57	C	1.539517	0.372819	0.220884
C58	C	0.703622	-0.288205	-0.437263
C59	C	1.036955	0.045128	-0.103930
C60	C	1.370288	0.378461	0.229403
C61	C	0.659873	-0.320174	-0.485630
C62	C	0.993206	0.013160	-0.152297
C63	C	1.326539	0.346493	0.181036
C64	C	0.565708	-0.317035	-0.480890
C65	C	0.899042	0.016299	-0.147557
C66	C	1.232375	0.349632	0.185777
C67	C	0.797795	-0.291344	-0.442003
C68	C	1.131128	0.041989	-0.108669
C69	C	1.464461	0.375323	0.224664
C70	C	1.181214	-0.440006	-0.461345
C71	C	1.514548	-0.106673	-0.128012
C72	C	1.847881	0.226661	0.205321
C73	C	1.181240	-0.498121	-0.461347
C74	C	1.514574	-0.164788	-0.128013
C75	C	1.847907	0.168546	0.205320
C76	C	1.231850	-0.861834	-0.517397
C77	C	1.565184	-0.528501	-0.184064
C78	C	1.898517	-0.195168	0.149269
C79	C	1.231874	-0.916440	-0.517416
C80	C	1.565207	-0.583106	-0.184082
C81	C	1.898541	-0.249773	0.149251
O82	O	1.274768	-0.947518	-0.564998
O83	O	1.608102	-0.614185	-0.231664
O84	O	1.941435	-0.280852	0.101669
N85	N	1.181440	-0.940415	-0.461503
N86	N	1.514773	-0.607081	-0.128169
N87	N	1.848107	-0.273748	0.205164
C88	C	1.130972	-0.909781	-0.405574
C89	C	1.464306	-0.576448	-0.072241
C90	C	1.797639	-0.243114	0.261093
O91	O	1.088076	-0.935187	-0.358018
O92	O	1.421409	-0.601854	-0.024685
O93	O	1.754743	-0.268521	0.308649
C94	C	1.130945	-0.855176	-0.405560
C95	C	1.464278	-0.521843	-0.072227
C96	C	1.797612	-0.188510	0.261106
C97	C	1.181389	-0.831204	-0.461471
C98	C	1.514722	-0.497871	-0.128138
C99	C	1.848055	-0.164538	0.205195
C100	C	1.282289	-0.837862	-0.573304
C101	C	1.615623	-0.504529	-0.239971
C102	C	1.948956	-0.171195	0.093362
C103	C	1.282267	-0.783260	-0.573285
C104	C	1.615600	-0.449927	-0.239952
C105	C	1.948933	-0.116594	0.093382
C106	C	1.231805	-0.752630	-0.517359
C107	C	1.565138	-0.419297	-0.184025
C108	C	1.898472	-0.085964	0.149308
C109	C	1.181366	-0.776603	-0.461452
C110	C	1.514699	-0.443269	-0.128118
C111	C	1.848033	-0.109936	0.205215
C112	C	1.080474	-0.824543	-0.349636
C113	C	1.413807	-0.491210	-0.016303
C114	C	1.747140	-0.157877	0.317031
C115	C	1.080450	-0.769935	-0.349628
C116	C	1.413783	-0.436602	-0.016295
C117	C	1.747117	-0.103269	0.317039
C118	C	1.130894	-0.745964	-0.405539
C119	C	1.464227	-0.412630	-0.072205
C120	C	1.797561	-0.079297	0.261128
C121	C	1.130882	-0.691371	-0.405506
C122	C	1.464215	-0.358038	-0.072173
C123	C	1.797548	-0.024704	0.261161
N124	N	1.181316	-0.667396	-0.461419
N125	N	1.514649	-0.334063	-0.128086
N126	N	1.847983	-0.000729	0.205248
C127	C	1.231778	-0.698026	-0.517345
C128	C	1.565111	-0.364693	-0.184012
C129	C	1.898444	-0.031359	0.149322
C130	C	1.131033	-1.024454	-0.405608
C131	C	1.464366	-0.691121	-0.072274
C132	C	1.797700	-0.357788	0.261059
C133	C	1.131064	-1.079058	-0.405616
C134	C	1.464398	-0.745725	-0.072283
C135	C	1.797731	-0.412391	0.261050
C136	C	1.231965	-1.085713	-0.517459
C137	C	1.565298	-0.752380	-0.184126
C138	C	1.898632	-0.419047	0.149207
C139	C	1.231937	-1.031109	-0.517446
C140	C	1.565271	-0.697775	-0.184112
C141	C	1.898604	-0.364442	0.149221
C142	C	1.181467	-1.000480	-0.461520
C143	C	1.514801	-0.667146	-0.128187
C144	C	1.848134	-0.333813	0.205146
C145	C	1.231727	-0.583358	-0.517300
C146	C	1.565060	-0.250024	-0.183966
C147	C	1.898393	0.083309	0.149367
C148	C	1.231702	-0.528751	-0.517273
C149	C	1.565035	-0.195417	-0.183940
C150	C	1.898369	0.137916	0.149394
C151	C	1.130798	-0.522100	-0.405433
C152	C	1.464132	-0.188767	-0.072100
C153	C	1.797465	0.144566	0.261233
C154	C	1.130826	-0.576703	-0.405457
C155	C	1.464159	-0.243369	-0.072123
C156	C	1.797493	0.089964	0.261210
C157	C	1.181292	-0.607330	-0.461397
C158	C	1.514626	-0.273997	-0.128063
C159	C	1.847959	0.059337	0.205270
O160	O	1.088007	-0.660259	-0.357950
O161	O	1.421340	-0.326926	-0.024617
O162	O	1.754673	0.006407	0.308716
O163	O	1.274659	-0.672612	-0.564900
O164	O	1.607992	-0.339279	-0.231567
O165	O	1.941325	-0.005945	0.101766
C166	C	1.398223	-0.311437	-0.472423
C167	C	1.731556	0.021897	-0.139090
C168	C	2.064889	0.355230	0.194244
C169	C	1.490650	-0.314534	-0.477113
C170	C	1.823983	0.018800	-0.143780
C171	C	2.157316	0.352133	0.189553
C172	C	1.170380	-0.310686	-0.678309
C173	C	1.503713	0.022648	-0.344975
C174	C	1.837047	0.355981	-0.011642
C175	C	1.165714	-0.313462	-0.770735
C176	C	1.499047	0.019871	-0.437402
C177	C	1.832381	0.353204	-0.104069
C178	C	1.181465	-0.167804	-0.461507
C179	C	1.514798	0.165530	-0.128174
C180	C	1.848132	0.498863	0.205159
C181	C	1.181523	-0.109693	-0.461546
C182	C	1.514856	0.223641	-0.128213
C183	C	1.848190	0.556974	0.205121
C184	C	1.157165	-0.318519	-0.939958
C185	C	1.490499	0.014814	-0.606625
C186	C	1.823832	0.348147	-0.273292
C187	C	1.205656	-0.289668	-0.983735
C188	C	1.538989	0.043665	-0.650402
C189	C	1.872323	0.376998	-0.317068
C190	C	1.200899	-0.292482	-1.077896
C191	C	1.534233	0.040851	-0.744563
C192	C	1.867566	0.374185	-0.411230
C193	C	1.161921	-0.315706	-0.845788
C194	C	1.495254	0.017627	-0.512455
C195	C	1.828587	0.350960	-0.179122
C196	C	1.192283	-0.297642	-0.245371
C197	C	1.525616	0.035691	0.087963
C198	C	1.858949	0.369024	0.421296
C199	C	1.197109	-0.294724	-0.152953
C200	C	1.530443	0.038610	0.180381
C201	C	1.863776	0.371943	0.513714
H202	H	0.670359	-0.258482	-0.392298
H203	H	1.003692	0.074851	-0.058964
H204	H	1.337025	0.408185	0.274369
Cl205	Cl	0.711227	-0.366066	-0.555065
Cl206	Cl	1.044561	-0.032733	-0.221732
Cl207	Cl	1.377894	0.300601	0.111602
H208	H	1.250742	-0.262854	-0.950495
H209	H	1.584075	0.070479	-0.617162
H210	H	1.917408	0.403812	-0.283829
Cl211	Cl	1.295123	-0.498618	-0.587565
Cl212	Cl	1.628456	-0.165285	-0.254232
Cl213	Cl	1.961789	0.168048	0.079102
H214	H	1.112083	-0.345331	-0.973196
H215	H	1.445416	-0.011998	-0.639863
H216	H	1.778750	0.321336	-0.306529
Cl217	Cl	1.345678	-0.753133	-0.643583
Cl218	Cl	1.679011	-0.419799	-0.310250
Cl219	Cl	2.012345	-0.086466	0.023083
Cl220	Cl	1.295174	-0.621853	-0.587623
Cl221	Cl	1.628507	-0.288519	-0.254289
Cl222	Cl	1.961840	0.044814	0.079044
Cl223	Cl	1.345733	-0.876359	-0.643624
Cl224	Cl	1.679067	-0.543025	-0.310290
Cl225	Cl	2.012400	-0.209692	0.023043
Cl226	Cl	1.295402	-1.124230	-0.587769
Cl227	Cl	1.628735	-0.790896	-0.254435
Cl228	Cl	1.962068	-0.457563	0.078898
Cl229	Cl	1.295353	-1.000979	-0.587738
Cl230	Cl	1.628686	-0.667645	-0.254404
Cl231	Cl	1.962019	-0.334312	0.078929
Cl232	Cl	1.067584	-0.985954	-0.335288
Cl233	Cl	1.400918	-0.652621	-0.001955
Cl234	Cl	1.734251	-0.319288	0.331379
Cl235	Cl	1.067658	-1.109187	-0.335315
Cl236	Cl	1.400992	-0.775854	-0.001981
Cl237	Cl	1.734325	-0.442520	0.331352
Cl238	Cl	1.017051	-0.854666	-0.279347
Cl239	Cl	1.350384	-0.521332	0.053987
Cl240	Cl	1.683717	-0.187999	0.387320
H241	H	1.039348	-0.744999	-0.304087
H242	H	1.372682	-0.411666	0.029246
H243	H	1.706015	-0.078333	0.362579
H244	H	1.089757	-0.596221	-0.359923
H245	H	1.423091	-0.262888	-0.026590
H246	H	1.756424	0.070445	0.306743
H247	H	1.089716	-0.497153	-0.359896
H248	H	1.423049	-0.163820	-0.026563
H249	H	1.756382	0.169514	0.306770
