data_functionalizedCrystal
_audit_creation_method	'MofGen! by Chris Wilmer'
_symmetry_space_group_name_H-M	'P1'
_symmetry_Int_Tables_number	1
_symmetry_cell_setting	triclinic
loop_
_symmetry_equiv_pos_as_xyz
  x,y,z
_cell_length_a	14.908993
_cell_length_b	19.076919
_cell_length_c	19.077174
_cell_angle_alpha	89.937411
_cell_angle_beta	90.847787
_cell_angle_gamma	84.241894
loop_
_atom_site_label
_atom_site_type_symbol
_atom_site_fract_x
_atom_site_fract_y
_atom_site_fract_z
Zn1	Zn	1.384009	0.230974	-0.326431
Zn2	Zn	1.884009	0.730974	0.173569
Zn3	Zn	1.371784	0.344342	-0.204723
Zn4	Zn	1.871784	0.844342	0.295277
Zn5	Zn	1.227319	0.233607	-0.215688
Zn6	Zn	1.727319	0.733607	0.284312
Zn7	Zn	1.226761	0.355809	-0.328438
Zn8	Zn	1.726761	0.855809	0.171562
O9	O	1.302468	0.291183	-0.268820
O10	O	1.802468	0.791183	0.231180
O11	O	1.508656	0.240112	-0.304858
O12	O	2.008656	0.740112	0.195142
O13	O	1.347738	0.325956	-0.108056
O14	O	1.847738	0.825956	0.391944
O15	O	1.253454	0.134671	-0.234128
O16	O	1.753454	0.634671	0.265872
O17	O	1.499674	0.323403	-0.215439
O18	O	1.999674	0.823403	0.284561
O19	O	1.368574	0.132737	-0.315490
O20	O	1.868574	0.632737	0.184510
O21	O	1.241600	0.244599	-0.116112
O22	O	1.741600	0.744599	0.383888
O23	O	1.100977	0.255718	-0.236074
O24	O	1.600977	0.755718	0.263926
O25	O	1.252503	0.342946	-0.426294
O26	O	1.752503	0.842946	0.073706
O27	O	1.100567	0.345499	-0.318911
O28	O	1.600567	0.845499	0.181089
O29	O	1.368033	0.251231	-0.424819
O30	O	1.868033	0.751231	0.075181
O31	O	1.347197	0.444450	-0.217385
O32	O	1.847197	0.944450	0.282615
O33	O	1.240649	0.452875	-0.308278
O34	O	1.740649	0.952875	0.191722
C35	C	1.068032	0.302139	-0.278900
C36	C	1.568032	0.802139	0.221100
C37	C	0.967739	0.306844	-0.283228
C38	C	1.467739	0.806844	0.216772
C39	C	0.779667	0.222064	-0.205234
C40	C	1.279667	0.722064	0.294766
C41	C	0.685432	0.226482	-0.209298
C42	C	1.185432	0.726482	0.290702
C43	C	0.685034	0.320101	-0.295418
C44	C	1.185034	0.820101	0.204582
C45	C	0.779269	0.315683	-0.291353
C46	C	1.279269	0.815683	0.208647
C47	C	0.826581	0.266662	-0.246260
C48	C	1.326581	0.766662	0.253740
C49	C	0.920818	0.262241	-0.242200
C50	C	1.420818	0.762241	0.257800
C51	C	0.920418	0.355863	-0.328315
C52	C	1.420418	0.855863	0.171685
C53	C	0.826183	0.360281	-0.332380
C54	C	1.326183	0.860281	0.167620
C55	C	1.292561	0.474224	-0.261874
C56	C	1.792561	0.974224	0.238126
C57	C	1.288406	0.552527	-0.258922
C58	C	1.788406	1.052527	0.241078
C59	C	1.346349	0.588250	-0.299934
C60	C	1.846349	1.088250	0.200066
C61	C	1.342442	0.661824	-0.297162
C62	C	1.842442	1.161824	0.202838
C63	C	1.280595	0.699674	-0.253373
C64	C	1.780595	1.199674	0.246627
C65	C	1.222645	0.663946	-0.212359
C66	C	1.722645	1.163946	0.287641
C67	C	1.226549	0.590374	-0.215135
C68	C	1.726549	1.090374	0.284865
C69	C	1.262493	0.919826	-0.240526
C70	C	1.762493	1.419826	0.259474
C71	C	1.258595	0.993404	-0.237751
C72	C	1.758595	1.493404	0.262249
C73	C	1.378391	0.991276	-0.322555
C74	C	1.878391	1.491276	0.177445
C75	C	1.382293	0.917702	-0.325325
C76	C	1.882293	1.417702	0.174675
C77	C	1.324340	0.881982	-0.284314
C78	C	1.824340	1.381982	0.215686
N79	N	1.276601	0.774878	-0.250537
N80	N	1.776601	1.274878	0.249463
N81	N	1.328330	0.806779	-0.287154
N82	N	1.828330	1.306779	0.212846
C83	C	1.537820	0.280185	-0.258701
C84	C	2.037820	0.780185	0.241299
C85	C	1.638113	0.275498	-0.254389
C86	C	2.138113	0.775498	0.245611
C87	C	1.312402	1.107428	-0.275803
C88	C	1.812402	1.607428	0.224197
C89	C	1.316539	1.029126	-0.278764
C90	C	1.816539	1.529126	0.221236
C91	C	1.311569	0.298074	-0.451710
C92	C	1.811569	0.798074	0.048290
C93	C	1.315447	0.301011	-0.529646
C94	C	1.815447	0.801011	-0.029646
C95	C	1.262012	0.260033	-0.570455
C96	C	1.762012	0.760033	-0.070455
C97	C	1.265652	0.262798	-0.643685
C98	C	1.765652	0.762798	-0.143685
C99	C	1.322733	0.306538	-0.676104
C100	C	1.822733	0.806538	-0.176104
C101	C	1.376171	0.347520	-0.635290
C102	C	1.876171	0.847520	-0.135290
C103	C	1.372525	0.344758	-0.562062
C104	C	1.872525	0.844758	-0.062062
C105	C	1.339557	0.319343	-0.894663
C106	C	1.839557	0.819343	-0.394663
C107	C	1.343201	0.322100	-0.967897
C108	C	1.843201	0.822100	-0.467897
C109	C	1.232680	0.237379	-0.976286
C110	C	1.732680	0.737379	-0.476286
C111	C	1.229043	0.234618	-0.903056
C112	C	1.729043	0.734618	-0.403056
C113	C	1.282478	0.275603	-0.862249
C114	C	1.782478	0.775603	-0.362249
N115	N	1.326458	0.309363	-0.750957
N116	N	1.826458	0.809363	-0.250957
N117	N	1.278748	0.272780	-0.787398
N118	N	1.778748	0.772780	-0.287398
C119	C	1.293458	0.284266	-0.086642
C120	C	1.793458	0.784266	0.413358
C121	C	1.289765	0.281123	-0.008706
C122	C	1.789765	0.781123	0.491294
H123	H	0.787648	0.400194	-0.369091
H124	H	1.287648	0.900194	0.130909
F125	F	1.192769	1.033685	-0.191141
F126	F	1.692769	1.533685	0.308859
H127	H	1.215535	0.224411	-0.544065
H128	H	1.715535	0.724411	-0.044065
H129	H	1.172285	0.694770	-0.176708
H130	H	1.672285	1.194770	0.323292
H131	H	1.432654	0.886887	-0.360981
H132	H	1.932654	1.386887	0.139019
F133	F	0.971171	0.210068	-0.194211
F134	F	1.471171	0.710068	0.305789
F135	F	1.175813	0.193765	-1.019721
F136	F	1.675813	0.693765	-0.519721
F137	F	1.436916	0.394076	-0.669796
F138	F	1.936916	0.894076	-0.169796
H139	H	1.383057	0.352724	-0.861447
H140	H	1.883057	0.852724	-0.361447
F141	F	1.208743	0.219211	-0.687114
F142	F	1.708743	0.719211	-0.187114
H143	H	1.416046	0.378121	-0.528836
H144	H	1.916046	0.878121	-0.028836
F145	F	0.970356	0.403319	-0.371993
F146	F	1.470356	0.903319	0.128007
F147	F	0.830023	0.169889	-0.157249
F148	F	1.330023	0.669889	0.342751
F149	F	1.164877	0.552356	-0.171485
F150	F	1.664877	1.052356	0.328515
H151	H	0.647238	0.190165	-0.175891
H152	H	1.147238	0.690165	0.324109
H153	H	0.646495	0.360017	-0.332123
H154	H	1.146495	0.860017	0.167877
H155	H	1.396715	0.557437	-0.335589
H156	H	1.896715	1.057437	0.164411
F157	F	1.168291	0.188063	-0.868558
F158	F	1.668291	0.688063	-0.368558
F159	F	1.404104	0.699840	-0.340821
F160	F	1.904104	1.199840	0.159179
F161	F	1.440062	1.029299	-0.366201
F162	F	1.940062	1.529299	0.133799
F163	F	1.403964	0.368651	-1.002399
F164	F	1.903964	0.868651	-0.502399
H165	H	1.215307	0.890748	-0.207132
H166	H	1.715307	1.390748	0.292868
