data_functionalizedCrystal
_audit_creation_method	'MofGen! by Chris Wilmer'
_symmetry_space_group_name_H-M	'P1'
_symmetry_Int_Tables_number	1
_symmetry_cell_setting	triclinic
loop_
_symmetry_equiv_pos_as_xyz
  x,y,z
_cell_length_a	15.072220
_cell_length_b	8.559649
_cell_length_c	8.559649
_cell_angle_alpha	110.221336
_cell_angle_beta	90.000498
_cell_angle_gamma	89.988335
loop_
_atom_site_label
_atom_site_type_symbol
_atom_site_fract_x
_atom_site_fract_y
_atom_site_fract_z
O1	O	0.073769	-2.126903	-0.055048
O2	O	0.573769	-1.626903	0.444952
O3	O	0.073772	-1.651418	0.028733
O4	O	0.573772	-1.151418	0.528733
O5	O	0.073769	-1.931051	-0.250900
O6	O	0.573769	-1.431051	0.249100
O7	O	0.073772	-1.847270	0.224585
O8	O	0.573772	-1.347270	0.724585
O9	O	-0.073796	-1.930988	-0.250879
O10	O	0.426204	-1.430988	0.249121
O11	O	-0.073793	-1.651355	0.028754
O12	O	0.426207	-1.151355	0.528754
O13	O	-0.073797	-2.126840	-0.055027
O14	O	0.426203	-1.626840	0.444973
Zn15	Zn	-0.097224	-1.889087	-0.013133
Zn16	Zn	0.402776	-1.389087	0.486867
Zn17	Zn	0.097199	-1.889170	-0.013161
Zn18	Zn	0.597199	-1.389170	0.486839
O19	O	-0.073794	-1.847207	0.224606
O20	O	0.426206	-1.347207	0.724606
C21	C	-0.000010	-1.591077	0.035093
C22	C	0.499990	-1.091077	0.535093
C23	C	-0.000009	-1.411378	0.053992
C24	C	0.499991	-0.911378	0.553992
N25	N	-0.229913	-1.889042	-0.013116
N26	N	0.270087	-1.389042	0.486884
C27	C	-0.000012	-1.937369	-0.311198
C28	C	0.499988	-1.437369	0.188802
C29	C	-0.000007	-1.956268	-0.490898
C30	C	0.499993	-1.456268	0.009102
C31	C	-0.589114	-1.889168	-0.013167
C32	C	-0.089114	-1.389168	0.486833
C33	C	-0.551506	-1.739149	0.136067
C34	C	-0.051506	-1.239149	0.636067
C35	C	-0.448680	-1.739396	0.136514
C36	C	0.051320	-1.239396	0.636514
C37	C	-0.410910	-1.889104	-0.013141
C38	C	0.089090	-1.389104	0.486859
C39	C	-0.448203	-2.053837	0.003058
C40	C	0.051797	-1.553837	0.503058
C41	C	-0.551060	-2.052972	0.004094
C42	C	-0.051060	-1.552972	0.504094
C43	C	-0.551215	-1.876011	-0.179179
C44	C	-0.051215	-1.376011	0.320821
C45	C	-0.448352	-1.871988	-0.177568
C46	C	0.051648	-1.371988	0.322432
C47	C	-0.310197	-1.889079	-0.013132
C48	C	0.189803	-1.389079	0.486868
C49	C	-0.689828	-1.889204	-0.013175
C50	C	-0.189828	-1.389204	0.486825
N51	N	0.229888	-1.889230	-0.013192
N52	N	0.729888	-1.389230	0.486808
C53	C	-0.000012	-2.187180	-0.061387
C54	C	0.499988	-1.687180	0.438613
C55	C	-0.000008	-2.366879	-0.080286
C56	C	0.499992	-1.866879	0.419714
C57	C	-0.000011	-1.840889	0.284904
C58	C	0.499989	-1.340889	0.784904
C59	C	-0.000010	-1.821990	0.464604
C60	C	0.499990	-1.321990	0.964604
H61	H	-0.423468	-1.616278	0.129927
H62	H	0.076532	-1.116278	0.629927
H63	H	-0.000012	-1.692570	-0.436018
H64	H	0.499988	-1.192570	0.063982
H65	H	-0.000015	-2.085696	-0.590286
H66	H	0.499985	-1.585696	-0.090286
H67	H	-0.576266	-1.615579	0.129892
H68	H	-0.076266	-1.115579	0.629892
H69	H	-0.423979	-1.750914	-0.190345
H70	H	0.076021	-1.250914	0.309655
H71	H	-0.422433	-2.069494	0.121992
H72	H	0.077567	-1.569494	0.621992
H73	H	-0.577344	-1.745176	0.259020
H74	H	-0.077344	-1.245176	0.759020
H75	H	-0.000003	-1.311990	0.183420
H76	H	0.499997	-0.811990	0.683420
H77	H	-0.000004	-1.466258	-0.209705
H78	H	0.499996	-0.966258	0.290295
H79	H	-0.424066	-1.745636	0.260142
H80	H	0.075934	-1.245636	0.760142
H81	H	-0.575535	-1.985656	-0.289990
H82	H	-0.075535	-1.485656	0.210010
H83	H	-0.575936	-2.166988	-0.101427
H84	H	-0.075936	-1.666988	0.398573
H85	H	-0.575042	-2.067738	0.124531
H86	H	-0.075042	-1.567738	0.624531
H87	H	-0.577205	-1.759623	-0.199912
H88	H	-0.077205	-1.259623	0.300088
H89	H	-0.423735	-2.167275	-0.103614
H90	H	0.076265	-1.667275	0.396386
H91	H	-0.422644	-1.975753	-0.292216
H92	H	0.077356	-1.475753	0.207784
