data_functionalizedCrystal
_audit_creation_method	'MofGen! by Chris Wilmer'
_symmetry_space_group_name_H-M	'P1'
_symmetry_Int_Tables_number	1
_symmetry_cell_setting	triclinic
loop_
_symmetry_equiv_pos_as_xyz
  x,y,z
_cell_length_a	14.519709
_cell_length_b	17.666332
_cell_length_c	14.519731
_cell_angle_alpha	90.007449
_cell_angle_beta	83.684499
_cell_angle_gamma	90.003734
loop_
_atom_site_label
_atom_site_type_symbol
_atom_site_fract_x
_atom_site_fract_y
_atom_site_fract_z
O1	O	1.223883	0.062851	0.120892
O2	O	1.723883	0.562851	0.620892
O3	O	0.955407	0.062875	0.135128
O4	O	1.455407	0.562875	0.635128
O5	O	1.096753	0.062856	-0.006227
O6	O	1.596753	0.562856	0.493773
O7	O	1.082537	0.062871	0.262247
O8	O	1.582537	0.562871	0.762247
O9	O	1.096728	-0.063041	-0.006235
O10	O	1.596728	0.436959	0.493765
O11	O	0.955382	-0.063022	0.135120
O12	O	1.455382	0.436978	0.635120
O13	O	1.223858	-0.063045	0.120884
O14	O	1.723858	0.436955	0.620884
Cu15	Cu	1.089618	-0.074529	0.128002
Cu16	Cu	1.589618	0.425471	0.628002
Cu17	Cu	1.089647	0.074359	0.128010
Cu18	Cu	1.589647	0.574359	0.628010
O19	O	1.082512	-0.063026	0.262239
O20	O	1.582512	0.436974	0.762239
C21	C	0.921035	-0.000071	0.134461
C22	C	1.421035	0.499929	0.634461
C23	C	0.818654	-0.000062	0.132473
C24	C	1.318654	0.499938	0.632473
N25	N	1.089604	-0.179248	0.127995
N26	N	1.589604	0.320752	0.627995
C27	C	0.443757	-0.000097	0.125153
C28	C	0.943757	0.499903	0.625153
C29	C	0.548065	-0.000087	0.127186
C30	C	1.048065	0.499913	0.627186
C31	C	0.631202	-0.000079	0.128813
C32	C	1.131202	0.499921	0.628813
C33	C	0.735517	-0.000070	0.130846
C34	C	1.235517	0.499930	0.630846
C35	C	1.152212	-0.218867	0.065433
C36	C	1.652212	0.281133	0.565433
C37	C	1.152218	-0.298114	0.065429
C38	C	1.652218	0.201886	0.565429
C39	C	1.089624	-0.337741	0.128002
C40	C	1.589624	0.162259	0.628002
C41	C	1.027003	-0.298113	0.190568
C42	C	1.527003	0.201887	0.690568
C43	C	1.026994	-0.218867	0.190564
C44	C	1.526994	0.281133	0.690564
N45	N	1.078025	-0.462154	0.209585
N46	N	1.578025	0.037846	0.709585
N47	N	1.078040	-0.537434	0.209585
N48	N	1.578040	-0.037434	0.709585
C49	C	1.089648	-0.576505	0.128015
C50	C	1.589648	-0.076505	0.628015
N51	N	1.101259	-0.537450	0.046441
N52	N	1.601259	-0.037450	0.546441
N53	N	1.101249	-0.462163	0.046442
N54	N	1.601249	0.037837	0.546442
C55	C	1.089627	-0.423670	0.128012
C56	C	1.589627	0.076330	0.628012
C57	C	1.152266	-0.702052	0.065443
C58	C	1.652266	-0.202052	0.565443
C59	C	1.152264	-0.781301	0.065438
C60	C	1.652264	-0.281301	0.565438
C61	C	1.027055	-0.781298	0.190585
C62	C	1.527055	-0.281298	0.690585
C63	C	1.027051	-0.702051	0.190582
C64	C	1.527051	-0.202051	0.690582
C65	C	1.089662	-0.662432	0.128013
C66	C	1.589662	-0.162432	0.628013
C67	C	1.258230	-0.000098	0.121551
C68	C	1.758230	0.499902	0.621551
C69	C	1.360612	-0.000102	0.123539
C70	C	1.860612	0.499898	0.623539
C71	C	1.096075	-0.000093	-0.040591
C72	C	1.596075	0.499907	0.459409
C73	C	1.094079	-0.000093	-0.142971
C74	C	1.594079	0.499907	0.357029
N75	N	1.089669	0.179078	0.128010
N76	N	1.589669	0.679078	0.628010
C77	C	1.092457	-0.000091	-0.226115
C78	C	1.592457	0.499909	0.273885
C79	C	1.090430	-0.000085	-0.330424
C80	C	1.590430	0.499915	0.169576
C81	C	1.088822	-0.000080	-0.413563
C82	C	1.588822	0.499920	0.086437
C83	C	1.086795	-0.000076	-0.517878
C84	C	1.586795	0.499924	-0.017878
C85	C	1.083191	-0.000076	0.296603
C86	C	1.583191	0.499924	0.796603
C87	C	1.085187	-0.000071	0.398983
C88	C	1.585187	0.499929	0.898983
H89	H	1.203191	-0.186612	0.014483
H90	H	1.703191	0.313388	0.514483
H91	H	1.203245	-0.813559	0.014488
H92	H	1.703245	-0.313559	0.514488
H93	H	0.976009	-0.186609	0.241510
H94	H	1.476009	0.313391	0.741510
Cl95	Cl	0.948345	-0.652240	0.269240
Cl96	Cl	1.448345	-0.152240	0.769240
Cl97	Cl	1.230970	-0.652245	-0.013220
Cl98	Cl	1.730970	-0.152245	0.486780
H99	H	0.976086	-0.813561	0.241529
H100	H	1.476086	-0.313561	0.741529
H101	H	0.976037	-0.330380	0.241514
H102	H	1.476037	0.169620	0.741514
Cl103	Cl	1.230933	-0.347928	-0.013226
Cl104	Cl	1.730933	0.152072	0.486774
