data_functionalizedCrystal
_audit_creation_method	'MofGen! by Chris Wilmer'
_symmetry_space_group_name_H-M	'P1'
_symmetry_Int_Tables_number	1
_symmetry_cell_setting	triclinic
loop_
_symmetry_equiv_pos_as_xyz
  x,y,z
_cell_length_a	17.699083
_cell_length_b	10.540539
_cell_length_c	16.176319
_cell_angle_alpha	89.995366
_cell_angle_beta	89.998611
_cell_angle_gamma	83.904253
loop_
_atom_site_label
_atom_site_type_symbol
_atom_site_fract_x
_atom_site_fract_y
_atom_site_fract_z
O1	O	1.005122	0.160521	-0.068627
O2	O	0.784880	0.181405	-0.068653
O3	O	0.900026	-0.013836	-0.068638
O4	O	0.889976	0.355761	-0.068642
O5	O	0.900010	-0.013848	0.068855
O6	O	0.784864	0.181392	0.068840
O7	O	1.005106	0.160508	0.068866
Cu8	Cu	0.894984	0.170949	0.081407
Cu9	Cu	0.895003	0.170964	-0.081194
O10	O	0.889960	0.355749	0.068852
C11	C	0.756670	0.180650	0.000090
C12	C	0.672637	0.178405	0.000080
C13	C	0.624761	0.293007	0.000079
C14	C	0.545804	0.290890	0.000090
C15	C	0.514725	0.174170	0.000095
C16	C	0.562607	0.059559	0.000098
C17	C	0.641562	0.061677	0.000094
C18	C	0.244188	0.051014	0.000119
C19	C	0.165226	0.048904	0.000121
C20	C	0.148430	0.280227	0.000115
C21	C	0.227386	0.282345	0.000110
C22	C	0.275261	0.167735	0.000118
C23	C	0.360875	0.170032	0.000108
C24	C	0.429112	0.171872	0.000099
C25	C	0.899264	-0.061131	0.000107
C26	C	0.897009	-0.202038	0.000102
C27	C	0.810610	-0.383885	-0.000217
C28	C	0.812896	-0.237308	0.000093
C29	C	0.937479	-0.264443	0.078622
C30	C	0.934609	-0.410935	0.078688
C31	C	0.936338	-0.411471	-0.077667
C32	C	0.937113	-0.264503	-0.078705
C33	C	1.033316	0.161263	0.000122
C34	C	1.117349	0.163508	0.000126
C35	C	0.890722	0.403044	0.000105
C36	C	0.892977	0.543951	0.000104
N37	N	0.894976	0.170938	0.195773
N38	N	0.895016	0.170965	-0.195559
C39	C	0.945978	0.084521	0.239043
C40	C	0.945982	0.084519	0.325591
C41	C	0.894987	0.170942	0.368865
C42	C	0.843979	0.257364	0.325588
C43	C	0.843972	0.257358	0.239043
C44	C	0.844005	0.257387	0.674617
C45	C	0.844017	0.257389	0.761168
C46	C	0.946015	0.084549	0.761164
C47	C	0.946008	0.084543	0.674619
C48	C	0.894998	0.170959	0.631349
C49	C	0.894993	0.170958	0.537505
C50	C	0.894994	0.170951	0.462708
H51	H	0.506826	0.384211	0.000088
H52	H	0.252686	0.377390	0.000102
C53	C	1.016322	-0.477244	0.083532
H54	H	1.015123	-0.567139	0.083603
H55	H	1.039766	-0.452155	0.132867
H56	H	1.044486	-0.453355	0.037105
C57	C	1.002078	-0.010534	0.191445
H58	H	0.994777	0.001847	0.133704
H59	H	0.993411	-0.095236	0.205634
H60	H	1.052663	0.003164	0.205625
H61	H	0.680543	-0.031644	0.000094
H62	H	0.283159	-0.042309	0.000126
C63	C	0.787917	0.352471	0.627027
H64	H	0.795212	0.340095	0.569286
H65	H	0.796608	0.437160	0.641212
H66	H	0.737327	0.338809	0.641214
H67	H	0.997092	-0.459808	-0.078188
C68	C	0.095766	0.406298	0.000118
H69	H	0.044291	0.388326	0.000131
H70	H	0.105252	0.454171	-0.047832
H71	H	0.105259	0.454163	0.048068
H72	H	0.987536	0.014174	0.639387
H73	H	0.987511	0.014151	0.360821
H74	H	0.999250	-0.243219	0.081549
C75	C	1.002118	-0.010522	0.808763
H76	H	0.994816	0.001844	0.866504
H77	H	1.052700	0.003158	0.794573
H78	H	0.993438	-0.095225	0.794583
H79	H	0.139925	-0.046149	0.000127
H80	H	0.780815	-0.194971	0.056466
C81	C	0.899479	-0.206230	0.157551
H82	H	0.858957	-0.143911	0.142822
H83	H	0.935830	-0.167325	0.189325
H84	H	0.880188	-0.271551	0.189195
H85	H	0.909121	-0.442520	-0.137180
C86	C	0.787918	0.352450	0.808773
H87	H	0.795235	0.340083	0.866513
H88	H	0.737333	0.338765	0.794602
H89	H	0.796590	0.437156	0.794581
C90	C	0.769867	-0.178952	-0.075936
H91	H	0.750827	-0.244819	-0.107289
H92	H	0.803452	-0.136163	-0.109154
H93	H	0.728759	-0.119886	-0.058265
H94	H	0.537295	-0.035477	0.000115
C95	C	0.787886	0.352429	0.373188
H96	H	0.795200	0.340067	0.430929
H97	H	0.737301	0.338752	0.359015
H98	H	0.796565	0.437131	0.358994
H99	H	0.907501	-0.223097	-0.136792
H100	H	0.802440	0.327726	0.203813
H101	H	0.777390	-0.411872	-0.056526
H102	H	0.904686	-0.438593	0.137376
C103	C	0.658942	0.421401	0.000072
H104	H	0.619118	0.489350	0.000081
H105	H	0.689392	0.427044	-0.047876
H106	H	0.689394	0.427031	0.048024
C107	C	0.765897	-0.423862	0.075417
H108	H	0.797208	-0.484338	0.107191
H109	H	0.722131	-0.460936	0.057361
H110	H	0.750780	-0.350970	0.108372
H111	H	0.998438	-0.241403	-0.083439
