data_functionalizedCrystal
_audit_creation_method	'MofGen! by Chris Wilmer'
_symmetry_space_group_name_H-M	'P1'
_symmetry_Int_Tables_number	1
_symmetry_cell_setting	triclinic
loop_
_symmetry_equiv_pos_as_xyz
  x,y,z
_cell_length_a	12.759395
_cell_length_b	17.077402
_cell_length_c	17.077396
_cell_angle_alpha	90.029784
_cell_angle_beta	90.019641
_cell_angle_gamma	90.021136
loop_
_atom_site_label
_atom_site_type_symbol
_atom_site_fract_x
_atom_site_fract_y
_atom_site_fract_z
Zn1	Zn	-1.606175	0.312545	-0.443839
Zn2	Zn	-1.106175	0.812545	0.056161
Zn3	Zn	-1.606050	0.443820	-0.312570
Zn4	Zn	-1.106050	0.943820	0.187430
Zn5	Zn	-1.430483	0.312568	-0.312586
Zn6	Zn	-0.930483	0.812568	0.187414
Zn7	Zn	-1.430440	0.443768	-0.443793
Zn8	Zn	-0.930440	0.943768	0.056207
O9	O	-1.518287	0.378175	-0.378197
O10	O	-1.018287	0.878175	0.121803
O11	O	-1.753179	0.329970	-0.426438
O12	O	-1.253179	0.829970	0.073562
O13	O	-1.582727	0.426440	-0.202725
O14	O	-1.082727	0.926440	0.297275
O15	O	-1.453859	0.202718	-0.330023
O16	O	-0.953859	0.702718	0.169977
O17	O	-1.753088	0.426417	-0.329995
O18	O	-1.253088	0.926417	0.170005
O19	O	-1.582939	0.202701	-0.426454
O20	O	-1.082939	0.702701	0.073546
O21	O	-1.453738	0.330010	-0.202737
O22	O	-0.953738	0.830010	0.297263
O23	O	-1.283456	0.329960	-0.329979
O24	O	-0.783456	0.829960	0.170021
O25	O	-1.453786	0.426330	-0.553646
O26	O	-0.953786	0.926330	-0.053646
O27	O	-1.283425	0.426353	-0.426376
O28	O	-0.783425	0.926353	0.073624
O29	O	-1.582897	0.329921	-0.553679
O30	O	-1.082897	0.829921	-0.053679
O31	O	-1.582685	0.553660	-0.329950
O32	O	-1.082685	1.053660	0.170050
O33	O	-1.453665	0.553622	-0.426360
O34	O	-0.953665	1.053622	0.073640
C35	C	-1.245320	0.378154	-0.378175
C36	C	-0.745320	0.878154	0.121825
C37	C	-1.128543	0.378164	-0.378184
C38	C	-0.628543	0.878164	0.121816
C39	C	-0.909203	0.277906	-0.478792
C40	C	-0.409203	0.777906	0.021208
C41	C	-0.964117	0.227765	-0.529078
C42	C	-0.464117	0.727765	-0.029078
C43	C	-1.073838	0.227756	-0.529068
C44	C	-0.573838	0.727756	-0.029068
C45	C	-1.128649	0.277893	-0.478767
C46	C	-0.628649	0.777893	0.021233
C47	C	-1.073735	0.328033	-0.428481
C48	C	-0.573735	0.828033	0.071519
C49	C	-0.964011	0.328036	-0.428495
C50	C	-0.464011	0.828036	0.071505
C51	C	-1.073629	0.428304	-0.327898
C52	C	-0.573629	0.928304	0.172102
C53	C	-0.963907	0.428311	-0.327903
C54	C	-0.463907	0.928311	0.172097
C55	C	-1.128439	0.478442	-0.277597
C56	C	-0.628439	0.978442	0.222403
C57	C	-1.073526	0.528579	-0.227306
C58	C	-0.573526	1.028579	0.272694
C59	C	-0.963797	0.528586	-0.227318
C60	C	-0.463797	1.028586	0.272682
C61	C	-0.908994	0.478451	-0.277617
C62	C	-0.408994	0.978451	0.222383
C63	C	-0.792320	0.378189	-0.378213
C64	C	-0.292320	0.878189	0.121787
C65	C	-0.909097	0.378174	-0.378204
C66	C	-0.409097	0.878174	0.121796
C67	C	-1.518186	0.582123	-0.378165
C68	C	-1.018186	1.082123	0.121835
C69	C	-1.518238	0.669373	-0.378178
C70	C	-1.018238	1.169373	0.121822
C71	C	-1.518351	0.378117	-0.582941
C72	C	-1.018351	0.878117	-0.082941
C73	C	-1.518378	0.378093	-0.670191
C74	C	-1.018378	0.878093	-0.170191
C75	C	-1.518417	0.173431	-0.378245
C76	C	-1.018417	0.673431	0.121755
C77	C	-1.518473	0.086181	-0.378266
C78	C	-1.018473	0.586181	0.121734
C79	C	-1.585488	0.710356	-0.328032
C80	C	-1.085488	1.210356	0.171968
C81	C	-1.585539	0.792337	-0.328052
C82	C	-1.085539	1.292337	0.171948
C83	C	-1.518335	0.833332	-0.378215
C84	C	-1.018335	1.333332	0.121785
C85	C	-1.451083	0.792343	-0.428367
C86	C	-0.951083	1.292343	0.071633
C87	C	-1.451037	0.710364	-0.428350
C88	C	-0.951037	1.210364	0.071650
C89	C	-1.451180	0.963213	-0.428397
C90	C	-0.951180	1.463213	0.071603
C91	C	-1.451224	1.045197	-0.428412
C92	C	-0.951224	1.545197	0.071588
C93	C	-1.585682	1.045186	-0.328098
C94	C	-1.085682	1.545186	0.171902
C95	C	-1.585636	0.963207	-0.328082
C96	C	-1.085636	1.463207	0.171918
C97	C	-1.518382	0.922223	-0.378233
C98	C	-1.018382	1.422223	0.121767
C99	C	-1.585608	0.327888	-0.711200
C100	C	-1.085608	0.827888	-0.211200
C101	C	-1.585621	0.327862	-0.793180
C102	C	-1.085621	0.827862	-0.293180
C103	C	-1.518408	0.378045	-0.834150
C104	C	-1.018408	0.878045	-0.334150
C105	C	-1.451169	0.428252	-0.793136
C106	C	-0.951169	0.928252	-0.293136
C107	C	-1.451152	0.428273	-0.711157
C108	C	-0.951152	0.928273	-0.211157
C109	C	-1.451212	0.428205	-0.964006
C110	C	-0.951212	0.928205	-0.464006
C111	C	-1.451230	0.428184	-1.045991
C112	C	-0.951230	0.928184	-0.545991
C113	C	-1.585681	0.327793	-1.046030
C114	C	-1.085681	0.827793	-0.546030
C115	C	-1.585663	0.327815	-0.964051
C116	C	-1.085663	0.827815	-0.464051
C117	C	-1.518426	0.378023	-0.923042
C118	C	-1.018426	0.878023	-0.423042
C119	C	-1.518284	0.378176	-0.174249
C120	C	-1.018284	0.878176	0.325751
C121	C	-1.518461	0.377980	-0.087000
C122	C	-1.018461	0.877980	0.413000
H123	H	-0.819653	0.478443	-0.277623
H124	H	-0.319653	0.978443	0.222377
N125	N	-1.246781	0.478455	-0.277570
N126	N	-0.746781	0.978455	0.222430
H127	H	-1.273178	0.532327	-0.291896
H128	H	-0.773178	1.032327	0.208104
H129	H	-1.273197	0.439055	-0.317046
H130	H	-0.773197	0.939055	0.182954
H131	H	-1.640401	0.286956	-0.930695
H132	H	-1.140401	0.786956	-0.430695
N133	N	-1.658176	0.273621	-1.090258
N134	N	-1.158176	0.773621	-0.590258
H135	H	-1.700752	0.241834	-1.051864
H136	H	-1.200752	0.741834	-0.551864
H137	H	-1.706786	0.305558	-1.124279
H138	H	-1.206786	0.805558	-0.624279
H139	H	-1.118549	0.186928	-0.570016
H140	H	-0.618549	0.686928	-0.070016
H141	H	-1.118161	0.569401	-0.186359
H142	H	-0.618161	1.069401	0.313641
H143	H	-1.640446	1.078559	-0.287266
H144	H	-1.140446	1.578559	0.212734
N145	N	-0.904582	0.582667	-0.173074
N146	N	-0.404582	1.082667	0.326926
H147	H	-0.859050	0.550723	-0.136757
H148	H	-0.359050	1.050723	0.363243
H149	H	-0.859123	0.619081	-0.204964
H150	H	-0.359123	1.119081	0.295036
N151	N	-1.378738	0.482309	-1.090183
N152	N	-0.878738	0.982309	-0.590183
H153	H	-1.336135	0.514115	-1.051766
H154	H	-0.836135	1.014115	-0.551766
H155	H	-1.330154	0.450338	-1.124201
H156	H	-0.830154	0.950338	-0.624201
N157	N	-1.658125	0.918988	-0.273983
N158	N	-1.158125	1.418988	0.226017
H159	H	-1.615440	0.885025	-0.237570
H160	H	-1.115440	1.385025	0.262430
H161	H	-1.700725	0.957440	-0.242271
H162	H	-1.200725	1.457440	0.257729
N163	N	-0.790861	0.277916	-0.478799
N164	N	-0.290861	0.777916	0.021201
H165	H	-0.764408	0.263420	-0.424977
H166	H	-0.264408	0.763420	0.075023
H167	H	-0.764554	0.238554	-0.518326
H168	H	-0.264554	0.738554	-0.018326
N169	N	-1.658113	0.273698	-0.837412
N170	N	-1.158113	0.773698	-0.337412
H171	H	-1.700688	0.241909	-0.799019
H172	H	-1.200688	0.741909	-0.299019
H173	H	-1.706724	0.305631	-0.871435
H174	H	-1.206724	0.805631	-0.371435
N175	N	-1.378688	0.482352	-0.919772
N176	N	-0.878688	0.982352	-0.419772
H177	H	-1.336113	0.514142	-0.958165
H178	H	-0.836113	1.014142	-0.458165
H179	H	-1.421425	0.518691	-0.885755
H180	H	-0.921425	1.018691	-0.385755
H181	H	-1.396439	0.469109	-0.826500
H182	H	-0.896439	0.969109	-0.326500
H183	H	-1.640208	0.676983	-0.287180
H184	H	-1.140208	1.176983	0.212820
H185	H	-1.396278	0.676996	-0.469185
H186	H	-0.896278	1.176996	0.030815
H187	H	-1.640300	0.825702	-0.287217
H188	H	-1.140300	1.325702	0.212783
N189	N	-1.378628	0.482420	-0.666930
N190	N	-0.878628	0.982420	-0.166930
H191	H	-1.394907	0.538506	-0.681182
H192	H	-0.894907	1.038506	-0.181182
H193	H	-1.388840	0.474753	-0.608793
H194	H	-0.888840	0.974753	-0.108793
N195	N	-0.905002	0.173693	-0.583332
N196	N	-0.405002	0.673693	-0.083332
H197	H	-0.827161	0.181303	-0.575710
H198	H	-0.327161	0.681303	-0.075710
H199	H	-0.924195	0.117614	-0.571214
H200	H	-0.424195	0.617614	-0.071214
H201	H	-1.217990	0.277888	-0.478770
H202	H	-0.717990	0.777888	0.021230
H203	H	-1.396520	1.078574	-0.469274
H204	H	-0.896520	1.578574	0.030726
N205	N	-1.378648	0.919006	-0.482490
N206	N	-0.878648	1.419006	0.017510
H207	H	-1.336079	0.957415	-0.514270
H208	H	-0.836079	1.457415	-0.014270
H209	H	-1.330035	0.885044	-0.450496
H210	H	-0.830035	1.385044	0.049504
H211	H	-1.396369	0.825728	-0.469214
H212	H	-0.896369	1.325728	0.030786
H213	H	-1.640345	0.287026	-0.677848
H214	H	-1.140345	0.787026	-0.177848
