data_functionalizedCrystal
_audit_creation_method	'MofGen! by Chris Wilmer'
_symmetry_space_group_name_H-M	'P1'
_symmetry_Int_Tables_number	1
_symmetry_cell_setting	triclinic
loop_
_symmetry_equiv_pos_as_xyz
  x,y,z
_cell_length_a	10.654550
_cell_length_b	11.026607
_cell_length_c	9.130313
_cell_angle_alpha	89.997484
_cell_angle_beta	89.999724
_cell_angle_gamma	96.535474
loop_
_atom_site_label
_atom_site_type_symbol
_atom_site_fract_x
_atom_site_fract_y
_atom_site_fract_z
O1	O	1.704908	0.170768	-0.121683
O2	O	1.342961	0.187037	-0.121709
O3	O	1.493937	0.001997	-0.121693
O4	O	1.553932	0.355808	-0.121699
O5	O	1.493922	0.001991	0.121906
O6	O	1.342947	0.187032	0.121889
O7	O	1.704894	0.170762	0.121916
Cu8	Cu	1.523919	0.178896	0.144145
Cu9	Cu	1.523936	0.178903	-0.143939
O10	O	1.553918	0.355802	0.121899
C11	C	1.295897	0.185840	0.000087
C12	C	1.155678	0.182266	0.000076
C13	C	1.099841	0.291214	0.000079
C14	C	0.968090	0.287849	0.000104
C15	C	0.948022	0.066576	0.000119
C16	C	1.079771	0.069943	0.000104
C17	C	1.482861	-0.043310	0.000104
C18	C	1.449867	-0.178302	0.000096
C19	C	1.540970	-0.251341	0.000101
C20	C	1.506871	-0.390862	0.000093
C21	C	1.751958	0.171959	0.000116
C22	C	1.892177	0.175533	0.000117
C23	C	1.564993	0.401109	0.000099
C24	C	1.597988	0.536101	0.000097
N25	N	1.523916	0.178891	0.346768
N26	N	1.523947	0.178898	-0.346561
C27	C	1.590804	0.096990	0.423427
C28	C	1.590816	0.096990	0.576764
C29	C	1.457050	0.260803	0.576769
C30	C	1.457031	0.260796	0.423435
H31	H	1.644212	-0.210580	0.000117
N32	N	0.907901	0.405377	0.000166
H33	H	0.935203	0.454353	-0.090127
H34	H	0.812930	0.386136	0.000260
H35	H	1.645281	0.030298	0.639175
N36	N	1.384892	0.349139	0.340731
H37	H	1.318674	0.302165	0.277131
H38	H	1.342611	0.401015	0.412650
H39	H	1.403623	-0.431617	0.000076
H40	H	1.161641	0.382675	0.000067
N41	N	1.313112	-0.232291	0.000093
H42	H	1.269780	-0.204369	0.090395
H43	H	1.269887	-0.204345	-0.090269
H44	H	1.645264	0.030296	0.361008
N45	N	1.384929	0.349157	0.659453
H46	H	1.292454	0.334349	0.632788
H47	H	1.395190	0.336699	0.768197
N48	N	0.866139	-0.054560	0.000150
H49	H	0.811021	-0.060890	-0.090146
H50	H	0.921585	-0.123001	0.000208
N51	N	1.140005	-0.047571	0.000119
H52	H	1.071929	-0.119238	0.000131
H53	H	1.194230	-0.050997	-0.090188
N54	N	1.734755	-0.409933	0.000096
H55	H	1.739732	-0.317914	0.000098
H56	H	1.777999	-0.437957	0.090403
