data_functionalizedCrystal
_audit_creation_method	'MofGen! by Chris Wilmer'
_symmetry_space_group_name_H-M	'P1'
_symmetry_Int_Tables_number	1
_symmetry_cell_setting	triclinic
loop_
_symmetry_equiv_pos_as_xyz
  x,y,z
_cell_length_a	27.732064
_cell_length_b	27.732048
_cell_length_c	13.930277
_cell_angle_alpha	90.000326
_cell_angle_beta	89.998889
_cell_angle_gamma	82.646040
loop_
_atom_site_label
_atom_site_type_symbol
_atom_site_fract_x
_atom_site_fract_y
_atom_site_fract_z
O1	O	0.640924	0.057548	0.079670
O2	O	0.974257	0.390882	0.413003
O3	O	1.307591	0.724215	0.746336
O4	O	0.500132	0.066285	0.079711
O5	O	0.833465	0.399619	0.413044
O6	O	1.166799	0.732952	0.746377
O7	O	0.574901	-0.008480	0.079671
O8	O	0.908234	0.324854	0.413004
O9	O	1.241567	0.658187	0.746337
O10	O	0.566155	0.132313	0.079710
O11	O	0.899489	0.465647	0.413043
O12	O	1.232822	0.798980	0.746377
O13	O	0.574890	-0.008468	-0.079991
O14	O	0.908223	0.324865	0.253342
O15	O	1.241556	0.658199	0.586676
O16	O	0.500121	0.066297	-0.079951
O17	O	0.833454	0.399630	0.253382
O18	O	1.166788	0.732964	0.586716
O19	O	0.640913	0.057560	-0.079992
O20	O	0.974247	0.390893	0.253341
O21	O	1.307580	0.724226	0.586675
Zn22	Zn	0.570515	0.061930	-0.105321
Zn23	Zn	0.903849	0.395263	0.228012
Zn24	Zn	1.237182	0.728597	0.561345
Zn25	Zn	0.570530	0.061915	0.105040
Zn26	Zn	0.903863	0.395248	0.438373
Zn27	Zn	1.237196	0.728582	0.771707
O28	O	0.566144	0.132325	-0.079952
O29	O	0.899478	0.465658	0.253381
O30	O	1.232811	0.798991	0.586715
C31	C	0.482120	0.066106	-0.000115
C32	C	0.815453	0.399440	0.333218
C33	C	1.148786	0.732773	0.666551
C34	C	0.428465	0.065551	-0.000100
C35	C	0.761798	0.398884	0.333233
C36	C	1.095132	0.732217	0.666566
C37	C	0.051392	0.017583	-0.000168
C38	C	0.384726	0.350917	0.333165
C39	C	0.718059	0.684250	0.666498
C40	C	0.253053	0.019630	-0.000143
C41	C	0.586386	0.352963	0.333191
C42	C	0.919719	0.686296	0.666524
O43	O	0.284305	-0.017591	-0.000189
O44	O	0.617639	0.315742	0.333144
O45	O	0.950972	0.649075	0.666478
N46	N	0.272180	0.063964	-0.000126
N47	N	0.605513	0.397297	0.333207
N48	N	0.938847	0.730631	0.666540
C49	C	0.240889	0.107790	-0.000122
C50	C	0.574222	0.441123	0.333211
C51	C	0.907556	0.774456	0.666544
O52	O	0.261785	0.145546	-0.000118
O53	O	0.595119	0.478879	0.333216
O54	O	0.928452	0.812212	0.666549
C55	C	0.039230	0.105743	-0.000155
C56	C	0.372563	0.439076	0.333179
C57	C	0.705896	0.772410	0.666512
C58	C	0.020105	0.061406	-0.000162
C59	C	0.353439	0.394739	0.333172
C60	C	0.686772	0.728073	0.666505
C61	C	0.032267	-0.026750	-0.000176
C62	C	0.365601	0.306583	0.333157
C63	C	0.698934	0.639916	0.666490
C64	C	-0.018145	-0.027261	-0.000177
C65	C	0.315189	0.306072	0.333156
C66	C	0.648522	0.639405	0.666489
C67	C	-0.049432	0.016561	-0.000171
C68	C	0.283902	0.349895	0.333163
C69	C	0.617235	0.683228	0.666496
C70	C	-0.030307	0.060895	-0.000163
C71	C	0.303027	0.394228	0.333171
C72	C	0.636360	0.727561	0.666504
C73	C	0.007940	0.149568	-0.000158
C74	C	0.341273	0.482902	0.333176
C75	C	0.674606	0.816235	0.666509
C76	C	-0.042478	0.149053	-0.000168
C77	C	0.290855	0.482386	0.333165
C78	C	0.624189	0.815719	0.666498
C79	C	-0.061602	0.104716	-0.000175
C80	C	0.271731	0.438049	0.333158
C81	C	0.605064	0.771382	0.666492
C82	C	-0.112006	0.104206	-0.000157
C83	C	0.221327	0.437539	0.333176
C84	C	0.554661	0.770873	0.666510
N85	N	-0.131134	0.059872	-0.000174
N86	N	0.202200	0.393205	0.333160
N87	N	0.535533	0.726539	0.666493
C88	C	-0.099846	0.016049	-0.000180
C89	C	0.233487	0.349383	0.333153
C90	C	0.566820	0.682716	0.666486
C91	C	0.346763	0.108861	-0.000103
C92	C	0.680097	0.442195	0.333230
C93	C	1.013430	0.775528	0.666563
C94	C	0.397178	0.109373	-0.000094
C95	C	0.730511	0.442706	0.333240
C96	C	1.063845	0.776040	0.666573
C97	C	0.409338	0.021213	-0.000116
C98	C	0.742672	0.354546	0.333217
C99	C	1.076005	0.687879	0.666551
C100	C	0.358923	0.020701	-0.000119
C101	C	0.692256	0.354035	0.333214
C102	C	1.025589	0.687368	0.666548
C103	C	0.327636	0.064527	-0.000120
C104	C	0.660969	0.397860	0.333213
C105	C	0.994303	0.731194	0.666547
C106	C	-0.205716	0.014979	-0.000182
C107	C	0.127617	0.348313	0.333151
C108	C	0.460951	0.681646	0.666485
C109	C	-0.256133	0.014472	-0.000179
C110	C	0.077200	0.347806	0.333154
C111	C	0.410534	0.681139	0.666487
C112	C	-0.268289	0.102632	-0.000162
C113	C	0.065045	0.435966	0.333171
C114	C	0.398378	0.769299	0.666505
C115	C	-0.217876	0.103140	-0.000160
C116	C	0.115457	0.436473	0.333174
C117	C	0.448791	0.769806	0.666507
C118	C	-0.186590	0.059309	-0.000173
C119	C	0.146743	0.392643	0.333160
C120	C	0.480076	0.725976	0.666494
O121	O	-0.143287	0.141407	-0.000122
O122	O	0.190046	0.474741	0.333212
O123	O	0.523380	0.808074	0.666545
O124	O	-0.120752	-0.021701	-0.000207
O125	O	0.212581	0.311632	0.333127
O126	O	0.545914	0.644966	0.666460
C127	C	0.101805	0.018094	-0.000167
C128	C	0.435138	0.351428	0.333166
C129	C	0.768471	0.684761	0.666499
C130	C	0.120930	0.062428	-0.000159
C131	C	0.454263	0.395761	0.333174
C132	C	0.787596	0.729095	0.666507
C133	C	0.089642	0.106250	-0.000153
C134	C	0.422976	0.439584	0.333181
C135	C	0.756309	0.772917	0.666514
C136	C	0.171344	0.062940	-0.000149
C137	C	0.504677	0.396273	0.333184
C138	C	0.838011	0.729606	0.666517
C139	C	0.202631	0.019117	-0.000156
C140	C	0.535965	0.352451	0.333177
C141	C	0.869298	0.685784	0.666510
C142	C	0.183504	-0.025217	-0.000173
C143	C	0.516837	0.308116	0.333160
C144	C	0.850170	0.641450	0.666494
C145	C	0.133092	-0.025728	-0.000174
C146	C	0.466425	0.307605	0.333159
C147	C	0.799758	0.640939	0.666493
C148	C	0.108770	0.150585	-0.000136
C149	C	0.442103	0.483918	0.333197
C150	C	0.775437	0.817251	0.666531
C151	C	0.159183	0.151092	-0.000134
C152	C	0.492516	0.484426	0.333200
C153	C	0.825849	0.817759	0.666533
C154	C	0.190470	0.107270	-0.000140
C155	C	0.523803	0.440603	0.333193
C156	C	0.857136	0.773936	0.666526
C157	C	0.574712	-0.026481	-0.000163
C158	C	0.908045	0.306853	0.333171
C159	C	1.241378	0.640186	0.666504
C160	C	0.574159	-0.080136	-0.000171
C161	C	0.907492	0.253198	0.333163
C162	C	1.240826	0.586531	0.666496
C163	C	0.614862	-0.418948	-0.000133
C164	C	0.948196	-0.085615	0.333200
C165	C	1.281529	0.247718	0.666534
C166	C	0.612811	-0.620608	-0.000119
C167	C	0.946145	-0.287275	0.333214
C168	C	1.279478	0.046059	0.666548
O169	O	0.650032	-0.651862	-0.000088
O170	O	0.983365	-0.318528	0.333245
O171	O	1.316698	0.014805	0.666579
N172	N	0.568476	-0.639735	-0.000107
N173	N	0.901810	-0.306401	0.333226
N174	N	1.235143	0.026932	0.666560
C175	C	0.524651	-0.608442	-0.000092
C176	C	0.857985	-0.275109	0.333241
C177	C	1.191318	0.058224	0.666574
O178	O	0.486895	-0.629338	-0.000072
O179	O	0.820228	-0.296004	0.333261
O180	O	1.153561	0.037329	0.666595
C181	C	0.526703	-0.406784	-0.000099
C182	C	0.860036	-0.073450	0.333234
C183	C	1.193369	0.259883	0.666567
C184	C	0.571040	-0.387660	-0.000121
C185	C	0.904374	-0.054327	0.333212
C186	C	1.237707	0.279006	0.666546
C187	C	0.659196	-0.399824	-0.000154
C188	C	0.992530	-0.066491	0.333180
C189	C	1.325863	0.266842	0.666513
C190	C	0.659709	-0.349412	-0.000162
C191	C	0.993042	-0.016079	0.333171
C192	C	1.326375	0.317254	0.666504
C193	C	0.615887	-0.318124	-0.000151
C194	C	0.949220	0.015209	0.333183
C195	C	1.282554	0.348542	0.666516
C196	C	0.571553	-0.337248	-0.000130
C197	C	0.904886	-0.003915	0.333203
C198	C	1.238219	0.329418	0.666537
C199	C	0.482878	-0.375493	-0.000078
C200	C	0.816211	-0.042159	0.333256
C201	C	1.149545	0.291174	0.666589
C202	C	0.483395	-0.325075	-0.000077
C203	C	0.816728	0.008258	0.333256
C204	C	1.150062	0.341591	0.666590
C205	C	0.527733	-0.305952	-0.000099
C206	C	0.861066	0.027381	0.333235
C207	C	1.194399	0.360715	0.666568
C208	C	0.528243	-0.255548	-0.000127
C209	C	0.861576	0.077785	0.333207
C210	C	1.194910	0.411118	0.666540
N211	N	0.572578	-0.236422	-0.000139
N212	N	0.905911	0.096911	0.333195
N213	N	1.239245	0.430245	0.666528
C214	C	0.616400	-0.267710	-0.000151
C215	C	0.949733	0.065623	0.333183
C216	C	1.283067	0.398957	0.666516
C217	C	0.523577	-0.714317	-0.000090
C218	C	0.856911	-0.380983	0.333243
C219	C	1.190244	-0.047650	0.666576
C220	C	0.523064	-0.764731	-0.000090
C221	C	0.856398	-0.431398	0.333243
C222	C	1.189731	-0.098064	0.666576
C223	C	0.611225	-0.776893	-0.000115
C224	C	0.944558	-0.443560	0.333218
C225	C	1.277891	-0.110227	0.666551
C226	C	0.611737	-0.726478	-0.000122
C227	C	0.945070	-0.393145	0.333211
C228	C	1.278404	-0.059811	0.666544
C229	C	0.567912	-0.695190	-0.000102
C230	C	0.901245	-0.361857	0.333231
C231	C	1.234579	-0.028524	0.666564
C232	C	0.617472	-0.161841	-0.000170
C233	C	0.950806	0.171493	0.333164
C234	C	1.284139	0.504826	0.666497
C235	C	0.617981	-0.111424	-0.000182
C236	C	0.951314	0.221910	0.333151
C237	C	1.284647	0.555243	0.666484
C238	C	0.529821	-0.099266	-0.000152
C239	C	0.863154	0.234067	0.333181
C240	C	1.196487	0.567401	0.666514
C241	C	0.529312	-0.149679	-0.000145
C242	C	0.862645	0.183655	0.333189
C243	C	1.195979	0.516988	0.666522
C244	C	0.573142	-0.180965	-0.000150
C245	C	0.906475	0.152368	0.333183
C246	C	1.239808	0.485701	0.666517
O247	O	0.491043	-0.224267	-0.000147
O248	O	0.824376	0.109067	0.333186
O249	O	1.157709	0.442400	0.666520
O250	O	0.654151	-0.246805	-0.000150
O251	O	0.987484	0.086528	0.333184
O252	O	1.320818	0.419862	0.666517
C253	C	0.614350	-0.469360	-0.000124
C254	C	0.947683	-0.136027	0.333209
C255	C	1.281017	0.197306	0.666542
C256	C	0.570016	-0.488484	-0.000104
C257	C	0.903349	-0.155151	0.333230
C258	C	1.236683	0.178182	0.666563
C259	C	0.526194	-0.457196	-0.000092
C260	C	0.859527	-0.123863	0.333242
C261	C	1.192861	0.209470	0.666575
C262	C	0.569503	-0.538899	-0.000104
C263	C	0.902836	-0.205565	0.333230
C264	C	1.236170	0.127768	0.666563
C265	C	0.613325	-0.570187	-0.000116
C266	C	0.946658	-0.236853	0.333218
C267	C	1.279991	0.096480	0.666551
C268	C	0.657660	-0.551060	-0.000128
C269	C	0.990993	-0.217727	0.333206
C270	C	1.324326	0.115606	0.666539
C271	C	0.658172	-0.500648	-0.000136
C272	C	0.991505	-0.167315	0.333197
C273	C	1.324839	0.166018	0.666530
C274	C	0.481859	-0.476323	-0.000080
C275	C	0.815193	-0.142989	0.333254
C276	C	1.148526	0.190344	0.666587
C277	C	0.481351	-0.526735	-0.000072
C278	C	0.814684	-0.193402	0.333261
C279	C	1.148017	0.139932	0.666595
C280	C	0.525172	-0.558023	-0.000084
C281	C	0.858506	-0.224690	0.333249
C282	C	1.191839	0.108643	0.666583
C283	C	0.658925	0.057739	-0.000164
C284	C	0.992259	0.391072	0.333169
C285	C	1.325592	0.724405	0.666503
C286	C	0.712580	0.058295	-0.000172
C287	C	1.045913	0.391628	0.333161
C288	C	1.379247	0.724961	0.666494
C289	C	0.566333	0.150326	-0.000116
C290	C	0.899667	0.483659	0.333217
C291	C	1.233000	0.816993	0.666550
C292	C	0.566886	0.203981	-0.000102
C293	C	0.900219	0.537314	0.333231
C294	C	1.233553	0.870648	0.666564
N295	N	0.570509	0.061940	-0.248887
N296	N	0.903842	0.395273	0.084446
N297	N	1.237176	0.728607	0.417779
C298	C	0.599633	0.091024	-0.701147
C299	C	0.932966	0.424357	-0.367814
C300	C	1.266299	0.757691	-0.034480
C301	C	0.541442	0.032786	-0.701136
C302	C	0.874775	0.366119	-0.367802
C303	C	1.208108	0.699453	-0.034469
C304	C	0.541434	0.032794	-0.600640
C305	C	0.874768	0.366127	-0.267307
C306	C	1.208101	0.699461	0.066027
C307	C	0.570527	0.061917	-0.550393
C308	C	0.903860	0.395250	-0.217060
C309	C	1.237194	0.728583	0.116274
C310	C	0.599627	0.091032	-0.600642
C311	C	0.932961	0.424365	-0.267309
C312	C	1.266294	0.757698	0.066025
C313	C	0.512338	0.003676	-0.550384
C314	C	0.845672	0.337009	-0.217050
C315	C	1.179005	0.670343	0.116283
C316	C	0.512330	0.003682	-0.449882
C317	C	0.845663	0.337016	-0.116548
C318	C	1.178997	0.670349	0.216785
C319	C	0.541421	0.032808	-0.399633
C320	C	0.874754	0.366141	-0.066300
C321	C	1.208087	0.699475	0.267034
C322	C	0.570522	0.061925	-0.449888
C323	C	0.903855	0.395258	-0.116555
C324	C	1.237188	0.728591	0.216779
C325	C	0.599615	0.091047	-0.399641
C326	C	0.932948	0.424381	-0.066308
C327	C	1.266281	0.757714	0.267025
C328	C	0.628713	0.120167	-0.449894
C329	C	0.962047	0.453500	-0.116561
C330	C	1.295380	0.786833	0.216772
C331	C	0.628718	0.120157	-0.550393
C332	C	0.962051	0.453491	-0.217060
C333	C	1.295385	0.786824	0.116273
C334	C	0.541416	0.032817	-0.299134
C335	C	0.874749	0.366151	0.034199
C336	C	1.208083	0.699484	0.367532
C337	C	0.599609	0.091055	-0.299136
C338	C	0.932943	0.424388	0.034197
C339	C	1.266276	0.757722	0.367531
N340	N	0.570540	0.061901	0.248606
N341	N	0.903873	0.395235	0.581939
N342	N	1.237207	0.728568	0.915273
H343	H	0.023502	0.185672	-0.000148
H344	H	0.356835	0.519006	0.333186
H345	H	0.690168	0.852339	0.666519
H346	H	0.652403	0.143876	-0.408970
H347	H	0.985736	0.477210	-0.075637
H348	H	1.319070	0.810543	0.257696
C349	C	0.312354	0.157073	-0.000094
C350	C	0.645687	0.490406	0.333240
C351	C	0.979020	0.823739	0.666573
H352	H	0.330971	0.183546	-0.000072
H353	H	0.664304	0.516879	0.333261
H354	H	0.997637	0.850212	0.666594
H355	H	0.292435	0.158715	-0.055772
H356	H	0.625768	0.492048	0.277561
H357	H	0.959102	0.825382	0.610895
H358	H	0.292434	0.158703	0.055590
H359	H	0.625767	0.492036	0.388923
H360	H	0.959100	0.825369	0.722257
C361	C	0.509432	0.000762	-0.756400
C362	C	0.842766	0.334095	-0.423066
C363	C	1.176099	0.667429	-0.089733
H364	H	0.492100	-0.016575	-0.712078
H365	H	0.825433	0.316758	-0.378745
H366	H	1.158767	0.650091	-0.045411
H367	H	0.487045	0.020728	-0.795608
H368	H	0.820378	0.354061	-0.462274
H369	H	1.153711	0.687395	-0.128941
H370	H	0.529405	-0.021629	-0.795601
H371	H	0.862738	0.311704	-0.462267
H372	H	1.196072	0.645038	-0.128934
H373	H	-0.067950	0.184742	-0.000174
H374	H	0.265384	0.518075	0.333160
H375	H	0.598717	0.851408	0.666493
H376	H	0.694276	-0.485083	-0.000154
H377	H	1.027609	-0.151750	0.333180
H378	H	1.360943	0.181583	0.666513
H379	H	0.494142	-0.073782	-0.000146
H380	H	0.827476	0.259551	0.333187
H381	H	1.160809	0.592884	0.666521
H382	H	0.446173	-0.450852	-0.000068
H383	H	0.779507	-0.117519	0.333265
H384	H	1.112840	0.215815	0.666599
H385	H	0.623298	0.114773	-0.258232
H386	H	0.956631	0.448106	0.075101
H387	H	1.289965	0.781440	0.408434
H388	H	0.174748	0.187200	-0.000121
H389	H	0.508082	0.520533	0.333212
H390	H	0.841415	0.853866	0.666545
C391	C	0.660728	0.152179	-0.605673
C392	C	0.994062	0.485513	-0.272339
C393	C	1.327395	0.818846	0.060994
H394	H	0.656569	0.147998	-0.672722
H395	H	0.989902	0.481331	-0.339389
H396	H	1.323236	0.814665	-0.006055
H397	H	0.651501	0.185318	-0.589220
H398	H	0.984835	0.518651	-0.255887
H399	H	1.318168	0.851985	0.077446
H400	H	0.693868	0.142967	-0.589191
H401	H	1.027201	0.476301	-0.255858
H402	H	1.360535	0.809634	0.077475
H403	H	0.447706	-0.299603	-0.000059
H404	H	0.781040	0.033731	0.333274
H405	H	1.114373	0.367064	0.666607
H406	H	0.623323	0.114734	-0.742068
H407	H	0.956656	0.448067	-0.408734
H408	H	1.289990	0.781400	-0.075401
H409	H	0.693341	-0.576544	-0.000141
H410	H	1.026674	-0.243211	0.333192
H411	H	1.360008	0.090123	0.666525
H412	H	-0.271701	-0.021634	-0.000182
H413	H	0.061632	0.311699	0.333151
H414	H	0.394966	0.645033	0.666484
H415	H	0.083300	0.186271	-0.000132
H416	H	0.416634	0.519605	0.333202
H417	H	0.749967	0.852938	0.666535
C418	C	0.432576	-0.547765	-0.000045
C419	C	0.765909	-0.214432	0.333288
C420	C	1.099242	0.118902	0.666621
H421	H	0.406553	-0.521906	-0.000029
H422	H	0.739886	-0.188573	0.333304
H423	H	1.073220	0.144760	0.666637
H424	H	0.430532	-0.567183	-0.055714
H425	H	0.763866	-0.233849	0.277619
H426	H	1.097199	0.099484	0.610953
H427	H	0.430549	-0.567173	0.055648
H428	H	0.763883	-0.233840	0.388981
H429	H	1.097216	0.099493	0.722315
C430	C	0.660508	-0.705446	-0.000137
C431	C	0.993841	-0.372113	0.333196
C432	C	1.327174	-0.038780	0.666529
H433	H	0.686531	-0.731305	-0.000139
H434	H	1.019864	-0.397972	0.333194
H435	H	1.353197	-0.064638	0.666527
H436	H	0.662540	-0.686031	-0.055813
H437	H	0.995873	-0.352698	0.277521
H438	H	1.329206	-0.019364	0.610854
H439	H	0.662546	-0.686036	0.055550
H440	H	0.995879	-0.352702	0.388883
H441	H	1.329213	-0.019369	0.722216
H442	H	0.653163	-0.187309	-0.000170
H443	H	0.986496	0.146024	0.333163
H444	H	1.319829	0.479358	0.666496
C445	C	0.480542	-0.170716	-0.000119
C446	C	0.813876	0.162618	0.333215
C447	C	1.147209	0.495951	0.666548
H448	H	0.454517	-0.144859	-0.000107
H449	H	0.787851	0.188474	0.333227
H450	H	1.121184	0.521808	0.666560
H451	H	0.478501	-0.190136	-0.055785
H452	H	0.811834	0.143198	0.277549
H453	H	1.145168	0.476531	0.610882
H454	H	0.478518	-0.190122	0.055578
H455	H	0.811851	0.143211	0.388911
H456	H	1.145184	0.476544	0.722244
H457	H	-0.180248	-0.020712	-0.000193
H458	H	0.153085	0.312622	0.333141
H459	H	0.486418	0.645955	0.666474
H460	H	-0.202304	0.139243	-0.000153
H461	H	0.131029	0.472576	0.333180
H462	H	0.464362	0.805909	0.666514
H463	H	0.488657	-0.020038	-0.591302
H464	H	0.821990	0.313295	-0.257969
H465	H	1.155323	0.646628	0.075365
C466	C	0.480319	-0.028342	-0.394612
C467	C	0.813652	0.304991	-0.061279
C468	C	1.146986	0.638324	0.272055
H469	H	0.462991	-0.045685	-0.438932
H470	H	0.796324	0.287649	-0.105599
H471	H	1.129658	0.620982	0.227735
H472	H	0.500288	-0.050721	-0.355392
H473	H	0.833621	0.282612	-0.022059
H474	H	1.166955	0.615945	0.311275
H475	H	0.457920	-0.008372	-0.355423
H476	H	0.791253	0.324961	-0.022090
H477	H	1.124586	0.658294	0.311244
C478	C	0.509415	0.000789	-0.243855
C479	C	0.842748	0.334123	0.089478
C480	C	1.176081	0.667456	0.422811
H481	H	0.513580	0.004962	-0.176805
H482	H	0.846913	0.338296	0.156528
H483	H	1.180246	0.671629	0.489861
H484	H	0.476276	0.009990	-0.260333
H485	H	0.809609	0.343323	0.073000
H486	H	1.142942	0.676657	0.406333
H487	H	0.518653	-0.032349	-0.260315
H488	H	0.851987	0.300984	0.073018
H489	H	1.185320	0.634317	0.406352
C490	C	-0.039175	-0.076032	-0.000203
C491	C	0.294158	0.257301	0.333130
C492	C	0.627491	0.590634	0.666464
H493	H	-0.013316	-0.102054	-0.000218
H494	H	0.320017	0.231279	0.333116
H495	H	0.653351	0.564612	0.666449
H496	H	-0.058592	-0.078076	0.055467
H497	H	0.274741	0.255258	0.388801
H498	H	0.608074	0.588591	0.722134
H499	H	-0.058584	-0.078060	-0.055895
H500	H	0.274749	0.255273	0.277439
H501	H	0.608083	0.588606	0.610772
H502	H	0.057737	-0.062438	-0.000185
H503	H	0.391070	0.270896	0.333148
H504	H	0.724404	0.604229	0.666482
H505	H	0.343355	-0.015402	-0.000125
H506	H	0.676689	0.317931	0.333208
H507	H	1.010022	0.651265	0.666542
H508	H	0.434821	-0.014469	-0.000118
H509	H	0.768154	0.318864	0.333215
H510	H	1.101488	0.652197	0.666549
C511	C	0.666754	-0.090391	-0.000201
C512	C	1.000087	0.242942	0.333133
C513	C	1.333421	0.576276	0.666466
H514	H	0.692778	-0.116248	-0.000196
H515	H	1.026111	0.217085	0.333137
H516	H	1.359445	0.550418	0.666471
H517	H	0.668785	-0.070979	-0.055881
H518	H	1.002119	0.262355	0.277453
H519	H	1.335452	0.595688	0.610786
H520	H	0.668790	-0.070977	0.055482
H521	H	1.002123	0.262357	0.388815
H522	H	1.335457	0.595690	0.722148
C523	C	0.418210	0.158144	-0.000076
C524	C	0.751543	0.491477	0.333257
C525	C	1.084876	0.824810	0.666590
H526	H	0.392352	0.184167	-0.000083
H527	H	0.725685	0.517500	0.333250
H528	H	1.059018	0.850834	0.666584
H529	H	0.437621	0.160177	0.055603
H530	H	0.770955	0.493510	0.388936
H531	H	1.104288	0.826843	0.722270
H532	H	0.437624	0.160179	-0.055759
H533	H	0.770957	0.493513	0.277574
H534	H	1.104291	0.826846	0.610908
H535	H	0.117526	-0.061832	-0.000180
H536	H	0.450859	0.271501	0.333153
H537	H	0.784192	0.604835	0.666487
C538	C	-0.302710	0.150833	-0.000162
C539	C	0.030623	0.484166	0.333171
C540	C	0.363956	0.817500	0.666505
H541	H	-0.335473	0.144175	-0.000176
H542	H	-0.002140	0.477508	0.333157
H543	H	0.331193	0.810841	0.666490
H544	H	-0.296954	0.169032	0.055515
H545	H	0.036380	0.502365	0.388848
H546	H	0.369713	0.835698	0.722181
H547	H	-0.296946	0.169027	-0.055848
H548	H	0.036388	0.502360	0.277486
H549	H	0.369721	0.835693	0.610819
H550	H	0.208987	-0.060899	-0.000173
H551	H	0.542320	0.272435	0.333161
H552	H	0.875653	0.605768	0.666494
H553	H	0.695813	-0.333847	-0.000176
H554	H	1.029146	-0.000514	0.333157
H555	H	1.362480	0.332819	0.666490
H556	H	0.694883	-0.425295	-0.000160
H557	H	1.028217	-0.091962	0.333173
H558	H	1.361550	0.241372	0.666507
C559	C	0.659429	-0.811314	-0.000123
C560	C	0.992762	-0.477981	0.333210
C561	C	1.326095	-0.144647	0.666544
H562	H	0.685910	-0.792708	-0.000133
H563	H	1.019243	-0.459374	0.333200
H564	H	1.352577	-0.126041	0.666533
H565	H	0.661059	-0.831233	0.055555
H566	H	0.994392	-0.497900	0.388888
H567	H	1.327725	-0.164566	0.722222
H568	H	0.661058	-0.831233	-0.055807
H569	H	0.994391	-0.497900	0.277526
H570	H	1.327724	-0.164567	0.610859
H571	H	0.486960	-0.780296	-0.000089
H572	H	0.820293	-0.446963	0.333244
H573	H	1.153627	-0.113630	0.666577
H574	H	0.487888	-0.688846	-0.000074
H575	H	0.821221	-0.355512	0.333259
H576	H	1.154554	-0.022179	0.666592
C577	C	0.434106	-0.396517	-0.000046
C578	C	0.767439	-0.063184	0.333288
C579	C	1.100772	0.270149	0.666621
H580	H	0.408085	-0.370657	-0.000026
H581	H	0.741418	-0.037323	0.333308
H582	H	1.074752	0.296010	0.666641
H583	H	0.432060	-0.415932	-0.055718
H584	H	0.765394	-0.082599	0.277616
H585	H	1.098727	0.250734	0.610949
H586	H	0.432078	-0.415928	0.055645
H587	H	0.765411	-0.082594	0.388978
H588	H	1.098745	0.250739	0.722311
