data_functionalizedCrystal
_audit_creation_method	'MofGen! by Chris Wilmer'
_symmetry_space_group_name_H-M	'P1'
_symmetry_Int_Tables_number	1
_symmetry_cell_setting	triclinic
loop_
_symmetry_equiv_pos_as_xyz
  x,y,z
_cell_length_a	19.288864
_cell_length_b	14.519709
_cell_length_c	17.766277
_cell_angle_alpha	89.992699
_cell_angle_beta	89.976791
_cell_angle_gamma	83.408195
loop_
_atom_site_label
_atom_site_type_symbol
_atom_site_fract_x
_atom_site_fract_y
_atom_site_fract_z
O1	O	0.921767	0.115045	-0.062837
O2	O	1.255100	0.448378	0.270496
O3	O	1.588434	0.781712	0.603829
O4	O	0.719562	0.130564	-0.062786
O5	O	1.052896	0.463898	0.270547
O6	O	1.386229	0.797231	0.603881
O7	O	0.826026	-0.011468	-0.062806
O8	O	1.159359	0.321866	0.270527
O9	O	1.492693	0.655199	0.603860
O10	O	0.815304	0.257077	-0.062817
O11	O	1.148637	0.590410	0.270516
O12	O	1.481970	0.923744	0.603850
O13	O	0.826007	-0.011475	0.062382
O14	O	1.159340	0.321858	0.395716
O15	O	1.492674	0.655192	0.729049
O16	O	0.719544	0.130557	0.062402
O17	O	1.052877	0.463891	0.395736
O18	O	1.386210	0.797224	0.729069
O19	O	0.921748	0.115038	0.062351
O20	O	1.255082	0.448371	0.395685
O21	O	1.588415	0.781705	0.729018
Cu22	Cu	0.820644	0.122797	0.073808
Cu23	Cu	1.153978	0.456130	0.407141
Cu24	Cu	1.487311	0.789464	0.740474
Cu25	Cu	0.820666	0.122805	-0.074242
Cu26	Cu	1.154000	0.456139	0.259091
Cu27	Cu	1.487333	0.789472	0.592424
O28	O	0.815285	0.257070	0.062371
O29	O	1.148618	0.590403	0.395705
O30	O	1.481951	0.923737	0.729038
C31	C	0.693675	0.130061	-0.000185
C32	C	1.027008	0.463395	0.333148
C33	C	1.360341	0.796728	0.666482
C34	C	0.616566	0.128562	-0.000165
C35	C	0.949899	0.461896	0.333168
C36	C	1.283232	0.795229	0.666501
C37	C	0.572169	0.211900	-0.000181
C38	C	0.905503	0.545234	0.333153
C39	C	1.238836	0.878567	0.666486
C40	C	0.499717	0.210492	-0.000189
C41	C	0.833050	0.543825	0.333144
C42	C	1.166384	0.877159	0.666478
C43	C	0.471665	0.125741	-0.000197
C44	C	0.804998	0.459074	0.333136
C45	C	1.138331	0.792408	0.666470
C46	C	0.516071	0.042392	-0.000178
C47	C	0.849404	0.375725	0.333156
C48	C	1.182737	0.709059	0.666489
C49	C	0.588521	0.043803	-0.000162
C50	C	0.921855	0.377136	0.333172
C51	C	1.255188	0.710469	0.666505
C52	C	0.363169	0.059120	-0.044079
C53	C	0.696503	0.392453	0.289255
C54	C	1.029836	0.725787	0.622588
C55	C	0.290720	0.057713	-0.044099
C56	C	0.624053	0.391046	0.289234
C57	C	0.957387	0.724379	0.622568
C58	C	0.248203	0.121387	-0.000242
C59	C	0.581537	0.454720	0.333091
C60	C	0.914870	0.788053	0.666424
C61	C	0.278144	0.186483	0.043625
C62	C	0.611477	0.519817	0.376958
C63	C	0.944810	0.853150	0.710292
C64	C	0.350594	0.187894	0.043641
C65	C	0.683928	0.521227	0.376974
C66	C	1.017261	0.854561	0.710308
C67	C	0.393105	0.124202	-0.000214
C68	C	0.726438	0.457535	0.333120
C69	C	1.059772	0.790869	0.666453
C70	C	0.125246	0.203203	-0.000265
C71	C	0.458579	0.536537	0.333068
C72	C	0.791912	0.869870	0.666401
C73	C	0.052792	0.201792	-0.000269
C74	C	0.386126	0.535125	0.333064
C75	C	0.719459	0.868458	0.666398
C76	C	0.069148	0.033689	-0.000265
C77	C	0.402481	0.367023	0.333068
C78	C	0.735814	0.700356	0.666401
C79	C	0.141599	0.035103	-0.000254
C80	C	0.474933	0.368437	0.333079
C81	C	0.808266	0.701770	0.666412
C82	C	0.169644	0.119863	-0.000258
C83	C	0.502977	0.453196	0.333076
C84	C	0.836310	0.786530	0.666409
C85	C	0.825517	-0.045828	-0.000212
C86	C	1.158850	0.287505	0.333122
C87	C	1.492183	0.620839	0.666455
C88	C	0.824019	-0.148200	-0.000211
C89	C	1.157353	0.185134	0.333122
C90	C	1.490686	0.518467	0.666456
C91	C	0.818507	-0.523061	-0.000229
C92	C	1.151840	-0.189727	0.333104
C93	C	1.485173	0.143606	0.666438
C94	C	0.820037	-0.418762	-0.000224
C95	C	1.153371	-0.085429	0.333110
C96	C	1.486704	0.247904	0.666443
C97	C	0.821263	-0.335633	-0.000219
C98	C	1.154596	-0.002300	0.333114
C99	C	1.487929	0.331033	0.666447
C100	C	0.822794	-0.231329	-0.000215
C101	C	1.156127	0.102005	0.333118
C102	C	1.489461	0.435338	0.666451
C103	C	0.947636	0.115541	-0.000251
C104	C	1.280969	0.448874	0.333082
C105	C	1.614303	0.782207	0.666415
C106	C	1.024745	0.117040	-0.000276
C107	C	1.358078	0.450373	0.333057
C108	C	1.691412	0.783706	0.666391
C109	C	0.815794	0.291430	-0.000225
C110	C	1.149127	0.624764	0.333109
C111	C	1.482461	0.958097	0.666442
C112	C	0.817291	0.393802	-0.000230
C113	C	1.150625	0.727135	0.333103
C114	C	1.483958	1.060469	0.666436
N115	N	0.820634	0.122790	0.177938
N116	N	1.153967	0.456124	0.511271
N117	N	1.487300	0.789457	0.844605
N118	N	0.820682	0.122805	-0.178373
N119	N	1.154016	0.456138	0.154961
N120	N	1.487349	0.789471	0.488294
C121	C	0.867791	0.059929	0.217316
C122	C	1.201124	0.393263	0.550649
C123	C	1.534458	0.726596	0.883983
C124	C	0.867795	0.059925	0.296118
C125	C	1.201128	0.393258	0.629451
C126	C	1.534462	0.726592	0.962784
C127	C	0.820648	0.122798	0.335538
C128	C	1.153982	0.456131	0.668872
C129	C	1.487315	0.789464	1.002205
C130	C	0.773482	0.185664	0.296151
C131	C	1.106815	0.518997	0.629484
C132	C	1.440149	0.852330	0.962818
C133	C	0.773475	0.185660	0.217351
C134	C	1.106808	0.518993	0.550684
C135	C	1.440141	0.852327	0.884017
C136	C	0.811652	0.206826	0.460375
C137	C	1.144985	0.540159	0.793708
C138	C	1.478319	0.873492	1.127041
C139	C	0.811664	0.206831	0.539173
C140	C	1.144997	0.540164	0.872507
C141	C	1.478331	0.873497	1.205840
C142	C	0.820667	0.122809	0.578585
C143	C	1.154000	0.456142	0.911918
C144	C	1.487334	0.789475	1.245251
C145	C	0.829672	0.038778	0.539188
C146	C	1.163006	0.372112	0.872521
C147	C	1.496339	0.705445	1.205854
C148	C	0.829665	0.038775	0.460387
C149	C	1.162998	0.372108	0.793721
C150	C	1.496332	0.705441	1.127054
C151	C	0.820651	0.122808	0.420984
C152	C	1.153984	0.456142	0.754318
C153	C	1.487317	0.789475	1.087651
C154	C	0.867831	0.059938	0.703409
C155	C	1.201165	0.393271	1.036742
C156	C	1.534498	0.726604	1.370075
C157	C	0.867830	0.059932	0.782212
C158	C	1.201164	0.393266	1.115545
C159	C	1.534497	0.726599	1.448879
C160	C	0.773521	0.185679	0.782244
C161	C	1.106854	0.519012	1.115577
C162	C	1.440187	0.852346	1.448910
C163	C	0.773518	0.185676	0.703442
C164	C	1.106852	0.519010	1.036775
C165	C	1.440185	0.852343	1.370109
C166	C	0.820677	0.122807	0.664029
C167	C	1.154011	0.456140	0.997363
C168	C	1.487344	0.789473	1.330696
H169	H	0.177748	-0.032760	-0.000246
H170	H	0.511081	0.300574	0.333087
H171	H	0.844415	0.633907	0.666421
F172	F	0.918019	-0.006977	0.661462
F173	F	1.251352	0.326356	0.994795
F174	F	1.584686	0.659690	1.328129
F175	F	0.723303	0.252574	0.338106
F176	F	1.056636	0.585908	0.671439
F177	F	1.389969	0.919241	1.004772
H178	H	0.906230	0.008738	0.814274
H179	H	1.239563	0.342072	1.147607
H180	H	1.572896	0.675405	1.480941
F181	F	0.723339	0.252587	0.824195
F182	F	1.056673	0.585920	1.157528
F183	F	1.390006	0.919254	1.490861
F184	F	0.039297	-0.056510	-0.000267
F185	F	0.372630	0.276823	0.333067
F186	F	0.705964	0.610157	0.666400
F187	F	0.602012	0.302110	-0.000182
F188	F	0.935345	0.635443	0.333151
F189	F	1.268679	0.968776	0.666485
F190	F	0.723281	0.252568	0.175440
F191	F	1.056615	0.585902	0.508773
F192	F	1.389948	0.919235	0.842107
H193	H	0.463563	0.278358	-0.000199
H194	H	0.796896	0.611691	0.333134
H195	H	1.130229	0.945025	0.666468
H196	H	0.266348	0.004711	-0.079822
H197	H	0.599681	0.338044	0.253512
H198	H	0.933015	0.671377	0.586845
F199	F	0.005542	0.290496	-0.000281
F200	F	0.338875	0.623830	0.333052
F201	F	0.672208	0.957163	0.666385
H202	H	0.735121	0.236867	0.671378
H203	H	1.068454	0.570201	1.004712
H204	H	1.401788	0.903534	1.338045
F205	F	0.382457	0.257170	0.090329
F206	F	0.715790	0.590503	0.423662
F207	F	1.049124	0.923837	0.756995
H208	H	0.906198	0.008734	0.328185
H209	H	1.239531	0.342067	0.661518
H210	H	1.572864	0.675401	0.994852
H211	H	0.906189	0.008735	0.185228
H212	H	1.239522	0.342068	0.518562
H213	H	1.572856	0.675402	0.851895
H214	H	0.493226	-0.026613	-0.000195
H215	H	0.826559	0.306720	0.333139
H216	H	1.159893	0.640054	0.666472
F217	F	0.839243	-0.050654	0.418461
F218	F	1.172577	0.282680	0.751794
F219	F	1.505910	0.616013	1.085128
H220	H	0.804336	0.275253	0.571244
H221	H	1.137669	0.608586	0.904578
H222	H	1.471003	0.941920	1.237911
F223	F	0.839259	-0.050651	0.581126
F224	F	1.172592	0.282682	0.914459
F225	F	1.505926	0.616015	1.247792
H226	H	0.243528	0.238332	0.079338
H227	H	0.576861	0.571666	0.412671
H228	H	0.910195	0.904999	0.746005
H229	H	0.148080	0.272220	-0.000257
H230	H	0.481414	0.605553	0.333076
H231	H	0.814747	0.938886	0.666409
H232	H	0.397781	0.007267	-0.079797
H233	H	0.731115	0.340600	0.253537
H234	H	1.064448	0.673934	0.586870
F235	F	0.635773	-0.044901	-0.000146
F236	F	0.969107	0.288432	0.333188
F237	F	1.302440	0.621766	0.666521
H238	H	0.804309	0.275251	0.428292
H239	H	1.137642	0.608584	0.761626
H240	H	1.470975	0.941918	1.094959
