data_functionalizedCrystal
_audit_creation_method	'MofGen! by Chris Wilmer'
_symmetry_space_group_name_H-M	'P1'
_symmetry_Int_Tables_number	1
_symmetry_cell_setting	triclinic
loop_
_symmetry_equiv_pos_as_xyz
  x,y,z
_cell_length_a	11.169417
_cell_length_b	29.839131
_cell_length_c	11.169409
_cell_angle_alpha	90.047774
_cell_angle_beta	90.019824
_cell_angle_gamma	90.036108
loop_
_atom_site_label
_atom_site_type_symbol
_atom_site_fract_x
_atom_site_fract_y
_atom_site_fract_z
Zn1	Zn	1.834755	-0.178806	0.678414
Zn2	Zn	1.834557	-0.253948	0.477677
Zn3	Zn	1.634041	-0.178834	0.477748
Zn4	Zn	1.633961	-0.253911	0.678322
O5	O	1.734328	-0.216375	0.578040
O6	O	2.002678	-0.188778	0.651794
O7	O	1.807909	-0.244011	0.309736
O8	O	1.660782	-0.115963	0.504436
O9	O	2.002533	-0.243984	0.504314
O10	O	1.808246	-0.115943	0.651864
O11	O	1.660590	-0.188825	0.309789
O12	O	1.466080	-0.188789	0.504346
O13	O	1.660646	-0.243922	0.846284
O14	O	1.466022	-0.243948	0.651707
O15	O	1.808168	-0.188742	0.846352
O16	O	1.807831	-0.316810	0.504224
O17	O	1.660454	-0.316783	0.651637
C18	C	1.422504	-0.216368	0.578025
C19	C	1.289104	-0.216376	0.578047
C20	C	1.734145	-0.333097	0.577939
C21	C	1.734177	-0.383032	0.577936
C22	C	1.811096	-0.692630	0.654915
C23	C	1.811226	-0.880303	0.654988
O24	O	1.876446	-0.904529	0.720363
N25	N	1.734532	-0.903817	0.578173
C26	C	1.657794	-0.880410	0.501341
O27	O	1.592556	-0.904716	0.436016
C28	C	1.657659	-0.692738	0.501276
C29	C	1.734367	-0.669226	0.578087
C30	C	1.887797	-0.669118	0.731721
C31	C	1.887768	-0.622203	0.731697
C32	C	1.811039	-0.598799	0.654869
C33	C	1.734338	-0.622311	0.578063
C34	C	1.580916	-0.669331	0.424451
C35	C	1.580887	-0.622410	0.424444
C36	C	1.657595	-0.598899	0.501254
C37	C	1.657580	-0.551991	0.501211
N38	N	1.734274	-0.528477	0.578025
C39	C	1.811003	-0.551881	0.654854
C40	C	1.657873	-0.978940	0.501379
C41	C	1.657908	-1.025858	0.501394
C42	C	1.811338	-1.025748	0.655042
C43	C	1.811308	-0.978829	0.655020
C44	C	1.734567	-0.955426	0.578193
C45	C	1.810938	-0.453355	0.654798
C46	C	1.810906	-0.406436	0.654765
C47	C	1.657472	-0.406550	0.501121
C48	C	1.657507	-0.453465	0.501150
C49	C	1.734245	-0.476867	0.577998
O50	O	1.592385	-0.527736	0.435879
O51	O	1.876214	-0.527567	0.720188
C52	C	1.811125	-0.739545	0.654939
C53	C	1.734424	-0.763057	0.578134
C54	C	1.657695	-0.739653	0.501305
C55	C	1.734459	-0.809975	0.578148
C56	C	1.811189	-0.833379	0.654977
C57	C	1.887883	-0.809865	0.731791
C58	C	1.887854	-0.762949	0.731768
C59	C	1.581001	-0.763167	0.424491
C60	C	1.581037	-0.810083	0.424519
C61	C	1.657766	-0.833486	0.501348
C62	C	2.047371	-0.216382	0.578056
C63	C	2.180771	-0.216385	0.578063
C64	C	1.734421	-0.216325	0.891083
C65	C	1.734460	-0.216304	1.024483
C66	C	1.734545	-0.099196	0.578168
C67	C	1.734637	-0.049262	0.578222
C68	C	1.734306	-0.216392	0.266215
C69	C	1.734499	-0.216287	0.132816
H70	H	1.873375	-0.387294	0.717313
Cl71	Cl	1.561017	-0.377119	0.404542
Cl72	Cl	1.984266	-0.698532	0.828323
Cl73	Cl	1.907413	-0.482767	0.751405
Cl74	Cl	1.484406	-0.592992	0.327854
Cl75	Cl	1.984344	-0.839296	0.828372
H76	H	1.518574	-0.829222	0.361960
H77	H	1.518517	-0.744115	0.361929
H78	H	1.950226	-0.603062	0.794246
Cl79	Cl	1.907742	-0.949277	0.751588
Cl80	Cl	1.907796	-1.055179	0.751627
H81	H	1.595458	-1.044997	0.438834
Cl82	Cl	1.484472	-0.698877	0.327887
Cl83	Cl	1.561384	-0.949526	0.404789
Cl84	Cl	1.561089	-0.483024	0.404572
H85	H	1.950316	-0.743809	0.794314
