data_functionalizedCrystal
_audit_creation_method	'MofGen! by Chris Wilmer'
_symmetry_space_group_name_H-M	'P1'
_symmetry_Int_Tables_number	1
_symmetry_cell_setting	triclinic
loop_
_symmetry_equiv_pos_as_xyz
  x,y,z
_cell_length_a	18.215407
_cell_length_b	19.805405
_cell_length_c	18.215399
_cell_angle_alpha	89.972077
_cell_angle_beta	89.982632
_cell_angle_gamma	90.024169
loop_
_atom_site_label
_atom_site_type_symbol
_atom_site_fract_x
_atom_site_fract_y
_atom_site_fract_z
Zn1	Zn	1.125063	-0.269516	-0.416068
Zn2	Zn	1.625063	0.230484	0.083932
Zn3	Zn	1.124967	-0.382707	-0.293001
Zn4	Zn	1.624967	0.117293	0.206999
Zn5	Zn	1.001995	-0.269533	-0.293020
Zn6	Zn	1.501995	0.230467	0.206980
Zn7	Zn	1.001957	-0.382664	-0.416032
Zn8	Zn	1.501957	0.117336	0.083968
O9	O	1.063495	-0.326105	-0.354530
O10	O	1.563495	0.173895	0.145470
O11	O	1.228034	-0.284543	-0.399750
O12	O	1.728034	0.215457	0.100250
O13	O	1.108630	-0.367719	-0.190020
O14	O	1.608630	0.132281	0.309980
O15	O	1.018376	-0.174814	-0.309366
O16	O	1.518376	0.325186	0.190634
O17	O	1.227964	-0.367704	-0.309334
O18	O	1.727964	0.132296	0.190666
O19	O	1.108793	-0.174802	-0.399768
O20	O	1.608793	0.325198	0.100232
O21	O	1.018283	-0.284570	-0.190033
O22	O	1.518283	0.215430	0.309967
O23	O	0.899006	-0.284528	-0.309331
O24	O	1.399006	0.215472	0.190669
O25	O	1.018311	-0.367629	-0.519021
O26	O	1.518311	0.132371	-0.019021
O27	O	0.898978	-0.367645	-0.399707
O28	O	1.398978	0.132355	0.100293
O29	O	1.108756	-0.284501	-0.519047
O30	O	1.608756	0.215499	-0.019047
O31	O	1.108593	-0.477418	-0.309299
O32	O	1.608593	0.022582	0.190701
O33	O	1.018219	-0.477386	-0.399688
O34	O	1.518219	0.022614	0.100312
C35	C	0.872289	-0.326084	-0.354517
C36	C	1.372289	0.173916	0.145483
C37	C	0.790490	-0.326092	-0.354529
C38	C	1.290490	0.173908	0.145471
C39	C	1.063412	-0.501961	-0.354504
C40	C	1.563412	-0.001961	0.145496
C41	C	1.063443	-0.577193	-0.354517
C42	C	1.563443	-0.077193	0.145483
C43	C	0.602332	-0.282879	-0.401683
C44	C	1.102332	0.217121	0.098317
C45	C	0.525473	-0.282885	-0.401686
C46	C	1.025473	0.217115	0.098314
C47	C	0.525411	-0.369350	-0.307390
C48	C	1.025411	0.130650	0.192610
C49	C	0.602268	-0.369340	-0.307384
C50	C	1.102268	0.130660	0.192616
C51	C	0.640727	-0.326106	-0.354535
C52	C	1.140727	0.173894	0.145465
C53	C	0.487011	-0.326121	-0.354543
C54	C	0.987011	0.173879	0.145457
C55	C	0.403677	-0.326128	-0.354546
C56	C	0.903677	0.173872	0.145454
C57	C	0.724066	-0.326098	-0.354532
C58	C	1.224066	0.173902	0.145468
C59	C	1.110495	-0.612473	-0.401626
C60	C	1.610495	-0.112473	0.098374
C61	C	1.110522	-0.683161	-0.401640
C62	C	1.610522	-0.183161	0.098360
C63	C	1.063499	-0.718569	-0.354540
C64	C	1.563499	-0.218569	0.145460
C65	C	1.016442	-0.683284	-0.307428
C66	C	1.516442	-0.183284	0.192572
C67	C	1.016412	-0.612597	-0.307419
C68	C	1.516412	-0.112597	0.192581
C69	C	1.016560	-0.968357	-0.307466
C70	C	1.516560	-0.468357	0.192534
C71	C	1.016595	-1.039049	-0.307478
C72	C	1.516595	-0.539049	0.192522
C73	C	1.110670	-1.038921	-0.401687
C74	C	1.610670	-0.538921	0.098313
C75	C	1.110640	-0.968234	-0.401678
C76	C	1.610640	-0.468234	0.098322
C77	C	1.063580	-0.932956	-0.354569
C78	C	1.563580	-0.432956	0.145431
C79	C	1.063551	-0.856307	-0.354556
C80	C	1.563551	-0.356307	0.145444
C81	C	1.063532	-0.795216	-0.354549
C82	C	1.563532	-0.295216	0.145451
C83	C	1.255448	-0.326126	-0.354544
C84	C	1.755448	0.173874	0.145456
C85	C	1.337247	-0.326135	-0.354549
C86	C	1.837247	0.173865	0.145451
C87	C	1.063540	-0.326058	-0.546483
C88	C	1.563540	0.173942	-0.046483
C89	C	1.063559	-0.326038	-0.628282
C90	C	1.563559	0.173962	-0.128282
C91	C	1.063600	-0.149562	-0.354573
C92	C	1.563600	0.350438	0.145427
C93	C	1.063644	-0.074330	-0.354591
C94	C	1.563644	0.425670	0.145409
C95	C	1.110671	-0.282713	-0.816491
C96	C	1.610671	0.217287	-0.316491
C97	C	1.110680	-0.282693	-0.893350
C98	C	1.610680	0.217307	-0.393350
C99	C	1.016500	-0.369259	-0.893311
C100	C	1.516500	0.130741	-0.393311
C101	C	1.016488	-0.369275	-0.816454
C102	C	1.516488	0.130725	-0.316454
C103	C	1.063578	-0.326003	-0.778046
C104	C	1.563578	0.173997	-0.278046
C105	C	1.063598	-0.325967	-0.931762
C106	C	1.563598	0.174033	-0.431762
C107	C	1.063607	-0.325946	-1.015096
C108	C	1.563607	0.174054	-0.515096
C109	C	1.063568	-0.326023	-0.694707
C110	C	1.563568	0.173977	-0.194707
C111	C	1.063493	-0.326103	-0.163324
C112	C	1.563493	0.173897	0.336676
C113	C	1.063617	-0.325932	-0.081525
C114	C	1.563617	0.174068	0.418475
H115	H	0.633642	-0.247672	-0.440074
H116	H	1.133642	0.252328	0.059926
H117	H	1.148986	-1.067654	-0.440047
H118	H	1.648986	-0.567654	0.059953
Br119	Br	0.473368	-0.224214	-0.465673
Br120	Br	0.973368	0.275786	0.034327
Br121	Br	1.174577	-0.223985	-0.764368
Br122	Br	1.674577	0.276015	-0.264368
H123	H	1.148790	-0.583649	-0.439977
H124	H	1.648790	-0.083649	0.060023
Br125	Br	1.174369	-0.731038	-0.465590
Br126	Br	1.674369	-0.231038	0.034410
H127	H	0.978096	-0.583873	-0.269059
H128	H	1.478096	-0.083873	0.230941
Br129	Br	1.174462	-0.920185	-0.465597
Br130	Br	1.674462	-0.420185	0.034403
Br131	Br	1.174601	-0.223944	-0.945523
Br132	Br	1.674601	0.276056	-0.445523
Br133	Br	0.952564	-0.428024	-0.764273
Br134	Br	1.452564	0.071976	-0.264273
H135	H	0.978162	-0.404492	-0.924592
H136	H	1.478162	0.095508	-0.424592
H137	H	0.978300	-1.067876	-0.269122
H138	H	1.478300	-0.567876	0.230878
H139	H	0.978244	-0.939639	-0.269107
H140	H	1.478244	-0.439639	0.230893
Br141	Br	0.654381	-0.428000	-0.243382
Br142	Br	1.154381	0.072000	0.256618
Br143	Br	0.473213	-0.428024	-0.243404
Br144	Br	0.973213	0.071976	0.256596
H145	H	0.978152	-0.712118	-0.269082
H146	H	1.478152	-0.212118	0.230918
