data_functionalizedCrystal
_audit_creation_method	'MofGen! by Chris Wilmer'
_symmetry_space_group_name_H-M	'P1'
_symmetry_Int_Tables_number	1
_symmetry_cell_setting	triclinic
loop_
_symmetry_equiv_pos_as_xyz
  x,y,z
_cell_length_a	15.944551
_cell_length_b	10.654550
_cell_length_c	9.730223
_cell_angle_alpha	90.003749
_cell_angle_beta	89.997716
_cell_angle_gamma	96.008180
loop_
_atom_site_label
_atom_site_type_symbol
_atom_site_fract_x
_atom_site_fract_y
_atom_site_fract_z
O1	O	0.117973	-1.666308	-0.114406
O2	O	0.617973	-1.166308	0.385594
O3	O	0.129213	-1.300684	-0.114384
O4	O	0.629213	-0.800684	0.385616
O5	O	0.001376	-1.493480	-0.114384
O6	O	0.501376	-0.993480	0.385616
O7	O	0.245810	-1.473511	-0.114407
O8	O	0.745810	-0.973511	0.385593
O9	O	0.001379	-1.493478	0.114196
O10	O	0.501379	-0.993478	0.614196
O11	O	0.129216	-1.300681	0.114196
O12	O	0.629216	-0.800681	0.614196
O13	O	0.117976	-1.666305	0.114174
O14	O	0.617976	-1.166305	0.614174
Zn15	Zn	0.123597	-1.483493	0.150477
Zn16	Zn	0.623597	-0.983493	0.650477
Zn17	Zn	0.123592	-1.483496	-0.150687
Zn18	Zn	0.623592	-0.983496	0.349313
O19	O	0.245813	-1.473509	0.114173
O20	O	0.745813	-0.973509	0.614173
C21	C	0.128389	-1.253895	-0.000092
C22	C	0.628389	-0.753895	0.499908
C23	C	0.125920	-1.114484	-0.000083
C24	C	0.625920	-0.614484	0.499917
C25	C	-0.029921	-1.492650	-0.000093
C26	C	0.470079	-0.992650	0.499907
C27	C	-0.123182	-1.490165	-0.000092
C28	C	0.376818	-0.990165	0.499908
C29	C	0.118800	-1.713094	-0.000122
C30	C	0.618800	-1.213094	0.499878
C31	C	0.121269	-1.852505	-0.000140
C32	C	0.621269	-1.352505	0.499860
C33	C	-0.338765	-1.364720	-0.000104
C34	C	0.161235	-0.864720	0.499896
C35	C	-0.399443	-1.422971	0.112596
C36	C	0.100557	-0.922971	0.612596
C37	C	-0.293934	-1.485668	-0.000103
C38	C	0.206066	-0.985668	0.499897
C39	C	-0.399430	-1.423002	-0.112765
C40	C	0.100570	-0.923002	0.387235
C41	C	-0.458872	-1.481317	-0.000119
C42	C	0.041128	-0.981317	0.499881
C43	C	-0.353384	-1.543953	0.112691
C44	C	0.146616	-1.043953	0.612691
C45	C	-0.353364	-1.543967	-0.112772
C46	C	0.146636	-1.043967	0.387228
C47	C	-0.414024	-1.602306	-0.000045
C48	C	0.085976	-1.102306	0.499955
C49	C	-0.198917	-1.488172	-0.000092
C50	C	0.301083	-0.988172	0.499908
C51	C	-0.553887	-1.478822	-0.000119
C52	C	-0.053887	-0.978822	0.499881
C53	C	0.277110	-1.474339	-0.000120
C54	C	0.777110	-0.974339	0.499880
C55	C	0.370371	-1.476824	-0.000130
C56	C	0.870371	-0.976824	0.499870
N57	N	0.123599	-1.483500	0.356013
N58	N	0.623599	-0.983500	0.856013
C59	C	0.201188	-1.034024	-0.000110
C60	C	0.701188	-0.534024	0.499890
C61	C	0.198863	-0.903034	-0.000134
C62	C	0.698863	-0.403034	0.499866
C63	C	0.045995	-0.932975	-0.000108
C64	C	0.545995	-0.432975	0.499892
C65	C	0.048321	-1.063963	-0.000075
C66	C	0.548321	-0.563963	0.499925
C67	C	0.289446	-1.016737	-0.000131
C68	C	0.789446	-0.516737	0.499869
C69	C	0.287121	-0.885746	-0.000154
C70	C	0.787121	-0.385746	0.499846
N71	N	0.123583	-1.483499	-0.356224
N72	N	0.623583	-0.983499	0.143776
C73	C	0.067012	-1.568892	0.427939
C74	C	0.567012	-1.068892	0.927939
C75	C	0.067002	-1.568889	0.571822
C76	C	0.567002	-1.068889	1.071822
C77	C	0.180173	-1.398098	0.571840
C78	C	0.680173	-0.898098	1.071840
C79	C	0.180178	-1.398096	0.427959
C80	C	0.680178	-0.898096	0.927959
C81	C	0.001676	-1.667501	0.427931
C82	C	0.501676	-1.167501	0.927931
C83	C	0.001666	-1.667498	0.571814
C84	C	0.501666	-1.167498	1.071814
H85	H	-0.306038	-1.264327	0.000015
H86	H	0.193962	-0.764327	0.500015
Cl87	Cl	-0.430945	-1.343992	0.259710
Cl88	Cl	0.069055	-0.843992	0.759710
H89	H	-0.062885	-1.646893	0.388884
H90	H	0.437115	-1.146893	0.888884
Cl91	Cl	-0.046306	-1.165109	-0.000009
Cl92	Cl	0.453694	-0.665109	0.499991
H93	H	-0.059344	-1.637774	0.616437
H94	H	0.440656	-1.137774	1.116437
H95	H	-0.446602	-1.702787	0.000013
H96	H	0.053398	-1.202787	0.500013
Cl97	Cl	-0.321826	-1.622883	-0.259894
Cl98	Cl	0.178174	-1.122883	0.240106
Cl99	Cl	0.328304	-0.814687	0.152194
Cl100	Cl	0.828304	-0.314687	0.652194
Cl101	Cl	-0.430908	-1.343989	-0.259857
Cl102	Cl	0.069092	-0.843989	0.240143
H103	H	0.320374	-0.843584	-0.095825
H104	H	0.820374	-0.343584	0.404175
Cl105	Cl	0.251306	-1.290727	0.337536
Cl106	Cl	0.751306	-0.790727	0.837536
H107	H	-0.017184	-0.891824	-0.000123
H108	H	0.482816	-0.391824	0.499877
Cl109	Cl	0.251297	-1.290738	0.662295
Cl110	Cl	0.751297	-0.790738	1.162295
H111	H	0.016057	-1.763823	0.610857
H112	H	0.516057	-1.263823	1.110857
H113	H	0.022134	-1.758420	0.383297
H114	H	0.522134	-1.258420	0.883297
H115	H	-0.333096	-1.595065	0.208074
H116	H	0.166904	-1.095065	0.708074
H117	H	0.323965	-1.045621	0.095532
H118	H	0.823965	-0.545621	0.595532
H119	H	0.317547	-1.052030	-0.098821
H120	H	0.817547	-0.552030	0.401179
