data_functionalizedCrystal
_audit_creation_method	'MofGen! by Chris Wilmer'
_symmetry_space_group_name_H-M	'P1'
_symmetry_Int_Tables_number	1
_symmetry_cell_setting	triclinic
loop_
_symmetry_equiv_pos_as_xyz
  x,y,z
_cell_length_a	10.489746
_cell_length_b	8.559649
_cell_length_c	7.088929
_cell_angle_alpha	84.674985
_cell_angle_beta	83.712230
_cell_angle_gamma	102.840017
loop_
_atom_site_label
_atom_site_type_symbol
_atom_site_fract_x
_atom_site_fract_y
_atom_site_fract_z
O1	O	-0.028523	-2.103400	-0.158956
O2	O	0.471477	-1.603400	0.341044
O3	O	0.037276	-1.638953	-0.158968
O4	O	0.537276	-1.138953	0.341032
O5	O	-0.182335	-1.881742	-0.158947
O6	O	0.317665	-1.381742	0.341053
O7	O	0.191088	-1.860611	-0.158976
O8	O	0.691088	-1.360611	0.341024
O9	O	-0.211742	-1.914187	0.159031
O10	O	0.288258	-1.414187	0.659031
O11	O	0.007868	-1.671399	0.159010
O12	O	0.507868	-1.171399	0.659010
O13	O	-0.057930	-2.135845	0.159022
O14	O	0.442070	-1.635845	0.659022
Cu15	Cu	-0.027716	-1.906584	0.188050
Cu16	Cu	0.472284	-1.406584	0.688050
Cu17	Cu	0.007062	-1.868214	-0.187996
Cu18	Cu	0.507062	-1.368214	0.312004
O19	O	0.161680	-1.893057	0.159001
O20	O	0.661680	-1.393057	0.659001
C21	C	0.027558	-1.595703	0.000020
C22	C	0.527558	-1.095703	0.500020
C23	C	0.042401	-1.418494	0.000016
C24	C	0.542401	-0.918494	0.500016
C25	C	-0.048213	-2.179094	0.000030
C26	C	0.451787	-1.679094	0.500030
C27	C	-0.063054	-2.356303	0.000021
C28	C	0.436946	-1.856303	0.500021
C29	C	-0.244402	-1.896367	0.000041
C30	C	0.255598	-1.396367	0.500041
C31	C	-0.385528	-1.891588	0.000040
C32	C	0.114472	-1.391588	0.500040
C33	C	-0.521819	-1.734278	0.000012
C34	C	-0.021819	-1.234278	0.500012
C35	C	-0.438209	-1.796928	-0.156762
C36	C	0.061791	-1.296928	0.343238
C37	C	-0.467248	-1.828954	0.156740
C38	C	0.032752	-1.328954	0.656740
C39	C	-0.553363	-1.945785	-0.156906
C40	C	-0.053363	-1.445785	0.343094
C41	C	-0.582418	-1.977803	0.156736
C42	C	-0.082418	-1.477803	0.656736
C43	C	-0.498865	-2.040559	-0.000076
C44	C	0.001135	-1.540559	0.499924
C45	C	0.223747	-1.878431	0.000009
C46	C	0.723747	-1.378431	0.500009
C47	C	0.364874	-1.883209	-0.000002
C48	C	0.864874	-1.383209	0.499998
N49	N	-0.052179	-1.933584	0.452540
N50	N	0.447821	-1.433584	0.952540
N51	N	0.031513	-1.841227	-0.452486
N52	N	0.531513	-1.341227	0.047514
H53	H	-0.532887	-1.604758	-0.000147
H54	H	-0.032887	-1.104758	0.499853
H55	H	-0.164693	-1.438627	0.000020
H56	H	0.335307	-0.938627	0.500020
H57	H	0.118244	-1.745509	0.465860
H58	H	0.618244	-1.245509	0.965860
H59	H	-0.488029	-2.170151	-0.000158
H60	H	0.011971	-1.670151	0.499842
H61	H	-0.429438	-1.779578	0.289281
H62	H	0.070562	-1.279578	0.789281
H63	H	-0.644790	-2.054144	0.289289
H64	H	-0.144790	-1.554144	0.789289
H65	H	-0.138908	-2.029320	0.534204
H66	H	0.361092	-1.529320	1.034204
H67	H	-0.375855	-1.720531	-0.289309
H68	H	0.124145	-1.220531	0.210691
H69	H	-0.590988	-1.995074	-0.289598
H70	H	-0.090988	-1.495074	0.210402
H71	H	0.144048	-1.336158	-0.000002
H72	H	0.644048	-0.836158	0.499998
