data_functionalizedCrystal
_audit_creation_method	'MofGen! by Chris Wilmer'
_symmetry_space_group_name_H-M	'P1'
_symmetry_Int_Tables_number	1
_symmetry_cell_setting	triclinic
loop_
_symmetry_equiv_pos_as_xyz
  x,y,z
_cell_length_a	15.021413
_cell_length_b	14.044220
_cell_length_c	14.044220
_cell_angle_alpha	93.188878
_cell_angle_beta	90.003392
_cell_angle_gamma	89.996894
loop_
_atom_site_label
_atom_site_type_symbol
_atom_site_fract_x
_atom_site_fract_y
_atom_site_fract_z
O1	O	0.073941	-1.277172	-0.230155
O2	O	0.573941	-0.777172	0.269845
O3	O	0.073963	-1.000501	-0.221850
O4	O	0.573963	-0.500501	0.278150
O5	O	0.073944	-1.134684	-0.087667
O6	O	0.573944	-0.634684	0.412333
O7	O	0.073961	-1.142989	-0.364338
O8	O	0.573961	-0.642989	0.135662
O9	O	-0.074121	-1.134662	-0.087686
O10	O	0.425879	-0.634662	0.412314
O11	O	-0.074101	-1.000479	-0.221869
O12	O	0.425899	-0.500479	0.278131
O13	O	-0.074123	-1.277151	-0.230174
O14	O	0.425877	-0.777151	0.269826
Zn15	Zn	-0.097620	-1.138811	-0.226024
Zn16	Zn	0.402380	-0.638811	0.273976
Zn17	Zn	0.097460	-1.138840	-0.225999
Zn18	Zn	0.597460	-0.638840	0.274001
O19	O	-0.074104	-1.142968	-0.364357
O20	O	0.425896	-0.642968	0.135643
C21	C	-0.000066	-0.964868	-0.218223
C22	C	0.499934	-0.464868	0.281777
C23	C	-0.000058	-0.858725	-0.207379
C24	C	0.499942	-0.358725	0.292621
C25	C	-0.000092	-1.312783	-0.233800
C26	C	0.499908	-0.812783	0.266200
C27	C	-0.000094	-1.418926	-0.244645
C28	C	0.499906	-0.918926	0.255355
N29	N	-0.230758	-1.138799	-0.226041
N30	N	0.269242	-0.638799	0.273959
C31	C	-0.470432	-1.076740	-0.288055
C32	C	0.029568	-0.576740	0.211945
C33	C	-0.529772	-1.164574	-0.313879
C34	C	-0.029772	-0.664574	0.186121
C35	C	-0.412365	-1.138821	-0.226020
C36	C	0.087635	-0.638821	0.273980
C37	C	-0.529767	-1.051012	-0.200219
C38	C	-0.029767	-0.551012	0.299781
C39	C	-0.587789	-1.138836	-0.226000
C40	C	-0.087789	-0.638836	0.274000
C41	C	-0.470399	-1.226703	-0.251890
C42	C	0.029601	-0.726703	0.248110
C43	C	-0.470388	-1.113081	-0.138188
C44	C	0.029612	-0.613081	0.361812
C45	C	-0.529701	-1.200975	-0.163981
C46	C	-0.029701	-0.700975	0.336019
C47	C	-0.311308	-1.138812	-0.226033
C48	C	0.188692	-0.638812	0.273967
C49	C	-0.688844	-1.138855	-0.225987
C50	C	-0.188844	-0.638855	0.274013
N51	N	0.230598	-1.138859	-0.225975
N52	N	0.730598	-0.638859	0.274025
C53	C	-0.000089	-1.131037	-0.052054
C54	C	0.499911	-0.631037	0.447946
C55	C	-0.000089	-1.120193	0.054088
C56	C	0.499911	-0.620193	0.554088
C57	C	-0.000077	-0.664388	-0.187553
C58	C	0.499923	-0.164388	0.312447
C59	C	-0.000076	-0.613258	-0.264467
C60	C	0.499924	-0.113258	0.235533
C61	C	-0.000086	-0.505122	-0.253435
C62	C	0.499914	-0.005122	0.246565
C63	C	-0.000066	-0.772534	-0.198583
C64	C	0.499934	-0.272534	0.301417
C65	C	-0.000069	-1.146614	-0.399969
C66	C	0.499931	-0.646614	0.100031
C67	C	-0.000063	-1.157459	-0.506112
C68	C	0.499937	-0.657459	-0.006112
C69	C	-0.000074	-1.100366	0.248426
C70	C	0.499926	-0.600366	0.748426
C71	C	-0.000078	-1.177281	0.299556
C72	C	0.499922	-0.677281	0.799556
C73	C	-0.000070	-1.166249	0.407692
C74	C	0.499930	-0.666249	0.907692
C75	C	-0.000082	-1.111397	0.140280
C76	C	0.499918	-0.611397	0.640280
H77	H	-0.555857	-1.186358	-0.388148
H78	H	-0.055857	-0.686358	0.111852
O79	O	-0.000069	-1.002174	0.298014
O80	O	0.499931	-0.502174	0.798014
H81	H	-0.000065	-0.947525	0.243881
H82	H	0.499935	-0.447525	0.743881
O83	O	-0.435958	-1.007277	-0.357609
O84	O	0.064042	-0.507277	0.142391
H85	H	-0.395315	-0.951712	-0.318765
H86	H	0.104685	-0.451712	0.181235
H87	H	-0.000086	-0.626951	-0.113425
H88	H	0.499914	-0.126951	0.386575
H89	H	-0.444430	-1.300991	-0.273792
H90	H	0.055570	-0.800991	0.226208
O91	O	-0.563975	-1.270600	-0.094484
O92	O	-0.063975	-0.770600	0.405516
H93	H	-0.540071	-1.343399	-0.116116
H94	H	-0.040071	-0.843399	0.383884
O95	O	-0.000094	-1.275486	0.249980
O96	O	0.499906	-0.775486	0.749980
H97	H	-0.060453	-1.284163	0.204735
H98	H	0.439547	-0.784163	0.704735
O99	O	-0.435796	-1.084200	-0.039840
O100	O	0.064204	-0.584200	0.460160
H101	H	-0.459529	-1.011243	-0.018588
H102	H	0.040471	-0.511243	0.481412
H103	H	-0.555847	-0.976748	-0.178407
H104	H	-0.055847	-0.476748	0.321593
H105	H	-0.000067	-0.650697	-0.338600
H106	H	0.499933	-0.150697	0.161400
