data_functionalizedCrystal
_audit_creation_method	'MofGen! by Chris Wilmer'
_symmetry_space_group_name_H-M	'P1'
_symmetry_Int_Tables_number	1
_symmetry_cell_setting	triclinic
loop_
_symmetry_equiv_pos_as_xyz
  x,y,z
_cell_length_a	6.817900
_cell_length_b	10.992421
_cell_length_c	17.110486
_cell_angle_alpha	95.147452
_cell_angle_beta	99.060439
_cell_angle_gamma	108.764763
loop_
_atom_site_label
_atom_site_type_symbol
_atom_site_fract_x
_atom_site_fract_y
_atom_site_fract_z
V1	V	-4.003796	-0.177378	-0.246709
O2	O	-3.964021	0.008917	-0.242024
O3	O	-3.982135	-0.352090	-0.245011
O4	O	-3.933214	-0.174477	-0.354313
O5	O	-4.013281	-0.169925	-0.131966
V6	V	-4.486833	-0.155115	-0.232986
O7	O	-4.266119	-0.226213	-0.276811
O8	O	-4.674707	-0.106280	-0.202884
O9	O	-4.285288	0.019596	-0.234684
O10	O	-4.644005	-0.341411	-0.237671
O11	O	-4.594745	-0.162569	-0.347729
O12	O	-4.334209	-0.158017	-0.125383
C13	C	-3.834358	-0.394686	-0.241116
C14	C	-3.897787	-0.537514	-0.240445
C15	C	-3.767873	-0.732809	-0.235034
C16	C	-3.701620	-0.584164	-0.235418
C17	C	-4.001433	-0.576264	-0.166652
C18	C	-4.066019	-0.724808	-0.165870
C19	C	-4.129800	-0.763155	-0.317142
C20	C	-4.060029	-0.614639	-0.318743
C21	C	-3.771953	-0.168122	-0.380540
C22	C	-3.795705	-0.166906	-0.468506
C23	C	-3.989132	-0.172747	-0.513864
C24	C	-4.011437	-0.171603	-0.596517
C25	C	-3.840317	-0.164628	-0.633812
C26	C	-3.646873	-0.158783	-0.588448
C27	C	-3.624566	-0.159917	-0.505796
C28	C	-3.898547	-0.160874	-0.883168
C29	C	-3.920872	-0.159745	-0.965827
C30	C	-4.285434	-0.172563	-0.973889
C31	C	-4.263113	-0.173704	-0.891236
C32	C	-4.069669	-0.167852	-0.845878
C33	C	-3.863114	-0.163463	-0.718298
C34	C	-4.046870	-0.169008	-0.761394
C35	C	-4.096408	0.062186	-0.238577
C36	C	-4.012217	0.205012	-0.239253
C37	C	-4.158813	-0.164376	-0.099151
C38	C	-4.114299	-0.165586	-0.011184
H39	H	-3.677228	-0.753456	-0.178863
O40	O	-4.299477	-0.778959	-0.165680
H41	H	-4.347307	-0.885356	-0.165113
H42	H	-4.146684	-0.546027	-0.167503
H43	H	-3.467044	-0.155129	-0.468863
O44	O	-3.538011	-0.514807	-0.160952
H45	H	-3.490048	-0.408276	-0.160971
H46	H	-3.886796	-0.522116	-0.108686
O47	O	-4.220048	-0.177875	-0.645439
H48	H	-4.335292	-0.182922	-0.605620
O49	O	-4.447662	-0.181195	-0.851006
H50	H	-4.585906	-0.185044	-0.896431
H51	H	-3.723794	-0.157789	-0.748673
H52	H	-4.098463	-0.812585	-0.372979
O53	O	-3.594667	-0.549918	-0.305258
H54	H	-3.431122	-0.481336	-0.282711
H55	H	-3.986586	-0.590658	-0.373339
O56	O	-4.494061	-0.178852	-1.022806
H57	H	-4.480828	-0.176878	-1.086544
H58	H	-4.186192	-0.174683	-0.731024
O59	O	-3.462235	-0.151334	-0.628616
H60	H	-3.421825	-0.062575	-0.657659
O61	O	-4.253567	-0.574630	-0.329665
H62	H	-4.237076	-0.498818	-0.279229
O63	O	-3.689921	-0.154586	-0.834257
H64	H	-3.629326	-0.066828	-0.787970
H65	H	-4.128485	-0.178435	-0.483505
O66	O	-3.953977	-0.748141	-0.088269
H67	H	-4.000300	-0.701859	-0.037223
O68	O	-3.736233	-0.152078	-1.006043
H69	H	-3.597941	-0.148137	-0.960613
H70	H	-4.307917	-0.804266	-0.321010
H71	H	-3.718591	-0.779149	-0.287435
