data_functionalizedCrystal
_audit_creation_method	'MofGen! by Chris Wilmer'
_symmetry_space_group_name_H-M	'P1'
_symmetry_Int_Tables_number	1
_symmetry_cell_setting	triclinic
loop_
_symmetry_equiv_pos_as_xyz
  x,y,z
_cell_length_a	16.959453
_cell_length_b	16.959455
_cell_length_c	12.759393
_cell_angle_alpha	90.022525
_cell_angle_beta	89.965525
_cell_angle_gamma	89.982504
loop_
_atom_site_label
_atom_site_type_symbol
_atom_site_fract_x
_atom_site_fract_y
_atom_site_fract_z
Zn1	Zn	-0.314754	-1.208426	-0.594035
Zn2	Zn	-0.446953	-1.208326	-0.418343
Zn3	Zn	-0.314780	-1.076238	-0.418366
Zn4	Zn	-0.446882	-1.076213	-0.593976
O5	O	-0.380842	-1.142301	-0.506180
O6	O	-0.332309	-1.319024	-0.570745
O7	O	-0.429460	-1.190772	-0.271325
O8	O	-0.204166	-1.093825	-0.441703
O9	O	-0.429435	-1.318950	-0.441665
O10	O	-0.204146	-1.190943	-0.570767
O11	O	-0.332354	-1.093728	-0.271342
O12	O	-0.332285	-0.965624	-0.441645
O13	O	-0.429314	-1.093783	-0.741005
O14	O	-0.429340	-0.965606	-0.570665
O15	O	-0.332240	-1.190920	-0.741049
O16	O	-0.557554	-1.190748	-0.441607
O17	O	-0.557502	-1.093686	-0.570643
C18	C	-0.380808	-0.936934	-0.506152
C19	C	-0.380813	-0.849078	-0.506164
C20	C	-0.586208	-1.142225	-0.506139
C21	C	-0.674065	-1.142265	-0.506157
C22	C	-0.715417	-1.091761	-0.438912
C23	C	-0.715266	-1.192802	-0.573425
C24	C	-0.797812	-1.192839	-0.573448
C25	C	-0.839164	-1.142335	-0.506203
C26	C	-0.797971	-1.091795	-0.438935
C27	C	-0.839012	-1.243373	-0.640722
C28	C	-0.921563	-1.243411	-0.640749
C29	C	-0.962916	-1.192911	-0.573497
C30	C	-0.921718	-1.142369	-0.506226
C31	C	-0.963070	-1.091866	-0.438980
C32	C	-0.921873	-1.041327	-0.371703
C33	C	-0.839325	-1.041295	-0.371683
C34	C	-1.045465	-1.192943	-0.573517
C35	C	-1.045624	-1.091899	-0.439003
C36	C	-0.330239	-0.477587	-0.439126
C37	C	-0.431460	-0.477617	-0.573267
C38	C	-0.431451	-0.560163	-0.573262
C39	C	-0.380837	-0.601425	-0.506187
C40	C	-0.330231	-0.560141	-0.439117
C41	C	-0.482062	-0.601453	-0.640323
C42	C	-0.482057	-0.684004	-0.640321
C43	C	-0.431438	-0.725268	-0.573250
C44	C	-0.380829	-0.683978	-0.506178
C45	C	-0.330215	-0.725240	-0.439103
C46	C	-0.279601	-0.683952	-0.372036
C47	C	-0.279612	-0.601404	-0.372046
C48	C	-0.431427	-0.807816	-0.573239
C49	C	-0.330207	-0.807794	-0.439094
C50	C	-0.174674	-1.142398	-0.506244
C51	C	-0.086817	-1.142440	-0.506271
C52	C	-0.380766	-1.142360	-0.780214
C53	C	-0.380734	-1.142385	-0.896990
C54	C	-0.380867	-0.348469	-0.506204
C55	C	-0.380853	-0.436325	-0.506201
C56	C	-0.330179	-1.192968	-0.951877
C57	C	-0.330145	-1.192981	-1.061601
C58	C	-0.431227	-1.091827	-1.061542
C59	C	-0.431257	-1.091810	-0.951820
C60	C	-0.380861	-1.142287	-0.233213
C61	C	-0.380670	-1.142415	-0.116437
H62	H	-1.079287	-1.050775	-0.384240
C63	C	-0.967371	-0.985806	-0.297694
N64	N	-1.001644	-0.944001	-0.241936
C65	C	-1.090778	-1.248531	-0.647519
N66	N	-1.124907	-1.290405	-0.703259
H67	H	-0.472363	-1.050652	-1.106198
C68	C	-0.223924	-0.729351	-0.298260
N69	N	-0.181987	-0.763549	-0.242696
C70	C	-0.794002	-0.985701	-0.297693
N71	N	-0.759861	-0.943825	-0.241969
H72	H	-0.955098	-1.284565	-0.695528
H73	H	-0.288985	-0.841383	-0.384479
H74	H	-0.288977	-1.234169	-1.106285
H75	H	-0.238406	-0.567780	-0.317442
C76	C	-0.274566	-0.432171	-0.365356
N77	N	-0.232633	-0.397962	-0.309791
H78	H	-0.681873	-1.050616	-0.384132
H79	H	-0.472672	-0.444017	-0.627870
C80	C	-0.669776	-1.248353	-0.647390
N81	N	-0.635509	-1.290198	-0.703101
H82	H	-0.805340	-1.284488	-0.695477
C83	C	-0.537737	-0.556061	-0.714097
N84	N	-0.579671	-0.521867	-0.769668
C85	C	-0.537729	-0.729413	-0.714099
N86	N	-0.579661	-0.763616	-0.769672
C87	C	-0.487098	-0.853229	-0.647009
N88	N	-0.529031	-0.887433	-0.702579
C89	C	-0.274596	-1.248594	-0.891568
N90	N	-0.232726	-1.290491	-0.846146
H91	H	-0.472424	-1.050614	-0.907130
