data_functionalizedCrystal
_audit_creation_method	'MofGen! by Chris Wilmer'
_symmetry_space_group_name_H-M	'P1'
_symmetry_Int_Tables_number	1
_symmetry_cell_setting	triclinic
loop_
_symmetry_equiv_pos_as_xyz
  x,y,z
_cell_length_a	13.897449
_cell_length_b	29.839131
_cell_length_c	13.897441
_cell_angle_alpha	89.964857
_cell_angle_beta	89.976606
_cell_angle_gamma	90.042247
loop_
_atom_site_label
_atom_site_type_symbol
_atom_site_fract_x
_atom_site_fract_y
_atom_site_fract_z
Zn1	Zn	1.474544	-0.178829	-0.545419
Zn2	Zn	1.974544	0.321171	-0.045419
Zn3	Zn	1.474371	-0.253964	-0.384108
Zn4	Zn	1.974371	0.246036	0.115892
Zn5	Zn	1.313233	-0.178850	-0.384130
Zn6	Zn	1.813233	0.321150	0.115870
Zn7	Zn	1.313148	-0.253934	-0.545353
Zn8	Zn	1.813148	0.246066	-0.045353
O9	O	1.393824	-0.216394	-0.464752
O10	O	1.893824	0.283606	0.035248
O11	O	1.609502	-0.188800	-0.524039
O12	O	2.109502	0.311200	-0.024039
O13	O	1.452959	-0.244021	-0.249129
O14	O	1.952959	0.255979	0.250871
O15	O	1.334739	-0.115980	-0.405562
O16	O	1.834739	0.384020	0.094438
O17	O	1.609375	-0.244001	-0.405524
O18	O	2.109375	0.255999	0.094476
O19	O	1.453253	-0.115965	-0.524061
O20	O	1.953253	0.384035	-0.024061
O21	O	1.334571	-0.188835	-0.249145
O22	O	1.834571	0.311165	0.250855
O23	O	1.178240	-0.188806	-0.405498
O24	O	1.678240	0.311194	0.094502
O25	O	1.334594	-0.243950	-0.680343
O26	O	1.834594	0.256050	-0.180343
O27	O	1.178177	-0.243970	-0.523948
O28	O	1.678177	0.256030	-0.023948
O29	O	1.453171	-0.188771	-0.680392
O30	O	1.953171	0.311229	-0.180392
O31	O	1.452876	-0.316827	-0.405460
O32	O	1.952876	0.183173	0.094540
O33	O	1.334426	-0.316805	-0.523926
O34	O	1.834426	0.183195	-0.023926
C35	C	1.143209	-0.216387	-0.464719
C36	C	1.643209	0.283613	0.035281
C37	C	1.035995	-0.216395	-0.464727
C38	C	1.535995	0.283605	0.035273
C39	C	0.948926	-0.216397	-0.464743
C40	C	1.448926	0.283603	0.035257
C41	C	0.839693	-0.216400	-0.464773
C42	C	1.339693	0.283600	0.035227
C43	C	1.393650	-0.333117	-0.464705
C44	C	1.893650	0.166883	0.035295
C45	C	1.393663	-0.383051	-0.464716
C46	C	1.893663	0.116949	0.035284
C47	C	1.455613	-0.692693	-0.403157
C48	C	1.955613	-0.192693	0.096843
C49	C	1.455732	-0.880366	-0.403195
C50	C	1.955732	-0.380366	0.096805
O51	O	1.508265	-0.904630	-0.350818
O52	O	2.008265	-0.404630	0.149182
N53	N	1.394024	-0.903836	-0.464825
N54	N	1.894024	-0.403836	0.035175
C55	C	1.332286	-0.880385	-0.526455
C56	C	1.832286	-0.380385	-0.026455
O57	O	1.279809	-0.904654	-0.578884
O58	O	1.779809	-0.404654	-0.078884
C59	C	1.332172	-0.692713	-0.526422
C60	C	1.832172	-0.192713	-0.026422
C61	C	1.393878	-0.669245	-0.464780
C62	C	1.893878	-0.169245	0.035220
C63	C	1.517314	-0.669226	-0.341522
C64	C	2.017314	-0.169226	0.158478
C65	C	1.517280	-0.622311	-0.341509
C66	C	2.017280	-0.122311	0.158491
C67	C	1.455545	-0.598863	-0.403132
C68	C	1.955545	-0.098863	0.096868
C69	C	1.393844	-0.622330	-0.464768
C70	C	1.893844	-0.122330	0.035232
C71	C	1.270440	-0.669262	-0.588056
C72	C	1.770440	-0.169262	-0.088056
C73	C	1.270419	-0.622341	-0.588044
C74	C	1.770419	-0.122341	-0.088044
C75	C	1.332124	-0.598874	-0.526403
C76	C	1.832124	-0.098874	-0.026403
C77	C	1.332074	-0.551966	-0.526379
C78	C	1.832074	-0.051966	-0.026379
N79	N	1.393783	-0.528497	-0.464748
N80	N	1.893783	-0.028497	0.035252
C81	C	1.455518	-0.551945	-0.403125
C82	C	1.955518	-0.051945	0.096875
C83	C	1.332349	-0.978915	-0.526467
C84	C	1.832349	-0.478915	-0.026467
C85	C	1.332376	-1.025833	-0.526474
C86	C	1.832376	-0.525833	-0.026474
C87	C	1.455823	-1.025812	-0.403215
C88	C	1.955823	-0.525812	0.096785
C89	C	1.455790	-0.978893	-0.403203
C90	C	1.955790	-0.478893	0.096797
C91	C	1.394057	-0.955446	-0.464836
C92	C	1.894057	-0.455446	0.035164
C93	C	1.455441	-0.453419	-0.403103
C94	C	1.955441	0.046581	0.096897
C95	C	1.455398	-0.406499	-0.403093
C96	C	1.955398	0.093501	0.096907
C97	C	1.331955	-0.406525	-0.526356
C98	C	1.831955	0.093475	-0.026356
C99	C	1.331993	-0.453441	-0.526362
C100	C	1.831993	0.046559	-0.026362
C101	C	1.393744	-0.476886	-0.464733
C102	C	1.893744	0.023114	0.035267
O103	O	1.279576	-0.527674	-0.578735
O104	O	1.779576	-0.027674	-0.078735
O105	O	1.508002	-0.527668	-0.350720
O106	O	2.008002	-0.027668	0.149280
C107	C	1.455647	-0.739609	-0.403170
C108	C	1.955647	-0.239609	0.096830
C109	C	1.393946	-0.763076	-0.464805
C110	C	1.893946	-0.263076	0.035195
C111	C	1.332211	-0.739628	-0.526429
C112	C	1.832211	-0.239628	-0.026429
C113	C	1.393973	-0.809994	-0.464813
C114	C	1.893973	-0.309994	0.035187
C115	C	1.455708	-0.833442	-0.403189
C116	C	1.955708	-0.333442	0.096811
C117	C	1.517416	-0.809972	-0.341559
C118	C	2.017416	-0.309972	0.158441
C119	C	1.517382	-0.763057	-0.341547
C120	C	2.017382	-0.263057	0.158453
C121	C	1.270503	-0.763098	-0.588059
C122	C	1.770503	-0.263098	-0.088059
C123	C	1.270541	-0.810013	-0.588066
C124	C	1.770541	-0.310013	-0.088066
C125	C	1.332276	-0.833462	-0.526442
C126	C	1.832276	-0.333462	-0.026442
C127	C	1.645417	-0.216401	-0.464787
C128	C	2.145417	0.283599	0.035213
C129	C	1.752631	-0.216405	-0.464801
C130	C	2.252631	0.283595	0.035199
C131	C	1.393892	-0.216355	-0.716346
C132	C	1.893892	0.283645	-0.216346
C133	C	1.393921	-0.216338	-0.823560
C134	C	1.893921	0.283662	-0.323560
C135	C	1.394025	-0.099216	-0.464822
C136	C	1.894025	0.400784	0.035178
C137	C	1.394111	-0.049281	-0.464851
C138	C	1.894111	0.450719	0.035149
C139	C	1.393948	-0.216307	-1.019855
C140	C	1.893948	0.283693	-0.519855
C141	C	1.393930	-0.216325	-0.910622
C142	C	1.893930	0.283675	-0.410622
C143	C	1.393811	-0.216401	-0.214138
C144	C	1.893811	0.283599	0.285862
C145	C	1.393969	-0.216292	-0.106925
C146	C	1.893969	0.283708	0.393075
H147	H	1.505646	-0.387394	-0.352894
H148	H	2.005646	0.112606	0.147106
O149	O	1.515957	-1.048530	-0.343406
O150	O	2.015957	-0.548530	0.156594
C151	C	1.612058	-1.037005	-0.364636
C152	C	2.112058	-0.537005	0.135364
H153	H	1.613971	-1.002929	-0.401724
H154	H	2.113971	-0.502929	0.098276
H155	H	1.655375	-1.035389	-0.295081
H156	H	2.155375	-0.535389	0.204919
H157	H	1.644537	-1.063377	-0.414270
H158	H	2.144537	-0.563377	0.085730
O159	O	1.210480	-0.740274	-0.647785
O160	O	1.710480	-0.240274	-0.147785
C161	C	1.148171	-0.713195	-0.592799
C162	C	1.648171	-0.213195	-0.092799
H163	H	1.182230	-0.706170	-0.519733
H164	H	1.682230	-0.206170	-0.019733
H165	H	1.135187	-0.680198	-0.632071
H166	H	1.635187	-0.180198	-0.132071
H167	H	1.076713	-0.731320	-0.582129
H168	H	1.576713	-0.231320	-0.082129
O169	O	1.272131	-0.383721	-0.586319
O170	O	1.772131	0.116279	-0.086319
C171	C	1.327016	-0.356527	-0.648635
C172	C	1.827016	0.143473	-0.148635
H173	H	1.402988	-0.370634	-0.654660
H174	H	1.902988	0.129366	-0.154660
H175	H	1.292100	-0.355980	-0.722839
H176	H	1.792100	0.144020	-0.222839
H177	H	1.330341	-0.320979	-0.618797
H178	H	1.830341	0.179021	-0.118797
H179	H	1.220189	-0.688361	-0.638247
H180	H	1.720189	-0.188361	-0.138247
O181	O	1.577286	-0.832740	-0.281571
O182	O	2.077286	-0.332740	0.218429
C183	C	1.556289	-0.821323	-0.185400
C184	C	2.056289	-0.321323	0.314600
H185	H	1.479231	-0.808458	-0.180429
H186	H	1.979231	-0.308458	0.319571
H187	H	1.564639	-0.852199	-0.137785
H188	H	2.064639	-0.352199	0.362215
H189	H	1.608016	-0.794082	-0.160218
H190	H	2.108016	-0.294082	0.339782
H191	H	1.282120	-1.044936	-0.576660
H192	H	1.782120	-0.544936	-0.076660
O193	O	1.272278	-0.956212	-0.586365
O194	O	1.772278	-0.456212	-0.086365
C195	C	1.217840	-0.986993	-0.640769
C196	C	1.717840	-0.486993	-0.140769
H197	H	1.214557	-1.020450	-0.601255
H198	H	1.714557	-0.520450	-0.101255
H199	H	1.141822	-0.973475	-0.650978
H200	H	1.641822	-0.473475	-0.150978
H201	H	1.253120	-0.991943	-0.714065
H202	H	1.753120	-0.491943	-0.214065
O203	O	1.210564	-0.832737	-0.648039
O204	O	1.710564	-0.332737	-0.148039
C205	C	1.156057	-0.801975	-0.702406
C206	C	1.656057	-0.301975	-0.202406
H207	H	1.195544	-0.768510	-0.705760
H208	H	1.695544	-0.268510	-0.205760
H209	H	1.145743	-0.815505	-0.778404
H210	H	1.645743	-0.315505	-0.278404
H211	H	1.082811	-0.797034	-0.667018
H212	H	1.582811	-0.297034	-0.167018
H213	H	1.220149	-0.603253	-0.638236
H214	H	1.720149	-0.103253	-0.138236
O215	O	1.272021	-0.476170	-0.586327
O216	O	1.772021	0.023830	-0.086327
C217	C	1.217505	-0.445411	-0.640693
C218	C	1.717505	0.054589	-0.140693
H219	H	1.256984	-0.411944	-0.644051
H220	H	1.756984	0.088056	-0.144051
H221	H	1.207191	-0.458942	-0.716690
H222	H	1.707191	0.041058	-0.216690
H223	H	1.144259	-0.440474	-0.605303
H224	H	1.644259	0.059526	-0.105303
H225	H	1.567628	-0.743953	-0.291353
H226	H	2.067628	-0.243953	0.208647
H227	H	1.567528	-0.603206	-0.291318
H228	H	2.067528	-0.103206	0.208682
O229	O	1.515561	-0.476136	-0.343281
O230	O	2.015561	0.023864	0.156719
C231	C	1.611675	-0.464617	-0.364471
C232	C	2.111675	0.035383	0.135529
H233	H	1.613613	-0.430541	-0.401561
H234	H	2.113613	0.069459	0.098439
H235	H	1.654962	-0.463001	-0.294896
H236	H	2.154962	0.036999	0.205104
H237	H	1.644169	-0.490991	-0.414087
H238	H	2.144169	0.009009	0.085913
O239	O	1.577317	-0.691930	-0.281562
O240	O	2.077317	-0.191930	0.218438
C241	C	1.631779	-0.661147	-0.227187
C242	C	2.131779	-0.161147	0.272813
H243	H	1.592243	-0.627724	-0.223823
H244	H	2.092243	-0.127724	0.276177
H245	H	1.642114	-0.674715	-0.151193
H246	H	2.142114	-0.174715	0.348807
H247	H	1.705017	-0.656110	-0.262574
H248	H	2.205017	-0.156110	0.237426
O249	O	1.515686	-0.956148	-0.343196
O250	O	2.015686	-0.456148	0.156804
C251	C	1.494644	-0.967646	-0.247041
C252	C	1.994644	-0.467646	0.252959
H253	H	1.457578	-1.001728	-0.245016
H254	H	1.957578	-0.501728	0.254984
H255	H	1.564283	-0.969237	-0.203854
H256	H	2.064283	-0.469237	0.296146
H257	H	1.445060	-0.941272	-0.214499
H258	H	1.945060	-0.441272	0.285501
