data_functionalizedCrystal
_audit_creation_method	'MofGen! by Chris Wilmer'
_symmetry_space_group_name_H-M	'P1'
_symmetry_Int_Tables_number	1
_symmetry_cell_setting	triclinic
loop_
_symmetry_equiv_pos_as_xyz
  x,y,z
_cell_length_a	18.366186
_cell_length_b	19.288864
_cell_length_c	19.288865
_cell_angle_alpha	96.863755
_cell_angle_beta	89.988521
_cell_angle_gamma	90.022894
loop_
_atom_site_label
_atom_site_type_symbol
_atom_site_fract_x
_atom_site_fract_y
_atom_site_fract_z
O1	O	-0.060791	-0.921353	0.086649
O2	O	0.439209	-0.421353	0.586649
O3	O	-0.060743	-0.719092	0.098337
O4	O	0.439257	-0.219092	0.598337
O5	O	-0.060754	-0.826067	-0.008637
O6	O	0.439246	-0.326067	0.491363
O7	O	-0.060780	-0.814378	0.193623
O8	O	0.439220	-0.314378	0.693623
O9	O	0.060345	-0.826049	-0.008643
O10	O	0.560345	-0.326049	0.491357
O11	O	0.060357	-0.719074	0.098332
O12	O	0.560357	-0.219074	0.598332
O13	O	0.060308	-0.921335	0.086643
O14	O	0.560308	-0.421335	0.586643
Zn15	Zn	0.079559	-0.820201	0.092487
Zn16	Zn	0.579559	-0.320201	0.592487
Zn17	Zn	-0.079994	-0.820225	0.092494
Zn18	Zn	0.420006	-0.320225	0.592494
O19	O	0.060319	-0.814360	0.193618
O20	O	0.560319	-0.314360	0.693618
C21	C	-0.000187	-0.693207	0.097959
C22	C	0.499813	-0.193207	0.597959
C23	C	-0.000167	-0.616103	0.096830
C24	C	0.499833	-0.116103	0.596830
N25	N	0.188451	-0.820190	0.092482
N26	N	0.688451	-0.320190	0.592482
C27	C	-0.000202	-0.825682	-0.034516
C28	C	0.499798	-0.325682	0.465484
C29	C	-0.000195	-0.824553	-0.111620
C30	C	0.499805	-0.324553	0.388380
N31	N	-0.188885	-0.820242	0.092493
N32	N	0.311115	-0.320242	0.592493
C33	C	0.226546	-0.867574	0.045137
C34	C	0.726546	-0.367574	0.545137
C35	C	0.302774	-0.867578	0.045134
C36	C	0.802774	-0.367578	0.545134
C37	C	0.340903	-0.820206	0.092488
C38	C	0.840903	-0.320206	0.592488
C39	C	0.302799	-0.772813	0.139836
C40	C	0.802799	-0.272813	0.639836
C41	C	0.226572	-0.772805	0.139834
C42	C	0.726572	-0.272805	0.639834
C43	C	0.461657	-0.810907	0.155775
C44	C	0.961657	-0.310907	0.655775
C45	C	0.537882	-0.810920	0.155779
C46	C	1.037882	-0.310920	0.655779
C47	C	0.576011	-0.820225	0.092496
C48	C	1.076011	-0.320225	0.592496
C49	C	0.537905	-0.829533	0.029207
C50	C	1.037905	-0.329533	0.529207
C51	C	0.461679	-0.829525	0.029204
C52	C	0.961679	-0.329525	0.529204
C53	C	0.423558	-0.820208	0.092496
C54	C	0.923558	-0.320208	0.592496
C55	C	0.696761	-0.867617	0.045144
C56	C	1.196761	-0.367617	0.545144
C57	C	0.772990	-0.867616	0.045140
C58	C	1.272990	-0.367616	0.545140
C59	C	0.773014	-0.772854	0.139849
C60	C	1.273014	-0.272854	0.639849
C61	C	0.696786	-0.772851	0.139847
C62	C	1.196786	-0.272851	0.639847
C63	C	0.658664	-0.820236	0.092495
C64	C	1.158664	-0.320236	0.592495
C65	C	-0.000250	-0.947220	0.087022
C66	C	0.499750	-0.447220	0.587022
C67	C	-0.000274	-1.024324	0.088151
C68	C	0.499726	-0.524324	0.588151
C69	C	-0.000187	-0.571407	0.159598
C70	C	0.499813	-0.071407	0.659598
C71	C	-0.000195	-0.498960	0.158537
C72	C	0.499805	0.001040	0.658537
C73	C	-0.000198	-0.471212	0.094705
C74	C	0.499802	0.028788	0.594705
C75	C	-0.000174	-0.515918	0.031929
C76	C	0.499826	-0.015918	0.531929
C77	C	-0.000159	-0.588364	0.032991
C78	C	0.499841	-0.088364	0.532991
C79	C	-0.042642	-0.362956	0.044527
C80	C	0.457358	0.137044	0.544527
C81	C	-0.042662	-0.290512	0.043468
C82	C	0.457338	0.209488	0.543468
C83	C	-0.000241	-0.247767	0.091425
C84	C	0.499759	0.252233	0.591425
C85	C	0.042189	-0.277473	0.140454
C86	C	0.542189	0.222527	0.640454
C87	C	0.042205	-0.349918	0.141517
C88	C	0.542205	0.150082	0.641517
C89	C	-0.000214	-0.392658	0.093546
C90	C	0.499786	0.107342	0.593546
C91	C	-0.000269	-0.124514	0.153047
C92	C	0.499731	0.375486	0.653047
C93	C	-0.000272	-0.052066	0.151984
C94	C	0.499728	0.447934	0.651984
C95	C	-0.000259	-0.069026	0.025374
C96	C	0.499741	0.430974	0.525374
C97	C	-0.000248	-0.141473	0.026439
C98	C	0.499752	0.358527	0.526439
C99	C	-0.000256	-0.169212	0.090278
C100	C	0.499744	0.330788	0.590278
C101	C	-0.000207	-0.887321	-0.156316
C102	C	0.499793	-0.387321	0.343684
C103	C	-0.000218	-0.886260	-0.228763
C104	C	0.499782	-0.386260	0.271237
C105	C	-0.000203	-0.822428	-0.256511
C106	C	0.499797	-0.322428	0.243489
C107	C	-0.000196	-0.759652	-0.211805
C108	C	0.499804	-0.259652	0.288195
C109	C	-0.000192	-0.760714	-0.139359
C110	C	0.499808	-0.260714	0.360641
C111	C	0.042227	-0.772242	-0.364800
C112	C	0.542227	-0.272242	0.135200
C113	C	0.042228	-0.771182	-0.437245
C114	C	0.542228	-0.271182	0.062755
C115	C	-0.000219	-0.819148	-0.479956
C116	C	0.499781	-0.319148	0.020044
C117	C	-0.042657	-0.868186	-0.450216
C118	C	0.457343	-0.368186	0.049784
C119	C	-0.042653	-0.869248	-0.377771
C120	C	0.457347	-0.369248	0.122229
C121	C	-0.000208	-0.821269	-0.335065
C122	C	0.499792	-0.321269	0.164935
C123	C	-0.000244	-0.880770	-0.603209
C124	C	0.499756	-0.380770	-0.103209
C125	C	-0.000259	-0.879707	-0.675657
C126	C	0.499741	-0.379707	-0.175657
C127	C	-0.000230	-0.753097	-0.658697
C128	C	0.499770	-0.253097	-0.158697
C129	C	-0.000221	-0.754162	-0.586250
C130	C	0.499779	-0.254162	-0.086250
C131	C	-0.000225	-0.818001	-0.558511
C132	C	0.499775	-0.318001	-0.058511
C133	C	-0.000234	-0.814745	0.219497
C134	C	0.499766	-0.314745	0.719497
C135	C	-0.000246	-0.815874	0.296601
C136	C	0.499754	-0.315874	0.796601
H137	H	0.195509	-0.906156	0.006579
H138	H	0.695509	-0.406156	0.506579
H139	H	-0.000231	-0.937375	-0.265162
H140	H	0.499769	-0.437375	0.234838
N141	N	0.814076	-0.918735	-0.005924
N142	N	1.314076	-0.418735	0.494076
H143	H	0.845724	-0.892306	-0.036621
H144	H	1.345724	-0.392306	0.463379
H145	H	0.778305	-0.948736	-0.035865
H146	H	1.278305	-0.448736	0.464135
N147	N	-0.000250	-0.949621	-0.573286
N148	N	0.499750	-0.449621	-0.073286
H149	H	0.044648	-0.952875	-0.543623
H150	H	0.544648	-0.452875	-0.043623
H151	H	-0.000291	-0.989182	-0.612638
H152	H	0.499709	-0.489182	-0.112638
N153	N	0.814128	-0.721752	0.190920
N154	N	1.314128	-0.221752	0.690920
H155	H	0.868198	-0.728945	0.183737
H156	H	1.368198	-0.228945	0.683737
H157	H	0.800789	-0.729616	0.240175
H158	H	1.300789	-0.229616	0.740175
H159	H	0.333848	-0.734240	0.178392
H160	H	0.833848	-0.234240	0.678392
H161	H	0.195554	-0.734219	0.178388
H162	H	0.695554	-0.234219	0.678388
N163	N	-0.000201	-0.601326	0.228449
N164	N	0.499799	-0.101326	0.728449
H165	H	-0.000217	-0.562013	0.268051
H166	H	0.499783	-0.062013	0.768051
H167	H	0.044696	-0.630990	0.231653
H168	H	0.544696	-0.130990	0.731653
N169	N	0.655653	-0.918709	-0.005949
N170	N	1.155653	-0.418709	0.494051
H171	H	0.624053	-0.892255	-0.036634
H172	H	1.124053	-0.392255	0.463366
H173	H	0.624041	-0.949375	0.020547
H174	H	1.124041	-0.449375	0.520547
H175	H	0.076779	-0.731250	-0.461452
H176	H	0.576779	-0.231250	0.038548
N177	N	-0.000226	-0.956177	-0.126407
N178	N	0.499774	-0.456177	0.373593
H179	H	-0.045119	-0.959447	-0.096721
H180	H	0.454881	-0.459447	0.403279
H181	H	0.044694	-0.959399	-0.096770
H182	H	0.544694	-0.459399	0.403230
N183	N	-0.088427	-0.922130	-0.345694
N184	N	0.411573	-0.422130	0.154306
H185	H	-0.081980	-0.915523	-0.293321
H186	H	0.418020	-0.415523	0.206679
H187	H	-0.072576	-0.970790	-0.364903
H188	H	0.427424	-0.470790	0.135097
N189	N	-0.088440	-0.919928	-0.496273
N190	N	0.411560	-0.419928	0.003727
H191	H	-0.082008	-0.911814	-0.546680
H192	H	0.417992	-0.411814	-0.046680
H193	H	-0.141357	-0.913629	-0.482725
H194	H	0.358643	-0.413629	0.017275
H195	H	0.076733	-0.242671	0.179506
H196	H	0.576733	0.257329	0.679506
N197	N	-0.000169	-0.485996	-0.036920
N198	N	0.499831	0.014004	0.463080
H199	H	-0.000182	-0.433319	-0.028069
H200	H	0.499818	0.066681	0.471931
H201	H	-0.045053	-0.502387	-0.064380
H202	H	0.454947	-0.002387	0.435620
H203	H	0.333797	-0.906165	0.006578
H204	H	0.833797	-0.406165	0.506578
N205	N	-0.000224	-0.450744	0.226242
N206	N	0.499776	0.049256	0.726242
H207	H	-0.045124	-0.420337	0.228616
H208	H	0.454876	0.079663	0.728616
H209	H	0.044689	-0.420326	0.228586
H210	H	0.544689	0.079674	0.728586
N211	N	0.420578	-0.839561	-0.039051
N212	N	0.920578	-0.339561	0.460949
H213	H	0.456294	-0.845458	-0.079143
H214	H	0.956294	-0.345458	0.420857
H215	H	0.388976	-0.797376	-0.042999
H216	H	0.888976	-0.297376	0.457001
H217	H	0.076756	-0.374102	0.181436
H218	H	0.576756	0.125898	0.681436
H219	H	-0.000284	-0.015674	0.203099
H220	H	0.499716	0.484326	0.703099
N221	N	-0.000275	-0.947410	-0.723869
N222	N	0.499725	-0.447410	-0.223869
H223	H	-0.000274	-0.988009	-0.695300
H224	H	0.499726	-0.488009	-0.195300
H225	H	0.044615	-0.949714	-0.754308
H226	H	0.544615	-0.449714	-0.254308
H227	H	-0.000265	-0.147101	0.205028
H228	H	0.499735	0.352899	0.705028
N229	N	-0.000134	-0.636577	-0.034711
N230	N	0.499866	-0.136577	0.465289
H231	H	-0.000134	-0.608010	-0.075312
H232	H	0.499866	-0.108010	0.424688
H233	H	-0.045021	-0.667030	-0.037028
H234	H	0.454979	-0.167030	0.462972
H235	H	0.568948	-0.837110	-0.022324
H236	H	1.068948	-0.337110	0.477676
H237	H	0.665767	-0.734269	0.178402
H238	H	1.165767	-0.234269	0.678402
N239	N	0.420535	-0.800872	0.224035
N240	N	0.920535	-0.300872	0.724035
H241	H	0.456239	-0.794985	0.264127
H242	H	0.956239	-0.294985	0.764127
H243	H	0.388887	-0.843052	0.227978
H244	H	0.888887	-0.343052	0.727978
H245	H	-0.000306	-0.046435	-0.026600
H246	H	0.499694	0.453565	0.473400
H247	H	0.076796	-0.733180	-0.330029
H248	H	0.576796	-0.233180	0.169971
N249	N	-0.088420	-0.258474	-0.009413
N250	N	0.411580	0.241526	0.490587
H251	H	-0.124716	-0.225022	0.015652
H252	H	0.375284	0.274978	0.515652
H253	H	-0.115236	-0.296586	-0.039624
H254	H	0.384764	0.203414	0.460376
N255	N	0.578978	-0.800878	0.224037
N256	N	1.078978	-0.300878	0.724037
H257	H	0.543259	-0.794970	0.264125
H258	H	1.043259	-0.294970	0.764125
H259	H	0.610625	-0.757888	0.225590
H260	H	1.110625	-0.257888	0.725590
H261	H	-0.000236	-0.177866	-0.024674
H262	H	0.499764	0.322134	0.475326
H263	H	-0.077191	-0.397755	0.005473
H264	H	0.422809	0.102245	0.505473
H265	H	-0.000221	-0.701123	-0.681288
H266	H	0.499779	-0.201123	-0.181288
N267	N	-0.000205	-0.686462	-0.538036
N268	N	0.499795	-0.186462	-0.038036
H269	H	-0.000196	-0.645862	-0.566605
H270	H	0.499804	-0.145862	-0.066605
H271	H	0.044691	-0.684139	-0.507619
H272	H	0.544691	-0.184139	-0.007619
H273	H	-0.000185	-0.707679	-0.234401
H274	H	0.499815	-0.207679	0.265599
H275	H	-0.000182	-0.709599	-0.102967
H276	H	0.499818	-0.209599	0.397033
