data_functionalizedCrystal
_audit_creation_method	'MofGen! by Chris Wilmer'
_symmetry_space_group_name_H-M	'P1'
_symmetry_Int_Tables_number	1
_symmetry_cell_setting	triclinic
loop_
_symmetry_equiv_pos_as_xyz
  x,y,z
_cell_length_a	14.560438
_cell_length_b	21.606444
_cell_length_c	21.606444
_cell_angle_alpha	90.001146
_cell_angle_beta	60.002845
_cell_angle_gamma	59.998203
loop_
_atom_site_label
_atom_site_type_symbol
_atom_site_fract_x
_atom_site_fract_y
_atom_site_fract_z
Zr1	Zr	1.005236	0.596245	-0.081197
O2	O	1.196838	0.497418	-0.180020
O3	O	0.813635	0.626541	-0.050904
O4	O	1.005228	0.626541	-0.180019
O5	O	1.005251	0.497418	0.050945
O6	O	1.005221	0.728395	-0.180017
O7	O	1.005244	0.497418	-0.050904
O8	O	0.662496	0.728395	0.050947
O9	O	1.347976	0.497418	-0.180018
O10	O	0.892438	0.715474	-0.037981
O11	O	0.892448	0.639462	0.038027
O12	O	1.118024	0.639461	-0.113989
O13	O	1.118034	0.563449	-0.037982
Zr14	Zr	1.005236	0.758690	0.081245
Zr15	Zr	1.005226	0.758691	-0.081193
Zr16	Zr	1.005246	0.596245	0.081242
Zr17	Zr	1.246285	0.596245	-0.081194
Zr18	Zr	0.764187	0.758691	0.081243
O19	O	1.196838	0.728394	0.050952
O20	O	1.196823	0.728395	-0.180015
O21	O	1.196852	0.497418	0.050947
O22	O	0.813635	0.857517	0.180068
O23	O	0.813620	0.857518	-0.050899
O24	O	0.813649	0.626541	0.180063
O25	O	1.005221	0.857517	-0.050897
O26	O	1.005244	0.728394	0.180067
O27	O	1.005251	0.626540	0.180065
O28	O	1.005228	0.857517	0.050953
O29	O	1.347968	0.626540	-0.180015
O30	O	0.662504	0.728395	0.180064
O31	O	0.662496	0.857518	0.180067
O32	O	0.662488	0.857518	0.050950
O33	O	1.347985	0.497418	-0.050901
O34	O	1.347976	0.626540	-0.050898
O35	O	0.892448	0.715474	0.114038
O36	O	0.892438	0.791487	0.038030
O37	O	1.118024	0.715474	-0.037979
O38	O	1.118034	0.639461	0.038029
C39	C	0.703721	0.677468	0.000021
C40	C	0.601389	0.677468	0.000020
C41	C	1.005249	0.677467	0.203210
C42	C	1.005253	0.677467	0.272170
C43	C	1.005223	0.880662	0.000029
C44	C	1.005219	0.949625	0.000030
C45	C	0.553310	0.717144	-0.039656
C46	C	0.457153	0.717145	-0.039650
C47	C	0.457166	0.637791	0.039710
C48	C	0.553315	0.637794	0.039708
C49	C	0.601384	0.756818	-0.079343
C50	C	0.553306	0.796496	-0.119024
C51	C	0.457148	0.796497	-0.119018
C52	C	0.409069	0.756822	-0.079332
C53	C	1.306751	0.677467	0.000027
C54	C	1.409083	0.677467	0.000028
C55	C	1.005249	0.474273	0.000020
C56	C	1.005253	0.405311	0.000018
C57	C	0.887466	1.021701	0.039707
C58	C	0.887470	1.086496	0.039703
C59	C	1.005227	1.079213	0.000026
C60	C	1.122989	1.007129	-0.039657
C61	C	1.122984	0.942335	-0.039656
C62	C	1.123012	1.268432	-0.039660
C63	C	1.123008	1.333232	-0.039655
C64	C	0.887497	1.412592	0.039700
C65	C	0.887492	1.347799	0.039700
C66	C	1.005253	1.275721	0.000015
C67	C	1.005248	1.205463	0.000019
C68	C	1.005234	1.149469	0.000026
C69	C	1.005223	0.677468	-0.203162
C70	C	1.005219	0.677468	-0.272121
C71	C	1.123006	0.637791	0.264893
C72	C	1.123003	0.637787	0.329690
C73	C	1.005245	0.677465	0.401763
C74	C	0.887483	0.717143	0.409038
C75	C	0.887488	0.717142	0.344242
C76	C	0.887461	0.717149	0.670357
C77	C	0.887465	0.717150	0.735155
C78	C	1.122975	0.637795	0.655805
C79	C	1.122980	0.637793	0.591009
C80	C	1.005219	0.677468	0.598289
C81	C	1.005224	0.677470	0.528028
C82	C	1.005238	0.677468	0.472024
C83	C	0.703708	0.880663	0.000026
C84	C	0.601372	0.949625	0.000026
C85	C	0.703734	0.677468	0.203207
C86	C	0.601407	0.677468	0.272166
C87	C	0.703721	0.880663	0.203212
C88	C	0.601389	0.949625	0.272171
C89	C	1.306751	0.474273	-0.203163
C90	C	1.409083	0.405310	-0.272123
C91	C	1.306764	0.474273	0.000023
C92	C	1.409100	0.405310	0.000022
C93	C	1.306738	0.677467	-0.203159
C94	C	1.409065	0.677467	-0.272117
C95	C	0.553314	0.942333	-0.039657
C96	C	0.457172	1.007125	-0.039672
C97	C	0.409083	1.079208	0.000002
C98	C	0.457151	1.086498	0.039686
C99	C	0.553298	1.021708	0.039696
C100	C	0.553353	0.717146	0.344233
C101	C	0.457219	0.717143	0.409033
C102	C	0.409135	0.677466	0.401764
C103	C	0.457198	0.637784	0.329689
C104	C	0.553336	0.637783	0.264891
C105	C	0.553328	1.021695	0.264881
C106	C	0.457191	1.086499	0.329669
C107	C	0.409109	1.079231	0.401749
C108	C	0.457179	1.007153	0.409038
C109	C	0.553322	0.942351	0.344250
C110	C	1.457155	0.333240	-0.264832
C111	C	1.553323	0.268436	-0.329621
C112	C	1.601410	0.275704	-0.401700
C113	C	1.553333	0.347782	-0.408990
C114	C	1.457174	0.412584	-0.344201
C115	C	1.457168	0.412602	0.039699
C116	C	1.553337	0.347811	0.039696
C117	C	1.601429	0.275728	0.000020
C118	C	1.553357	0.268437	-0.039662
C119	C	1.457197	0.333228	-0.039663
C120	C	1.457120	0.717152	-0.264824
C121	C	1.553254	0.717166	-0.329611
C122	C	1.601339	0.677492	-0.401692
C123	C	1.553275	0.637806	-0.408983
C124	C	1.457136	0.637797	-0.344197
H125	H	0.679683	0.756819	-0.079355
H126	H	0.418033	0.605480	0.323782
C127	C	0.404285	0.594144	0.083355
N128	N	0.364460	0.561265	0.116226
H129	H	1.417984	0.749459	-0.206138
C130	C	0.606171	0.594141	0.185618
N131	N	0.645960	0.561268	0.125910
C132	C	0.303287	0.756830	-0.079324
N133	N	0.223617	0.756833	-0.079321
H134	H	1.679622	0.677506	-0.454439
H135	H	0.417983	1.145197	0.071987
H136	H	0.791574	1.027641	0.072021
H137	H	0.592469	0.605482	0.072011
H138	H	1.592377	0.749482	-0.323659
H139	H	0.417994	0.828810	-0.151321
H140	H	0.330823	1.132003	0.454497
C141	C	1.606137	0.594199	-0.488279
N142	N	1.645943	0.561362	-0.548006
C143	C	1.404305	0.594126	-0.352232
N144	N	1.364520	0.561229	-0.358290
C145	C	0.757916	0.760795	0.814439
N146	N	0.660345	0.793666	0.874154
H147	H	0.330853	0.677474	0.454533
H148	H	1.418034	0.471265	-0.350147
C149	C	1.404318	0.325193	-0.083303
N150	N	1.364492	0.319136	-0.116174
H151	H	0.791584	1.145182	0.072001
C152	C	1.606231	0.355764	-0.488284
N153	N	1.646068	0.361774	-0.548011
H154	H	0.418047	1.001174	-0.071988
C155	C	1.252522	0.594130	0.511729
N156	N	1.350097	0.561234	0.452015
C157	C	1.252540	0.594145	0.321680
N158	N	1.350114	0.561273	0.315644
C159	C	1.606188	0.355847	0.083357
N160	N	1.645990	0.361903	0.116245
C161	C	0.404319	1.165777	0.321634
N162	N	0.364495	1.225488	0.315580
H163	H	1.418019	0.471290	0.072013
H164	H	0.592493	0.749455	0.350166
C165	C	0.757920	0.760791	0.678375
N166	N	0.660343	0.793664	0.684414
H167	H	0.791602	1.353737	0.072013
H168	H	0.791610	1.471288	0.072011
C169	C	1.252553	1.189153	-0.083312
N170	N	1.350129	1.129435	-0.116193
C171	C	0.606204	0.840130	-0.162683
N172	N	0.646051	0.872993	-0.195571
H173	H	1.218906	1.327294	-0.071964
H174	H	1.218870	1.001203	-0.071967
H175	H	0.791602	0.749449	0.350171
C176	C	1.252521	0.863048	-0.083303
N177	N	1.350093	0.803329	-0.116180
C178	C	0.757948	0.760904	0.488322
N179	N	0.660380	0.793909	0.548038
H180	H	0.592467	0.883646	-0.071974
C181	C	0.606138	1.029742	0.083362
N182	N	0.645932	1.035799	0.116255
C183	C	0.303309	1.150473	-0.000011
N184	N	0.223636	1.204147	-0.000020
H185	H	1.218898	0.605483	0.206211
C186	C	0.606176	0.863075	0.352283
N187	N	0.645983	0.803365	0.358339
C188	C	0.404355	0.760807	0.488308
N189	N	0.364537	0.793698	0.548016
H190	H	1.218862	0.605487	0.649883
C191	C	1.606188	0.189158	-0.321586
N192	N	1.646002	0.129448	-0.315531
H193	H	0.592462	1.027627	0.206196
C194	C	0.404265	0.999171	0.488333
N195	N	0.364399	0.993161	0.548059
H196	H	1.418008	0.327308	-0.206147
H197	H	1.679709	0.222932	-0.454449
H198	H	1.679729	0.222977	0.000027
H199	H	1.592529	0.209739	-0.071965
