data_functionalizedCrystal
_audit_creation_method	'MofGen! by Chris Wilmer'
_symmetry_space_group_name_H-M	'P1'
_symmetry_Int_Tables_number	1
_symmetry_cell_setting	triclinic
loop_
_symmetry_equiv_pos_as_xyz
  x,y,z
_cell_length_a	14.519731
_cell_length_b	14.519709
_cell_length_c	9.130313
_cell_angle_alpha	90.006165
_cell_angle_beta	90.000589
_cell_angle_gamma	83.684499
loop_
_atom_site_label
_atom_site_type_symbol
_atom_site_fract_x
_atom_site_fract_y
_atom_site_fract_z
O1	O	1.223850	0.120986	0.121806
O2	O	0.955376	0.135202	0.121808
O3	O	1.096731	-0.006144	0.121794
O4	O	1.082495	0.262332	0.121820
O5	O	1.096730	-0.006151	-0.121805
O6	O	0.955374	0.135195	-0.121791
O7	O	1.223849	0.120979	-0.121793
Cu8	Cu	1.089611	0.128087	-0.144034
Cu9	Cu	1.089613	0.128095	0.144050
O10	O	1.082493	0.262325	-0.121779
C11	C	0.921016	0.134532	0.000009
C12	C	0.818635	0.132536	0.000010
C13	C	0.735491	0.130915	0.000015
C14	C	0.631182	0.128888	0.000016
C15	C	0.548043	0.127280	0.000016
C16	C	0.443728	0.125253	0.000019
C17	C	1.096067	-0.040507	-0.000006
C18	C	1.094079	-0.142889	-0.000007
C19	C	1.086759	-0.517785	0.000031
C20	C	1.088792	-0.413477	0.000020
C21	C	1.090419	-0.330340	0.000011
C22	C	1.092452	-0.226025	0.000003
C23	C	1.258209	0.121649	0.000009
C24	C	1.360589	0.123645	0.000018
C25	C	1.083157	0.296688	0.000024
C26	C	1.085146	0.399070	0.000035
N27	N	1.089615	0.128094	0.346672
N28	N	1.089617	0.128080	-0.346657
C29	C	1.152324	0.065628	0.423318
C30	C	1.152327	0.065623	0.576654
C31	C	1.026905	0.190552	0.576687
C32	C	1.026906	0.190561	0.423353
H33	H	1.203386	0.014765	0.360888
H34	H	1.203392	0.014759	0.639055
C35	C	0.972723	0.350013	0.623960
C36	C	0.957974	0.259208	0.660983
H37	H	0.930169	0.392396	0.676008
H38	H	0.963746	0.358954	0.521683
H39	H	1.034255	0.360274	0.649104
H40	H	0.896444	0.248945	0.635828
H41	H	0.966944	0.250263	0.763283
C42	C	0.867277	0.244064	0.376131
C43	C	0.957969	0.259225	0.339089
H44	H	0.824724	0.286451	0.324101
H45	H	0.858304	0.253004	0.478411
H46	H	0.857294	0.182457	0.350976
H47	H	0.967954	0.320831	0.364254
H48	H	0.966946	0.250293	0.236786
