data_functionalizedCrystal
_audit_creation_method	'MofGen! by Chris Wilmer'
_symmetry_space_group_name_H-M	'P1'
_symmetry_Int_Tables_number	1
_symmetry_cell_setting	triclinic
loop_
_symmetry_equiv_pos_as_xyz
  x,y,z
_cell_length_a	27.732048
_cell_length_b	27.732048
_cell_length_c	15.455313
_cell_angle_alpha	92.637842
_cell_angle_beta	87.346468
_cell_angle_gamma	82.642655
loop_
_atom_site_label
_atom_site_type_symbol
_atom_site_fract_x
_atom_site_fract_y
_atom_site_fract_z
O1	O	0.643059	0.055390	-0.072028
O2	O	0.976392	0.388723	0.261306
O3	O	1.309725	0.722056	0.594639
O4	O	0.502266	0.064134	-0.072055
O5	O	0.835599	0.397468	0.261278
O6	O	1.168933	0.730801	0.594612
O7	O	0.577035	-0.010634	-0.072024
O8	O	0.910368	0.322699	0.261309
O9	O	1.243701	0.656033	0.594643
O10	O	0.568290	0.130158	-0.072059
O11	O	0.901623	0.463492	0.261275
O12	O	1.234957	0.796825	0.594608
O13	O	0.572759	-0.006376	0.072236
O14	O	0.906092	0.326957	0.405570
O15	O	1.239426	0.660291	0.738903
O16	O	0.497991	0.068393	0.072205
O17	O	0.831324	0.401726	0.405539
O18	O	1.164657	0.735059	0.738872
O19	O	0.638783	0.059648	0.072233
O20	O	0.972116	0.392981	0.405566
O21	O	1.305450	0.726315	0.738899
Cu22	Cu	0.567996	0.064409	0.085391
Cu23	Cu	0.901330	0.397742	0.418724
Cu24	Cu	1.234663	0.731076	0.752058
Cu25	Cu	0.573053	0.059373	-0.085213
Cu26	Cu	0.906386	0.392707	0.248120
Cu27	Cu	1.239719	0.726040	0.581453
O28	O	0.564015	0.134416	0.072202
O29	O	0.897348	0.467750	0.405535
O30	O	1.230681	0.801083	0.738868
C31	C	0.482121	0.066080	0.000072
C32	C	0.815455	0.399413	0.333405
C33	C	1.148788	0.732747	0.666738
C34	C	0.428467	0.065527	0.000062
C35	C	0.761800	0.398860	0.333395
C36	C	1.095134	0.732193	0.666729
C37	C	0.574713	-0.026512	0.000109
C38	C	0.908046	0.306821	0.333442
C39	C	1.241380	0.640155	0.666775
C40	C	0.574160	-0.080167	0.000116
C41	C	0.907494	0.253167	0.333449
C42	C	1.240827	0.586500	0.666782
C43	C	0.089651	0.106231	0.000089
C44	C	0.422984	0.439565	0.333423
C45	C	0.756318	0.772898	0.666756
C46	C	-0.112009	0.104181	0.000098
C47	C	0.221324	0.437514	0.333431
C48	C	0.554658	0.770847	0.666764
O49	O	-0.143265	0.141402	0.000126
O50	O	0.190068	0.474736	0.333459
O51	O	0.523401	0.808069	0.666793
N52	N	-0.131133	0.059846	0.000107
N53	N	0.202200	0.393179	0.333440
N54	N	0.535534	0.726512	0.666774
C55	C	-0.099839	0.016021	0.000120
C56	C	0.233495	0.349354	0.333453
C57	C	0.566828	0.682687	0.666787
O58	O	-0.120732	-0.021736	0.000137
O59	O	0.212601	0.311597	0.333471
O60	O	0.545934	0.644931	0.666804
C61	C	0.101820	0.018072	0.000118
C62	C	0.435153	0.351405	0.333451
C63	C	0.768487	0.684739	0.666785
C64	C	0.120941	0.062409	0.000100
C65	C	0.454275	0.395743	0.333433
C66	C	0.787608	0.729076	0.666767
C67	C	0.108773	0.150565	0.000072
C68	C	0.442106	0.483899	0.333406
C69	C	0.775439	0.817232	0.666739
C70	C	0.159185	0.151077	0.000065
C71	C	0.492518	0.484411	0.333399
C72	C	0.825852	0.817744	0.666732
C73	C	0.190475	0.107256	0.000076
C74	C	0.523809	0.440589	0.333409
C75	C	0.857142	0.773922	0.666743
C76	C	0.171353	0.062922	0.000093
C77	C	0.504687	0.396255	0.333426
C78	C	0.838020	0.729588	0.666760
C79	C	0.133113	-0.025753	0.000137
C80	C	0.466446	0.307581	0.333471
C81	C	0.799780	0.640914	0.666804
C82	C	0.183530	-0.025236	0.000139
C83	C	0.516864	0.308098	0.333472
C84	C	0.850197	0.641431	0.666806
C85	C	0.202652	0.019102	0.000121
C86	C	0.535985	0.352435	0.333454
C87	C	0.869318	0.685769	0.666787
C88	C	0.253056	0.019612	0.000097
C89	C	0.586389	0.352945	0.333430
C90	C	0.919723	0.686278	0.666763
N91	N	0.272180	0.063947	0.000087
N92	N	0.605513	0.397280	0.333421
N93	N	0.938847	0.730613	0.666754
C94	C	0.240890	0.107769	0.000077
C95	C	0.574223	0.441102	0.333410
C96	C	0.907556	0.774435	0.666744
C97	C	-0.205713	0.014947	0.000120
C98	C	0.127621	0.348280	0.333453
C99	C	0.460954	0.681613	0.666786
C100	C	-0.256127	0.014434	0.000118
C101	C	0.077206	0.347767	0.333452
C102	C	0.410540	0.681100	0.666785
C103	C	-0.268294	0.102594	0.000098
C104	C	0.065039	0.435927	0.333431
C105	C	0.398373	0.769261	0.666764
C106	C	-0.217878	0.103106	0.000093
C107	C	0.115455	0.436440	0.333426
C108	C	0.448788	0.769773	0.666759
C109	C	-0.186589	0.059281	0.000110
C110	C	0.146745	0.392615	0.333443
C111	C	0.480078	0.725948	0.666777
C112	C	0.346759	0.108841	0.000062
C113	C	0.680093	0.442174	0.333395
C114	C	1.013426	0.775507	0.666729
C115	C	0.397176	0.109349	0.000052
C116	C	0.730510	0.442682	0.333385
C117	C	1.063843	0.776015	0.666718
C118	C	0.409339	0.021189	0.000077
C119	C	0.742672	0.354522	0.333410
C120	C	1.076005	0.687855	0.666744
C121	C	0.358926	0.020680	0.000083
C122	C	0.692259	0.354014	0.333416
C123	C	1.025593	0.687347	0.666749
C124	C	0.327637	0.064510	0.000078
C125	C	0.660970	0.397844	0.333411
C126	C	0.994304	0.731177	0.666745
O127	O	0.284341	-0.017590	0.000078
O128	O	0.617674	0.315744	0.333411
O129	O	0.951007	0.649077	0.666745
O130	O	0.261792	0.145520	0.000079
O131	O	0.595125	0.478853	0.333412
O132	O	0.928459	0.812187	0.666746
C133	C	0.039239	0.105719	0.000096
C134	C	0.372572	0.439053	0.333430
C135	C	0.705905	0.772386	0.666763
C136	C	0.020117	0.061385	0.000113
C137	C	0.353450	0.394719	0.333447
C138	C	0.686784	0.728052	0.666780
C139	C	0.051407	0.017563	0.000124
C140	C	0.384741	0.350897	0.333457
C141	C	0.718074	0.684230	0.666791
C142	C	-0.030297	0.060872	0.000112
C143	C	0.303036	0.394206	0.333446
C144	C	0.636369	0.727539	0.666779
C145	C	-0.061588	0.104694	0.000102
C146	C	0.271746	0.438028	0.333435
C147	C	0.605079	0.771361	0.666769
C148	C	-0.042464	0.149029	0.000093
C149	C	0.290870	0.482362	0.333426
C150	C	0.624203	0.815696	0.666759
C151	C	0.007948	0.149541	0.000086
C152	C	0.341282	0.482875	0.333419
C153	C	0.674615	0.816208	0.666753
C154	C	0.032283	-0.026771	0.000133
C155	C	0.365617	0.306562	0.333467
C156	C	0.698950	0.639895	0.666800
C157	C	-0.018129	-0.027280	0.000139
C158	C	0.315204	0.306053	0.333472
C159	C	0.648537	0.639387	0.666806
C160	C	-0.049420	0.016542	0.000129
C161	C	0.283914	0.349875	0.333462
C162	C	0.617247	0.683209	0.666795
C163	C	0.614865	-0.418983	0.000079
C164	C	0.948198	-0.085649	0.333412
C165	C	1.281532	0.247684	0.666746
C166	C	0.612814	-0.620643	0.000067
C167	C	0.946148	-0.287309	0.333400
C168	C	1.279481	0.046024	0.666733
O169	O	0.650036	-0.651899	0.000036
O170	O	0.983369	-0.318566	0.333369
O171	O	1.316703	0.014767	0.666702
N172	N	0.568479	-0.639767	0.000059
N173	N	0.901813	-0.306433	0.333392
N174	N	1.235146	0.026900	0.666725
C175	C	0.524654	-0.608472	0.000048
C176	C	0.857987	-0.275139	0.333382
C177	C	1.191321	0.058194	0.666715
O178	O	0.486898	-0.629366	0.000032
O179	O	0.820231	-0.296033	0.333366
O180	O	1.153564	0.037301	0.666699
C181	C	0.526705	-0.406813	0.000054
C182	C	0.860039	-0.073480	0.333388
C183	C	1.193372	0.259853	0.666721
C184	C	0.571043	-0.387692	0.000071
C185	C	0.904376	-0.054359	0.333404
C186	C	1.237710	0.278974	0.666738
C187	C	0.659199	-0.399861	0.000095
C188	C	0.992532	-0.066528	0.333428
C189	C	1.325866	0.266806	0.666761
C190	C	0.659711	-0.349449	0.000103
C191	C	0.993044	-0.016115	0.333436
C192	C	1.326378	0.317218	0.666769
C193	C	0.615889	-0.318158	0.000095
C194	C	0.949222	0.015175	0.333428
C195	C	1.282556	0.348508	0.666761
C196	C	0.571555	-0.337280	0.000079
C197	C	0.904888	-0.003947	0.333412
C198	C	1.238222	0.329387	0.666746
C199	C	0.482881	-0.375520	0.000038
C200	C	0.816214	-0.042187	0.333371
C201	C	1.149548	0.291146	0.666705
C202	C	0.483398	-0.325103	0.000037
C203	C	0.816731	0.008230	0.333371
C204	C	1.150064	0.341564	0.666704
C205	C	0.527735	-0.305982	0.000054
C206	C	0.861069	0.027352	0.333387
C207	C	1.194402	0.360685	0.666721
C208	C	0.528245	-0.255577	0.000079
C209	C	0.861578	0.077756	0.333412
C210	C	1.194912	0.411089	0.666746
N211	N	0.572580	-0.236453	0.000087
N212	N	0.905913	0.096880	0.333420
N213	N	1.239247	0.430213	0.666754
C214	C	0.616402	-0.267744	0.000095
C215	C	0.949735	0.065589	0.333428
C216	C	1.283069	0.398923	0.666761
C217	C	0.523580	-0.714346	0.000047
C218	C	0.856914	-0.381013	0.333380
C219	C	1.190247	-0.047680	0.666713
C220	C	0.523067	-0.764761	0.000047
C221	C	0.856401	-0.431428	0.333380
C222	C	1.189734	-0.098094	0.666713
C223	C	0.611228	-0.776928	0.000063
C224	C	0.944561	-0.443594	0.333397
C225	C	1.277894	-0.110261	0.666730
C226	C	0.611740	-0.726512	0.000069
C227	C	0.945073	-0.393179	0.333403
C228	C	1.278407	-0.059846	0.666736
C229	C	0.567915	-0.695222	0.000054
C230	C	0.901249	-0.361889	0.333388
C231	C	1.234582	-0.028556	0.666721
C232	C	0.617474	-0.161874	0.000112
C233	C	0.950807	0.171459	0.333445
C234	C	1.284141	0.504792	0.666779
C235	C	0.617982	-0.111457	0.000123
C236	C	0.951315	0.221876	0.333457
C237	C	1.284649	0.555210	0.666790
C238	C	0.529822	-0.099295	0.000102
C239	C	0.863155	0.234039	0.333435
C240	C	1.196489	0.567372	0.666769
C241	C	0.529314	-0.149707	0.000095
C242	C	0.862647	0.183626	0.333429
C243	C	1.195980	0.516959	0.666762
C244	C	0.573144	-0.180996	0.000097
C245	C	0.906477	0.152337	0.333431
C246	C	1.239810	0.485670	0.666764
O247	O	0.491044	-0.224293	0.000100
O248	O	0.824377	0.109041	0.333433
O249	O	1.157710	0.442374	0.666767
O250	O	0.654154	-0.246841	0.000091
O251	O	0.987487	0.086492	0.333425
O252	O	1.320820	0.419825	0.666758
C253	C	0.614353	-0.469395	0.000071
C254	C	0.947686	-0.136062	0.333404
C255	C	1.281020	0.197272	0.666738
C256	C	0.570019	-0.488517	0.000055
C257	C	0.903352	-0.155183	0.333389
C258	C	1.236686	0.178150	0.666722
C259	C	0.526197	-0.457226	0.000048
C260	C	0.859530	-0.123893	0.333381
C261	C	1.192864	0.209441	0.666714
C262	C	0.569506	-0.538931	0.000055
C263	C	0.902839	-0.205598	0.333389
C264	C	1.236173	0.127736	0.666722
C265	C	0.613328	-0.570221	0.000063
C266	C	0.946661	-0.236888	0.333397
C267	C	1.279995	0.096445	0.666730
C268	C	0.657663	-0.551097	0.000071
C269	C	0.990996	-0.217764	0.333404
C270	C	1.324330	0.115569	0.666738
C271	C	0.658175	-0.500685	0.000079
C272	C	0.991508	-0.167352	0.333412
C273	C	1.324842	0.165981	0.666746
C274	C	0.481862	-0.476350	0.000040
C275	C	0.815195	-0.143017	0.333373
C276	C	1.148529	0.190317	0.666706
C277	C	0.481354	-0.526763	0.000033
C278	C	0.814687	-0.193429	0.333366
C279	C	1.148020	0.139904	0.666700
C280	C	0.525176	-0.558053	0.000041
C281	C	0.858509	-0.224720	0.333374
C282	C	1.191842	0.108613	0.666707
C283	C	0.658928	0.057702	0.000104
C284	C	0.992261	0.391036	0.333437
C285	C	1.325594	0.724369	0.666771
C286	C	0.712583	0.058255	0.000108
C287	C	1.045916	0.391589	0.333441
C288	C	1.379249	0.724922	0.666775
C289	C	0.566336	0.150294	0.000067
C290	C	0.899669	0.483628	0.333400
C291	C	1.233003	0.816961	0.666734
C292	C	0.566889	0.203949	0.000054
C293	C	0.900223	0.537282	0.333388
C294	C	1.233556	0.870615	0.666721
N295	N	0.564444	0.067951	0.205385
N296	N	0.897777	0.401284	0.538718
N297	N	1.231110	0.734617	0.872052
N298	N	0.576609	0.055828	-0.205208
N299	N	0.909943	0.389161	0.128126
N300	N	1.243276	0.722495	0.461459
C301	C	0.596219	0.036198	0.250792
C302	C	0.929552	0.369531	0.584126
C303	C	1.262886	0.702864	0.917459
C304	C	0.593536	0.038881	0.341599
C305	C	0.926870	0.372214	0.674933
C306	C	1.260203	0.705547	1.008266
C307	C	0.559081	0.073319	0.386997
C308	C	0.892414	0.406652	0.720330
C309	C	1.225748	0.739985	1.053664
C310	C	0.527302	0.105073	0.341583
C311	C	0.860636	0.438406	0.674917
C312	C	1.193969	0.771740	1.008250
C313	C	0.529983	0.102388	0.250778
C314	C	0.863316	0.435721	0.584112
C315	C	1.196649	0.769054	0.917445
C316	C	0.547511	0.084897	0.658574
C317	C	0.880845	0.418230	0.991907
C318	C	1.214178	0.751563	1.325240
C319	C	0.544834	0.087581	0.749385
C320	C	0.878167	0.420914	1.082718
C321	C	1.211501	0.754247	1.416052
C322	C	0.611068	0.021387	0.749395
C323	C	0.944401	0.354721	1.082728
C324	C	1.277735	0.688054	1.416061
C325	C	0.613747	0.018707	0.658588
C326	C	0.947081	0.352040	0.991921
C327	C	1.280414	0.685374	1.325255
C328	C	0.581967	0.050460	0.613182
C329	C	0.915300	0.383793	0.946516
C330	C	1.248634	0.717126	1.279849
N331	N	0.556339	0.076063	0.479816
N332	N	0.889673	0.409396	0.813149
N333	N	1.223006	0.742729	1.146483
N334	N	0.584707	0.047713	0.520365
N335	N	0.918040	0.381046	0.853698
N336	N	1.251373	0.714380	1.187031
H337	H	0.412742	0.145455	0.000036
H338	H	0.746075	0.478788	0.333370
H339	H	1.079409	0.812122	0.666703
H340	H	0.647844	-0.710948	0.000082
H341	H	0.981177	-0.377614	0.333416
H342	H	1.314510	-0.044281	0.666749
H343	H	0.504107	0.128243	0.213808
H344	H	0.837441	0.461577	0.547142
H345	H	1.170774	0.794910	0.880475
H346	H	-0.180240	-0.020743	0.000134
H347	H	0.153093	0.312590	0.333467
H348	H	0.486426	0.645924	0.666801
H349	H	0.499245	0.133112	0.378551
H350	H	0.832579	0.466445	0.711885
H351	H	1.165912	0.799778	1.045218
H352	H	0.654089	-0.095892	0.000139
H353	H	0.987422	0.237442	0.333473
H354	H	1.320755	0.570775	0.666806
Br355	Br	0.422383	-0.433892	0.000025
Br356	Br	0.755716	-0.100558	0.333358
Br357	Br	1.089050	0.232775	0.666691
Br358	Br	0.642986	-0.010539	0.189191
Br359	Br	0.976319	0.322795	0.522524
Br360	Br	1.309653	0.656128	0.855857
Br361	Br	-0.282070	-0.045742	0.000117
Br362	Br	0.051263	0.287591	0.333450
Br363	Br	0.384597	0.620925	0.666784
Br364	Br	0.470352	-0.056820	0.000092
Br365	Br	0.803686	0.276514	0.333425
Br366	Br	1.137019	0.609847	0.666758
Br367	Br	0.469140	-0.175658	0.000093
Br368	Br	0.802474	0.157675	0.333426
Br369	Br	1.135807	0.491009	0.666759
H370	H	0.446777	-0.391080	0.000019
H371	H	0.780110	-0.057746	0.333352
H372	H	1.113443	0.275587	0.666686
H373	H	0.636941	-0.004464	0.786372
H374	H	0.970275	0.328869	1.119706
H375	H	1.303608	0.662202	1.453039
H376	H	0.516775	0.115627	0.786344
H377	H	0.850108	0.448960	1.119677
H378	H	1.183441	0.782293	1.453010
Br379	Br	-0.191934	0.163280	0.000068
Br380	Br	0.141400	0.496614	0.333402
Br381	Br	0.474733	0.829947	0.666735
Br382	Br	0.185127	0.211253	0.000045
Br383	Br	0.518460	0.544586	0.333378
Br384	Br	0.851793	0.877920	0.666711
Br385	Br	0.504383	0.127989	0.596956
Br386	Br	0.837717	0.461322	0.930290
Br387	Br	1.171050	0.794656	1.263623
H388	H	0.083300	0.186253	0.000067
H389	H	0.416634	0.519586	0.333400
H390	H	0.749967	0.852919	0.666734
H391	H	0.117554	-0.061857	0.000153
H392	H	0.450887	0.271476	0.333486
H393	H	0.784221	0.604810	0.666820
H394	H	0.447709	-0.299629	0.000024
H395	H	0.781043	0.033705	0.333357
H396	H	1.114376	0.367038	0.666690
Br397	Br	0.660510	-0.028029	0.596975
Br398	Br	0.993844	0.305305	0.930309
Br399	Br	1.327177	0.638638	1.263642
Br400	Br	0.304303	0.168325	0.000057
Br401	Br	0.637636	0.501658	0.333390
Br402	Br	0.970970	0.834991	0.666724
Br403	Br	0.718351	-0.474743	0.000096
Br404	Br	1.051684	-0.141410	0.333430
Br405	Br	1.385017	0.191923	0.666763
H406	H	-0.293779	0.138275	0.000089
H407	H	0.039554	0.471609	0.333423
H408	H	0.372887	0.804942	0.666756
Br409	Br	0.676958	-0.204330	0.000114
Br410	Br	1.010292	0.129003	0.333447
Br411	Br	1.343625	0.462336	0.666780
H412	H	0.343357	-0.015423	0.000085
H413	H	0.676691	0.317910	0.333418
H414	H	1.010024	0.651243	0.666752
Br415	Br	0.225992	-0.084716	0.000167
Br416	Br	0.559326	0.248618	0.333501
Br417	Br	0.892659	0.581951	0.666834
H418	H	0.434824	-0.014490	0.000082
H419	H	0.768158	0.318843	0.333415
H420	H	1.101491	0.652177	0.666749
H421	H	0.023512	0.185645	0.000072
H422	H	0.356845	0.518979	0.333406
H423	H	0.690179	0.852312	0.666739
H424	H	-0.067949	0.184710	0.000081
H425	H	0.265384	0.518044	0.333414
H426	H	0.598717	0.851377	0.666747
H427	H	-0.033692	-0.063388	0.000147
H428	H	0.299641	0.269946	0.333480
H429	H	0.632974	0.603279	0.666814
H430	H	0.695815	-0.333885	0.000113
H431	H	1.029149	-0.000552	0.333446
H432	H	1.362482	0.332781	0.666779
Br433	Br	0.074742	-0.086250	0.000150
Br434	Br	0.408075	0.247083	0.333484
Br435	Br	0.741408	0.580416	0.666817
Br436	Br	0.421175	-0.552706	0.000017
Br437	Br	0.754508	-0.219372	0.333350
Br438	Br	1.087842	0.113961	0.666684
Br439	Br	0.670700	-0.819403	0.000072
Br440	Br	1.004034	-0.486070	0.333405
Br441	Br	1.337367	-0.152736	0.666738
H442	H	0.619410	0.013025	0.378570
H443	H	0.952743	0.346358	0.711903
H444	H	1.286077	0.679691	1.045236
H445	H	0.486963	-0.780324	0.000048
H446	H	0.820296	-0.446991	0.333381
H447	H	1.153629	-0.113657	0.666715
Br448	Br	0.717135	-0.593573	0.000089
Br449	Br	1.050468	-0.260240	0.333422
Br450	Br	1.383801	0.073094	0.666755
Br451	Br	0.464098	-0.671888	0.000025
Br452	Br	0.797431	-0.338555	0.333358
Br453	Br	1.130764	-0.005222	0.666691
H454	H	0.694886	-0.425333	0.000098
H455	H	1.028220	-0.092000	0.333431
H456	H	1.361553	0.241333	0.666765
