data_functionalizedCrystal
_audit_creation_method	'MofGen! by Chris Wilmer'
_symmetry_space_group_name_H-M	'P1'
_symmetry_Int_Tables_number	1
_symmetry_cell_setting	triclinic
loop_
_symmetry_equiv_pos_as_xyz
  x,y,z
_cell_length_a	9.065218
_cell_length_b	10.654550
_cell_length_c	7.540329
_cell_angle_alpha	89.999328
_cell_angle_beta	89.996962
_cell_angle_gamma	84.750407
loop_
_atom_site_label
_atom_site_type_symbol
_atom_site_fract_x
_atom_site_fract_y
_atom_site_fract_z
O1	O	1.959392	0.184158	-0.147474
O2	O	1.530024	0.199263	-0.147476
O3	O	1.754580	0.009010	-0.147476
O4	O	1.734836	0.374410	-0.147474
O5	O	1.754567	0.009008	0.147489
O6	O	1.530011	0.199261	0.147490
O7	O	1.959378	0.184155	0.147491
Cu8	Cu	1.744693	0.191708	0.174423
Cu9	Cu	1.744709	0.191711	-0.174407
O10	O	1.734823	0.374408	0.147492
C11	C	1.475039	0.197810	0.000007
C12	C	1.311220	0.193469	0.000006
C13	C	1.753124	-0.037795	0.000002
C14	C	1.748786	-0.177255	-0.000010
C15	C	1.742665	-0.373819	-0.160782
C16	C	1.746755	-0.242782	-0.160793
C17	C	1.746742	-0.242773	0.160794
C18	C	1.742662	-0.373808	0.160803
C19	C	2.014364	0.185608	0.000005
C20	C	2.178183	0.189949	-0.000006
C21	C	1.736279	0.421213	0.000009
C22	C	1.740616	0.560673	0.000010
N23	N	1.744693	0.191705	0.419771
N24	N	1.744721	0.191703	-0.419756
H25	H	1.740998	-0.427160	-0.291710
C26	C	1.749188	-0.171574	-0.335284
C27	C	1.878225	-0.109017	-0.344771
C28	C	1.880488	-0.043400	-0.505488
H29	H	1.664968	-0.111786	-0.342035
H30	H	1.747439	-0.229299	-0.431129
H31	H	1.879961	-0.051297	-0.248953
H32	H	1.962467	-0.168776	-0.338051
H33	H	1.878738	-0.101125	-0.601333
H34	H	1.796261	0.016382	-0.512225
H35	H	1.968044	-0.000957	-0.511953
H36	H	1.748405	-0.189411	0.291706
H37	H	1.740998	-0.427146	0.291747
