data_functionalizedCrystal
_audit_creation_method	'MofGen! by Chris Wilmer'
_symmetry_space_group_name_H-M	'P1'
_symmetry_Int_Tables_number	1
_symmetry_cell_setting	triclinic
loop_
_symmetry_equiv_pos_as_xyz
  x,y,z
_cell_length_a	21.606444
_cell_length_b	21.606444
_cell_length_c	21.606444
_cell_angle_alpha	90.001970
_cell_angle_beta	60.000491
_cell_angle_gamma	120.000342
loop_
_atom_site_label
_atom_site_type_symbol
_atom_site_fract_x
_atom_site_fract_y
_atom_site_fract_z
Zr1	Zr	-0.677476	0.596212	0.081220
O2	O	-0.806592	0.497388	0.180038
O3	O	-0.548358	0.626508	0.050930
O4	O	-0.677479	0.626507	0.180047
O5	O	-0.677468	0.497389	-0.050932
O6	O	-0.677484	0.728357	0.180051
O7	O	-0.677471	0.497389	0.050921
O8	O	-0.446509	0.728359	-0.050916
O9	O	-0.908443	0.497387	0.180034
O10	O	-0.601470	0.715437	0.038011
O11	O	-0.601464	0.639427	-0.038004
O12	O	-0.753488	0.639426	0.114015
O13	O	-0.753483	0.563416	0.038000
Zr14	Zr	-0.677479	0.758649	-0.081218
Zr15	Zr	-0.677483	0.758651	0.081226
Zr16	Zr	-0.677472	0.596211	-0.081224
Zr17	Zr	-0.839916	0.596210	0.081215
Zr18	Zr	-0.515038	0.758652	-0.081212
O19	O	-0.806597	0.728353	-0.050928
O20	O	-0.806602	0.728355	0.180046
O21	O	-0.806587	0.497387	-0.050937
O22	O	-0.548362	0.857473	-0.180036
O23	O	-0.548368	0.857475	0.050939
O24	O	-0.548352	0.626506	-0.180044
O25	O	-0.677486	0.857473	0.050934
O26	O	-0.677475	0.728354	-0.180045
O27	O	-0.677471	0.626505	-0.180049
O28	O	-0.677484	0.857472	-0.050919
O29	O	-0.908449	0.626504	0.180039
O30	O	-0.446506	0.728358	-0.180037
O31	O	-0.446511	0.857475	-0.180032
O32	O	-0.446514	0.857476	-0.050911
O33	O	-0.908440	0.497386	0.050913
O34	O	-0.908446	0.626503	0.050918
O35	O	-0.601466	0.715436	-0.114013
O36	O	-0.601471	0.791446	-0.037998
O37	O	-0.753490	0.715435	0.038006
O38	O	-0.753485	0.639425	-0.038009
C39	C	-0.474289	0.677434	0.000008
C40	C	-0.405329	0.677435	0.000010
C41	C	-0.372934	0.717109	0.039691
C42	C	-0.308134	0.717112	0.039686
C43	C	-0.275734	0.677436	0.000005
C44	C	-0.308132	0.637760	-0.039680
C45	C	-0.372926	0.637762	-0.039679
C46	C	-0.046822	0.637752	-0.039686
C47	C	0.017975	0.637751	-0.039682
C48	C	0.017970	0.717102	0.039679
C49	C	-0.046824	0.717104	0.039680
C50	C	-0.079213	0.677432	-0.000008
C51	C	-0.149475	0.677430	-0.000003
C52	C	-0.205478	0.677432	0.000004
C53	C	-0.677468	0.474245	-0.000006
C54	C	-0.677465	0.405286	-0.000009
C55	C	0.119335	0.677429	-0.000005
C56	C	0.050375	0.677431	-0.000006
C57	C	-0.598114	0.412563	-0.039679
C58	C	-0.598116	0.347766	-0.039680
C59	C	-0.677471	0.275692	-0.000005
C60	C	-0.756829	0.268415	0.039666
C61	C	-0.756826	0.333212	0.039662
C62	C	-0.756844	0.007097	0.039683
C63	C	-0.756842	-0.057701	0.039686
C64	C	-0.598135	0.021651	-0.039659
C65	C	-0.598131	0.086448	-0.039663
C66	C	-0.677489	0.079166	0.000005
C67	C	-0.677485	0.149427	0.000004
C68	C	-0.677476	0.205431	0.000000
C69	C	-0.677482	0.677432	0.203194
C70	C	-0.677484	0.677433	0.272156
C71	C	-0.677486	0.880617	0.000008
C72	C	-0.677489	0.949576	0.000011
C73	C	-0.677488	0.733543	0.304556
C74	C	-0.677482	0.733545	0.369349
C75	C	-0.677478	0.677434	0.401744
C76	C	-0.677471	0.621321	0.369337
C77	C	-0.677471	0.621322	0.304542
C78	C	-0.677471	0.621315	0.630648
C79	C	-0.677473	0.621317	0.695449
C80	C	-0.677481	0.733537	0.695454
C81	C	-0.677481	0.733539	0.630659
C82	C	-0.677470	0.677429	0.598256
C83	C	-0.677475	0.677428	0.528000
C84	C	-0.677479	0.677431	0.472002
C85	C	-0.677472	0.677430	0.796808
C86	C	-0.677471	0.677430	0.727847
C87	C	-0.474298	0.880620	0.000015
C88	C	-0.405340	0.949580	0.000020
C89	C	-0.474284	0.677432	-0.203185
C90	C	-0.405322	0.677433	-0.272144
C91	C	-0.474293	0.880618	-0.203177
C92	C	-0.405334	0.949578	-0.272134
C93	C	-0.880662	0.474244	0.203179
C94	C	-0.949621	0.405284	0.272136
C95	C	-0.880657	0.474242	-0.000013
C96	C	-0.949614	0.405282	-0.000018
C97	C	-0.880670	0.677429	0.203187
C98	C	-0.949632	0.677429	0.272146
C99	C	-0.372957	0.942289	0.039705
C100	C	-0.308173	1.007078	0.039725
C101	C	-0.275770	1.079158	0.000055
C102	C	-0.308160	1.086448	-0.039631
C103	C	-0.372947	1.021659	-0.039646
C104	C	-0.372938	0.717109	-0.344211
C105	C	-0.308150	0.717106	-0.409012
C106	C	-0.275743	0.677432	-0.401744
C107	C	-0.308134	0.637751	-0.329670
C108	C	-0.372925	0.637749	-0.264870
C109	C	-0.372953	1.021645	-0.264838
C110	C	-0.308167	1.086447	-0.329624
C111	C	-0.275760	1.079179	-0.401706
C112	C	-0.308148	1.007104	-0.409000
C113	C	-0.372936	0.942304	-0.344215
C114	C	-0.982010	0.333216	0.264840
C115	C	-1.046815	0.268415	0.329626
C116	C	-1.079226	0.275683	0.401708
C117	C	-1.046834	0.347758	0.409002
C118	C	-0.982034	0.412557	0.344217
C119	C	-0.982004	0.412573	-0.039697
C120	C	-1.046806	0.347783	-0.039698
C121	C	-1.079211	0.275704	-0.000026
C122	C	-1.046818	0.268414	0.039657
C123	C	-0.982022	0.333202	0.039663
C124	C	-0.982018	0.717111	0.264854
C125	C	-1.046807	0.717126	0.329643
C126	C	-1.079212	0.677453	0.401722
C127	C	-1.046820	0.637769	0.409013
C128	C	-0.982028	0.637760	0.344225
H129	H	-0.281758	0.749419	0.071995
C130	C	-0.946369	0.491852	-0.083340
H131	H	-0.974954	0.486905	-0.106963
H132	H	-0.885198	0.518778	-0.120888
H133	H	-0.956993	0.518779	-0.049088
H134	H	-0.955664	0.471236	0.350166
H135	H	-0.399293	0.883626	-0.350166
H136	H	-0.223005	1.131949	-0.454452
C137	C	-0.272524	0.760765	-0.488283
H138	H	-0.301096	0.784402	-0.483325
H139	H	-0.283146	0.726526	-0.515218
H140	H	-0.211348	0.798314	-0.515207
C141	C	-0.204498	1.150419	0.000070
H142	H	-0.189850	1.135746	0.029381
H143	H	-0.225727	1.179738	0.021313
H144	H	-0.153936	1.179728	-0.050482
C145	C	-0.946420	0.594096	0.352255
H146	H	-0.975011	0.570466	0.404464
H147	H	-0.885248	0.628330	0.328635
H148	H	-0.957055	0.556541	0.328634
H149	H	-0.399284	0.605443	-0.206193
C150	C	-1.150483	0.204443	-0.000041
H151	H	-1.165122	0.219115	-0.029362
H152	H	-1.201043	0.175127	0.050505
H153	H	-1.129242	0.175131	-0.021294
C154	C	-0.272503	1.165738	-0.083272
H155	H	-0.229274	1.203273	-0.077582
H156	H	-0.319007	1.171437	-0.063691
H157	H	-0.247210	1.171424	-0.135477
C158	C	-1.082418	0.355816	-0.083360
H159	H	-1.053824	0.408024	-0.106996
H160	H	-1.143589	0.332200	-0.049124
H161	H	-1.071793	0.332188	-0.120911
H162	H	-1.073213	0.209718	0.071957
C163	C	-0.946388	0.325173	0.083301
H164	H	-0.974965	0.272964	0.106918
H165	H	-0.957000	0.348796	0.120853
H166	H	-0.885214	0.348792	0.049047
H167	H	-0.955644	0.749417	0.206169
H168	H	-1.131989	0.222912	0.454454
H169	H	-1.073174	0.749439	0.323692
C170	C	-0.082458	0.760752	0.083326
H171	H	-0.053877	0.784388	0.106951
H172	H	-0.143630	0.726509	0.120870
H173	H	-0.071829	0.798302	0.049072
C174	C	-0.204469	0.677444	-0.473027
H175	H	-0.189821	0.706765	-0.516986
H176	H	-0.225695	0.626898	-0.473044
H177	H	-0.153906	0.698698	-0.473036
H178	H	-1.073214	0.605469	0.467709
C179	C	-0.272525	1.165721	-0.321591
H180	H	-0.229298	1.203278	-0.370494
H181	H	-0.247248	1.171382	-0.294671
H182	H	-0.319038	1.171412	-0.294659
C183	C	-1.150483	0.677465	0.472984
H184	H	-1.165145	0.648159	0.516960
H185	H	-1.201032	0.656227	0.472978
H186	H	-1.129233	0.728023	0.472981
C187	C	-0.677482	0.795263	0.595026
H188	H	-0.677474	0.828685	0.623599
H189	H	-0.728244	0.772216	0.595128
H190	H	-0.626708	0.822979	0.544367
H191	H	-1.073231	0.353666	0.467699
H192	H	-0.281752	1.001198	-0.467697
H193	H	-0.533493	0.471246	-0.071990
H194	H	-0.399313	0.749415	0.072007
H195	H	-0.399339	0.883603	0.072019
C196	C	-0.272480	0.594116	-0.321681
H197	H	-0.301046	0.570478	-0.269480
H198	H	-0.211307	0.628370	-0.345315
H199	H	-0.283104	0.556568	-0.345312
C200	C	0.053610	0.760753	0.083325
H201	H	0.096847	0.755079	0.077635
H202	H	0.007097	0.741160	0.135524
H203	H	0.078888	0.812955	0.063728
C204	C	-0.510844	0.165727	-0.083305
H205	H	-0.522207	0.203275	-0.077621
H206	H	-0.478238	0.171408	-0.135504
H207	H	-0.478239	0.171414	-0.063705
C208	C	-0.408592	1.029655	-0.185557
H209	H	-0.380027	1.081861	-0.190502
H210	H	-0.397970	1.006034	-0.158628
H211	H	-0.469769	1.006025	-0.158636
H212	H	0.044353	0.605440	-0.071998
H213	H	-0.073182	0.605451	-0.072006
C214	C	-0.946370	0.325211	0.185558
H215	H	-0.903132	0.374120	0.148011
H216	H	-0.992885	0.298293	0.179872
H217	H	-0.921093	0.298284	0.179876
C218	C	-1.082426	0.189142	0.321589
H219	H	-1.053828	0.194101	0.269380
H220	H	-1.143597	0.162211	0.345200
H221	H	-1.071805	0.162215	0.345218
H222	H	-0.281743	0.605458	-0.071994
C223	C	-0.844120	0.189138	0.083305
H224	H	-0.891379	0.194086	0.106924
H225	H	-0.847426	0.162211	0.120855
H226	H	-0.847415	0.162213	0.049051
C227	C	-0.408564	0.594116	-0.083324
H228	H	-0.379995	0.570480	-0.106951
H229	H	-0.397946	0.628363	-0.120868
H230	H	-0.469740	0.556567	-0.049073
C231	C	-0.677469	0.559602	0.268901
H232	H	-0.677461	0.567643	0.225668
H233	H	-0.728232	0.511162	0.304897
H234	H	-0.626696	0.561936	0.254134
C235	C	-0.510829	0.355774	-0.083311
H236	H	-0.463569	0.407978	-0.106931
H237	H	-0.507521	0.332148	-0.120860
H238	H	-0.507540	0.332146	-0.049052
C239	C	-0.677490	0.795267	0.268926
H240	H	-0.677483	0.828688	0.297501
H241	H	-0.728254	0.772220	0.269029
H242	H	-0.626718	0.822985	0.218267
H243	H	-0.533518	0.027574	-0.071960
H244	H	-0.821462	0.001158	0.071997
C245	C	-0.844136	-0.136984	0.083323
H246	H	-0.891398	-0.132041	0.106941
H247	H	-0.847443	-0.163911	0.120873
H248	H	-0.847423	-0.163905	0.049065
H249	H	-0.821442	0.327282	0.071957
H250	H	-0.677484	0.779234	0.395729
H251	H	-0.677487	0.779227	0.721841
H252	H	-0.399316	0.749417	-0.350143
C253	C	-0.677445	0.559603	0.731070
H254	H	-0.677425	0.526193	0.702486
H255	H	-0.728205	0.531880	0.781729
H256	H	-0.626669	0.582673	0.730955
C257	C	-0.272545	0.999050	0.083373
H258	H	-0.229326	1.047955	0.077712
H259	H	-0.247265	0.972131	0.063770
H260	H	-0.319070	0.972118	0.135573
C261	C	-0.677469	0.559591	0.595018
H262	H	-0.677478	0.526170	0.623598
H263	H	-0.626705	0.582637	0.544360
H264	H	-0.728241	0.531873	0.595127
C265	C	-0.677469	0.559599	0.404971
H266	H	-0.677479	0.567628	0.448206
H267	H	-0.626704	0.561924	0.368971
H268	H	-0.728240	0.511160	0.419733
H269	H	-0.399306	1.027606	-0.071967
