data_functionalizedCrystal
_audit_creation_method	'MofGen! by Chris Wilmer'
_symmetry_space_group_name_H-M	'P1'
_symmetry_Int_Tables_number	1
_symmetry_cell_setting	triclinic
loop_
_symmetry_equiv_pos_as_xyz
  x,y,z
_cell_length_a	12.594516
_cell_length_b	13.033304
_cell_length_c	13.032268
_cell_angle_alpha	89.077769
_cell_angle_beta	82.847564
_cell_angle_gamma	82.814935
loop_
_atom_site_label
_atom_site_type_symbol
_atom_site_fract_x
_atom_site_fract_y
_atom_site_fract_z
Zn1	Zn	-0.331184	-1.498463	0.781546
Zn2	Zn	-0.484143	-1.520208	0.609584
Zn3	Zn	-0.325559	-1.348324	0.587718
Zn4	Zn	-0.528509	-1.326461	0.759622
O5	O	-0.417349	-1.423364	0.684618
O6	O	-0.335261	-1.645265	0.777062
O7	O	-0.442186	-1.515658	0.462774
O8	O	-0.177357	-1.368289	0.613453
O9	O	-0.447640	-1.661242	0.650722
O10	O	-0.181489	-1.478596	0.755859
O11	O	-0.325675	-1.389375	0.446709
O12	O	-0.368694	-1.201506	0.592194
O13	O	-0.523255	-1.331027	0.906440
O14	O	-0.517801	-1.185443	0.718492
O15	O	-0.378281	-1.457396	0.922548
O16	O	-0.638977	-1.494458	0.629463
O17	O	-0.671573	-1.352113	0.739695
C18	C	-0.447452	-1.156158	0.650592
C19	C	-0.460360	-1.041843	0.636060
C20	C	-0.410626	-0.982960	0.692188
C21	C	-0.423966	-0.864810	0.677170
C22	C	-0.693896	-1.423298	0.684599
C23	C	-0.812199	-1.423359	0.684637
C24	C	-0.899213	-1.345937	0.744543
C25	C	-0.959226	-1.332803	0.647520
C26	C	-0.962976	-1.436585	0.781689
C27	C	-0.870652	-1.410182	0.587557
C28	C	-0.874400	-1.513999	0.721796
C29	C	-0.934368	-1.500909	0.624712
C30	C	-0.139722	-1.423455	0.684662
C31	C	-0.021414	-1.423495	0.684682
C32	C	-0.456344	-1.389347	0.952851
C33	C	-0.472961	-1.374851	1.067156
C34	C	-0.387122	-0.691614	0.718770
C35	C	-0.374225	-0.805929	0.733306
C36	C	-0.378422	-1.457308	0.417435
C37	C	-0.361483	-1.472003	0.303156
C38	C	-0.408640	-1.430914	1.126087
C39	C	-0.425813	-1.415933	1.244227
H40	H	-0.321761	-0.842982	0.792477
C41	C	-0.517391	-1.336109	1.294211
H42	H	-0.516927	-1.336518	1.367058
H43	H	-0.507074	-1.269222	1.267861
H44	H	-0.584680	-1.353360	1.278562
C45	C	-1.009255	-1.229341	0.605077
H46	H	-1.041401	-1.241781	0.545003
H47	H	-1.062638	-1.196661	0.656139
H48	H	-0.954575	-1.185754	0.587889
H49	H	-1.003175	-1.447718	0.863748
H50	H	-0.358168	-1.020020	0.751356
H51	H	-0.340855	-1.489997	1.089076
H52	H	-0.830589	-1.398960	0.505466
H53	H	-0.293690	-1.531089	1.266151
H54	H	-0.540737	-1.315757	1.104166
H55	H	-0.476421	-0.827755	0.617992
C56	C	-0.877554	-1.257369	0.812847
H57	H	-0.906750	-1.193068	0.786292
H58	H	-0.910531	-1.266083	0.881522
H59	H	-0.802009	-1.258306	0.812844
H60	H	-0.512812	-1.004784	0.576886
C61	C	-0.955743	-1.589447	0.556219
H62	H	-0.996526	-1.635376	0.596938
H63	H	-0.994890	-1.561653	0.502255
H64	H	-0.888992	-1.625944	0.527220
C65	C	-0.824386	-1.617454	0.764251
H66	H	-0.856262	-1.626703	0.833230
H67	H	-0.837129	-1.672560	0.722396
H68	H	-0.748915	-1.616919	0.763337
