data_functionalizedCrystal
_audit_creation_method	'MofGen! by Chris Wilmer'
_symmetry_space_group_name_H-M	'P1'
_symmetry_Int_Tables_number	1
_symmetry_cell_setting	triclinic
loop_
_symmetry_equiv_pos_as_xyz
  x,y,z
_cell_length_a	12.759400
_cell_length_b	10.685972
_cell_length_c	10.685880
_cell_angle_alpha	99.082357
_cell_angle_beta	94.339195
_cell_angle_gamma	85.620475
loop_
_atom_site_label
_atom_site_type_symbol
_atom_site_fract_x
_atom_site_fract_y
_atom_site_fract_z
Zn1	Zn	-0.346228	-1.995744	-0.866722
Zn2	Zn	0.153772	-1.495744	-0.366722
Zn3	Zn	-0.509450	-1.979334	-0.654465
Zn4	Zn	-0.009450	-1.479334	-0.154465
Zn5	Zn	-0.346277	-1.767184	-0.638189
Zn6	Zn	0.153723	-1.267184	-0.138189
Zn7	Zn	-0.534361	-1.783447	-0.850364
Zn8	Zn	-0.034361	-1.283447	-0.350364
O9	O	-0.434079	-1.881427	-0.752435
O10	O	0.065921	-1.381427	-0.252435
O11	O	-0.357434	-2.171200	-0.852223
O12	O	0.142566	-1.671200	-0.352223
O13	O	-0.477400	-1.937518	-0.474680
O14	O	0.022600	-1.437518	0.025320
O15	O	-0.199248	-1.797564	-0.668538
O16	O	0.300752	-1.297564	-0.168538
O17	O	-0.477352	-2.159144	-0.696279
O18	O	0.022648	-1.659144	-0.196279
O19	O	-0.199212	-1.965486	-0.836440
O20	O	0.300788	-1.465486	-0.336440
O21	O	-0.357517	-1.781652	-0.462722
O22	O	0.142483	-1.281652	0.037278
O23	O	-0.381673	-1.591708	-0.652677
O24	O	0.118327	-1.091708	-0.152677
O25	O	-0.519810	-1.825282	-1.030160
O26	O	-0.019810	-1.325282	-0.530160
O27	O	-0.519858	-1.603656	-0.808561
O28	O	-0.019858	-1.103656	-0.308561
O29	O	-0.381589	-1.981256	-1.042178
O30	O	0.118411	-1.481256	-0.542178
O31	O	-0.659777	-1.953288	-0.680418
O32	O	-0.159777	-1.453288	-0.180418
O33	O	-0.678080	-1.809370	-0.824344
O34	O	-0.178080	-1.309370	-0.324344
C35	C	-0.453475	-1.551624	-0.727078
C36	C	0.046525	-1.051624	-0.227078
C37	C	-0.461799	-1.410535	-0.716261
C38	C	0.038201	-0.910535	-0.216261
C39	C	-0.707049	-1.881350	-0.752403
C40	C	-0.207049	-1.381350	-0.252403
C41	C	-0.823823	-1.881436	-0.752440
C42	C	-0.323823	-1.381436	-0.252440
C43	C	-0.869120	-1.956471	-0.677595
C44	C	-0.369120	-1.456471	-0.177595
C45	C	-0.978842	-1.956552	-0.677640
C46	C	-0.478842	-1.456552	-0.177640
C47	C	-0.997960	-1.806552	-0.827379
C48	C	-0.497960	-1.306552	-0.327379
C49	C	-0.888241	-1.806479	-0.827340
C50	C	-0.388241	-1.306479	-0.327340
C51	C	-0.804702	-2.031428	-0.602695
C52	C	-0.304702	-1.531428	-0.102695
C53	C	-0.849999	-2.106468	-0.527842
C54	C	-0.349999	-1.606468	-0.027842
C55	C	-0.959721	-2.106549	-0.527887
C56	C	-0.459721	-1.606549	-0.027887
C57	C	-1.024146	-2.031590	-0.602785
C58	C	-0.524146	-1.531590	-0.102785
C59	C	-0.160043	-1.881541	-0.752498
C60	C	0.339957	-1.381541	-0.252498
C61	C	-0.043265	-1.881590	-0.752524
C62	C	0.456735	-1.381590	-0.252524
C63	C	-0.453473	-1.906913	-1.083513
C64	C	0.046527	-1.406913	-0.583513
C65	C	-0.461738	-1.917774	-1.224599
C66	C	0.038262	-1.417774	-0.724599
C67	C	-0.414602	-1.212518	-0.777885
C68	C	0.085398	-0.712518	-0.277885
C69	C	-0.406282	-1.353608	-0.788715
C70	C	0.093718	-0.853608	-0.288715
C71	C	-0.414681	-1.856113	-0.422650
C72	C	0.085319	-1.356113	0.077350
C73	C	-0.406106	-1.845498	-0.281584
C74	C	0.093894	-1.345498	0.218416
H75	H	-0.352378	-1.412807	-0.859020
H76	H	0.147622	-0.912807	-0.359020
Br77	Br	-0.551635	-1.311864	-0.599051
Br78	Br	-0.051635	-0.811864	-0.099051
H79	H	-0.715360	-2.031367	-0.602646
H80	H	-0.215360	-1.531367	-0.102646
H81	H	-0.996598	-2.167660	-0.466949
H82	H	-0.496598	-1.667660	0.033051
H83	H	-0.797538	-2.167505	-0.466871
H84	H	-0.297538	-1.667505	0.033129
H85	H	-1.113488	-2.031673	-0.602827
H86	H	-0.613488	-1.531673	-0.102827
Br87	Br	-1.085393	-1.704828	-0.929017
Br88	Br	-0.585393	-1.204828	-0.429017
H89	H	-0.352157	-1.775301	-1.222435
H90	H	0.147843	-1.275301	-0.722435
Br91	Br	-0.826759	-1.704651	-0.928924
Br92	Br	-0.326759	-1.204651	-0.428924
Br93	Br	-0.551679	-2.034768	-1.323183
Br94	Br	-0.051679	-1.534768	-0.823183
