data_functionalizedCrystal
_audit_creation_method	'MofGen! by Chris Wilmer'
_symmetry_space_group_name_H-M	'P1'
_symmetry_Int_Tables_number	1
_symmetry_cell_setting	triclinic
loop_
_symmetry_equiv_pos_as_xyz
  x,y,z
_cell_length_a	10.654559
_cell_length_b	15.944551
_cell_length_c	9.730223
_cell_angle_alpha	89.997716
_cell_angle_beta	89.999563
_cell_angle_gamma	83.993711
loop_
_atom_site_label
_atom_site_type_symbol
_atom_site_fract_x
_atom_site_fract_y
_atom_site_fract_z
O1	O	1.666300	0.118010	-0.114301
O2	O	2.166300	0.618010	0.385699
O3	O	1.300678	0.129242	-0.114302
O4	O	1.800678	0.629242	0.385698
O5	O	1.493474	0.001409	-0.114289
O6	O	1.993474	0.501409	0.385711
O7	O	1.473505	0.245842	-0.114314
O8	O	1.973505	0.745842	0.385686
O9	O	1.493471	0.001412	0.114291
O10	O	1.993471	0.501412	0.614291
O11	O	1.300676	0.129245	0.114278
O12	O	1.800676	0.629245	0.614278
O13	O	1.666298	0.118013	0.114279
O14	O	2.166298	0.618013	0.614279
Zn15	Zn	1.483487	0.123629	0.150571
Zn16	Zn	1.983487	0.623629	0.650571
Zn17	Zn	1.483490	0.123625	-0.150593
Zn18	Zn	1.983490	0.623625	0.349407
O19	O	1.473503	0.245846	0.114266
O20	O	1.973503	0.745846	0.614266
C21	C	1.253890	0.128417	-0.000012
C22	C	1.753890	0.628417	0.499988
C23	C	1.114479	0.125945	-0.000012
C24	C	1.614479	0.625945	0.499988
C25	C	1.063943	0.048355	-0.000001
C26	C	1.563943	0.548355	0.499999
C27	C	0.932951	0.046037	-0.000011
C28	C	1.432951	0.546037	0.499989
C29	C	0.903041	0.198906	-0.000038
C30	C	1.403041	0.698906	0.499962
C31	C	1.034031	0.201223	-0.000038
C32	C	1.534031	0.701223	0.499962
C33	C	1.144391	-0.026923	0.000025
C34	C	1.644391	0.473077	0.500025
C35	C	1.093857	-0.104519	0.000038
C36	C	1.593857	0.395481	0.500038
C37	C	0.962865	-0.106837	0.000028
C38	C	1.462865	0.393163	0.500028
C39	C	0.882407	-0.031559	0.000005
C40	C	1.382407	0.468441	0.500005
C41	C	1.492643	-0.029888	0.000001
C42	C	1.992643	0.470112	0.500001
C43	C	1.490158	-0.123149	0.000002
C44	C	1.990158	0.376851	0.500002
C45	C	1.364714	-0.338734	-0.000017
C46	C	1.864714	0.161266	0.499983
C47	C	1.422965	-0.399412	0.112687
C48	C	1.922965	0.100588	0.612687
C49	C	1.485662	-0.293901	-0.000009
C50	C	1.985662	0.206099	0.499991
C51	C	1.422996	-0.399398	-0.112675
C52	C	1.922996	0.100602	0.387325
C53	C	1.481310	-0.458839	-0.000025
C54	C	1.981310	0.041161	0.499975
C55	C	1.543946	-0.353350	0.112788
C56	C	2.043946	0.146650	0.612788
C57	C	1.543960	-0.353330	-0.112675
C58	C	2.043960	0.146670	0.387325
C59	C	1.602299	-0.413989	0.000057
C60	C	2.102299	0.086011	0.500057
C61	C	1.488166	-0.198884	0.000002
C62	C	1.988166	0.301116	0.500002
C63	C	1.478816	-0.553854	-0.000025
C64	C	1.978816	-0.053854	0.499975
C65	C	1.713086	0.118838	-0.000014
C66	C	2.213086	0.618838	0.499986
C67	C	1.852497	0.121310	-0.000023
C68	C	2.352497	0.621310	0.499977
C69	C	1.474333	0.277143	-0.000027
C70	C	1.974333	0.777143	0.499973
C71	C	1.476818	0.370403	-0.000037
C72	C	1.976818	0.870403	0.499963
N73	N	1.483494	0.123632	0.356107
N74	N	1.983494	0.623632	0.856107
N75	N	1.483492	0.123616	-0.356130
N76	N	1.983492	0.623616	0.143870
C77	C	1.568885	0.067047	0.428039
C78	C	2.068885	0.567047	0.928039
C79	C	1.568882	0.067037	0.571922
C80	C	2.068882	0.567037	1.071922
C81	C	1.398092	0.180204	0.571928
C82	C	1.898092	0.680204	1.071928
C83	C	1.398090	0.180209	0.428048
C84	C	1.898090	0.680209	0.928048
C85	C	1.654289	0.010469	0.356098
C86	C	2.154289	0.510469	0.856098
C87	C	1.739689	-0.046120	0.428030
C88	C	2.239689	0.453880	0.928030
C89	C	1.739685	-0.046130	0.571913
C90	C	2.239685	0.453870	1.071913
C91	C	1.654283	0.010449	0.643864
C92	C	2.154283	0.510449	1.143864
H93	H	0.837523	0.260193	-0.000054
H94	H	1.337523	0.760193	0.499946
Br95	Br	1.102623	0.306524	-0.000062
Br96	Br	1.602623	0.806524	0.499938
Br97	Br	1.855572	-0.122911	0.330388
Br98	Br	2.355572	0.377089	0.830388
Br99	Br	1.654270	0.010422	0.839135
Br100	Br	2.154270	0.510422	1.339135
Br101	Br	1.282197	0.256986	0.669574
Br102	Br	1.782197	0.756986	1.169574
H103	H	1.328555	0.226285	0.369481
H104	H	1.828555	0.726285	0.869481
Br105	Br	1.769771	-0.468286	0.000154
Br106	Br	2.269771	0.031714	0.500154
Br107	Br	1.654305	0.010487	0.160829
Br108	Br	2.154305	0.510487	0.660829
Br109	Br	1.197388	-0.284193	0.000156
Br110	Br	1.697388	0.215807	0.500156
Br111	Br	1.337698	-0.433385	-0.271471
Br112	Br	1.837698	0.066615	0.228529
Br113	Br	1.203043	-0.206676	0.000047
Br114	Br	1.703043	0.293324	0.500047
Br115	Br	0.894283	-0.212142	0.000014
Br116	Br	1.394283	0.287858	0.500014
H117	H	1.371808	-0.419816	0.207968
H118	H	1.871808	0.080184	0.707968
Br119	Br	1.629145	-0.319541	0.271771
Br120	Br	2.129145	0.180459	0.771771
H121	H	1.595073	-0.332904	-0.207962
H122	H	2.095073	0.167096	0.292038
H123	H	1.251053	-0.025044	0.000037
H124	H	1.751053	0.474956	0.500037
Br125	Br	0.704631	-0.034706	-0.000025
Br126	Br	1.204631	0.465294	0.499975
Br127	Br	1.855567	-0.122935	0.669535
Br128	Br	2.355567	0.377065	1.169535
