data_functionalizedCrystal
_audit_creation_method	'MofGen! by Chris Wilmer'
_symmetry_space_group_name_H-M	'P1'
_symmetry_Int_Tables_number	1
_symmetry_cell_setting	triclinic
loop_
_symmetry_equiv_pos_as_xyz
  x,y,z
_cell_length_a	14.044220
_cell_length_b	14.044220
_cell_length_c	12.503572
_cell_angle_alpha	86.156832
_cell_angle_beta	86.160255
_cell_angle_gamma	86.811123
loop_
_atom_site_label
_atom_site_type_symbol
_atom_site_fract_x
_atom_site_fract_y
_atom_site_fract_z
O1	O	1.282207	-0.225110	-0.089324
O2	O	1.005535	-0.216804	-0.089326
O3	O	1.139717	-0.082622	-0.089314
O4	O	1.148024	-0.359292	-0.089336
O5	O	1.129628	-0.092731	0.089327
O6	O	0.995445	-0.226913	0.089315
O7	O	1.272117	-0.235219	0.089317
Cu8	Cu	1.132860	-0.231989	0.105627
Cu9	Cu	1.144792	-0.220034	-0.105636
O10	O	1.137934	-0.369402	0.089305
C11	C	1.131037	-0.052055	0.000007
C12	C	1.120192	0.054088	0.000008
C13	C	0.964868	-0.218223	-0.000006
C14	C	0.858726	-0.207378	-0.000007
C15	C	1.312784	-0.233800	-0.000005
C16	C	1.418927	-0.244644	-0.000012
C17	C	1.613264	-0.264470	-0.000012
C18	C	1.664394	-0.187556	-0.000006
C19	C	1.772530	-0.198588	-0.000006
C20	C	1.505118	-0.253440	-0.000012
C21	C	1.146615	-0.399968	-0.000018
C22	C	1.157460	-0.506111	-0.000026
N23	N	1.124474	-0.240398	0.254219
C24	C	1.100367	0.248427	-0.000008
C25	C	1.177281	0.299557	-0.000010
C26	C	1.166250	0.407693	-0.000019
C27	C	1.111396	0.140280	0.000001
N28	N	1.153185	-0.211618	-0.254228
C29	C	1.112139	-0.252777	0.473333
C30	C	1.165517	-0.199243	0.526665
C31	C	1.158653	-0.206130	0.648587
C32	C	1.119001	-0.245890	0.351399
H33	H	1.650702	-0.338598	-0.000019
O34	O	1.265683	0.254801	-0.000140
C35	C	1.281882	0.202582	-0.092666
H36	H	1.210442	0.186002	-0.123520
H37	H	1.324169	0.132918	-0.071843
H38	H	1.324132	0.246597	-0.157450
O39	O	1.011921	0.293051	-0.000196
C40	C	0.967245	0.271525	-0.092696
H41	H	1.023982	0.250031	-0.157366
H42	H	0.923384	0.337111	-0.123751
H43	H	0.918243	0.210029	-0.071771
O44	O	1.226068	-0.138182	0.472065
C45	C	1.200790	-0.043973	0.499633
H46	H	1.122568	-0.038955	0.530569
H47	H	1.211761	0.007250	0.425715
H48	H	1.247599	-0.024031	0.564907
O49	O	1.051561	-0.313608	0.528257
C50	C	1.058103	-0.307019	0.639525
H51	H	1.130087	-0.278506	0.654737
H52	H	1.051352	-0.380812	0.682358
H53	H	0.998161	-0.256411	0.671456
H54	H	1.626959	-0.113419	-0.000078
