data_functionalizedCrystal
_audit_creation_method	'MofGen! by Chris Wilmer'
_symmetry_space_group_name_H-M	'P1'
_symmetry_Int_Tables_number	1
_symmetry_cell_setting	triclinic
loop_
_symmetry_equiv_pos_as_xyz
  x,y,z
_cell_length_a	12.645331
_cell_length_b	12.645330
_cell_length_c	12.645331
_cell_angle_alpha	89.998436
_cell_angle_beta	89.999107
_cell_angle_gamma	90.016927
loop_
_atom_site_label
_atom_site_type_symbol
_atom_site_fract_x
_atom_site_fract_y
_atom_site_fract_z
Zn1	Zn	1.620557	-0.422329	0.599250
Zn2	Zn	1.620490	-0.599535	0.421990
Zn3	Zn	1.443323	-0.422284	0.422016
Zn4	Zn	1.443253	-0.599549	0.599226
O5	O	1.531906	-0.510924	0.510620
O6	O	1.768896	-0.445849	0.575735
O7	O	1.596990	-0.575998	0.273646
O8	O	1.466891	-0.273943	0.445546
O9	O	1.768846	-0.576042	0.445503
O10	O	1.597104	-0.273976	0.575760
O11	O	1.466826	-0.445772	0.273665
O12	O	1.294967	-0.445785	0.445524
O13	O	1.466772	-0.576065	0.747577
O14	O	1.294916	-0.576021	0.575720
O15	O	1.597036	-0.445862	0.747594
O16	O	1.596922	-0.747884	0.445480
O17	O	1.466707	-0.747894	0.575695
C18	C	1.256476	-0.510900	0.510623
C19	C	1.138646	-0.510916	0.510649
C20	C	0.971086	-0.593296	0.592129
C21	C	1.093646	-0.593030	0.592469
C22	C	1.094159	-0.399275	0.541171
C23	C	0.971561	-0.399778	0.541745
C24	C	0.971433	-0.539277	0.398390
C25	C	1.094039	-0.541719	0.398996
C26	C	1.531829	-0.786354	0.510606
C27	C	1.531893	-0.904184	0.510635
C28	C	1.450312	-1.071798	0.592805
C29	C	1.449895	-0.949239	0.592541
C30	C	1.501680	-0.948726	0.398916
C31	C	1.501182	-1.071325	0.399415
C32	C	1.644185	-1.071288	0.539276
C33	C	1.643497	-0.948682	0.541719
C34	C	1.808411	-0.510949	0.510618
C35	C	1.926241	-0.510960	0.510617
C36	C	1.531904	-0.510970	0.787126
C37	C	1.531903	-0.510989	0.904956
C38	C	1.532013	-0.234419	0.510658
C39	C	1.532058	-0.116589	0.510675
C40	C	1.449652	-0.592591	1.072509
C41	C	1.449903	-0.592938	0.949949
C42	C	1.643590	-0.541330	0.949462
C43	C	1.643103	-0.541898	1.072060
C44	C	1.503413	-0.398766	1.072157
C45	C	1.500956	-0.399383	0.949551
C46	C	1.531896	-0.510918	1.235191
C47	C	1.531885	-0.510946	1.117361
H48	H	0.941600	-0.676360	0.573211
Br49	Br	1.311865	-0.561283	0.899788
H50	H	1.667240	-0.623901	1.100668
Br51	Br	0.922111	-0.294071	0.447111
H52	H	1.123309	-0.336264	0.483656
Br53	Br	1.363954	-0.361252	0.901086
H54	H	1.123723	-0.675820	0.573341
Br55	Br	1.311342	-0.900486	0.560969
H56	H	1.469037	-1.101249	0.675916
Br57	Br	1.145325	-0.358495	0.676433
Br58	Br	1.480600	-0.730319	1.123959
H59	H	1.122970	-0.574294	0.675625
H60	H	1.366569	-0.573814	1.101993
Br61	Br	1.481322	-0.731488	0.901077
Br62	Br	1.748622	-0.447018	1.121520
H63	H	0.940270	-0.574802	0.674801
H64	H	0.942434	-0.479303	0.337657
H65	H	1.556493	-0.335306	0.918923
H66	H	1.468794	-0.919123	0.675380
H67	H	1.563308	-0.337935	1.101163
H68	H	1.706521	-0.483716	0.920319
Br69	Br	1.684544	-0.676529	0.898310
H70	H	1.423371	-0.371143	1.103070
H71	H	0.940519	-0.619294	0.370648
Br72	Br	1.312630	-1.123312	0.561658
H73	H	1.123128	-0.623870	0.375976
Br74	Br	0.923888	-0.359736	0.678488
Br75	Br	1.145090	-0.449006	0.292336
Br76	Br	1.681478	-0.900165	0.678758
Br77	Br	1.366488	-0.897693	0.357796
Br78	Br	1.750359	-0.897546	0.449284
Br79	Br	1.364570	-1.119132	0.359028
H80	H	1.558140	-1.100954	0.336135
Br81	Br	1.745699	-1.119579	0.439591
H82	H	1.559333	-0.919540	0.336051
H83	H	1.671752	-1.102169	0.619355
