data_functionalizedCrystal
_audit_creation_method	'MofGen! by Chris Wilmer'
_symmetry_space_group_name_H-M	'P1'
_symmetry_Int_Tables_number	1
_symmetry_cell_setting	triclinic
loop_
_symmetry_equiv_pos_as_xyz
  x,y,z
_cell_length_a	15.297475
_cell_length_b	19.121063
_cell_length_c	15.298259
_cell_angle_alpha	82.282989
_cell_angle_beta	88.370891
_cell_angle_gamma	83.156694
loop_
_atom_site_label
_atom_site_type_symbol
_atom_site_fract_x
_atom_site_fract_y
_atom_site_fract_z
Zn1	Zn	1.231887	-0.345844	-0.741846
Zn2	Zn	1.731887	0.154156	-0.241846
Zn3	Zn	1.248464	-0.484465	-0.601430
Zn4	Zn	1.748464	0.015535	-0.101430
Zn5	Zn	1.110319	-0.352579	-0.570365
Zn6	Zn	1.610319	0.147421	-0.070365
Zn7	Zn	1.079144	-0.445477	-0.720860
Zn8	Zn	1.579144	0.054523	-0.220860
O9	O	1.167454	-0.407091	-0.658625
O10	O	1.667454	0.092909	-0.158625
O11	O	1.355823	-0.377731	-0.745003
O12	O	1.855823	0.122269	-0.245003
O13	O	1.250122	-0.486105	-0.475562
O14	O	1.750122	0.013895	0.024438
O15	O	1.132555	-0.254794	-0.588895
O16	O	1.632555	0.245206	-0.088895
O17	O	1.368002	-0.479575	-0.641840
O18	O	1.868002	0.020425	-0.141840
O19	O	1.221870	-0.249846	-0.714881
O20	O	1.721870	0.250154	-0.214881
O21	O	1.148628	-0.389209	-0.452739
O22	O	1.648628	0.110791	0.047261
O23	O	0.984446	-0.351404	-0.568545
O24	O	1.484446	0.148596	-0.068545
O25	O	1.079422	-0.413126	-0.845390
O26	O	1.579422	0.086874	-0.345390
O27	O	0.961542	-0.419656	-0.679113
O28	O	1.461542	0.080344	-0.179113
O29	O	1.191641	-0.339926	-0.860809
O30	O	1.691641	0.160074	-0.360809
O31	O	1.219893	-0.576185	-0.621490
O32	O	1.719893	-0.076185	-0.121490
O33	O	1.095495	-0.547541	-0.709235
O34	O	1.595495	-0.047541	-0.209235
C35	C	0.941429	-0.382031	-0.618181
C36	C	1.441429	0.117969	-0.118181
C37	C	0.844731	-0.371323	-0.600900
C38	C	1.344731	0.128677	-0.100900
C39	C	0.524590	-0.483625	-0.782136
C40	C	1.024590	0.016375	-0.282136
C41	C	0.615443	-0.493691	-0.798370
C42	C	1.115443	0.006309	-0.298370
C43	C	0.672769	-0.463100	-0.749004
C44	C	1.172769	0.036900	-0.249004
C45	C	0.639234	-0.422441	-0.683401
C46	C	1.139234	0.077559	-0.183401
C47	C	0.548372	-0.412379	-0.667161
C48	C	1.048372	0.087621	-0.167161
C49	C	0.696551	-0.391854	-0.634029
C50	C	1.196551	0.108146	-0.134029
C51	C	0.663016	-0.351195	-0.568426
C52	C	1.163016	0.148805	-0.068426
C53	C	0.572163	-0.341134	-0.552190
C54	C	1.072163	0.158866	-0.052190
C55	C	0.514837	-0.371725	-0.601555
C56	C	1.014837	0.128275	-0.101555
C57	C	0.787413	-0.401916	-0.650269
C58	C	1.287413	0.098084	-0.150269
C59	C	0.811195	-0.330670	-0.535295
C60	C	1.311195	0.169330	-0.035295
C61	C	0.720342	-0.320604	-0.519061
C62	C	1.220342	0.179396	-0.019061
C63	C	1.156131	-0.586985	-0.666479
C64	C	1.656131	-0.086985	-0.166479
C65	C	1.151362	-0.663949	-0.669883
C66	C	1.651362	-0.163949	-0.169883
C67	C	1.213924	-0.714994	-0.625852
C68	C	1.713924	-0.214994	-0.125852
C69	C	1.209443	-0.787309	-0.629058
C70	C	1.709443	-0.287309	-0.129058
C71	C	1.142395	-0.808577	-0.676292
C72	C	1.642395	-0.308577	-0.176292
C73	C	1.079830	-0.757525	-0.720328
C74	C	1.579830	-0.257525	-0.220328
C75	C	1.084315	-0.685212	-0.717126
C76	C	1.584315	-0.185212	-0.217126
C77	C	1.125613	-1.026170	-0.688248
C78	C	1.625613	-0.526170	-0.188248
C79	C	1.121131	-1.098490	-0.691445
C80	C	1.621131	-0.598490	-0.191445
C81	C	1.250746	-1.128268	-0.600176
C82	C	1.750746	-0.628268	-0.100176
C83	C	1.255223	-1.055953	-0.596973
C84	C	1.755223	-0.555953	-0.096973
C85	C	1.192660	-1.004907	-0.641014
C86	C	1.692660	-0.504907	-0.141014
C87	C	1.137812	-0.882493	-0.679569
C88	C	1.637812	-0.382493	-0.179569
C89	C	1.197248	-0.930992	-0.637742
C90	C	1.697248	-0.430992	-0.137742
C91	C	1.394360	-0.432250	-0.699228
C92	C	1.894360	0.067750	-0.199228
C93	C	1.491054	-0.442971	-0.716530
C94	C	1.991054	0.057029	-0.216530
C95	C	1.130205	-0.371426	-0.885550
C96	C	1.630205	0.128574	-0.385550
C97	C	1.114332	-0.356227	-0.982252
C98	C	1.614332	0.143773	-0.482252
C99	C	1.178841	-0.226494	-0.650764
C100	C	1.678841	0.273506	-0.150764
C101	C	1.183694	-0.149535	-0.647414
C102	C	1.683694	0.350465	-0.147414
C103	C	1.280962	-0.515187	-1.302363
C104	C	1.780962	-0.015187	-0.802363
C105	C	1.295871	-0.529471	-1.211506
C106	C	1.795871	-0.029471	-0.711506
C107	C	1.250488	-0.486161	-1.154188
C108	C	1.750488	0.013839	-0.654188
C109	C	1.190193	-0.428565	-1.187736
C110	C	1.690193	0.071435	-0.687736
C111	C	1.175278	-0.414284	-1.278601
C112	C	1.675278	0.085716	-0.778601
C113	C	1.144803	-0.385258	-1.130426
C114	C	1.644803	0.114742	-0.630426
C115	C	1.084508	-0.327662	-1.163974
C116	C	1.584508	0.172338	-0.663974
C117	C	1.069596	-0.313383	-1.254830
C118	C	1.569596	0.186617	-0.754830
C119	C	1.114979	-0.356692	-1.312148
C120	C	1.614979	0.143308	-0.812148
C121	C	1.159718	-0.399539	-1.039561
C122	C	1.659718	0.100461	-0.539561
C123	C	1.054034	-0.298636	-1.015799
C124	C	1.554034	0.201364	-0.515799
C125	C	1.039125	-0.284352	-1.106656
C126	C	1.539125	0.215648	-0.606656
C127	C	1.204610	-0.442574	-0.432590
C128	C	1.704610	0.057426	0.067410
C129	C	1.220664	-0.457596	-0.335910
C130	C	1.720664	0.042404	0.164090
H131	H	0.642741	-0.526797	-0.851782
H132	H	1.142741	-0.026797	-0.351782
Cl133	Cl	1.371669	-0.601872	-1.169338
Cl134	Cl	1.871669	-0.101872	-0.669338
Cl135	Cl	0.829561	-0.453027	-0.732740
Cl136	Cl	1.329561	0.046973	-0.232740
Cl137	Cl	1.288100	-0.851478	-0.573705
Cl138	Cl	1.788100	-0.351478	-0.073705
Cl139	Cl	1.281536	-0.904254	-0.578369
Cl140	Cl	1.781536	-0.404254	-0.078369
H141	H	1.020491	-0.266490	-1.282140
H142	H	1.520491	0.233510	-0.782140
H143	H	0.693024	-0.287500	-0.465646
H144	H	1.193024	0.212500	0.034354
H145	H	1.083220	-0.899818	-0.718024
H146	H	1.583220	-0.399818	-0.218024
H147	H	1.309818	-1.038639	-0.558512
H148	H	1.809818	-0.538639	-0.058512
H149	H	0.857871	-0.305761	-0.495096
H150	H	1.357871	0.194239	0.004904
H151	H	1.025241	-0.774846	-0.758791
H152	H	1.525241	-0.274846	-0.258791
H153	H	1.208817	-0.446431	-1.012257
H154	H	1.708817	0.053569	-0.512257
H155	H	1.017078	-0.263370	-0.969130
H156	H	1.517078	0.236630	-0.469130
Cl157	Cl	1.337998	-0.569632	-1.374420
Cl158	Cl	1.837998	-0.069632	-0.874420
Cl159	Cl	1.298213	-0.688266	-0.566463
Cl160	Cl	1.798213	-0.188266	-0.066463
H161	H	1.301683	-1.169837	-0.564322
H162	H	1.801683	-0.669837	-0.064322
H163	H	1.102846	-0.345064	-1.386133
H164	H	1.602846	0.154936	-0.886133
H165	H	0.746745	-0.471297	-0.762226
H166	H	1.246745	0.028703	-0.262226
Cl167	Cl	0.452523	-0.522095	-0.844169
Cl168	Cl	0.952523	-0.022095	-0.344169
Cl169	Cl	1.046961	-0.962008	-0.743612
Cl170	Cl	1.546961	-0.462008	-0.243612
Cl171	Cl	1.036827	-1.125224	-0.750815
Cl172	Cl	1.536827	-0.625224	-0.250815
H173	H	0.440855	-0.363530	-0.588343
H174	H	0.940855	0.136470	-0.088343
Cl175	Cl	1.269236	-0.504116	-1.039967
Cl176	Cl	1.769236	-0.004116	-0.539967
Cl177	Cl	0.530006	-0.290027	-0.469711
Cl178	Cl	1.030006	0.209973	0.030289
Cl179	Cl	1.005664	-0.621039	-0.772485
Cl180	Cl	1.505664	-0.121039	-0.272485
Cl181	Cl	0.963327	-0.211950	-1.148841
Cl182	Cl	1.463327	0.288050	-0.648841
