data_functionalizedCrystal
_audit_creation_method	'MofGen! by Chris Wilmer'
_symmetry_space_group_name_H-M	'P1'
_symmetry_Int_Tables_number	1
_symmetry_cell_setting	triclinic
loop_
_symmetry_equiv_pos_as_xyz
  x,y,z
_cell_length_a	13.339071
_cell_length_b	12.376897
_cell_length_c	13.261948
_cell_angle_alpha	87.011486
_cell_angle_beta	80.572818
_cell_angle_gamma	81.004265
loop_
_atom_site_label
_atom_site_type_symbol
_atom_site_fract_x
_atom_site_fract_y
_atom_site_fract_z
O1	O	1.300429	0.238092	-0.468530
O2	O	1.009272	0.218314	-0.404221
O3	O	1.170243	0.185120	-0.296291
O4	O	1.139457	0.271286	-0.576460
O5	O	1.202582	0.010295	-0.339123
O6	O	1.041611	0.043489	-0.447054
O7	O	1.332767	0.063266	-0.511363
Zn8	Zn	1.192324	0.025620	-0.486009
Zn9	Zn	1.149716	0.255960	-0.429575
O10	O	1.171796	0.096460	-0.619293
C11	C	0.988321	0.127561	-0.414774
C12	C	0.877717	0.117603	-0.382394
C13	C	0.842312	0.086544	-0.281420
C14	C	0.738392	0.077192	-0.250993
C15	C	0.669870	0.098890	-0.321539
C16	C	0.705276	0.129941	-0.422517
C17	C	0.809204	0.139303	-0.452945
C18	C	0.636762	0.151648	-0.493064
C19	C	0.672168	0.182700	-0.594043
C20	C	0.776086	0.192059	-0.624466
C21	C	0.844609	0.170361	-0.553919
C22	C	0.532834	0.142287	-0.462636
C23	C	0.499726	0.195045	-0.634162
C24	C	0.603645	0.204397	-0.664589
N25	N	1.221410	-0.131580	-0.524525
C26	C	1.053084	-0.555188	-0.301626
C27	C	1.032710	-0.445149	-0.274662
C28	C	1.079883	-0.366752	-0.337126
C29	C	1.147433	-0.398403	-0.426558
C30	C	1.167815	-0.508454	-0.453521
C31	C	1.194614	-0.320018	-0.489020
C32	C	1.262164	-0.351669	-0.578452
C33	C	1.282542	-0.461710	-0.605411
C34	C	1.235369	-0.540107	-0.542947
C35	C	1.174233	-0.209968	-0.462057
C36	C	1.288964	-0.163234	-0.613951
C37	C	1.309337	-0.273272	-0.640916
C38	C	1.353717	0.154022	-0.500809
C39	C	1.464321	0.163987	-0.533187
C40	C	1.187664	0.086456	-0.281115
C41	C	1.191382	0.052930	-0.172080
N42	N	1.120638	0.413159	-0.391053
C43	C	1.154374	0.195127	-0.634468
C44	C	1.150656	0.228660	-0.743501
C45	C	1.210744	-0.058120	-0.144182
C46	C	1.214222	-0.089603	-0.041732
C47	C	1.198331	-0.010040	0.032831
C48	C	1.178961	0.101012	0.004934
C49	C	1.175490	0.132498	-0.097527
C50	C	1.163077	0.180578	0.079485
C51	C	1.143707	0.291629	0.051588
C52	C	1.140237	0.323110	-0.050863
C53	C	1.156128	0.243547	-0.125426
C54	C	1.166547	0.149092	0.181946
C55	C	1.131294	0.339709	0.228600
C56	C	1.127815	0.371192	0.126151
H57	H	0.804906	0.217359	-0.706685
F58	F	1.381226	-0.306972	-0.736095
F59	F	1.187161	0.030907	0.211624
F60	F	1.107216	0.489379	0.096445
F61	F	1.354445	-0.495394	-0.700586
H62	H	1.327377	-0.099401	-0.664814
H63	H	1.118355	0.404496	0.289310
F64	F	1.102345	-0.176294	-0.366880
F65	F	0.960800	-0.411466	-0.179501
F66	F	1.119637	0.441302	-0.080552
F67	F	0.641339	0.237447	-0.772054
H68	H	0.709572	0.051911	-0.168776
F69	F	1.202030	-0.043550	0.141867
H70	H	0.898109	0.068889	-0.223990
H71	H	1.014690	-0.619028	-0.250774
H72	H	0.443934	0.212714	-0.691606
H73	H	1.229997	-0.180020	-0.019027
H74	H	1.223689	-0.122887	-0.204899
F75	F	0.495164	0.109239	-0.355172
H76	H	0.929230	0.177969	-0.578690
H77	H	0.585255	0.091273	-0.296759
F78	F	1.058197	-0.249639	-0.308426
H79	H	1.251949	-0.629711	-0.564901
F80	F	1.152397	0.277048	-0.234463
