data_functionalizedCrystal
_audit_creation_method	'MofGen! by Chris Wilmer'
_symmetry_space_group_name_H-M	'P1'
_symmetry_Int_Tables_number	1
_symmetry_cell_setting	triclinic
loop_
_symmetry_equiv_pos_as_xyz
  x,y,z
_cell_length_a	13.032831
_cell_length_b	13.897448
_cell_length_c	13.032268
_cell_angle_alpha	82.851959
_cell_angle_beta	89.113023
_cell_angle_gamma	82.822399
loop_
_atom_site_label
_atom_site_type_symbol
_atom_site_fract_x
_atom_site_fract_y
_atom_site_fract_z
Zn1	Zn	1.498483	-0.651422	0.780818
Zn2	Zn	1.748483	-0.401422	1.030818
Zn3	Zn	1.998483	-0.151422	1.280818
Zn4	Zn	2.248483	0.098578	1.530818
Zn5	Zn	1.520226	-0.795137	0.608835
Zn6	Zn	1.770226	-0.545137	0.858835
Zn7	Zn	2.020226	-0.295137	1.108835
Zn8	Zn	2.270226	-0.045137	1.358835
Zn9	Zn	1.348341	-0.611127	0.587060
Zn10	Zn	1.598341	-0.361127	0.837060
Zn11	Zn	1.848341	-0.111127	1.087060
Zn12	Zn	2.098341	0.138873	1.337060
Zn13	Zn	1.326474	-0.789922	0.758960
Zn14	Zn	1.576474	-0.539922	1.008960
Zn15	Zn	1.826474	-0.289922	1.258960
Zn16	Zn	2.076474	-0.039922	1.508960
O17	O	1.423381	-0.711902	0.683918
O18	O	1.673381	-0.461902	0.933918
O19	O	1.923381	-0.211902	1.183918
O20	O	2.173381	0.038098	1.433918
O21	O	1.645288	-0.689533	0.776265
O22	O	1.895288	-0.439533	1.026265
O23	O	2.145288	-0.189533	1.276265
O24	O	2.395288	0.060467	1.526265
O25	O	1.515676	-0.756047	0.462030
O26	O	1.765676	-0.506047	0.712030
O27	O	2.015676	-0.256047	0.962030
O28	O	2.265676	-0.006047	1.212030
O29	O	1.368309	-0.481501	0.612798
O30	O	1.618309	-0.231501	0.862798
O31	O	1.868309	0.018499	1.112798
O32	O	2.118309	0.268499	1.362798
O33	O	1.661262	-0.795119	0.649909
O34	O	1.911262	-0.545119	0.899909
O35	O	2.161262	-0.295119	1.149909
O36	O	2.411262	-0.045119	1.399909
O37	O	1.478618	-0.511106	0.755151
O38	O	1.728618	-0.261106	1.005151
O39	O	1.978618	-0.011106	1.255151
O40	O	2.228618	0.238894	1.505151
O41	O	1.389393	-0.620856	0.446032
O42	O	1.639393	-0.370856	0.696032
O43	O	1.889393	-0.120856	0.946032
O44	O	2.139393	0.129144	1.196032
O45	O	1.201520	-0.615798	0.591603
O46	O	1.451520	-0.365798	0.841603
O47	O	1.701520	-0.115798	1.091603
O48	O	1.951520	0.134202	1.341603
O49	O	1.331040	-0.786231	0.905776
O50	O	1.581040	-0.536231	1.155776
O51	O	1.831040	-0.286231	1.405776
O52	O	2.081040	-0.036231	1.655776
O53	O	1.185454	-0.747158	0.717897
O54	O	1.435454	-0.497158	0.967897
O55	O	1.685454	-0.247158	1.217897
O56	O	1.935454	0.002842	1.467897
O57	O	1.457414	-0.684476	0.921835
O58	O	1.707414	-0.434476	1.171835
O59	O	1.957414	-0.184476	1.421835
O60	O	2.207414	0.065524	1.671835
O61	O	1.494472	-0.929417	0.628714
O62	O	1.744472	-0.679417	0.878714
O63	O	1.994472	-0.429417	1.128714
O64	O	2.244472	-0.179417	1.378714
O65	O	1.352124	-0.925585	0.739010
O66	O	1.602124	-0.675585	0.989010
O67	O	1.852124	-0.425585	1.239010
O68	O	2.102124	-0.175585	1.489010
C69	C	1.156170	-0.676541	0.650016
C70	C	1.406170	-0.426541	0.900016
C71	C	1.656170	-0.176541	1.150016
C72	C	1.906170	0.073459	1.400016
C73	C	1.041852	-0.661439	0.635536
C74	C	1.291852	-0.411439	0.885536
C75	C	1.541852	-0.161439	1.135536
C76	C	1.791852	0.088561	1.385536
C77	C	1.423310	-0.962504	0.683879
C78	C	1.673310	-0.712504	0.933879
C79	C	1.923310	-0.462504	1.183879
C80	C	2.173310	-0.212504	1.433879
C81	C	1.423369	-1.069728	0.683909
C82	C	1.673369	-0.819728	0.933909
C83	C	1.923369	-0.569728	1.183909
C84	C	2.173369	-0.319728	1.433909
C85	C	0.982977	-0.719784	0.691475
C86	C	1.232977	-0.469784	0.941475
C87	C	1.482977	-0.219784	1.191475
C88	C	1.732977	0.030216	1.441475
C89	C	0.864824	-0.704177	0.676511
C90	C	1.114824	-0.454177	0.926511
C91	C	1.364824	-0.204177	1.176511
C92	C	1.614824	0.045823	1.426511
C93	C	1.423469	-1.266044	0.683987
C94	C	1.673469	-1.016044	0.933987
C95	C	1.923469	-0.766044	1.183987
C96	C	2.173469	-0.516044	1.433987
C97	C	1.423410	-1.156800	0.683946
C98	C	1.673410	-0.906800	0.933946
C99	C	1.923410	-0.656800	1.183946
C100	C	2.173410	-0.406800	1.433946
C101	C	1.691635	-0.747403	0.717954
C102	C	1.941635	-0.497403	0.967954
C103	C	2.191635	-0.247403	1.217954
C104	C	2.441635	0.002597	1.467954
C105	C	1.805950	-0.762531	0.732458
C106	C	2.055950	-0.512531	0.982458
C107	C	2.305950	-0.262531	1.232458
C108	C	2.555950	-0.012531	1.482458
C109	C	1.389363	-0.739266	0.952165
C110	C	1.639363	-0.489266	1.202165
C111	C	1.889363	-0.239266	1.452165
C112	C	2.139363	0.010734	1.702165
C113	C	1.374866	-0.750927	1.066476
C114	C	1.624866	-0.500927	1.316476
C115	C	1.874866	-0.250927	1.566476
C116	C	2.124866	-0.000927	1.816476
C117	C	1.423478	-0.460328	0.683984
C118	C	1.673478	-0.210328	0.933984
C119	C	1.923478	0.039672	1.183984
C120	C	2.173478	0.289672	1.433984
C121	C	1.423519	-0.353122	0.684012
C122	C	1.673519	-0.103122	0.934012
C123	C	1.923519	0.146878	1.184012
C124	C	2.173519	0.396878	1.434012
C125	C	1.457326	-0.684583	0.416723
C126	C	1.707326	-0.434583	0.666723
C127	C	1.957326	-0.184583	0.916723
C128	C	2.207326	0.065417	1.166723
C129	C	1.472021	-0.672677	0.302438
C130	C	1.722021	-0.422677	0.552438
C131	C	1.972021	-0.172677	0.802438
C132	C	2.222021	0.077323	1.052438
C133	C	1.430931	-0.705779	1.125385
C134	C	1.680931	-0.455779	1.375385
C135	C	1.930931	-0.205779	1.625385
C136	C	2.180931	0.044221	1.875385
C137	C	1.415949	-0.717831	1.243531
C138	C	1.665949	-0.467831	1.493531
C139	C	1.915949	-0.217831	1.743531
C140	C	2.165949	0.032169	1.993531
H141	H	1.020043	-0.781288	0.750448
H142	H	1.270043	-0.531288	1.000448
H143	H	1.520043	-0.281288	1.250448
H144	H	1.770043	-0.031288	1.500448
F145	F	0.854384	-0.842920	0.809555
F146	F	1.104384	-0.592920	1.059555
F147	F	1.354384	-0.342920	1.309555
F148	F	1.604384	-0.092920	1.559555
H149	H	1.490017	-0.658201	1.088351
H150	H	1.740017	-0.408201	1.338351
H151	H	1.990017	-0.158201	1.588351
H152	H	2.240017	0.091799	1.838351
H153	H	1.356848	-0.765401	1.280558
H154	H	1.606848	-0.515401	1.530558
H155	H	1.856848	-0.265401	1.780558
H156	H	2.106848	-0.015401	2.030558
H157	H	1.531110	-0.625093	1.265411
H158	H	1.781110	-0.375093	1.515411
H159	H	2.031110	-0.125093	1.765411
H160	H	2.281110	0.124907	2.015411
F161	F	0.816385	-0.623773	0.599433
F162	F	1.066385	-0.373773	0.849433
F163	F	1.316385	-0.123773	1.099433
F164	F	1.566385	0.126227	1.349433
H165	H	1.004785	-0.599929	0.576571
H166	H	1.254785	-0.349929	0.826571
H167	H	1.504785	-0.099929	1.076571
H168	H	1.754785	0.150071	1.326571
F169	F	1.297624	-0.813106	1.114874
F170	F	1.547624	-0.563106	1.364874
F171	F	1.797624	-0.313106	1.614874
F172	F	2.047624	-0.063106	1.864874
