data_functionalizedCrystal
_audit_creation_method	'MofGen! by Chris Wilmer'
_symmetry_space_group_name_H-M	'P1'
_symmetry_Int_Tables_number	1
_symmetry_cell_setting	triclinic
loop_
_symmetry_equiv_pos_as_xyz
  x,y,z
_cell_length_a	21.295417
_cell_length_b	18.215407
_cell_length_c	18.215399
_cell_angle_alpha	90.016824
_cell_angle_beta	89.965438
_cell_angle_gamma	89.969045
loop_
_atom_site_label
_atom_site_type_symbol
_atom_site_fract_x
_atom_site_fract_y
_atom_site_fract_z
Zn1	Zn	-0.250593	-1.125021	-0.416094
Zn2	Zn	-0.000593	-0.875021	-0.166094
Zn3	Zn	0.249407	-0.625021	0.083906
Zn4	Zn	0.499407	-0.375021	0.333906
Zn5	Zn	-0.355869	-1.124924	-0.293019
Zn6	Zn	-0.105869	-0.874924	-0.043019
Zn7	Zn	0.144131	-0.624924	0.206981
Zn8	Zn	0.394131	-0.374924	0.456981
Zn9	Zn	-0.250618	-1.001960	-0.293042
Zn10	Zn	-0.000618	-0.751960	-0.043042
Zn11	Zn	0.249382	-0.501960	0.206958
Zn12	Zn	0.499382	-0.251960	0.456958
Zn13	Zn	-0.355829	-1.001908	-0.416044
Zn14	Zn	-0.105829	-0.751908	-0.166044
Zn15	Zn	0.144171	-0.501908	0.083956
Zn16	Zn	0.394171	-0.251908	0.333956
O17	O	-0.303227	-1.063453	-0.354550
O18	O	-0.053227	-0.813453	-0.104550
O19	O	0.196773	-0.563453	0.145450
O20	O	0.446773	-0.313453	0.395450
O21	O	-0.264564	-1.227993	-0.399780
O22	O	-0.014564	-0.977993	-0.149780
O23	O	0.235436	-0.727993	0.100220
O24	O	0.485436	-0.477993	0.350220
O25	O	-0.341934	-1.108594	-0.190038
O26	O	-0.091934	-0.858594	0.059962
O27	O	0.158066	-0.608594	0.309962
O28	O	0.408066	-0.358594	0.559962
O29	O	-0.162525	-1.018347	-0.309396
O30	O	0.087475	-0.768347	-0.059396
O31	O	0.337475	-0.518347	0.190604
O32	O	0.587475	-0.268347	0.440604
O33	O	-0.341910	-1.227921	-0.309357
O34	O	-0.091910	-0.977921	-0.059357
O35	O	0.158090	-0.727921	0.190643
O36	O	0.408090	-0.477921	0.440643
O37	O	-0.162507	-1.108760	-0.399802
O38	O	0.087493	-0.858760	-0.149802
O39	O	0.337493	-0.608760	0.100198
O40	O	0.587493	-0.358760	0.350198
O41	O	-0.264607	-1.018253	-0.190054
O42	O	-0.014607	-0.768253	0.059946
O43	O	0.235393	-0.518253	0.309946
O44	O	0.485393	-0.268253	0.559946
O45	O	-0.264569	-0.898969	-0.309347
O46	O	-0.014569	-0.648969	-0.059347
O47	O	0.235431	-0.398969	0.190653
O48	O	0.485431	-0.148969	0.440653
O49	O	-0.341843	-1.018258	-0.519035
O50	O	-0.091843	-0.768258	-0.269035
O51	O	0.158157	-0.518258	-0.019035
O52	O	0.408157	-0.268258	0.230965
O53	O	-0.341867	-0.898930	-0.399716
O54	O	-0.091867	-0.648930	-0.149716
O55	O	0.158133	-0.398930	0.100284
O56	O	0.408133	-0.148930	0.350284
O57	O	-0.264526	-1.108709	-0.519072
O58	O	-0.014526	-0.858709	-0.269072
O59	O	0.235474	-0.608709	-0.019072
O60	O	0.485474	-0.358709	0.230928
O61	O	-0.443953	-1.108543	-0.309308
O62	O	-0.193953	-0.858543	-0.059308
O63	O	0.056047	-0.608543	0.190692
O64	O	0.306047	-0.358543	0.440692
O65	O	-0.443924	-1.018163	-0.399694
O66	O	-0.193924	-0.768163	-0.149694
O67	O	0.056076	-0.518163	0.100306
O68	O	0.306076	-0.268163	0.350306
C69	C	-0.303217	-0.872247	-0.354529
C70	C	-0.053217	-0.622247	-0.104529
C71	C	0.196783	-0.372247	0.145471
C72	C	0.446783	-0.122247	0.395471
C73	C	-0.303227	-0.790448	-0.354537
C74	C	-0.053227	-0.540448	-0.104537
C75	C	0.196773	-0.290448	0.145463
C76	C	0.446773	-0.040448	0.395463
C77	C	-0.466779	-1.063357	-0.354509
C78	C	-0.216779	-0.813357	-0.104509
C79	C	0.033221	-0.563357	0.145491
C80	C	0.283221	-0.313357	0.395491
C81	C	-0.536747	-1.063383	-0.354516
C82	C	-0.286747	-0.813383	-0.104516
C83	C	-0.036747	-0.563383	0.145484
C84	C	0.213253	-0.313383	0.395484
C85	C	-0.303177	-1.063488	-0.546503
C86	C	-0.053177	-0.813488	-0.296503
C87	C	0.196823	-0.563488	-0.046503
C88	C	0.446823	-0.313488	0.203497
C89	C	-0.303156	-1.063503	-0.628302
C90	C	-0.053156	-0.813503	-0.378302
C91	C	0.196844	-0.563503	-0.128302
C92	C	0.446844	-0.313503	0.121698
C93	C	-0.569608	-1.110485	-0.307500
C94	C	-0.319608	-0.860485	-0.057500
C95	C	-0.069608	-0.610485	0.192500
C96	C	0.180392	-0.360485	0.442500
C97	C	-0.635350	-1.110520	-0.307517
C98	C	-0.385350	-0.860520	-0.057517
C99	C	-0.135350	-0.610520	0.192483
C100	C	0.114650	-0.360520	0.442483
C101	C	-0.668230	-1.063439	-0.354542
C102	C	-0.418230	-0.813439	-0.104542
C103	C	-0.168230	-0.563439	0.145458
C104	C	0.081770	-0.313439	0.395458
C105	C	-0.635361	-1.016333	-0.401566
C106	C	-0.385361	-0.766333	-0.151566
C107	C	-0.135361	-0.516333	0.098434
C108	C	0.114639	-0.266333	0.348434
C109	C	-0.569620	-1.016305	-0.401554
C110	C	-0.319620	-0.766305	-0.151554
C111	C	-0.069620	-0.516305	0.098446
C112	C	0.180380	-0.266305	0.348446
N113	N	-0.771496	-0.999060	-0.360145
N114	N	-0.521496	-0.749060	-0.110145
N115	N	-0.271496	-0.499060	0.139855
N116	N	-0.021496	-0.249060	0.389855
N117	N	-0.833947	-0.999088	-0.360153
N118	N	-0.583947	-0.749088	-0.110153
N119	N	-0.333947	-0.499088	0.139847
N120	N	-0.083947	-0.249088	0.389847
C121	C	-0.866304	-1.063521	-0.354584
C122	C	-0.616304	-0.813521	-0.104584
C123	C	-0.366304	-0.563521	0.145416
C124	C	-0.116304	-0.313521	0.395416
N125	N	-0.833851	-1.127926	-0.348993
N126	N	-0.583851	-0.877926	-0.098993
N127	N	-0.333851	-0.627926	0.151007
N128	N	-0.083851	-0.377926	0.401007
N129	N	-0.771394	-1.127896	-0.348981
N130	N	-0.521394	-0.877896	-0.098981
N131	N	-0.271394	-0.627896	0.151019
N132	N	-0.021394	-0.377896	0.401019
C133	C	-0.739515	-1.063464	-0.354561
C134	C	-0.489515	-0.813464	-0.104561
C135	C	-0.239515	-0.563464	0.145439
C136	C	0.010485	-0.313464	0.395439
C137	C	-0.970451	-1.110665	-0.307584
C138	C	-0.720451	-0.860665	-0.057584
C139	C	-0.470451	-0.610665	0.192416
C140	C	-0.220451	-0.360665	0.442416
C141	C	-1.036194	-1.110701	-0.307605
C142	C	-0.786194	-0.860701	-0.057605
C143	C	-0.536194	-0.610701	0.192395
C144	C	-0.286194	-0.360701	0.442395
C145	C	-1.036203	-1.016507	-0.401651
C146	C	-0.786203	-0.766507	-0.151651
C147	C	-0.536203	-0.516507	0.098349
C148	C	-0.286203	-0.266507	0.348349
C149	C	-0.970461	-1.016478	-0.401633
C150	C	-0.720461	-0.766478	-0.151633
C151	C	-0.470461	-0.516478	0.098367
C152	C	-0.220461	-0.266478	0.348367
C153	C	-0.937589	-1.063556	-0.354595
C154	C	-0.687589	-0.813556	-0.104595
C155	C	-0.437589	-0.563556	0.145405
C156	C	-0.187589	-0.313556	0.395405
C157	C	-0.139037	-1.063570	-0.354607
C158	C	0.110963	-0.813570	-0.104607
C159	C	0.360963	-0.563570	0.145393
C160	C	0.610963	-0.313570	0.395393
C161	C	-0.069069	-1.063620	-0.354631
C162	C	0.180931	-0.813620	-0.104631
C163	C	0.430931	-0.563620	0.145369
C164	C	0.680931	-0.313620	0.395369
C165	C	-0.303239	-1.255406	-0.354571
C166	C	-0.053239	-1.005406	-0.104571
C167	C	0.196761	-0.755406	0.145429
C168	C	0.446761	-0.505406	0.395429
C169	C	-0.303243	-1.337205	-0.354581
C170	C	-0.053243	-1.087205	-0.104581
C171	C	0.196757	-0.837205	0.145419
C172	C	0.446757	-0.587205	0.395419
C173	C	-0.343540	-0.602253	-0.401533
C174	C	-0.093540	-0.352253	-0.151533
C175	C	0.156460	-0.102253	0.098467
C176	C	0.406460	0.147747	0.348467
C177	C	-0.343542	-0.525395	-0.401542
C178	C	-0.093542	-0.275395	-0.151542
C179	C	0.156458	-0.025395	0.098458
C180	C	0.406458	0.224605	0.348458
C181	C	-0.262927	-0.525405	-0.307582
C182	C	-0.012927	-0.275405	-0.057582
C183	C	0.237073	-0.025405	0.192418
C184	C	0.487073	0.224595	0.442418
C185	C	-0.262922	-0.602263	-0.307577
C186	C	-0.012922	-0.352263	-0.057577
C187	C	0.237078	-0.102263	0.192423
C188	C	0.487078	0.147737	0.442423
C189	C	-0.303232	-0.640685	-0.354552
C190	C	-0.053232	-0.390685	-0.104552
C191	C	0.196768	-0.140685	0.145448
C192	C	0.446768	0.109315	0.395448
C193	C	-0.303239	-0.486969	-0.354566
C194	C	-0.053239	-0.236969	-0.104566
C195	C	0.196761	0.013031	0.145434
C196	C	0.446761	0.263031	0.395434
C197	C	-0.303240	-0.403635	-0.354575
C198	C	-0.053240	-0.153635	-0.104575
C199	C	0.196760	0.096365	0.145425
C200	C	0.446760	0.346365	0.395425
C201	C	-0.303229	-0.724024	-0.354543
C202	C	-0.053229	-0.474024	-0.104543
C203	C	0.196771	-0.224024	0.145457
C204	C	0.446771	0.025976	0.395457
C205	C	-0.262864	-1.016502	-0.816505
C206	C	-0.012864	-0.766502	-0.566505
C207	C	0.237136	-0.516502	-0.316505
C208	C	0.487136	-0.266502	-0.066505
C209	C	-0.262852	-1.016515	-0.893364
C210	C	-0.012852	-0.766515	-0.643364
C211	C	0.237148	-0.516515	-0.393364
C212	C	0.487148	-0.266515	-0.143364
C213	C	-0.343372	-1.110592	-0.893336
C214	C	-0.093372	-0.860592	-0.643336
C215	C	0.156628	-0.610592	-0.393336
C216	C	0.406628	-0.360592	-0.143336
C217	C	-0.343387	-1.110575	-0.816479
C218	C	-0.093387	-0.860575	-0.566479
C219	C	0.156613	-0.610575	-0.316479
C220	C	0.406613	-0.360575	-0.066479
C221	C	-0.303130	-1.063531	-0.778065
C222	C	-0.053130	-0.813531	-0.528065
C223	C	0.196870	-0.563531	-0.278065
C224	C	0.446870	-0.313531	-0.028065
C225	C	-0.303102	-1.063561	-0.931781
C226	C	-0.053102	-0.813561	-0.681781
C227	C	0.196898	-0.563561	-0.431781
C228	C	0.446898	-0.313561	-0.181781
C229	C	-0.303088	-1.063575	-1.015115
C230	C	-0.053088	-0.813575	-0.765115
C231	C	0.196912	-0.563575	-0.515115
C232	C	0.446912	-0.313575	-0.265115
C233	C	-0.303144	-1.063516	-0.694726
C234	C	-0.053144	-0.813516	-0.444726
C235	C	0.196856	-0.563516	-0.194726
C236	C	0.446856	-0.313516	0.055274
C237	C	-0.303232	-1.063461	-0.163344
C238	C	-0.053232	-0.813461	0.086656
C239	C	0.196768	-0.563461	0.336656
C240	C	0.446768	-0.313461	0.586656
C241	C	-0.303076	-1.063589	-0.081545
C242	C	-0.053076	-0.813589	0.168455
C243	C	0.196924	-0.563589	0.418455
C244	C	0.446924	-0.313589	0.668455
H245	H	-0.542845	-1.148821	-0.269202
H246	H	-0.292845	-0.898821	-0.019202
H247	H	-0.042845	-0.648821	0.230798
H248	H	0.207155	-0.398821	0.480798
H249	H	-0.376179	-1.148873	-0.785180
H250	H	-0.126179	-0.898873	-0.535180
H251	H	0.123821	-0.648873	-0.285180
H252	H	0.373821	-0.398873	-0.035180
H253	H	-0.376363	-0.494107	-0.439801
H254	H	-0.126363	-0.244107	-0.189801
H255	H	0.123637	0.005893	0.060199
H256	H	0.373637	0.255893	0.310199
H257	H	-0.943685	-1.149001	-0.269285
H258	H	-0.693685	-0.899001	-0.019285
H259	H	-0.443685	-0.649001	0.230715
H260	H	-0.193685	-0.399001	0.480715
H261	H	-0.376361	-0.633534	-0.439785
H262	H	-0.126361	-0.383534	-0.189785
H263	H	0.123639	-0.133534	0.060215
H264	H	0.373639	0.116466	0.310215
H265	H	-1.062949	-1.149062	-0.269321
H266	H	-0.812949	-0.899062	-0.019321
H267	H	-0.562949	-0.649062	0.230679
H268	H	-0.312949	-0.399062	0.480679
H269	H	-0.230108	-0.494113	-0.269336
H270	H	0.019892	-0.244113	-0.019336
H271	H	0.269892	0.005887	0.230664
H272	H	0.519892	0.255887	0.480664
H273	H	-0.230095	-0.633554	-0.269319
H274	H	0.019905	-0.383554	-0.019319
H275	H	0.269905	-0.133554	0.230681
H276	H	0.519905	0.116446	0.480681
H277	H	-1.062973	-0.978176	-0.439942
H278	H	-0.812973	-0.728176	-0.189942
H279	H	-0.562973	-0.478176	0.060058
H280	H	-0.312973	-0.228176	0.310058
H281	H	-0.230084	-0.978196	-0.785231
H282	H	0.019916	-0.728196	-0.535231
H283	H	0.269916	-0.478196	-0.285231
H284	H	0.519916	-0.228196	-0.035231
H285	H	-0.943704	-0.978120	-0.439914
H286	H	-0.693704	-0.728120	-0.189914
H287	H	-0.443704	-0.478120	0.060086
H288	H	-0.193704	-0.228120	0.310086
H289	H	-0.376148	-1.148894	-0.924622
H290	H	-0.126148	-0.898894	-0.674622
H291	H	0.123852	-0.648894	-0.424622
H292	H	0.373852	-0.398894	-0.174622
H293	H	-0.662111	-1.148879	-0.269231
H294	H	-0.412111	-0.898879	-0.019231
H295	H	-0.162111	-0.648879	0.230769
H296	H	0.087889	-0.398879	0.480769
H297	H	-0.662135	-0.978001	-0.439855
H298	H	-0.412135	-0.728001	-0.189855
H299	H	-0.162135	-0.478001	0.060145
H300	H	0.087865	-0.228001	0.310145
H301	H	-0.542864	-0.977948	-0.439840
H302	H	-0.292864	-0.727948	-0.189840
H303	H	-0.042864	-0.477948	0.060160
H304	H	0.207136	-0.227948	0.310160
H305	H	-0.230064	-0.978219	-0.924659
H306	H	0.019936	-0.728219	-0.674659
H307	H	0.269936	-0.478219	-0.424659
H308	H	0.519936	-0.228219	-0.174659
