data_functionalizedCrystal
_audit_creation_method	'MofGen! by Chris Wilmer'
_symmetry_space_group_name_H-M	'P1'
_symmetry_Int_Tables_number	1
_symmetry_cell_setting	triclinic
loop_
_symmetry_equiv_pos_as_xyz
  x,y,z
_cell_length_a	14.519709
_cell_length_b	19.288813
_cell_length_c	17.766277
_cell_angle_alpha	89.984873
_cell_angle_beta	89.996216
_cell_angle_gamma	83.397823
loop_
_atom_site_label
_atom_site_type_symbol
_atom_site_fract_x
_atom_site_fract_y
_atom_site_fract_z
O1	O	1.223274	0.091052	-0.062513
O2	O	1.473274	0.341052	0.187487
O3	O	1.723274	0.591052	0.437487
O4	O	1.973274	0.841052	0.687487
O5	O	0.954727	0.101774	-0.062538
O6	O	1.204727	0.351774	0.187462
O7	O	1.454727	0.601774	0.437462
O8	O	1.704727	0.851774	0.687462
O9	O	1.096785	-0.004692	-0.062501
O10	O	1.346785	0.245308	0.187499
O11	O	1.596785	0.495308	0.437499
O12	O	1.846785	0.745308	0.687499
O13	O	1.081216	0.197518	-0.062550
O14	O	1.331216	0.447518	0.187450
O15	O	1.581216	0.697518	0.437450
O16	O	1.831216	0.947518	0.687450
O17	O	1.096759	-0.004695	0.062687
O18	O	1.346759	0.245305	0.312687
O19	O	1.596759	0.495305	0.562687
O20	O	1.846759	0.745305	0.812687
O21	O	0.954702	0.101771	0.062650
O22	O	1.204702	0.351771	0.312650
O23	O	1.454702	0.601771	0.562650
O24	O	1.704702	0.851771	0.812650
O25	O	1.223249	0.091049	0.062675
O26	O	1.473249	0.341049	0.312675
O27	O	1.723249	0.591049	0.562675
O28	O	1.973249	0.841049	0.812675
Cu29	Cu	1.088973	0.096410	0.074093
Cu30	Cu	1.338973	0.346410	0.324093
Cu31	Cu	1.588973	0.596410	0.574093
Cu32	Cu	1.838973	0.846410	0.824093
Cu33	Cu	1.089003	0.096413	-0.073957
Cu34	Cu	1.339003	0.346413	0.176043
Cu35	Cu	1.589003	0.596413	0.426043
Cu36	Cu	1.839003	0.846413	0.676043
O37	O	1.081191	0.197515	0.062638
O38	O	1.331191	0.447515	0.312638
O39	O	1.581191	0.697515	0.562638
O40	O	1.831191	0.947515	0.812638
C41	C	0.920358	0.101273	0.000053
C42	C	1.170358	0.351273	0.250053
C43	C	1.420358	0.601273	0.500053
C44	C	1.670358	0.851273	0.750053
C45	C	0.817986	0.099776	0.000045
C46	C	1.067986	0.349776	0.250045
C47	C	1.317986	0.599776	0.500045
C48	C	1.567986	0.849776	0.750045
C49	C	1.096279	-0.030572	0.000097
C50	C	1.346279	0.219428	0.250097
C51	C	1.596279	0.469428	0.500097
C52	C	1.846279	0.719428	0.750097
C53	C	1.094799	-0.107683	0.000111
C54	C	1.344799	0.142317	0.250111
C55	C	1.594799	0.392317	0.500111
C56	C	1.844799	0.642317	0.750111
N57	N	1.088959	0.096407	0.178224
N58	N	1.338959	0.346407	0.428224
N59	N	1.588959	0.596407	0.678224
N60	N	1.838959	0.846407	0.928224
C61	C	0.443127	0.094263	0.000080
C62	C	0.693127	0.344263	0.250080
C63	C	0.943127	0.594263	0.500080
C64	C	1.193127	0.844263	0.750080
C65	C	0.547425	0.095794	0.000070
C66	C	0.797425	0.345794	0.250070
C67	C	1.047425	0.595794	0.500070
C68	C	1.297425	0.845794	0.750070
C69	C	0.630553	0.097019	0.000062
C70	C	0.880553	0.347019	0.250062
C71	C	1.130553	0.597019	0.500062
C72	C	1.380553	0.847019	0.750062
C73	C	0.734858	0.098550	0.000053
C74	C	0.984858	0.348550	0.250053
C75	C	1.234858	0.598550	0.500053
C76	C	1.484858	0.848550	0.750053
C77	C	1.257618	0.091550	0.000082
C78	C	1.507618	0.341550	0.250082
C79	C	1.757618	0.591550	0.500082
C80	C	2.007618	0.841550	0.750082
C81	C	1.359990	0.093048	0.000086
C82	C	1.609990	0.343048	0.250086
C83	C	1.859990	0.593048	0.500086
C84	C	2.109990	0.843048	0.750086
C85	C	1.081697	0.223395	0.000038
C86	C	1.331697	0.473395	0.250038
C87	C	1.581697	0.723395	0.500038
C88	C	1.831697	0.973395	0.750038
C89	C	1.083177	0.300506	0.000019
C90	C	1.333177	0.550506	0.250019
C91	C	1.583177	0.800506	0.500019
C92	C	1.833177	1.050506	0.750019
C93	C	1.083882	0.336701	0.068264
C94	C	1.333882	0.586701	0.318264
C95	C	1.583882	0.836701	0.568264
C96	C	1.833882	1.086701	0.818264
C97	C	1.085298	0.409153	0.068277
C98	C	1.335298	0.659153	0.318277
C99	C	1.585298	0.909153	0.568277
C100	C	1.835298	1.159153	0.818277
C101	C	1.086028	0.445404	0.000042
C102	C	1.336028	0.695404	0.250042
C103	C	1.586028	0.945404	0.500042
C104	C	1.836028	1.195404	0.750042
C105	C	1.085318	0.409201	-0.068211
C106	C	1.335318	0.659201	0.181789
C107	C	1.585318	0.909201	0.431789
C108	C	1.835318	1.159201	0.681789
C109	C	1.083893	0.336752	-0.068223
C110	C	1.333893	0.586752	0.181777
C111	C	1.583893	0.836752	0.431777
C112	C	1.833893	1.086752	0.681777
C113	C	1.142315	0.554935	-0.052215
C114	C	1.392315	0.804935	0.197785
C115	C	1.642315	1.054935	0.447785
C116	C	1.892315	1.304935	0.697785
C117	C	1.143746	0.627383	-0.052201
C118	C	1.393746	0.877383	0.197799
C119	C	1.643746	1.127383	0.447799
C120	C	1.893746	1.377383	0.697799
C121	C	1.090421	0.668862	0.000073
C122	C	1.340421	0.918862	0.250073
C123	C	1.590421	1.168862	0.500073
C124	C	1.840421	1.418862	0.750073
C125	C	1.035676	0.637884	0.052347
C126	C	1.285676	0.887884	0.302347
C127	C	1.535676	1.137884	0.552347
C128	C	1.785676	1.387884	0.802347
C129	C	1.034251	0.565435	0.052335
C130	C	1.284251	0.815435	0.302335
C131	C	1.534251	1.065435	0.552335
C132	C	1.784251	1.315435	0.802335
C133	C	1.087573	0.523963	0.000046
C134	C	1.337573	0.773963	0.250046
C135	C	1.587573	1.023963	0.500046
C136	C	1.837573	1.273963	0.750046
C137	C	1.092660	0.783617	0.068336
C138	C	1.342660	1.033617	0.318336
C139	C	1.592660	1.283617	0.568336
C140	C	1.842660	1.533617	0.818336
C141	C	1.094070	0.856070	0.068346
C142	C	1.344070	1.106070	0.318346
C143	C	1.594070	1.356070	0.568346
C144	C	1.844070	1.606070	0.818346
C145	C	1.094099	0.856116	-0.068144
C146	C	1.344099	1.106116	0.181856
C147	C	1.594099	1.356116	0.431856
C148	C	1.844099	1.606116	0.681856
C149	C	1.092680	0.783665	-0.068152
C150	C	1.342680	1.033665	0.181848
C151	C	1.592680	1.283665	0.431848
C152	C	1.842680	1.533665	0.681848
C153	C	1.091964	0.747420	0.000090
C154	C	1.341964	0.997420	0.250090
C155	C	1.591964	1.247420	0.500090
C156	C	1.841964	1.497420	0.750090
N157	N	1.089025	0.096411	-0.178087
N158	N	1.339025	0.346411	0.071913
N159	N	1.589025	0.596411	0.321913
N160	N	1.839025	0.846411	0.571913
C161	C	1.144696	0.138632	0.217599
C162	C	1.394696	0.388632	0.467599
C163	C	1.644696	0.638632	0.717599
C164	C	1.894696	0.888632	0.967599
C165	C	1.144710	0.138630	0.296401
C166	C	1.394710	0.388630	0.546401
C167	C	1.644710	0.638630	0.796401
C168	C	1.894710	0.888630	1.046401
C169	C	1.088970	0.096411	0.335824
C170	C	1.338970	0.346411	0.585824
C171	C	1.588970	0.596411	0.835824
C172	C	1.838970	0.846411	1.085824
C173	C	1.033230	0.054177	0.296439
C174	C	1.283230	0.304177	0.546439
C175	C	1.533230	0.554177	0.796439
C176	C	1.783230	0.804177	1.046439
C177	C	1.033224	0.054175	0.217639
C178	C	1.283224	0.304175	0.467639
C179	C	1.533224	0.554175	0.717639
C180	C	1.783224	0.804175	0.967639
C181	C	1.005840	0.094355	0.460677
C182	C	1.255840	0.344355	0.710677
C183	C	1.505840	0.594355	0.960677
C184	C	1.755840	0.844355	1.210677
C185	C	1.005843	0.094362	0.539476
C186	C	1.255843	0.344362	0.789476
C187	C	1.505843	0.594362	1.039476
C188	C	1.755843	0.844362	1.289476
C189	C	1.088990	0.096413	0.578871
C190	C	1.338990	0.346413	0.828871
C191	C	1.588990	0.596413	1.078871
C192	C	1.838990	0.846413	1.328871
C193	C	1.172133	0.098472	0.539457
C194	C	1.422133	0.348472	0.789457
C195	C	1.672133	0.598472	1.039457
C196	C	1.922133	0.848472	1.289457
C197	C	1.172127	0.098470	0.460657
C198	C	1.422127	0.348470	0.710657
C199	C	1.672127	0.598470	0.960657
C200	C	1.922127	0.848470	1.210657
C201	C	1.088971	0.096408	0.421270
C202	C	1.338971	0.346408	0.671270
C203	C	1.588971	0.596408	0.921270
C204	C	1.838971	0.846408	1.171270
C205	C	1.144747	0.138639	0.703692
C206	C	1.394747	0.388639	0.953692
C207	C	1.644747	0.638639	1.203692
C208	C	1.894747	0.888639	1.453692
C209	C	1.144764	0.138632	0.782495
C210	C	1.394764	0.388632	1.032495
C211	C	1.644764	0.638632	1.282495
C212	C	1.894764	0.888632	1.532495
C213	C	1.033275	0.054182	0.782532
C214	C	1.283275	0.304182	1.032532
C215	C	1.533275	0.554182	1.282532
C216	C	1.783275	0.804182	1.532532
C217	C	1.033267	0.054185	0.703731
C218	C	1.283267	0.304185	0.953731
C219	C	1.533267	0.554185	1.203731
C220	C	1.783267	0.804185	1.453731
C221	C	1.089002	0.096417	0.664315
C222	C	1.339002	0.346417	0.914315
C223	C	1.589002	0.596417	1.164315
C224	C	1.839002	0.846417	1.414315
H225	H	1.083298	0.307194	0.123832
H226	H	1.333298	0.557194	0.373832
H227	H	1.583298	0.807194	0.623832
H228	H	1.833298	1.057194	0.873832
H229	H	1.185735	0.521169	-0.094792
H230	H	1.435735	0.771169	0.155208
H231	H	1.685735	1.021169	0.405208
H232	H	1.935735	1.271169	0.655208
F233	F	1.091894	0.745040	0.140964
F234	F	1.341894	0.995040	0.390964
F235	F	1.591894	1.245040	0.640964
F236	F	1.841894	1.495040	0.890964
H237	H	0.989676	0.540215	0.094898
H238	H	1.239676	0.790215	0.344898
H239	H	1.489676	1.040215	0.594898
H240	H	1.739676	1.290215	0.844898
H241	H	1.094642	0.885539	0.123921
H242	H	1.344642	1.135539	0.373921
H243	H	1.594642	1.385539	0.623921
H244	H	1.844642	1.635539	0.873921
F245	F	1.094847	0.894696	-0.140765
F246	F	1.344847	1.144696	0.109235
F247	F	1.594847	1.394696	0.359235
F248	F	1.844847	1.644696	0.609235
F249	F	1.204095	0.183573	0.824401
F250	F	1.454095	0.433573	1.074401
F251	F	1.704095	0.683573	1.324401
F252	F	1.954095	0.933573	1.574401
H253	H	0.987847	0.019801	0.328543
H254	H	1.237847	0.269801	0.578543
H255	H	1.487847	0.519801	0.828543
H256	H	1.737847	0.769801	1.078543
H257	H	1.190083	0.173018	0.185512
H258	H	1.440083	0.423018	0.435512
H259	H	1.690083	0.673018	0.685512
H260	H	1.940083	0.923018	0.935512
H261	H	1.190099	0.173017	0.328466
H262	H	1.440099	0.423017	0.578466
H263	H	1.690099	0.673017	0.828466
H264	H	1.940099	0.923017	1.078466
F265	F	1.086055	0.447681	0.140914
F266	F	1.336055	0.697681	0.390914
F267	F	1.586055	0.947681	0.640914
F268	F	1.836055	1.197681	0.890914
H269	H	1.083317	0.307282	-0.123797
H270	H	1.333317	0.557282	0.126203
H271	H	1.583317	0.807282	0.376203
H272	H	1.833317	1.057282	0.626203
F273	F	0.978923	0.682023	0.107989
F274	F	1.228923	0.932023	0.357989
F275	F	1.478923	1.182023	0.607989
F276	F	1.728923	1.432023	0.857989
H277	H	0.987834	0.019789	0.185580
H278	H	1.237834	0.269789	0.435580
H279	H	1.487834	0.519789	0.685580
H280	H	1.737834	0.769789	0.935580
F281	F	1.086098	0.447783	-0.140832
F282	F	1.336098	0.697783	0.109168
F283	F	1.586098	0.947783	0.359168
F284	F	1.836098	1.197783	0.609168
F285	F	1.091937	0.745142	-0.140788
F286	F	1.341937	0.995142	0.109212
F287	F	1.591937	1.245142	0.359212
F288	F	1.841937	1.495142	0.609212
F289	F	1.202013	0.660345	-0.107832
F290	F	1.452013	0.910345	0.142168
F291	F	1.702013	1.160345	0.392168
F292	F	1.952013	1.410345	0.642168
H293	H	1.239826	0.100145	0.428569
H294	H	1.489826	0.350145	0.678569
H295	H	1.739826	0.600145	0.928569
H296	H	1.989826	0.850145	1.178569
H297	H	1.239838	0.100146	0.571530
H298	H	1.489838	0.350146	0.821530
H299	H	1.739838	0.600146	1.071530
H300	H	1.989838	0.850146	1.321530
H301	H	1.190131	0.173026	0.671598
H302	H	1.440131	0.423026	0.921598
H303	H	1.690131	0.673026	1.171598
H304	H	1.940131	0.923026	1.421598
F305	F	0.973961	0.009242	0.824484
F306	F	1.223961	0.259242	1.074484
F307	F	1.473961	0.509242	1.324484
F308	F	1.723961	0.759242	1.574484
F309	F	0.973928	0.009254	0.661823
F310	F	1.223928	0.259254	0.911823
F311	F	1.473928	0.509254	1.161823
F312	F	1.723928	0.759254	1.411823
F313	F	0.917355	0.092177	0.581416
F314	F	1.167355	0.342177	0.831416
F315	F	1.417355	0.592177	1.081416
F316	F	1.667355	0.842177	1.331416
H317	H	0.938126	0.092689	0.428608
H318	H	1.188126	0.342689	0.678608
H319	H	1.438126	0.592689	0.928608
H320	H	1.688126	0.842689	1.178608
