data_functionalizedCrystal
_audit_creation_method	'MofGen! by Chris Wilmer'
_symmetry_space_group_name_H-M	'P1'
_symmetry_Int_Tables_number	1
_symmetry_cell_setting	triclinic
loop_
_symmetry_equiv_pos_as_xyz
  x,y,z
_cell_length_a	12.759401
_cell_length_b	16.120484
_cell_length_c	12.759393
_cell_angle_alpha	87.136314
_cell_angle_beta	90.018173
_cell_angle_gamma	92.925560
loop_
_atom_site_label
_atom_site_type_symbol
_atom_site_fract_x
_atom_site_fract_y
_atom_site_fract_z
Zn1	Zn	1.584968	-0.331860	0.615146
Zn2	Zn	2.084968	0.168140	1.115146
Zn3	Zn	1.575920	-0.471296	0.448359
Zn4	Zn	2.075920	0.028704	0.948359
Zn5	Zn	1.409268	-0.331902	0.439488
Zn6	Zn	1.909268	0.168098	0.939488
Zn7	Zn	1.400320	-0.471234	0.623996
Zn8	Zn	1.900320	0.028766	1.123996
O9	O	1.492619	-0.401573	0.531747
O10	O	1.992619	0.098427	1.031747
O11	O	1.730788	-0.350365	0.593030
O12	O	2.230788	0.149635	1.093030
O13	O	1.553772	-0.452848	0.300164
O14	O	2.053772	0.047152	0.800164
O15	O	1.440107	-0.215231	0.455373
O16	O	1.940107	0.284769	0.955373
O17	O	1.724141	-0.452808	0.470492
O18	O	2.224141	0.047192	0.970492
O19	O	1.569192	-0.215200	0.584428
O20	O	2.069192	0.284800	1.084428
O21	O	1.431334	-0.350436	0.293647
O22	O	1.931334	0.149564	0.793647
O23	O	1.261061	-0.350376	0.463955
O24	O	1.761061	0.149624	0.963955
O25	O	1.424855	-0.452702	0.769841
O26	O	1.924855	0.047298	1.269841
O27	O	1.254486	-0.452742	0.599512
O28	O	1.754486	0.047258	1.099512
O29	O	1.560515	-0.350305	0.763339
O30	O	2.060515	0.149695	1.263339
O31	O	1.545095	-0.587953	0.479074
O32	O	2.045095	-0.087953	0.979074
O33	O	1.416082	-0.587907	0.608114
O34	O	1.916082	-0.087907	1.108114
C35	C	1.219653	-0.401557	0.531732
C36	C	1.719653	0.098443	1.031732
C37	C	1.102875	-0.401571	0.531752
C38	C	1.602875	0.098429	1.031752
C39	C	1.044612	-0.454959	0.602231
C40	C	1.544612	0.045041	1.102231
C41	C	0.934887	-0.454969	0.602243
C42	C	1.434887	0.045031	1.102243
C43	C	0.941699	-0.348202	0.461288
C44	C	1.441699	0.151798	0.961288
C45	C	1.051422	-0.348188	0.461282
C46	C	1.551422	0.151812	0.961282
C47	C	1.096065	-0.508342	0.672701
C48	C	1.596065	-0.008342	1.172701
C49	C	1.037801	-0.561734	0.743185
C50	C	1.537801	-0.061734	1.243185
C51	C	0.928077	-0.561745	0.743197
C52	C	1.428077	-0.061745	1.243197
C53	C	0.876616	-0.508363	0.672725
C54	C	1.376616	-0.008363	1.172725
C55	C	1.478664	-0.618180	0.545540
C56	C	1.978664	-0.118180	1.045540
C57	C	1.472791	-0.710846	0.551476
C58	C	1.972791	-0.210846	1.051476
C59	C	1.462073	-0.880506	0.562334
C60	C	1.962073	-0.380506	1.062334
C61	C	1.523354	-0.921799	0.501178
C62	C	2.023354	-0.421799	1.001178
C63	C	1.517390	-1.016204	0.507220
C64	C	2.017390	-0.516204	1.007220
C65	C	1.468035	-0.786093	0.556294
C66	C	1.968035	-0.286093	1.056294
C67	C	1.766651	-0.401589	0.531763
C68	C	2.266651	0.098411	1.031763
C69	C	1.883427	-0.401596	0.531770
C70	C	2.383427	0.098404	1.031770
C71	C	1.492696	-0.401492	0.805776
C72	C	1.992696	0.098508	1.305776
C73	C	1.492729	-0.401457	0.922550
C74	C	1.992729	0.098543	1.422550
C75	C	1.506657	-0.184120	0.517924
C76	C	2.006657	0.315880	1.017924
C77	C	1.512639	-0.091454	0.512033
C78	C	2.012639	0.408546	1.012033
C79	C	1.492606	-0.401593	0.258781
C80	C	1.992606	0.098407	0.758781
C81	C	1.492792	-0.401393	0.141992
C82	C	1.992792	0.098607	0.641992
C83	C	1.422148	-0.454723	1.090521
C84	C	1.922148	0.045277	1.590521
C85	C	1.422114	-0.454753	0.980799
C86	C	1.922114	0.045247	1.480799
C87	C	1.563376	-0.348121	0.974029
C88	C	2.063376	0.151879	1.474029
C89	C	1.563405	-0.348087	1.083749
C90	C	2.063405	0.151913	1.583749
C91	C	1.351535	-0.508028	1.148765
C92	C	1.851535	-0.008028	1.648765
C93	C	1.280887	-0.561363	1.097294
C94	C	1.780887	-0.061363	1.597294
C95	C	1.280852	-0.561394	0.987572
C96	C	1.780852	-0.061394	1.487572
C97	C	1.351467	-0.508089	0.929321
C98	C	1.851467	-0.008089	1.429321
H99	H	0.899790	-0.304742	0.403912
H100	H	1.399790	0.195258	0.903912
Cl101	Cl	1.234004	-0.508335	0.672688
Cl102	Cl	1.734004	-0.008335	1.172688
H103	H	1.223388	-0.604756	1.144729
H104	H	1.723388	-0.104756	1.644729
H105	H	1.580296	-0.886249	0.444283
H106	H	2.080296	-0.386249	0.944283
H107	H	1.351430	-0.508116	0.839978
H108	H	1.851430	-0.008116	1.339978
Cl109	Cl	1.374159	-0.935389	0.650167
Cl110	Cl	1.874159	-0.435389	1.150167
Cl111	Cl	0.738675	-0.508371	0.672751
Cl112	Cl	1.238675	-0.008371	1.172751
H113	H	0.880642	-0.605214	0.800596
H114	H	1.380642	-0.105214	1.300596
H115	H	1.351557	-0.508011	1.238107
H116	H	1.851557	-0.008011	1.738107
Cl117	Cl	1.124672	-0.281071	0.372677
Cl118	Cl	1.624672	0.218929	0.872677
Cl119	Cl	1.652138	-0.281112	0.900798
Cl120	Cl	2.152138	0.218888	1.400798
Cl121	Cl	1.192030	-0.628434	0.922868
Cl122	Cl	1.692030	-0.128434	1.422868
Cl123	Cl	1.652189	-0.281020	1.148459
Cl124	Cl	2.152189	0.218980	1.648459
Cl125	Cl	1.102494	-0.628834	0.831779
Cl126	Cl	1.602494	-0.128834	1.331779
