data_functionalizedCrystal
_audit_creation_method	'MofGen! by Chris Wilmer'
_symmetry_space_group_name_H-M	'P1'
_symmetry_Int_Tables_number	1
_symmetry_cell_setting	triclinic
loop_
_symmetry_equiv_pos_as_xyz
  x,y,z
_cell_length_a	23.532361
_cell_length_b	22.010155
_cell_length_c	12.811415
_cell_angle_alpha	95.426581
_cell_angle_beta	83.439682
_cell_angle_gamma	90.004127
loop_
_atom_site_label
_atom_site_type_symbol
_atom_site_fract_x
_atom_site_fract_y
_atom_site_fract_z
O1	O	0.755973	0.057470	0.127160
O2	O	0.590207	0.058502	0.145646
O3	O	0.677260	0.049562	-0.016432
O4	O	0.668921	0.066410	0.289238
O5	O	0.677244	-0.051487	-0.016408
O6	O	0.590191	-0.042547	0.145670
O7	O	0.755958	-0.043579	0.127184
Cu8	Cu	0.673073	-0.052290	0.136430
Cu9	Cu	0.673092	0.067213	0.136401
O10	O	0.668905	-0.034639	0.289262
C11	C	0.568980	0.007954	0.145195
C12	C	0.505754	0.007883	0.143803
N13	N	0.673064	-0.136341	0.136449
C14	C	0.232486	0.062626	0.137702
C15	C	0.291893	0.062700	0.139020
O16	O	0.322629	0.109579	0.139654
N17	N	0.321593	0.007654	0.139699
C18	C	0.291885	-0.047469	0.139049
O19	O	0.322602	-0.094283	0.139746
C20	C	0.232479	-0.047543	0.137724
C21	C	0.202781	0.007506	0.137056
C22	C	0.202787	0.117671	0.137033
C23	C	0.143384	0.117596	0.135718
C24	C	0.113680	0.062477	0.135071
C25	C	0.143378	0.007432	0.135740
C26	C	0.202772	-0.102667	0.137067
C27	C	0.143363	-0.102736	0.135741
C28	C	0.113665	-0.047686	0.135073
C29	C	0.054270	-0.047761	0.133779
N30	N	0.024570	0.007284	0.133100
C31	C	0.054274	0.062403	0.133746
C32	C	0.416640	-0.047310	0.141830
C33	C	0.476044	-0.047236	0.143163
C34	C	0.476048	0.062933	0.143131
C35	C	0.416642	0.062859	0.141806
C36	C	0.386939	0.007735	0.141151
C37	C	-0.070476	0.062243	0.130985
C38	C	-0.129885	0.062164	0.129673
C39	C	-0.129883	-0.048005	0.129699
C40	C	-0.070480	-0.047926	0.131016
C41	C	-0.040778	0.007203	0.131655
O42	O	0.023496	-0.094617	0.133140
O43	O	0.023550	0.109208	0.133035
C44	C	0.711641	-0.560081	0.064643
C45	C	0.711643	-0.623689	0.064636
O46	O	0.744420	-0.659948	0.003597
N47	N	0.673091	-0.651552	0.136379
C48	C	0.634530	-0.615803	0.208127
O49	O	0.601738	-0.645344	0.269149
C50	C	0.634525	-0.552197	0.208128
C51	C	0.673084	-0.524337	0.136387
C52	C	0.750196	-0.532221	-0.007093
C53	C	0.750194	-0.468618	-0.007084
C54	C	0.711637	-0.432874	0.064660
C55	C	0.673082	-0.460734	0.136396
C56	C	0.595962	-0.516450	0.279871
C57	C	0.595960	-0.452839	0.279865
C58	C	0.634518	-0.424980	0.208124
C59	C	0.634522	-0.361386	0.208150
N60	N	0.673075	-0.333524	0.136406
C61	C	0.711632	-0.369267	0.064662
C62	C	0.634543	-0.749382	0.208117
C63	C	0.634550	-0.812987	0.208122
C64	C	0.711663	-0.820868	0.064629
C65	C	0.711658	-0.757262	0.064630
C66	C	0.673095	-0.721519	0.136374
C67	C	0.711625	-0.235695	0.064686
C68	C	0.711621	-0.172085	0.064704
C69	C	0.634506	-0.164209	0.208193
C70	C	0.634512	-0.227813	0.208179
C71	C	0.673073	-0.263555	0.136417
O72	O	0.601761	-0.325089	0.269154
O73	O	0.744413	-0.339719	0.003641
C74	C	0.777185	0.006970	0.127635
C75	C	0.840411	0.007045	0.129027
C76	C	0.676784	-0.003116	-0.055518
C77	C	0.675384	-0.009533	-0.172020
N78	N	0.673105	0.151264	0.136373
C79	C	0.672759	0.088585	-0.390953
C80	C	0.671444	0.082558	-0.500417
C81	C	0.671432	-0.027612	-0.500411
C82	C	0.672748	-0.021586	-0.390948
C83	C	0.673412	0.036515	-0.336223
C84	C	0.674732	0.042541	-0.226758
C85	C	0.674717	-0.067629	-0.226754
C86	C	0.673401	-0.073656	-0.336217
C87	C	0.669381	0.018040	0.328349
C88	C	0.670781	0.024462	0.444850
H89	H	-0.154063	0.106995	0.129132
N90	N	0.672693	-0.136317	-0.395249
H91	H	0.637661	-0.158866	-0.367318
H92	H	0.671783	-0.132181	-0.472885
N93	N	0.670718	-0.090274	-0.559441
H94	H	0.706207	-0.113794	-0.549274
H95	H	0.635662	-0.112768	-0.531471
H96	H	0.564563	-0.539124	0.338288
N97	N	0.753232	-0.727210	-0.012761
H98	H	0.778540	-0.698617	0.027092
H99	H	0.777619	-0.759544	-0.058196
N100	N	0.675412	0.105214	-0.167760
H101	H	0.640686	0.110645	-0.113481
H102	H	0.711231	0.109683	-0.131272
N103	N	0.753251	-0.859427	-0.012756
H104	H	0.747399	-0.903948	-0.001868
H105	H	0.746497	-0.852406	-0.087151
N106	N	0.384613	0.122233	0.141083
H107	H	0.412450	0.157159	0.141695
H108	H	0.364435	0.121017	0.075458
H109	H	0.226943	-0.147494	0.137608
N110	N	0.111328	-0.162193	0.135029
H111	H	0.139209	-0.197088	0.134938
H112	H	0.082480	-0.161201	0.199917
H113	H	0.743022	-0.149404	0.006284
N114	N	0.592925	-0.257858	0.285564
H115	H	0.567615	-0.286440	0.245695
H116	H	0.614832	-0.281670	0.331808
H117	H	0.603115	-0.135096	0.266610
N118	N	0.673485	0.151245	-0.331922
H119	H	0.672875	0.183318	-0.383206
H120	H	0.638770	0.156639	-0.277617
H121	H	0.119210	0.162423	0.135169
H122	H	0.670910	0.124959	-0.544974
N123	N	0.675420	-0.123796	-0.167726
H124	H	0.710451	-0.149415	-0.195666
H125	H	0.676335	-0.111115	-0.090090
N126	N	-0.038445	0.121702	0.131670
H127	H	-0.066280	0.156557	0.131047
H128	H	-0.018262	0.127722	0.197289
H129	H	0.226967	0.162558	0.137556
N130	N	0.508092	0.122385	0.143827
H131	H	0.550231	0.114074	0.144764
H132	H	0.502178	0.142839	0.078516
H133	H	0.603158	-0.835665	0.266551
H134	H	-0.046300	-0.092750	0.131581
N135	N	0.508071	-0.106609	0.143908
H136	H	0.480233	-0.141535	0.143301
H137	H	0.537184	-0.112571	0.079384
H138	H	0.781590	-0.445939	-0.065505
N139	N	0.384605	-0.106768	0.141132
H140	H	0.412487	-0.141662	0.141041
H141	H	0.355759	-0.105775	0.206023
H142	H	-0.154080	-0.092881	0.129177
H143	H	0.781594	-0.561319	-0.065521
N144	N	0.753218	-0.274239	-0.012705
H145	H	0.777641	-0.246930	-0.058139
H146	H	0.778489	-0.298426	0.027237
H147	H	0.603141	-0.720282	0.266548
N148	N	0.554363	-0.414289	0.357243
H149	H	0.529940	-0.441594	0.402684
H150	H	0.576268	-0.385353	0.403443
