data_functionalizedCrystal
_audit_creation_method	'MofGen! by Chris Wilmer'
_symmetry_space_group_name_H-M	'P1'
_symmetry_Int_Tables_number	1
_symmetry_cell_setting	triclinic
loop_
_symmetry_equiv_pos_as_xyz
  x,y,z
_cell_length_a	6.817900
_cell_length_b	9.514072
_cell_length_c	12.200875
_cell_angle_alpha	89.400980
_cell_angle_beta	107.143593
_cell_angle_gamma	118.843421
loop_
_atom_site_label
_atom_site_type_symbol
_atom_site_fract_x
_atom_site_fract_y
_atom_site_fract_z
V1	V	-4.153270	-0.222570	-0.358561
O2	O	-4.051100	0.010320	-0.350811
O3	O	-4.187859	-0.440958	-0.356998
O4	O	-4.121749	-0.219311	-0.514536
O5	O	-4.117668	-0.212861	-0.192182
V6	V	-4.623957	-0.194694	-0.338553
O7	O	-4.442685	-0.283718	-0.402451
O8	O	-4.784740	-0.133546	-0.294663
O9	O	-4.366161	0.023694	-0.340116
O10	O	-4.843524	-0.427584	-0.346303
O11	O	-4.776956	-0.204403	-0.504932
O12	O	-4.432271	-0.197953	-0.182578
C13	C	-4.052503	-0.494191	-0.351571
C14	C	-4.162183	-0.672727	-0.351333
C15	C	-3.968171	-0.211456	-0.552525
C16	C	-4.024232	-0.210237	-0.680041
C17	C	-4.126832	-0.208006	-0.913507
C18	C	-4.069729	-0.209247	-0.783590
C19	C	-4.164862	0.076918	-0.345540
C20	C	-4.034422	0.255453	-0.345785
C21	C	-4.249193	-0.205813	-0.144583
C22	C	-4.172367	-0.207024	-0.017065
H23	H	-3.841099	-0.669438	-0.341161
O24	O	-4.392715	-0.762459	-0.356681
C25	C	-4.405165	-0.838134	-0.257012
H26	H	-4.239678	-0.848732	-0.218685
H27	H	-4.416604	-0.762323	-0.189966
C28	C	-4.830111	-0.995873	-0.337555
C29	C	-4.626866	-1.008902	-0.290487
H30	H	-4.966871	-1.101207	-0.358201
H31	H	-4.821726	-0.944885	-0.404702
H32	H	-4.839611	-0.932691	-0.281675
H33	H	-4.617353	-1.072065	-0.346371
H34	H	-4.635255	-1.059904	-0.223349
