data_functionalizedCrystal
_audit_creation_method	'MofGen! by Chris Wilmer'
_symmetry_space_group_name_H-M	'P1'
_symmetry_Int_Tables_number	1
_symmetry_cell_setting	triclinic
loop_
_symmetry_equiv_pos_as_xyz
  x,y,z
_cell_length_a	6.817900
_cell_length_b	23.752963
_cell_length_c	23.753023
_cell_angle_alpha	97.113271
_cell_angle_beta	100.067528
_cell_angle_gamma	100.066732
loop_
_atom_site_label
_atom_site_type_symbol
_atom_site_fract_x
_atom_site_fract_y
_atom_site_fract_z
V1	V	-3.971794	-0.079886	-0.178727
V2	V	-3.471794	0.420114	0.321273
O3	O	-3.977677	0.003095	-0.174979
O4	O	-3.477677	0.503095	0.325021
O5	O	-3.907026	-0.157686	-0.177837
O6	O	-3.407026	0.342314	0.322163
O7	O	-3.907021	-0.078983	-0.256524
O8	O	-3.407021	0.421017	0.243476
O9	O	-3.977682	-0.076152	-0.095747
O10	O	-3.477682	0.423848	0.404253
V11	V	-4.459665	-0.069922	-0.168762
V12	V	-3.959665	0.430078	0.331238
O13	O	-4.223516	-0.101743	-0.200587
O14	O	-3.723516	0.398257	0.299413
O15	O	-4.658140	-0.048065	-0.146902
O16	O	-4.158140	0.451935	0.353098
O17	O	-4.301226	0.007878	-0.169652
O18	O	-3.801226	0.507878	0.330348
O19	O	-4.571179	-0.152903	-0.172509
O20	O	-4.071179	0.347097	0.327491
O21	O	-4.571174	-0.073656	-0.251741
O22	O	-4.071174	0.426344	0.248259
O23	O	-4.301231	-0.070825	-0.090964
O24	O	-3.801231	0.429175	0.409036
C25	C	-3.748575	-0.176641	-0.175103
C26	C	-3.248575	0.323359	0.324897
C27	C	-3.776798	-0.240246	-0.174894
C28	C	-3.276798	0.259754	0.325106
C29	C	-3.924670	-0.626269	-0.121105
C30	C	-3.424670	-0.126269	0.378895
C31	C	-3.951214	-0.686031	-0.120900
C32	C	-3.451214	-0.186031	0.379100
O33	O	-3.941785	-0.709812	-0.076207
O34	O	-3.441785	-0.209812	0.423793
N35	N	-3.991787	-0.724303	-0.173229
N36	N	-3.491787	-0.224303	0.326771
C37	C	-4.005838	-0.702811	-0.225766
C38	C	-3.505838	-0.202811	0.274234
O39	O	-4.042788	-0.740852	-0.270258
O40	O	-3.542788	-0.240852	0.229742
C41	C	-3.979309	-0.643050	-0.225971
C42	C	-3.479309	-0.143050	0.274029
C43	C	-3.938715	-0.604780	-0.173638
C44	C	-3.438715	-0.104780	0.326362
C45	C	-3.884081	-0.588000	-0.068776
C46	C	-3.384081	-0.088000	0.431224
C47	C	-3.857536	-0.528242	-0.068981
C48	C	-3.357536	-0.028242	0.431019
C49	C	-3.871581	-0.506753	-0.121514
C50	C	-3.371581	-0.006753	0.378486
C51	C	-3.912170	-0.545022	-0.173842
C52	C	-3.412170	-0.045022	0.326158
C53	C	-3.993374	-0.621559	-0.278507
C54	C	-3.493374	-0.121559	0.221493
C55	C	-3.966843	-0.561794	-0.278707
C56	C	-3.466843	-0.061794	0.221293
C57	C	-3.926249	-0.523524	-0.226374
C58	C	-3.426249	-0.023524	0.273626
C59	C	-3.899670	-0.463776	-0.226580
C60	C	-3.399670	0.036224	0.273420
N61	N	-3.859097	-0.425504	-0.174251
N62	N	-3.359097	0.074496	0.325749
C63	C	-3.845052	-0.446992	-0.121718
C64	C	-3.345052	0.053008	0.378282
C65	C	-4.061551	-0.828312	-0.225334
C66	C	-3.561551	-0.328312	0.274666
C67	C	-4.088066	-0.888072	-0.225130
C68	C	-3.588066	-0.388072	0.274870
C69	C	-4.033443	-0.871288	-0.120264
C70	C	-3.533443	-0.371288	0.379736
C71	C	-4.006914	-0.811527	-0.120468
C72	C	-3.506914	-0.311527	0.379532
C73	C	-4.020978	-0.790040	-0.173005
C74	C	-3.520978	-0.290040	0.326995
C75	C	-3.789306	-0.321497	-0.122152
C76	C	-3.289306	0.178503	0.377848
C77	C	-3.762753	-0.261734	-0.122361
C78	C	-3.262753	0.238266	0.377639
C79	C	-3.817388	-0.278524	-0.227227
C80	C	-3.317388	0.221476	0.272773
C81	C	-3.843929	-0.338281	-0.227018
C82	C	-3.343929	0.161719	0.272982
C83	C	-3.829891	-0.359765	-0.174476
C84	C	-3.329891	0.140235	0.325524
O85	O	-3.909078	-0.439953	-0.271251
O86	O	-3.409078	0.060047	0.228749
O87	O	-3.808129	-0.408946	-0.077235
O88	O	-3.308129	0.091054	0.422765
C89	C	-3.748568	-0.076248	-0.275476
C90	C	-3.248568	0.423752	0.224524
C91	C	-3.776784	-0.076025	-0.339078
C92	C	-3.276784	0.423975	0.160922
C93	C	-3.979301	-0.127140	-0.741885
C94	C	-3.479301	0.372860	-0.241885
C95	C	-4.005846	-0.126939	-0.801648
C96	C	-3.505846	0.373061	-0.301648
O97	O	-4.042870	-0.171425	-0.839697
O98	O	-3.542870	0.328575	-0.339697
N99	N	-3.991799	-0.074407	-0.823143
N100	N	-3.491799	0.425593	-0.323143
C101	C	-3.951223	-0.022073	-0.784872
C102	C	-3.451223	0.477927	-0.284872
O103	O	-3.941714	0.022628	-0.808643
O104	O	-3.441714	0.522628	-0.308643
C105	C	-3.924693	-0.022274	-0.725111
C106	C	-3.424693	0.477726	-0.225111
C107	C	-3.938724	-0.074810	-0.703619
C108	C	-3.438724	0.425190	-0.203619
C109	C	-3.993332	-0.179671	-0.720393
C110	C	-3.493332	0.320329	-0.220393
C111	C	-3.966785	-0.179871	-0.660634
C112	C	-3.466785	0.320129	-0.160634
C113	C	-3.926207	-0.127541	-0.622368
C114	C	-3.426207	0.372459	-0.122368
C115	C	-3.912177	-0.075010	-0.643861
C116	C	-3.412177	0.424990	-0.143861
C117	C	-3.884133	0.030059	-0.686842
C118	C	-3.384133	0.530059	-0.186842
C119	C	-3.857605	0.029853	-0.627077
C120	C	-3.357605	0.529853	-0.127077
C121	C	-3.871635	-0.022682	-0.605585
C122	C	-3.371635	0.477318	-0.105585
C123	C	-3.845052	-0.022880	-0.545836
C124	C	-3.345052	0.477120	-0.045836
N125	N	-3.859099	-0.075412	-0.524341
N126	N	-3.359099	0.424588	-0.024341
C127	C	-3.899677	-0.127743	-0.562607
C128	C	-3.399677	0.372257	-0.062607
C129	C	-4.006944	-0.021654	-0.910376
C130	C	-3.506944	0.478346	-0.410376
C131	C	-4.033459	-0.021451	-0.970135
C132	C	-3.533459	0.478549	-0.470135
C133	C	-4.088084	-0.126318	-0.986907
C134	C	-3.588084	0.373682	-0.486907
C135	C	-4.061554	-0.126519	-0.927146
C136	C	-3.561554	0.373481	-0.427146
C137	C	-4.020991	-0.074186	-0.888880
C138	C	-3.520991	0.425814	-0.388880
C139	C	-3.843922	-0.128160	-0.437109
C140	C	-3.343922	0.371840	0.062891
C141	C	-3.817362	-0.128355	-0.377344
C142	C	-3.317362	0.371645	0.122656
C143	C	-3.762750	-0.023489	-0.360578
C144	C	-3.262750	0.476511	0.139422
C145	C	-3.789297	-0.023293	-0.420337
C146	C	-3.289297	0.476707	0.079663
C147	C	-3.829892	-0.075633	-0.458602
C148	C	-3.329892	0.424367	0.041398
O149	O	-3.808031	0.021583	-0.507753
O150	O	-3.308031	0.521583	-0.007753
O151	O	-3.909205	-0.172437	-0.538828
O152	O	-3.409205	0.327563	-0.038828
C153	C	-4.123019	0.026830	-0.172384
C154	C	-3.623019	0.526830	0.327616
C155	C	-4.074034	0.090434	-0.172597
C156	C	-3.574034	0.590434	0.327403
C157	C	-4.123026	-0.073562	-0.072009
C158	C	-3.623026	0.426438	0.427991
C159	C	-4.074049	-0.073782	-0.008407
C160	C	-3.574049	0.426218	0.491593
H161	H	-4.121086	-0.919226	-0.267744
H162	H	-3.621086	-0.419226	0.232256
N163	N	-3.718991	0.032956	-0.319308
N164	N	-3.218991	0.532956	0.180692
H165	H	-3.588664	0.057865	-0.324057
H166	H	-3.088664	0.557865	0.175943
H167	H	-3.704413	0.024812	-0.278206
H168	H	-3.204413	0.524812	0.221794
N169	N	-4.018329	-0.894475	-0.063603
N170	N	-3.518329	-0.394475	0.436397
H171	H	-4.124787	-0.882392	-0.042669
H172	H	-3.624787	-0.382392	0.457331
H173	H	-3.878703	-0.878419	-0.038805
H174	H	-3.378703	-0.378419	0.461195
H175	H	-4.072999	-0.810823	-0.268118
H176	H	-3.572999	-0.310823	0.231882
H177	H	-3.828809	-0.261016	-0.269998
H178	H	-3.328809	0.238984	0.230002
N179	N	-3.718905	-0.220456	-0.065913
N180	N	-3.218905	0.279544	0.434087
H181	H	-3.714027	-0.243141	-0.032604
H182	H	-3.214027	0.256859	0.467396
H183	H	-3.829685	-0.197270	-0.065651
H184	H	-3.329685	0.302730	0.434349
N185	N	-4.037166	-0.662828	-0.334952
N186	N	-3.537166	-0.162828	0.165048
H187	H	-3.921490	-0.654107	-0.355963
H188	H	-3.421490	-0.154107	0.144037
H189	H	-4.167553	-0.658055	-0.359808
H190	H	-3.667553	-0.158055	0.140192
H191	H	-3.978321	-0.544304	-0.321490
H192	H	-3.478321	-0.044304	0.178510
H193	H	-3.777872	-0.338982	-0.079367
H194	H	-3.277872	0.161018	0.420633
N195	N	-4.018317	0.035213	-0.993310
N196	N	-3.518317	0.535213	-0.493310
H197	H	-4.041290	0.027406	-1.036976
H198	H	-3.541290	0.527406	-0.536976
H199	H	-3.878739	0.060023	-0.977215
H200	H	-3.378739	0.560023	-0.477215
H201	H	-3.824497	-0.497088	-0.026366
H202	H	-3.324497	0.002912	0.473634
H203	H	-4.072980	-0.169298	-0.909652
H204	H	-3.572980	0.330702	-0.409652
N205	N	-4.037113	-0.236118	-0.761661
N206	N	-3.537113	0.263882	-0.261661
H207	H	-4.041974	-0.269421	-0.738968
H208	H	-3.541974	0.230579	-0.238968
H209	H	-3.926298	-0.236373	-0.784834
H210	H	-3.426298	0.263627	-0.284834
H211	H	-3.872645	-0.605489	-0.025995
H212	H	-3.372645	-0.105489	0.474005
N213	N	-4.131870	-0.182765	-1.028182
N214	N	-3.631870	0.317235	-0.528182
H215	H	-4.021095	-0.183070	-1.051367
H216	H	-3.521095	0.316930	-0.551367
H217	H	-4.267159	-0.186932	-1.055298
H218	H	-3.767159	0.313068	-0.555298
N219	N	-3.963100	-0.770252	-0.064024
N220	N	-3.463100	-0.270252	0.435976
H221	H	-3.958216	-0.792939	-0.030716
H222	H	-3.458216	-0.292939	0.469284
H223	H	-4.073902	-0.747074	-0.063764
H224	H	-3.573902	-0.247074	0.436236
N225	N	-3.887677	-0.379561	-0.283460
N226	N	-3.387677	0.120439	0.216540
H227	H	-3.892535	-0.356877	-0.316770
H228	H	-3.392535	0.143123	0.183230
H229	H	-4.022899	-0.406703	-0.287611
H230	H	-3.522899	0.093297	0.212389
H231	H	-3.973898	0.020966	-0.879222
H232	H	-3.473898	0.520966	-0.379222
N233	N	-3.813790	0.086302	-0.585806
N234	N	-3.313790	0.586302	-0.085806
H235	H	-3.799087	0.078208	-0.544685
H236	H	-3.299087	0.578208	-0.044685
H237	H	-3.929501	0.107291	-0.594570
H238	H	-3.429501	0.607291	-0.094570
N239	N	-3.868970	0.086728	-0.710003
N240	N	-3.368970	0.586728	-0.210003
H241	H	-3.975424	0.107661	-0.697917
H242	H	-3.475424	0.607661	-0.197917
H243	H	-3.891869	0.078884	-0.753665
H244	H	-3.391869	0.578884	-0.253665
N245	N	-3.832517	-0.185021	-0.354164
N246	N	-3.332517	0.314979	0.145836
H247	H	-3.862268	-0.218140	-0.387478
H248	H	-3.362268	0.281860	0.112522
H249	H	-3.945712	-0.189334	-0.331721
H250	H	-3.445712	0.310666	0.168279
H251	H	-3.777882	0.019485	-0.437837
H252	H	-3.277882	0.519485	0.062163
N253	N	-3.887710	-0.184611	-0.478375
N254	N	-3.387710	0.315389	0.021625
H255	H	-3.892563	-0.217915	-0.455683
H256	H	-3.392563	0.282085	0.044317
H257	H	-3.776902	-0.184864	-0.501551
H258	H	-3.276902	0.315136	-0.001551
N259	N	-3.981988	-0.236536	-0.637459
N260	N	-3.481988	0.263464	-0.137459
H261	H	-4.011749	-0.269652	-0.670776
H262	H	-3.511749	0.230348	-0.170776
H263	H	-4.095202	-0.240844	-0.615022
H264	H	-3.595202	0.259156	-0.115022
