data_functionalizedCrystal
_audit_creation_method	'MofGen! by Chris Wilmer'
_symmetry_space_group_name_H-M	'P1'
_symmetry_Int_Tables_number	1
_symmetry_cell_setting	triclinic
loop_
_symmetry_equiv_pos_as_xyz
  x,y,z
_cell_length_a	14.560432
_cell_length_b	12.970454
_cell_length_c	12.970454
_cell_angle_alpha	59.999644
_cell_angle_beta	90.000744
_cell_angle_gamma	60.001316
loop_
_atom_site_label
_atom_site_type_symbol
_atom_site_fract_x
_atom_site_fract_y
_atom_site_fract_z
Zr1	Zr	0.884749	1.128547	-0.135308
O2	O	0.738103	1.343635	-0.299933
O3	O	0.929704	0.913458	-0.084840
O4	O	0.929703	1.128549	-0.299932
O5	O	0.738104	1.128542	0.084826
O6	O	1.080840	1.128554	-0.299933
O7	O	0.738103	1.128543	-0.084841
O8	O	1.080842	0.743794	0.084828
O9	O	0.738103	1.513302	-0.299934
O10	O	1.061669	1.001931	-0.063318
O11	O	0.948877	1.001927	0.063303
O12	O	0.948876	1.255170	-0.189940
O13	O	0.836084	1.255166	-0.063319
Zr14	Zr	1.125797	1.128553	0.135292
Zr15	Zr	1.125796	1.128554	-0.135308
Zr16	Zr	0.884750	1.128546	0.135292
Zr17	Zr	0.884749	1.399147	-0.135309
Zr18	Zr	1.125797	0.857953	0.135293
O19	O	1.080842	1.343643	0.084825
O20	O	1.080840	1.343645	-0.299934
O21	O	0.738104	1.343633	0.084825
O22	O	1.272443	0.913466	0.299917
O23	O	1.272442	0.913468	-0.084841
O24	O	0.929705	0.913456	0.299918
O25	O	1.272442	1.128558	-0.084842
O26	O	1.080843	1.128551	0.299916
O27	O	0.929705	1.128546	0.299917
O28	O	1.272442	1.128558	0.084825
O29	O	0.929703	1.513308	-0.299934
O30	O	1.080843	0.743793	0.299918
O31	O	1.272443	0.743798	0.299918
O32	O	1.272442	0.743799	0.084827
O33	O	0.738103	1.513301	-0.084843
O34	O	0.929704	1.513307	-0.084843
O35	O	1.061670	1.001930	0.189924
O36	O	1.174461	1.001934	0.063303
O37	O	1.061669	1.255173	-0.063319
O38	O	0.948877	1.255169	0.063302
C39	C	1.005273	0.790071	-0.000006
C40	C	1.005273	0.675194	-0.000006
C41	C	0.703760	1.128541	-0.000007
C42	C	0.601429	1.128538	-0.000007
C43	C	0.719168	0.864154	0.132175
C44	C	0.729961	0.731967	0.198260
C45	C	0.633809	0.731973	0.198257
C46	C	0.526855	0.864181	0.132164
C47	C	0.516062	0.996368	0.066079
C48	C	0.612223	0.996348	0.066087
C49	C	0.398324	1.260749	-0.066094
C50	C	0.494475	1.260746	-0.066099
C51	C	0.291370	1.392957	-0.132186
C52	C	0.280576	1.525148	-0.198280
C53	C	0.376736	1.525136	-0.198275
C54	C	0.483682	1.392934	-0.132184
C55	C	1.306786	1.128559	-0.000009
C56	C	1.409117	1.128562	-0.000009
C57	C	1.005271	1.128552	-0.338487
C58	C	1.005271	1.128552	-0.453364
C59	C	1.005273	1.467029	-0.000010
C60	C	1.005273	1.581906	-0.000010
C61	C	1.005274	1.128548	0.338471
C62	C	1.005275	1.128548	0.453348
C63	C	1.306786	0.790080	-0.000007
C64	C	1.409117	0.675206	-0.000006
C65	C	1.005274	0.790069	0.338473
C66	C	1.005274	0.675192	0.453350
C67	C	1.306787	0.790078	0.338472
C68	C	1.409118	0.675204	0.453350
C69	C	0.703758	1.467022	-0.338488
C70	C	0.601427	1.581897	-0.453365
C71	C	0.703760	1.467021	-0.000009
C72	C	0.601429	1.581894	-0.000009
C73	C	1.005272	1.467031	-0.338489
C74	C	1.005271	1.581908	-0.453366
C75	C	1.457174	0.527774	0.093470
C76	C	1.553315	0.419823	0.093475
C77	C	1.601401	0.459307	0.000007
C78	C	1.553336	0.606753	-0.093480
C79	C	1.457192	0.714702	-0.093488
C80	C	1.457182	0.527772	0.507297
C81	C	1.553344	0.419819	0.615224
C82	C	1.601436	0.459300	0.669207
C83	C	1.553367	0.606746	0.615250
C84	C	1.457212	0.714696	0.507320
C85	C	0.553372	1.729328	-0.507322
C86	C	0.457231	1.837281	-0.615273
C87	C	0.409143	1.797800	-0.669260
C88	C	0.457207	1.650353	-0.615298
C89	C	0.553351	1.542403	-0.507354
C90	C	0.553372	1.542365	0.093475
C91	C	0.457231	1.650286	0.093501
C92	C	0.409144	1.797736	0.000035
C93	C	0.457209	1.837265	-0.093455
C94	C	0.553353	1.729345	-0.093474
H95	H	0.817052	0.624326	0.252074
H96	H	0.642602	0.624334	0.252074
H97	H	1.418034	0.495597	0.169587
H98	H	1.592502	0.638882	-0.169579
O99	O	0.410469	1.980549	-0.184084
C100	C	0.410814	2.048564	-0.126875
H101	H	0.415092	1.983547	-0.024771
H102	H	0.487021	2.053138	-0.129059
C103	C	0.297213	2.284367	-0.324768
C104	C	0.302458	2.204518	-0.199364
H105	H	0.230377	2.380569	-0.369485
H106	H	0.296983	2.238544	-0.363312
H107	H	0.360725	2.288163	-0.326571
H108	H	0.238954	2.200708	-0.197563
H109	H	0.302674	2.250344	-0.160821
H110	H	1.418038	0.495598	0.463358
H111	H	1.592463	0.299770	0.659145
O112	O	0.599851	1.768007	-0.184424
C113	C	0.536796	1.921292	-0.266889
H114	H	0.447820	1.970798	-0.262406
H115	H	0.578390	1.961517	-0.237467
C116	C	0.641202	1.906715	-0.408276
C117	C	0.531918	1.967519	-0.402777
H118	H	0.638197	1.935232	-0.492098
H119	H	0.683687	1.803443	-0.352716
H120	H	0.675853	1.940241	-0.383751
H121	H	0.497275	1.933978	-0.427286
H122	H	0.489427	2.070786	-0.458345
O123	O	0.197882	1.393156	-0.132421
C124	C	0.133472	1.465659	-0.257488
H125	H	0.154510	1.542842	-0.325682
H126	H	0.153616	1.382111	-0.277908
C127	C	-0.018358	1.458660	-0.190646
C128	C	0.007475	1.553467	-0.274403
H129	H	-0.096079	1.512819	-0.201080
H130	H	0.025037	1.409808	-0.106384
H131	H	-0.001563	1.389042	-0.207672
H132	H	-0.009307	1.623070	-0.257365
H133	H	-0.035927	1.602332	-0.358662
O134	O	0.176747	1.653651	-0.262663
C135	C	0.164405	1.734056	-0.391691
H136	H	0.250955	1.696473	-0.402511
H137	H	0.118451	1.715726	-0.444710
C138	C	-0.010215	1.943576	-0.433106
C139	C	0.096086	1.897424	-0.446395
H140	H	-0.052362	2.044350	-0.466854
H141	H	-0.001904	1.889405	-0.346179
H142	H	-0.048496	1.928289	-0.477289
H143	H	0.134370	1.912695	-0.402200
H144	H	0.087779	1.951602	-0.533317
O145	O	1.410367	0.857937	-0.184388
C146	C	1.298798	0.926015	-0.252783
H147	H	1.288644	0.840467	-0.243640
H148	H	1.238578	0.982726	-0.213485
C149	C	1.284458	1.144403	-0.404158
C150	C	1.271990	1.039334	-0.392938
H151	H	1.267919	1.214309	-0.490611
H152	H	1.359624	1.098541	-0.358077
H153	H	1.234274	1.191646	-0.371402
H154	H	1.322183	0.992080	-0.425679
H155	H	1.196832	1.085191	-0.439027
O156	O	1.599887	0.276670	0.184424
C157	C	1.536815	0.264985	0.266905
H158	H	1.488734	0.369344	0.262432
H159	H	1.474762	0.247723	0.237491
C160	C	1.675743	0.006390	0.408272
C161	C	1.616697	0.134561	0.402786
H162	H	1.725015	-0.074065	0.492089
H163	H	1.718234	0.014260	0.352702
H164	H	1.624021	-0.007975	0.383754
H165	H	1.668417	0.148933	0.427289
H166	H	1.574215	0.126690	0.458364
O167	O	0.410472	1.980482	-0.667496
C168	C	0.378052	2.010934	-0.578297
H169	H	0.365371	1.926570	-0.504757
H170	H	0.446515	2.006537	-0.529814
C171	C	0.282860	2.267717	-0.736017
C172	C	0.267276	2.164107	-0.645700
H173	H	0.214531	2.362204	-0.777593
H174	H	0.304706	2.247202	-0.796112
H175	H	0.339917	2.264035	-0.695600
H176	H	0.210231	2.167779	-0.686119
H177	H	0.245418	2.184627	-0.585614
H178	H	0.797467	0.864136	0.132174
O179	O	0.599859	1.399209	-0.454855
C180	C	0.520384	1.368779	-0.418492
H181	H	0.454869	1.453153	-0.404273
H182	H	0.477208	1.373180	-0.495361
C183	C	0.660860	1.111988	-0.311607
C184	C	0.580399	1.215611	-0.294132
H185	H	0.697879	1.017505	-0.234899
H186	H	0.714404	1.132489	-0.336109
H187	H	0.624867	1.115675	-0.375668
H188	H	0.616393	1.211936	-0.230084
H189	H	0.526862	1.195106	-0.269616
H190	H	1.679731	0.371385	0.757092
H191	H	1.592539	0.638872	0.659219
H192	H	0.367936	1.632780	-0.252073
H193	H	0.448568	0.864174	0.132180
H194	H	1.418083	0.834740	0.463408
H195	H	0.418039	1.618227	-0.659270
H196	H	0.592509	1.422311	0.169586
H197	H	1.679686	0.371394	0.000026
H198	H	0.592510	1.761503	-0.463377
H199	H	0.561982	1.392912	-0.132178
H200	H	0.418108	1.618073	0.169631
H201	H	0.330857	1.885714	-0.757155
H202	H	0.330857	1.885597	0.000064
