data_functionalizedCrystal
_audit_creation_method	'MofGen! by Chris Wilmer'
_symmetry_space_group_name_H-M	'P1'
_symmetry_Int_Tables_number	1
_symmetry_cell_setting	triclinic
loop_
_symmetry_equiv_pos_as_xyz
  x,y,z
_cell_length_a	10.967874
_cell_length_b	14.519731
_cell_length_c	9.482900
_cell_angle_alpha	99.351580
_cell_angle_beta	68.707142
_cell_angle_gamma	84.210075
loop_
_atom_site_label
_atom_site_type_symbol
_atom_site_fract_x
_atom_site_fract_y
_atom_site_fract_z
O1	O	1.745664	0.063246	-0.558223
O2	O	2.078998	0.396579	-0.224889
O3	O	2.412331	0.729912	0.108444
O4	O	1.367165	0.086855	-0.463404
O5	O	1.700498	0.420188	-0.130071
O6	O	2.033831	0.753521	0.203263
O7	O	1.566433	-0.059433	-0.513310
O8	O	1.899767	0.273900	-0.179976
O9	O	2.233100	0.607233	0.153357
O10	O	1.546396	0.209534	-0.508317
O11	O	1.879729	0.542867	-0.174983
O12	O	2.213063	0.876201	0.158350
O13	O	1.525958	-0.029604	-0.261380
O14	O	1.859291	0.303730	0.071953
O15	O	2.192624	0.637063	0.405286
O16	O	1.326689	0.116684	-0.211475
O17	O	1.660022	0.450018	0.121859
O18	O	1.993356	0.783351	0.455192
O19	O	1.705189	0.093076	-0.306293
O20	O	2.038522	0.426409	0.027040
O21	O	2.371855	0.759742	0.360374
Cu22	Cu	1.512243	0.107604	-0.235881
Cu23	Cu	1.845577	0.440937	0.097453
Cu24	Cu	2.178910	0.774270	0.430786
Cu25	Cu	1.560110	0.072327	-0.533816
Cu26	Cu	1.893444	0.405660	-0.200483
Cu27	Cu	2.226777	0.738993	0.132850
O28	O	1.505920	0.239364	-0.256387
O29	O	1.839254	0.572697	0.076946
O30	O	2.172587	0.906030	0.410279
C31	C	1.298486	0.102306	-0.325304
C32	C	1.631820	0.435639	0.008029
C33	C	1.965153	0.768972	0.341363
C34	C	1.154148	0.103892	-0.289145
C35	C	1.487481	0.437225	0.044188
C36	C	1.820815	0.770558	0.377521
C37	C	1.545256	-0.078855	-0.387110
C38	C	1.878590	0.254479	-0.053776
C39	C	2.211923	0.587812	0.279557
C40	C	1.542442	-0.181165	-0.386404
C41	C	1.875775	0.152168	-0.053070
C42	C	2.209109	0.485502	0.280263
C43	C	1.110765	0.089146	-0.403532
C44	C	1.444099	0.422479	-0.070198
C45	C	1.777432	0.755813	0.263135
C46	C	0.961585	0.090785	-0.366162
C47	C	1.294918	0.424118	-0.032829
C48	C	1.628251	0.757451	0.300504
C49	C	1.540156	-0.264253	-0.385834
C50	C	1.873490	0.069080	-0.052501
C51	C	2.206823	0.402414	0.280832
C52	C	1.537301	-0.368492	-0.385130
C53	C	1.870634	-0.035159	-0.051797
C54	C	2.203968	0.298174	0.281536
C55	C	1.535035	-0.451576	-0.384572
C56	C	1.868368	-0.118243	-0.051239
C57	C	2.201702	0.215090	0.282095
C58	C	1.532179	-0.555822	-0.383865
C59	C	1.865513	-0.222489	-0.050532
C60	C	2.198846	0.110845	0.282802
C61	C	1.773868	0.077624	-0.444396
C62	C	2.107201	0.410958	-0.111063
C63	C	2.440535	0.744291	0.222270
C64	C	1.918208	0.076037	-0.480565
C65	C	2.251541	0.409371	-0.147232
C66	C	2.584874	0.742704	0.186102
C67	C	1.527098	0.258785	-0.382591
C68	C	1.860431	0.592118	-0.049258
C69	C	2.193764	0.925451	0.284076
C70	C	1.529913	0.361094	-0.383307
C71	C	1.863247	0.694427	-0.049973
C72	C	2.196580	1.027760	0.283360
N73	N	1.478585	0.132415	-0.026331
N74	N	1.811919	0.465748	0.307002
N75	N	2.145252	0.799082	0.640336
N76	N	1.593778	0.047508	-0.743369
N77	N	1.927112	0.380841	-0.410035
N78	N	2.260445	0.714174	-0.076702
C79	C	1.550174	0.079640	0.027939
C80	C	1.883507	0.412973	0.361273
C81	C	2.216840	0.746307	0.694606
C82	C	1.522179	0.100290	0.202368
C83	C	1.855513	0.433624	0.535701
C84	C	2.188846	0.766957	0.869034
H85	H	1.184066	0.075313	-0.529127
H86	H	1.517399	0.408646	-0.195793
H87	H	1.850732	0.741980	0.137540
O88	O	1.369971	0.212534	0.083161
O89	O	1.703304	0.545867	0.416495
O90	O	2.036637	0.879201	0.749828
H91	H	1.321792	0.248055	0.016873
H92	H	1.655126	0.581388	0.350207
H93	H	1.988459	0.914721	0.683540
H94	H	1.440155	0.160762	0.285035
H95	H	1.773488	0.494095	0.618368
H96	H	2.106822	0.827428	0.951701
H97	H	0.888286	0.104629	-0.240558
H98	H	1.221619	0.437962	0.092775
H99	H	1.554953	0.771295	0.426108
H100	H	0.991503	0.062205	-0.606169
H101	H	1.324836	0.395538	-0.272836
H102	H	1.658169	0.728871	0.060497
H103	H	1.080846	0.117734	-0.163550
H104	H	1.414179	0.451068	0.169784
H105	H	1.747512	0.784401	0.503117
H106	H	1.632184	0.019166	-0.054728
H107	H	1.965517	0.352499	0.278605
H108	H	2.298851	0.685833	0.611939
H109	H	1.675793	-0.012970	0.173967
H110	H	2.009127	0.320363	0.507300
H111	H	2.342460	0.653696	0.840633
