data_functionalizedCrystal
_audit_creation_method	'MofGen! by Chris Wilmer'
_symmetry_space_group_name_H-M	'P1'
_symmetry_Int_Tables_number	1
_symmetry_cell_setting	triclinic
loop_
_symmetry_equiv_pos_as_xyz
  x,y,z
_cell_length_a	12.827893
_cell_length_b	18.050589
_cell_length_c	12.827885
_cell_angle_alpha	89.970449
_cell_angle_beta	89.980538
_cell_angle_gamma	90.028191
loop_
_atom_site_label
_atom_site_type_symbol
_atom_site_fract_x
_atom_site_fract_y
_atom_site_fract_z
Zn1	Zn	1.597578	-0.295624	-0.590850
Zn2	Zn	2.097578	0.204376	-0.090850
Zn3	Zn	1.597433	-0.419832	-0.416111
Zn4	Zn	2.097433	0.080168	0.083889
Zn5	Zn	1.422819	-0.295660	-0.416124
Zn6	Zn	1.922819	0.204340	0.083876
Zn7	Zn	1.422766	-0.419777	-0.590811
Zn8	Zn	1.922766	0.080223	-0.090811
O9	O	1.510149	-0.357723	-0.503474
O10	O	2.010149	0.142277	-0.003474
O11	O	1.743795	-0.312109	-0.567682
O12	O	2.243795	0.187891	-0.067682
O13	O	1.574231	-0.403399	-0.269877
O14	O	2.074231	0.096601	0.230123
O15	O	1.446085	-0.191731	-0.439323
O16	O	1.946085	0.308269	0.060677
O17	O	1.743688	-0.403364	-0.439302
O18	O	2.243688	0.096636	0.060698
O19	O	1.574479	-0.191704	-0.567694
O20	O	2.074479	0.308296	-0.067694
O21	O	1.445943	-0.312170	-0.269886
O22	O	1.945943	0.187830	0.230114
O23	O	1.276576	-0.312117	-0.439286
O24	O	1.776576	0.187883	0.060714
O25	O	1.445994	-0.403269	-0.737053
O26	O	1.945994	0.096731	-0.237053
O27	O	1.276537	-0.403304	-0.567628
O28	O	1.776537	0.096696	-0.067628
O29	O	1.574428	-0.312055	-0.737081
O30	O	2.074428	0.187945	-0.237081
O31	O	1.574180	-0.523749	-0.439264
O32	O	2.074180	-0.023749	0.060736
O33	O	1.445853	-0.523709	-0.567615
O34	O	1.945853	-0.023709	-0.067615
C35	C	1.238639	-0.357709	-0.503454
C36	C	1.738639	0.142291	-0.003454
C37	C	1.122486	-0.357721	-0.503471
C38	C	1.622486	0.142279	-0.003471
C39	C	1.510023	-0.550675	-0.503457
C40	C	2.010023	-0.050675	-0.003457
C41	C	1.510065	-0.633221	-0.503484
C42	C	2.010065	-0.133221	-0.003484
C43	C	1.070710	-0.402914	-0.566880
C44	C	1.570710	0.097086	-0.066880
C45	C	0.950659	-0.402927	-0.566899
C46	C	1.450659	0.097073	-0.066899
C47	C	1.440349	-0.832677	-0.573257
C48	C	1.940349	-0.332677	-0.073257
C49	C	1.414872	-0.882124	-0.477900
C50	C	1.914872	-0.382124	0.022100
C51	C	1.510167	-0.784351	-0.503498
C52	C	2.010167	-0.284351	-0.003498
C53	C	1.535696	-0.881986	-0.598866
C54	C	2.035696	-0.381986	-0.098866
C55	C	1.510264	-0.930337	-0.503520
C56	C	2.010264	-0.430337	-0.003520
C57	C	1.484640	-0.832712	-0.408091
C58	C	1.984640	-0.332712	0.091909
C59	C	1.605508	-0.832569	-0.529120
C60	C	2.105508	-0.332569	-0.029120
C61	C	1.580067	-0.881994	-0.433698
C62	C	2.080067	-0.381994	0.066302
C63	C	1.510109	-0.700253	-0.503487
C64	C	2.010109	-0.200253	-0.003487
C65	C	1.510323	-1.014433	-0.503520
C66	C	2.010323	-0.514433	-0.003520
C67	C	1.782719	-0.357738	-0.503495
C68	C	2.282719	0.142262	-0.003495
C69	C	1.898872	-0.357745	-0.503504
C70	C	2.398872	0.142255	-0.003504
C71	C	1.510221	-0.357652	-0.776045
C72	C	2.010221	0.142348	-0.276045
C73	C	1.510252	-0.357622	-0.892198
C74	C	2.010252	0.142378	-0.392198
C75	C	1.510304	-0.164018	-0.503515
C76	C	2.010304	0.335982	-0.003515
C77	C	1.510370	-0.081472	-0.503532
C78	C	2.010370	0.418528	-0.003532
C79	C	1.446791	-0.312470	-0.943987
C80	C	1.946791	0.187530	-0.443987
C81	C	1.446822	-0.312438	-1.064038
C82	C	1.946822	0.187562	-0.564038
C83	C	1.510137	-0.357741	-0.231964
C84	C	2.010137	0.142259	0.268036
C85	C	1.510309	-0.357562	-0.115812
C86	C	2.010309	0.142438	0.384188
H87	H	1.115259	-0.441593	-0.621158
H88	H	1.615259	0.058407	-0.121158
H89	H	1.639152	-0.903512	-0.374645
H90	H	2.139152	-0.403512	0.125355
H91	H	1.381219	-0.811021	-0.632167
H92	H	1.881219	-0.311021	-0.132167
H93	H	1.686071	-0.810788	-0.550818
H94	H	2.186071	-0.310788	-0.050818
H95	H	1.564647	-0.396217	-1.071281
H96	H	2.064647	0.103783	-0.571281
H97	H	1.557249	-0.903630	-0.679509
H98	H	2.057249	-0.403630	-0.179509
H99	H	1.077937	-0.319036	-0.449201
H100	H	1.577937	0.180964	0.050799
H101	H	1.334291	-0.903907	-0.456249
H102	H	1.834291	-0.403907	0.043751
H103	H	0.906133	-0.441621	-0.621183
H104	H	1.406133	0.058379	-0.121183
H105	H	1.564604	-0.396254	-0.936736
H106	H	2.064604	0.103746	-0.436736
H107	H	1.392434	-0.273841	-0.899449
H108	H	1.892434	0.226159	-0.399449
H109	H	1.462994	-0.811157	-0.327426
H110	H	1.962994	-0.311157	0.172574
H111	H	0.943392	-0.319054	-0.449210
H112	H	1.443392	0.180946	0.050790
H113	H	1.392495	-0.273778	-1.108575
H114	H	1.892495	0.226222	-0.608575
