data_functionalizedCrystal
_audit_creation_method	'MofGen! by Chris Wilmer'
_symmetry_space_group_name_H-M	'P1'
_symmetry_Int_Tables_number	1
_symmetry_cell_setting	triclinic
loop_
_symmetry_equiv_pos_as_xyz
  x,y,z
_cell_length_a	21.295418
_cell_length_b	29.839131
_cell_length_c	21.295411
_cell_angle_alpha	90.020364
_cell_angle_beta	90.043738
_cell_angle_gamma	90.057233
loop_
_atom_site_label
_atom_site_type_symbol
_atom_site_fract_x
_atom_site_fract_y
_atom_site_fract_z
Zn1	Zn	0.962308	-0.178715	0.356239
Zn2	Zn	0.962190	-0.253830	0.250967
Zn3	Zn	0.857031	-0.178736	0.250949
Zn4	Zn	0.856981	-0.253839	0.356163
O5	O	0.909628	-0.216280	0.303580
O6	O	1.050382	-0.188667	0.342314
O7	O	0.948213	-0.243874	0.162875
O8	O	0.871067	-0.115866	0.264940
O9	O	1.050295	-0.243854	0.264971
O10	O	0.948413	-0.115851	0.342296
O11	O	0.870953	-0.188703	0.162862
O12	O	0.768935	-0.188711	0.264867
O13	O	0.870981	-0.243869	0.444263
O14	O	0.768898	-0.243889	0.342167
O15	O	0.948364	-0.188675	0.444319
O16	O	0.948164	-0.316699	0.264897
O17	O	0.870866	-0.316705	0.342185
C18	C	0.746076	-0.216304	0.303507
C19	C	0.676108	-0.216325	0.303491
C20	C	0.643238	-0.245094	0.343681
C21	C	0.577496	-0.245083	0.343710
C22	C	0.544625	-0.216307	0.303536
C23	C	0.577503	-0.187532	0.263343
C24	C	0.643244	-0.187541	0.263321
N25	N	0.441350	-0.212791	0.248479
N26	N	0.378899	-0.212785	0.248502
C27	C	0.346551	-0.216279	0.303603
N28	N	0.379013	-0.219787	0.358681
N29	N	0.441470	-0.219795	0.358657
C30	C	0.473340	-0.216294	0.303557
C31	C	0.242396	-0.245037	0.343827
C32	C	0.176652	-0.245023	0.343857
C33	C	0.176660	-0.187475	0.263485
C34	C	0.242403	-0.187487	0.263461
C35	C	0.275266	-0.216271	0.303632
C36	C	0.909514	-0.333003	0.303548
C37	C	0.909523	-0.382937	0.303556
C38	C	0.949949	-0.692564	0.263395
C39	C	0.950027	-0.880238	0.263419
O40	O	0.984309	-0.904489	0.229249
N41	N	0.909758	-0.903722	0.303627
C42	C	0.869470	-0.880286	0.343835
O43	O	0.835225	-0.904567	0.378039
C44	C	0.869396	-0.692614	0.343813
C45	C	0.909663	-0.669131	0.303598
C46	C	0.990214	-0.669082	0.223184
C47	C	0.990192	-0.622167	0.223176
C48	C	0.949905	-0.598734	0.263379
C49	C	0.909641	-0.622216	0.303590
C50	C	0.829111	-0.669178	0.384023
C51	C	0.829097	-0.622257	0.384015
C52	C	0.869364	-0.598775	0.343800
C53	C	0.869332	-0.551867	0.343785
N54	N	0.909601	-0.528383	0.303577
C55	C	0.949887	-0.551816	0.263374
C56	C	0.869511	-0.978816	0.343842
C57	C	0.869528	-1.025734	0.343847
C58	C	0.950087	-1.025683	0.263432
C59	C	0.950065	-0.978764	0.263425
C60	C	0.909780	-0.955332	0.303634
C61	C	0.949837	-0.453290	0.263359
C62	C	0.949810	-0.406370	0.263353
C63	C	0.869254	-0.406426	0.343770
C64	C	0.869279	-0.453341	0.343774
C65	C	0.909576	-0.476772	0.303567
O66	O	0.835073	-0.527587	0.377942
O67	O	0.984137	-0.527526	0.229185
C68	C	0.949972	-0.739480	0.263403
C69	C	0.909707	-0.762962	0.303614
C70	C	0.869421	-0.739529	0.343817
C71	C	0.909725	-0.809880	0.303619
C72	C	0.950012	-0.833313	0.263416
C73	C	0.990281	-0.809829	0.223208
C74	C	0.990258	-0.762913	0.223200
C75	C	0.829152	-0.763014	0.384025
C76	C	0.829177	-0.809929	0.384029
C77	C	0.869463	-0.833362	0.343826
C78	C	1.073818	-0.216257	0.303653
C79	C	1.143786	-0.216247	0.303684
C80	C	0.909680	-0.216271	0.467770
C81	C	0.909702	-0.216267	0.537738
C82	C	0.909759	-0.099102	0.303625
C83	C	0.909815	-0.049167	0.303644
C84	C	0.909612	-0.216257	0.140028
C85	C	0.909712	-0.216135	0.070060
C86	C	0.949994	-0.187526	0.570635
C87	C	0.949993	-0.187507	0.636377
C88	C	0.909707	-0.216236	0.669221
C89	C	0.869407	-0.244978	0.636316
C90	C	0.869405	-0.244994	0.570575
N91	N	0.904840	-0.255537	0.772436
N92	N	0.904846	-0.255521	0.834887
C93	C	0.909711	-0.216190	0.867295
N94	N	0.914582	-0.176875	0.834893
N95	N	0.914580	-0.176891	0.772436
C96	C	0.909705	-0.216222	0.740506
C97	C	0.950004	-0.187426	0.971478
C98	C	0.949999	-0.187406	1.037221
C99	C	0.869416	-0.244882	1.037159
C100	C	0.869418	-0.244898	0.971417
C101	C	0.909716	-0.216171	0.938580
H102	H	0.982600	-0.387253	0.230603
H103	H	0.550736	-0.164102	0.230635
H104	H	0.982802	-0.164100	0.663167
F105	F	0.678227	-0.156919	0.220543
H106	H	0.836604	-0.268368	0.663061
F107	F	0.786258	-0.694159	0.426831
F108	F	0.826382	-0.381478	0.386556
F109	F	0.826519	-0.275585	0.535563
H110	H	0.550728	-0.268510	0.376440
F111	F	1.033118	-0.737927	0.180399
H112	H	1.023082	-0.828916	0.190472
F113	F	0.277374	-0.275669	0.386582
F114	F	0.992880	-0.156950	0.535691
H115	H	0.149891	-0.268450	0.376588
H116	H	0.669992	-0.268531	0.376392
F117	F	0.992889	-0.156851	0.936528
H118	H	0.796292	-0.603181	0.416761
H119	H	0.149898	-0.164043	0.230778
F120	F	0.992893	-0.156820	1.072232
H121	H	0.836608	-0.268269	1.063899
H122	H	0.836612	-0.268304	0.944632
H123	H	1.023023	-0.688157	0.190445
H124	H	0.982652	-0.472362	0.230620
F125	F	0.277386	-0.156867	0.220683
H126	H	1.022982	-0.603050	0.190431
H127	H	0.982855	-0.959647	0.230679
H128	H	0.982890	-1.044770	0.230698
H129	H	0.836733	-1.044849	0.376588
F130	F	0.826629	-0.953884	0.386641
F131	F	0.786314	-0.834916	0.426833
F132	F	0.786271	-0.738081	0.426817
F133	F	0.826411	-0.478334	0.386563
