data_functionalizedCrystal
_audit_creation_method	'MofGen! by Chris Wilmer'
_symmetry_space_group_name_H-M	'P1'
_symmetry_Int_Tables_number	1
_symmetry_cell_setting	triclinic
loop_
_symmetry_equiv_pos_as_xyz
  x,y,z
_cell_length_a	12.811438
_cell_length_b	12.837942
_cell_length_c	7.540329
_cell_angle_alpha	89.996889
_cell_angle_beta	95.429713
_cell_angle_gamma	89.413151
loop_
_atom_site_label
_atom_site_type_symbol
_atom_site_fract_x
_atom_site_fract_y
_atom_site_fract_z
O1	O	1.406632	0.139704	0.078789
O2	O	1.102570	0.154888	0.029874
O3	O	1.247859	-0.003636	0.053258
O4	O	1.261343	0.298228	0.055405
O5	O	1.247849	-0.003638	0.348221
O6	O	1.102560	0.154886	0.324837
O7	O	1.406623	0.139702	0.373752
Cu8	Cu	1.254590	0.147294	0.376227
Cu9	Cu	1.254602	0.147296	0.027399
O10	O	1.261333	0.298226	0.350368
C11	C	1.063376	0.154036	0.171051
C12	C	0.946604	0.151485	0.152266
C13	C	0.782022	0.147891	-0.034975
C14	C	0.891739	0.150287	-0.017340
C15	C	0.891743	0.150285	0.304248
C16	C	0.782026	0.147889	0.286613
C17	C	0.727169	0.146694	0.116996
C18	C	0.617449	0.144306	0.099362
C19	C	0.617455	0.144296	0.420949
C20	C	0.727173	0.146692	0.438584
C21	C	1.243299	-0.042277	0.200005
C22	C	1.229713	-0.157413	0.197817
C23	C	1.393041	-0.397665	0.224055
C24	C	1.380281	-0.505846	0.221999
C25	C	1.191432	-0.481958	0.191637
C26	C	1.204193	-0.373777	0.193693
C27	C	1.305000	-0.331635	0.209905
C28	C	1.317760	-0.223451	0.211973
C29	C	1.128912	-0.199566	0.181599
C30	C	1.116152	-0.307747	0.179543
C31	C	1.445816	0.140555	0.232571
C32	C	1.562588	0.143105	0.251344
C33	C	1.265894	0.336867	0.203617
C34	C	1.279480	0.452003	0.205793
N35	N	1.254590	0.147292	0.621576
N36	N	1.254610	0.147290	-0.217948
H37	H	0.572782	0.143326	0.544694
F38	F	1.425046	-0.178602	0.229239
F39	F	0.559067	0.143038	-0.081157
F40	F	1.500326	-0.352811	0.241346
F41	F	0.950144	0.151554	0.484752
F42	F	1.084154	-0.526828	0.174341
F43	F	1.035207	-0.129284	0.166557
F44	F	0.785567	0.147964	0.619092
H45	H	1.451973	-0.559604	0.233516
H46	H	1.034077	-0.342075	0.166337
H47	H	0.936396	0.151262	-0.141090
F48	F	0.723636	0.146634	-0.215491
