data_functionalizedCrystal
_audit_creation_method	'MofGen! by Chris Wilmer'
_symmetry_space_group_name_H-M	'P1'
_symmetry_Int_Tables_number	1
_symmetry_cell_setting	triclinic
loop_
_symmetry_equiv_pos_as_xyz
  x,y,z
_cell_length_a	14.908932
_cell_length_b	19.805405
_cell_length_c	19.805399
_cell_angle_alpha	90.029301
_cell_angle_beta	86.725129
_cell_angle_gamma	93.326421
loop_
_atom_site_label
_atom_site_type_symbol
_atom_site_fract_x
_atom_site_fract_y
_atom_site_fract_z
Zn1	Zn	-1.379146	0.209746	-0.323081
Zn2	Zn	-1.379033	0.322940	-0.209895
Zn3	Zn	-1.228287	0.216299	-0.216429
Zn4	Zn	-1.228239	0.329435	-0.329561
O5	O	-1.303676	0.269605	-0.269741
O6	O	-1.505374	0.219301	-0.302620
O7	O	-1.359009	0.308818	-0.116046
O8	O	-1.248367	0.120710	-0.230599
O9	O	-1.505291	0.302464	-0.219463
O10	O	-1.359202	0.115896	-0.308956
O11	O	-1.248257	0.230469	-0.120846
O12	O	-1.102038	0.236767	-0.236882
O13	O	-1.248284	0.313534	-0.423417
O14	O	-1.102002	0.319888	-0.320000
O15	O	-1.359155	0.225599	-0.418656
O16	O	-1.358962	0.418521	-0.225746
O17	O	-1.248174	0.423293	-0.313665
C18	C	-1.069287	0.279744	-0.279854
C19	C	-0.969014	0.284097	-0.284196
C20	C	-0.827689	0.333576	-0.333513
C21	C	-0.921904	0.329485	-0.329439
C22	C	-0.921902	0.242798	-0.243022
C23	C	-0.827686	0.246888	-0.247096
C24	C	-0.780583	0.292278	-0.292344
C25	C	-0.686366	0.296365	-0.296421
C26	C	-0.686365	0.209681	-0.210001
C27	C	-0.780580	0.205591	-0.205927
C28	C	-1.303575	0.445465	-0.269713
C29	C	-1.303614	0.520696	-0.269720
C30	C	-1.303727	0.269560	-0.446282
C31	C	-1.303749	0.269541	-0.521513
C32	C	-0.538981	0.259421	-0.259586
C33	C	-0.639254	0.255065	-0.255247
C34	C	-1.303803	0.093057	-0.269784
C35	C	-1.303857	0.017822	-0.269802
C36	C	-1.361357	0.553530	-0.223984
C37	C	-1.361395	0.624217	-0.223997
C38	C	-1.303685	0.662068	-0.269744
C39	C	-1.245940	0.629229	-0.315485
C40	C	-1.245906	0.558543	-0.315474
C41	C	-1.246073	0.914296	-0.315529
C42	C	-1.246108	0.984987	-0.315535
C43	C	-1.361562	0.979970	-0.224052
C44	C	-1.361529	0.909285	-0.224041
C45	C	-1.303787	0.876451	-0.269785
C46	C	-1.303747	0.799804	-0.269770
C47	C	-1.303720	0.738714	-0.269755
C48	C	-1.361480	0.223751	-0.554379
C49	C	-1.361490	0.223731	-0.625067
C50	C	-1.303771	0.269505	-0.662888
C51	C	-1.246033	0.315297	-0.630017
C52	C	-1.246019	0.315313	-0.559330
C53	C	-1.246084	0.315231	-0.915088
C54	C	-1.246103	0.315213	-0.985779
C55	C	-1.361554	0.223650	-0.980825
C56	C	-1.361541	0.223666	-0.910139
C57	C	-1.303799	0.269455	-0.877274
C58	C	-1.303789	0.269476	-0.800626
C59	C	-1.303785	0.269488	-0.739534
C60	C	-1.303678	0.269599	-0.093885
C61	C	-1.303831	0.269419	-0.018647
H62	H	-0.648002	0.176051	-0.176481
O63	O	-1.190070	0.359822	-0.527318
C64	C	-1.241400	0.401335	-0.484218
H65	H	-1.309782	0.374506	-0.470694
H66	H	-1.204643	0.412003	-0.436088
H67	H	-1.251279	0.451063	-0.511016
O68	O	-1.417582	0.656212	-0.179722
C69	C	-1.405296	0.726715	-0.189578
H70	H	-1.375546	0.737609	-0.243032
H71	H	-1.472942	0.750559	-0.182276
H72	H	-1.357466	0.748988	-0.151396
H73	H	-1.199080	0.352525	-0.888338
O74	O	-1.417501	0.516866	-0.179517
C75	C	-1.468458	0.561008	-0.139142
H76	H	-1.471584	0.611240	-0.166742
H77	H	-1.539533	0.537468	-0.128893
H78	H	-1.435464	0.570012	-0.089141
H79	H	-0.960269	0.205849	-0.206179
H80	H	-0.960254	0.363115	-0.362963
H81	H	-1.408518	0.878468	-0.186788
O82	O	-1.190158	0.359746	-1.022543
C83	C	-1.241496	0.401224	-1.061215
H84	H	-1.312538	0.402340	-1.036847
H85	H	-1.208826	0.454725	-1.063411
H86	H	-1.244635	0.380150	-1.114659
H87	H	-1.408581	1.006711	-0.186808
O88	O	-0.640705	0.340415	-0.340463
C89	C	-0.663750	0.324699	-0.406953
H90	H	-0.732170	0.295713	-0.405444
H91	H	-0.666964	0.373448	-0.437076
H92	H	-0.610752	0.292229	-0.432106
O93	O	-0.781833	0.377699	-0.377379
C94	C	-0.727313	0.423748	-0.341129
H95	H	-0.713182	0.400430	-0.290487
H96	H	-0.661072	0.435728	-0.371550
H97	H	-0.763599	0.472323	-0.332037
O98	O	-1.189834	0.359695	-0.666728
C99	C	-1.099929	0.348806	-0.653321
H100	H	-1.095409	0.294933	-0.634102
H101	H	-1.055365	0.356556	-0.701726
H102	H	-1.076314	0.386124	-0.613296
H103	H	-1.199115	1.015804	-0.352793
O104	O	-0.826442	0.161592	-0.161939
C105	C	-0.880884	0.197708	-0.115787
H106	H	-0.894982	0.248422	-0.138953
H107	H	-0.947146	0.167252	-0.103903
H108	H	-0.844548	0.206652	-0.067184
H109	H	-1.199055	0.887569	-0.352774
O110	O	-1.189908	0.666099	-0.359859
C111	C	-1.202332	0.735529	-0.350072
H112	H	-1.231924	0.743918	-0.296580
H113	H	-1.134765	0.765357	-0.357540
H114	H	-1.250349	0.753454	-0.388181
O115	O	-1.189732	0.526754	-0.359930
C116	C	-1.138820	0.575317	-0.400323
H117	H	-1.135733	0.625858	-0.372737
H118	H	-1.067729	0.558008	-0.410571
H119	H	-1.171827	0.581354	-0.450322
H120	H	-1.408485	0.186479	-0.523591
H121	H	-1.408503	0.186446	-0.651824
O122	O	-1.417511	0.179104	-0.873440
C123	C	-1.397852	0.112495	-0.891600
H124	H	-1.325787	0.112198	-0.914136
H125	H	-1.405636	0.078724	-0.844791
H126	H	-1.446235	0.092702	-0.930554
O127	O	-1.417553	0.179188	-1.012860
C128	C	-1.405205	0.188994	-1.083359
H129	H	-1.335569	0.214169	-1.096009
H130	H	-1.411367	0.138020	-1.109969
H131	H	-1.458693	0.222719	-1.101106
