data_functionalizedCrystal
_audit_creation_method	'MofGen! by Chris Wilmer'
_symmetry_space_group_name_H-M	'P1'
_symmetry_Int_Tables_number	1
_symmetry_cell_setting	triclinic
loop_
_symmetry_equiv_pos_as_xyz
  x,y,z
_cell_length_a	16.992695
_cell_length_b	10.654550
_cell_length_c	15.455313
_cell_angle_alpha	92.703897
_cell_angle_beta	92.847427
_cell_angle_gamma	92.423423
loop_
_atom_site_label
_atom_site_type_symbol
_atom_site_fract_x
_atom_site_fract_y
_atom_site_fract_z
O1	O	0.106792	-1.682522	-0.072067
O2	O	0.606792	-1.182522	0.427933
O3	O	0.117289	-1.317952	-0.072083
O4	O	0.617289	-0.817952	0.427917
O5	O	-0.002110	-1.498775	-0.072068
O6	O	0.497890	-0.998775	0.427932
O7	O	0.226191	-1.501699	-0.072081
O8	O	0.726191	-1.001699	0.427919
O9	O	0.004689	-1.488432	0.072194
O10	O	0.504689	-0.988432	0.572194
O11	O	0.124088	-1.307609	0.072179
O12	O	0.624088	-0.807609	0.572179
O13	O	0.113591	-1.672179	0.072195
O14	O	0.613591	-1.172179	0.572195
Cu15	Cu	0.119460	-1.488949	0.085359
Cu16	Cu	0.619460	-0.988949	0.585359
Cu17	Cu	0.111419	-1.501181	-0.085247
Cu18	Cu	0.611419	-1.001181	0.414753
O19	O	0.232990	-1.491356	0.072180
O20	O	0.732990	-0.991356	0.572180
C21	C	0.119918	-1.265916	0.000046
C22	C	0.619918	-0.765916	0.500046
C23	C	0.117611	-1.126274	0.000040
C24	C	0.617611	-0.626274	0.500040
C25	C	-0.027943	-1.489843	0.000063
C26	C	0.472057	-0.989843	0.500063
C27	C	-0.115049	-1.478624	0.000062
C28	C	0.384951	-0.978624	0.500062
C29	C	0.110962	-1.724215	0.000064
C30	C	0.610962	-1.224215	0.500064
C31	C	0.113268	-1.863857	0.000064
C32	C	0.613268	-1.363857	0.500064
C33	C	-0.164700	-1.586874	0.000068
C34	C	0.335300	-1.086874	0.500068
C35	C	-0.246544	-1.576326	0.000059
C36	C	0.253456	-1.076326	0.500059
C37	C	-0.278735	-1.457525	0.000051
C38	C	0.221265	-0.957525	0.500051
C39	C	-0.229078	-1.349267	0.000042
C40	C	0.270922	-0.849267	0.500042
C41	C	-0.147235	-1.359817	0.000045
C42	C	0.352765	-0.859817	0.500045
C43	C	-0.522572	-1.413799	0.000037
C44	C	-0.022572	-0.913799	0.500037
C45	C	-0.604420	-1.403257	0.000037
C46	C	-0.104420	-0.903257	0.500037
C47	C	-0.621882	-1.630317	0.000052
C48	C	-0.121882	-1.130317	0.500052
C49	C	-0.540037	-1.640856	0.000059
C50	C	-0.040037	-1.140856	0.500059
C51	C	-0.490386	-1.532598	0.000047
C52	C	0.009614	-1.032598	0.500047
N53	N	-0.362393	-1.446740	0.000045
N54	N	0.137607	-0.946740	0.500045
N55	N	-0.406730	-1.543385	0.000047
N56	N	0.093270	-1.043385	0.500047
C57	C	0.258823	-1.500288	0.000048
C58	C	0.758823	-1.000288	0.500048
C59	C	0.345928	-1.511507	0.000043
C60	C	0.845928	-1.011507	0.500043
N61	N	0.125116	-1.480355	0.205354
N62	N	0.625116	-0.980355	0.705354
C63	C	0.187912	-1.052863	0.000038
C64	C	0.687912	-0.552863	0.500038
C65	C	0.185741	-0.921654	0.000054
C66	C	0.685741	-0.421654	0.500054
C67	C	0.042962	-0.937277	0.000069
C68	C	0.542962	-0.437277	0.500069
C69	C	0.045134	-1.068484	0.000060
C70	C	0.545134	-0.568484	0.500060
N71	N	0.105758	-1.509785	-0.205242
N72	N	0.605758	-1.009785	0.294758
C73	C	0.074410	-1.557206	0.250754
C74	C	0.574410	-1.057206	0.750754
C75	C	0.078694	-1.550718	0.341562
C76	C	0.578694	-1.050718	0.841562
C77	C	0.133688	-1.467387	0.386967
C78	C	0.633688	-0.967387	0.886967
C79	C	0.184396	-1.390528	0.341560
C80	C	0.684396	-0.890528	0.841560
C81	C	0.180108	-1.397009	0.250754
C82	C	0.680108	-0.897009	0.750754
C83	C	0.152178	-1.439408	0.658546
C84	C	0.652178	-0.939408	1.158546
C85	C	0.156464	-1.432934	0.749358
C86	C	0.656464	-0.932934	1.249358
C87	C	0.050760	-1.593124	0.749353
C88	C	0.550760	-1.093124	1.249353
C89	C	0.046480	-1.599604	0.658546
C90	C	0.546480	-1.099604	1.158546
C91	C	0.097185	-1.522740	0.613147
C92	C	0.597185	-1.022740	1.113147
N93	N	0.138070	-1.460756	0.479786
N94	N	0.638070	-0.960756	0.979786
N95	N	0.092798	-1.529365	0.520329
N96	N	0.592798	-1.029365	1.020329
H97	H	-0.138497	-1.683614	0.000080
H98	H	0.361503	-1.183614	0.500080
Cl99	Cl	-0.043251	-1.160778	0.000069
Cl100	Cl	0.456749	-0.660778	0.500069
H101	H	0.242987	-0.861888	0.000054
H102	H	0.742987	-0.361888	0.500054
Cl103	Cl	-0.048146	-0.864619	0.000088
Cl104	Cl	0.451854	-0.364619	0.500088
Cl105	Cl	-0.499576	-1.790214	0.000042
Cl106	Cl	0.000424	-1.290214	0.500042
H107	H	0.029631	-1.625069	0.213791
H108	H	0.529631	-1.125069	0.713791
Cl109	Cl	0.279025	-1.125508	0.000019
Cl110	Cl	0.779025	-0.625508	0.500019
Cl111	Cl	0.014947	-1.647331	0.398638
Cl112	Cl	0.514947	-1.147331	0.898638
Cl113	Cl	0.225608	-1.328166	0.806433
Cl114	Cl	0.725608	-0.828166	1.306433
H115	H	0.229171	-1.322670	0.378534
H116	H	0.729171	-0.822670	0.878534
Cl117	Cl	-0.022656	-1.704366	0.601465
Cl118	Cl	0.477344	-1.204366	1.101465
Cl119	Cl	-0.684303	-1.766404	0.000065
Cl120	Cl	-0.184303	-1.266404	0.500065
H121	H	-0.630626	-1.306510	0.000044
H122	H	-0.130626	-0.806510	0.500044
Cl123	Cl	-0.012983	-1.689742	0.806430
Cl124	Cl	0.487017	-1.189742	1.306430
Cl125	Cl	0.215923	-1.342787	0.601479
Cl126	Cl	0.715923	-0.842787	1.101479
H127	H	-0.106809	-1.271668	0.000040
H128	H	0.393191	-0.771668	0.500040
H129	H	-0.482156	-1.325647	0.000027
H130	H	0.017844	-0.825647	0.500027
Cl131	Cl	-0.308961	-1.712419	0.000069
Cl132	Cl	0.191039	-1.212419	0.500069
Cl133	Cl	-0.269547	-1.199917	0.000022
Cl134	Cl	0.230453	-0.699917	0.500022
H135	H	0.221397	-1.334428	0.213790
H136	H	0.721397	-0.834428	0.713790
