data_functionalizedCrystal
_audit_creation_method	'MofGen! by Chris Wilmer'
_symmetry_space_group_name_H-M	'P1'
_symmetry_Int_Tables_number	1
_symmetry_cell_setting	triclinic
loop_
_symmetry_equiv_pos_as_xyz
  x,y,z
_cell_length_a	18.101398
_cell_length_b	18.101397
_cell_length_c	17.077396
_cell_angle_alpha	89.967492
_cell_angle_beta	89.976860
_cell_angle_gamma	90.018196
loop_
_atom_site_label
_atom_site_type_symbol
_atom_site_fract_x
_atom_site_fract_y
_atom_site_fract_z
Zn1	Zn	1.132164	-0.294868	-0.443949
Zn2	Zn	1.382164	-0.044868	-0.193949
Zn3	Zn	1.632164	0.205132	0.056051
Zn4	Zn	1.882164	0.455132	0.306051
Zn5	Zn	1.132086	-0.418719	-0.312675
Zn6	Zn	1.382086	-0.168719	-0.062675
Zn7	Zn	1.632086	0.081281	0.187325
Zn8	Zn	1.882086	0.331281	0.437325
Zn9	Zn	1.008326	-0.294891	-0.312683
Zn10	Zn	1.258326	-0.044891	-0.062683
Zn11	Zn	1.508326	0.205109	0.187317
Zn12	Zn	1.758326	0.455109	0.437317
Zn13	Zn	1.008296	-0.418668	-0.443886
Zn14	Zn	1.258296	-0.168668	-0.193886
Zn15	Zn	1.508296	0.081332	0.056114
Zn16	Zn	1.758296	0.331332	0.306114
O17	O	1.070218	-0.356786	-0.378298
O18	O	1.320218	-0.106786	-0.128298
O19	O	1.570218	0.143214	0.121702
O20	O	1.820218	0.393214	0.371702
O21	O	1.235786	-0.311309	-0.426558
O22	O	1.485786	-0.061309	-0.176558
O23	O	1.735786	0.188691	0.073442
O24	O	1.985786	0.438691	0.323442
O25	O	1.115649	-0.402323	-0.202829
O26	O	1.365649	-0.152323	0.047171
O27	O	1.615649	0.097677	0.297171
O28	O	1.865649	0.347677	0.547171
O29	O	1.024798	-0.191255	-0.330126
O30	O	1.274798	0.058745	-0.080126
O31	O	1.524798	0.308745	0.169874
O32	O	1.774798	0.558745	0.419874
O33	O	1.235729	-0.402302	-0.330112
O34	O	1.485729	-0.152302	-0.080112
O35	O	1.735729	0.097698	0.169888
O36	O	1.985729	0.347698	0.419888
O37	O	1.115781	-0.191238	-0.426566
O38	O	1.365781	0.058762	-0.176566
O39	O	1.615781	0.308762	0.073434
O40	O	1.865781	0.558762	0.323434
O41	O	1.024723	-0.311348	-0.202835
O42	O	1.274723	-0.061348	0.047165
O43	O	1.524723	0.188652	0.297165
O44	O	1.774723	0.438652	0.547165
O45	O	0.904689	-0.311298	-0.330064
O46	O	1.154689	-0.061298	-0.080064
O47	O	1.404689	0.188702	0.169936
O48	O	1.654689	0.438702	0.419936
O49	O	1.024748	-0.402215	-0.553741
O50	O	1.274748	-0.152215	-0.303741
O51	O	1.524748	0.097785	-0.053741
O52	O	1.774748	0.347785	0.196259
O53	O	0.904667	-0.402236	-0.426458
O54	O	1.154667	-0.152236	-0.176458
O55	O	1.404667	0.097764	0.073542
O56	O	1.654667	0.347764	0.323542
O57	O	1.115752	-0.311260	-0.553787
O58	O	1.365752	-0.061260	-0.303787
O59	O	1.615752	0.188740	-0.053787
O60	O	1.865752	0.438740	0.196213
O61	O	1.115620	-0.522345	-0.330051
O62	O	1.365620	-0.272345	-0.080051
O63	O	1.615620	-0.022345	0.169949
O64	O	1.865620	0.227655	0.419949
O65	O	1.024672	-0.522307	-0.426451
O66	O	1.274672	-0.272307	-0.176451
O67	O	1.524672	-0.022307	0.073549
O68	O	1.774672	0.227693	0.323549
C69	C	0.877808	-0.356765	-0.378256
C70	C	1.127808	-0.106765	-0.128256
C71	C	1.377808	0.143235	0.121744
C72	C	1.627808	0.393235	0.371744
C73	C	0.795493	-0.356773	-0.378256
C74	C	1.045493	-0.106773	-0.128256
C75	C	1.295493	0.143227	0.121744
C76	C	1.545493	0.393227	0.371744
C77	C	0.644785	-0.356788	-0.378291
C78	C	0.894785	-0.106788	-0.128291
C79	C	1.144785	0.143212	0.121709
C80	C	1.394785	0.393212	0.371709
C81	C	0.613420	-0.299490	-0.317744
C82	C	0.863420	-0.049490	-0.067744
C83	C	1.113420	0.200510	0.182256
C84	C	1.363420	0.450510	0.432256
C85	C	0.527802	-0.299275	-0.317943
C86	C	0.777802	-0.049275	-0.067943
C87	C	1.027802	0.200725	0.182057
C88	C	1.277802	0.450725	0.432057
C89	C	0.496402	-0.356803	-0.378325
C90	C	0.746402	-0.106803	-0.128325
C91	C	0.996402	0.143197	0.121675
C92	C	1.246402	0.393197	0.371675
C93	C	0.527536	-0.335968	-0.461146
C94	C	0.777536	-0.085968	-0.211146
C95	C	1.027536	0.164032	0.038854
C96	C	1.277536	0.414032	0.288854
C97	C	0.613181	-0.335544	-0.460777
C98	C	0.863181	-0.085544	-0.210777
C99	C	1.113181	0.164456	0.039223
C100	C	1.363181	0.414456	0.289223
C101	C	0.613196	-0.435069	-0.356748
C102	C	0.863196	-0.185069	-0.106748
C103	C	1.113196	0.064931	0.143252
C104	C	1.363196	0.314931	0.393252
C105	C	0.527545	-0.434657	-0.354943
C106	C	0.777545	-0.184657	-0.104943
C107	C	1.027545	0.065343	0.145057
C108	C	1.277545	0.315343	0.395057
C109	C	0.412543	-0.356813	-0.378349
C110	C	0.662543	-0.106813	-0.128349
C111	C	0.912543	0.143187	0.121651
C112	C	1.162543	0.393187	0.371651
C113	C	0.728644	-0.356777	-0.378273
C114	C	0.978644	-0.106777	-0.128273
C115	C	1.228644	0.143223	0.121727
C116	C	1.478644	0.393223	0.371727
C117	C	1.070155	-0.549197	-0.378260
C118	C	1.320155	-0.299197	-0.128260
C119	C	1.570155	-0.049197	0.121740
C120	C	1.820155	0.200803	0.371740
C121	C	1.070195	-0.631511	-0.378270
C122	C	1.320195	-0.381511	-0.128270
C123	C	1.570195	-0.131511	0.121730
C124	C	1.820195	0.118489	0.371730
C125	C	1.070290	-0.930602	-0.378342
C126	C	1.320290	-0.680602	-0.128342
C127	C	1.570290	-0.430602	0.121658
C128	C	1.820290	-0.180602	0.371658
C129	C	1.127352	-0.899269	-0.317527
C130	C	1.377352	-0.649269	-0.067527
C131	C	1.627352	-0.399269	0.182473
C132	C	1.877352	-0.149269	0.432473
C133	C	1.127550	-0.813651	-0.317685
C134	C	1.377550	-0.563651	-0.067685
C135	C	1.627550	-0.313651	0.182315
C136	C	1.877550	-0.063651	0.432315
C137	C	1.070243	-0.782219	-0.378306
C138	C	1.320243	-0.532219	-0.128306
C139	C	1.570243	-0.282219	0.121694
C140	C	1.820243	-0.032219	0.371694
C141	C	1.091397	-0.813225	-0.461049
C142	C	1.341397	-0.563225	-0.211049
C143	C	1.591397	-0.313225	0.038951
C144	C	1.841397	-0.063225	0.288951
C145	C	1.091838	-0.898870	-0.460718
C146	C	1.341838	-0.648870	-0.210718
C147	C	1.591838	-0.398870	0.039282
C148	C	1.841838	-0.148870	0.289282
C149	C	0.991922	-0.899108	-0.357129
C150	C	1.241922	-0.649108	-0.107129
C151	C	1.491922	-0.399108	0.142871
C152	C	1.741922	-0.149108	0.392871
C153	C	0.992309	-0.813459	-0.355282
C154	C	1.242309	-0.563459	-0.105282
C155	C	1.492309	-0.313459	0.144718
C156	C	1.742309	-0.063459	0.394718
C157	C	1.070215	-0.698360	-0.378290
C158	C	1.320215	-0.448360	-0.128290
C159	C	1.570215	-0.198360	0.121710
C160	C	1.820215	0.051640	0.371710
C161	C	1.070319	-1.014461	-0.378363
C162	C	1.320319	-0.764461	-0.128363
C163	C	1.570319	-0.514461	0.121637
C164	C	1.820319	-0.264461	0.371637
C165	C	1.263380	-0.356809	-0.378342
C166	C	1.513380	-0.106809	-0.128342
C167	C	1.763380	0.143191	0.121658
C168	C	2.013380	0.393191	0.371658
C169	C	1.345694	-0.356818	-0.378360
C170	C	1.595694	-0.106818	-0.128360
C171	C	1.845694	0.143182	0.121640
C172	C	2.095694	0.393182	0.371640
C173	C	1.070255	-0.356729	-0.583043
C174	C	1.320255	-0.106729	-0.333043
C175	C	1.570255	0.143271	-0.083043
C176	C	1.820255	0.393271	0.166957
C177	C	1.070271	-0.356704	-0.670292
C178	C	1.320271	-0.106704	-0.420292
C179	C	1.570271	0.143296	-0.170292
C180	C	1.820271	0.393296	0.079708
C181	C	1.070302	-0.163624	-0.378354
C182	C	1.320302	0.086376	-0.128354
C183	C	1.570302	0.336376	0.121646
C184	C	1.820302	0.586376	0.371646
C185	C	1.070338	-0.081310	-0.378377
C186	C	1.320338	0.168690	-0.128377
C187	C	1.570338	0.418690	0.121623
C188	C	1.820338	0.668690	0.371623
C189	C	1.022940	-0.309328	-0.711285
C190	C	1.272940	-0.059328	-0.461285
C191	C	1.522940	0.190672	-0.211285
C192	C	1.772940	0.440672	0.038715
C193	C	1.022953	-0.309311	-0.793265
C194	C	1.272953	-0.059311	-0.543265
C195	C	1.522953	0.190689	-0.293265
C196	C	1.772953	0.440689	-0.043265
C197	C	1.070300	-0.356668	-0.834252
C198	C	1.320300	-0.106668	-0.584252
C199	C	1.570300	0.143332	-0.334252
C200	C	1.820300	0.393332	-0.084252
C201	C	1.117632	-0.404050	-0.793254
C202	C	1.367632	-0.154050	-0.543254
C203	C	1.617632	0.095950	-0.293254
C204	C	1.867632	0.345950	-0.043254
C205	C	1.117616	-0.404070	-0.711275
C206	C	1.367616	-0.154070	-0.461275
C207	C	1.617616	0.095930	-0.211275
C208	C	1.867616	0.345930	0.038725
C209	C	1.117664	-0.404003	-0.964124
C210	C	1.367664	-0.154003	-0.714124
C211	C	1.617664	0.095997	-0.464124
C212	C	1.867664	0.345997	-0.214124
C213	C	1.117682	-0.403983	-1.046109
C214	C	1.367682	-0.153983	-0.796109
C215	C	1.617682	0.096017	-0.546109
C216	C	1.867682	0.346017	-0.296109
C217	C	1.023001	-0.309245	-1.046115
C218	C	1.273001	-0.059245	-0.796115
C219	C	1.523001	0.190755	-0.546115
C220	C	1.773001	0.440755	-0.296115
C221	C	1.022985	-0.309265	-0.964136
C222	C	1.272985	-0.059265	-0.714136
C223	C	1.522985	0.190735	-0.464136
C224	C	1.772985	0.440735	-0.214136
C225	C	1.070319	-0.356646	-0.923143
C226	C	1.320319	-0.106646	-0.673143
C227	C	1.570319	0.143354	-0.423143
C228	C	1.820319	0.393354	-0.173143
C229	C	1.070224	-0.356790	-0.174350
C230	C	1.320224	-0.106790	0.075650
C231	C	1.570224	0.143210	0.325650
C232	C	1.820224	0.393210	0.575650
C233	C	1.070351	-0.356606	-0.087101
C234	C	1.320351	-0.106606	0.162899
C235	C	1.570351	0.143394	0.412899
C236	C	1.820351	0.393394	0.662899
H237	H	0.506105	-0.279390	-0.479676
H238	H	0.756105	-0.029390	-0.229676
H239	H	1.006105	0.220610	0.020324
H240	H	1.256105	0.470610	0.270324
F241	F	1.166712	-0.924910	-0.484202
F242	F	1.416712	-0.674910	-0.234202
F243	F	1.666712	-0.424910	0.015798
F244	F	1.916712	-0.174910	0.265798
F245	F	0.639316	-0.260765	-0.484578
F246	F	0.889316	-0.010765	-0.234578
F247	F	1.139316	0.239235	0.015422
F248	F	1.389316	0.489235	0.265422
F249	F	0.972597	-0.258858	-0.920516
F250	F	1.222597	-0.008858	-0.670516
F251	F	1.472597	0.241142	-0.420516
F252	F	1.722597	0.491142	-0.170516
H253	H	0.984461	-0.270664	-1.079495
H254	H	1.234461	-0.020664	-0.829495
H255	H	1.484461	0.229336	-0.579495
H256	H	1.734461	0.479336	-0.329495
H257	H	0.972677	-0.920770	-0.297838
H258	H	1.222677	-0.670770	-0.047838
H259	H	1.472677	-0.420770	0.202162
H260	H	1.722677	-0.170770	0.452162
F261	F	0.499631	-0.493411	-0.408367
F262	F	0.749631	-0.243411	-0.158367
F263	F	0.999631	0.006589	0.091633
F264	F	1.249631	0.256589	0.341633
H265	H	1.185086	-0.920739	-0.331402
H266	H	1.435086	-0.670739	-0.081402
H267	H	1.685086	-0.420739	0.168598
H268	H	1.935086	-0.170739	0.418598
F269	F	1.168018	-0.454455	-0.836877
F270	F	1.418018	-0.204455	-0.586877
F271	F	1.668018	0.045545	-0.336877
F272	F	1.918018	0.295545	-0.086877
F273	F	0.639725	-0.490868	-0.414372
F274	F	0.889725	-0.240868	-0.164372
F275	F	1.139725	0.009132	0.085628
F276	F	1.389725	0.259132	0.335628
F277	F	1.039867	-0.925960	-0.521957
F278	F	1.289867	-0.675960	-0.271957
F279	F	1.539867	-0.425960	-0.021957
F280	F	1.789867	-0.175960	0.228043
H281	H	0.633965	-0.312341	-0.256139
H282	H	0.883965	-0.062341	-0.006139
H283	H	1.133965	0.187659	0.243861
H284	H	1.383965	0.437659	0.493861
H285	H	1.114278	-0.919914	-0.255991
H286	H	1.364278	-0.669914	-0.005991
H287	H	1.614278	-0.419914	0.244009
H288	H	1.864278	-0.169914	0.494009
F289	F	0.936350	-0.925594	-0.415021
F290	F	1.186350	-0.675594	-0.165021
F291	F	1.436350	-0.425594	0.084979
F292	F	1.686350	-0.175594	0.334979
H293	H	0.984408	-0.270735	-0.826638
H294	H	1.234408	-0.020735	-0.576638
H295	H	1.484408	0.229265	-0.326638
H296	H	1.734408	0.479265	-0.076638
F297	F	0.641382	-0.459936	-0.279125
F298	F	0.891382	-0.209936	-0.029125
F299	F	1.141382	0.040064	0.220875
F300	F	1.391382	0.290064	0.470875
F301	F	1.168078	-0.454381	-1.089728
F302	F	1.418078	-0.204381	-0.839728
F303	F	1.668078	0.045619	-0.589728
F304	F	1.918078	0.295619	-0.339728
H305	H	0.976358	-0.793202	-0.294389
H306	H	1.226358	-0.543202	-0.044389
H307	H	1.476358	-0.293202	0.205611
H308	H	1.726358	-0.043202	0.455611
H309	H	0.506749	-0.312274	-0.256542
H310	H	0.756749	-0.062274	-0.006542
H311	H	1.006749	0.187726	0.243458
H312	H	1.256749	0.437726	0.493458
F313	F	0.641568	-0.224101	-0.336198
F314	F	0.891568	0.025899	-0.086198
F315	F	1.141568	0.275899	0.163802
F316	F	1.391568	0.525899	0.413802
H317	H	1.148039	-0.791719	-0.479321
H318	H	1.398039	-0.541719	-0.229321
H319	H	1.648039	-0.291719	0.020679
H320	H	1.898039	-0.041719	0.270679
F321	F	0.933746	-0.785504	-0.408936
F322	F	1.183746	-0.535504	-0.158936
F323	F	1.433746	-0.285504	0.091064
F324	F	1.683746	-0.035504	0.341064
F325	F	1.038730	-0.786618	-0.521869
F326	F	1.288730	-0.536618	-0.271869
F327	F	1.538730	-0.286618	-0.021869
F328	F	1.788730	-0.036618	0.228131
F329	F	0.500943	-0.455202	-0.275273
F330	F	0.750943	-0.205202	-0.025273
F331	F	1.000943	0.044798	0.224727
F332	F	1.250943	0.294798	0.474727
F333	F	1.203426	-0.786798	-0.336035
F334	F	1.453426	-0.536798	-0.086035
F335	F	1.703426	-0.286798	0.163965
F336	F	1.953426	-0.036798	0.413965
F337	F	1.110213	-0.786252	-0.237502
F338	F	1.360213	-0.536252	0.012498
F339	F	1.610213	-0.286252	0.262498
F340	F	1.860213	-0.036252	0.512498
H341	H	0.507329	-0.241273	-0.332246
H342	H	0.757329	0.008727	-0.082246
H343	H	1.007329	0.258727	0.167754
H344	H	1.257329	0.508727	0.417754
H345	H	1.156215	-0.442580	-0.930750
H346	H	1.406215	-0.192580	-0.680750
H347	H	1.656215	0.057420	-0.430750
H348	H	1.906215	0.307420	-0.180750
H349	H	0.633933	-0.375480	-0.507451
H350	H	0.883933	-0.125480	-0.257451
H351	H	1.133933	0.124520	-0.007451
H352	H	1.383933	0.374520	0.242549
F353	F	0.972550	-0.258919	-0.667671
F354	F	1.222550	-0.008919	-0.417671
F355	F	1.472550	0.241081	-0.167671
F356	F	1.722550	0.491081	0.082329
F357	F	0.500960	-0.388854	-0.521747
F358	F	0.750960	-0.138854	-0.271747
F359	F	1.000960	0.111146	-0.021747
F360	F	1.250960	0.361146	0.228253
F361	F	1.167989	-0.454497	-0.667648
F362	F	1.417989	-0.204497	-0.417648
F363	F	1.667989	0.045503	-0.167648
F364	F	1.917989	0.295503	0.082352
