data_functionalizedCrystal
_audit_creation_method	'MofGen! by Chris Wilmer'
_symmetry_space_group_name_H-M	'P1'
_symmetry_Int_Tables_number	1
_symmetry_cell_setting	triclinic
loop_
_symmetry_equiv_pos_as_xyz
  x,y,z
_cell_length_a	15.944499
_cell_length_b	17.019294
_cell_length_c	15.021413
_cell_angle_alpha	86.125043
_cell_angle_beta	89.990095
_cell_angle_gamma	83.435652
loop_
_atom_site_label
_atom_site_type_symbol
_atom_site_fract_x
_atom_site_fract_y
_atom_site_fract_z
O1	O	1.114429	0.101532	-0.081868
O2	O	1.614429	0.601532	0.418132
O3	O	0.869857	0.114118	-0.082822
O4	O	1.369857	0.614118	0.417178
O5	O	0.998965	-0.007007	-0.073538
O6	O	1.498965	0.492993	0.426462
O7	O	0.985321	0.222658	-0.091152
O8	O	1.485321	0.722658	0.408848
O9	O	0.998945	-0.006990	0.074525
O10	O	1.498945	0.493010	0.574525
O11	O	0.869837	0.114136	0.065241
O12	O	1.369837	0.614136	0.565241
O13	O	1.114408	0.101550	0.066195
O14	O	1.614408	0.601550	0.566195
Zn15	Zn	0.992119	0.107845	0.089226
Zn16	Zn	1.492119	0.607845	0.589226
Zn17	Zn	0.992146	0.107823	-0.105853
Zn18	Zn	1.492146	0.607823	0.394147
O19	O	0.985300	0.222675	0.056911
O20	O	1.485300	0.722675	0.556911
C21	C	0.838553	0.113612	-0.008750
C22	C	1.338553	0.613612	0.491250
C23	C	0.745307	0.112067	-0.008628
C24	C	1.245307	0.612067	0.491372
C25	C	0.453683	0.182437	-0.014038
C26	C	0.953683	0.682437	0.485962
C27	C	0.514768	0.145848	-0.084237
C28	C	1.014768	0.645848	0.415763
C29	C	0.409677	0.106454	-0.008218
C30	C	0.909677	0.606454	0.491782
C31	C	0.514733	0.145845	0.061743
C32	C	1.014733	0.645845	0.561743
C33	C	0.574582	0.109216	-0.008418
C34	C	1.074582	0.609216	0.491582
C35	C	0.469534	0.069844	-0.078475
C36	C	0.969534	0.569844	0.421525
C37	C	0.469493	0.069852	0.067569
C38	C	0.969493	0.569852	0.567569
C39	C	0.530561	0.033207	-0.002643
C40	C	1.030561	0.533207	0.497357
C41	C	0.314679	0.104866	-0.008103
C42	C	0.814679	0.604866	0.491897
C43	C	0.669579	0.110799	-0.008538
C44	C	1.169579	0.610799	0.491462
C45	C	0.998437	-0.036387	0.002746
C46	C	1.498437	0.463613	0.502746
C47	C	0.996885	-0.123957	0.009457
C48	C	1.496885	0.376043	0.509457
C49	C	0.996168	-0.165102	-0.068099
C50	C	1.496168	0.334898	0.431901
C51	C	0.994704	-0.247382	-0.061791
C52	C	1.494704	0.252618	0.438209
C53	C	0.993962	-0.288516	0.022074
C54	C	1.493962	0.211484	0.522074
C55	C	0.994676	-0.247364	0.099635
C56	C	1.494676	0.252636	0.599635
C57	C	0.996134	-0.165085	0.093326
C58	C	1.496134	0.334915	0.593326
C59	C	0.989553	-0.536945	0.045161
C60	C	1.489553	-0.036945	0.545161
C61	C	0.988097	-0.619230	0.051464
C62	C	1.488097	-0.119230	0.551464
C63	C	0.988124	-0.619242	-0.109963
C64	C	1.488124	-0.119242	0.390037
C65	C	0.989587	-0.536961	-0.116264
C66	C	1.489587	-0.036961	0.383736
C67	C	0.990296	-0.495817	-0.038703
C68	C	1.490296	0.004183	0.461297
C69	C	0.992468	-0.372619	0.028524
C70	C	1.492468	0.127381	0.528524
C71	C	0.991784	-0.411714	-0.045154
C72	C	1.491784	0.088286	0.454846
C73	C	1.145713	0.102056	-0.007879
C74	C	1.645713	0.602056	0.492121
C75	C	1.238959	0.103601	-0.008007
C76	C	1.738959	0.603601	0.491993
C77	C	0.985828	0.252055	-0.019375
C78	C	1.485828	0.752055	0.480625
C79	C	0.987381	0.339624	-0.026091
C80	C	1.487381	0.839624	0.473909
N81	N	0.992107	0.107860	0.222363
N82	N	1.492107	0.607860	0.722363
N83	N	0.992165	0.107801	-0.238989
N84	N	1.492165	0.607801	0.261011
C85	C	0.932398	0.163842	0.457755
C86	C	1.432398	0.663842	0.957755
C87	C	1.008281	0.179144	0.515913
C88	C	1.508281	0.679144	1.015913
C89	C	0.992128	0.107841	0.403971
C90	C	1.492128	0.607841	0.903971
C91	C	0.916266	0.092557	0.522554
C92	C	1.416266	0.592557	1.022554
C93	C	0.992142	0.107824	0.579396
C94	C	1.492142	0.607824	1.079396
C95	C	1.068050	0.123177	0.460820
C96	C	1.568050	0.623177	0.960820
C97	C	0.975984	0.036560	0.467458
C98	C	1.475984	0.536560	0.967458
C99	C	1.051922	0.051831	0.525591
C100	C	1.551922	0.551831	1.025591
C101	C	0.992119	0.107853	0.302913
C102	C	1.492119	0.607853	0.802913
C103	C	0.992160	0.107811	0.680453
C104	C	1.492160	0.607811	1.180453
H105	H	0.996777	-0.131617	-0.136391
H106	H	1.496777	0.368383	0.363609
F107	F	0.991675	-0.416404	0.117777
F108	F	1.491675	0.083596	0.617777
F109	F	0.993877	-0.291143	0.188891
F110	F	1.493877	0.208857	0.688891
F111	F	0.540988	0.187844	-0.168132
F112	F	1.040988	0.687844	0.331868
F113	F	0.574037	-0.049285	0.003632
F114	F	1.074037	0.450715	0.503632
H115	H	0.990147	-0.503457	0.108318
H116	H	1.490147	-0.003457	0.608318
H117	H	0.449408	0.037747	0.131754
H118	H	0.949408	0.537747	0.631754
H119	H	1.132225	0.136169	0.433847
H120	H	1.632225	0.636169	0.933847
H121	H	0.852105	0.079638	0.549632
H122	H	1.352105	0.579638	1.049632
F123	F	0.866443	0.225792	0.418998
F124	F	1.366443	0.725792	0.918998
F125	F	0.410012	0.264858	-0.020449
F126	F	0.910012	0.764858	0.479551
H127	H	0.996706	-0.131584	0.156481
H128	H	1.496706	0.368416	0.656481
F129	F	0.958090	-0.042196	0.439372
F130	F	1.458090	0.457804	0.939372
H131	H	0.449604	0.037729	-0.137802
H132	H	0.949604	0.537729	0.362198
H133	H	1.021949	0.239416	0.537376
H134	H	1.521949	0.739416	1.037376
H135	H	0.534760	0.178003	0.120994
H136	H	1.034760	0.678003	0.620994
F137	F	0.993943	-0.291168	-0.144337
F138	F	1.493943	0.208832	0.355663
F139	F	0.992576	-0.367935	-0.134406
F140	F	1.492576	0.132065	0.365594
F141	F	1.118022	-0.010083	0.564133
F142	F	1.618022	0.489917	1.064133
H143	H	0.990192	-0.503476	-0.184556
H144	H	1.490192	-0.003476	0.315444
H145	H	0.987545	-0.652750	-0.173109
H146	H	1.487545	-0.152750	0.326891
F147	F	0.987312	-0.663007	0.140729
F148	F	1.487312	-0.163007	0.640729
