data_functionalizedCrystal
_audit_creation_method	'MofGen! by Chris Wilmer'
_symmetry_space_group_name_H-M	'P1'
_symmetry_Int_Tables_number	1
_symmetry_cell_setting	triclinic
loop_
_symmetry_equiv_pos_as_xyz
  x,y,z
_cell_length_a	18.101397
_cell_length_b	21.295420
_cell_length_c	18.101389
_cell_angle_alpha	89.980946
_cell_angle_beta	89.978953
_cell_angle_gamma	90.016247
loop_
_atom_site_label
_atom_site_type_symbol
_atom_site_fract_x
_atom_site_fract_y
_atom_site_fract_z
Zn1	Zn	-0.294991	0.962365	-0.418721
Zn2	Zn	0.205009	1.462365	0.081279
Zn3	Zn	-0.418816	0.962296	-0.294874
Zn4	Zn	0.081184	1.462296	0.205126
Zn5	Zn	-0.294984	0.857098	-0.294894
Zn6	Zn	0.205016	1.357098	0.205106
Zn7	Zn	-0.418786	0.857076	-0.418674
Zn8	Zn	0.081214	1.357076	0.081326
O9	O	-0.356894	0.909709	-0.356791
O10	O	0.143106	1.409709	0.143209
O11	O	-0.311432	1.050445	-0.402304
O12	O	0.188568	1.550445	0.097696
O13	O	-0.402400	0.948322	-0.191243
O14	O	0.097600	1.448322	0.308757
O15	O	-0.191352	0.871100	-0.311348
O16	O	0.308648	1.371100	0.188652
O17	O	-0.402406	1.050394	-0.311314
O18	O	0.097594	1.550394	0.188686
O19	O	-0.191357	0.948439	-0.402323
O20	O	0.308643	1.448439	0.097677
O21	O	-0.311421	0.871033	-0.191258
O22	O	0.188579	1.371033	0.308742
O23	O	-0.311391	0.769006	-0.311302
O24	O	0.188609	1.269006	0.188698
O25	O	-0.402354	0.871062	-0.522313
O26	O	0.097646	1.371062	-0.022313
O27	O	-0.402348	0.768990	-0.402243
O28	O	0.097652	1.268990	0.097757
O29	O	-0.311402	0.948418	-0.522348
O30	O	0.188598	1.448418	-0.022348
O31	O	-0.522445	0.948300	-0.311268
O32	O	-0.022445	1.448300	0.188732
O33	O	-0.522423	0.870995	-0.402223
O34	O	-0.022423	1.370995	0.097777
C35	C	-0.356866	0.746157	-0.356770
C36	C	0.143134	1.246157	0.143230
C37	C	-0.356872	0.676189	-0.356778
C38	C	0.143128	1.176189	0.143222
C39	C	-0.309636	0.176757	-0.404257
C40	C	0.190364	0.676757	0.095743
C41	C	-0.309630	0.242499	-0.404257
C42	C	0.190370	0.742499	0.095743
C43	C	-0.356917	0.275350	-0.356808
C44	C	0.143083	0.775350	0.143192
C45	C	-0.404226	0.242452	-0.309368
C46	C	0.095774	0.742452	0.190632
C47	C	-0.404235	0.176711	-0.309375
C48	C	0.095765	0.676711	0.190625
N49	N	-0.362489	0.378546	-0.291962
N50	N	0.137511	0.878546	0.208038
N51	N	-0.362476	0.440997	-0.291958
N52	N	0.137524	0.940997	0.208042
C53	C	-0.356892	0.473424	-0.356786
C54	C	0.143108	0.973424	0.143214
N55	N	-0.351308	0.441041	-0.421620
N56	N	0.148692	0.941041	0.078380
N57	N	-0.351318	0.378584	-0.421623
N58	N	0.148682	0.878584	0.078377
C59	C	-0.356912	0.346635	-0.356796
C60	C	0.143088	0.846635	0.143204
C61	C	-0.309584	0.577600	-0.404226
C62	C	0.190416	1.077600	0.095774
C63	C	-0.309584	0.643343	-0.404227
C64	C	0.190416	1.143343	0.095773
C65	C	-0.404175	0.643295	-0.309332
C66	C	0.095825	1.143295	0.190668
C67	C	-0.404180	0.577552	-0.309337
C68	C	0.095820	1.077552	0.190663
C69	C	-0.356880	0.544709	-0.356783
C70	C	0.143120	1.044709	0.143217
C71	C	-0.549305	0.909655	-0.356755
C72	C	-0.049305	1.409655	0.143245
C73	C	-0.631619	0.909689	-0.356764
C74	C	-0.131619	1.409689	0.143236
C75	C	-0.930710	0.909770	-0.356832
C76	C	-0.430710	1.409770	0.143168
C77	C	-0.899368	0.958272	-0.299452
C78	C	-0.399368	1.458272	0.200548
C79	C	-0.813749	0.958440	-0.299600
C80	C	-0.313749	1.458440	0.200400
C81	C	-0.782327	0.909730	-0.356797
C82	C	-0.282327	1.409730	0.143203
C83	C	-0.813349	0.927713	-0.434858
C84	C	-0.313349	1.427713	0.065142
C85	C	-0.898994	0.928088	-0.434546
C86	C	-0.398994	1.428088	0.065454
C87	C	-0.899210	0.843155	-0.336826
C88	C	-0.399210	1.343155	0.163174
C89	C	-0.813560	0.843484	-0.335084
C90	C	-0.313560	1.343484	0.164916
C91	C	-0.698468	0.909706	-0.356783
C92	C	-0.198468	1.409706	0.143217
C93	C	-1.014569	0.909795	-0.356851
C94	C	-0.514569	1.409795	0.143149
C95	C	-0.163732	0.909780	-0.356843
C96	C	0.336268	1.409780	0.143157
C97	C	-0.081418	0.909810	-0.356865
C98	C	0.418582	1.409810	0.143135
C99	C	-0.356875	0.909745	-0.549953
C100	C	0.143125	1.409745	-0.049953
C101	C	-0.356867	0.909761	-0.632267
C102	C	0.143133	1.409761	-0.132267
C103	C	-0.356923	1.073899	-0.356812
C104	C	0.143077	1.573899	0.143188
C105	C	-0.356935	1.143867	-0.356821
C106	C	0.143065	1.643867	0.143179
C107	C	-0.356729	0.909797	-0.931358
C108	C	0.143271	1.409797	-0.431358
C109	C	-0.413771	0.860960	-0.900011
C110	C	0.086229	1.360960	-0.400011
C111	C	-0.414036	0.861092	-0.814392
C112	C	0.085964	1.361092	-0.314392
C113	C	-0.356798	0.909779	-0.782975
C114	C	0.143202	1.409779	-0.282975
C115	C	-0.377987	0.976104	-0.814073
C116	C	0.122013	1.476104	-0.314073
C117	C	-0.378362	0.975832	-0.899718
C118	C	0.121638	1.475832	-0.399718
C119	C	-0.278370	0.892885	-0.899787
C120	C	0.221630	1.392885	-0.399787
C121	C	-0.278822	0.891410	-0.814137
C122	C	0.221178	1.391410	-0.314137
C123	C	-0.356835	0.909772	-0.699116
C124	C	0.143165	1.409772	-0.199116
C125	C	-0.356693	0.909808	-1.015217
C126	C	0.143307	1.409808	-0.515217
C127	C	-0.356859	0.909709	-0.164380
C128	C	0.143141	1.409709	0.335620
C129	C	-0.356659	0.909815	-0.082066
C130	C	0.143341	1.409815	0.417934
H131	H	-0.442693	0.550773	-0.270707
H132	H	0.057307	1.050773	0.229293
Cl133	Cl	-0.250121	0.684691	-0.463873
Cl134	Cl	0.249879	1.184691	0.036127
Cl135	Cl	-0.465486	0.998622	-0.780965
Cl136	Cl	0.034514	1.498622	-0.280965
Cl137	Cl	-0.250179	0.135471	-0.463910
Cl138	Cl	0.249821	0.635471	0.036090
Cl139	Cl	-0.316961	1.033883	-0.931740
Cl140	Cl	0.183039	1.533883	-0.431740
H141	H	-0.442683	0.670041	-0.270704
H142	H	0.057317	1.170041	0.229296
Cl143	Cl	-0.781366	0.941030	-0.210248
Cl144	Cl	-0.281366	1.441030	0.289752
H145	H	-0.259065	0.845361	-0.921379
H146	H	0.240935	1.345361	-0.421379
H147	H	-0.919479	0.807017	-0.378619
H148	H	-0.419479	1.307017	0.121381
Cl149	Cl	-0.250161	0.283855	-0.463893
Cl150	Cl	0.249839	0.783855	0.036107
Cl151	Cl	-0.254152	0.816047	-0.782765
Cl152	Cl	0.245848	1.316047	-0.282765
Cl153	Cl	-0.931005	0.875909	-0.502796
Cl154	Cl	-0.431005	1.375909	-0.002796
H155	H	-0.792994	0.893466	-0.478760
H156	H	-0.292994	1.393466	0.021240
Cl157	Cl	-0.780158	1.002049	-0.461466
Cl158	Cl	-0.280158	1.502049	0.038534
Cl159	Cl	-0.209720	0.942327	-0.781132
Cl160	Cl	0.290280	1.442327	-0.281132
Cl161	Cl	-0.393559	0.785158	-0.781926
Cl162	Cl	0.106441	1.285158	-0.281926
Cl163	Cl	-0.932635	0.817896	-0.250467
Cl164	Cl	-0.432635	1.317896	0.249533
H165	H	-0.918920	0.976780	-0.451492
H166	H	-0.418920	1.476780	0.048508
H167	H	-0.235870	0.928456	-0.920061
H168	H	0.264130	1.428456	-0.420061
H169	H	-0.442729	0.269203	-0.270737
H170	H	0.057271	0.769203	0.229263
Cl171	Cl	-0.250125	0.536307	-0.463874
Cl172	Cl	0.249875	1.036307	0.036126
Cl173	Cl	-0.931227	0.941118	-0.209818
Cl174	Cl	-0.431227	1.441118	0.290182
Cl175	Cl	-0.463699	0.135361	-0.249733
Cl176	Cl	0.036301	0.635361	0.250267
Cl177	Cl	-0.315860	1.033797	-0.782660
Cl178	Cl	0.184140	1.533797	-0.282660
Cl179	Cl	-0.393506	0.784792	-0.931795
Cl180	Cl	0.106494	1.284792	-0.431795
Cl181	Cl	-0.932517	1.034042	-0.319651
Cl182	Cl	-0.432517	1.534042	0.180349
H183	H	-0.793212	1.007784	-0.312837
H184	H	-0.293212	1.507784	0.187163
H185	H	-0.793291	0.829925	-0.277638
H186	H	-0.293291	1.329925	0.222362
H187	H	-0.792178	0.805402	-0.373816
H188	H	-0.292178	1.305402	0.126184
H189	H	-0.471499	0.872015	-0.921532
H190	H	0.028501	1.372015	-0.421532
H191	H	-0.472118	0.872258	-0.793906
H192	H	0.027882	1.372258	-0.293906
Cl193	Cl	-0.466800	0.997963	-0.930567
Cl194	Cl	0.033200	1.497963	-0.430567
