data_functionalizedCrystal
_audit_creation_method	'MofGen! by Chris Wilmer'
_symmetry_space_group_name_H-M	'P1'
_symmetry_Int_Tables_number	1
_symmetry_cell_setting	triclinic
loop_
_symmetry_equiv_pos_as_xyz
  x,y,z
_cell_length_a	18.215407
_cell_length_b	12.759399
_cell_length_c	12.759393
_cell_angle_alpha	89.969094
_cell_angle_beta	90.020870
_cell_angle_gamma	89.990371
loop_
_atom_site_label
_atom_site_type_symbol
_atom_site_fract_x
_atom_site_fract_y
_atom_site_fract_z
Zn1	Zn	1.125144	0.418369	0.594015
Zn2	Zn	1.125067	0.594085	0.418334
Zn3	Zn	1.002070	0.418404	0.418350
Zn4	Zn	1.002064	0.593990	0.593971
O5	O	1.063586	0.506212	0.506168
O6	O	1.228118	0.441704	0.570722
O7	O	1.108722	0.570834	0.271315
O8	O	1.018431	0.271378	0.441678
O9	O	1.228061	0.570801	0.441650
O10	O	1.108853	0.271353	0.570738
O11	O	1.018356	0.441762	0.271327
O12	O	0.899085	0.441670	0.441636
O13	O	1.018420	0.570639	0.740998
O14	O	0.899080	0.570673	0.570664
O15	O	1.108847	0.441612	0.741030
O16	O	1.108715	0.741093	0.441607
O17	O	1.018345	0.741024	0.570648
C18	C	0.872380	0.506166	0.506147
C19	C	0.790581	0.506171	0.506163
C20	C	1.063541	0.779179	0.506144
C21	C	1.063589	0.895956	0.506169
C22	C	1.063641	0.506111	0.780201
C23	C	1.063665	0.506068	0.896978
C24	C	0.525547	0.439120	0.573483
C25	C	0.602406	0.439103	0.573479
C26	C	0.602366	0.573338	0.438876
C27	C	0.525509	0.573359	0.438885
C28	C	0.487101	0.506244	0.506187
C29	C	0.640818	0.506206	0.506174
C30	C	0.724151	0.506188	0.506170
C31	C	0.403762	0.506264	0.506193
C32	C	1.255539	0.506259	0.506189
C33	C	1.337338	0.506279	0.506198
C34	C	1.063651	0.232179	0.506215
C35	C	1.063679	0.115402	0.506235
C36	C	1.110698	0.950819	0.439054
C37	C	1.110746	1.060543	0.439089
C38	C	1.016568	1.060531	0.573357
C39	C	1.016525	0.950809	0.573326
C40	C	1.063574	0.506237	0.233200
C41	C	1.063693	0.505984	0.116424
C42	C	1.110753	0.438873	0.951858
C43	C	1.110766	0.438827	1.061582
C44	C	1.016599	0.573182	1.061536
C45	C	1.016583	0.573221	0.951814
H46	H	0.494278	0.384471	0.628284
H47	H	1.149022	0.906161	0.384372
O48	O	0.970865	0.897461	0.638637
C49	C	1.012718	0.833876	0.706508
H50	H	1.070689	0.866881	0.713078
H51	H	0.986073	0.832588	0.787329
H52	H	1.015235	0.750745	0.674002
H53	H	1.149088	0.384189	0.907214
H54	H	0.978268	0.627858	1.106197
O55	O	0.970816	0.638600	0.898659
C56	C	0.929256	0.697851	0.970584
H57	H	0.959408	0.701474	1.048805
H58	H	0.921381	0.780636	0.938860
H59	H	0.873375	0.659358	0.982246
O60	O	1.156628	1.113689	0.373945
C61	C	1.229944	1.086751	0.397037
H62	H	1.231387	1.007061	0.437426
H63	H	1.262979	1.082979	0.321264
H64	H	1.254751	1.148430	0.451091
O65	O	0.639638	0.373797	0.638882
C66	C	0.589255	0.314590	0.698302
H67	H	0.534456	0.310920	0.655277
H68	H	0.611464	0.231819	0.709643
H69	H	0.581103	0.353152	0.778033
H70	H	0.633647	0.627978	0.384079
H71	H	0.978249	1.105206	0.628033
H72	H	0.494205	0.628026	0.384084
H73	H	1.149109	0.384108	1.106261
