data_functionalizedCrystal
_audit_creation_method	'MofGen! by Chris Wilmer'
_symmetry_space_group_name_H-M	'P1'
_symmetry_Int_Tables_number	1
_symmetry_cell_setting	triclinic
loop_
_symmetry_equiv_pos_as_xyz
  x,y,z
_cell_length_a	19.121241
_cell_length_b	19.121063
_cell_length_c	12.759393
_cell_angle_alpha	92.403460
_cell_angle_beta	87.534413
_cell_angle_gamma	95.003121
loop_
_atom_site_label
_atom_site_type_symbol
_atom_site_fract_x
_atom_site_fract_y
_atom_site_fract_z
Zn1	Zn	1.063771	-0.234283	-0.676976
Zn2	Zn	1.563771	0.265717	-0.176976
Zn3	Zn	1.058652	-0.351969	-0.508458
Zn4	Zn	1.558652	0.148031	-0.008458
Zn5	Zn	0.946096	-0.239329	-0.494105
Zn6	Zn	1.446096	0.260671	0.005895
Zn7	Zn	0.941046	-0.356923	-0.676887
Zn8	Zn	1.441046	0.143077	-0.176887
O9	O	1.002391	-0.295626	-0.589106
O10	O	1.502391	0.204374	-0.089106
O11	O	1.161558	-0.245710	-0.660666
O12	O	1.661558	0.254290	-0.160666
O13	O	1.043692	-0.337065	-0.359533
O14	O	1.543692	0.162935	0.140467
O15	O	0.965961	-0.140194	-0.512394
O16	O	1.465961	0.359806	-0.012394
O17	O	1.157797	-0.332173	-0.536856
O18	O	1.657797	0.167827	-0.036856
O19	O	1.052416	-0.136487	-0.646749
O20	O	1.552416	0.363513	-0.146749
O21	O	0.960998	-0.254309	-0.348988
O22	O	1.460998	0.245691	0.151012
O23	O	0.846960	-0.259113	-0.512307
O24	O	1.346960	0.240887	-0.012307
O25	O	0.957355	-0.340616	-0.823919
O26	O	1.457355	0.159384	-0.323919
O27	O	0.843250	-0.345508	-0.646597
O28	O	1.343250	0.154492	-0.146597
O29	O	1.047520	-0.250513	-0.823985
O30	O	1.547520	0.249487	-0.323985
O31	O	1.038796	-0.451091	-0.536769
O32	O	1.538796	0.048909	-0.036769
O33	O	0.952392	-0.454731	-0.660514
O34	O	1.452392	0.045269	-0.160514
C35	C	0.819574	-0.303396	-0.577885
C36	C	1.319574	0.196604	-0.077885
C37	C	0.741363	-0.306737	-0.573111
C38	C	1.241363	0.193263	-0.073111
C39	C	0.706575	-0.263362	-0.635436
C40	C	1.206575	0.236638	-0.135436
C41	C	0.633088	-0.266498	-0.630941
C42	C	1.133088	0.233502	-0.130941
C43	C	0.594390	-0.313013	-0.564125
C44	C	1.094390	0.186987	-0.064125
C45	C	0.629183	-0.356391	-0.501793
C46	C	1.129183	0.143609	-0.001793
C47	C	0.702669	-0.353251	-0.506284
C48	C	1.202669	0.146749	-0.006284
C49	C	0.372412	-0.324739	-0.547331
C50	C	0.872412	0.175261	-0.047331
C51	C	0.298921	-0.327877	-0.542848
C52	C	0.798921	0.172123	-0.042848
C53	C	0.302831	-0.237983	-0.671994
C54	C	0.802831	0.262017	-0.171994
C55	C	0.376318	-0.234850	-0.676484
C56	C	0.876318	0.265150	-0.176484
C57	C	0.411105	-0.278225	-0.614148
C58	C	0.911105	0.221775	-0.114148
C59	C	0.519274	-0.316221	-0.559531
C60	C	1.019274	0.183779	-0.059531
C61	C	0.486219	-0.275013	-0.618737
C62	C	0.986219	0.224987	-0.118737
C63	C	0.994510	-0.478441	-0.600213
C64	C	1.494510	0.021559	-0.100213
C65	C	0.991202	-0.556648	-0.605004
C66	C	1.491202	-0.056648	-0.105004
C67	C	1.034670	-0.591470	-0.542885
C68	C	1.534670	-0.091470	-0.042885
C69	C	1.031563	-0.664953	-0.547397
C70	C	1.531563	-0.164953	-0.047397
C71	C	0.984985	-0.703613	-0.614023
C72	C	1.484985	-0.203613	-0.114023
C73	C	0.941516	-0.668786	-0.676149
C74	C	1.441516	-0.168786	-0.176149
C75	C	0.944627	-0.595304	-0.671642
C76	C	1.444627	-0.095304	-0.171642
C77	C	0.973344	-0.925577	-0.630857
C78	C	1.473344	-0.425577	-0.130857
C79	C	0.970236	-0.999064	-0.635358
C80	C	1.470236	-0.499064	-0.135358
C81	C	1.060284	-0.995226	-0.506607
C82	C	1.560284	-0.495226	-0.006607
C83	C	1.063387	-0.921743	-0.502101
C84	C	1.563387	-0.421743	-0.002101
C85	C	1.019921	-0.886922	-0.564231
C86	C	1.519921	-0.386922	-0.064231
C87	C	0.981807	-0.778725	-0.618634
C88	C	1.481807	-0.278725	-0.118634
C89	C	1.023103	-0.811812	-0.559625
C90	C	1.523103	-0.311812	-0.059625
C91	C	1.185923	-0.287826	-0.600372
C92	C	1.685923	0.212174	-0.100372
C93	C	1.264133	-0.284502	-0.605173
C94	C	1.764133	0.215498	-0.105173
C95	C	1.002445	-0.295554	-0.863139
C96	C	1.502445	0.204446	-0.363139
C97	C	1.002469	-0.295524	-0.979915
C98	C	1.502469	0.204476	-0.479915
C99	C	1.010323	-0.112096	-0.577980
C100	C	1.510323	0.387904	-0.077980
C101	C	1.013703	-0.033886	-0.573239
C102	C	1.513703	0.466114	-0.073239
C103	C	1.049437	-0.248573	-1.144543
C104	C	1.549437	0.251427	-0.644543
C105	C	1.049422	-0.248601	-1.034820
C106	C	1.549422	0.251399	-0.534820
C107	C	0.955531	-0.342427	-1.034740
C108	C	1.455531	0.157573	-0.534740
C109	C	0.955550	-0.342402	-1.144462
C110	C	1.455550	0.157598	-0.644462
C111	C	1.002380	-0.295645	-0.316140
C112	C	1.502380	0.204355	0.183860
C113	C	1.002502	-0.295471	-0.199360
C114	C	1.502502	0.204529	0.300640
H115	H	0.400726	-0.360059	-0.496574
H116	H	0.900726	0.139941	0.003426
C117	C	1.088828	-0.128001	-0.995943
C118	C	1.588828	0.371999	-0.495943
C119	C	1.101011	-0.197041	-0.974571
C120	C	1.601011	0.302959	-0.474571
H121	H	1.120676	-0.096169	-0.958744
H122	H	1.620676	0.403831	-0.458744
H123	H	1.095555	-0.121279	-1.069139
H124	H	1.595555	0.378721	-0.569139
H125	H	1.041990	-0.119730	-0.974422
H126	H	1.541990	0.380270	-0.474422
H127	H	1.147847	-0.205314	-0.996099
H128	H	1.647847	0.294686	-0.496099
H129	H	1.094289	-0.203766	-0.901358
H130	H	1.594289	0.296234	-0.401358
H131	H	1.087668	-0.210358	-1.189238
H132	H	1.587668	0.289642	-0.689238
C133	C	1.123368	-0.595064	-0.416081
C134	C	1.623368	-0.095064	0.083919
C135	C	1.085870	-0.548978	-0.469647
C136	C	1.585870	-0.048978	0.030353
H137	H	1.154981	-0.568831	-0.370872
H138	H	1.654981	-0.068831	0.129128
H139	H	1.091510	-0.625075	-0.375739
H140	H	1.591510	-0.125075	0.124261
H141	H	1.149054	-0.622533	-0.465307
H142	H	1.649054	-0.122533	0.034693
H143	H	1.060180	-0.521512	-0.420420
H144	H	1.560180	-0.021512	0.079580
H145	H	1.117732	-0.518955	-0.509991
H146	H	1.617732	-0.018955	-0.009991
H147	H	1.066958	-0.693301	-0.496813
H148	H	1.566958	-0.193301	0.003187
C149	C	0.941656	-0.437509	-0.916462
C150	C	1.441656	0.062491	-0.416462
C151	C	0.903925	-0.394006	-0.974379
C152	C	1.403925	0.105994	-0.474379
H153	H	0.909795	-0.469348	-0.879192
H154	H	1.409795	0.030652	-0.379192
H155	H	0.971148	-0.463113	-0.962780
H156	H	1.471148	0.036887	-0.462780
H157	H	0.969606	-0.409569	-0.868122
H158	H	1.469606	0.090431	-0.368122
H159	H	0.875978	-0.421946	-1.022724
H160	H	1.375978	0.078054	-0.522724
H161	H	0.874421	-0.368401	-0.928056
H162	H	1.374421	0.131599	-0.428056
C163	C	1.151452	-1.073749	-0.503012
C164	C	1.651452	-0.573749	-0.003012
C165	C	1.108073	-1.033497	-0.438331
C166	C	1.608073	-0.533497	0.061669
H167	H	1.180962	-1.097371	-0.460860
H168	H	1.680962	-0.597371	0.039140
H169	H	1.123267	-1.107290	-0.543318
H170	H	1.623267	-0.607290	-0.043318
H171	H	1.179557	-1.043881	-0.548711
H172	H	1.679557	-0.543881	-0.048711
H173	H	1.079965	-1.063366	-0.392637
H174	H	1.579965	-0.563366	0.107363
H175	H	1.136262	-0.999953	-0.398007
H176	H	1.636262	-0.499953	0.101993
H177	H	0.597669	-0.394261	-0.447385
H178	H	1.097669	0.105739	0.052615
H179	H	0.932315	-1.030539	-0.689631
H180	H	1.432315	-0.530539	-0.189631
C181	C	0.916126	-0.463002	-1.183344
C182	C	1.416126	0.036998	-0.683344
C183	C	0.903953	-0.393959	-1.204719
C184	C	1.403953	0.106041	-0.704719
H185	H	0.884272	-0.494830	-1.220539
H186	H	1.384272	0.005170	-0.720539
H187	H	0.962956	-0.471280	-1.204857
H188	H	1.462956	0.028720	-0.704857
H189	H	0.909394	-0.469721	-1.110137
H190	H	1.409394	0.030279	-0.610137
H191	H	0.910691	-0.387238	-1.277924
H192	H	1.410691	0.112762	-0.777924
H193	H	0.857112	-0.385678	-1.183211
H194	H	1.357112	0.114322	-0.683211
H195	H	0.517731	-0.237137	-0.673133
H196	H	1.017731	0.262863	-0.173133
H197	H	0.604767	-0.231178	-0.681695
H198	H	1.104767	0.268822	-0.181695
C199	C	0.703051	-0.174819	-0.762635
C200	C	1.203051	0.325181	-0.262635
C201	C	0.749109	-0.212230	-0.708884
C202	C	1.249109	0.287770	-0.208884
H203	H	0.729310	-0.143248	-0.807973
H204	H	1.229310	0.356752	-0.307973
H205	H	0.673083	-0.206731	-0.802858
H206	H	1.173083	0.293269	-0.302858
H207	H	0.675533	-0.149095	-0.713523
H208	H	1.175533	0.350905	-0.213523
H209	H	0.776624	-0.237958	-0.757995
H210	H	1.276624	0.262042	-0.257995
H211	H	0.779089	-0.180313	-0.668658
H212	H	1.279089	0.319687	-0.168658
C213	C	1.161536	-0.834997	-0.488361
C214	C	1.661536	-0.334997	0.011639
C215	C	1.114587	-0.879243	-0.428869
C216	C	1.614587	-0.379243	0.071131
H217	H	1.193139	-0.808756	-0.443146
H218	H	1.693139	-0.308756	0.056854
H219	H	1.187226	-0.862471	-0.537560
H220	H	1.687226	-0.362471	-0.037560
H221	H	1.136083	-0.803749	-0.524711
H222	H	1.636083	-0.303749	-0.024711
H223	H	1.140040	-0.910496	-0.392525
H224	H	1.640040	-0.410496	0.107475
H225	H	1.088894	-0.851767	-0.379652
H226	H	1.588894	-0.351767	0.120348
H227	H	0.407821	-0.196975	-0.730896
H228	H	0.907821	0.303025	-0.230896
H229	H	0.274499	-0.202669	-0.722743
H230	H	0.774499	0.297331	-0.222743
C231	C	0.884007	-0.936764	-0.758544
C232	C	1.384007	-0.436764	-0.258544
C233	C	0.925553	-0.887309	-0.699128
C234	C	1.425553	-0.387309	-0.199128
H235	H	0.854496	-0.913135	-0.800684
H236	H	1.354496	-0.413135	-0.300684
H237	H	0.913437	-0.964067	-0.802412
H238	H	1.413437	-0.464067	-0.302412
H239	H	0.855904	-0.966621	-0.712827
H240	H	1.355904	-0.466621	-0.212827
H241	H	0.953660	-0.857456	-0.744845
H242	H	1.453660	-0.357456	-0.244845
H243	H	0.896120	-0.859994	-0.655256
H244	H	1.396120	-0.359994	-0.155256
H245	H	0.267414	-0.365760	-0.488438
H246	H	0.767414	0.134240	0.011562
C247	C	0.896758	-0.783132	-0.740217
C248	C	1.396758	-0.283132	-0.240217
C249	C	0.890314	-0.711280	-0.749383
C250	C	1.390314	-0.211280	-0.249383
H251	H	0.865143	-0.809364	-0.785424
H252	H	1.365143	-0.309364	-0.285424
H253	H	0.943516	-0.793113	-0.759291
H254	H	1.443516	-0.293113	-0.259291
H255	H	0.885974	-0.795650	-0.669720
H256	H	1.385974	-0.295650	-0.169720
H257	H	0.901104	-0.698762	-0.819879
H258	H	1.401104	-0.198762	-0.319879
H259	H	0.843546	-0.701294	-0.730315
H260	H	1.343546	-0.201294	-0.230315
C261	C	0.691427	-0.442431	-0.378191
C262	C	1.191427	0.057569	0.121809
C263	C	0.740910	-0.400935	-0.437781
C264	C	1.240910	0.099065	0.062219
H265	H	0.715037	-0.471871	-0.335904
H266	H	1.215037	0.028129	0.164096
H267	H	0.664074	-0.412968	-0.334462
H268	H	1.164074	0.087032	0.165538
H269	H	0.661618	-0.470603	-0.423800
H270	H	1.161618	0.029397	0.076200
H271	H	0.770716	-0.372759	-0.392173
H272	H	1.270716	0.127241	0.107827
H273	H	0.768275	-0.430401	-0.481515
H274	H	1.268275	0.069599	0.018485
H275	H	0.487758	-0.354095	-0.505129
H276	H	0.987758	0.145905	-0.005129
C277	C	0.855306	-0.606474	-0.799357
C278	C	1.355306	-0.106474	-0.299357
C279	C	0.896847	-0.557025	-0.739926
C280	C	1.396847	-0.057025	-0.239926
H281	H	0.825809	-0.582842	-0.841513
H282	H	1.325809	-0.082842	-0.341513
H283	H	0.884739	-0.633784	-0.843210
H284	H	1.384739	-0.133784	-0.343210
H285	H	0.827189	-0.636326	-0.753650
H286	H	1.327189	-0.136326	-0.253650
H287	H	0.924968	-0.527176	-0.785634
H288	H	1.424968	-0.027176	-0.285634
H289	H	0.867411	-0.529703	-0.696070
H290	H	1.367411	-0.029703	-0.196070
C291	C	1.036411	-0.728828	-0.413860
C292	C	1.536411	-0.228828	0.086140
C293	C	1.074298	-0.769319	-0.486386
C294	C	1.574298	-0.269319	0.013614
H295	H	1.068016	-0.702595	-0.368640
H296	H	1.568016	-0.202595	0.131360
H297	H	1.010975	-0.697580	-0.450220
H298	H	1.510975	-0.197580	0.049780
H299	H	1.004554	-0.758854	-0.373521
H300	H	1.504554	-0.258854	0.126479
H301	H	1.106151	-0.739292	-0.526730
H302	H	1.606151	-0.239292	-0.026730
H303	H	1.099746	-0.800571	-0.450023
H304	H	1.599746	-0.300571	0.049977
H305	H	0.943882	-0.810210	-0.672879
H306	H	1.443882	-0.310210	-0.172879
