data_functionalizedCrystal
_audit_creation_method	'MofGen! by Chris Wilmer'
_symmetry_space_group_name_H-M	'P1'
_symmetry_Int_Tables_number	1
_symmetry_cell_setting	triclinic
loop_
_symmetry_equiv_pos_as_xyz
  x,y,z
_cell_length_a	18.215407
_cell_length_b	18.215405
_cell_length_c	17.077396
_cell_angle_alpha	89.971420
_cell_angle_beta	89.983192
_cell_angle_gamma	90.020191
loop_
_atom_site_label
_atom_site_type_symbol
_atom_site_fract_x
_atom_site_fract_y
_atom_site_fract_z
Zn1	Zn	1.125082	-0.293034	-0.443786
Zn2	Zn	1.625082	0.206966	0.056214
Zn3	Zn	1.124995	-0.416108	-0.312520
Zn4	Zn	1.624995	0.083892	0.187480
Zn5	Zn	1.002015	-0.293054	-0.312540
Zn6	Zn	1.502015	0.206946	0.187460
Zn7	Zn	1.001985	-0.416058	-0.443749
Zn8	Zn	1.501985	0.083942	0.056251
O9	O	1.063520	-0.354563	-0.378149
O10	O	1.563520	0.145437	0.121851
O11	O	1.228055	-0.309373	-0.426380
O12	O	1.728055	0.190627	0.073620
O13	O	1.108658	-0.399813	-0.202675
O14	O	1.608658	0.100187	0.297325
O15	O	1.018389	-0.190067	-0.329974
O16	O	1.518389	0.309933	0.170026
O17	O	1.227991	-0.399794	-0.329939
O18	O	1.727991	0.100206	0.170061
O19	O	1.108806	-0.190053	-0.426399
O20	O	1.608806	0.309947	0.073601
O21	O	1.018305	-0.309406	-0.202690
O22	O	1.518305	0.190594	0.297310
O23	O	0.899027	-0.309358	-0.329938
O24	O	1.399027	0.190642	0.170062
O25	O	1.018338	-0.399710	-0.553601
O26	O	1.518338	0.100290	-0.053601
O27	O	0.899005	-0.399729	-0.426337
O28	O	1.399005	0.100271	0.073663
O29	O	1.108777	-0.309324	-0.553628
O30	O	1.608777	0.190676	-0.053628
O31	O	1.108629	-0.519085	-0.329904
O32	O	1.608629	-0.019085	0.170096
O33	O	1.018254	-0.519049	-0.426318
O34	O	1.518254	-0.019049	0.073682
C35	C	0.872313	-0.354541	-0.378137
C36	C	1.372313	0.145459	0.121863
C37	C	0.790514	-0.354549	-0.378150
C38	C	1.290514	0.145451	0.121850
C39	C	0.525465	-0.401697	-0.428275
C40	C	1.025465	0.098303	0.071725
C41	C	0.602323	-0.401690	-0.428271
C42	C	1.102323	0.098310	0.071729
C43	C	0.602316	-0.307447	-0.328036
C44	C	1.102316	0.192553	0.171964
C45	C	0.525458	-0.307457	-0.328037
C46	C	1.025458	0.192543	0.171963
C47	C	0.487035	-0.354581	-0.378160
C48	C	0.987035	0.145419	0.121840
C49	C	0.640751	-0.354564	-0.378156
C50	C	1.140751	0.145436	0.121844
C51	C	0.724085	-0.354557	-0.378152
C52	C	1.224085	0.145443	0.121848
C53	C	0.403696	-0.354590	-0.378164
C54	C	0.903696	0.145410	0.121836
C55	C	1.063449	-0.545770	-0.378122
C56	C	1.563449	-0.045770	0.121878
C57	C	1.063486	-0.627569	-0.378136
C58	C	1.563486	-0.127569	0.121864
C59	C	1.110589	-0.815694	-0.428413
C60	C	1.610589	-0.315694	0.071587
C61	C	1.110615	-0.892553	-0.428428
C62	C	1.610615	-0.392553	0.071572
C63	C	1.016541	-0.892681	-0.327933
C64	C	1.516541	-0.392681	0.172067
C65	C	1.016512	-0.815824	-0.327923
C66	C	1.516512	-0.315824	0.172077
C67	C	1.063539	-0.777332	-0.378162
C68	C	1.563539	-0.277332	0.121838
C69	C	1.063596	-0.931048	-0.378186
C70	C	1.563596	-0.431048	0.121814
C71	C	1.063625	-1.014382	-0.378202
C72	C	1.563625	-0.514382	0.121798
C73	C	1.063510	-0.693993	-0.378147
C74	C	1.563510	-0.193993	0.121853
C75	C	1.255472	-0.354587	-0.378161
C76	C	1.755472	0.145413	0.121839
C77	C	1.337271	-0.354597	-0.378167
C78	C	1.837271	0.145403	0.121833
C79	C	1.063564	-0.354509	-0.582893
C80	C	1.563564	0.145491	-0.082893
C81	C	1.063583	-0.354486	-0.670143
C82	C	1.563583	0.145514	-0.170143
C83	C	1.063610	-0.162611	-0.378193
C84	C	1.563610	0.337389	0.121807
C85	C	1.063649	-0.080812	-0.378212
C86	C	1.563649	0.419188	0.121788
C87	C	1.110676	-0.307419	-0.711148
C88	C	1.610676	0.192581	-0.211148
C89	C	1.110685	-0.307394	-0.793129
C90	C	1.610685	0.192606	-0.293129
C91	C	1.063604	-0.354441	-0.834102
C92	C	1.563604	0.145559	-0.334102
C93	C	1.016506	-0.401511	-0.793091
C94	C	1.516506	0.098489	-0.293091
C95	C	1.016494	-0.401531	-0.711112
C96	C	1.516494	0.098469	-0.211112
C97	C	1.016535	-0.401467	-0.963961
C98	C	1.516535	0.098533	-0.463961
C99	C	1.016548	-0.401448	-1.045946
C100	C	1.516548	0.098552	-0.545946
C101	C	1.110727	-0.307330	-1.045978
C102	C	1.610727	0.192670	-0.545978
C103	C	1.110715	-0.307350	-0.963999
C104	C	1.610715	0.192650	-0.463999
C105	C	1.063617	-0.354421	-0.922993
C106	C	1.563617	0.145579	-0.422993
C107	C	1.063518	-0.354564	-0.174201
C108	C	1.563518	0.145436	0.325799
C109	C	1.063641	-0.354380	-0.086951
C110	C	1.563641	0.145620	0.413049
H111	H	0.633610	-0.440057	-0.469078
H112	H	1.133610	0.059943	0.030922
Br113	Br	1.174465	-0.944613	-0.496636
Br114	Br	1.674465	-0.444613	0.003364
Br115	Br	0.952604	-0.465357	-0.848697
Br116	Br	1.452604	0.034643	-0.348697
Br117	Br	0.952719	-0.944924	-0.259757
Br118	Br	1.452719	-0.444924	0.240243
Br119	Br	0.952644	-0.465291	-1.101553
Br120	Br	1.452644	0.034709	-0.601553
H121	H	0.978195	-0.784587	-0.287002
H122	H	1.478195	-0.284587	0.212998
Br123	Br	0.952574	-0.465406	-0.655461
Br124	Br	1.452574	0.034594	-0.155461
Br125	Br	0.473321	-0.465651	-0.496297
Br126	Br	0.973321	0.034349	0.003703
Br127	Br	1.174410	-0.763457	-0.496595
Br128	Br	1.674410	-0.263457	0.003405
Br129	Br	1.174581	-0.243571	-0.655549
Br130	Br	1.674581	0.256429	-0.155549
H131	H	0.633609	-0.269079	-0.287229
H132	H	1.133609	0.230921	0.212771
Br133	Br	1.174634	-0.243548	-0.848776
Br134	Br	1.674634	0.256452	-0.348776
Br135	Br	1.174618	-0.243506	-0.908392
Br136	Br	1.674618	0.256494	-0.408392
H137	H	0.978172	-0.439785	-0.930577
H138	H	1.478172	0.060215	-0.430577
Br139	Br	1.174648	-0.243451	-1.101627
Br140	Br	1.674648	0.256549	-0.601627
Br141	Br	0.473298	-0.243515	-0.260014
Br142	Br	0.973298	0.256485	0.239986
