data_functionalizedCrystal
_audit_creation_method	'MofGen! by Chris Wilmer'
_symmetry_space_group_name_H-M	'P1'
_symmetry_Int_Tables_number	1
_symmetry_cell_setting	triclinic
loop_
_symmetry_equiv_pos_as_xyz
  x,y,z
_cell_length_a	12.594517
_cell_length_b	12.594516
_cell_length_c	14.908308
_cell_angle_alpha	93.270069
_cell_angle_beta	93.287766
_cell_angle_gamma	90.007702
loop_
_atom_site_label
_atom_site_type_symbol
_atom_site_fract_x
_atom_site_fract_y
_atom_site_fract_z
Zn1	Zn	1.592558	-0.458553	-0.509887
Zn2	Zn	1.602740	-0.626290	-0.359038
Zn3	Zn	1.424838	-0.448315	-0.359069
Zn4	Zn	1.414559	-0.636476	-0.509873
O5	O	1.508674	-0.542408	-0.434467
O6	O	1.742855	-0.480825	-0.489869
O7	O	1.587704	-0.594133	-0.232799
O8	O	1.447127	-0.300728	-0.379094
O9	O	1.750336	-0.604061	-0.379041
O10	O	1.570351	-0.308250	-0.489900
O11	O	1.457000	-0.463376	-0.232822
O12	O	1.274528	-0.473253	-0.379081
O13	O	1.429608	-0.621422	-0.636118
O14	O	1.266976	-0.611494	-0.489875
O15	O	1.560383	-0.490703	-0.636128
O16	O	1.577737	-0.776585	-0.379027
O17	O	1.439480	-0.784069	-0.489845
C18	C	1.232132	-0.542369	-0.434480
C19	C	1.113825	-0.542379	-0.434508
C20	C	1.040503	-0.617700	-0.494653
C21	C	0.968175	-0.522165	-0.516840
C22	C	0.975354	-0.637993	-0.412300
C23	C	1.043052	-0.446796	-0.456738
C24	C	1.050240	-0.562686	-0.352160
C25	C	0.977947	-0.467082	-0.374316
C26	C	1.508625	-0.818948	-0.434451
C27	C	1.508700	-0.937255	-0.434474
C28	C	1.583976	-1.002404	-0.374265
C29	C	1.604377	-1.078710	-0.456603
C30	C	1.488429	-1.071752	-0.352189
C31	C	1.529148	-1.012006	-0.516855
C32	C	1.413159	-1.005038	-0.412386
C33	C	1.433519	-1.081316	-0.494781
C34	C	1.786295	-0.542449	-0.434453
C35	C	1.904601	-0.542466	-0.434448
C36	C	1.492713	-0.558341	-0.669771
C37	C	1.485912	-0.565130	-0.770044
C38	C	1.508750	-0.264790	-0.434502
C39	C	1.508782	-0.146485	-0.434517
C40	C	1.609305	-0.441745	-0.958480
C41	C	1.602917	-0.448121	-1.052696
C42	C	1.466745	-0.584251	-1.052692
C43	C	1.473132	-0.577875	-0.958477
C44	C	1.544416	-0.506621	-0.911374
C45	C	1.550808	-0.500251	-0.817157
C46	C	1.414631	-0.636375	-0.817155
C47	C	1.408244	-0.642751	-0.911371
C48	C	1.524634	-0.526461	-0.200077
C49	C	1.531641	-0.519372	-0.099805
H50	H	1.086124	-0.579863	-0.282566
F51	F	1.667187	-0.957293	-0.307771
H52	H	1.546242	-0.985714	-0.586521
F53	F	1.390880	-0.660071	-1.102837
F54	F	1.081808	-0.341129	-0.481360
H55	H	1.369892	-1.115639	-0.545775
F56	F	0.942125	-0.383787	-0.307801
H57	H	0.945559	-0.718815	-0.393545
H58	H	1.471249	-1.098180	-0.282584
H59	H	1.361796	-0.689205	-0.778791
H60	H	1.685209	-1.111024	-0.475309
H61	H	1.608851	-0.442234	-0.778808
H62	H	1.332352	-0.972699	-0.393655
H63	H	1.655754	-0.395289	-1.091046
H64	H	0.932314	-0.505019	-0.586454
H65	H	1.667351	-0.383733	-0.920129
H66	H	1.068102	-0.681284	-0.545580
F67	F	1.332381	-0.718578	-0.961510
