data_functionalizedCrystal
_audit_creation_method	'MofGen! by Chris Wilmer'
_symmetry_space_group_name_H-M	'P1'
_symmetry_Int_Tables_number	1
_symmetry_cell_setting	triclinic
loop_
_symmetry_equiv_pos_as_xyz
  x,y,z
_cell_length_a	14.044220
_cell_length_b	14.519731
_cell_length_c	13.596369
_cell_angle_alpha	89.994584
_cell_angle_beta	90.004689
_cell_angle_gamma	91.561135
loop_
_atom_site_label
_atom_site_type_symbol
_atom_site_fract_x
_atom_site_fract_y
_atom_site_fract_z
O1	O	-0.124370	1.233888	-0.081792
O2	O	-0.138983	0.966592	-0.081793
O3	O	0.006315	1.096228	-0.081788
O4	O	-0.269668	1.104252	-0.081797
O5	O	0.006323	1.096213	0.081795
O6	O	-0.138975	0.966578	0.081790
O7	O	-0.124362	1.233873	0.081791
Zn8	Zn	-0.131667	1.100223	0.107763
Zn9	Zn	-0.131678	1.100242	-0.107765
O10	O	-0.269660	1.104238	0.081786
C11	C	-0.138295	0.932170	-0.000002
C12	C	-0.136243	0.829625	-0.000002
C13	C	-0.134575	0.746346	-0.000006
C14	C	-0.132492	0.641869	-0.000006
C15	C	-0.130839	0.558597	-0.000006
C16	C	-0.128756	0.454113	-0.000008
C17	C	-0.304985	1.107757	-0.000006
C18	C	-0.410229	1.118234	-0.000010
C19	C	-0.602925	1.137389	-0.000005
C20	C	-0.660426	1.063081	-0.000005
C21	C	-0.767648	1.073739	-0.000002
C22	C	-0.495692	1.126732	-0.000008
C23	C	0.041640	1.092708	0.000003
C24	C	0.146884	1.082231	-0.000000
C25	C	-0.125050	1.268295	-0.000002
C26	C	-0.127102	1.370841	-0.000008
N27	N	-0.131660	1.100217	0.254855
N28	N	-0.131678	1.100256	-0.254856
C29	C	-0.131679	1.100241	0.656146
C30	C	-0.131677	1.100232	0.544494
C31	C	-0.131670	1.100229	0.455504
C32	C	-0.131667	1.100219	0.343845
H33	H	-0.629128	0.991460	-0.000004
O34	O	-0.644370	1.232257	0.000006
H35	H	-0.723305	1.225845	0.000017
