data_functionalizedCrystal
_audit_creation_method	'MofGen! by Chris Wilmer'
_symmetry_space_group_name_H-M	'P1'
_symmetry_Int_Tables_number	1
_symmetry_cell_setting	triclinic
loop_
_symmetry_equiv_pos_as_xyz
  x,y,z
_cell_length_a	16.974800
_cell_length_b	15.944493
_cell_length_c	15.455313
_cell_angle_alpha	92.670512
_cell_angle_beta	90.973911
_cell_angle_gamma	83.432052
loop_
_atom_site_label
_atom_site_type_symbol
_atom_site_fract_x
_atom_site_fract_y
_atom_site_fract_z
O1	O	1.049059	0.107079	0.001549
O2	O	1.549059	0.607079	0.501549
O3	O	0.819624	0.119907	-0.014563
O4	O	1.319624	0.619907	0.485437
O5	O	0.940631	-0.008771	-0.006073
O6	O	1.440631	0.491229	0.493927
O7	O	0.928052	0.235757	-0.006942
O8	O	1.428052	0.735757	0.493058
O9	O	0.933711	-0.001443	0.137704
O10	O	1.433711	0.498557	0.637704
O11	O	0.812704	0.127235	0.129214
O12	O	1.312704	0.627235	0.629214
O13	O	1.042139	0.114407	0.145326
O14	O	1.542139	0.614407	0.645326
Cu15	Cu	0.926790	0.121490	0.150397
Cu16	Cu	1.426790	0.621490	0.650397
Cu17	Cu	0.934973	0.112824	-0.019635
Cu18	Cu	1.434973	0.612824	0.480365
O19	O	0.921132	0.243085	0.136835
O20	O	1.421132	0.743085	0.636835
C21	C	0.786805	0.122949	0.055263
C22	C	1.286805	0.622949	0.555263
C23	C	0.699324	0.121085	0.049119
C24	C	1.199324	0.621085	0.549119
C25	C	0.654458	0.124201	0.124607
C26	C	1.154458	0.624201	0.624607
C27	C	0.572261	0.122437	0.118837
C28	C	1.072261	0.622437	0.618837
C29	C	0.534932	0.117561	0.037578
C30	C	1.034932	0.617561	0.537578
C31	C	0.579804	0.114442	-0.037916
C32	C	1.079804	0.614442	0.462084
C33	C	0.662000	0.116200	-0.032145
C34	C	1.162000	0.616200	0.467855
C35	C	0.289508	0.111867	0.011913
C36	C	0.789508	0.611867	0.511913
C37	C	0.207306	0.110112	0.006147
C38	C	0.707306	0.610112	0.506147
C39	C	0.199769	0.118105	0.162901
C40	C	0.699769	0.618105	0.662901
C41	C	0.281966	0.119869	0.168665
C42	C	0.781966	0.619869	0.668665
C43	C	0.326832	0.116744	0.093172
C44	C	0.826832	0.616744	0.593172
N45	N	0.450913	0.115760	0.031677
N46	N	0.950913	0.615760	0.531677
N47	N	0.410849	0.118540	0.099073
N48	N	0.910849	0.618540	0.599073
C49	C	0.936657	-0.036404	0.065776
C50	C	1.436657	0.463596	0.565776
C51	C	0.935116	-0.129656	0.065657
C52	C	1.435116	0.370344	0.565657
C53	C	1.006343	-0.365251	0.070675
C54	C	1.506343	0.134749	0.570675
C55	C	0.971344	-0.419521	-0.002911
C56	C	1.471344	0.080479	0.497089
C57	C	0.932260	-0.300383	0.065467
C58	C	1.432260	0.199617	0.565467
C59	C	0.964505	-0.412272	0.138840
C60	C	1.464505	0.087728	0.638840
C61	C	0.929506	-0.465299	0.065287
C62	C	1.429506	0.034701	0.565287
C63	C	0.897284	-0.353428	-0.008177
C64	C	1.397284	0.146572	0.491823
C65	C	0.890453	-0.346172	0.133639
C66	C	1.390453	0.153828	0.633639
C67	C	0.855401	-0.400410	0.060032
C68	C	1.355401	0.099590	0.560032
C69	C	0.933849	-0.205380	0.065569
C70	C	1.433849	0.294620	0.565569
C71	C	0.927912	-0.560299	0.065178
C72	C	1.427912	-0.060299	0.565178
C73	C	1.074958	0.111365	0.075497
C74	C	1.574958	0.611365	0.575497
C75	C	1.162440	0.113228	0.081636
C76	C	1.662440	0.613228	0.581636
C77	C	0.925106	0.270717	0.064985
C78	C	1.425106	0.770717	0.564985
C79	C	0.926647	0.363969	0.065098
C80	C	1.426647	0.863969	0.565098
N81	N	0.921040	0.127585	0.269990
N82	N	1.421040	0.627585	0.769990
N83	N	0.940729	0.106722	-0.139227
N84	N	1.440729	0.606722	0.360773
C85	C	0.972466	0.072938	0.318992
C86	C	1.472466	0.572938	0.818992
C87	C	0.968124	0.077555	0.409495
C88	C	1.468124	0.577555	0.909495
C89	C	0.912361	0.136823	0.450995
C90	C	1.412361	0.636823	0.950995
C91	C	0.860930	0.191472	0.401986
C92	C	1.360930	0.691472	0.901986
C93	C	0.865268	0.186851	0.311484
C94	C	1.365268	0.686851	0.811484
C95	C	0.893636	0.156750	0.721262
C96	C	1.393636	0.656750	1.221262
C97	C	0.889304	0.161369	0.811771
C98	C	1.389304	0.661369	1.311771
C99	C	0.996498	0.047450	0.819274
C100	C	1.496498	0.547450	1.319274
C101	C	1.000834	0.042837	0.728771
C102	C	1.500834	0.542837	1.228771
C103	C	0.949401	0.097483	0.679769
C104	C	1.449401	0.597483	1.179769
N105	N	0.907924	0.141546	0.543504
N106	N	1.407924	0.641546	1.043504
N107	N	0.953834	0.092756	0.587262
N108	N	1.453834	0.592756	1.087262
H109	H	0.549405	0.110466	-0.104079
H110	H	1.049405	0.610466	0.395921
N111	N	0.841117	0.212589	0.671222
N112	N	1.341117	0.712589	1.171222
N113	N	0.868530	0.262231	0.622473
N114	N	1.368530	0.762231	1.122473
H115	H	0.831438	0.301674	0.587130
H116	H	1.331438	0.801674	1.087130
N117	N	0.692599	0.129172	0.207607
N118	N	1.192599	0.629172	0.707607
N119	N	0.765987	0.130739	0.212752
N120	N	1.265987	0.630739	0.712752
H121	H	0.792925	0.134247	0.271372
H122	H	1.292925	0.634247	0.771372
N123	N	0.169163	0.105135	-0.076856
N124	N	0.669163	0.605135	0.423144
N125	N	0.116864	0.162420	-0.098073
N126	N	0.616864	0.662420	0.401927
H127	H	0.089924	0.158908	-0.156691
H128	H	0.589924	0.658908	0.343309
H129	H	0.856309	-0.314229	0.191378
H130	H	1.356309	0.185771	0.691378
H131	H	0.326028	0.109321	-0.049559
H132	H	0.826028	0.609321	0.450441
N133	N	1.000160	-0.444640	0.216773
N134	N	1.500160	0.055360	0.716773
N135	N	1.070978	-0.435889	0.234399
N136	N	1.570978	0.064111	0.734399
H137	H	1.096166	-0.458748	0.289436
H138	H	1.596166	0.041252	0.789436
H139	H	1.038373	0.002958	0.859179
H140	H	1.538373	0.502958	1.359179
H141	H	0.823390	0.231349	0.271586
H142	H	1.323390	0.731349	0.771586
N143	N	1.029391	0.012346	0.276616
N144	N	1.529391	0.512346	0.776616
N145	N	1.075269	-0.036475	0.320381
N146	N	1.575269	0.463525	0.820381
H147	H	1.115456	-0.079291	0.290455
H148	H	1.615456	0.420709	0.790455
N149	N	1.020658	0.021725	0.459536
N150	N	1.520658	0.521725	0.959536
N151	N	1.070445	-0.031187	0.422473
N152	N	1.570445	0.468813	0.922473
H153	H	1.107549	-0.070622	0.457814
H154	H	1.607549	0.429378	0.957814
N155	N	0.526444	0.125615	0.195955
N156	N	1.026444	0.625615	0.695955
N157	N	0.559783	0.129970	0.268503
N158	N	1.059783	0.629970	0.768503
H159	H	0.527426	0.132212	0.322972
H160	H	1.027426	0.632212	0.822972
H161	H	0.698529	0.113664	-0.093616
H162	H	1.198529	0.613664	0.406384
N163	N	1.057935	-0.017566	0.686406
N164	N	1.557935	0.482434	1.186406
N165	N	1.103937	-0.066259	0.730176
N166	N	1.603937	0.433741	1.230176
H167	H	1.144317	-0.108864	0.700261
H168	H	1.644317	0.391136	1.200261
H169	H	0.868903	-0.327738	-0.070368
H170	H	1.368903	0.172262	0.429632
H171	H	0.843892	0.209636	0.845555
H172	H	1.343892	0.709636	1.345555
H173	H	1.070159	-0.349479	0.075085
H174	H	1.570159	0.150521	0.575085
N175	N	0.320085	0.124827	0.251678
N176	N	0.820085	0.624827	0.751678
N177	N	0.280017	0.127592	0.319073
N178	N	0.780017	0.627592	0.819073
H179	H	0.306939	0.131088	0.377703
H180	H	0.806939	0.631088	0.877703
H181	H	1.005515	-0.451449	-0.060646
H182	H	1.505515	0.048551	0.439354
H183	H	0.815521	0.239727	0.435779
H184	H	1.315521	0.739727	0.935779
H185	H	0.163231	0.120647	0.224364
H186	H	0.663231	0.620647	0.724364
H187	H	0.791540	-0.416025	0.055508
H188	H	1.291540	0.083975	0.555508
