data_functionalizedCrystal
_audit_creation_method	'MofGen! by Chris Wilmer'
_symmetry_space_group_name_H-M	'P1'
_symmetry_Int_Tables_number	1
_symmetry_cell_setting	triclinic
loop_
_symmetry_equiv_pos_as_xyz
  x,y,z
_cell_length_a	14.519709
_cell_length_b	11.792254
_cell_length_c	10.268362
_cell_angle_alpha	89.995475
_cell_angle_beta	89.999088
_cell_angle_gamma	96.060629
loop_
_atom_site_label
_atom_site_type_symbol
_atom_site_fract_x
_atom_site_fract_y
_atom_site_fract_z
O1	O	-0.126460	1.506199	-0.108280
O2	O	0.206873	1.839533	0.225053
O3	O	0.540206	2.172866	0.558387
O4	O	-0.139475	1.175788	-0.108281
O5	O	0.193858	1.509121	0.225053
O6	O	0.527191	1.842455	0.558386
O7	O	0.001238	1.349754	-0.108292
O8	O	0.334572	1.683087	0.225041
O9	O	0.667905	2.016421	0.558375
O10	O	-0.267174	1.332233	-0.108268
O11	O	0.066160	1.665566	0.225065
O12	O	0.399493	1.998900	0.558398
O13	O	0.001244	1.349739	0.108308
O14	O	0.334578	1.683072	0.441642
O15	O	0.667911	2.016405	0.774975
O16	O	-0.139469	1.175773	0.108320
O17	O	0.193864	1.509106	0.441653
O18	O	0.527197	1.842439	0.774987
O19	O	-0.126454	1.506184	0.108321
O20	O	0.206879	1.839517	0.441654
O21	O	0.540212	2.172851	0.774987
Cu22	Cu	-0.132961	1.340977	0.128098
Cu23	Cu	0.200372	1.674310	0.461431
Cu24	Cu	0.533705	2.007644	0.794764
Cu25	Cu	-0.132968	1.340995	-0.128058
Cu26	Cu	0.200365	1.674328	0.205276
Cu27	Cu	0.533698	2.007662	0.538609
O28	O	-0.267168	1.332218	0.108332
O29	O	0.066165	1.665551	0.441666
O30	O	0.399499	1.998885	0.774999
C31	C	-0.138652	1.133494	0.000019
C32	C	0.194681	1.466827	0.333352
C33	C	0.528014	1.800161	0.666686
C34	C	-0.136199	1.007495	0.000018
C35	C	0.197135	1.340828	0.333351
C36	C	0.530468	1.674161	0.666685
C37	C	-0.134205	0.905169	0.000012
C38	C	0.199129	1.238503	0.333345
C39	C	0.532462	1.571836	0.666679
C40	C	-0.131711	0.776796	0.000011
C41	C	0.201622	1.110130	0.333344
C42	C	0.534955	1.443463	0.666678
C43	C	-0.301534	1.333042	0.000035
C44	C	0.031800	1.666375	0.333368
C45	C	0.365133	1.999709	0.666702
C46	C	-0.403924	1.335489	0.000044
C47	C	-0.070591	1.668822	0.333377
C48	C	0.262743	2.002156	0.666710
C49	C	-0.778853	1.344497	-0.000008
C50	C	-0.445520	1.677830	0.333325
C51	C	-0.112186	2.011164	0.666659
C52	C	-0.674536	1.341995	0.000007
C53	C	-0.341203	1.675329	0.333340
C54	C	-0.007869	2.008662	0.666673
C55	C	-0.591392	1.339993	0.000019
C56	C	-0.258058	1.673327	0.333352
C57	C	0.075275	2.006660	0.666686
C58	C	-0.487068	1.337491	0.000031
C59	C	-0.153735	1.670825	0.333365
C60	C	0.179599	2.004158	0.666698
C61	C	0.035604	1.348930	0.000002
C62	C	0.368937	1.682263	0.333336
C63	C	0.702271	2.015596	0.666669
C64	C	0.137994	1.346483	-0.000015
C65	C	0.471328	1.679816	0.333318
C66	C	0.804661	2.013150	0.666652
C67	C	-0.127277	1.548478	0.000018
C68	C	0.206056	1.881811	0.333351
C69	C	0.539390	2.215144	0.666685
C70	C	-0.129731	1.674477	0.000011
C71	C	0.203602	2.007811	0.333344
C72	C	0.536936	2.341144	0.666677
N73	N	-0.132956	1.340973	0.308264
N74	N	0.200377	1.674306	0.641597
N75	N	0.533711	2.007639	0.974930
N76	N	-0.132966	1.341008	-0.308224
N77	N	0.200367	1.674342	0.025110
N78	N	0.533700	2.007675	0.358443
C79	C	-0.132966	1.340989	0.573934
C80	C	0.200367	1.674323	0.907267
C81	C	0.533700	2.007656	1.240601
C82	C	-0.132963	1.340976	0.426096
C83	C	0.200370	1.674310	0.759430
C84	C	0.533703	2.007643	1.092763
