data_functionalizedCrystal
_audit_creation_method	'MofGen! by Chris Wilmer'
_symmetry_space_group_name_H-M	'P1'
_symmetry_Int_Tables_number	1
_symmetry_cell_setting	triclinic
loop_
_symmetry_equiv_pos_as_xyz
  x,y,z
_cell_length_a	17.077402
_cell_length_b	13.897449
_cell_length_c	17.077395
_cell_angle_alpha	90.019917
_cell_angle_beta	89.971476
_cell_angle_gamma	89.977189
loop_
_atom_site_label
_atom_site_type_symbol
_atom_site_fract_x
_atom_site_fract_y
_atom_site_fract_z
Zn1	Zn	-0.312519	-1.474609	-0.443925
Zn2	Zn	-0.443791	-1.474506	-0.312656
Zn3	Zn	-0.312543	-1.313316	-0.312663
Zn4	Zn	-0.443747	-1.313266	-0.443870
O5	O	-0.378150	-1.393924	-0.378279
O6	O	-0.329941	-1.609577	-0.426532
O7	O	-0.426410	-1.453102	-0.202810
O8	O	-0.202693	-1.334776	-0.330102
O9	O	-0.426386	-1.609501	-0.330089
O10	O	-0.202676	-1.453278	-0.426539
O11	O	-0.329982	-1.334676	-0.202815
O12	O	-0.329939	-1.178327	-0.330048
O13	O	-0.426311	-1.334690	-0.553724
O14	O	-0.426334	-1.178291	-0.426445
O15	O	-0.329898	-1.453229	-0.553765
O16	O	-0.553632	-1.453053	-0.330036
O17	O	-0.553600	-1.334590	-0.426438
C18	C	-0.378135	-1.143310	-0.378242
C19	C	-0.378147	-1.036096	-0.378245
C20	C	-0.378149	-0.949026	-0.378254
C21	C	-0.378153	-0.839794	-0.378274
C22	C	-0.582098	-1.393831	-0.378247
C23	C	-0.669348	-1.393879	-0.378260
C24	C	-0.710329	-1.455626	-0.328117
C25	C	-0.792309	-1.455673	-0.328137
C26	C	-0.833307	-1.393968	-0.378297
C27	C	-0.792321	-1.332219	-0.428445
C28	C	-0.710342	-1.332177	-0.428428
C29	C	-0.963191	-1.332308	-0.428475
C30	C	-1.045175	-1.332348	-0.428491
C31	C	-1.045158	-1.455804	-0.328184
C32	C	-0.963179	-1.455763	-0.328167
C33	C	-0.922198	-1.394012	-0.378315
C34	C	-0.173406	-1.394044	-0.378327
C35	C	-0.086156	-1.394095	-0.378348
C36	C	-0.378097	-1.393966	-0.583023
C37	C	-0.378074	-1.393983	-0.670273
C38	C	-0.378163	-0.645517	-0.378307
C39	C	-0.378160	-0.752731	-0.378294
C40	C	-0.327766	-1.455813	-1.046110
C41	C	-0.327793	-1.455794	-0.964129
C42	C	-0.378000	-1.394063	-0.923122
C43	C	-0.428188	-1.332354	-0.964099
C44	C	-0.428164	-1.332380	-1.046078
C45	C	-0.428233	-1.332304	-0.793229
C46	C	-0.428257	-1.332278	-0.711244
C47	C	-0.327863	-1.455718	-0.711280
C48	C	-0.327839	-1.455744	-0.793259
C49	C	-0.378026	-1.394034	-0.834231
C50	C	-0.378147	-1.393938	-0.174331
C51	C	-0.377948	-1.394108	-0.087081
H52	H	-0.825673	-1.505953	-0.287306
O53	O	-0.836544	-1.265664	-0.482541
H54	H	-0.820767	-1.282154	-0.544161
O55	O	-0.918955	-1.522317	-0.274072
H56	H	-0.961223	-1.565271	-0.239210
H57	H	-0.469028	-1.282133	-1.079436
H58	H	-1.078529	-1.506087	-0.287355
O59	O	-0.273671	-1.522353	-0.919939
H60	H	-0.212056	-1.505848	-0.935676
O61	O	-0.273602	-1.522376	-1.090343
H62	H	-0.308722	-1.571435	-1.127702
H63	H	-1.078553	-1.282121	-0.469350
H64	H	-0.929826	-1.282027	-0.469313
H65	H	-0.286953	-1.506006	-0.826645
H66	H	-0.676954	-1.505869	-0.287269
H67	H	-0.676976	-1.281898	-0.469261
O68	O	-0.273736	-1.522287	-0.667097
H69	H	-0.282193	-1.511912	-0.603203
H70	H	-0.469121	-1.281989	-0.677858
H71	H	-0.469071	-1.282096	-0.930705
H72	H	-0.469104	-1.282056	-0.826586
