data_functionalizedCrystal
_audit_creation_method	'MofGen! by Chris Wilmer'
_symmetry_space_group_name_H-M	'P1'
_symmetry_Int_Tables_number	1
_symmetry_cell_setting	triclinic
loop_
_symmetry_equiv_pos_as_xyz
  x,y,z
_cell_length_a	19.288840
_cell_length_b	15.995292
_cell_length_c	17.766277
_cell_angle_alpha	89.996830
_cell_angle_beta	89.983415
_cell_angle_gamma	83.297316
loop_
_atom_site_label
_atom_site_type_symbol
_atom_site_fract_x
_atom_site_fract_y
_atom_site_fract_z
O1	O	0.921617	0.104355	-0.062715
O2	O	0.719388	0.118467	-0.062688
O3	O	0.826052	-0.010502	-0.062703
O4	O	0.814953	0.233323	-0.062699
O5	O	0.826033	-0.010508	0.062485
O6	O	0.719369	0.118461	0.062501
O7	O	0.921598	0.104348	0.062474
Cu8	Cu	0.820482	0.111404	0.073918
Cu9	Cu	0.820504	0.111411	-0.074132
O10	O	0.814935	0.233317	0.062489
C11	C	0.693501	0.118013	-0.000090
C12	C	0.616393	0.116661	-0.000080
C13	C	0.580198	0.116014	-0.068323
C14	C	0.507748	0.114734	-0.068332
C15	C	0.471498	0.114083	-0.000095
C16	C	0.507701	0.114734	0.068156
C17	C	0.580148	0.116023	0.068164
C18	C	0.362038	0.062994	0.052173
C19	C	0.289593	0.061701	0.052163
C20	C	0.248044	0.110112	-0.000115
C21	C	0.278952	0.159807	-0.052394
C22	C	0.351400	0.161096	-0.052387
C23	C	0.392940	0.112686	-0.000095
C24	C	0.133291	0.108079	-0.068372
C25	C	0.060839	0.106804	-0.068378
C26	C	0.060794	0.106796	0.068112
C27	C	0.133243	0.108079	0.068116
C28	C	0.169488	0.108717	-0.000127
C29	C	0.825591	-0.041699	-0.000111
C30	C	0.824236	-0.134646	-0.000116
C31	C	0.819258	-0.472366	-0.000109
C32	C	0.896245	-0.449352	0.000161
C33	C	0.897708	-0.352682	-0.000124
C34	C	0.821728	-0.304819	-0.000112
C35	C	0.783249	-0.333767	-0.071593
C36	C	0.782322	-0.430554	-0.071650
C37	C	0.780729	-0.430413	0.070713
C38	C	0.783582	-0.333931	0.071654
C39	C	0.823120	-0.210129	-0.000116
C40	C	0.817864	-0.567056	-0.000109
C41	C	0.947485	0.104802	-0.000125
C42	C	1.024593	0.106155	-0.000140
C43	C	0.815396	0.264514	-0.000105
C44	C	0.816750	0.357462	-0.000105
N45	N	0.820472	0.111398	0.178048
N46	N	0.820520	0.111411	-0.178262
C47	C	0.867717	0.054318	0.217428
C48	C	0.867721	0.054314	0.296230
C49	C	0.820486	0.111404	0.335649
C50	C	0.773231	0.168488	0.296259
C51	C	0.773224	0.168485	0.217459
C52	C	0.811372	0.187698	0.460489
C53	C	0.811384	0.187703	0.539287
C54	C	0.820505	0.111415	0.578695
C55	C	0.829628	0.035119	0.539294
C56	C	0.829620	0.035115	0.460494
C57	C	0.820489	0.111414	0.421094
C58	C	0.867758	0.054326	0.703521
C59	C	0.867757	0.054321	0.782324
C60	C	0.773270	0.168502	0.782352
C61	C	0.773268	0.168500	0.703550
C62	C	0.820515	0.111413	0.664140
H63	H	0.162802	0.108607	-0.123940
H64	H	0.906187	0.007833	0.185343
O65	O	0.814022	-0.462697	-0.135455
C66	C	0.766444	-0.504095	-0.177761
H67	H	0.710817	-0.478084	-0.161885
H68	H	0.774960	-0.574462	-0.165299
C69	C	0.846434	-0.521342	-0.281753
C70	C	0.778112	-0.489391	-0.262258
H71	H	0.853632	-0.512276	-0.333875
H72	H	0.878489	-0.493455	-0.253250
H73	H	0.853522	-0.579980	-0.271362
H74	H	0.771027	-0.430753	-0.272640
H75	H	0.746055	-0.517268	-0.290765
H76	H	0.478272	0.114209	-0.123905
H77	H	0.609618	0.116550	0.123736
H78	H	0.906196	0.007832	0.328299
O79	O	0.025788	0.106141	-0.134740
C80	C	0.073316	0.106999	-0.194967
H81	H	0.127836	0.081413	-0.174954
H82	H	0.073722	0.174295	-0.215955
C83	C	-0.015925	0.083018	-0.284020
C84	C	0.051036	0.051586	-0.259441
H85	H	-0.029670	0.048840	-0.323793
H86	H	-0.047947	0.082443	-0.243445
H87	H	-0.015579	0.139098	-0.301505
H88	H	0.050686	-0.004488	-0.241948
H89	H	0.083057	0.052151	-0.300015
H90	H	0.804966	-0.458598	0.124896
O91	O	0.025577	0.106010	0.134380
C92	C	-0.008454	0.032771	0.138449
H93	H	0.018905	-0.017511	0.099720
H94	H	-0.065139	0.048188	0.120115
C95	C	-0.039613	0.061622	0.267545
C96	C	-0.006007	-0.000137	0.219982
H97	H	-0.038107	0.041324	0.317838
H98	H	-0.016689	0.110967	0.264804
H99	H	-0.086848	0.074464	0.252258
H100	H	0.041229	-0.012970	0.235263
H101	H	-0.028924	-0.049484	0.222727
H102	H	0.927845	-0.333777	0.051115
H103	H	0.925911	-0.477467	0.051423
O104	O	0.931351	-0.484125	-0.060718
C105	C	0.886649	-0.529211	-0.103538
H106	H	0.830050	-0.503856	-0.091374
H107	H	0.895774	-0.598749	-0.087893
C108	C	0.971463	-0.549920	-0.202819
C109	C	0.901947	-0.518773	-0.187883
H110	H	0.980901	-0.543485	-0.254847
H111	H	1.001581	-0.519547	-0.173970
H112	H	0.979059	-0.607866	-0.189776
H113	H	0.894355	-0.460826	-0.200918
H114	H	0.871828	-0.549136	-0.216737
O115	O	0.802639	0.261834	0.422242
C116	C	0.856590	0.310249	0.441485
H117	H	0.903510	0.267006	0.463138
H118	H	0.837457	0.357375	0.487224
C119	C	0.820358	0.411004	0.344875
C120	C	0.877989	0.357890	0.371463
H121	H	0.833557	0.440394	0.301684
H122	H	0.784009	0.378388	0.331912
H123	H	0.804420	0.450268	0.382997
H124	H	0.893921	0.318621	0.333345
H125	H	0.914342	0.390501	0.384418
O126	O	0.817064	-0.311817	0.134670
C127	C	0.874758	-0.270245	0.113998
H128	H	0.866037	-0.242515	0.055182
H129	H	0.924090	-0.317050	0.114257
C130	C	0.893629	-0.233126	0.242758
C131	C	0.882916	-0.199061	0.170522
H132	H	0.898664	-0.189218	0.277626
H133	H	0.854762	-0.261136	0.256686
H134	H	0.934739	-0.272129	0.242963
H135	H	0.841802	-0.160067	0.170316
H136	H	0.921777	-0.171042	0.156596
O137	O	0.381308	0.209447	-0.103192
C138	C	0.329110	0.251886	-0.149352
H139	H	0.276809	0.256889	-0.118802
H140	H	0.325385	0.215389	-0.204035
C141	C	0.412011	0.334645	-0.204696
C142	C	0.347775	0.340795	-0.167171
H143	H	0.423525	0.389487	-0.215692
H144	H	0.447178	0.306051	-0.173600
H145	H	0.408899	0.304227	-0.250261
H146	H	0.350890	0.371203	-0.121603
H147	H	0.312608	0.369397	-0.198260
O148	O	0.717384	-0.294431	0.076715
C149	C	0.679174	-0.313263	0.012498
H150	H	0.704160	-0.374643	-0.013534
H151	H	0.679350	-0.260172	-0.030292
C152	C	0.572755	-0.247249	0.067292
C153	C	0.603440	-0.322641	0.035323
H154	H	0.526038	-0.253030	0.081369
H155	H	0.598498	-0.234558	0.110555
H156	H	0.572908	-0.203014	0.031628
H157	H	0.603294	-0.366872	0.070989
H158	H	0.577696	-0.335339	-0.007934
H159	H	0.734771	0.214971	0.328358
H160	H	0.162714	0.108600	0.123687
H161	H	0.724061	-0.444183	0.071203
H162	H	0.928038	-0.334392	-0.051462
H163	H	0.609704	0.116534	-0.123892
H164	H	0.245124	0.199232	-0.094961
O165	O	0.838350	-0.039024	0.422262
C166	C	0.784403	-0.087433	0.441570
H167	H	0.737486	-0.044182	0.463248
H168	H	0.803544	-0.134544	0.487310
C169	C	0.820617	-0.188217	0.344966
C170	C	0.762991	-0.135095	0.371585
H171	H	0.807411	-0.217621	0.301797
H172	H	0.856964	-0.155605	0.331959
H173	H	0.836562	-0.227469	0.383089
H174	H	0.747052	-0.095838	0.333465
H175	H	0.726640	-0.167702	0.384584
H176	H	0.837054	-0.027003	0.571378
O177	O	0.259681	0.013412	0.103017
C178	C	0.311886	-0.029047	0.149156
H179	H	0.359754	0.006556	0.149067
H180	H	0.326841	-0.095443	0.126633
C181	C	0.225255	-0.077558	0.230210
C182	C	0.284046	-0.033825	0.230106
H183	H	0.208082	-0.080510	0.280143
H184	H	0.190084	-0.048955	0.199124
H185	H	0.237726	-0.132883	0.211437
H186	H	0.271572	0.021502	0.248869
H187	H	0.319215	-0.062419	0.261197
H188	H	0.906228	0.007836	0.814388
O189	O	0.913672	-0.001213	0.665349
C190	C	0.955382	-0.051587	0.717009
H191	H	0.926909	-0.052442	0.773192
H192	H	1.006973	-0.024565	0.725369
C193	C	1.004684	-0.140914	0.617250
C194	C	0.969710	-0.141969	0.686253
H195	H	1.013526	-0.196665	0.598278
H196	H	0.976585	-0.106974	0.582445
H197	H	1.047673	-0.118391	0.624226
H198	H	0.926719	-0.164482	0.679275
H199	H	0.997802	-0.175915	0.721057
O200	O	0.714982	-0.447621	-0.075658
C201	C	0.684205	-0.412909	-0.142348
H202	H	0.726753	-0.404389	-0.185277
H203	H	0.653546	-0.349214	-0.129428
C204	C	0.582267	-0.483009	-0.121931
C205	C	0.634525	-0.472551	-0.174660
H206	H	0.551620	-0.519795	-0.141861
H207	H	0.603001	-0.506392	-0.076999
H208	H	0.556726	-0.429925	-0.111169
H209	H	0.660070	-0.525632	-0.185414
H210	H	0.613794	-0.449177	-0.219595
H211	H	0.734808	0.214983	0.814446
H212	H	0.734798	0.214983	0.671485
H213	H	0.727338	-0.301682	-0.074242
H214	H	0.395862	0.023570	0.094747
O215	O	0.815148	-0.309823	-0.135016
C216	C	0.813320	-0.221453	-0.136004
H217	H	0.807013	-0.196164	-0.076101
H218	H	0.767425	-0.193077	-0.171758
C219	C	0.889589	-0.228472	-0.243281
C220	C	0.881848	-0.197414	-0.169706
H221	H	0.931858	-0.213643	-0.264073
H222	H	0.890818	-0.288009	-0.242618
H223	H	0.851338	-0.204823	-0.273067
H224	H	0.920093	-0.221071	-0.139919
H225	H	0.880626	-0.137880	-0.170365
O226	O	0.727399	0.224055	0.179236
C227	C	0.738661	0.306908	0.198498
H228	H	0.794270	0.307141	0.220139
H229	H	0.700160	0.331624	0.244251
C230	C	0.659553	0.363426	0.101917
C231	C	0.727855	0.363712	0.128492
H232	H	0.652884	0.398467	0.058736
H233	H	0.651963	0.307606	0.088942
H234	H	0.627477	0.384020	0.140052
H235	H	0.759930	0.343108	0.090362
H236	H	0.735450	0.419530	0.141460
O237	O	0.472579	0.113989	0.134490
C238	C	0.498150	0.041789	0.175998
H239	H	0.553389	0.018557	0.156599
H240	H	0.462906	-0.009707	0.166533
C241	C	0.431224	0.092404	0.284157
C242	C	0.499072	0.063873	0.260335
H243	H	0.431790	0.106024	0.336180
H244	H	0.413994	0.141045	0.256192
H245	H	0.401861	0.049485	0.276263
H246	H	0.528431	0.106795	0.268220
H247	H	0.516307	0.015240	0.288304
H248	H	0.803960	0.249827	0.571362
