data_functionalizedCrystal
_audit_creation_method	'MofGen! by Chris Wilmer'
_symmetry_space_group_name_H-M	'P1'
_symmetry_Int_Tables_number	1
_symmetry_cell_setting	triclinic
loop_
_symmetry_equiv_pos_as_xyz
  x,y,z
_cell_length_a	12.811457
_cell_length_b	17.019294
_cell_length_c	15.500372
_cell_angle_alpha	89.302854
_cell_angle_beta	98.579364
_cell_angle_gamma	84.088711
loop_
_atom_site_label
_atom_site_type_symbol
_atom_site_fract_x
_atom_site_fract_y
_atom_site_fract_z
O1	O	1.394273	0.107586	0.029435
O2	O	1.087176	0.118005	0.004564
O3	O	1.249807	-0.001587	0.026237
O4	O	1.231643	0.227178	0.007762
O5	O	1.258476	0.004990	0.170312
O6	O	1.095846	0.124583	0.148639
O7	O	1.402943	0.114164	0.173511
Cu8	Cu	1.250186	0.119974	0.174230
Cu9	Cu	1.239933	0.112195	0.003844
O10	O	1.240312	0.233756	0.151837
C11	C	1.052226	0.120508	0.073577
C12	C	0.935170	0.118159	0.064568
C13	C	0.724661	0.120901	0.204727
C14	C	0.614676	0.118693	0.196267
C15	C	0.605214	0.111530	0.039187
C16	C	0.715199	0.113738	0.047647
C17	C	0.774919	0.118425	0.130420
C18	C	0.884904	0.120638	0.138880
C19	C	0.875441	0.113469	-0.018199
C20	C	0.765457	0.111262	-0.026660
C21	C	1.253624	-0.027592	0.100416
C22	C	1.252069	-0.114877	0.106794
C23	C	1.246615	-0.159465	0.031256
C24	C	1.245147	-0.241479	0.037251
C25	C	1.249141	-0.278903	0.118786
C26	C	1.254592	-0.234309	0.194329
C27	C	1.256052	-0.152296	0.188333
C28	C	1.244961	-0.526348	0.140820
C29	C	1.243504	-0.608366	0.146811
C30	C	1.234057	-0.615530	-0.010268
C31	C	1.235524	-0.533517	-0.016257
C32	C	1.240970	-0.488929	0.059286
C33	C	1.247644	-0.362734	0.124916
C34	C	1.242459	-0.405099	0.053154
C35	C	1.437893	0.111660	0.104495
C36	C	1.554949	0.114009	0.113499
C37	C	1.236495	0.259761	0.077656
C38	C	1.238050	0.347046	0.071273
N39	N	1.257404	0.125445	0.294070
C40	C	1.196490	0.079371	0.338026
C41	C	1.201975	0.083518	0.428718
C42	C	1.268381	0.133735	0.475453
C43	C	1.329298	0.179814	0.431491
C44	C	1.323806	0.175670	0.340800
C45	C	1.288141	0.148657	0.749350
C46	C	1.293630	0.152795	0.840048
C47	C	1.166305	0.056501	0.837269
C48	C	1.160824	0.052358	0.746577
C49	C	1.221737	0.098440	0.702622
C50	C	1.273992	0.137973	0.568155
C51	C	1.216120	0.094206	0.609921
N52	N	1.232715	0.106722	0.884004
H53	H	0.916371	0.111457	-0.078705
H54	H	0.716819	0.107442	-0.094051
O55	O	1.247582	-0.644768	0.226020
C56	C	1.338345	-0.700275	0.241954
H57	H	1.399920	-0.683375	0.201007
H58	H	1.315333	-0.761527	0.223648
C59	C	1.309768	-0.721755	0.389694
C60	C	1.385400	-0.700993	0.339407
H61	H	1.338792	-0.722201	0.449807
H62	H	1.248617	-0.684361	0.378958
H63	H	1.290598	-0.772796	0.374428
H64	H	1.404558	-0.649949	0.354665
H65	H	1.446555	-0.738379	0.350148
H66	H	1.383363	0.220704	0.469549
H67	H	1.337745	0.186177	0.713574
O68	O	1.358161	0.201646	0.885311
C69	C	1.410769	0.241415	0.827071
H70	H	1.363174	0.242741	0.758689
H71	H	1.493151	0.209189	0.826281
C72	C	1.479699	0.324972	0.940883
C73	C	1.421237	0.326605	0.856896
H74	H	1.486161	0.377520	0.959281
H75	H	1.444260	0.298176	0.980121
H76	H	1.548345	0.298113	0.940214
H77	H	1.352589	0.353455	0.857569
H78	H	1.456665	0.353407	0.817658
O79	O	1.231333	-0.497111	-0.095473
C80	C	1.140468	-0.441697	-0.111350
H81	H	1.114501	-0.423492	-0.046611
H82	H	1.073583	-0.469369	-0.153084
C83	C	1.198534	-0.390733	-0.239283
C84	C	1.166646	-0.368369	-0.159769
H85	H	1.214678	-0.345503	-0.269153
H86	H	1.259749	-0.428069	-0.228588
H87	H	1.142791	-0.413794	-0.274050
H88	H	1.222393	-0.345318	-0.124998
H89	H	1.105440	-0.331028	-0.170458
H90	H	1.229622	-0.651842	-0.071771
H91	H	1.373407	0.213191	0.305012
H92	H	1.243368	-0.129001	-0.035138
H93	H	1.240710	-0.277779	-0.024260
O94	O	1.250334	-0.483167	0.214292
C95	C	1.253537	-0.533788	0.287538
H96	H	1.284473	-0.596328	0.271618
H97	H	1.170247	-0.533730	0.305138
C98	C	1.289765	-0.427868	0.384835
C99	C	1.327769	-0.504680	0.365283
H100	H	1.335550	-0.409912	0.432793
H101	H	1.287602	-0.393763	0.335488
H102	H	1.220356	-0.427830	0.399496
H103	H	1.397170	-0.504715	0.350612
H104	H	1.329945	-0.538784	0.414629
H105	H	1.152372	0.046000	0.464503
O106	O	1.258286	-0.270609	0.273536
C107	C	1.170206	-0.240098	0.312078
H108	H	1.104008	-0.213864	0.259038
H109	H	1.194646	-0.192131	0.359329
C110	C	1.211705	-0.339226	0.427145
C111	C	1.130396	-0.307011	0.361999
H112	H	1.187150	-0.380499	0.457942
H113	H	1.271049	-0.359780	0.401180
H114	H	1.232064	-0.299246	0.466512
H115	H	1.110048	-0.346988	0.322628
H116	H	1.071048	-0.286465	0.387959
O117	O	1.151546	0.045534	0.564419
C118	C	1.076109	0.090556	0.502789
H119	H	1.107742	0.148508	0.487378
H120	H	0.998886	0.103606	0.530680
C121	C	1.016438	-0.027355	0.437538
C122	C	1.055295	0.043820	0.418604
H123	H	1.003594	-0.056185	0.385609
H124	H	1.067259	-0.057687	0.479061
H125	H	0.952091	-0.016469	0.460781
H126	H	1.119648	0.032933	0.395372
H127	H	1.004484	0.074149	0.377075
H128	H	1.106752	0.011464	0.708532
H129	H	0.556574	0.107701	-0.028202
O130	O	0.782526	0.125421	0.285196
C131	C	0.714577	0.127159	0.348967
H132	H	0.639303	0.099692	0.322119
H133	H	0.692895	0.190981	0.366626
C134	C	0.863778	0.113682	0.464014
C135	C	0.771329	0.079941	0.431041
H136	H	0.898786	0.084559	0.514643
H137	H	0.909558	0.112514	0.421050
H138	H	0.845696	0.166866	0.478723
H139	H	0.789413	0.026762	0.416322
H140	H	0.725554	0.081099	0.474004
O141	O	1.338382	0.186862	0.613498
C142	C	1.307366	0.265435	0.583066
H143	H	1.220777	0.271287	0.550956
H144	H	1.359354	0.281676	0.533351
C145	C	1.426577	0.314229	0.699793
C146	C	1.320224	0.321419	0.660362
H147	H	1.434513	0.348764	0.747471
H148	H	1.447477	0.261293	0.720294
H149	H	1.469888	0.327762	0.658356
H150	H	1.276917	0.307876	0.701795
H151	H	1.299317	0.374354	0.639869
O152	O	0.565834	0.120958	0.268435
C153	C	0.514828	0.051943	0.274259
H154	H	0.553920	0.003077	0.236452
H155	H	0.427408	0.064673	0.245386
C156	C	0.476383	0.085389	0.417129
C157	C	0.524403	0.025368	0.370700
H158	H	0.482284	0.068997	0.476618
H159	H	0.510743	0.131887	0.413205
H160	H	0.403537	0.095991	0.393059
H161	H	0.597249	0.014773	0.394764
H162	H	0.490055	-0.021133	0.374631
O163	O	1.261161	-0.108926	0.261666
C164	C	1.170971	-0.052983	0.255095
H165	H	1.104023	-0.073952	0.206895
H166	H	1.191453	0.006337	0.231205
C167	C	1.217448	-0.017925	0.404503
C168	C	1.135218	-0.043682	0.345307
H169	H	1.195396	-0.012184	0.460149
H170	H	1.278213	-0.055612	0.408929
H171	H	1.234509	0.031506	0.384583
H172	H	1.118168	-0.093116	0.365222
H173	H	1.074449	-0.006002	0.340886
H174	H	1.250899	-0.393214	0.191302
H175	H	0.933526	0.124459	0.206278
O176	O	1.238429	-0.368652	-0.026014
C177	C	1.147643	-0.313168	-0.041968
H178	H	1.121523	-0.295012	0.022731
H179	H	1.080800	-0.340751	-0.083859
C180	C	1.206135	-0.262125	-0.169671
C181	C	1.174059	-0.239820	-0.090205
H182	H	1.222426	-0.216881	-0.199429
H183	H	1.267297	-0.299507	-0.158924
H184	H	1.150426	-0.285112	-0.204569
H185	H	1.229772	-0.216843	-0.055304
H186	H	1.112906	-0.202432	-0.100947
H187	H	1.142418	0.038477	0.299982
H188	H	1.116711	0.018985	0.873067
