data_functionalizedCrystal
_audit_creation_method	'MofGen! by Chris Wilmer'
_symmetry_space_group_name_H-M	'P1'
_symmetry_Int_Tables_number	1
_symmetry_cell_setting	triclinic
loop_
_symmetry_equiv_pos_as_xyz
  x,y,z
_cell_length_a	10.540510
_cell_length_b	10.540539
_cell_length_c	9.730223
_cell_angle_alpha	90.002267
_cell_angle_beta	90.003532
_cell_angle_gamma	84.519401
loop_
_atom_site_label
_atom_site_type_symbol
_atom_site_fract_x
_atom_site_fract_y
_atom_site_fract_z
O1	O	1.685907	0.178720	0.114291
O2	O	1.316489	0.195615	0.114292
O3	O	1.509626	0.002460	0.114290
O4	O	1.492770	0.371875	0.114293
O5	O	1.509614	0.002455	-0.114290
O6	O	1.316477	0.195610	-0.114288
O7	O	1.685895	0.178715	-0.114288
Zn8	Zn	1.501184	0.187161	-0.150580
Zn9	Zn	1.501200	0.187169	0.150584
O10	O	1.492758	0.371870	-0.114287
C11	C	1.269179	0.194354	0.000002
C12	C	1.128229	0.190587	0.000002
C13	C	0.910774	0.324771	0.000528
C14	C	1.057370	0.328789	0.000005
C15	C	1.083462	0.119838	-0.130526
C16	C	0.936701	0.116798	-0.130627
C17	C	0.936910	0.113926	0.129311
C18	C	1.083251	0.120482	0.131028
C19	C	1.508356	-0.044845	0.000002
C20	C	1.504574	-0.185793	0.000010
C21	C	1.359655	-0.369204	0.000523
C22	C	1.363489	-0.222587	0.000008
C23	C	1.572463	-0.247461	-0.130521
C24	C	1.567648	-0.394005	-0.130631
C25	C	1.570532	-0.394517	0.129307
C26	C	1.571831	-0.247536	0.131033
C27	C	1.733204	0.179976	0.000004
C28	C	1.874154	0.183743	0.000013
C29	C	1.494028	0.419175	0.000004
C30	C	1.497810	0.560123	0.000005
N31	N	1.501182	0.187156	-0.356117
C32	C	1.586732	0.101663	-0.428044
C33	C	1.586745	0.101664	-0.571926
C34	C	1.415652	0.272661	-0.571943
C35	C	1.415635	0.272653	-0.428063
N36	N	1.501212	0.187164	0.356120
H37	H	0.913706	0.013432	-0.136557
H38	H	1.656388	0.032045	-0.369468
C39	C	1.115010	-0.084322	-0.019838
C40	C	1.147440	-0.017508	-0.137095
H41	H	1.154517	-0.169110	-0.023890
H42	H	1.025136	-0.085899	-0.015933
H43	H	1.143407	-0.043278	0.059833
H44	H	1.119035	-0.058548	-0.216766
H45	H	1.237334	-0.015938	-0.141014
C46	C	1.343061	0.491715	-0.383739
C47	C	1.321594	0.366638	-0.348990
H48	H	1.285010	0.549730	-0.334915
H49	H	1.330824	0.503951	-0.479713
H50	H	1.427907	0.506293	-0.360133
H51	H	1.236751	0.352057	-0.372605
H52	H	1.333821	0.354397	-0.252994
C53	C	0.988599	0.445066	0.203139
C54	C	1.097001	0.403520	0.126311
H55	H	1.013063	0.491212	0.281111
H56	H	0.947429	0.373465	0.232504
H57	H	0.931798	0.498718	0.147906
H58	H	1.153798	0.349860	0.181541
H59	H	1.138191	0.475132	0.096947
H60	H	0.868826	0.378615	0.094138
C61	C	1.592033	-0.132555	0.341694
C62	C	1.504877	-0.192257	0.261399
H63	H	1.550696	-0.098428	0.422177
H64	H	1.623802	-0.065727	0.290439
H65	H	1.660699	-0.193031	0.366939
H66	H	1.436215	-0.131779	0.236145
H67	H	1.473088	-0.259093	0.312664
C68	C	1.575698	-0.395324	0.376014
C69	C	1.508903	-0.437097	0.262870
H70	H	1.537644	-0.421619	0.458463
H71	H	1.572908	-0.305002	0.374332
H72	H	1.661840	-0.431041	0.371990
H73	H	1.422763	-0.401372	0.266889
H74	H	1.511680	-0.527436	0.264554
C75	C	1.582730	-0.516187	-0.339251
C76	C	1.499887	-0.432080	-0.262339
H77	H	1.540892	-0.539681	-0.420564
H78	H	1.607068	-0.590216	-0.286276
H79	H	1.656405	-0.475694	-0.363092
H80	H	1.426215	-0.472576	-0.238489
H81	H	1.475530	-0.358038	-0.315324
C82	C	1.738549	-0.138280	0.030160
C83	C	1.710698	-0.214867	0.141678
H84	H	1.824286	-0.118122	0.036722
H85	H	1.682885	-0.061909	0.031270
H86	H	1.727383	-0.182881	-0.053143
H87	H	1.721855	-0.170261	0.224981
H88	H	1.766378	-0.291251	0.140580
C89	C	1.196569	0.345093	-0.616297
C90	C	1.321628	0.366637	-0.651037
H91	H	1.138524	0.403107	-0.665134
H92	H	1.184320	0.357331	-0.520326
H93	H	1.182047	0.260231	-0.639895
H94	H	1.336153	0.451496	-0.627430
H95	H	1.333882	0.354409	-0.747030
C96	C	1.247319	-0.302914	-0.205868
C97	C	1.284702	-0.409961	-0.125129
H98	H	1.201040	-0.328079	-0.283434
H99	H	1.320723	-0.265063	-0.235889
H100	H	1.194820	-0.243012	-0.153037
H101	H	1.337208	-0.469860	-0.177957
H102	H	1.211286	-0.447832	-0.095108
H103	H	1.656406	0.032047	-0.630485
H104	H	0.867262	0.378301	-0.092549
H105	H	1.114311	0.168967	-0.227664
H106	H	0.894367	0.157511	0.228245
H107	H	1.085768	0.384469	-0.093719
H108	H	1.669114	-0.441984	-0.136552
H109	H	1.111874	0.171958	0.227592
C110	C	0.982103	0.223546	-0.340406
C111	C	0.882392	0.182076	-0.262333
H112	H	0.948575	0.263855	-0.421711
H113	H	1.040219	0.152507	-0.364253
H114	H	1.025123	0.282420	-0.288206
H115	H	0.839377	0.123194	-0.314529
H116	H	0.824254	0.253124	-0.238489
H117	H	1.132319	0.019584	0.138910
H118	H	1.310069	-0.179975	0.093578
C119	C	0.774830	-0.031295	0.135474
C120	C	0.907004	-0.026147	0.130518
H121	H	0.756366	-0.117768	0.136221
H122	H	0.736679	0.010387	0.057125
H123	H	0.741811	0.009988	0.216452
H124	H	0.940021	-0.067422	0.049535
H125	H	0.945170	-0.067847	0.208875
H126	H	1.309685	-0.180827	-0.093717
C127	C	1.161932	-0.343393	0.124504
C128	C	1.284414	-0.407792	0.126886
H129	H	1.115487	-0.367216	0.202525
H130	H	1.119174	-0.365209	0.043162
H131	H	1.168071	-0.254078	0.126231
H132	H	1.278275	-0.497108	0.125149
H133	H	1.327182	-0.385985	0.208249
C134	C	1.598692	-0.131648	-0.339478
C135	C	1.508785	-0.189964	-0.261657
H136	H	1.559369	-0.096147	-0.420428
H137	H	1.666634	-0.193236	-0.363944
H138	H	1.631030	-0.065994	-0.286842
H139	H	1.476453	-0.255623	-0.314290
H140	H	1.440820	-0.128370	-0.237194
H141	H	1.672437	-0.441754	0.130185
H142	H	1.676072	-0.225118	-0.135374
