data_functionalizedCrystal
_audit_creation_method	'MofGen! by Chris Wilmer'
_symmetry_space_group_name_H-M	'P1'
_symmetry_Int_Tables_number	1
_symmetry_cell_setting	triclinic
loop_
_symmetry_equiv_pos_as_xyz
  x,y,z
_cell_length_a	8.559649
_cell_length_b	10.654550
_cell_length_c	7.681481
_cell_angle_alpha	84.203385
_cell_angle_beta	94.913240
_cell_angle_gamma	77.131784
loop_
_atom_site_label
_atom_site_type_symbol
_atom_site_fract_x
_atom_site_fract_y
_atom_site_fract_z
O1	O	2.104699	-0.029228	-0.146401
O2	O	1.640212	0.035560	-0.146409
O3	O	1.883136	-0.180677	-0.146398
O4	O	1.861776	0.187009	-0.146412
O5	O	1.913035	-0.207346	0.146461
O6	O	1.670112	0.008891	0.146450
O7	O	2.134598	-0.055897	0.146458
Zn8	Zn	1.907102	-0.027737	0.192952
Zn9	Zn	1.867709	0.007400	-0.192903
O10	O	1.891675	0.160340	0.146447
C11	C	1.595686	0.027135	0.000019
C12	C	1.418468	0.041750	0.000016
C13	C	1.896517	-0.240647	0.000029
C14	C	1.891824	-0.379605	0.000023
C15	C	2.034854	-0.473866	0.000031
C16	C	2.030434	-0.604430	0.000018
C17	C	1.739944	-0.546457	-0.000002
C18	C	1.744364	-0.415896	-0.000003
C19	C	2.182315	-0.437576	0.000056
C20	C	2.325356	-0.531840	0.000066
C21	C	2.320937	-0.662403	0.000054
C22	C	2.173475	-0.698703	0.000032
C23	C	2.179124	-0.047472	0.000026
C24	C	2.356341	-0.062085	0.000018
C25	C	1.878293	0.220311	0.000016
C26	C	1.882985	0.359270	0.000011
N27	N	1.933999	-0.051719	0.456287
N28	N	1.840824	0.031371	-0.456238
H29	H	1.336070	0.141835	0.000003
H30	H	2.029129	-0.136528	0.531497
H31	H	1.627896	-0.339145	-0.000007
Br32	Br	1.493654	-0.228895	0.000006
Br33	Br	2.188322	-0.260386	0.000086
Br34	Br	2.525468	-0.482576	0.000065
H35	H	2.169886	-0.805017	0.000003
Br36	Br	2.515056	-0.790327	0.000042
Br37	Br	1.682295	0.172736	0.418426
H38	H	1.619888	-0.576025	-0.000018
