data_functionalizedCrystal
_audit_creation_method	'MofGen! by Chris Wilmer'
_symmetry_space_group_name_H-M	'P1'
_symmetry_Int_Tables_number	1
_symmetry_cell_setting	triclinic
loop_
_symmetry_equiv_pos_as_xyz
  x,y,z
_cell_length_a	22.863218
_cell_length_b	22.862586
_cell_length_c	22.858745
_cell_angle_alpha	60.006856
_cell_angle_beta	60.013818
_cell_angle_gamma	59.991795
loop_
_atom_site_label
_atom_site_type_symbol
_atom_site_fract_x
_atom_site_fract_y
_atom_site_fract_z
O1	O	0.081006	-0.854581	0.714630
O2	O	0.030492	-0.665350	0.575795
O3	O	0.150314	-0.785089	0.575706
O4	O	-0.038816	-0.734841	0.714718
O5	O	0.190066	-0.745348	0.615369
O6	O	0.070244	-0.625609	0.615458
O7	O	0.120758	-0.814840	0.754293
Zn8	Zn	0.101812	-0.713914	0.691173
Zn9	Zn	0.049438	-0.766275	0.638915
O10	O	0.000936	-0.695100	0.754381
N11	N	0.137558	-0.678184	0.726840
N12	N	0.013698	-0.802011	0.603247
C13	C	0.187224	-0.518558	0.776483
C14	C	0.187235	-0.628552	0.776467
C15	C	0.214753	-0.601061	0.803961
C16	C	0.334724	-0.580392	0.740801
C17	C	0.409718	-0.605392	0.715784
C18	C	0.409746	-0.726732	0.762051
C19	C	0.334754	-0.701730	0.787070
C20	C	0.205297	-0.481049	0.702756
C21	C	0.180267	-0.406048	0.677779
C22	C	0.119099	-0.406071	0.800259
C23	C	0.144128	-0.481071	0.825236
C24	C	0.113501	-0.610437	0.794610
C25	C	0.088492	-0.635428	0.769607
C26	C	0.210943	-0.696652	0.708337
C27	C	0.235956	-0.671660	0.733331
C28	C	0.113585	-0.610461	0.923980
C29	C	0.088635	-0.635476	0.998978
C30	C	0.211128	-0.696714	0.998930
C31	C	0.236077	-0.671700	0.923930
C32	C	0.187303	-0.628571	0.886457
C33	C	0.297246	-0.628559	0.776441
C34	C	-0.117796	-0.823430	0.581283
C35	C	-0.007671	-0.823587	0.471446
C36	C	-0.007879	-0.933535	0.581483
C37	C	-0.007861	-0.823583	0.581554
C38	C	-0.035301	-0.851035	0.553942
N39	N	0.446162	-0.678198	0.726752
O40	O	0.691234	-0.690164	0.550341
O41	O	0.691462	-0.829422	0.739388
O42	O	0.691373	-0.829102	0.619485
O43	O	0.691323	-0.690484	0.670244
O44	O	0.572233	-0.789455	0.659278
O45	O	0.572322	-0.789775	0.779181
O46	O	0.572094	-0.650517	0.590134
Zn47	Zn	0.553292	-0.713851	0.690976
Zn48	Zn	0.710264	-0.766088	0.638547
O49	O	0.572183	-0.650837	0.710037
N50	N	0.817394	-0.801741	0.602763
N51	N	0.137538	-0.369628	0.726874
O52	O	-0.038795	-0.124419	0.714761
O53	O	0.150256	-0.124417	0.575522
O54	O	0.030331	-0.124432	0.575860
O55	O	0.081131	-0.124404	0.714423
O56	O	0.070086	-0.243584	0.615573
O57	O	0.190011	-0.243569	0.615236
O58	O	0.000960	-0.243571	0.754474
Zn59	Zn	0.101797	-0.262488	0.691160
Zn60	Zn	0.049419	-0.105500	0.638836
O61	O	0.120885	-0.243556	0.754137
N62	N	0.013669	0.001640	0.603123
N63	N	0.137749	-0.678230	1.035381
O64	O	0.125655	-0.854547	1.280566
O65	O	-0.013567	-0.665426	1.280590
O66	O	-0.013245	-0.785328	1.280537
O67	O	0.125333	-0.734644	1.280618
O68	O	0.026456	-0.745599	1.161392
O69	O	0.026134	-0.625697	1.161444
O70	O	0.165355	-0.814817	1.161420
Zn71	Zn	0.102048	-0.713949	1.142516
Zn72	Zn	0.049740	-0.766294	1.299495
O73	O	0.165033	-0.694915	1.161473
N74	N	0.014038	-0.802020	1.406629
C75	C	0.045634	-0.621635	0.576499
C76	C	0.194019	-0.769918	0.576389
C77	C	0.105616	-0.858555	0.753588
C78	C	-0.042769	-0.710272	0.753698
C79	C	0.631920	-0.828776	0.783102
C80	C	0.631811	-0.828380	0.634616
C81	C	0.631633	-0.651162	0.546422
C82	C	0.631745	-0.651559	0.694907
C83	C	0.193900	-0.183846	0.576155
C84	C	0.045437	-0.184012	0.576622
C85	C	-0.042734	-0.183994	0.753792
C86	C	0.105780	-0.183977	0.753375
C87	C	-0.012889	-0.621735	1.221020
C88	C	-0.012483	-0.770211	1.220931
C89	C	0.164678	-0.858508	1.220991
C90	C	0.164280	-0.710023	1.221052
H91	H	0.028603	-0.620718	1.029520
O92	O	0.247122	-0.517353	0.655304
C93	C	0.257712	-0.468161	0.584873
H94	H	0.212487	-0.414701	0.585028
H95	H	0.311132	-0.460181	0.563367
C96	C	0.313755	-0.563081	0.536588
C97	C	0.258205	-0.497423	0.536778
H98	H	0.314063	-0.581131	0.506919
H99	H	0.306623	-0.596224	0.584039
H100	H	0.358265	-0.556422	0.518668
H101	H	0.213695	-0.504084	0.554706
H102	H	0.265330	-0.464282	0.489329
O103	O	0.197696	-0.369573	0.606164
C104	C	0.134660	-0.326173	0.588068
H105	H	0.089628	-0.348783	0.630355
H106	H	0.118869	-0.269337	0.585591
C107	C	0.203275	-0.297232	0.462585
C108	C	0.147967	-0.325004	0.514520
H109	H	0.211483	-0.296507	0.417216
H110	H	0.245744	-0.326469	0.474777
H111	H	0.190108	-0.249870	0.460531
H112	H	0.161138	-0.372368	0.516580
H113	H	0.105500	-0.295775	0.502327
H114	H	-0.097093	-0.699562	0.797349
O115	O	0.632025	-0.880867	0.847903
C116	C	0.632020	-0.855067	0.892496
H117	H	0.654525	-0.809057	0.858055
H118	H	0.574872	-0.835202	0.928701
C119	C	0.651168	-0.972381	0.981124
C120	C	0.678815	-0.915875	0.938823
H121	H	0.680031	-1.009890	1.009704
H122	H	0.651169	-0.989763	0.951083
H123	H	0.603546	-0.955818	1.011289
H124	H	0.726433	-0.932436	0.908653
H125	H	0.678823	-0.898497	0.968861
O126	O	-0.064949	-0.556878	1.220931
C127	C	-0.040469	-0.502876	1.159231
H128	H	0.020593	-0.522596	1.138669
H129	H	-0.060789	-0.489474	1.116007
C130	C	-0.143760	-0.411134	1.203251
C131	C	-0.068763	-0.435352	1.178000
H132	H	-0.161215	-0.369480	1.214827
H133	H	-0.160254	-0.447515	1.244819
H134	H	-0.160684	-0.399971	1.167227
H135	H	-0.051841	-0.446523	1.214027
H136	H	-0.052266	-0.398970	1.136439
H137	H	0.631832	-0.871926	0.623751
O138	O	0.066076	-0.568542	0.836475
C139	C	-0.004366	-0.557924	0.847134
H140	H	-0.004258	-0.566291	0.801918
H141	H	-0.025821	-0.597849	0.900556
C142	C	-0.052607	-0.470815	0.903227
C143	C	-0.052476	-0.481085	0.847688
H144	H	-0.082285	-0.423418	0.903572
H145	H	-0.005149	-0.477969	0.896049
H146	H	-0.070484	-0.504090	0.947739
H147	H	-0.034590	-0.447816	0.803177
H148	H	-0.099932	-0.473923	0.854859
H149	H	0.631558	-0.607440	0.492131
H150	H	0.248082	-0.183515	0.532333
H151	H	0.631735	-0.608016	0.705768
H152	H	0.034845	-0.567275	0.532897
O153	O	0.118489	-0.923349	0.805675
C154	C	0.110495	-0.914003	0.866058
H155	H	0.118313	-0.861505	0.848852
H156	H	0.054533	-0.912496	0.906601
C157	C	0.157198	-1.041226	0.921628
C158	C	0.166806	-0.976750	0.900494
H159	H	0.191930	-1.079932	0.942872
H160	H	0.162581	-1.047524	0.880948
H161	H	0.110560	-1.039960	0.955410
H162	H	0.213439	-0.978014	0.866706
H163	H	0.161431	-0.970454	0.941169
H164	H	0.034558	-0.184014	0.533090
O165	O	-0.107558	-0.183949	0.805852
C166	C	-0.152153	-0.183972	0.780079
H167	H	-0.132769	-0.161432	0.719055
H168	H	-0.150219	-0.241134	0.798305
C169	C	-0.253474	-0.164911	0.884687
C170	C	-0.229669	-0.137221	0.809737
H171	H	-0.301290	-0.136076	0.902984
H172	H	-0.223429	-0.164899	0.902052
H173	H	-0.251856	-0.212546	0.899866
H174	H	-0.231280	-0.089591	0.794560
H175	H	-0.259717	-0.137225	0.792370
H176	H	0.208389	-0.912821	1.220975
H177	H	0.084019	-0.375548	0.839959
O178	O	0.118882	-0.184013	0.805245
C179	C	0.189295	-0.183995	0.779140
H180	H	0.223169	-0.206546	0.733147
H181	H	0.188231	-0.126833	0.759164
C182	C	0.180287	-0.203034	0.896226
C183	C	0.221893	-0.230737	0.839741
H184	H	0.200394	-0.231863	0.933608
H185	H	0.132847	-0.203043	0.913814
H186	H	0.179404	-0.155399	0.879570
H187	H	0.222768	-0.278367	0.856395
H188	H	0.269333	-0.230737	0.822158
H189	H	0.207816	-0.699179	1.221068
H190	H	-0.056000	-0.781036	1.220859
H191	H	0.250848	-0.731818	1.029432
O192	O	0.307708	-0.689422	0.887561
C193	C	0.338870	-0.764542	0.905853
H194	H	0.303340	-0.790792	0.960310
H195	H	0.344425	-0.781500	0.863643
C196	C	0.457040	-0.755990	0.842407
C197	C	0.413404	-0.788231	0.909295
H198	H	0.503017	-0.770603	0.844527
H199	H	0.436046	-0.705380	0.830080
H200	H	0.461661	-0.770125	0.807239
H201	H	0.408777	-0.774089	0.944460
H202	H	0.434399	-0.838839	0.921628
O203	O	0.258370	-0.738496	0.666422
C204	C	0.328810	-0.749140	0.655795
H205	H	0.328676	-0.703929	0.664182
H206	H	0.350326	-0.802573	0.695698
C207	C	0.377038	-0.805191	0.568652
C208	C	0.376874	-0.749658	0.578948
H209	H	0.406687	-0.805514	0.521251
H210	H	0.329582	-0.798023	0.575814
H211	H	0.394966	-0.849713	0.601910
H212	H	0.358938	-0.705137	0.545697
H213	H	0.424328	-0.756819	0.571779
O214	O	0.016872	-0.617750	0.787106
C215	C	-0.001297	-0.579995	0.724108
H216	H	0.040958	-0.554611	0.679048
H217	H	-0.003796	-0.618553	0.708319
C218	C	-0.126745	-0.552138	0.792834
C219	C	-0.074850	-0.520955	0.737492
H220	H	-0.172117	-0.515722	0.801089
H221	H	-0.114505	-0.577576	0.835277
H222	H	-0.128819	-0.584269	0.779669
H223	H	-0.072771	-0.488833	0.750661
H224	H	-0.087091	-0.495510	0.695051
O225	O	0.298456	-0.748615	0.821647
C226	C	0.347647	-0.818560	0.825672
H227	H	0.401088	-0.815707	0.781368
H228	H	0.355658	-0.847194	0.880016
C229	C	0.252730	-0.863641	0.870922
C230	C	0.318366	-0.860138	0.816503
H231	H	0.234668	-0.889290	0.865269
H232	H	0.219589	-0.816519	0.868213
H233	H	0.259415	-0.887501	0.916203
H234	H	0.311678	-0.836271	0.771224
H235	H	0.351505	-0.907257	0.819204
H236	H	0.073862	-0.575336	0.893474
H237	H	0.440287	-0.786313	0.770693
O238	O	0.446016	-0.558502	0.681147
C239	C	0.396828	-0.488560	0.677146
H240	H	0.343363	-0.485634	0.682071
H241	H	0.388877	-0.474562	0.722584
C242	C	0.491729	-0.438614	0.598692
C243	C	0.426064	-0.435019	0.604736
H244	H	0.509763	-0.405586	0.554028
H245	H	0.524869	-0.485735	0.601390
H246	H	0.485094	-0.426950	0.636562
H247	H	0.432701	-0.446691	0.566872
H248	H	0.392926	-0.387898	0.602030
O249	O	0.126534	-0.517402	0.896882
C250	C	0.083112	-0.468233	0.934556
H251	H	0.092656	-0.414765	0.898795
H252	H	0.024371	-0.460260	0.950739
C253	C	0.090414	-0.563186	1.046077
C254	C	0.102141	-0.497519	1.002157
H255	H	0.102149	-0.581252	1.087778
H256	H	0.119666	-0.596314	1.020696
H257	H	0.041463	-0.556534	1.059556
H258	H	0.151093	-0.504174	0.988672
H259	H	0.072898	-0.464393	1.027537
H260	H	0.295996	-0.686402	0.718551
H261	H	0.304191	-0.520811	0.732143
H262	H	0.248339	-0.780632	0.532734
