data_functionalizedCrystal
_audit_creation_method	'MofGen! by Chris Wilmer'
_symmetry_space_group_name_H-M	'P1'
_symmetry_Int_Tables_number	1
_symmetry_cell_setting	triclinic
loop_
_symmetry_equiv_pos_as_xyz
  x,y,z
_cell_length_a	21.295417
_cell_length_b	21.295418
_cell_length_c	19.805399
_cell_angle_alpha	89.962178
_cell_angle_beta	89.969157
_cell_angle_gamma	90.046319
loop_
_atom_site_label
_atom_site_type_symbol
_atom_site_fract_x
_atom_site_fract_y
_atom_site_fract_z
Zn1	Zn	-0.250358	0.962319	-0.383034
Zn2	Zn	0.082975	1.295652	-0.049701
Zn3	Zn	0.416309	1.628986	0.283633
Zn4	Zn	-0.355627	0.962232	-0.269839
Zn5	Zn	-0.022293	1.295566	0.063494
Zn6	Zn	0.311040	1.628899	0.396827
Zn7	Zn	-0.250404	0.857053	-0.269823
Zn8	Zn	0.082929	1.190386	0.063511
Zn9	Zn	0.416262	1.523720	0.396844
Zn10	Zn	-0.355622	0.857012	-0.382950
Zn11	Zn	-0.022289	1.190345	-0.049617
Zn12	Zn	0.311044	1.523678	0.283717
O13	O	-0.303003	0.909654	-0.326411
O14	O	0.030330	1.242987	0.006922
O15	O	0.363664	1.576321	0.340255
O16	O	-0.264305	1.050397	-0.368061
O17	O	0.069029	1.383730	-0.034727
O18	O	0.402362	1.717064	0.298606
O19	O	-0.341690	0.948261	-0.175120
O20	O	-0.008357	1.281594	0.158213
O21	O	0.324977	1.614928	0.491546
O22	O	-0.162309	0.871070	-0.284868
O23	O	0.171024	1.204404	0.048465
O24	O	0.504358	1.537737	0.381798
O25	O	-0.341645	1.050333	-0.284897
O26	O	-0.008312	1.383667	0.048436
O27	O	0.325022	1.717000	0.381770
O28	O	-0.162275	0.948409	-0.368044
O29	O	0.171059	1.281742	-0.034711
O30	O	0.504392	1.615076	0.298622
O31	O	-0.264384	0.870986	-0.175108
O32	O	0.068950	1.204320	0.158225
O33	O	0.402283	1.537653	0.491559
O34	O	-0.264379	0.768958	-0.284787
O35	O	0.068954	1.102292	0.048546
O36	O	0.402287	1.435625	0.381880
O37	O	-0.341638	0.871000	-0.477678
O38	O	-0.008304	1.204333	-0.144344
O39	O	0.325029	1.537666	0.188989
O40	O	-0.341683	0.768928	-0.367901
O41	O	-0.008349	1.102261	-0.034568
O42	O	0.324984	1.435594	0.298765
O43	O	-0.264300	0.948369	-0.477739
O44	O	0.069033	1.281702	-0.144406
O45	O	0.402366	1.615035	0.188927
O46	O	-0.443716	0.948221	-0.284816
O47	O	-0.110382	1.281554	0.048518
O48	O	0.222951	1.614888	0.381851
O49	O	-0.443712	0.870916	-0.367917
O50	O	-0.110379	1.204249	-0.034584
O51	O	0.222954	1.537582	0.298749
C52	C	-0.303036	0.746102	-0.326334
C53	C	0.030297	1.079436	0.007000
C54	C	0.363631	1.412769	0.340333
C55	C	-0.303065	0.676134	-0.326316
C56	C	0.030268	1.009468	0.007017
C57	C	0.363601	1.342801	0.340350
C58	C	-0.466555	0.909572	-0.326374
C59	C	-0.133221	1.242905	0.006959
C60	C	0.200112	1.576238	0.340293
C61	C	-0.536523	0.909594	-0.326381
C62	C	-0.203189	1.242927	0.006953
C63	C	0.130144	1.576260	0.340286
C64	C	-0.343370	0.643268	-0.369529
C65	C	-0.010037	0.976602	-0.036196
C66	C	0.323296	1.309935	0.297138
C67	C	-0.343355	0.577526	-0.369560
C68	C	-0.010022	0.910859	-0.036226
C69	C	0.323312	1.244192	0.297107
C70	C	-0.303041	0.544652	-0.326365
C71	C	0.030292	0.877985	0.006968
C72	C	0.363626	1.211318	0.340302
C73	C	-0.262728	0.577526	-0.283149
C74	C	0.070605	0.910859	0.050184
C75	C	0.403939	1.244192	0.383518
C76	C	-0.262740	0.643267	-0.283125
C77	C	0.070593	0.976600	0.050209
C78	C	0.403926	1.309934	0.383542
N79	N	-0.298123	0.441381	-0.267165
N80	N	0.035211	0.774715	0.066168
N81	N	0.368544	1.108048	0.399501
N82	N	-0.298115	0.378930	-0.267190
N83	N	0.035219	0.712263	0.066143
N84	N	0.368552	1.045597	0.399476
C85	C	-0.303001	0.346577	-0.326437
C86	C	0.030333	0.679910	0.006897
C87	C	0.363666	1.013244	0.340230
N88	N	-0.307907	0.379035	-0.385659
N89	N	0.025426	0.712368	-0.052325
N90	N	0.358759	1.045702	0.281008
N91	N	-0.307919	0.441492	-0.385633
N92	N	0.025415	0.774825	-0.052299
N93	N	0.358748	1.108159	0.281034
C94	C	-0.303023	0.473366	-0.326387
C95	C	0.030310	0.806700	0.006946
C96	C	0.363644	1.140033	0.340280
C97	C	-0.343291	0.242426	-0.369686
C98	C	-0.009958	0.575759	-0.036353
C99	C	0.323375	0.909092	0.296980
C100	C	-0.343271	0.176682	-0.369718
C101	C	-0.009938	0.510015	-0.036384
C102	C	0.323395	0.843349	0.296949
C103	C	-0.262648	0.176683	-0.283301
C104	C	0.070686	0.510016	0.050032
C105	C	0.404019	0.843350	0.383365
C106	C	-0.262664	0.242426	-0.283276
C107	C	0.070669	0.575759	0.050058
C108	C	0.404002	0.909092	0.383391
C109	C	-0.302989	0.275293	-0.326467
C110	C	0.030344	0.608626	0.006866
C111	C	0.363677	0.941960	0.340199
C112	C	-0.569370	0.949882	-0.283154
C113	C	-0.236037	1.283216	0.050180
C114	C	0.097297	1.616549	0.383513
C115	C	-0.635113	0.949912	-0.283169
C116	C	-0.301779	1.283245	0.050164
C117	C	0.031554	1.616579	0.383498
C118	C	-0.668005	0.909642	-0.326404
C119	C	-0.334672	1.242975	0.006929
C120	C	-0.001339	1.576308	0.340263
C121	C	-0.635150	0.869350	-0.369639
C122	C	-0.301816	1.202683	-0.036306
C123	C	0.031517	1.536017	0.297028
C124	C	-0.569409	0.869326	-0.369627
C125	C	-0.236075	1.202660	-0.036294
C126	C	0.097258	1.535993	0.297039
N127	N	-0.771286	0.854574	-0.331538
N128	N	-0.437953	1.187907	0.001796
N129	N	-0.104620	1.521241	0.335129
N130	N	-0.833738	0.854598	-0.331545
N131	N	-0.500404	1.187932	0.001789
N132	N	-0.167071	1.521265	0.335122
C133	C	-0.866080	0.909712	-0.326443
C134	C	-0.532746	1.243045	0.006891
C135	C	-0.199413	1.576379	0.340224
N136	N	-0.833611	0.964801	-0.321320
N137	N	-0.500278	1.298135	0.012013
N138	N	-0.166945	1.631468	0.345347
N139	N	-0.771154	0.964776	-0.321309
N140	N	-0.437821	1.298110	0.012024
N141	N	-0.104487	1.631443	0.345357
C142	C	-0.739291	0.909663	-0.326422
C143	C	-0.405957	1.242997	0.006912
C144	C	-0.072624	1.576330	0.340245
C145	C	-0.970213	0.950036	-0.283230
C146	C	-0.636879	1.283369	0.050103
C147	C	-0.303546	1.616703	0.383437
C148	C	-1.035956	0.950067	-0.283250
C149	C	-0.702623	1.283400	0.050083
C150	C	-0.369290	1.616733	0.383417
C151	C	-1.035992	0.869499	-0.369717
C152	C	-0.702659	1.202833	-0.036383
C153	C	-0.369326	1.536166	0.296950
C154	C	-0.970250	0.869474	-0.369700
C155	C	-0.636917	1.202808	-0.036367
C156	C	-0.303583	1.536141	0.296966
C157	C	-0.937364	0.909742	-0.326453
C158	C	-0.604031	1.243075	0.006880
C159	C	-0.270697	1.576409	0.340213
C160	C	-0.138813	0.909754	-0.326464
C161	C	0.194521	1.243087	0.006869
C162	C	0.527854	1.576421	0.340203
C163	C	-0.068844	0.909797	-0.326486
C164	C	0.264489	1.243130	0.006847
C165	C	0.597822	1.576463	0.340180
C166	C	-0.302963	0.909689	-0.502954
C167	C	0.030370	1.243023	-0.169621
C168	C	0.363703	1.576356	0.163712
C169	C	-0.302946	0.909704	-0.578186
C170	C	0.030387	1.243038	-0.244853
C171	C	0.363720	1.576371	0.088480
C172	C	-0.302970	1.073844	-0.326490
C173	C	0.030363	1.407178	0.006843
C174	C	0.363697	1.740511	0.340177
C175	C	-0.302956	1.143812	-0.326524
C176	C	0.030377	1.477146	0.006810
C177	C	0.363710	1.810479	0.340143
C178	C	-0.262675	0.949991	-0.613564
C179	C	0.070658	1.283325	-0.280230
C180	C	0.403992	1.616658	0.053103
C181	C	-0.262657	0.949998	-0.684252
C182	C	0.070677	1.283331	-0.350919
C183	C	0.404010	1.616664	-0.017586
C184	C	-0.302914	0.909720	-0.719562
C185	C	0.030420	1.243053	-0.386229
C186	C	0.363753	1.576387	-0.052895
C187	C	-0.343187	0.869429	-0.684180
C188	C	-0.009853	1.202762	-0.350846
C189	C	0.323480	1.536095	-0.017513
C190	C	-0.343201	0.869420	-0.613492
C191	C	-0.009868	1.202753	-0.280159
C192	C	0.323465	1.536086	0.053174
C193	C	-0.343128	0.869464	-0.969253
C194	C	-0.009795	1.202798	-0.635920
C195	C	0.323539	1.536131	-0.302586
C196	C	-0.343112	0.869478	-1.039945
C197	C	-0.009778	1.202811	-0.706612
C198	C	0.323555	1.536145	-0.373279
C199	C	-0.262583	0.950042	-1.040013
C200	C	0.070750	1.283376	-0.706680
C201	C	0.404083	1.616709	-0.373346
C202	C	-0.262598	0.950033	-0.969326
C203	C	0.070735	1.283367	-0.635992
C204	C	0.404069	1.616700	-0.302659
C205	C	-0.302869	0.909740	-0.933949
C206	C	0.030465	1.243073	-0.600616
C207	C	0.363798	1.576407	-0.267283
C208	C	-0.302887	0.909733	-0.857301
C209	C	0.030446	1.243066	-0.523968
C210	C	0.363780	1.576399	-0.190634
C211	C	-0.302899	0.909730	-0.796209
C212	C	0.030435	1.243063	-0.462876
C213	C	0.363768	1.576397	-0.129542
C214	C	-0.302997	0.909655	-0.150555
C215	C	0.030336	1.242988	0.182778
C216	C	0.363670	1.576322	0.516111
C217	C	-0.302837	0.909762	-0.075324
C218	C	0.030497	1.243095	0.258009
C219	C	0.363830	1.576429	0.591343
H220	H	-0.376205	0.670025	-0.404700
H221	H	-0.042872	1.003358	-0.071367
H222	H	0.290461	1.336691	0.261967
F223	F	-0.670078	0.992794	-0.237159
F224	F	-0.336745	1.326127	0.096175
F225	F	-0.003412	1.659460	0.429508
H226	H	-0.229819	0.982834	-0.940580
H227	H	0.103515	1.316167	-0.607247
H228	H	0.436848	1.649500	-0.273913
F229	F	-0.219721	0.992925	-1.077668
F230	F	0.113612	1.326258	-0.744335
F231	F	0.446946	1.659591	-0.411002
H232	H	-0.542664	0.836518	-0.404829
H233	H	-0.209330	1.169851	-0.071495
H234	H	0.124003	1.503185	0.261838
H235	H	-0.661935	0.836563	-0.404843
H236	H	-0.328602	1.169896	-0.071509
H237	H	0.004732	1.503230	0.261824
F238	F	-0.935211	0.992891	-0.237203
F239	F	-0.601878	1.326225	0.096130
F240	F	-0.268544	1.659558	0.429463
F241	F	-0.219830	0.992864	-0.575991
F242	F	0.113503	1.326198	-0.242657
F243	F	0.446836	1.659531	0.090676
H244	H	-1.062773	0.836713	-0.404922
H245	H	-0.729440	1.170046	-0.071589
H246	H	-0.396106	1.503380	0.261744
H247	H	-0.229917	0.670026	-0.247935
H248	H	0.103416	1.003359	0.085398
H249	H	0.436750	1.336693	0.418731
F250	F	-0.219816	0.992898	-0.721900
F251	F	0.113518	1.326232	-0.388567
F252	F	0.446851	1.659565	-0.055234
H253	H	-0.229847	0.269185	-0.248084
H254	H	0.103487	0.602519	0.085250
H255	H	0.436820	0.935852	0.418583
H256	H	-0.376176	0.550761	-0.404751
H257	H	-0.042843	0.884094	-0.071418
H258	H	0.290491	1.217428	0.261915
H259	H	-0.375895	0.836676	-1.068693
H260	H	-0.042562	1.170009	-0.735359
H261	H	0.290772	1.503343	-0.402026
F262	F	-0.385988	0.826580	-0.931612
F263	F	-0.052655	1.159914	-0.598279
F264	F	0.280679	1.493247	-0.264945
H265	H	-0.229903	0.550756	-0.247981
H266	H	0.103430	0.884089	0.085352
H267	H	0.436764	1.217422	0.418686
H268	H	-0.375988	0.836607	-0.584689
H269	H	-0.042655	1.169941	-0.251356
H270	H	0.290678	1.503274	0.081978
H271	H	-1.062700	0.982878	-0.248051
H272	H	-0.729366	1.316212	0.085282
H273	H	-0.396033	1.649545	0.418616
H274	H	-0.542596	0.982672	-0.247941
H275	H	-0.209263	1.316005	0.085392
H276	H	0.124070	1.649339	0.418725
F277	F	-0.386029	0.826559	-0.721761
F278	F	-0.052696	1.159893	-0.388427
F279	F	0.280638	1.493226	-0.055094
F280	F	-0.386205	0.277408	-0.415657
F281	F	-0.052872	0.610741	-0.082324
F282	F	0.280462	0.944074	0.251010
H283	H	-0.376091	0.149923	-0.404911
H284	H	-0.042758	0.483257	-0.071578
H285	H	0.290575	0.816590	0.261756
F286	F	-0.219739	0.141701	-0.237333
F287	F	0.113594	0.475034	0.096000
F288	F	0.446928	0.808367	0.429333
H289	H	-0.943504	0.836665	-0.404897
H290	H	-0.610170	1.169998	-0.071563
H291	H	-0.276837	1.503332	0.261770
