data_functionalizedCrystal
_audit_creation_method	'MofGen! by Chris Wilmer'
_symmetry_space_group_name_H-M	'P1'
_symmetry_Int_Tables_number	1
_symmetry_cell_setting	triclinic
loop_
_symmetry_equiv_pos_as_xyz
  x,y,z
_cell_length_a	18.101398
_cell_length_b	18.101395
_cell_length_c	18.101390
_cell_angle_alpha	89.968664
_cell_angle_beta	89.985301
_cell_angle_gamma	90.029256
loop_
_atom_site_label
_atom_site_type_symbol
_atom_site_fract_x
_atom_site_fract_y
_atom_site_fract_z
Zn1	Zn	1.132124	-0.294838	-0.418650
Zn2	Zn	1.632124	0.205162	0.081350
Zn3	Zn	1.132019	-0.418695	-0.294812
Zn4	Zn	1.632019	0.081305	0.205188
Zn5	Zn	1.008282	-0.294868	-0.294832
Zn6	Zn	1.508282	0.205132	0.205168
Zn7	Zn	1.008233	-0.418638	-0.418622
Zn8	Zn	1.508233	0.081362	0.081378
O9	O	1.070164	-0.356760	-0.356729
O10	O	1.570164	0.143240	0.143271
O11	O	1.235743	-0.311279	-0.402225
O12	O	1.735743	0.188721	0.097775
O13	O	1.115581	-0.402305	-0.191181
O14	O	1.615581	0.097695	0.308819
O15	O	1.024774	-0.191231	-0.311277
O16	O	1.524774	0.308769	0.188723
O17	O	1.235665	-0.402276	-0.311242
O18	O	1.735665	0.097724	0.188758
O19	O	1.115760	-0.191209	-0.402245
O20	O	1.615760	0.308791	0.097755
O21	O	1.024672	-0.311330	-0.191197
O22	O	1.524672	0.188670	0.308803
O23	O	0.904642	-0.311275	-0.311250
O24	O	1.404642	0.188725	0.188750
O25	O	1.024691	-0.402179	-0.522258
O26	O	1.524691	0.097821	-0.022258
O27	O	0.904607	-0.402208	-0.402198
O28	O	1.404607	0.097792	0.097802
O29	O	1.115713	-0.311224	-0.522279
O30	O	1.615713	0.188776	-0.022279
O31	O	1.115534	-0.522320	-0.311215
O32	O	1.615534	-0.022320	0.188785
O33	O	1.024589	-0.522279	-0.402178
O34	O	1.524589	-0.022279	0.097822
C35	C	0.877754	-0.356739	-0.356724
C36	C	1.377754	0.143261	0.143276
C37	C	0.795440	-0.356748	-0.356739
C38	C	1.295440	0.143252	0.143261
C39	C	1.070065	-0.549170	-0.356707
C40	C	1.570065	-0.049170	0.143293
C41	C	1.070091	-0.631484	-0.356722
C42	C	1.570091	-0.131484	0.143278
C43	C	0.644731	-0.356762	-0.356738
C44	C	1.144731	0.143238	0.143262
C45	C	0.613380	-0.414063	-0.413871
C46	C	1.113380	0.085937	0.086129
C47	C	0.527761	-0.414295	-0.413702
C48	C	1.027761	0.085705	0.086298
C49	C	0.496349	-0.356776	-0.356738
C50	C	0.996349	0.143224	0.143262
C51	C	0.527401	-0.377609	-0.278597
C52	C	1.027401	0.122391	0.221403
C53	C	0.613046	-0.378017	-0.278927
C54	C	1.113046	0.121983	0.221073
C55	C	0.613210	-0.278486	-0.377064
C56	C	1.113210	0.221514	0.122936
C57	C	0.527560	-0.278915	-0.378785
C58	C	1.027560	0.221085	0.121215
C59	C	0.412489	-0.356782	-0.356733
C60	C	0.912489	0.143218	0.143267
C61	C	0.728591	-0.356758	-0.356737
C62	C	1.228591	0.143242	0.143263
C63	C	1.070253	-0.930575	-0.356762
C64	C	1.570253	-0.430575	0.143238
C65	C	1.013166	-0.899255	-0.414136
C66	C	1.513166	-0.399255	0.085864
C67	C	1.012895	-0.813637	-0.413956
C68	C	1.512895	-0.313637	0.086044
C69	C	1.070172	-0.782193	-0.356743
C70	C	1.570172	-0.282193	0.143257
C71	C	1.049043	-0.813349	-0.278695
C72	C	1.549043	-0.313349	0.221305
C73	C	1.048675	-0.898994	-0.279039
C74	C	1.548675	-0.398994	0.220961
C75	C	1.148595	-0.898920	-0.376750
C76	C	1.648595	-0.398920	0.123250
C77	C	1.148134	-0.813269	-0.378461
C78	C	1.648134	-0.313269	0.121539
C79	C	1.070128	-0.698333	-0.356728
C80	C	1.570128	-0.198333	0.143272
C81	C	1.070296	-1.014435	-0.356773
C82	C	1.570296	-0.514435	0.143227
C83	C	1.263326	-0.356781	-0.356734
C84	C	1.763326	0.143219	0.143266
C85	C	1.345640	-0.356790	-0.356737
C86	C	1.845640	0.143210	0.143263
C87	C	1.070208	-0.356692	-0.549891
C88	C	1.570208	0.143308	-0.049891
C89	C	1.070227	-0.356663	-0.632205
C90	C	1.570227	0.143337	-0.132205
C91	C	1.070284	-0.163598	-0.356767
C92	C	1.570284	0.336402	0.143233
C93	C	1.070335	-0.081284	-0.356783
C94	C	1.570335	0.418716	0.143217
C95	C	1.070267	-0.356617	-0.931296
C96	C	1.570267	0.143383	-0.431296
C97	C	1.127724	-0.299592	-0.899984
C98	C	1.627724	0.200408	-0.399984
C99	C	1.127545	-0.299380	-0.814365
C100	C	1.627545	0.200620	-0.314365
C101	C	1.070248	-0.356640	-0.782913
C102	C	1.570248	0.143360	-0.282913
C103	C	0.992231	-0.335434	-0.813993
C104	C	1.492231	0.164566	-0.313993
C105	C	0.992575	-0.335007	-0.899638
C106	C	1.492575	0.164993	-0.399638
C107	C	1.090140	-0.434995	-0.899709
C108	C	1.590140	0.065005	-0.399709
C109	C	1.091852	-0.434595	-0.814059
C110	C	1.591852	0.065405	-0.314059
C111	C	1.070232	-0.356654	-0.699054
C112	C	1.570232	0.143346	-0.199054
C113	C	1.070277	-0.356601	-1.015156
C114	C	1.570277	0.143399	-0.515156
C115	C	1.070163	-0.356774	-0.164318
C116	C	1.570163	0.143226	0.335682
C117	C	1.070288	-0.356594	-0.082005
C118	C	1.570288	0.143406	0.417995
H119	H	0.506767	-0.401299	-0.471633
H120	H	1.006767	0.098701	0.028367
H121	H	0.955450	-0.920840	-0.401063
H122	H	1.455450	-0.420840	0.098937
H123	H	0.505921	-0.434194	-0.261125
H124	H	1.005921	0.065806	0.238875
Cl125	Cl	0.645240	-0.394252	-0.503589
Cl126	Cl	1.145240	0.105748	-0.003589
H127	H	0.507239	-0.472302	-0.400217
H128	H	1.007239	0.027698	0.099783
H129	H	0.633487	-0.235798	-0.335455
H130	H	1.133487	0.264202	0.164545
H131	H	1.146032	-0.454304	-0.921349
H132	H	1.646032	0.045696	-0.421349
H133	H	0.634868	-0.471736	-0.400549
H134	H	1.134868	0.028264	0.099451
Cl135	Cl	0.923240	-0.782098	-0.393519
Cl136	Cl	1.423240	-0.282098	0.106481
Cl137	Cl	0.960258	-0.929941	-0.252898
Cl138	Cl	1.460258	-0.429941	0.247102
H139	H	1.089314	-0.792983	-0.234783
H140	H	1.589314	-0.292983	0.265217
H141	H	1.088451	-0.919716	-0.234834
H142	H	1.588451	-0.419716	0.265166
Cl143	Cl	0.965748	-0.247956	-0.780903
Cl144	Cl	1.465748	0.252044	-0.280903
H145	H	1.149265	-0.450586	-0.793744
H146	H	1.649265	0.049414	-0.293744
H147	H	0.632988	-0.435225	-0.261748
H148	H	1.132988	0.064775	0.238252
H149	H	0.506179	-0.233968	-0.340239
H150	H	1.006179	0.266032	0.159761
Cl151	Cl	0.961560	-0.780338	-0.252084
Cl152	Cl	1.461560	-0.280338	0.247916
H153	H	1.191127	-0.919174	-0.334963
H154	H	1.691127	-0.419174	0.165037
H155	H	1.026114	-0.792569	-0.471828
H156	H	1.526114	-0.292569	0.028172
H157	H	1.114736	-0.241852	-0.921521
H158	H	1.614736	0.258148	-0.421521
H159	H	1.053046	-0.479367	-0.792646
H160	H	1.553046	0.020633	-0.292646
Cl161	Cl	0.924223	-0.396329	-0.931620
Cl162	Cl	1.424223	0.103671	-0.431620
Cl163	Cl	0.645069	-0.316362	-0.210929
Cl164	Cl	1.145069	0.183638	0.289071
Cl165	Cl	0.495989	-0.315151	-0.211065
Cl166	Cl	0.995989	0.184849	0.288935
Cl167	Cl	1.025527	-0.500594	-0.930968
Cl168	Cl	1.525527	-0.000594	-0.430968
Cl169	Cl	1.107234	-0.209734	-0.782751
Cl170	Cl	1.607234	0.290266	-0.282751
Cl171	Cl	1.033368	-0.930976	-0.503778
Cl172	Cl	1.533368	-0.430976	-0.003778
Cl173	Cl	0.646597	-0.249102	-0.463556
Cl174	Cl	1.146597	0.250898	0.036444
H175	H	1.167859	-0.920465	-0.432692
H176	H	1.667859	-0.420465	0.067308
H177	H	0.507268	-0.263199	-0.436293
H178	H	1.007268	0.236801	0.063707
H179	H	1.164068	-0.792902	-0.435900
H180	H	1.664068	-0.292902	0.064100
Cl181	Cl	1.217280	-0.780212	-0.318651
Cl182	Cl	1.717280	-0.280212	0.181349
H183	H	1.185396	-0.312660	-0.793353
H184	H	1.685396	0.187340	-0.293353
H185	H	1.185764	-0.312708	-0.920581
H186	H	1.685764	0.187292	-0.420581
Cl187	Cl	0.966531	-0.246560	-0.930506
Cl188	Cl	1.466531	0.253440	-0.430506
Cl189	Cl	0.924340	-0.397589	-0.782547
Cl190	Cl	1.424340	0.102411	-0.282547
