data_functionalizedCrystal
_audit_creation_method	'MofGen! by Chris Wilmer'
_symmetry_space_group_name_H-M	'P1'
_symmetry_Int_Tables_number	1
_symmetry_cell_setting	triclinic
loop_
_symmetry_equiv_pos_as_xyz
  x,y,z
_cell_length_a	14.519709
_cell_length_b	14.750779
_cell_length_c	15.538191
_cell_angle_alpha	82.430615
_cell_angle_beta	65.476119
_cell_angle_gamma	102.671093
loop_
_atom_site_label
_atom_site_type_symbol
_atom_site_fract_x
_atom_site_fract_y
_atom_site_fract_z
O1	O	1.155554	-0.079697	0.143774
O2	O	0.882179	-0.079726	0.158315
O3	O	1.072080	-0.079710	0.014004
O4	O	0.965653	-0.079712	0.288084
O5	O	1.125761	0.079945	-0.026786
O6	O	0.935860	0.079929	0.117524
O7	O	1.209235	0.079958	0.102983
Zn8	Zn	1.081071	0.105292	0.103777
Zn9	Zn	1.010343	-0.105060	0.157520
O10	O	1.019334	0.079942	0.247294
C11	C	0.874886	0.000098	0.137243
C12	C	0.773184	0.000087	0.135216
N13	N	1.129347	0.248852	0.067098
C14	C	1.110054	0.000115	-0.041467
C15	C	1.143220	0.000109	-0.145984
C16	C	0.400816	0.000131	0.127733
C17	C	0.504422	0.000118	0.129811
C18	C	0.586997	0.000108	0.131474
C19	C	0.690609	0.000097	0.133553
C20	C	1.216527	0.000132	0.124055
C21	C	1.318227	0.000137	0.126084
N22	N	0.962077	-0.248619	0.194192
C23	C	0.827262	0.600645	0.296589
C24	C	0.861095	0.701147	0.270893
C25	C	1.029263	0.701124	0.143153
C26	C	0.995441	0.600620	0.168835
C27	C	0.894440	0.550388	0.245555
C28	C	1.062619	0.550363	0.117801
C29	C	1.028802	0.449868	0.143485
C30	C	0.927807	0.399629	0.220203
C31	C	0.860623	0.449893	0.271238
C32	C	1.163623	0.600596	0.041086
C33	C	1.230801	0.550339	-0.009948
C34	C	1.196981	0.449842	0.015731
C35	C	1.095986	0.399604	0.092449
C36	C	1.264165	0.399578	-0.035304
C37	C	1.230348	0.299083	-0.009621
C38	C	1.062169	0.299109	0.118133
C39	C	0.813707	0.000095	-0.434326
C40	C	0.844897	0.000100	-0.532540
C41	C	1.020334	0.000118	-0.554692
C42	C	0.989156	0.000108	-0.456476
C43	C	0.885842	0.000098	-0.396301
C44	C	1.061292	0.000111	-0.418451
C45	C	1.030118	0.000106	-0.320245
C46	C	0.926809	0.000098	-0.260064
C47	C	0.854668	0.000093	-0.298095
C48	C	1.164608	0.000129	-0.478631
C49	C	1.236743	0.000131	-0.440606
C50	C	1.205568	0.000119	-0.342396
C51	C	1.102258	0.000112	-0.282215
C52	C	1.277708	0.000125	-0.304366
C53	C	1.246534	0.000120	-0.206159
C54	C	1.071085	0.000106	-0.184009
C55	C	0.981359	0.000115	0.302766
C56	C	0.948191	0.000115	0.407284
H57	H	0.979919	0.258208	0.180599
H58	H	0.729575	0.000079	-0.385325
N59	N	0.894954	0.000072	-0.159743
N60	N	0.819248	-0.067237	-0.093778
H61	H	0.796750	-0.067258	-0.022924
N62	N	0.749121	0.000056	-0.236625
N63	N	0.684713	0.000037	-0.270579
H64	H	0.610172	0.000007	-0.227166
N65	N	0.771199	0.000115	-0.571371
N66	N	0.678965	0.000117	-0.517631
H67	H	0.626918	0.000135	-0.545056
H68	H	1.361830	0.000143	-0.353377
H69	H	1.104454	0.000131	-0.603701
H70	H	1.320864	0.000144	-0.489615
N71	N	1.196467	0.000157	-0.578953
N72	N	1.193845	0.067457	-0.635031
H73	H	1.216347	0.067481	-0.705885
H74	H	1.191154	0.682425	0.020181
H75	H	1.305275	0.000123	-0.175200
H76	H	0.900276	0.317800	0.241116
H77	H	0.745012	0.559745	0.359055
N78	N	0.757443	0.398589	0.349601
N79	N	0.697463	0.443470	0.395158
H80	H	0.624596	0.407237	0.450500
H81	H	1.111500	0.742033	0.080690
H82	H	1.313039	0.591249	-0.072411
N83	N	0.792452	0.752469	0.323034
N84	N	0.702277	0.707604	0.391526
H85	H	0.653797	0.743849	0.428350
N86	N	1.367336	0.450909	-0.113650
N87	N	1.397524	0.540635	-0.136562
H88	H	1.470392	0.576889	-0.191892
N89	N	1.298903	0.247755	-0.061875
N90	N	1.389025	0.292615	-0.130452
H91	H	1.437417	0.256365	-0.167402
N92	N	0.965556	0.000102	-0.122520
N93	N	0.937743	0.000102	-0.034841
H94	H	0.863218	0.000101	0.008587
