data_functionalizedCrystal
_audit_creation_method	'MofGen! by Chris Wilmer'
_symmetry_space_group_name_H-M	'P1'
_symmetry_Int_Tables_number	1
_symmetry_cell_setting	triclinic
loop_
_symmetry_equiv_pos_as_xyz
  x,y,z
_cell_length_a	16.109318
_cell_length_b	23.532357
_cell_length_c	15.186229
_cell_angle_alpha	89.990735
_cell_angle_beta	90.000224
_cell_angle_gamma	83.148428
loop_
_atom_site_label
_atom_site_type_symbol
_atom_site_fract_x
_atom_site_fract_y
_atom_site_fract_z
O1	O	1.102526	0.073251	-0.073166
O2	O	0.860393	0.082350	-0.073185
O3	O	0.988783	-0.005106	-0.073157
O4	O	0.974136	0.160707	-0.073195
O5	O	0.988774	-0.005107	0.073300
O6	O	0.860384	0.082349	0.073272
O7	O	1.102518	0.073249	0.073291
Zn8	Zn	0.981450	0.077799	0.096535
Zn9	Zn	0.981461	0.077801	-0.096429
O10	O	0.974128	0.160706	0.073263
C11	C	0.829417	0.081979	0.000041
C12	C	0.737131	0.080869	0.000034
C13	C	0.438091	0.077284	-0.079783
C14	C	0.524804	0.078323	-0.079789
C15	C	0.524814	0.078314	0.079887
C16	C	0.438103	0.077271	0.079892
C17	C	0.394744	0.076758	0.000054
C18	C	0.568167	0.078841	0.000044
C19	C	0.662185	0.079968	0.000038
C20	C	0.300720	0.075630	0.000059
C21	C	0.988412	-0.026324	0.000074
C22	C	0.987311	-0.089547	0.000082
C23	C	0.980401	-0.481584	-0.079800
C24	C	0.979353	-0.540987	-0.079805
O25	O	0.978788	-0.571705	-0.147700
N26	N	0.978830	-0.570701	0.000028
C27	C	0.979344	-0.541007	0.079871
O28	O	0.978802	-0.571736	0.147775
C29	C	0.980385	-0.481604	0.079875
C30	C	0.980918	-0.451895	0.000037
C31	C	0.980932	-0.451873	-0.159631
C32	C	0.981980	-0.392474	-0.159626
C33	C	0.982498	-0.362785	-0.079789
C34	C	0.981966	-0.392495	0.000043
C35	C	0.980894	-0.451912	0.159717
C36	C	0.981935	-0.392505	0.159715
C37	C	0.982467	-0.362795	0.079877
C38	C	0.983532	-0.303407	0.079885
N39	N	0.984056	-0.273693	0.000052
C40	C	0.983539	-0.303382	-0.079785
C41	C	0.977157	-0.665757	0.079856
C42	C	0.976122	-0.725159	0.079853
C43	C	0.976129	-0.725135	-0.079823
C44	C	0.977170	-0.665732	-0.079819
C45	C	0.977680	-0.636043	0.000023
C46	C	0.985741	-0.178640	-0.079767
C47	C	0.986793	-0.119236	-0.079755
C48	C	0.986781	-0.119266	0.079921
C49	C	0.985734	-0.178665	0.079909
C50	C	0.985211	-0.208350	0.000058
O51	O	0.984095	-0.272651	0.147746
O52	O	0.984070	-0.272646	-0.147677
C53	C	1.133494	0.073620	0.000063
C54	C	1.225779	0.074731	0.000063
C55	C	0.974498	0.181924	0.000029
C56	C	0.975600	0.245147	0.000015
N57	N	0.981448	0.077798	0.228227
N58	N	0.981469	0.077798	-0.228122
C59	C	1.038318	0.039085	0.453963
C60	C	1.038321	0.039084	0.546152
C61	C	0.924593	0.116512	0.546136
C62	C	0.924587	0.116510	0.453948
C63	C	0.981454	0.077797	0.407864
C64	C	0.981463	0.077798	0.592242
C65	C	0.981465	0.077797	0.692198
C66	C	0.981451	0.077798	0.307901
H67	H	0.987229	-0.095049	-0.144771
N68	N	0.866499	0.156055	0.593201
N69	N	0.789663	0.155253	0.582910
H70	H	0.748632	0.183181	0.616148
N71	N	0.393813	0.076760	-0.161340
N72	N	0.432531	0.077228	-0.232616
H73	H	0.401263	0.076857	-0.290219
H74	H	0.560094	0.078750	-0.144800
H75	H	0.878277	0.148035	0.416412
N76	N	0.569119	0.078837	0.161427
N77	N	0.646538	0.079769	0.161414
H78	H	0.677829	0.080138	0.219003
H79	H	0.985312	-0.202803	-0.144789
N80	N	0.393833	0.076728	0.161456
N81	N	0.432554	0.077189	0.232733
H82	H	0.401289	0.076803	0.290336
N83	N	1.096405	-0.000456	0.593249
N84	N	1.147855	0.017619	0.644693
H85	H	1.188875	-0.010309	0.677959
H86	H	1.084622	0.007562	0.416443
H87	H	0.977575	-0.641588	0.144878
H88	H	0.980508	-0.476040	-0.224647
N89	N	0.982521	-0.362139	-0.241187
N90	N	0.982056	-0.388664	-0.312457
H91	H	0.982434	-0.367244	-0.370065
H92	H	0.977602	-0.641546	-0.144830
H93	H	0.975701	-0.749345	0.144865
N94	N	0.975613	-0.755477	-0.161370
N95	N	0.974687	-0.808515	-0.161353
H96	H	0.974327	-0.829948	-0.218941
H97	H	0.982338	-0.368334	0.224734
N98	N	0.980358	-0.482242	0.241279
N99	N	0.980817	-0.455715	0.312548
H100	H	0.980439	-0.477134	0.370158
N101	N	0.985182	-0.209009	0.161465
N102	N	0.926679	-0.197111	0.214909
H103	H	0.926280	-0.218537	0.272510
N104	N	0.987318	-0.088925	0.161461
N105	N	0.988251	-0.035887	0.161444
H106	H	0.988626	-0.014456	0.219032
