data_functionalizedCrystal
_audit_creation_method	'MofGen! by Chris Wilmer'
_symmetry_space_group_name_H-M	'P1'
_symmetry_Int_Tables_number	1
_symmetry_cell_setting	triclinic
loop_
_symmetry_equiv_pos_as_xyz
  x,y,z
_cell_length_a	9.065218
_cell_length_b	14.472310
_cell_length_c	9.065218
_cell_angle_alpha	89.999097
_cell_angle_beta	94.984081
_cell_angle_gamma	89.984749
loop_
_atom_site_label
_atom_site_type_symbol
_atom_site_fract_x
_atom_site_fract_y
_atom_site_fract_z
O1	O	-1.960421	0.076884	0.216348
O2	O	-1.460421	0.576884	0.716348
O3	O	-1.531136	0.076875	0.234094
O4	O	-1.031136	0.576875	0.734094
O5	O	-1.754651	0.076878	0.010579
O6	O	-1.254651	0.576878	0.510579
O7	O	-1.736905	0.076881	0.439864
O8	O	-1.236905	0.576881	0.939864
O9	O	-1.754593	-0.076804	0.010591
O10	O	-1.254593	0.423196	0.510591
O11	O	-1.531078	-0.076807	0.234107
O12	O	-1.031078	0.423193	0.734107
O13	O	-1.960363	-0.076798	0.216361
O14	O	-1.460363	0.423202	0.716361
Cu15	Cu	-1.745715	-0.090835	0.225235
Cu16	Cu	-1.245715	0.409165	0.725235
Cu17	Cu	-1.745784	0.090912	0.225220
Cu18	Cu	-1.245784	0.590912	0.725220
O19	O	-1.736847	-0.076801	0.439876
O20	O	-1.236847	0.423199	0.939876
C21	C	-1.476120	0.000033	0.232395
C22	C	-0.976120	0.500033	0.732395
C23	C	-1.312277	0.000030	0.227295
C24	C	-0.812277	0.500030	0.727295
N25	N	-1.745677	-0.218666	0.225244
N26	N	-1.245677	0.281334	0.725244
C27	C	-1.745781	-0.592757	0.225214
C28	C	-1.245781	-0.092757	0.725214
C29	C	-1.625771	-0.553592	0.344401
C30	C	-1.125771	-0.053592	0.844401
C31	C	-1.626057	-0.446504	0.344845
C32	C	-1.126057	0.053496	0.844845
C33	C	-1.745728	-0.407166	0.225229
C34	C	-1.245728	0.092834	0.725229
C35	C	-1.900138	-0.445999	0.260914
C36	C	-1.400138	0.054001	0.760914
C37	C	-1.899466	-0.553121	0.261764
C38	C	-1.399466	-0.053121	0.761764
C39	C	-1.712751	-0.553288	0.070003
C40	C	-1.212751	-0.053288	0.570003
C41	C	-1.709234	-0.446161	0.070988
C42	C	-1.209234	0.053839	0.570988
C43	C	-1.745708	-0.302278	0.225235
C44	C	-1.245708	0.197722	0.725235
C45	C	-1.745812	-0.697645	0.225212
C46	C	-1.245812	-0.197645	0.725212
C47	C	-1.015378	0.000041	0.218060
C48	C	-0.515378	0.500041	0.718060
C49	C	-1.179221	0.000033	0.223159
C50	C	-0.679221	0.500033	0.723159
C51	C	-1.752917	0.000038	-0.044402
C52	C	-1.252917	0.500038	0.455598
C53	C	-1.747817	0.000043	-0.208244
C54	C	-1.247817	0.500043	0.291756
N55	N	-1.745833	0.218743	0.225199
N56	N	-1.245833	0.718743	0.725199
C57	C	-1.738581	0.000041	0.494856
C58	C	-1.238581	0.500041	0.994856
C59	C	-1.743681	0.000043	0.658699
C60	C	-1.243681	0.500043	1.158699
H61	H	-1.511348	-0.420251	0.323281
H62	H	-1.011348	0.079749	0.823281
Cl63	Cl	-1.835194	-0.404837	-0.072613
Cl64	Cl	-1.335194	0.095163	0.427387
H65	H	-1.991668	-0.579026	0.178487
H66	H	-1.491668	-0.079026	0.678487
H67	H	-1.929565	-0.419160	0.372893
H68	H	-1.429565	0.080840	0.872893
H69	H	-1.800246	-0.578613	-0.018716
H70	H	-1.300246	-0.078613	0.481284
Cl71	Cl	-1.658246	-0.595115	0.521168
Cl72	Cl	-1.158246	-0.095115	1.021168
Cl73	Cl	-1.542484	-0.595050	0.017842
Cl74	Cl	-1.042484	-0.095050	0.517842
Cl75	Cl	-1.448090	-0.593388	0.311590
Cl76	Cl	-0.948090	-0.093388	0.811590
H77	H	-1.647364	-0.420869	0.459982
H78	H	-1.147364	0.079131	0.959982
Cl79	Cl	-1.533851	-0.406978	0.029244
Cl80	Cl	-1.033851	0.093022	0.529244
H81	H	-1.928258	-0.578095	0.375021
H82	H	-1.428258	-0.078095	0.875021
H83	H	-1.991661	-0.420515	0.176499
H84	H	-1.491661	0.079485	0.676499
