data_functionalizedCrystal
_audit_creation_method	'MofGen! by Chris Wilmer'
_symmetry_space_group_name_H-M	'P1'
_symmetry_Int_Tables_number	1
_symmetry_cell_setting	triclinic
loop_
_symmetry_equiv_pos_as_xyz
  x,y,z
_cell_length_a	10.723022
_cell_length_b	10.723023
_cell_length_c	14.586319
_cell_angle_alpha	89.997215
_cell_angle_beta	89.996795
_cell_angle_gamma	84.467387
loop_
_atom_site_label
_atom_site_type_symbol
_atom_site_fract_x
_atom_site_fract_y
_atom_site_fract_z
O1	O	1.657188	0.175016	-0.076232
O2	O	2.157188	0.675016	0.423768
O3	O	1.294035	0.191772	-0.076235
O4	O	1.794035	0.691772	0.423765
O5	O	1.483988	0.001818	-0.076230
O6	O	1.983988	0.501818	0.423770
O7	O	1.467234	0.364970	-0.076238
O8	O	1.967234	0.864970	0.423762
O9	O	1.483975	0.001815	0.076251
O10	O	1.983975	0.501815	0.576251
O11	O	1.294022	0.191769	0.076246
O12	O	1.794022	0.691769	0.576246
O13	O	1.657174	0.175013	0.076249
O14	O	2.157174	0.675013	0.576249
Cu15	Cu	1.475597	0.183391	0.090170
Cu16	Cu	1.975597	0.683391	0.590170
Cu17	Cu	1.475612	0.183394	-0.090156
Cu18	Cu	1.975612	0.683394	0.409844
O19	O	1.467221	0.364967	0.076243
O20	O	1.967221	0.864967	0.576243
C21	C	1.247529	0.190551	0.000005
C22	C	1.747529	0.690551	0.500005
C23	C	1.108974	0.186904	0.000004
C24	C	1.608974	0.686904	0.500004
C25	C	1.060414	0.077365	0.000006
C26	C	1.560414	0.577365	0.500006
C27	C	0.917211	0.073593	0.000004
C28	C	1.417211	0.573593	0.500004
C29	C	1.482763	-0.044683	0.000010
C30	C	1.982763	0.455317	0.500010
C31	C	1.479115	-0.183238	0.000007
C32	C	1.979115	0.316762	0.500007
C33	C	1.477496	-0.245002	-0.078984
C34	C	1.977496	0.254998	0.421016
C35	C	1.473727	-0.388205	-0.078989
C36	C	1.973727	0.111795	0.421011
C37	C	1.703681	0.176234	0.000007
C38	C	2.203681	0.676234	0.500007
C39	C	1.842235	0.179881	0.000002
C40	C	2.342235	0.679881	0.500002
C41	C	1.468446	0.411469	0.000002
C42	C	1.968446	0.911469	0.500002
C43	C	1.472094	0.550023	-0.000001
C44	C	1.972094	1.050023	0.499999
N45	N	1.475595	0.183388	0.217002
N46	N	1.975595	0.683388	0.717002
N47	N	1.475624	0.183388	-0.216988
N48	N	1.975624	0.683388	0.283012
C49	C	1.559734	0.099305	0.452010
C50	C	2.059734	0.599305	0.952010
C51	C	1.559738	0.099302	0.547992
C52	C	2.059738	0.599302	1.047992
C53	C	1.391475	0.267475	0.547996
C54	C	1.891475	0.767475	1.047996
C55	C	1.391467	0.267471	0.452017
C56	C	1.891467	0.767471	0.952017
C57	C	1.475603	0.183387	0.404026
C58	C	1.975603	0.683387	0.904026
C59	C	1.475616	0.183388	0.595987
C60	C	1.975616	0.683388	1.095987
C61	C	1.475619	0.183386	0.700054
C62	C	1.975619	0.683386	1.200054
C63	C	1.475599	0.183388	0.299953
C64	C	1.975599	0.683388	0.799953
H65	H	0.884038	0.273673	0.000005
H66	H	1.384038	0.773673	0.500005
H67	H	1.322951	0.335941	0.412946
H68	H	1.822951	0.835941	0.912946
H69	H	1.628242	0.030837	0.412939
H70	H	2.128242	0.530837	0.912939
H71	H	0.875399	-0.020195	-0.000017
H72	H	1.375399	0.479805	0.499983
H73	H	1.322975	0.335935	0.587080
H74	H	1.822975	0.835935	1.087080
C75	C	1.021935	0.309831	-0.000004
C76	C	1.521935	0.809831	0.499996
H77	H	1.070971	0.379045	-0.000012
H78	H	1.570971	0.879045	0.499988
H79	H	0.970564	0.313152	0.053166
H80	H	1.470564	0.813152	0.553166
H81	H	0.970586	0.313145	-0.053187
H82	H	1.470586	0.813145	0.446813
H83	H	1.477703	-0.236375	0.067630
H84	H	1.977703	0.263625	0.567630
C85	C	1.652287	0.006816	0.600770
C86	C	2.152287	0.506816	1.100770
H87	H	1.702396	-0.043251	0.558439
H88	H	2.202396	0.456749	1.058439
H89	H	1.606963	-0.045544	0.638219
H90	H	2.106963	0.454456	1.138219
H91	H	1.704620	0.052192	0.638204
H92	H	2.204620	0.552192	1.138204
H93	H	1.124856	-0.013624	0.000003
H94	H	1.624856	0.486376	0.500003
H95	H	1.472340	-0.441321	-0.146616
H96	H	1.972340	0.058679	0.353384
H97	H	1.473492	-0.396870	0.067629
H98	H	1.973492	0.103130	0.567629
C99	C	1.479396	-0.173228	-0.170341
C100	C	1.979396	0.326772	0.329659
H101	H	1.481689	-0.086396	-0.158353
H102	H	1.981689	0.413604	0.341647
H103	H	1.406197	-0.185607	-0.204518
H104	H	1.906197	0.314393	0.295482
H105	H	1.551495	-0.203394	-0.204510
H106	H	2.051495	0.296606	0.295490
