data_functionalizedCrystal
_audit_creation_method	'MofGen! by Chris Wilmer'
_symmetry_space_group_name_H-M	'P1'
_symmetry_Int_Tables_number	1
_symmetry_cell_setting	triclinic
loop_
_symmetry_equiv_pos_as_xyz
  x,y,z
_cell_length_a	14.853566
_cell_length_b	14.853567
_cell_length_c	13.930277
_cell_angle_alpha	90.000757
_cell_angle_beta	89.995631
_cell_angle_gamma	96.365328
loop_
_atom_site_label
_atom_site_type_symbol
_atom_site_fract_x
_atom_site_fract_y
_atom_site_fract_z
O1	O	1.196369	-0.117698	-0.079759
O2	O	0.933909	-0.131721	-0.079774
O3	O	1.072150	0.006520	-0.079769
O4	O	1.058129	-0.255939	-0.079764
O5	O	1.072131	0.006523	0.079893
O6	O	0.933890	-0.131718	0.079888
O7	O	1.196350	-0.117695	0.079903
Zn8	Zn	1.065117	-0.124706	0.105245
Zn9	Zn	1.065142	-0.124710	-0.105116
O10	O	1.058109	-0.255936	0.079898
C11	C	0.900311	-0.131084	0.000055
C12	C	0.800227	-0.129181	0.000049
C13	C	0.377053	-0.121132	-0.086966
C14	C	0.377053	-0.121129	0.087103
C15	C	0.471087	-0.122916	0.087101
C16	C	0.518108	-0.123813	0.000063
C17	C	0.471095	-0.122922	-0.086972
C18	C	0.518106	-0.123817	0.174134
C19	C	0.612146	-0.125605	0.174134
C20	C	0.659170	-0.126495	0.087095
C21	C	0.612151	-0.125603	0.000057
C22	C	0.659172	-0.126499	-0.086980
C23	C	0.612156	-0.125601	-0.174019
C24	C	0.518119	-0.123812	-0.174010
C25	C	0.753206	-0.128284	0.087086
C26	C	0.753214	-0.128290	-0.086986
C27	C	1.071505	0.040111	0.000059
C28	C	1.069601	0.140194	0.000051
C29	C	1.229948	-0.118332	0.000072
C30	C	1.330032	-0.120235	0.000071
C31	C	1.058754	-0.289526	0.000068
C32	C	1.060658	-0.389610	0.000070
N33	N	1.065106	-0.124703	0.248811
C34	C	0.979435	0.552728	0.000064
C35	C	1.143668	0.574009	0.000073
C36	C	1.145458	0.479976	0.000067
C37	C	1.064236	0.422313	0.000061
C38	C	0.981223	0.458685	0.000061
C39	C	1.228470	0.443597	0.000078
C40	C	1.230263	0.349558	0.000073
C41	C	1.149040	0.291894	0.000060
C42	C	1.066023	0.328271	0.000059
C43	C	0.984801	0.270608	0.000053
C44	C	0.901784	0.306984	0.000045
C45	C	0.899999	0.401021	0.000048
C46	C	1.150824	0.197856	0.000057
C47	C	0.986588	0.176566	0.000050
N48	N	1.065160	-0.124706	-0.248682
C49	C	1.003927	-0.185899	0.701078
C50	C	1.126382	-0.063514	0.701052
C51	C	1.126372	-0.063511	0.600556
C52	C	1.065139	-0.124704	0.550317
C53	C	1.003916	-0.185900	0.600573
C54	C	1.187599	-0.002322	0.550292
C55	C	1.187592	-0.002318	0.449791
C56	C	1.126353	-0.063507	0.399549
C57	C	1.065128	-0.124705	0.449812
C58	C	1.003895	-0.185898	0.399572
C59	C	0.942664	-0.247092	0.449833
C60	C	0.942678	-0.247089	0.550332
C61	C	1.126339	-0.063510	0.299050
C62	C	1.003884	-0.185899	0.299067
H63	H	0.479814	-0.123093	0.244995
H64	H	0.650419	-0.126335	0.245007
H65	H	0.920446	0.129622	0.000041
H66	H	1.209796	0.620963	0.000086
N67	N	0.803916	-0.129263	0.180951
H68	H	0.759859	-0.128429	0.236089
H69	H	0.850171	-0.074161	0.184746
H70	H	1.297861	0.319950	0.000079
N71	N	1.192378	0.002477	0.244840
H72	H	1.231174	0.041238	0.291916
H73	H	1.157817	0.042401	0.203151
H74	H	1.176241	-0.013696	0.741960
H75	H	0.954017	-0.235726	0.258169
H76	H	1.294597	0.490552	0.000091
H77	H	0.954071	-0.235720	0.742003
N78	N	0.810471	0.440260	0.000051
H79	H	0.774876	0.419238	0.059236
H80	H	0.774957	0.419240	-0.059177
N81	N	0.814181	0.244788	0.000063
H82	H	0.827917	0.179698	0.000072
H83	H	0.778005	0.256562	-0.059124
N84	N	0.326345	-0.120155	0.180976
H85	H	0.370553	-0.119758	0.236100
H86	H	0.280934	-0.175881	0.185344
N87	N	1.253624	0.063691	0.395593
H88	H	1.219120	0.103673	0.353908
H89	H	1.293563	0.029108	0.353938
H90	H	0.892827	-0.296912	0.591260
H91	H	0.911845	0.582349	0.000053
H92	H	0.791493	-0.129017	-0.157863
H93	H	1.218415	0.168244	0.000070
H94	H	1.237458	0.047495	0.591201
H95	H	0.892811	-0.296920	0.408917
H96	H	0.650452	-0.126337	-0.244885
H97	H	0.338769	-0.120396	-0.157831
N98	N	0.467411	-0.122840	-0.267881
H99	H	0.400704	-0.121574	-0.254668
H100	H	0.476610	-0.178996	-0.305891
