data_functionalizedCrystal
_audit_creation_method	'MofGen! by Chris Wilmer'
_symmetry_space_group_name_H-M	'P1'
_symmetry_Int_Tables_number	1
_symmetry_cell_setting	triclinic
loop_
_symmetry_equiv_pos_as_xyz
  x,y,z
_cell_length_a	25.427154
_cell_length_b	25.426324
_cell_length_c	25.422586
_cell_angle_alpha	60.006367
_cell_angle_beta	60.012446
_cell_angle_gamma	59.992398
loop_
_atom_site_label
_atom_site_type_symbol
_atom_site_fract_x
_atom_site_fract_y
_atom_site_fract_z
O1	O	0.072968	-0.768436	0.642532
O2	O	0.572968	-0.268436	1.142532
O3	O	0.027520	-0.598284	0.517710
O4	O	0.527520	-0.098284	1.017710
O5	O	0.135268	-0.705940	0.517611
O6	O	0.635268	-0.205940	1.017611
O7	O	-0.034780	-0.660780	0.642632
O8	O	0.465220	-0.160780	1.142632
O9	O	0.171018	-0.670200	0.553260
O10	O	0.671018	-0.170200	1.053260
O11	O	0.063270	-0.562544	0.553360
O12	O	0.563270	-0.062544	1.053360
O13	O	0.108718	-0.732696	0.678182
O14	O	0.608718	-0.232696	1.178182
Zn15	Zn	0.091670	-0.641945	0.621431
Zn16	Zn	0.591670	-0.141945	1.121431
Zn17	Zn	0.044568	-0.689034	0.574461
Zn18	Zn	0.544568	-0.189034	1.074461
O19	O	0.000970	-0.625039	0.678281
O20	O	0.500970	-0.125039	1.178281
N21	N	0.123818	-0.609812	0.653490
N22	N	0.623818	-0.109812	1.153490
N23	N	0.012426	-0.721173	0.542402
N24	N	0.512426	-0.221173	1.042402
C25	C	0.168482	-0.466269	0.698103
C26	C	0.668482	0.033731	1.198103
C27	C	0.168494	-0.565177	0.698095
C28	C	0.668494	-0.065177	1.198095
C29	C	0.193243	-0.540453	0.722807
C30	C	0.693243	-0.040453	1.222807
C31	C	0.301113	-0.521853	0.665993
C32	C	0.801113	-0.021853	1.165993
C33	C	0.368545	-0.544324	0.643486
C34	C	0.868545	-0.044324	1.143486
C35	C	0.368579	-0.653434	0.685090
C36	C	0.868579	-0.153434	1.185090
C37	C	0.301149	-0.630961	0.707599
C38	C	0.801149	-0.130961	1.207599
C39	C	0.184722	-0.432539	0.631812
C40	C	0.684722	0.067461	1.131812
C41	C	0.162210	-0.365100	0.609357
C42	C	0.662210	0.134900	1.109357
C43	C	0.107225	-0.365129	0.719489
C44	C	0.607225	0.134871	1.219489
C45	C	0.129737	-0.432567	0.741943
C46	C	0.629737	0.067433	1.241943
C47	C	0.102194	-0.548896	0.714421
C48	C	0.602194	-0.048896	1.214421
C49	C	0.079702	-0.571372	0.691949
C50	C	0.579702	-0.071372	1.191949
C51	C	0.189805	-0.626409	0.636839
C52	C	0.689805	-0.126409	1.136839
C53	C	0.212300	-0.603934	0.659303
C54	C	0.712300	-0.103934	1.159303
C55	C	0.102289	-0.548918	0.830735
C56	C	0.602289	-0.048918	1.330735
C57	C	0.079866	-0.571415	0.898171
C58	C	0.579866	-0.071415	1.398171
C59	C	0.190015	-0.626466	0.898104
C60	C	0.690015	-0.126466	1.398104
C61	C	0.212437	-0.603971	0.830666
C62	C	0.712437	-0.103971	1.330666
C63	C	0.168573	-0.565195	0.796984
C64	C	0.668573	-0.065195	1.296984
C65	C	0.267418	-0.565170	0.698047
C66	C	0.767418	-0.065170	1.198047
C67	C	-0.130981	-0.765617	0.497386
C68	C	0.369019	-0.265617	0.997386
C69	C	-0.032127	-0.765741	0.497606
C70	C	0.467873	-0.265741	0.997606
C71	C	-0.056804	-0.790430	0.472789
C72	C	0.443196	-0.290430	0.972789
C73	C	-0.075480	-0.898263	0.529507
C74	C	0.424520	-0.398263	1.029507
C75	C	-0.053057	-0.965702	0.552014
C76	C	0.446943	-0.465702	1.052014
C77	C	0.056052	-0.965829	0.510599
C78	C	0.556052	-0.465829	1.010599
C79	C	0.033627	-0.898392	0.488091
C80	C	0.533627	-0.398392	0.988091
C81	C	-0.164787	-0.781859	0.563659
C82	C	0.335213	-0.281859	1.063659
C83	C	-0.232219	-0.759299	0.586018
C84	C	0.267781	-0.259299	1.086018
C85	C	-0.232034	-0.704261	0.475827
C86	C	0.267966	-0.204261	0.975827
C87	C	-0.164602	-0.726821	0.453469
C88	C	0.335398	-0.226821	0.953469
C89	C	-0.048372	-0.699446	0.481299
C90	C	0.451628	-0.199446	0.981299
C91	C	-0.025938	-0.677008	0.503867
C92	C	0.474062	-0.177008	1.003867
C93	C	0.028987	-0.787155	0.559036
C94	C	0.528987	-0.287155	1.059036
C95	C	0.006552	-0.809596	0.536475
C96	C	0.506552	-0.309596	1.036475
C97	C	-0.048188	-0.699454	0.364860
C98	C	0.451812	-0.199454	0.864860
C99	C	-0.025608	-0.677017	0.297425
C100	C	0.474392	-0.177017	0.797425
C101	C	0.029406	-0.787170	0.297492
C102	C	0.529406	-0.287170	0.797492
C103	C	0.006827	-0.809605	0.364929
C104	C	0.506827	-0.309605	0.864929
C105	C	-0.031972	-0.765745	0.398611
C106	C	0.468028	-0.265745	0.898611
C107	C	-0.032140	-0.864611	0.497548
C108	C	0.467860	-0.364611	0.997548
N109	N	0.401319	-0.609788	0.653344
N110	N	0.901319	-0.109788	1.153344
O111	O	0.621664	-0.620517	0.494685
O112	O	1.121664	-0.120517	0.994685
O113	O	0.621901	-0.745740	0.664659
O114	O	1.121901	-0.245740	1.164659
O115	O	0.621803	-0.745452	0.556857
O116	O	1.121803	-0.245452	1.056857
O117	O	0.621762	-0.620805	0.602487
O118	O	1.121762	-0.120805	1.102487
O119	O	0.514676	-0.709815	0.592658
O120	O	1.014676	-0.209815	1.092658
O121	O	0.514774	-0.710104	0.700460
O122	O	1.014774	-0.210104	1.200460
O123	O	0.514537	-0.584881	0.530485
O124	O	1.014537	-0.084881	1.030485
Zn125	Zn	0.497647	-0.641834	0.621157
Zn126	Zn	0.997647	-0.141834	1.121157
Zn127	Zn	0.638791	-0.688787	0.573988
Zn128	Zn	1.138791	-0.188787	1.073988
O129	O	0.514635	-0.585169	0.638287
O130	O	1.014635	-0.085169	1.138287
N131	N	0.735119	-0.720834	0.541794
N132	N	1.235119	-0.220834	1.041794
N133	N	0.123794	-0.332357	0.653504
N134	N	0.623794	0.167643	1.153504
O135	O	-0.034774	-0.111885	0.642639
O136	O	0.465226	0.388115	1.142639
O137	O	0.135202	-0.111860	0.517412
O138	O	0.635202	0.388140	1.017412
O139	O	0.027364	-0.111888	0.517742
O140	O	0.527364	0.388112	1.017742
O141	O	0.073064	-0.111857	0.642310
O142	O	0.573064	0.388143	1.142310
O143	O	0.063120	-0.219026	0.553444
O144	O	0.563120	0.280974	1.053444
O145	O	0.170958	-0.218998	0.553115
O146	O	0.670958	0.281002	1.053115
O147	O	0.000983	-0.219022	0.678342
O148	O	0.500983	0.280978	1.178342
Zn149	Zn	0.091647	-0.236020	0.621397
Zn150	Zn	0.591647	0.263980	1.121397
Zn151	Zn	0.044537	-0.094862	0.574357
Zn152	Zn	0.544537	0.405138	1.074357
O153	O	0.108821	-0.218994	0.678013
O154	O	0.608821	0.281006	1.178013
N155	N	0.012383	0.001474	0.542251
N156	N	0.512383	0.501474	1.042251
N157	N	0.124036	-0.609854	0.930891
N158	N	0.624036	-0.109854	1.430891
O159	O	0.113202	-0.768401	1.151342
O160	O	0.613202	-0.268401	1.651342
O161	O	-0.011992	-0.598359	1.151385
O162	O	0.488008	-0.098359	1.651385
O163	O	-0.011700	-0.706176	1.151343
O164	O	0.488300	-0.206176	1.651343
O165	O	0.112910	-0.660584	1.151384
O166	O	0.612910	-0.160584	1.651384
O167	O	0.023980	-0.670446	1.044212
O168	O	0.523980	-0.170446	1.544212
O169	O	0.023689	-0.562630	1.044253
O170	O	0.523689	-0.062630	1.544253
O171	O	0.148882	-0.732671	1.044211
O172	O	0.648882	-0.232671	1.544211
Zn173	Zn	0.091951	-0.641977	1.027223
Zn174	Zn	0.591951	-0.141977	1.527223
Zn175	Zn	0.044940	-0.689053	1.168373
Zn176	Zn	0.544940	-0.189053	1.668373
O177	O	0.148590	-0.624854	1.044252
O178	O	0.648590	-0.124854	1.544252
N179	N	0.012853	-0.721183	1.264704
N180	N	0.512853	-0.221183	1.764704
C181	C	0.041135	-0.558973	0.518338
C182	C	0.541135	-0.058973	1.018338
C183	C	0.174567	-0.692292	0.518215
C184	C	0.674567	-0.192292	1.018215
C185	C	0.095103	-0.772007	0.677553
C186	C	0.595103	-0.272007	1.177553
C187	C	-0.038330	-0.638687	0.677677
C188	C	0.461670	-0.138687	1.177677
C189	C	0.568366	-0.745166	0.703974
C190	C	1.068366	-0.245166	1.203974
C191	C	0.568246	-0.744810	0.570474
C192	C	1.068246	-0.244810	1.070474
C193	C	0.568069	-0.585454	0.491172
C194	C	1.068069	-0.085454	0.991172
C195	C	0.568192	-0.585812	0.624671
C196	C	1.068192	-0.085812	1.124671
C197	C	0.174449	-0.165294	0.517975
C198	C	0.674449	0.334706	1.017975
C199	C	0.040949	-0.165460	0.518427
C200	C	0.540949	0.334540	1.018427
C201	C	-0.038309	-0.165456	0.677735
C202	C	0.461691	0.334544	1.177735
C203	C	0.095236	-0.165423	0.677328
C204	C	0.595236	0.334577	1.177328
C205	C	-0.011393	-0.559072	1.097824
C206	C	0.488607	-0.059072	1.597824
C207	C	-0.011024	-0.692583	1.097752
C208	C	0.488976	-0.192583	1.597752
C209	C	0.148283	-0.771958	1.097772
C210	C	0.648283	-0.271958	1.597772
C211	C	0.147922	-0.638440	1.097820
C212	C	0.647922	-0.138440	1.597820
H213	H	0.025889	-0.558152	0.925643
H214	H	0.525889	-0.058152	1.425643
H215	H	0.568183	-0.546658	0.634434
H216	H	1.068183	-0.046658	1.134434
H217	H	0.567992	-0.546139	0.442358
H218	H	1.067992	-0.046139	0.942358
H219	H	0.066565	-0.517338	0.803314
H220	H	0.566565	-0.017338	1.303314
H221	H	0.104814	-0.820885	0.716757
H222	H	0.604814	-0.320885	1.216757
H223	H	0.187070	-0.628684	1.097824
H224	H	0.687070	-0.128684	1.597824
O225	O	-0.096592	-0.165423	0.724555
O226	O	0.403408	0.334577	1.224555
C227	C	-0.136696	-0.165449	0.701392
C228	C	0.363304	0.334551	1.201392
H229	H	-0.119275	-0.145178	0.646523
H230	H	0.380725	0.354822	1.146523
H231	H	-0.188292	-0.134338	0.721143
H232	H	0.311708	0.365662	1.221143
H233	H	-0.134953	-0.216849	0.717782
H234	H	0.365047	0.283151	1.217782
O235	O	0.177899	-0.332230	0.544979
O236	O	0.677899	0.167770	1.044979
C237	C	0.149738	-0.265481	0.534560
C238	C	0.649738	0.234519	1.034560
H239	H	0.106473	-0.256286	0.578826
H240	H	0.606473	0.243714	1.078826
H241	H	0.133341	-0.239842	0.490869
H242	H	0.633341	0.260158	0.990869
H243	H	0.186625	-0.246339	0.525559
H244	H	0.686625	0.253661	1.025559
H245	H	-0.088349	-0.993100	0.578027
H246	H	0.411651	-0.493100	1.078027
O247	O	0.568179	-0.791548	0.558934
O248	O	1.068179	-0.291548	1.058934
C249	C	0.512734	-0.808914	0.603110
C250	C	1.012734	-0.308914	1.103110
H251	H	0.494268	-0.796089	0.647763
H252	H	0.994268	-0.296089	1.147763
H253	H	0.525260	-0.862957	0.617495
H254	H	1.025260	-0.362957	1.117495
H255	H	0.473841	-0.781740	0.579797
H256	H	0.973841	-0.281740	1.079797
O257	O	-0.058365	-0.500867	1.097922
O258	O	0.441635	-0.000867	1.597922
C259	C	-0.112623	-0.509354	1.153412
C260	C	0.387377	-0.009354	1.653412
H261	H	-0.111890	-0.560754	1.171896
H262	H	0.388110	-0.060754	1.671896
H263	H	-0.158380	-0.474051	1.140935
H264	H	0.341620	0.025949	1.640935
H265	H	-0.111477	-0.500118	1.192274
H266	H	0.388523	-0.000118	1.692274
O267	O	0.232588	-0.164899	0.471014
O268	O	0.732588	0.335101	0.971014
C269	C	0.272661	-0.164779	0.494145
C270	C	0.772661	0.335221	0.994145
H271	H	0.241683	-0.144708	0.535647
H272	H	0.741683	0.355292	1.035647
H273	H	0.303264	-0.133422	0.453694
H274	H	0.803264	0.366578	0.953694
H275	H	0.305440	-0.216108	0.511799
H276	H	0.805440	0.283892	1.011799
O277	O	0.107026	-0.165453	0.723961
O278	O	0.607026	0.334547	1.223961
C279	C	0.170339	-0.165429	0.700475
C280	C	0.670339	0.334571	1.200475
H281	H	0.200792	-0.185703	0.659118
H282	H	0.700792	0.314297	1.159118
H283	H	0.192043	-0.196538	0.740805
H284	H	0.692043	0.303462	1.240805
H285	H	0.169378	-0.114029	0.682513
H286	H	0.669378	0.385971	1.182513
O287	O	0.195198	-0.830220	1.097842
O288	O	0.695198	-0.330220	1.597842
C289	C	0.212493	-0.858750	1.153337
C290	C	0.712493	-0.358750	1.653337
H291	H	0.199438	-0.819691	1.171854
H292	H	0.699438	-0.319691	1.671854
H293	H	0.266561	-0.885730	1.140855
H294	H	0.766561	-0.385730	1.640855
H295	H	0.185465	-0.893899	1.192177
H296	H	0.685465	-0.393899	1.692177
H297	H	0.396045	-0.707006	0.692856
H298	H	0.896045	-0.207006	1.192856
H299	H	0.031160	-0.165463	0.479291
H300	H	0.531160	0.334537	0.979291
H301	H	-0.087172	-0.629063	0.716934
H302	H	0.412828	-0.129063	1.216934
H303	H	-0.050155	-0.702322	1.097697
H304	H	0.449845	-0.202322	1.597697
H305	H	0.266414	-0.617231	0.803190
H306	H	0.766414	-0.117231	1.303190
O307	O	0.232713	-0.664138	0.930718
O308	O	0.732713	-0.164138	1.430718
C309	C	0.296024	-0.673659	0.886464
C310	C	0.796024	-0.173659	1.386464
H311	H	0.295863	-0.666119	0.838405
H312	H	0.795863	-0.166119	1.338405
H313	H	0.328073	-0.724802	0.905920
H314	H	0.828073	-0.224802	1.405920
H315	H	0.315332	-0.637757	0.879282
H316	H	0.815332	-0.137757	1.379282
O317	O	0.568559	-0.792085	0.762183
O318	O	1.068559	-0.292085	1.262183
C319	C	0.624055	-0.806999	0.773710
C320	C	1.124055	-0.306999	1.273710
H321	H	0.662787	-0.792709	0.725881
H322	H	1.162787	-0.292709	1.225881
H323	H	0.642736	-0.860941	0.799720
H324	H	1.142736	-0.360941	1.299720
H325	H	0.611518	-0.779408	0.804847
H326	H	1.111518	-0.279408	1.304847
O327	O	0.059615	-0.511155	0.752002
O328	O	0.559615	-0.011155	1.252002
C329	C	0.020580	-0.454600	0.717986
C330	C	0.520580	0.045400	1.217986
H331	H	0.046583	-0.445210	0.664031
H332	H	0.546583	0.054790	1.164031
H333	H	0.010386	-0.412126	0.730059
H334	H	0.510386	0.087874	1.230059
H335	H	-0.026794	-0.460732	0.732362
H336	H	0.473206	0.039268	1.232362
O337	O	0.015293	-0.555642	0.707916
O338	O	0.515293	-0.055642	1.207916
C339	C	-0.012660	-0.578714	0.775463
C340	C	0.487340	-0.078714	1.275463
H341	H	0.025768	-0.620303	0.797169
H342	H	0.525768	-0.120303	1.297169
H343	H	-0.052404	-0.596232	0.788387
H344	H	0.447596	-0.096232	1.288387
H345	H	-0.033947	-0.538266	0.795451
H346	H	0.466053	-0.038266	1.295451
H347	H	-0.137077	-0.713589	0.399501
H348	H	0.362923	-0.213589	0.899501
H349	H	0.266286	-0.617183	0.646003
H350	H	0.766286	-0.117183	1.146003
O351	O	0.232446	-0.664030	0.599146
O352	O	0.732446	-0.164030	1.099146
C353	C	0.295785	-0.673593	0.589576
C354	C	0.795785	-0.173593	1.089576
H355	H	0.295665	-0.632939	0.597115
H356	H	0.795665	-0.132939	1.097115
H357	H	0.327770	-0.673935	0.538424
H358	H	0.827770	-0.173935	1.038424
H359	H	0.315140	-0.721638	0.625450
H360	H	0.815140	-0.221638	1.125450
O361	O	0.232782	-0.703778	0.471317
O362	O	0.732782	-0.203778	0.971317
C363	C	0.224303	-0.696543	0.417045
C364	C	0.724303	-0.196543	0.917045
H365	H	0.177115	-0.703624	0.432563
H366	H	0.677115	-0.203624	0.932563
H367	H	0.266066	-0.733970	0.394060
H368	H	0.766066	-0.233970	0.894060
H369	H	0.222870	-0.646187	0.380629
H370	H	0.722870	-0.146187	0.880629
H371	H	0.273715	-0.666239	0.733700
H372	H	0.773715	-0.166239	1.233700
O373	O	0.029602	-0.500719	0.471485
O374	O	0.529602	-0.000719	0.971485
C375	C	0.036748	-0.509124	0.417210
C376	C	0.536748	-0.009124	0.917210
H377	H	0.069018	-0.560478	0.417799
H378	H	0.569018	-0.060478	0.917799
H379	H	0.059520	-0.473721	0.371464
H380	H	0.559520	0.026279	0.871464
H381	H	-0.012514	-0.499969	0.418479
H382	H	0.487486	0.000031	0.918479
O383	O	0.401178	-0.502156	0.612336
O384	O	0.901178	-0.002156	1.112336
C385	C	0.356946	-0.439270	0.608745
C386	C	0.856946	0.060730	1.108745
H387	H	0.308870	-0.436645	0.613185
H388	H	0.808870	0.063355	1.113185
H389	H	0.376398	-0.403628	0.560547
H390	H	0.876398	0.096372	1.060547
H391	H	0.349803	-0.426684	0.649599
H392	H	0.849803	0.073316	1.149599
O393	O	-0.085838	-0.656758	0.397479
O394	O	0.414162	-0.156758	0.897479
C395	C	-0.095320	-0.593435	0.353229
C396	C	0.404680	-0.093435	0.853229
H397	H	-0.054617	-0.593611	0.305203
H398	H	0.445383	-0.093611	0.805203
H399	H	-0.095683	-0.561433	0.372740
H400	H	0.404317	-0.061433	0.872740
H401	H	-0.143326	-0.574055	0.345964
H402	H	0.356674	-0.074055	0.845964
O403	O	0.222325	-0.465179	0.589141
O404	O	0.722325	0.034821	1.089141
C405	C	0.231836	-0.420944	0.525813
C406	C	0.731836	0.079056	1.025813
H407	H	0.191168	-0.372878	0.525960
H408	H	0.691168	0.127122	1.025960
H409	H	0.232161	-0.440422	0.493805
H410	H	0.732161	0.059578	0.993805
H411	H	0.279868	-0.413762	0.506466
H412	H	0.779868	0.086238	1.006466
O413	O	0.069577	-0.332485	0.762160
O414	O	0.569577	0.167515	1.262160
C415	C	0.060097	-0.376719	0.825489
C416	C	0.560097	0.123281	1.325489
H417	H	0.067637	-0.424791	0.825368
H418	H	0.567637	0.075209	1.325368
H419	H	0.008969	-0.357248	0.857532
H420	H	0.508969	0.142752	1.357532
H421	H	0.096016	-0.383885	0.844776
H422	H	0.596016	0.116115	1.344776
O423	O	0.114077	-0.465409	0.806328
O424	O	0.614077	0.034591	1.306328
C425	C	0.170761	-0.504401	0.822595
C426	C	0.670761	-0.004401	1.322595
H427	H	0.213110	-0.514487	0.778141
H428	H	0.713110	-0.014487	1.278141
H429	H	0.164764	-0.551832	0.861694
H430	H	0.664764	-0.051832	1.361694
H431	H	0.180244	-0.478416	0.841103
H432	H	0.680244	0.021584	1.341103
O433	O	-0.041403	-0.612631	0.264576
O434	O	0.458597	-0.112631	0.764576
C435	C	-0.075284	-0.596308	0.225484
C436	C	0.424716	-0.096308	0.725484
H437	H	-0.063105	-0.640748	0.215374
H438	H	0.436895	-0.140748	0.715374
H439	H	-0.060876	-0.557227	0.178074
H440	H	0.439124	-0.057227	0.678074
H441	H	-0.129266	-0.577748	0.251391
H442	H	0.370734	-0.077748	0.751391
H443	H	0.060986	-0.822887	0.270075
H444	H	0.560986	-0.322887	0.770075
O445	O	0.022617	-0.874026	0.397613
O446	O	0.522617	-0.374026	0.897613
C447	C	0.061711	-0.907922	0.353421
C448	C	0.561711	-0.407922	0.853421
H449	H	0.053191	-0.875760	0.305305
H450	H	0.553191	-0.375760	0.805305
H451	H	0.049041	-0.952891	0.372870
H452	H	0.549041	-0.452891	0.872870
H453	H	0.114514	-0.922525	0.346354
H454	H	0.614514	-0.422525	0.846354
H455	H	0.273654	-0.468282	0.658214
H456	H	0.773654	0.031718	1.158214
O457	O	-0.041736	-0.612588	0.487931
O458	O	0.458264	-0.112588	0.987931
C459	C	-0.080689	-0.578690	0.448789
C460	C	0.419311	-0.078690	0.948789
H461	H	-0.072065	-0.610860	0.424267
H462	H	0.427935	-0.110860	0.924267
H463	H	-0.067967	-0.533735	0.410641
H464	H	0.432033	-0.033735	0.910641
H465	H	-0.133530	-0.564063	0.479805
H466	H	0.366470	-0.064063	0.979805
O467	O	0.066532	-0.829845	0.596804
O468	O	0.566532	-0.329845	1.096804
C469	C	0.076072	-0.893168	0.606337
C470	C	0.576072	-0.393168	1.106337
H471	H	0.035450	-0.892996	0.598703
H472	H	0.535450	-0.392996	1.098703
H473	H	0.076340	-0.925174	0.657510
H474	H	0.576340	-0.425174	1.157510
H475	H	0.124140	-0.912540	0.570507
H476	H	0.624140	-0.412540	1.070507
O477	O	0.022240	-0.873985	0.552345
O478	O	0.522240	-0.373985	1.052345
C479	C	-0.034428	-0.890231	0.586156
C480	C	0.465572	-0.390231	1.086156
H481	H	-0.074959	-0.852214	0.608974
H482	H	0.425041	-0.352214	1.108974
H483	H	-0.025589	-0.939202	0.625445
H484	H	0.474411	-0.439202	1.125445
H485	H	-0.048558	-0.892414	0.551392
H486	H	0.451442	-0.392414	1.051392
O487	O	-0.086027	-0.656904	0.443619
O488	O	0.413973	-0.156904	0.943619
C489	C	-0.146003	-0.666526	0.474173
C490	C	0.353997	-0.166526	0.974173
H491	H	-0.140633	-0.717689	0.509819
H492	H	0.359367	-0.217689	1.009819
H493	H	-0.163211	-0.659002	0.436458
H494	H	0.336789	-0.159002	0.936458
H495	H	-0.182663	-0.630666	0.500948
H496	H	0.317337	-0.130666	1.000948
O497	O	0.075803	-0.865772	0.456980
O498	O	0.575803	-0.365772	0.956980
C499	C	0.121630	-0.882288	0.401414
C500	C	0.621630	-0.382288	0.901414
H501	H	0.124791	-0.931238	0.407488
H502	H	0.624791	-0.431238	0.907488
H503	H	0.170692	-0.884652	0.394141
H504	H	0.670692	-0.384652	0.894141
H505	H	0.106466	-0.844332	0.357682
H506	H	0.606466	-0.344332	0.857682
O507	O	0.119936	-0.998721	0.501382
O508	O	0.619936	-0.498721	1.001382
C509	C	0.143340	-1.037730	0.464688
C510	C	0.643340	-0.537730	0.964688
H511	H	0.101722	-1.047776	0.469880
H512	H	0.601722	-0.547776	0.969880
H513	H	0.180584	-1.085180	0.482653
H514	H	0.680584	-0.585180	0.982653
H515	H	0.166641	-1.011780	0.411861
H516	H	0.666641	-0.511780	0.911861
H517	H	-0.137414	-0.813456	0.599420
H518	H	0.362586	-0.313456	1.099420
O519	O	-0.139380	-0.865551	0.538702
O520	O	0.360620	-0.365551	1.038702
C521	C	-0.172823	-0.909720	0.571742
C522	C	0.327177	-0.409720	1.071742
H523	H	-0.138214	-0.957819	0.564017
H524	H	0.361786	-0.457819	1.064017
H525	H	-0.213420	-0.890205	0.552532
H526	H	0.286580	-0.390205	1.052532
H527	H	-0.193877	-0.916850	0.625391
H528	H	0.306123	-0.416850	1.125391
H529	H	-0.259745	-0.772522	0.639985
H530	H	0.240255	-0.272522	1.139985
H531	H	-0.259410	-0.672678	0.440065
H532	H	0.240590	-0.172678	0.940065
