data_functionalizedCrystal
_audit_creation_method	'MofGen! by Chris Wilmer'
_symmetry_space_group_name_H-M	'P1'
_symmetry_Int_Tables_number	1
_symmetry_cell_setting	triclinic
loop_
_symmetry_equiv_pos_as_xyz
  x,y,z
_cell_length_a	27.732064
_cell_length_b	27.732048
_cell_length_c	26.809956
_cell_angle_alpha	89.999364
_cell_angle_beta	89.998878
_cell_angle_gamma	82.646040
loop_
_atom_site_label
_atom_site_type_symbol
_atom_site_fract_x
_atom_site_fract_y
_atom_site_fract_z
O1	O	0.640926	0.057548	-0.041396
O2	O	1.140926	0.557548	0.458604
O3	O	0.500133	0.066285	-0.041417
O4	O	1.000133	0.566285	0.458583
O5	O	0.574902	-0.008480	-0.041396
O6	O	1.074902	0.491520	0.458604
O7	O	0.566157	0.132313	-0.041417
O8	O	1.066157	0.632313	0.458583
O9	O	0.574888	-0.008468	0.041563
O10	O	1.074888	0.491532	0.541563
O11	O	0.500119	0.066297	0.041542
O12	O	1.000119	0.566297	0.541542
O13	O	0.640912	0.057560	0.041563
O14	O	1.140912	0.557560	0.541563
Zn15	Zn	0.570513	0.061930	0.054724
Zn16	Zn	1.070513	0.561930	0.554724
Zn17	Zn	0.570532	0.061915	-0.054578
Zn18	Zn	1.070532	0.561915	0.445422
O19	O	0.566143	0.132325	0.041543
O20	O	1.066143	0.632325	0.541543
C21	C	0.482120	0.066106	0.000060
C22	C	0.982120	0.566106	0.500060
C23	C	0.428465	0.065551	0.000052
C24	C	0.928465	0.565551	0.500052
C25	C	0.051392	0.017583	0.000087
C26	C	0.551392	0.517583	0.500087
C27	C	0.253053	0.019630	0.000074
C28	C	0.753053	0.519630	0.500074
O29	O	0.284305	-0.017591	0.000098
O30	O	0.784305	0.482409	0.500098
N31	N	0.272180	0.063964	0.000066
N32	N	0.772180	0.563964	0.500066
C33	C	0.240889	0.107790	0.000064
C34	C	0.740889	0.607790	0.500064
O35	O	0.261785	0.145546	0.000061
O36	O	0.761785	0.645546	0.500061
C37	C	0.039230	0.105743	0.000080
C38	C	0.539230	0.605743	0.500080
C39	C	0.020105	0.061406	0.000084
C40	C	0.520105	0.561406	0.500084
C41	C	0.032267	-0.026750	0.000092
C42	C	0.532267	0.473250	0.500092
C43	C	-0.018145	-0.027261	0.000092
C44	C	0.481855	0.472739	0.500092
C45	C	-0.049432	0.016561	0.000089
C46	C	0.450568	0.516561	0.500089
C47	C	-0.030307	0.060895	0.000085
C48	C	0.469693	0.560895	0.500085
C49	C	0.007940	0.149568	0.000082
C50	C	0.507940	0.649568	0.500082
C51	C	-0.042478	0.149053	0.000087
C52	C	0.457522	0.649053	0.500087
C53	C	-0.061602	0.104716	0.000091
C54	C	0.438398	0.604716	0.500091
C55	C	-0.112006	0.104206	0.000082
C56	C	0.387994	0.604206	0.500082
N57	N	-0.131134	0.059872	0.000090
N58	N	0.368866	0.559872	0.500090
C59	C	-0.099846	0.016049	0.000094
C60	C	0.400154	0.516049	0.500094
C61	C	0.346763	0.108861	0.000054
C62	C	0.846763	0.608861	0.500054
C63	C	0.397178	0.109373	0.000049
C64	C	0.897178	0.609373	0.500049
C65	C	0.409338	0.021213	0.000060
C66	C	0.909338	0.521213	0.500060
C67	C	0.358923	0.020701	0.000062
C68	C	0.858923	0.520701	0.500062
C69	C	0.327636	0.064527	0.000062
C70	C	0.827636	0.564527	0.500062
C71	C	-0.205716	0.014979	0.000095
C72	C	0.294284	0.514979	0.500095
C73	C	-0.256133	0.014472	0.000093
C74	C	0.243867	0.514472	0.500093
C75	C	-0.268289	0.102632	0.000084
C76	C	0.231711	0.602632	0.500084
C77	C	-0.217876	0.103140	0.000083
C78	C	0.282124	0.603140	0.500083
C79	C	-0.186590	0.059309	0.000090
C80	C	0.313410	0.559309	0.500090
O81	O	-0.143287	0.141407	0.000063
O82	O	0.356713	0.641407	0.500063
O83	O	-0.120752	-0.021701	0.000107
O84	O	0.379248	0.478299	0.500107
C85	C	0.101804	0.018094	0.000087
C86	C	0.601804	0.518094	0.500087
C87	C	0.120930	0.062428	0.000083
C88	C	0.620930	0.562428	0.500083
C89	C	0.089642	0.106250	0.000079
C90	C	0.589642	0.606250	0.500079
C91	C	0.171344	0.062940	0.000078
C92	C	0.671344	0.562940	0.500078
C93	C	0.202631	0.019117	0.000081
C94	C	0.702631	0.519117	0.500081
C95	C	0.183504	-0.025217	0.000090
C96	C	0.683504	0.474783	0.500090
C97	C	0.133092	-0.025728	0.000090
C98	C	0.633092	0.474272	0.500090
C99	C	0.108770	0.150585	0.000071
C100	C	0.608770	0.650585	0.500071
C101	C	0.159183	0.151092	0.000069
C102	C	0.659183	0.651092	0.500069
C103	C	0.190470	0.107270	0.000073
C104	C	0.690470	0.607270	0.500073
C105	C	0.574712	-0.026481	0.000085
C106	C	1.074712	0.473519	0.500085
C107	C	0.574159	-0.080136	0.000089
C108	C	1.074159	0.419864	0.500089
C109	C	0.614862	-0.418948	0.000069
C110	C	1.114862	0.081052	0.500069
C111	C	0.612811	-0.620608	0.000062
C112	C	1.112811	-0.120608	0.500062
O113	O	0.650032	-0.651862	0.000046
O114	O	1.150032	-0.151862	0.500046
N115	N	0.568476	-0.639735	0.000056
N116	N	1.068476	-0.139735	0.500056
C117	C	0.524651	-0.608442	0.000048
C118	C	1.024651	-0.108442	0.500048
O119	O	0.486895	-0.629338	0.000037
O120	O	0.986895	-0.129338	0.500037
C121	C	0.526703	-0.406784	0.000052
C122	C	1.026703	0.093216	0.500052
C123	C	0.571040	-0.387660	0.000063
C124	C	1.071040	0.112340	0.500063
C125	C	0.659196	-0.399824	0.000080
C126	C	1.159196	0.100176	0.500080
C127	C	0.659709	-0.349412	0.000084
C128	C	1.159709	0.150588	0.500084
C129	C	0.615887	-0.318124	0.000078
C130	C	1.115887	0.181876	0.500078
C131	C	0.571553	-0.337248	0.000067
C132	C	1.071553	0.162752	0.500067
C133	C	0.482878	-0.375493	0.000040
C134	C	0.982878	0.124507	0.500040
C135	C	0.483395	-0.325075	0.000040
C136	C	0.983395	0.174925	0.500040
C137	C	0.527733	-0.305952	0.000051
C138	C	1.027733	0.194048	0.500051
C139	C	0.528243	-0.255548	0.000066
C140	C	1.028243	0.244452	0.500066
N141	N	0.572578	-0.236422	0.000072
N142	N	1.072578	0.263578	0.500072
C143	C	0.616400	-0.267710	0.000078
C144	C	1.116400	0.232290	0.500078
C145	C	0.523577	-0.714317	0.000047
C146	C	1.023577	-0.214317	0.500047
C147	C	0.523064	-0.764731	0.000047
C148	C	1.023064	-0.264731	0.500047
C149	C	0.611225	-0.776893	0.000060
C150	C	1.111225	-0.276893	0.500060
C151	C	0.611737	-0.726478	0.000064
C152	C	1.111737	-0.226478	0.500064
C153	C	0.567912	-0.695190	0.000053
C154	C	1.067912	-0.195190	0.500053
C155	C	0.617472	-0.161841	0.000088
C156	C	1.117472	0.338159	0.500088
C157	C	0.617981	-0.111424	0.000095
C158	C	1.117981	0.388576	0.500095
C159	C	0.529821	-0.099266	0.000079
C160	C	1.029821	0.400734	0.500079
C161	C	0.529312	-0.149679	0.000075
C162	C	1.029312	0.350321	0.500075
C163	C	0.573142	-0.180965	0.000078
C164	C	1.073142	0.319035	0.500078
O165	O	0.491043	-0.224267	0.000076
O166	O	0.991043	0.275733	0.500076
O167	O	0.654151	-0.246805	0.000078
O168	O	1.154151	0.253195	0.500078
C169	C	0.614350	-0.469360	0.000065
C170	C	1.114350	0.030640	0.500065
C171	C	0.570016	-0.488484	0.000054
C172	C	1.070016	0.011516	0.500054
C173	C	0.526194	-0.457196	0.000048
C174	C	1.026194	0.042804	0.500048
C175	C	0.569503	-0.538899	0.000054
C176	C	1.069503	-0.038899	0.500054
C177	C	0.613325	-0.570187	0.000060
C178	C	1.113325	-0.070187	0.500060
C179	C	0.657660	-0.551060	0.000066
C180	C	1.157660	-0.051060	0.500066
C181	C	0.658172	-0.500648	0.000071
C182	C	1.158172	-0.000648	0.500071
C183	C	0.481859	-0.476323	0.000041
C184	C	0.981859	0.023677	0.500041
C185	C	0.481351	-0.526735	0.000037
C186	C	0.981351	-0.026735	0.500037
C187	C	0.525172	-0.558023	0.000044
C188	C	1.025172	-0.058023	0.500044
C189	C	0.658925	0.057739	0.000085
C190	C	1.158925	0.557739	0.500085
C191	C	0.712580	0.058295	0.000090
C192	C	1.212580	0.558295	0.500090
C193	C	0.566333	0.150326	0.000060
C194	C	1.066333	0.650326	0.500060
C195	C	0.566886	0.203981	0.000053
C196	C	1.066886	0.703981	0.500053
N197	N	0.570504	0.061940	0.129320
N198	N	1.070504	0.561940	0.629320
N199	N	0.570545	0.061901	-0.129174
N200	N	1.070545	0.561901	0.370826
C201	C	0.603635	0.028817	0.473955
C202	C	1.103635	0.528817	0.973955
C203	C	0.603647	0.028810	0.682833
C204	C	1.103647	0.528810	1.182833
O205	O	0.631796	0.000651	0.709845
O206	O	1.131796	0.500651	1.209845
N207	N	0.570534	0.061904	0.708947
N208	N	1.070534	0.561904	1.208947
C209	C	0.537415	0.095001	0.682839
C210	C	1.037415	0.595001	1.182839
O211	O	0.509248	0.123147	0.709843
O212	O	1.009248	0.623147	1.209843
C213	C	0.537402	0.095006	0.473962
C214	C	1.037402	0.595006	0.973962
C215	C	0.570519	0.061912	0.447851
C216	C	1.070519	0.561912	0.947851
C217	C	0.636750	-0.004274	0.447844
C218	C	1.136750	0.495726	0.947844
C219	C	0.636748	-0.004270	0.395628
C220	C	1.136748	0.495730	0.895628
C221	C	0.603632	0.028825	0.369523
C222	C	1.103632	0.528825	0.869523
C223	C	0.570518	0.061916	0.395634
C224	C	1.070518	0.561916	0.895634
C225	C	0.504280	0.128100	0.447855
C226	C	1.004280	0.628100	0.947855
C227	C	0.504279	0.128097	0.395632
C228	C	1.004279	0.628097	0.895632
C229	C	0.537397	0.095004	0.369521
C230	C	1.037397	0.595004	0.869521
C231	C	0.537400	0.095015	0.317313
C232	C	1.037400	0.595015	0.817313
N233	N	0.570512	0.061921	0.291199
N234	N	1.070512	0.561921	0.791199
C235	C	0.603628	0.028826	0.317304
C236	C	1.103628	0.528826	0.817304
C237	C	0.537425	0.094997	0.792502
C238	C	1.037425	0.594997	1.292502
C239	C	0.537429	0.094996	0.844721
C240	C	1.037429	0.594996	1.344721
C241	C	0.603660	0.028804	0.844712
C242	C	1.103660	0.528804	1.344712
C243	C	0.603658	0.028808	0.792492
C244	C	1.103658	0.528808	1.292492
C245	C	0.570537	0.061902	0.766388
C246	C	1.070537	0.561902	1.266388
C247	C	0.603623	0.028837	0.207646
C248	C	1.103623	0.528837	0.707646
C249	C	0.603620	0.028845	0.155425
C250	C	1.103620	0.528845	0.655425
C251	C	0.537387	0.095035	0.155439
C252	C	1.037387	0.595035	0.655439
C253	C	0.537392	0.095029	0.207655
C254	C	1.037392	0.595029	0.707655
C255	C	0.570512	0.061926	0.233757
C256	C	1.070512	0.561926	0.733757
O257	O	0.509262	0.123156	0.290269
O258	O	1.009262	0.623156	0.790269
O259	O	0.631784	0.000677	0.290290
O260	O	1.131784	0.500677	0.790290
C261	C	0.603637	0.028813	0.526172
C262	C	1.103637	0.528813	1.026172
C263	C	0.570522	0.061904	0.552283
C264	C	1.070522	0.561904	1.052283
C265	C	0.537406	0.095000	0.526178
C266	C	1.037406	0.595000	1.026178
C267	C	0.570526	0.061904	0.604502
C268	C	1.070526	0.561904	1.104502
C269	C	0.603642	0.028809	0.630607
C270	C	1.103642	0.528809	1.130607
C271	C	0.636754	-0.004286	0.604493
C272	C	1.136754	0.495714	1.104493
C273	C	0.636753	-0.004282	0.552277
C274	C	1.136753	0.495718	1.052277
C275	C	0.504294	0.128094	0.552293
C276	C	1.004294	0.628094	1.052293
C277	C	0.504298	0.128088	0.604509
C278	C	1.004298	0.628088	1.104509
C279	C	0.537414	0.094993	0.630614
C280	C	1.037414	0.594993	1.130614
H281	H	-0.180248	-0.020712	0.000100
H282	H	0.319752	0.479288	0.500100
F283	F	0.469046	0.163320	0.524516
F284	F	0.969046	0.663320	1.024516
F285	F	0.475874	-0.785078	0.000044
F286	F	0.975874	-0.285078	0.500044
H287	H	0.695813	-0.333847	0.000092
H288	H	1.195813	0.166153	0.500092
F289	F	0.671999	-0.039502	0.475620
F290	F	1.171999	0.460498	0.975620
H291	H	0.510426	0.121982	0.134176
H292	H	1.010426	0.621982	0.634176
F293	F	0.638905	-0.006418	0.872504
F294	F	1.138905	0.493582	1.372504
F295	F	0.638873	-0.006395	0.235418
F296	F	1.138873	0.493605	0.735418
F297	F	0.672001	-0.039505	0.524493
F298	F	1.172001	0.460495	1.024493
H299	H	-0.067950	0.184742	0.000090
H300	H	0.432050	0.684742	0.500090
H301	H	0.510466	0.121949	0.865977
H302	H	1.010466	0.621949	1.365977
F303	F	0.313471	0.155510	0.000051
F304	F	0.813471	0.655510	0.500051
H305	H	0.654087	-0.095857	0.000105
H306	H	1.154087	0.404143	0.500105
F307	F	0.638906	-0.006415	0.764707
F308	F	1.138906	0.493585	1.264707
F309	F	-0.197522	0.150328	0.000073
F310	F	0.302478	0.650328	0.500073
H311	H	0.653163	-0.187309	0.000089
H312	H	1.153163	0.312691	0.500089
H313	H	0.663714	-0.031219	0.374371
H314	H	1.163714	0.468781	0.874371
F315	F	-0.276483	-0.032719	0.000094
F316	F	0.223517	0.467281	0.500094
F317	F	-0.038492	-0.074451	0.000092
F318	F	0.461508	0.425549	0.500092
H319	H	0.646906	-0.802377	0.000065
H320	H	1.146906	-0.302377	0.500065
H321	H	0.057737	-0.062438	0.000096
H322	H	0.557737	0.437562	0.500096
F323	F	0.338574	-0.026488	0.000067
F324	F	0.838574	0.473512	0.500067
F325	F	0.672000	-0.039507	0.632285
F326	F	1.172000	0.460493	1.132285
F327	F	0.216811	-0.071856	0.000091
F328	F	0.716811	0.428144	0.500091
F329	F	0.028282	0.196759	0.000078
F330	F	0.528282	0.696759	0.500078
H331	H	0.434821	-0.014469	0.000061
H332	H	0.934821	0.485531	0.500061
F333	F	0.075478	0.197229	0.000066
F334	F	0.575478	0.697229	0.500066
F335	F	0.179530	0.198285	0.000062
F336	F	0.679530	0.698285	0.500062
H337	H	0.412744	0.145477	0.000039
H338	H	0.912744	0.645477	0.500039
F339	F	0.705842	-0.433117	0.000086
F340	F	1.205842	0.066883	0.500086
F341	F	-0.301595	0.149269	0.000078
F342	F	0.198405	0.649269	0.500078
H343	H	0.694276	-0.485083	0.000080
H344	H	1.194276	0.014917	0.500080
H345	H	0.117526	-0.061832	0.000093
H346	H	0.617526	0.438168	0.500093
F347	F	0.469050	0.163315	0.632294
F348	F	0.969050	0.663315	1.132294
H349	H	0.647841	-0.710911	0.000072
H350	H	1.147841	-0.210911	0.500072
F351	F	0.476930	-0.681023	0.000036
F352	F	0.976930	-0.181023	0.500036
H353	H	0.446774	-0.391054	0.000028
H354	H	0.946774	0.108946	0.500028
H355	H	0.510453	0.121948	0.771252
H356	H	1.010453	0.621948	1.271252
H357	H	0.447706	-0.299603	0.000031
H358	H	0.947706	0.200397	0.500031
H359	H	0.477313	0.155047	0.469107
H360	H	0.977313	0.655047	0.969107
F361	F	0.435215	-0.443029	0.000033
F362	F	0.935215	0.056971	0.500033
F363	F	0.704298	-0.584368	0.000076
F364	F	1.204298	-0.084368	0.500076
F365	F	0.482123	-0.170032	0.000072
F366	F	0.982123	0.329968	0.500072
H367	H	0.630590	0.001896	0.134167
H368	H	1.130590	0.501896	0.634167
F369	F	0.483185	-0.065958	0.000073
F370	F	0.983185	0.434042	0.500073
H371	H	0.445243	-0.542300	0.000033
H372	H	0.945243	-0.042300	0.500033
H373	H	0.477306	0.155047	0.374381
H374	H	0.977306	0.655047	0.874381
F375	F	0.502149	0.130256	0.235444
F376	F	1.002149	0.630256	0.735444
