data_functionalizedCrystal
_audit_creation_method	'MofGen! by Chris Wilmer'
_symmetry_space_group_name_H-M	'P1'
_symmetry_Int_Tables_number	1
_symmetry_cell_setting	triclinic
loop_
_symmetry_equiv_pos_as_xyz
  x,y,z
_cell_length_a	15.995350
_cell_length_b	15.995350
_cell_length_c	13.596369
_cell_angle_alpha	89.996243
_cell_angle_beta	89.998321
_cell_angle_gamma	83.492375
loop_
_atom_site_label
_atom_site_type_symbol
_atom_site_fract_x
_atom_site_fract_y
_atom_site_fract_z
O1	O	1.110986	0.107928	-0.081703
O2	O	0.867211	0.121256	-0.081723
O3	O	0.995763	-0.007296	-0.081712
O4	O	0.982435	0.236479	-0.081714
O5	O	0.995750	-0.007303	0.081871
O6	O	0.867198	0.121249	0.081860
O7	O	1.110974	0.107921	0.081880
Zn8	Zn	0.989084	0.114584	0.107842
Zn9	Zn	0.989101	0.114593	-0.107685
O10	O	0.982422	0.236473	0.081869
C11	C	0.836010	0.120701	0.000066
C12	C	0.743060	0.119049	0.000058
C13	C	0.405312	0.113117	0.000079
C14	C	0.452746	0.021565	0.000445
C15	C	0.549436	0.023217	0.000069
C16	C	0.572873	0.116060	0.000069
C17	C	0.531793	0.161220	-0.093341
C18	C	0.435157	0.158920	-0.093412
C19	C	0.434804	0.160804	0.092612
C20	C	0.531749	0.160782	0.093840
C21	C	0.667570	0.117727	0.000061
C22	C	0.310614	0.111452	0.000081
C23	C	0.995205	-0.038494	0.000078
C24	C	0.993553	-0.131444	0.000072
C25	C	0.987621	-0.469192	0.000075
C26	C	0.896069	-0.421758	-0.000299
C27	C	0.897721	-0.325068	0.000070
C28	C	0.990564	-0.301631	0.000073
C29	C	1.035713	-0.342713	0.093489
C30	C	1.033413	-0.439349	0.093567
C31	C	1.035319	-0.439699	-0.092457
C32	C	1.035297	-0.342753	-0.093692
C33	C	0.992231	-0.206934	0.000075
C34	C	0.985956	-0.563890	0.000080
C35	C	1.142175	0.108476	0.000089
C36	C	1.235125	0.110127	0.000090
C37	C	0.982980	0.267671	0.000077
C38	C	0.984631	0.360621	0.000076
N39	N	0.989079	0.114577	0.254934
N40	N	0.989113	0.114593	-0.254777
C41	C	0.989100	0.114594	0.656225
C42	C	0.989091	0.114592	0.544574
C43	C	0.989090	0.114586	0.455583
C44	C	0.989080	0.114583	0.343925
H45	H	0.560173	0.129859	-0.162859
H46	H	1.103002	-0.327391	-0.099329
H47	H	0.433158	-0.014859	-0.066173
H48	H	1.005392	-0.460236	-0.163261
H49	H	1.103921	-0.328587	0.096965
C50	C	0.427711	-0.027884	0.090931
H51	H	0.457022	-0.082962	0.089777
H52	H	0.368832	-0.031386	0.089690
H53	H	0.441847	0.000184	0.149158
H54	H	0.577299	-0.012515	-0.067007
H55	H	0.547114	0.228485	0.099482
C56	C	0.988915	-0.464084	0.187887
H57	H	0.987122	-0.523244	0.188768
H58	H	0.933205	-0.436284	0.189334
H59	H	1.018977	-0.447992	0.243752
C60	C	0.391899	0.251989	0.093476
H61	H	0.409972	0.280487	0.149552
H62	H	0.332583	0.251672	0.095879
H63	H	0.406686	0.280068	0.035525
H64	H	0.861981	-0.297206	0.067143
C65	C	0.990780	-0.305863	-0.187057
H66	H	1.018131	-0.330987	-0.243528
H67	H	0.993034	-0.246791	-0.188772
H68	H	0.933711	-0.317062	-0.186477
H69	H	1.102820	-0.471460	-0.093082
C70	C	0.407057	0.120370	0.188261
H71	H	0.377226	0.074020	0.172654
H72	H	0.371583	0.160771	0.224731
H73	H	0.455251	0.101352	0.226398
C74	C	0.849766	-0.286662	-0.090382
H75	H	0.829093	-0.330149	-0.127682
H76	H	0.886662	-0.258369	-0.129905
H77	H	0.803937	-0.247784	-0.069353
C78	C	0.587839	-0.024737	0.090524
H79	H	0.544351	-0.045410	0.127830
H80	H	0.616126	0.012164	0.130041
H81	H	0.626721	-0.070565	0.069504
H82	H	0.416854	0.125993	-0.163239
H83	H	0.402909	0.226136	-0.097652
H84	H	0.559060	0.127815	0.162944
C85	C	1.124210	-0.482917	0.099315
H86	H	1.162337	-0.441533	0.101600
H87	H	1.135765	-0.517433	0.042990
H88	H	1.130545	-0.516653	0.156923
C89	C	0.993331	-0.304391	0.187399
H90	H	0.948129	-0.263366	0.169878
H91	H	1.033315	-0.278654	0.225199
H92	H	0.972383	-0.347517	0.225048
H93	H	0.545918	0.229429	-0.096815
C94	C	0.846633	-0.446796	-0.090787
H95	H	0.881380	-0.486406	-0.129148
H96	H	0.829798	-0.398219	-0.129257
H97	H	0.798226	-0.471232	-0.069775
C98	C	0.846848	-0.448219	0.089690
H99	H	0.881850	-0.488046	0.127491
H100	H	0.798651	-0.472763	0.068212
H101	H	0.829690	-0.400167	0.128901
