data_functionalizedCrystal
_audit_creation_method	'MofGen! by Chris Wilmer'
_symmetry_space_group_name_H-M	'P1'
_symmetry_Int_Tables_number	1
_symmetry_cell_setting	triclinic
loop_
_symmetry_equiv_pos_as_xyz
  x,y,z
_cell_length_a	18.101398
_cell_length_b	18.101395
_cell_length_c	18.050571
_cell_angle_alpha	90.086801
_cell_angle_beta	90.052556
_cell_angle_gamma	90.025910
loop_
_atom_site_label
_atom_site_type_symbol
_atom_site_fract_x
_atom_site_fract_y
_atom_site_fract_z
Zn1	Zn	-1.132442	0.294499	-0.419715
Zn2	Zn	-0.632442	0.794499	0.080285
Zn3	Zn	-1.132243	0.418476	-0.295528
Zn4	Zn	-0.632243	0.918476	0.204472
Zn5	Zn	-1.008506	0.294641	-0.295561
Zn6	Zn	-0.508506	0.794641	0.204439
Zn7	Zn	-1.008552	0.418292	-0.419699
Zn8	Zn	-0.508552	0.918292	0.080301
O9	O	-1.070436	0.356477	-0.357626
O10	O	-0.570436	0.856477	0.142374
O11	O	-1.236049	0.310962	-0.403234
O12	O	-0.736049	0.810962	0.096766
O13	O	-1.115727	0.402185	-0.191608
O14	O	-0.615727	0.902185	0.308392
O15	O	-1.025011	0.190989	-0.312051
O16	O	-0.525011	0.690989	0.187949
O17	O	-1.235902	0.402047	-0.311994
O18	O	-0.735902	0.902047	0.188006
O19	O	-1.116066	0.190885	-0.403266
O20	O	-0.616066	0.690885	0.096734
O21	O	-1.024818	0.311205	-0.191632
O22	O	-0.524818	0.811205	0.308368
O23	O	-0.904879	0.311026	-0.312036
O24	O	-0.404879	0.811026	0.187964
O25	O	-1.025089	0.401734	-0.523626
O26	O	-0.525089	0.901734	-0.023626
O27	O	-0.904913	0.401872	-0.403240
O28	O	-0.404913	0.901872	0.096760
O29	O	-1.116110	0.310784	-0.523638
O30	O	-0.616110	0.810784	-0.023638
O31	O	-1.115771	0.522084	-0.311979
O32	O	-0.615771	1.022084	0.188021
O33	O	-1.024896	0.521949	-0.403207
O34	O	-0.524896	1.021949	0.096793
C35	C	-0.878025	0.356445	-0.357640
C36	C	-0.378025	0.856445	0.142360
C37	C	-0.795711	0.356450	-0.357664
C38	C	-0.295711	0.856450	0.142336
C39	C	-0.496620	0.356489	-0.357639
C40	C	0.003380	0.856489	0.142361
C41	C	-0.527991	0.413924	-0.414738
C42	C	-0.027991	0.913924	0.085262
C43	C	-0.613610	0.413745	-0.414971
C44	C	-0.113610	0.913745	0.085029
C45	C	-0.645003	0.356470	-0.357651
C46	C	-0.145003	0.856470	0.142349
C47	C	-0.613965	0.278445	-0.379038
C48	C	-0.113965	0.778445	0.120962
C49	C	-0.528320	0.278789	-0.379445
C50	C	-0.028320	0.778789	0.120555
C51	C	-0.528107	0.376392	-0.279015
C52	C	-0.028107	0.876392	0.220985
C53	C	-0.613758	0.378104	-0.279434
C54	C	-0.113758	0.878104	0.220566
C55	C	-0.728862	0.356455	-0.357657
C56	C	-0.228862	0.856455	0.142343
C57	C	-0.412761	0.356500	-0.357635
C58	C	0.087239	0.856500	0.142365
C59	C	-1.070337	0.548888	-0.357604
C60	C	-0.570337	1.048888	0.142396
C61	C	-1.070362	0.631202	-0.357620
C62	C	-0.570362	1.131202	0.142380
C63	C	-1.070627	0.356222	-0.551332
C64	C	-0.570627	0.856222	-0.051332
C65	C	-1.070708	0.356114	-0.633878
C66	C	-0.570708	0.856114	-0.133878
C67	C	-0.263598	0.356506	-0.357617
C68	C	0.236402	0.856506	0.142383
C69	C	-0.345912	0.356510	-0.357626
C70	C	0.154088	0.856510	0.142374
C71	C	-1.070556	0.163315	-0.357664
C72	C	-0.570556	0.663315	0.142336
C73	C	-1.070607	0.081001	-0.357680
C74	C	-0.570607	0.581001	0.142320
C75	C	-1.070525	0.930292	-0.357660
C76	C	-0.570525	1.430292	0.142340
C77	C	-1.013481	0.898913	-0.415200
C78	C	-0.513481	1.398913	0.084800
C79	C	-1.013210	0.813295	-0.415020
C80	C	-0.513210	1.313295	0.084980
C81	C	-1.070444	0.781910	-0.357640
C82	C	-0.570444	1.281910	0.142360
C83	C	-1.049255	0.813140	-0.279375
C84	C	-0.549255	1.313140	0.220625
C85	C	-1.048887	0.898785	-0.279719
C86	C	-0.548887	1.398785	0.220281
C87	C	-1.148882	0.898622	-0.377695
C88	C	-0.648882	1.398622	0.122305
C89	C	-1.148422	0.812970	-0.379412
C90	C	-0.648422	1.312970	0.120588
C91	C	-1.070400	0.698050	-0.357625
C92	C	-0.570400	1.198050	0.142375
C93	C	-1.070567	1.014152	-0.357670
C94	C	-0.570567	1.514152	0.142330
C95	C	-1.070288	0.356677	-0.164673
C96	C	-0.570288	0.856677	0.335327
C97	C	-1.070350	0.356577	-0.082128
C98	C	-0.570350	0.856577	0.417872
C99	C	-1.020748	0.307196	0.166646
C100	C	-0.520748	0.807196	0.666646
C101	C	-1.003040	0.374937	0.117460
C102	C	-0.503040	0.874937	0.617460
C103	C	-1.070587	0.356272	0.214992
C104	C	-0.570587	0.856272	0.714992
C105	C	-1.088143	0.288685	0.117097
C106	C	-0.588143	0.788685	0.617097
C107	C	-1.070469	0.356418	0.069007
C108	C	-0.570469	0.856418	0.569007
C109	C	-1.052846	0.424048	0.166893
C110	C	-0.552846	0.924048	0.666893
C111	C	-1.137979	0.337750	0.166534
C112	C	-0.637979	0.837750	0.666534
C113	C	-1.120297	0.405538	0.117370
C114	C	-0.620297	0.905538	0.617370
C115	C	-1.070654	0.356186	0.299090
C116	C	-0.570654	0.856186	0.799090
C117	C	-1.070403	0.356511	-0.015089
C118	C	-0.570403	0.856511	0.484911
H119	H	-0.507568	0.234458	-0.339764
H120	H	-0.007568	0.734458	0.160236
H121	H	-0.634298	0.234489	-0.338746
H122	H	-0.134298	0.734489	0.161254
H123	H	-0.507366	0.471970	-0.401485
H124	H	-0.007366	0.971970	0.098515
O125	O	-1.170436	0.455279	0.091748
O126	O	-0.670436	0.955279	0.591748
C127	C	-1.151599	0.526493	0.117281
C128	C	-0.651599	1.026493	0.617281
H129	H	-1.090179	0.528322	0.131182
H130	H	-0.590179	1.028322	0.631182
H131	H	-1.164272	0.568785	0.072300
H132	H	-0.664272	1.068785	0.572300
H133	H	-1.185114	0.539959	0.169007
H134	H	-0.685114	1.039959	0.669007
O135	O	-0.980602	0.922843	-0.259459
O136	O	-0.480602	1.422843	0.240541
C137	C	-0.979371	1.000725	-0.259531
C138	C	-0.479371	1.500725	0.240469
H139	H	-1.038020	1.022633	-0.252798
H140	H	-0.538020	1.522633	0.247202
H141	H	-0.943674	1.021291	-0.211691
H142	H	-0.443674	1.521291	0.288309
H143	H	-0.955426	1.021227	-0.314159
H144	H	-0.455426	1.521227	0.185841
O145	O	-0.502219	0.443046	-0.255736
O146	O	-0.002219	0.943046	0.244264
C147	C	-0.462607	0.433944	-0.189083
C148	C	0.037393	0.933944	0.310917
H149	H	-0.442486	0.374441	-0.184701
H150	H	0.057514	0.874441	0.315299
H151	H	-0.413139	0.472941	-0.188506
H152	H	0.086861	0.972941	0.311494
H153	H	-0.500163	0.447088	-0.140145
H154	H	-0.000163	0.947088	0.359855
H155	H	-1.026614	0.919401	-0.473422
H156	H	-0.526614	1.419401	0.026578
H157	H	-1.037882	0.481283	0.188670
H158	H	-0.537882	0.981283	0.688670
H159	H	-0.955131	0.792880	-0.401750
H160	H	-0.455131	1.292880	0.098250
H161	H	-0.634049	0.435520	-0.263304
H162	H	-0.134049	0.935520	0.236696
H163	H	-0.978620	0.265684	0.188284
H164	H	-0.478620	0.765684	0.688284
H165	H	-0.945998	0.390671	0.095900
H166	H	-0.445998	0.890671	0.595900
H167	H	-1.195005	0.321998	0.188112
H168	H	-0.695005	0.821998	0.688112
H169	H	-1.103043	0.231467	0.095232
H170	H	-0.603043	0.731467	0.595232
H171	H	-1.088630	0.919552	-0.235386
H172	H	-0.588630	1.419552	0.264614
H173	H	-0.634594	0.471602	-0.401567
H174	H	-0.134594	0.971602	0.098433
O175	O	-1.097300	0.788805	-0.226917
O176	O	-0.597300	1.288805	0.273083
C177	C	-1.150958	0.743092	-0.260301
C178	C	-0.650958	1.243092	0.239699
H179	H	-1.128161	0.719609	-0.314269
H180	H	-0.628161	1.219609	0.185731
H181	H	-1.165381	0.695855	-0.221192
H182	H	-0.665381	1.195855	0.278808
H183	H	-1.202718	0.776844	-0.272438
H184	H	-0.702718	1.276844	0.227562
H185	H	-0.506525	0.400916	-0.472656
H186	H	-0.006525	0.900916	0.027344
H187	H	-1.164400	0.792548	-0.437011
H188	H	-0.664400	1.292548	0.062989
O189	O	-0.638031	0.398115	-0.484520
O190	O	-0.138031	0.898115	0.015480
C191	C	-0.611817	0.452192	-0.534119
C192	C	-0.111817	0.952192	-0.034119
H193	H	-0.560333	0.479452	-0.510009
H194	H	-0.060333	0.979452	-0.010009
H195	H	-0.597550	0.425084	-0.589325
H196	H	-0.097550	0.925084	-0.089325
H197	H	-0.656369	0.495767	-0.543130
H198	H	-0.156369	0.995767	-0.043130
H199	H	-0.992581	0.791768	-0.262096
H200	H	-0.492581	1.291768	0.237904
H201	H	-0.508403	0.261917	-0.436922
H202	H	-0.008403	0.761917	0.063078
H203	H	-0.635473	0.261271	-0.435889
H204	H	-0.135473	0.761271	0.064111
H205	H	-0.635124	0.339316	-0.234605
H206	H	-0.135124	0.839316	0.265395
H207	H	-0.507816	0.334558	-0.236471
H208	H	-0.007816	0.834558	0.263529
H209	H	-1.026474	0.792172	-0.473054
H210	H	-0.526474	1.292172	0.026946
H211	H	-0.955755	0.920508	-0.402097
H212	H	-0.455755	1.420508	0.097903
H213	H	-1.193176	0.791601	-0.340556
H214	H	-0.693176	1.291601	0.159444
O215	O	-1.171791	0.924298	-0.444647
O216	O	-0.671791	1.424298	0.055353
C217	C	-1.117323	0.971358	-0.474409
C218	C	-0.617323	1.471358	0.025591
H219	H	-1.061450	0.957672	-0.448686
H220	H	-0.561450	1.457672	0.051314
H221	H	-1.114382	0.963201	-0.536973
H222	H	-0.614382	1.463201	-0.036973
H223	H	-1.132092	1.031253	-0.461636
H224	H	-0.632092	1.531253	0.038364
H225	H	-1.191382	0.918920	-0.335786
H226	H	-0.691382	1.418920	0.164214
