data_functionalizedCrystal
_audit_creation_method	'MofGen! by Chris Wilmer'
_symmetry_space_group_name_H-M	'P1'
_symmetry_Int_Tables_number	1
_symmetry_cell_setting	triclinic
loop_
_symmetry_equiv_pos_as_xyz
  x,y,z
_cell_length_a	14.519709
_cell_length_b	10.654550
_cell_length_c	9.730223
_cell_angle_alpha	90.000193
_cell_angle_beta	89.994593
_cell_angle_gamma	84.082524
loop_
_atom_site_label
_atom_site_type_symbol
_atom_site_fract_x
_atom_site_fract_y
_atom_site_fract_z
O1	O	-1.224716	-0.164618	-0.114107
O2	O	-0.956339	-0.184004	-0.114149
O3	O	-1.096698	0.008488	-0.114122
O4	O	-1.084357	-0.357109	-0.114134
O5	O	-1.096696	0.008483	0.114458
O6	O	-0.956338	-0.184009	0.114431
O7	O	-1.224714	-0.164622	0.114473
Zn8	Zn	-1.090526	-0.174316	0.150744
Zn9	Zn	-1.090528	-0.174310	-0.150420
O10	O	-1.084355	-0.357114	0.114446
C11	C	-0.921974	-0.183103	0.000136
C12	C	-0.819579	-0.180396	0.000120
C13	C	-1.259079	-0.165524	0.000185
C14	C	-1.361475	-0.168231	0.000192
C15	C	-0.444631	-0.170428	0.000183
C16	C	-0.548954	-0.173196	0.000165
C17	C	-0.632102	-0.175412	0.000150
C18	C	-0.736431	-0.178180	0.000135
C19	C	-1.095791	0.055275	0.000166
C20	C	-1.093080	0.194692	0.000161
C21	C	-1.085262	-0.403901	0.000155
C22	C	-1.087973	-0.543318	0.000151
N23	N	-1.090531	-0.174320	0.356280
C24	C	-1.175721	0.274972	0.000178
C25	C	-1.173168	0.405968	0.000168
C26	C	-1.005326	0.376391	0.000130
C27	C	-1.007880	0.245397	0.000130
C28	C	-1.260921	0.224266	0.000209
C29	C	-1.343569	0.304548	0.000227
C30	C	-1.341016	0.435544	0.000217
C31	C	-1.255815	0.486259	0.000189
N32	N	-1.090530	-0.174297	-0.355956
C33	C	-1.152698	-0.089113	0.428218
C34	C	-1.152695	-0.089098	0.572101
C35	C	-1.028356	-0.259507	0.572096
C36	C	-1.028355	-0.259516	0.428215
C37	C	-1.214874	-0.003918	0.356283
C38	C	-1.277047	0.081295	0.428221
C39	C	-1.277044	0.081310	0.572104
C40	C	-1.214869	-0.003888	0.644049
H41	H	-1.263009	0.117604	0.000221
O42	O	-1.214870	-0.003870	0.799239
H43	H	-1.161194	-0.077426	0.837176
H44	H	-1.327661	0.150701	0.630675
O45	O	-1.253064	0.627549	0.000184
H46	H	-1.216171	0.655708	-0.092992
H47	H	-0.935960	0.417694	0.000109
O48	O	-1.435457	0.249847	0.000249
H49	H	-1.475203	0.282066	-0.092919
H50	H	-0.940586	0.180030	0.000118
O51	O	-1.344099	0.173196	0.350642
H52	H	-1.331712	0.271129	0.378250
O53	O	-0.961308	-0.351409	0.649683
H54	H	-0.971761	-0.337098	0.761818
H55	H	-1.214883	-0.003925	0.239127
O56	O	-0.961294	-0.351389	0.350598
H57	H	-1.000489	-0.412542	0.285029
H58	H	-1.408312	0.500907	0.000219
