data_functionalizedCrystal
_audit_creation_method	'MofGen! by Chris Wilmer'
_symmetry_space_group_name_H-M	'P1'
_symmetry_Int_Tables_number	1
_symmetry_cell_setting	triclinic
loop_
_symmetry_equiv_pos_as_xyz
  x,y,z
_cell_length_a	14.853567
_cell_length_b	9.616153
_cell_length_c	14.853567
_cell_angle_alpha	89.998462
_cell_angle_beta	83.634930
_cell_angle_gamma	90.003896
loop_
_atom_site_label
_atom_site_type_symbol
_atom_site_fract_x
_atom_site_fract_y
_atom_site_fract_z
O1	O	1.196368	0.115538	0.117701
O2	O	1.696368	0.615538	0.617701
O3	O	0.933909	0.115560	0.131722
O4	O	1.433909	0.615560	0.631722
O5	O	1.072149	0.115553	-0.006519
O6	O	1.572149	0.615553	0.493481
O7	O	1.058128	0.115545	0.255941
O8	O	1.558128	0.615545	0.755941
O9	O	1.072130	-0.115739	-0.006516
O10	O	1.572130	0.384261	0.493484
O11	O	0.933890	-0.115731	0.131725
O12	O	1.433890	0.384269	0.631725
O13	O	1.196349	-0.115754	0.117704
O14	O	1.696349	0.384246	0.617704
Zn15	Zn	1.065117	-0.152465	0.124715
Zn16	Zn	1.565117	0.347535	0.624715
Zn17	Zn	1.065142	0.152271	0.124711
Zn18	Zn	1.565142	0.652271	0.624711
O19	O	1.058109	-0.115746	0.255944
O20	O	1.558109	0.384254	0.755944
C21	C	0.900311	-0.000083	0.131088
C22	C	1.400311	0.499917	0.631088
C23	C	0.800227	-0.000073	0.129184
C24	C	1.300227	0.499927	0.629184
N25	N	1.065106	-0.360440	0.124717
N26	N	1.565106	0.139560	0.624717
C27	C	0.387693	-0.000102	0.039019
C28	C	0.887693	0.499898	0.539019
C29	C	0.366412	-0.000105	0.203251
C30	C	0.866412	0.499895	0.703251
C31	C	0.460446	-0.000101	0.205042
C32	C	0.960446	0.499899	0.705042
C33	C	0.518108	-0.000095	0.123819
C34	C	1.018108	0.499905	0.623819
C35	C	0.481736	-0.000093	0.040806
C36	C	0.981736	0.499907	0.540806
C37	C	0.496825	-0.000088	0.288053
C38	C	0.996825	0.499912	0.788053
C39	C	0.590864	-0.000082	0.289846
C40	C	1.090864	0.499918	0.789846
C41	C	0.648528	-0.000086	0.208623
C42	C	1.148528	0.499914	0.708623
C43	C	0.612150	-0.000086	0.125607
C44	C	1.112150	0.499914	0.625607
C45	C	0.669812	-0.000081	0.044384
C46	C	1.169812	0.499919	0.544384
C47	C	0.633437	-0.000091	-0.038633
C48	C	1.133437	0.499909	0.461367
C49	C	0.539399	-0.000098	-0.040417
C50	C	1.039399	0.499902	0.459583
C51	C	0.742565	-0.000079	0.210407
C52	C	1.242565	0.499921	0.710407
C53	C	0.763855	-0.000072	0.046172
C54	C	1.263855	0.499928	0.546172
C55	C	0.990934	-0.580805	0.198422
C56	C	1.490934	-0.080805	0.698422
C57	C	0.991094	-0.419638	0.198695
C58	C	1.491094	0.080362	0.698695
C59	C	1.159202	-0.418898	0.145382
C60	C	1.659202	0.081102	0.645382
C61	C	1.158797	-0.580116	0.145903
C62	C	1.658797	-0.080116	0.645903
C63	C	1.046122	-0.580346	0.030100
C64	C	1.546122	-0.080346	0.530100
C65	C	1.043954	-0.419119	0.030731
C66	C	1.543954	0.080881	0.530731
C67	C	1.229947	-0.000108	0.118337
C68	C	1.729947	0.499892	0.618337
C69	C	1.330031	-0.000108	0.120241
C70	C	1.830031	0.499892	0.620241
C71	C	1.071504	-0.000089	-0.040106
C72	C	1.571504	0.499911	0.459894
C73	C	1.069601	-0.000077	-0.140189
C74	C	1.569601	0.499923	0.359811
N75	N	1.065159	0.360246	0.124701
N76	N	1.565159	0.860246	0.624701
C77	C	0.979435	-0.000096	-0.552723
C78	C	1.479435	0.499904	-0.052723
C79	C	1.143668	-0.000110	-0.574004
C80	C	1.643668	0.499890	-0.074004
C81	C	1.145458	-0.000101	-0.479971
C82	C	1.645458	0.499899	0.020029
C83	C	1.064235	-0.000093	-0.422309
C84	C	1.564235	0.499907	0.077691
C85	C	0.981223	-0.000092	-0.458680
C86	C	1.481223	0.499908	0.041320
C87	C	1.228469	-0.000116	-0.443591
C88	C	1.728469	0.499884	0.056409
C89	C	1.230262	-0.000110	-0.349552
C90	C	1.730262	0.499890	0.150448
C91	C	1.149039	-0.000091	-0.291889
C92	C	1.649039	0.499909	0.208111
C93	C	1.066023	-0.000089	-0.328266
C94	C	1.566023	0.499911	0.171734
C95	C	0.984800	-0.000080	-0.270604
C96	C	1.484800	0.499920	0.229396
C97	C	0.901783	-0.000068	-0.306979
C98	C	1.401783	0.499932	0.193021
C99	C	0.899999	-0.000073	-0.401017
C100	C	1.399999	0.499927	0.098983
C101	C	1.150823	-0.000086	-0.197851
C102	C	1.650823	0.499914	0.302149
C103	C	0.986588	-0.000076	-0.176561
C104	C	1.486588	0.499924	0.323439
C105	C	1.058754	-0.000101	0.289531
C106	C	1.558754	0.499899	0.789531
C107	C	1.060657	-0.000105	0.389615
C108	C	1.560657	0.499895	0.889615
H109	H	0.810798	-0.000073	-0.019971
H110	H	1.310798	0.499927	0.480029
Br111	Br	1.263479	-0.000136	-0.148487
Br112	Br	1.763479	0.499864	0.351513
H113	H	0.835652	-0.000070	-0.260019
H114	H	1.335652	0.499930	0.239981
Br115	Br	0.876351	-0.000047	-0.098312
Br116	Br	1.376351	0.499953	0.401688
H117	H	0.911844	-0.000080	-0.582344
H118	H	1.411844	0.499920	-0.082344
H119	H	1.209795	-0.000128	-0.620958
H120	H	1.709795	0.499872	-0.120958
H121	H	1.175554	-0.617707	0.214899
H122	H	1.675554	-0.117707	0.714899
Br123	Br	0.791930	-0.000050	0.323063
Br124	Br	1.291930	0.499950	0.823063
Br125	Br	0.288157	-0.000088	0.313477
Br126	Br	0.788157	0.499912	0.813477
Br127	Br	0.934223	-0.648183	-0.002957
Br128	Br	1.434223	-0.148183	0.497043
Br129	Br	0.787343	-0.000047	-0.450389
Br130	Br	1.287343	0.499953	0.049611
H131	H	1.294596	-0.000137	-0.490546
H132	H	1.794596	0.499863	0.009454
H133	H	0.680397	-0.000076	-0.104764
H134	H	1.180397	0.499924	0.395236
Br135	Br	0.490027	-0.000106	-0.153073
Br136	Br	0.990027	0.499894	0.346927
H137	H	1.100249	-0.618465	-0.024762
H138	H	1.600249	-0.118465	0.475238
H139	H	0.921155	-0.380116	0.186365
H140	H	1.421155	0.119884	0.686365
H141	H	1.003258	-0.381062	0.268896
H142	H	1.503258	0.118938	0.768896
H143	H	1.094489	-0.378827	-0.026706
H144	H	1.594489	0.121173	0.473294
Br145	Br	1.187791	-0.351587	0.259072
Br146	Br	1.687791	0.148413	0.759072
Br147	Br	1.342925	-0.000105	-0.300193
Br148	Br	1.842925	0.499895	0.199807
H149	H	0.358072	-0.000116	-0.028572
H150	H	0.858072	0.499884	0.471428
H151	H	0.920775	-0.619610	0.186291
H152	H	1.420775	-0.119610	0.686291
H153	H	1.002936	-0.621307	0.268226
H154	H	1.502936	-0.121307	0.768226
H155	H	1.215754	-0.380549	0.093123
H156	H	1.715754	0.119451	0.593123
Br157	Br	0.418568	-0.000066	0.398276
Br158	Br	0.918568	0.499934	0.898276
H159	H	1.215761	-0.619107	0.094332
H160	H	1.715761	-0.119107	0.594332
H161	H	0.620472	-0.000074	0.357443
H162	H	1.120472	0.499926	0.857443
H163	H	0.974735	-0.380913	0.015051
H164	H	1.474735	0.119087	0.515051
