data_functionalizedCrystal
_audit_creation_method	'MofGen! by Chris Wilmer'
_symmetry_space_group_name_H-M	'P1'
_symmetry_Int_Tables_number	1
_symmetry_cell_setting	triclinic
loop_
_symmetry_equiv_pos_as_xyz
  x,y,z
_cell_length_a	19.188905
_cell_length_b	19.188930
_cell_length_c	9.730223
_cell_angle_alpha	89.990488
_cell_angle_beta	89.989587
_cell_angle_gamma	83.139668
loop_
_atom_site_label
_atom_site_type_symbol
_atom_site_fract_x
_atom_site_fract_y
_atom_site_fract_z
O1	O	0.926155	0.087084	-0.114532
O2	O	1.426155	0.587084	0.385468
O3	O	0.722841	0.098837	-0.114487
O4	O	1.222841	0.598837	0.385513
O5	O	0.830365	-0.008696	-0.114484
O6	O	1.330365	0.491304	0.385516
O7	O	0.818631	0.194617	-0.114535
O8	O	1.318631	0.694617	0.385465
O9	O	0.830358	-0.008699	0.114096
O10	O	1.330358	0.491301	0.614096
O11	O	0.722834	0.098834	0.114093
O12	O	1.222834	0.598834	0.614093
O13	O	0.926148	0.087081	0.114048
O14	O	1.426148	0.587081	0.614048
Zn15	Zn	0.824490	0.092957	0.150363
Zn16	Zn	1.324490	0.592957	0.650363
Zn17	Zn	0.824499	0.092961	-0.150801
Zn18	Zn	1.324499	0.592961	0.349199
O19	O	0.818624	0.194614	0.114045
O20	O	1.318624	0.694614	0.614045
C21	C	0.696826	0.098458	-0.000191
C22	C	1.196826	0.598458	0.499809
C23	C	0.619321	0.097324	-0.000172
C24	C	1.119321	0.597324	0.499828
C25	C	0.582933	0.096781	-0.124775
C26	C	1.082933	0.596781	0.375225
C27	C	0.510109	0.095708	-0.124792
C28	C	1.010109	0.595708	0.375208
C29	C	0.473678	0.095164	-0.000199
C30	C	0.973678	0.595164	0.499801
C31	C	0.510075	0.095711	0.124420
C32	C	1.010075	0.595711	0.624420
C33	C	0.582896	0.096791	0.124433
C34	C	1.082896	0.596791	0.624433
N35	N	0.364655	0.053734	0.092534
N36	N	0.864655	0.553734	0.592534
N37	N	0.295478	0.052707	0.092513
N38	N	0.795478	0.552707	0.592513
C39	C	0.254272	0.091911	-0.000231
C40	C	0.754272	0.591911	0.499769
N41	N	0.284856	0.132173	-0.092974
N42	N	0.784856	0.632173	0.407026
N43	N	0.354040	0.133198	-0.092957
N44	N	0.854040	0.633198	0.407043
C45	C	0.394716	0.093993	-0.000199
C46	C	0.894716	0.593993	0.499801
C47	C	0.138920	0.090206	-0.124861
C48	C	0.638920	0.590206	0.375139
C49	C	0.066094	0.089137	-0.124872
C50	C	0.566094	0.589137	0.375128
C51	C	0.066062	0.089133	0.124343
C52	C	0.566062	0.589133	0.624343
C53	C	0.138885	0.090209	0.124351
C54	C	0.638885	0.590209	0.624351
C55	C	0.175310	0.090742	-0.000255
C56	C	0.675310	0.590742	0.499745
C57	C	0.829982	-0.034708	-0.000190
C58	C	1.329982	0.465292	0.499810
C59	C	0.828841	-0.112213	-0.000178
C60	C	1.328841	0.387787	0.499822
C61	C	0.891933	-0.157142	-0.000185
C62	C	1.391933	0.342858	0.499815
C63	C	0.890861	-0.229966	-0.000207
C64	C	1.390861	0.270034	0.499793
C65	C	0.826694	-0.257857	-0.000194
C66	C	1.326694	0.242143	0.499806
C67	C	0.763594	-0.212917	-0.000194
C68	C	1.263594	0.287083	0.499806
C69	C	0.764668	-0.140095	-0.000186
C70	C	1.264668	0.359905	0.499814
N71	N	0.777644	-0.365858	0.077607
N72	N	1.277644	0.134142	0.577607
N73	N	0.776628	-0.435037	0.077603
N74	N	1.276628	0.064963	0.577603
C75	C	0.823456	-0.477265	-0.000221
C76	C	1.323456	0.022735	0.499779
N77	N	0.871348	-0.447703	-0.078022
N78	N	1.371348	0.052297	0.421978
N79	N	0.872365	-0.378518	-0.078011
N80	N	1.372365	0.121482	0.421989
C81	C	0.825523	-0.336819	-0.000203
C82	C	1.325523	0.163181	0.499797
C83	C	0.885390	-0.601159	-0.000254
C84	C	1.385390	-0.101159	0.499746
C85	C	0.884315	-0.673984	-0.000284
C86	C	1.384315	-0.173984	0.499716
C87	C	0.757047	-0.656933	-0.000257
C88	C	1.257047	-0.156933	0.499743
C89	C	0.758123	-0.584110	-0.000241
C90	C	1.258123	-0.084110	0.499759
C91	C	0.822296	-0.556228	-0.000232
C92	C	1.322296	-0.056228	0.499768
C93	C	0.952163	0.087460	-0.000251
C94	C	1.452163	0.587460	0.499749
C95	C	1.029668	0.088594	-0.000278
C96	C	1.529668	0.588594	0.499722
C97	C	0.819007	0.220626	-0.000252
C98	C	1.319007	0.720626	0.499748
C99	C	0.820148	0.298131	-0.000273
C100	C	1.320148	0.798131	0.499727
N101	N	0.824489	0.092954	0.355899
N102	N	1.324489	0.592954	0.855899
N103	N	0.824506	0.092958	-0.356338
N104	N	1.324506	0.592958	0.143662
C105	C	0.872116	0.045359	0.427826
C106	C	1.372116	0.545359	0.927826
C107	C	0.872123	0.045359	0.571709
C108	C	1.372123	0.545359	1.071709
C109	C	0.776873	0.140556	0.571725
C110	C	1.276873	0.640556	1.071725
C111	C	0.776863	0.140552	0.427845
C112	C	1.276863	0.640552	0.927845
H113	H	0.612522	0.097234	0.225903
H114	H	1.112522	0.597234	0.725903
Cl115	Cl	0.184713	0.090882	-0.281504
Cl116	Cl	0.684713	0.590882	0.218496
H117	H	0.910905	0.006601	0.630269
H118	H	1.410905	0.506601	1.130269
Cl119	Cl	0.184633	0.090887	0.281004
Cl120	Cl	0.684633	0.590887	0.781004
H121	H	0.738098	0.179310	0.630318
H122	H	1.238098	0.679310	1.130318
H123	H	0.036468	0.088699	-0.226343
H124	H	0.536468	0.588699	0.273657
Cl125	Cl	0.966063	-0.566103	-0.000235
Cl126	Cl	1.466063	-0.066103	0.499765
H127	H	0.944187	-0.134445	-0.000183
H128	H	1.444187	0.365555	0.499817
Cl129	Cl	0.678803	-0.527624	-0.000225
Cl130	Cl	1.178803	-0.027624	0.499775
H131	H	0.910895	0.006600	0.369252
H132	H	1.410895	0.506600	0.869252
Cl133	Cl	0.685346	-0.083609	-0.000176
Cl134	Cl	1.185346	0.416391	0.499824
H135	H	0.480476	0.095267	-0.226261
H136	H	0.980476	0.595267	0.273739
H137	H	0.704801	-0.679641	-0.000253
H138	H	1.204801	-0.179641	0.499747
Cl139	Cl	0.716980	0.200388	0.337413
Cl140	Cl	1.216980	0.700388	0.837413
Cl141	Cl	0.628720	0.097454	-0.281422
Cl142	Cl	1.128720	0.597454	0.218578
H143	H	0.942239	-0.266555	-0.000218
H144	H	1.442239	0.233445	0.499782
Cl145	Cl	0.682927	-0.247979	-0.000188
Cl146	Cl	1.182927	0.252021	0.499812
Cl147	Cl	0.963638	-0.730468	-0.000302
Cl148	Cl	1.463638	-0.230468	0.499698
Cl149	Cl	0.464276	0.095031	0.281051
Cl150	Cl	0.964276	0.595031	0.781051
Cl151	Cl	0.020269	0.088456	0.280976
Cl152	Cl	0.520269	0.588456	0.780976
