data_functionalizedCrystal
_audit_creation_method	'MofGen! by Chris Wilmer'
_symmetry_space_group_name_H-M	'P1'
_symmetry_Int_Tables_number	1
_symmetry_cell_setting	triclinic
loop_
_symmetry_equiv_pos_as_xyz
  x,y,z
_cell_length_a	6.817900
_cell_length_b	14.858565
_cell_length_c	14.125465
_cell_angle_alpha	95.622353
_cell_angle_beta	100.398878
_cell_angle_gamma	104.523916
loop_
_atom_site_label
_atom_site_type_symbol
_atom_site_fract_x
_atom_site_fract_y
_atom_site_fract_z
V1	V	-3.996465	-0.127870	-0.300243
V2	V	-3.746465	0.122130	-0.050243
V3	V	-3.496465	0.372130	0.199757
V4	V	-3.246465	0.622130	0.449757
O5	O	-3.979228	0.006967	-0.294252
O6	O	-3.729228	0.256967	-0.044252
O7	O	-3.479228	0.506967	0.205748
O8	O	-3.229228	0.756967	0.455748
O9	O	-3.953312	-0.254336	-0.298455
O10	O	-3.703312	-0.004336	-0.048455
O11	O	-3.453312	0.245664	0.201545
O12	O	-3.203312	0.495664	0.451545
O13	O	-3.932513	-0.125543	-0.431068
O14	O	-3.682513	0.124457	-0.181068
O15	O	-3.432513	0.374457	0.068932
O16	O	-3.182513	0.624457	0.318932
O17	O	-4.000171	-0.122718	-0.160720
O18	O	-3.750171	0.127282	0.089280
O19	O	-3.500171	0.377282	0.339280
O20	O	-3.250171	0.627282	0.589280
V21	V	-4.481428	-0.111785	-0.283523
V22	V	-4.231428	0.138215	-0.033523
V23	V	-3.981428	0.388215	0.216477
V24	V	-3.731428	0.638215	0.466477
O25	O	-4.254564	-0.163155	-0.336920
O26	O	-4.004564	0.086845	-0.086920
O27	O	-3.754564	0.336845	0.163080
O28	O	-3.504564	0.586845	0.413080
O29	O	-4.673526	-0.076500	-0.246845
O30	O	-4.423526	0.173500	0.003155
O31	O	-4.173526	0.423500	0.253155
O32	O	-3.923526	0.673500	0.503155
O33	O	-4.301374	0.014681	-0.285311
O34	O	-4.051374	0.264681	-0.035311
O35	O	-3.801374	0.514681	0.214689
O36	O	-3.551374	0.764681	0.464689
O37	O	-4.616061	-0.246622	-0.289514
O38	O	-4.366061	0.003378	-0.039514
O39	O	-4.116061	0.253378	0.210486
O40	O	-3.866061	0.503378	0.460486
O41	O	-4.595118	-0.116937	-0.423045
O42	O	-4.345118	0.133063	-0.173045
O43	O	-4.095118	0.383063	0.076955
O44	O	-3.845118	0.633063	0.326955
O45	O	-4.322173	-0.114113	-0.152697
O46	O	-4.072173	0.135887	0.097303
O47	O	-3.822173	0.385887	0.347303
O48	O	-3.572173	0.635887	0.597303
C49	C	-3.800092	-0.285177	-0.293787
C50	C	-3.550092	-0.035177	-0.043787
C51	C	-3.300092	0.214823	0.206213
C52	C	-3.050092	0.464823	0.456213
C53	C	-3.845993	-0.388562	-0.293197
C54	C	-3.595993	-0.138562	-0.043197
C55	C	-3.345993	0.111438	0.206803
C56	C	-3.095993	0.361438	0.456803
C57	C	-4.013994	-0.767139	-0.291051
C58	C	-3.763994	-0.517139	-0.041051
C59	C	-3.513994	-0.267139	0.208949
C60	C	-3.263994	-0.017139	0.458949
C61	C	-3.967242	-0.661807	-0.291648
C62	C	-3.717242	-0.411807	-0.041648
C63	C	-3.467242	-0.161807	0.208352
C64	C	-3.217242	0.088193	0.458352
C65	C	-3.929994	-0.577854	-0.292123
C66	C	-3.679994	-0.327854	-0.042123
C67	C	-3.429994	-0.077854	0.207877
C68	C	-3.179994	0.172146	0.457877
C69	C	-3.883241	-0.472515	-0.292722
C70	C	-3.633241	-0.222515	-0.042722
C71	C	-3.383241	0.027485	0.207278
C72	C	-3.133241	0.277485	0.457278
C73	C	-3.773560	-0.120887	-0.462947
C74	C	-3.523560	0.129113	-0.212947
C75	C	-3.273560	0.379113	0.037053
C76	C	-3.023560	0.629113	0.287053
C77	C	-3.802591	-0.119821	-0.569899
C78	C	-3.552591	0.130179	-0.319899
C79	C	-3.302591	0.380179	-0.069899
C80	C	-3.052591	0.630179	0.180101
C81	C	-3.855803	-0.117865	-0.765718
C82	C	-3.605803	0.132135	-0.515718
C83	C	-3.355803	0.382135	-0.265718
C84	C	-3.105803	0.632135	-0.015718
C85	C	-4.041458	-0.121788	-0.818048
C86	C	-3.791458	0.128212	-0.568048
C87	C	-3.541458	0.378212	-0.318048
C88	C	-3.291458	0.628212	-0.068048
C89	C	-4.071068	-0.120700	-0.927008
C90	C	-3.821068	0.129300	-0.677008
C91	C	-3.571068	0.379300	-0.427008
C92	C	-3.321068	0.629300	-0.177008
C93	C	-3.826185	-0.118953	-0.656748
C94	C	-3.576185	0.131047	-0.406748
C95	C	-3.326185	0.381047	-0.156748
C96	C	-3.076185	0.631047	0.093252
C97	C	-4.117936	0.045517	-0.289976
C98	C	-3.867936	0.295517	-0.039976
C99	C	-3.617936	0.545517	0.210024
C100	C	-3.367936	0.795517	0.460024
C101	C	-4.051272	0.148901	-0.290572
C102	C	-3.801272	0.398901	-0.040572
C103	C	-3.551272	0.648901	0.209428
C104	C	-3.301272	0.898901	0.459428
C105	C	-4.144468	-0.118771	-0.120814
C106	C	-3.894468	0.131229	0.129186
C107	C	-3.644468	0.381229	0.379186
C108	C	-3.394468	0.631229	0.629186
C109	C	-4.094676	-0.119833	-0.013861
C110	C	-3.844676	0.130167	0.236139
C111	C	-3.594676	0.380167	0.486139
C112	C	-3.344676	0.630167	0.736139
H113	H	-4.178170	-0.125973	-0.781018
H114	H	-3.928170	0.124027	-0.531018
H115	H	-3.678170	0.374027	-0.281018
H116	H	-3.428170	0.624027	-0.031018
H117	H	-3.719107	-0.113692	-0.802747
H118	H	-3.469107	0.136308	-0.552747
H119	H	-3.219107	0.386308	-0.302747
H120	H	-2.969107	0.636308	-0.052747
