data_functionalizedCrystal
_audit_creation_method	'MofGen! by Chris Wilmer'
_symmetry_space_group_name_H-M	'P1'
_symmetry_Int_Tables_number	1
_symmetry_cell_setting	triclinic
loop_
_symmetry_equiv_pos_as_xyz
  x,y,z
_cell_length_a	16.109302
_cell_length_b	14.853559
_cell_length_c	14.586319
_cell_angle_alpha	89.998399
_cell_angle_beta	89.994552
_cell_angle_gamma	83.546617
loop_
_atom_site_label
_atom_site_type_symbol
_atom_site_fract_x
_atom_site_fract_y
_atom_site_fract_z
O1	O	1.103290	0.115884	-0.076277
O2	O	0.861248	0.130305	-0.076269
O3	O	0.988738	-0.008146	-0.076272
O4	O	0.975800	0.254336	-0.076274
O5	O	0.988729	-0.008148	0.076208
O6	O	0.861239	0.130303	0.076212
O7	O	1.103281	0.115882	0.076204
Cu8	Cu	0.982259	0.123092	0.090130
Cu9	Cu	0.982270	0.123095	-0.090196
O10	O	0.975791	0.254333	0.076207
C11	C	0.830268	0.129720	-0.000028
C12	C	0.737970	0.127968	-0.000025
C13	C	0.525619	0.123917	0.083083
C14	C	0.438896	0.122261	0.083080
C15	C	0.438917	0.122268	-0.083163
C16	C	0.525638	0.123917	-0.083159
C17	C	0.568986	0.124746	-0.000033
C18	C	0.395543	0.121441	-0.000040
C19	C	0.301514	0.119646	-0.000044
C20	C	0.663021	0.126539	-0.000029
C21	C	0.988149	-0.041735	-0.000034
C22	C	0.986396	-0.141816	-0.000039
C23	C	0.978964	-0.564978	-0.083156
C24	C	0.978954	-0.564975	0.083085
C25	C	0.980608	-0.470945	0.083085
C26	C	0.981439	-0.423926	-0.000036
C27	C	0.980615	-0.470939	-0.083158
C28	C	0.981423	-0.423924	0.166206
C29	C	0.983076	-0.329888	0.166210
C30	C	0.983913	-0.282868	0.083088
C31	C	0.983090	-0.329887	-0.000038
C32	C	0.983921	-0.282868	-0.083159
C33	C	0.983104	-0.329886	-0.166285
C34	C	0.981452	-0.423919	-0.166280
C35	C	0.985565	-0.188835	0.083082
C36	C	0.985572	-0.188829	-0.083161
C37	C	1.134261	0.116467	-0.000040
C38	C	1.226559	0.118219	-0.000048
C39	C	0.976380	0.287922	-0.000034
C40	C	0.978133	0.388004	-0.000035
N41	N	0.982258	0.123090	0.216962
N42	N	0.982278	0.123090	-0.217028
C43	C	1.038729	0.061804	0.451967
C44	C	1.038732	0.061802	0.547948
C45	C	0.925800	0.184378	0.547961
C46	C	0.925795	0.184376	0.451981
C47	C	0.982264	0.123090	0.403987
C48	C	0.982272	0.123090	0.595948
C49	C	0.982274	0.123088	0.700015
C50	C	0.982261	0.123090	0.299913
H51	H	0.403590	0.121586	0.150761
H52	H	0.879810	0.234282	0.412913
H53	H	1.084710	0.011897	0.587011
H54	H	0.560949	0.124590	-0.150846
H55	H	1.084709	0.011900	0.412893
H56	H	0.986253	-0.150554	-0.150849
H57	H	0.560910	0.124592	0.150770
H58	H	0.403612	0.121594	-0.150841
H59	H	0.879825	0.234277	0.587047
H60	H	0.983775	-0.291590	-0.233962
H61	H	0.980787	-0.462209	-0.233957
H62	H	0.978302	-0.603264	-0.150835
H63	H	0.978272	-0.603262	0.150758
H64	H	0.980742	-0.462213	0.233878
H65	H	0.983744	-0.291614	0.233896
H66	H	0.986211	-0.150555	0.150762
