data_functionalizedCrystal
_audit_creation_method	'MofGen! by Chris Wilmer'
_symmetry_space_group_name_H-M	'P1'
_symmetry_Int_Tables_number	1
_symmetry_cell_setting	triclinic
loop_
_symmetry_equiv_pos_as_xyz
  x,y,z
_cell_length_a	9.065218
_cell_length_b	26.210047
_cell_length_c	9.065218
_cell_angle_alpha	90.006429
_cell_angle_beta	94.984115
_cell_angle_gamma	90.009233
loop_
_atom_site_label
_atom_site_type_symbol
_atom_site_fract_x
_atom_site_fract_y
_atom_site_fract_z
O1	O	1.960413	0.042428	-0.216336
O2	O	1.531129	0.042429	-0.234082
O3	O	1.754644	0.042427	-0.010567
O4	O	1.736898	0.042429	-0.439851
O5	O	1.754601	-0.042431	-0.010601
O6	O	1.531085	-0.042429	-0.234117
O7	O	1.960370	-0.042430	-0.216371
Cu8	Cu	1.745724	-0.050178	-0.225247
Cu9	Cu	1.745775	0.050177	-0.225206
O10	O	1.736854	-0.042429	-0.439886
C11	C	1.476120	-0.000000	-0.232394
C12	C	1.312277	-0.000000	-0.227294
N13	N	1.745698	-0.120762	-0.225275
C14	C	1.844738	-0.473277	-0.126256
C15	C	1.844770	-0.686935	-0.126236
O16	O	1.928920	-0.714558	-0.042051
N17	N	1.745782	-0.713656	-0.225174
C18	C	1.646773	-0.686959	-0.324117
O19	O	1.562568	-0.714589	-0.408259
C20	C	1.646735	-0.473301	-0.324129
C21	C	1.745739	-0.446583	-0.225194
C22	C	1.943733	-0.446559	-0.027328
C23	C	1.943729	-0.393147	-0.027340
C24	C	1.844731	-0.366454	-0.126279
C25	C	1.745735	-0.393172	-0.225206
C26	C	1.547720	-0.446605	-0.423064
C27	C	1.547716	-0.393187	-0.423055
C28	C	1.646720	-0.366469	-0.324121
C29	C	1.646733	-0.313067	-0.324156
N30	N	1.745721	-0.286346	-0.225218
C31	C	1.844719	-0.313039	-0.126279
C32	C	1.646802	-0.799132	-0.324106
C33	C	1.646813	-0.852546	-0.324105
C34	C	1.844808	-0.852519	-0.126221
C35	C	1.844803	-0.799104	-0.126231
C36	C	1.745790	-0.772411	-0.225168
C37	C	1.844705	-0.200872	-0.126312
C38	C	1.844697	-0.147455	-0.126336
C39	C	1.646697	-0.147487	-0.324214
C40	C	1.646710	-0.200899	-0.324196
C41	C	1.745719	-0.227590	-0.225232
O42	O	1.562616	-0.285411	-0.408285
O43	O	1.928889	-0.285400	-0.042128
C44	C	1.844741	-0.526688	-0.126244
C45	C	1.745746	-0.553406	-0.225172
C46	C	1.646748	-0.526712	-0.324110
C47	C	1.745757	-0.606820	-0.225171
C48	C	1.844756	-0.633514	-0.126232
C49	C	1.943744	-0.606793	-0.027294
C50	C	1.943740	-0.553381	-0.027305
C51	C	1.547760	-0.553433	-0.423048
C52	C	1.547773	-0.606845	-0.423030
C53	C	1.646771	-0.633538	-0.324091
C54	C	2.015378	0.000000	-0.218059
C55	C	2.179221	0.000003	-0.223158
C56	C	1.752917	-0.000001	0.044403
C57	C	1.747817	0.000001	0.208245
N58	N	1.745812	0.120760	-0.225166
C59	C	1.738582	0.000001	-0.494855
C60	C	1.743681	0.000002	-0.658698
H61	H	1.925326	-0.222597	-0.045725
N62	N	1.545564	-0.228188	-0.425247
N63	N	1.409161	-0.222225	-0.421305
H64	H	1.337712	-0.241495	-0.492662
H65	H	1.467141	-0.531703	-0.503615
H66	H	1.467082	-0.371456	-0.503621
N67	N	1.545593	-0.120207	-0.425270
N68	N	1.545612	-0.072516	-0.425248
H69	H	1.474202	-0.053247	-0.496614
N70	N	2.044842	-0.634072	0.073783
N71	N	1.996781	-0.663874	0.166019
H72	H	2.068169	-0.683142	0.237409
H73	H	1.566210	-0.874296	-0.404682
H74	H	2.024358	-0.531632	0.053256
N75	N	1.945807	-0.120157	-0.025267
N76	N	1.945796	-0.072466	-0.025277
H77	H	2.017199	-0.053187	0.046103
H78	H	1.467155	-0.628595	-0.503607
H79	H	2.024343	-0.371396	0.053225
H80	H	1.925420	-0.777353	-0.045669
N81	N	1.446561	-0.473877	-0.524124
N82	N	1.310159	-0.467910	-0.520182
H83	H	1.238706	-0.487170	-0.591562
H84	H	2.024349	-0.468288	0.053246
H85	H	1.566171	-0.777402	-0.404676
N86	N	1.945902	-0.879799	-0.025143
N87	N	1.945865	-0.927490	-0.025149
H88	H	2.017242	-0.946759	0.046248
