data_functionalizedCrystal
_audit_creation_method	'MofGen! by Chris Wilmer'
_symmetry_space_group_name_H-M	'P1'
_symmetry_Int_Tables_number	1
_symmetry_cell_setting	triclinic
loop_
_symmetry_equiv_pos_as_xyz
  x,y,z
_cell_length_a	12.811457
_cell_length_b	12.837942
_cell_length_c	9.130313
_cell_angle_alpha	89.996012
_cell_angle_beta	95.428428
_cell_angle_gamma	89.411937
loop_
_atom_site_label
_atom_site_type_symbol
_atom_site_fract_x
_atom_site_fract_y
_atom_site_fract_z
O1	O	1.406629	0.139674	0.065043
O2	O	1.102567	0.154865	0.024652
O3	O	1.247855	-0.003663	0.043961
O4	O	1.261340	0.298201	0.045734
O5	O	1.247844	-0.003667	0.287558
O6	O	1.102555	0.154860	0.268249
O7	O	1.406617	0.139669	0.308640
Cu8	Cu	1.254585	0.147264	0.310687
Cu9	Cu	1.254599	0.147270	0.022605
O10	O	1.261328	0.298196	0.289331
C11	C	1.063372	0.154012	0.141245
C12	C	0.946601	0.151464	0.125733
C13	C	0.727161	0.146652	0.362185
C14	C	0.617444	0.144257	0.347617
C15	C	0.617447	0.144274	0.082033
C16	C	0.727165	0.146668	0.096600
C17	C	0.782018	0.147858	0.236681
C18	C	0.891737	0.150260	0.251246
C19	C	0.891738	0.150269	-0.014337
C20	C	0.782021	0.147875	-0.028904
C21	C	1.243294	-0.042305	0.165154
C22	C	1.229709	-0.157441	0.163346
C23	C	1.393036	-0.397696	0.185012
C24	C	1.380276	-0.505877	0.183315
C25	C	1.191428	-0.481985	0.158244
C26	C	1.204189	-0.373804	0.159941
C27	C	1.304996	-0.331664	0.173328
C28	C	1.317755	-0.223481	0.175036
C29	C	1.128909	-0.199592	0.149954
C30	C	1.116148	-0.307772	0.148257
C31	C	1.445812	0.140522	0.192044
C32	C	1.562583	0.143070	0.207546
C33	C	1.265889	0.336839	0.168135
C34	C	1.279475	0.451974	0.169933
N35	N	1.254583	0.147260	0.513310
N36	N	1.254608	0.147266	-0.180016
C37	C	1.318944	0.077093	0.598515
C38	C	1.318954	0.077093	0.751853
C39	C	1.190240	0.217436	0.734767
C40	C	1.190225	0.217430	0.581431
H41	H	0.771823	0.147635	0.476243
C42	C	0.557101	0.142991	-0.072041
H43	H	0.605484	0.144056	-0.144707
H44	H	0.512344	0.202467	-0.083471
H45	H	0.516258	0.081651	-0.083006
C46	C	0.721682	0.146585	-0.182982
H47	H	0.770069	0.147647	-0.255641
H48	H	0.676922	0.206058	-0.194425
H49	H	0.680841	0.085243	-0.193945
C50	C	0.952079	0.151568	0.405322
H51	H	1.025279	0.153177	0.396028
H52	H	0.936060	0.090768	0.457754
H53	H	0.932132	0.211583	0.457235
H54	H	1.371346	0.019955	0.543055
C55	C	1.032060	-0.126954	0.137089
H56	H	1.054094	-0.056489	0.140007
H57	H	0.991167	-0.139781	0.216603
H58	H	0.991180	-0.139770	0.046697
C59	C	1.119425	0.294595	0.809695
H60	H	1.081075	0.336367	0.736981
H61	H	1.161487	0.337966	0.875101
H62	H	1.071997	0.257039	0.863206
H63	H	0.936414	0.151258	-0.116532
H64	H	1.475118	-0.363385	0.195927
H65	H	1.109356	-0.516315	0.147329
C66	C	1.389755	-0.000085	0.845574
H67	H	1.428085	-0.041869	0.783038
H68	H	1.347678	-0.043444	0.899818
H69	H	1.437202	0.037447	0.911671
H70	H	1.137810	0.274568	0.512050
C71	C	0.557095	0.143098	0.485666
H72	H	0.483893	0.141543	0.456932
H73	H	0.573173	0.203940	0.542217
H74	H	0.576975	0.083123	0.543009
C75	C	1.428635	-0.177122	0.189760
H76	H	1.423628	-0.103236	0.189113
H77	H	1.465341	-0.199753	0.109684
H78	H	1.465337	-0.199767	0.279591
C79	C	1.477120	-0.578509	0.196175
H80	H	1.538981	-0.537913	0.204401
H81	H	1.476071	-0.621204	0.111089
H82	H	1.476066	-0.621208	0.280996
C83	C	1.005270	-0.354133	0.133541
H84	H	1.010278	-0.428019	0.134214
H85	H	0.968558	-0.331489	0.043727
H86	H	0.968573	-0.331503	0.213636
