data_functionalizedCrystal
_audit_creation_method	'MofGen! by Chris Wilmer'
_symmetry_space_group_name_H-M	'P1'
_symmetry_Int_Tables_number	1
_symmetry_cell_setting	triclinic
loop_
_symmetry_equiv_pos_as_xyz
  x,y,z
_cell_length_a	12.759401
_cell_length_b	25.639240
_cell_length_c	25.639233
_cell_angle_alpha	89.974071
_cell_angle_beta	89.988407
_cell_angle_gamma	90.034283
loop_
_atom_site_label
_atom_site_type_symbol
_atom_site_fract_x
_atom_site_fract_y
_atom_site_fract_z
Zn1	Zn	1.606038	-0.208193	-0.295569
Zn2	Zn	2.106038	0.291807	0.204431
Zn3	Zn	1.605902	-0.295612	-0.208122
Zn4	Zn	2.105902	0.204388	0.291878
Zn5	Zn	1.430365	-0.208195	-0.208149
Zn6	Zn	1.930365	0.291805	0.291851
Zn7	Zn	1.430273	-0.295602	-0.295528
Zn8	Zn	1.930273	0.204398	0.204472
O9	O	1.518144	-0.251900	-0.251842
O10	O	2.018144	0.248100	0.248158
O11	O	1.753041	-0.219793	-0.283974
O12	O	2.253041	0.280207	0.216026
O13	O	1.582598	-0.284021	-0.134960
O14	O	2.082598	0.215979	0.365040
O15	O	1.453764	-0.135029	-0.219774
O16	O	1.953764	0.364971	0.280226
O17	O	1.752941	-0.284019	-0.219728
O18	O	2.252941	0.215981	0.280272
O19	O	1.582830	-0.135028	-0.284000
O20	O	2.082830	0.364972	0.216000
O21	O	1.453632	-0.219796	-0.134980
O22	O	1.953632	0.280204	0.365020
O23	O	1.283332	-0.219786	-0.219734
O24	O	1.783332	0.280214	0.280266
O25	O	1.453607	-0.284002	-0.368699
O26	O	1.953607	0.215998	0.131301
O27	O	1.283264	-0.284003	-0.283931
O28	O	1.783264	0.215997	0.216069
O29	O	1.582740	-0.219783	-0.368729
O30	O	2.082740	0.280217	0.131271
O31	O	1.582509	-0.368776	-0.219688
O32	O	2.082509	0.131224	0.280312
O33	O	1.453475	-0.368768	-0.283905
O34	O	1.953475	0.131232	0.216095
C35	C	1.245177	-0.251894	-0.251832
C36	C	1.745177	0.248106	0.248168
C37	C	1.128400	-0.251904	-0.251840
C38	C	1.628400	0.248096	0.248160
C39	C	1.073531	-0.285393	-0.285214
C40	C	1.573531	0.214607	0.214786
C41	C	0.963807	-0.285395	-0.285225
C42	C	1.463807	0.214605	0.214775
C43	C	0.963832	-0.218417	-0.218481
C44	C	1.463832	0.281583	0.281519
C45	C	1.073554	-0.218413	-0.218474
C46	C	1.573554	0.281587	0.281526
C47	C	0.813878	-0.304174	-0.346860
C48	C	1.313878	0.195826	0.153140
C49	C	0.759005	-0.337671	-0.380230
C50	C	1.259005	0.162329	0.119770
C51	C	0.794568	-0.388698	-0.388155
C52	C	1.294568	0.111302	0.111845
C53	C	0.885002	-0.406238	-0.362703
C54	C	1.385002	0.093762	0.137297
C55	C	0.939870	-0.372744	-0.329328
C56	C	1.439870	0.127256	0.170672
C57	C	0.904309	-0.321710	-0.321413
C58	C	1.404309	0.178290	0.178587
C59	C	1.223484	-0.199639	-0.156838
C60	C	1.723484	0.300361	0.343162
C61	C	1.278353	-0.166147	-0.123461
C62	C	1.778353	0.333853	0.376539
C63	C	1.242793	-0.115119	-0.115530
C64	C	1.742793	0.384881	0.384470
C65	C	1.152355	-0.097581	-0.140974
C66	C	1.652355	0.402419	0.359026
C67	C	1.097485	-0.131073	-0.174351
C68	C	1.597485	0.368927	0.325649
C69	C	1.133053	-0.182100	-0.182282
C70	C	1.633053	0.317900	0.317718
C71	C	1.517996	-0.387743	-0.251801
C72	C	2.017996	0.112257	0.248199
C73	C	1.518028	-0.445857	-0.251801
C74	C	2.018028	0.054143	0.248199
C75	C	1.585382	-0.806181	-0.285345
C76	C	2.085382	-0.306181	0.214655
C77	C	1.585413	-0.860785	-0.285356
C78	C	2.085413	-0.360785	0.214644
O79	O	1.642503	-0.888989	-0.313834
O80	O	2.142503	-0.388989	0.186166
N81	N	1.518290	-0.888139	-0.251892
N82	N	2.018290	-0.388139	0.248108
C83	C	1.451124	-0.860886	-0.218420
C84	C	1.951124	-0.360886	0.281580
O85	O	1.394033	-0.889167	-0.189958
O86	O	1.894033	-0.389167	0.310042
C87	C	1.451089	-0.806283	-0.218412
C88	C	1.951089	-0.306283	0.281588
C89	C	1.518224	-0.778932	-0.251874
C90	C	2.018224	-0.278932	0.248126
C91	C	1.652511	-0.778830	-0.318805
C92	C	2.152511	-0.278830	0.181195
C93	C	1.652481	-0.724229	-0.318793
C94	C	2.152481	-0.224229	0.181207
C95	C	1.585323	-0.696980	-0.285322
C96	C	2.085323	-0.196980	0.214678
C97	C	1.518194	-0.724331	-0.251863
C98	C	2.018194	-0.224331	0.248137
C99	C	1.383918	-0.779031	-0.184943
C100	C	1.883918	-0.279031	0.315057
C101	C	1.383888	-0.724424	-0.184939
C102	C	1.883888	-0.224424	0.315061
C103	C	1.451023	-0.697073	-0.218400
C104	C	1.951023	-0.197073	0.281600
C105	C	1.451005	-0.642482	-0.218380
C106	C	1.951005	-0.142482	0.281620
N107	N	1.518128	-0.615127	-0.251844
N108	N	2.018128	-0.115127	0.248156
C109	C	1.585287	-0.642377	-0.285315
C110	C	2.085287	-0.142377	0.214685
C111	C	1.451202	-0.975557	-0.218439
C112	C	1.951202	-0.475557	0.281561
C113	C	1.451242	-1.030159	-0.218444
C114	C	1.951242	-0.530159	0.281556
C115	C	1.585531	-1.030054	-0.285380
C116	C	2.085531	-0.530054	0.214620
C117	C	1.585495	-0.975451	-0.285373
C118	C	2.085495	-0.475451	0.214627
C119	C	1.518326	-0.948203	-0.251903
C120	C	2.018326	-0.448203	0.248097
C121	C	1.585220	-0.527712	-0.285288
C122	C	2.085220	-0.027712	0.214712
C123	C	1.585187	-0.473106	-0.285272
C124	C	2.085187	0.026894	0.214728
C125	C	1.450896	-0.473216	-0.218337
C126	C	1.950896	0.026784	0.281663
C127	C	1.450932	-0.527816	-0.218351
C128	C	1.950932	-0.027816	0.281649
C129	C	1.518097	-0.555063	-0.251831
C130	C	2.018097	-0.055063	0.248169
O131	O	1.393941	-0.614243	-0.189918
O132	O	1.893941	-0.114243	0.310082
O133	O	1.642359	-0.614089	-0.313777
O134	O	2.142359	-0.114089	0.186223
C135	C	1.792178	-0.251907	-0.251853
C136	C	2.292178	0.248093	0.248147
C137	C	1.908954	-0.251910	-0.251857
C138	C	2.408954	0.248090	0.248143
C139	C	1.518178	-0.251891	-0.388215
C140	C	2.018178	0.248109	0.111785
C141	C	1.518193	-0.251887	-0.446329
C142	C	2.018193	0.248113	0.053671
C143	C	1.518322	-0.115527	-0.251895
C144	C	2.018322	0.384473	0.248105
C145	C	1.518398	-0.057413	-0.251917
C146	C	2.018398	0.442587	0.248083
C147	C	1.585518	-0.218349	-0.806713
C148	C	2.085518	0.281651	-0.306713
C149	C	1.585531	-0.218335	-0.861318
C150	C	2.085531	0.281665	-0.361318
O151	O	1.642688	-0.189881	-0.889573
O152	O	2.142688	0.310119	-0.389573
N153	N	1.518308	-0.251765	-0.888612
N154	N	2.018308	0.248235	-0.388612
C155	C	1.451061	-0.285207	-0.861299
C156	C	1.951061	0.214793	-0.361299
O157	O	1.393884	-0.313641	-0.889528
O158	O	1.893884	0.186359	-0.389528
C159	C	1.451044	-0.285219	-0.806695
C160	C	1.951044	0.214781	-0.306695
C161	C	1.518278	-0.251791	-0.779404
C162	C	2.018278	0.248209	-0.279404
C163	C	1.652746	-0.184923	-0.779422
C164	C	2.152746	0.315077	-0.279422
C165	C	1.652734	-0.184939	-0.724822
C166	C	2.152734	0.315061	-0.224822
C167	C	1.585494	-0.218380	-0.697512
C168	C	2.085494	0.281620	-0.197512
C169	C	1.518266	-0.251806	-0.724804
C170	C	2.018266	0.248194	-0.224804
C171	C	1.383792	-0.318659	-0.779383
C172	C	1.883792	0.181341	-0.279383
C173	C	1.383780	-0.318667	-0.724776
C174	C	1.883780	0.181333	-0.224776
C175	C	1.451014	-0.285239	-0.697485
C176	C	1.951014	0.214761	-0.197485
C177	C	1.451015	-0.285262	-0.642894
C178	C	1.951015	0.214738	-0.142894
N179	N	1.518237	-0.251833	-0.615600
N180	N	2.018237	0.248167	-0.115600
C181	C	1.585477	-0.218391	-0.642909
C182	C	2.085477	0.281609	-0.142909
C183	C	1.451102	-0.285180	-0.975969
C184	C	1.951102	0.214820	-0.475969
C185	C	1.451124	-0.285172	-1.030572
C186	C	1.951124	0.214828	-0.530572
C187	C	1.585592	-0.218298	-1.030587
C188	C	2.085592	0.281702	-0.530587
C189	C	1.585575	-0.218310	-0.975984
C190	C	2.085575	0.281690	-0.475984
C191	C	1.518324	-0.251750	-0.948675
C192	C	2.018324	0.248250	-0.448675
C193	C	1.585447	-0.218426	-0.528244
C194	C	2.085447	0.281574	-0.028244
C195	C	1.585432	-0.218446	-0.473638
C196	C	2.085432	0.281554	0.026362
C197	C	1.450961	-0.285317	-0.473628
C198	C	1.950961	0.214683	0.026372
C199	C	1.450979	-0.285300	-0.528228
C200	C	1.950979	0.214700	-0.028228
C201	C	1.518226	-0.251850	-0.555535
C202	C	2.018226	0.248150	-0.055535
O203	O	1.393883	-0.313700	-0.614604
O204	O	1.893883	0.186300	-0.114604
O205	O	1.642634	-0.189958	-0.614673
O206	O	2.142634	0.310042	-0.114673
C207	C	1.518171	-0.251872	-0.115999
C208	C	2.018171	0.248128	0.384001
C209	C	1.518360	-0.251728	-0.057886
C210	C	2.018360	0.248272	0.442114
H211	H	0.913944	-0.447792	-0.369154
H212	H	1.413944	0.052208	0.130846
H213	H	1.640202	-0.191186	-0.550471
H214	H	2.140202	0.308814	-0.050471
H215	H	1.329004	-0.345893	-0.702544
H216	H	1.829004	0.154107	-0.202544
H217	H	1.640186	-0.191224	-0.451420
H218	H	2.140186	0.308776	0.048580
H219	H	1.639860	-0.450838	-0.312520
H220	H	2.139860	0.049162	0.187480
H221	H	1.013500	-0.387025	-0.308605
H222	H	1.513500	0.112975	0.191395
H223	H	1.396219	-0.451021	-0.191084
H224	H	1.896219	0.048979	0.308916
H225	H	1.396508	-0.953374	-0.191179
H226	H	1.896508	-0.453374	0.308821
H227	H	1.396337	-0.312414	-0.953738
H228	H	1.896337	0.187586	-0.453738
H229	H	1.023851	-0.116787	-0.195072
H230	H	1.523851	0.383213	0.304928
H231	H	1.287473	-0.087852	-0.088347
H232	H	1.787473	0.412148	0.411653
H233	H	1.329250	-0.801291	-0.157695
H234	H	1.829250	-0.301291	0.342305
H235	H	1.351993	-0.180432	-0.102743
H236	H	1.851993	0.319568	0.397257
H237	H	1.396273	-0.550087	-0.191100
H238	H	1.896273	-0.050087	0.308900
H239	H	1.396241	-0.312525	-0.550450
H240	H	1.896241	0.187475	-0.050450
H241	H	1.707481	-0.157717	-0.702606
H242	H	2.207481	0.342283	-0.202606
H243	H	1.396219	-0.312546	-0.451383
H244	H	1.896219	0.187454	0.048617
H245	H	0.749882	-0.415972	-0.415327
H246	H	1.249882	0.084028	0.084673
H247	H	1.707501	-0.157688	-0.801652
H248	H	2.207501	0.342312	-0.301652
H249	H	1.640321	-0.191089	-0.953767
H250	H	2.140321	0.308911	-0.453767
H251	H	1.707200	-0.801010	-0.346064
H252	H	2.207200	-0.301010	0.153936
H253	H	0.685374	-0.323385	-0.400954
H254	H	1.185374	0.176615	0.099046
H255	H	1.640340	-0.191067	-1.052832
H256	H	2.140340	0.308933	-0.552832
H257	H	1.640162	-0.953185	-0.312621
H258	H	2.140162	-0.453185	0.187379
H259	H	1.396386	-0.312398	-1.052787
H260	H	1.896386	0.187602	-0.552787
H261	H	1.329042	-0.345880	-0.801594
H262	H	1.829042	0.154120	-0.301594
H263	H	1.707145	-0.701963	-0.346042
H264	H	2.207145	-0.201963	0.153958
H265	H	1.329187	-0.702241	-0.157684
H266	H	1.829187	-0.202241	0.342316
H267	H	0.919162	-0.191151	-0.191315
H268	H	1.419162	0.308849	0.308685
H269	H	0.784922	-0.262622	-0.340416
H270	H	1.284922	0.237378	0.159584
H271	H	1.118184	-0.312662	-0.312384
H272	H	1.618184	0.187338	0.187616
H273	H	1.123388	-0.056033	-0.134508
H274	H	1.623388	0.443967	0.365492
H275	H	1.639905	-0.549889	-0.312554
H276	H	2.139905	-0.049889	0.187446
H277	H	1.252453	-0.241189	-0.163297
H278	H	1.752453	0.258811	0.336703
H279	H	1.640213	-1.052251	-0.312635
H280	H	2.140213	-0.552251	0.187365
H281	H	1.396586	-1.052424	-0.191190
H282	H	1.896586	-0.552424	0.308810
