data_functionalizedCrystal
_audit_creation_method	'MofGen! by Chris Wilmer'
_symmetry_space_group_name_H-M	'P1'
_symmetry_Int_Tables_number	1
_symmetry_cell_setting	triclinic
loop_
_symmetry_equiv_pos_as_xyz
  x,y,z
_cell_length_a	13.262402
_cell_length_b	16.992695
_cell_length_c	11.804783
_cell_angle_alpha	102.511451
_cell_angle_beta	61.250540
_cell_angle_gamma	92.565916
loop_
_atom_site_label
_atom_site_type_symbol
_atom_site_fract_x
_atom_site_fract_y
_atom_site_fract_z
O1	O	1.478605	-0.160160	-0.379870
O2	O	1.152557	-0.156492	-0.274267
O3	O	1.314276	-0.044121	-0.326656
O4	O	1.316886	-0.272532	-0.327482
O5	O	1.357283	-0.074525	-0.538623
O6	O	1.195564	-0.186897	-0.486235
O7	O	1.521612	-0.190565	-0.591838
Cu8	Cu	1.362515	-0.191507	-0.558391
Cu9	Cu	1.311654	-0.155550	-0.307714
O10	O	1.359893	-0.302937	-0.539450
C11	C	1.132148	-0.169103	-0.366676
C12	C	1.007262	-0.161371	-0.326227
C13	C	0.925145	-0.141163	-0.191677
C14	C	0.807807	-0.133906	-0.153675
C15	C	0.772576	-0.146850	-0.250220
C16	C	0.854694	-0.167053	-0.384773
C17	C	0.972042	-0.174316	-0.422779
C18	C	0.819473	-0.180003	-0.481321
C19	C	0.901591	-0.200206	-0.615875
C20	C	1.018928	-0.207468	-0.653874
C21	C	1.054159	-0.194524	-0.557329
C22	C	0.702125	-0.172740	-0.443316
C23	C	0.749022	-0.205893	-0.674417
C24	C	0.866360	-0.213150	-0.712419
C25	C	1.332417	-0.029944	-0.431550
C26	C	1.322383	0.057597	-0.428300
C27	C	1.542020	-0.177954	-0.499426
C28	C	1.666905	-0.185685	-0.539867
C29	C	1.341752	-0.317113	-0.434553
C30	C	1.351784	-0.404653	-0.437794
N31	N	1.398296	-0.216797	-0.734706
C32	C	1.419195	0.103043	-0.459658
C33	C	1.409758	0.185298	-0.456590
C34	C	1.303510	0.222106	-0.422173
C35	C	1.206690	0.176655	-0.390809
C36	C	1.216126	0.094402	-0.393868
C37	C	1.264400	0.467643	-0.409490
C38	C	1.254972	0.549901	-0.406437
C39	C	1.458041	0.558539	-0.472215
C40	C	1.467469	0.476284	-0.475279
C41	C	1.370648	0.430841	-0.443908
N42	N	1.293862	0.306184	-0.419041
N43	N	1.380295	0.346766	-0.447032
C44	C	1.189917	-0.069515	-1.041248
C45	C	1.162826	-0.050377	-0.907823
C46	C	1.221691	-0.091981	-0.864537
C47	C	1.307652	-0.152725	-0.954690
C48	C	1.334751	-0.171861	-1.088130
C49	C	1.366526	-0.194327	-0.911419
C50	C	1.452486	-0.255071	-1.001571
C51	C	1.479581	-0.274204	-1.134997
C52	C	1.420716	-0.232600	-1.178283
C53	C	1.339426	-0.175191	-0.777979
C54	C	1.484261	-0.277537	-0.824860
C55	C	1.511351	-0.296674	-0.958285
N56	N	1.275881	-0.130254	-0.131402
H57	H	0.740955	-0.117458	-0.044122
N58	N	0.711027	-0.219856	-0.778550
H59	H	0.666756	-0.169616	-0.768311
H60	H	0.780994	-0.232688	-0.869529
N61	N	0.646023	-0.139014	-0.209244
H62	H	0.603798	-0.179095	-0.153181
H63	H	0.613406	-0.082393	-0.156322
N64	N	1.192462	-0.071342	-0.720626
H65	H	1.165653	-0.120649	-0.681922
H66	H	1.263111	-0.052981	-0.713554
N67	N	1.159974	0.418638	-0.375660
H68	H	1.182063	0.360947	-0.382808
H69	H	1.098052	0.442404	-0.282186
H70	H	1.442764	-0.248182	-1.286926
H71	H	1.581342	-0.346134	-1.031705
H72	H	1.142006	-0.035643	-1.076509
H73	H	1.488594	0.222296	-0.482127
N74	N	1.111720	0.045371	-0.360076
H75	H	1.095165	0.022316	-0.281305
H76	H	1.043043	0.081205	-0.337883
H77	H	1.549584	-0.323659	-1.208401
H78	H	1.085786	-0.223926	-0.763436
N79	N	1.092089	0.216351	-0.353680
H80	H	1.100801	0.275353	-0.356504
H81	H	1.065344	0.188817	-0.418432
N82	N	1.070124	0.015137	-0.810594
H83	H	1.036944	0.038589	-0.858258
H84	H	1.007015	-0.008518	-0.738441
H85	H	0.635275	-0.156291	-0.333761
N86	N	1.547765	-0.322411	-0.778194
H87	H	1.517553	-0.301074	-0.679985
H88	H	1.535419	-0.381929	-0.795987
N89	N	0.963143	-0.127210	-0.087558
H90	H	1.049939	-0.134879	-0.132054
H91	H	0.937146	-0.070360	-0.032000
H92	H	1.536867	0.595548	-0.497753
N93	N	0.954935	-0.234953	-0.857539
H94	H	0.914820	-0.242054	-0.912940
H95	H	1.009390	-0.190348	-0.879883
N96	N	1.246715	-0.109680	-0.680759
H97	H	1.183532	-0.133281	-0.608585
H98	H	1.281049	-0.065655	-0.640220
H99	H	1.505716	0.073079	-0.487691
N100	N	1.180717	-0.202332	-0.598298
H101	H	1.195043	-0.245905	-0.560537
H102	H	1.227327	-0.217063	-0.698187
H103	H	1.553988	0.446321	-0.503305
N104	N	1.140370	0.589604	-0.369313
H105	H	1.080464	0.548336	-0.349899
H106	H	1.116101	0.634813	-0.288037
