data_functionalizedCrystal
_audit_creation_method	'MofGen! by Chris Wilmer'
_symmetry_space_group_name_H-M	'P1'
_symmetry_Int_Tables_number	1
_symmetry_cell_setting	triclinic
loop_
_symmetry_equiv_pos_as_xyz
  x,y,z
_cell_length_a	27.440280
_cell_length_b	17.917603
_cell_length_c	17.917603
_cell_angle_alpha	60.138055
_cell_angle_beta	90.006544
_cell_angle_gamma	63.032973
loop_
_atom_site_label
_atom_site_type_symbol
_atom_site_fract_x
_atom_site_fract_y
_atom_site_fract_z
Zr1	Zr	0.497304	0.806776	-0.128965
O2	O	0.427375	0.951821	-0.249514
O3	O	0.515400	0.654546	-0.087310
O4	O	0.524229	0.796396	-0.242717
O5	O	0.415382	0.820664	0.023134
O6	O	0.604431	0.796383	-0.242702
O7	O	0.418545	0.809970	-0.094107
O8	O	0.588637	0.542638	0.035293
O9	O	0.431176	1.074409	-0.254861
O10	O	0.587008	0.719812	-0.075212
O11	O	0.524794	0.727803	0.012272
O12	O	0.535189	0.894814	-0.170699
O13	O	0.472975	0.902804	-0.083215
Zr14	Zr	0.620172	0.823811	0.058045
Zr15	Zr	0.625217	0.806756	-0.128941
Zr16	Zr	0.492259	0.823832	0.058021
Zr17	Zr	0.503367	1.002291	-0.137492
Zr18	Zr	0.614109	0.628297	0.066573
O19	O	0.602077	0.976042	0.016391
O20	O	0.609250	0.951791	-0.249479
O21	O	0.420201	0.976072	0.016356
O22	O	0.690102	0.678767	0.178595
O23	O	0.697275	0.654516	-0.087275
O24	O	0.508226	0.678797	0.178560
O25	O	0.702094	0.809924	-0.094053
O26	O	0.593248	0.834191	0.171797
O27	O	0.513046	0.834205	0.171782
O28	O	0.698931	0.820618	0.023188
O29	O	0.532850	1.074392	-0.254841
O30	O	0.584627	0.556195	0.183922
O31	O	0.686300	0.556179	0.183941
O32	O	0.690310	0.542622	0.035312
O33	O	0.427166	1.087966	-0.106232
O34	O	0.528840	1.087950	-0.106212
O35	O	0.582287	0.735774	0.099780
O36	O	0.644502	0.727783	0.012295
O37	O	0.592682	0.902785	-0.083192
O38	O	0.530468	0.910776	0.004292
C39	C	0.551154	0.570735	-0.024794
C40	C	0.548580	0.487735	-0.021174
C41	C	0.543878	0.335769	-0.014563
C42	C	0.573597	0.294815	-0.056354
C43	C	0.570981	0.210256	-0.052676
C44	C	0.546494	0.420335	-0.018240
C45	C	0.398739	0.815320	-0.035490
C46	C	0.344436	0.815329	-0.035501
C47	C	0.034784	0.723930	0.014408
C48	C	-0.016235	0.723925	0.014416
O49	O	-0.019619	0.646238	0.056833
N50	N	-0.068800	0.815272	-0.035428
C51	C	-0.070346	0.906632	-0.085276
O52	O	-0.119742	0.984330	-0.127671
C53	C	-0.019328	0.906637	-0.085278
C54	C	0.033237	0.815282	-0.035438
C55	C	0.087347	0.632583	0.064245
C56	C	0.138362	0.632588	0.064236
C57	C	0.136815	0.723941	0.014389
C58	C	0.084252	0.815287	-0.035448
C59	C	-0.020875	0.997996	-0.135121
C60	C	0.030149	0.997992	-0.135118
C61	C	0.082714	0.906638	-0.085278
C62	C	0.133720	0.906645	-0.085304
N63	N	0.186285	0.815297	-0.035459
C64	C	0.187833	0.723945	0.014387
C65	C	-0.177486	0.906616	-0.085266
C66	C	-0.228503	0.906612	-0.085269
C67	C	-0.174388	0.723904	0.014424
C68	C	-0.123370	0.723909	0.014422
C69	C	-0.124920	0.815268	-0.035422
C70	C	0.294967	0.723963	0.014363
C71	C	0.345984	0.723976	0.014346
C72	C	0.291864	0.906684	-0.085344
C73	C	0.240851	0.906671	-0.085331
C74	C	0.242406	0.815303	-0.035471
O75	O	0.137148	0.984292	-0.127695
O76	O	0.237231	0.646261	0.056784
C77	C	0.718738	0.815268	-0.035429
C78	C	0.773040	0.815259	-0.035419
C79	C	0.565049	0.793960	-0.269351
C80	C	0.567190	0.786719	-0.348731
C81	C	0.566322	1.059852	-0.046126
C82	C	0.568896	1.142853	-0.049746
C83	C	0.571115	0.773493	-0.494086
C84	C	0.546363	0.857090	-0.576836
C85	C	0.548547	0.849731	-0.657717
C86	C	0.568932	0.780850	-0.413196
C87	C	0.552428	0.836628	0.198431
C88	C	0.550286	0.843869	0.277812
C89	C	0.711154	0.570709	-0.024763
C90	C	0.762882	0.487700	-0.021133
C91	C	0.544844	0.592070	0.209097
C92	C	0.540128	0.516309	0.292098
C93	C	0.704843	0.592044	0.209128
C94	C	0.754430	0.516274	0.292139
C95	C	0.412633	1.038544	-0.280047
C96	C	0.363046	1.114313	-0.363058
C97	C	0.406323	1.059878	-0.046156
C98	C	0.354594	1.142888	-0.049787
C99	C	0.572633	1.038518	-0.280017
C100	C	0.577348	1.114279	-0.363017
C101	C	0.757164	0.444556	-0.065114
C102	C	0.805764	0.366569	-0.061720
C103	C	0.860082	0.331722	-0.014341
C104	C	0.865799	0.374873	0.029641
C105	C	0.817200	0.452864	0.026242
C106	C	0.567924	0.484893	0.376761
C107	C	0.563492	0.413720	0.454756
C108	C	0.531266	0.373959	0.448085
C109	C	0.503466	0.405382	0.363412
C110	C	0.507896	0.476559	0.285420
C111	C	0.810197	0.476522	0.285456
C112	C	0.856795	0.405339	0.363445
C113	C	0.847624	0.373905	0.448118
C114	C	0.791851	0.413665	0.454799
C115	C	0.745255	0.484852	0.376810
C116	C	0.307279	1.154076	-0.356375
C117	C	0.260683	1.225283	-0.434366
C118	C	0.269854	1.256721	-0.519039
C119	C	0.325627	1.216956	-0.525720
C120	C	0.372222	1.145755	-0.447730
C121	C	0.360313	1.186039	-0.005814
C122	C	0.311714	1.264046	-0.009229
C123	C	0.257396	1.298896	-0.056611
C124	C	0.251679	1.255741	-0.100589
C125	C	0.300277	1.177740	-0.097180
C126	C	0.609579	1.154018	-0.356317
C127	C	0.614021	1.225193	-0.434297
C128	C	0.586228	1.256633	-0.518977
C129	C	0.553996	1.216886	-0.525675
C130	C	0.549558	1.145707	-0.447695
H131	H	0.388784	0.649581	0.054935
H132	H	0.316380	1.299171	0.026588
C133	C	-0.172692	0.623418	0.069267
H134	H	-0.210607	0.636507	0.062136
H135	H	-0.152104	0.582102	0.048437
H136	H	-0.154330	0.589663	0.131072
C137	C	0.199340	1.269003	-0.427001
H138	H	0.200555	1.240065	-0.365401
H139	H	0.181150	1.340153	-0.457398
H140	H	0.178473	1.253742	-0.453647
C141	C	0.601941	0.669347	-0.480432
H142	H	0.617184	0.617859	-0.417875
H143	H	0.575558	0.662986	-0.507511
H144	H	0.632105	0.662941	-0.507482
H145	H	-0.063668	1.072386	-0.175705
C146	C	0.218595	1.335026	-0.604819
H147	H	0.184070	1.354190	-0.588704
H148	H	0.221378	1.392805	-0.641226
H149	H	0.218706	1.306375	-0.637439
C150	C	0.603372	0.528624	0.384112
H151	H	0.602037	0.575512	0.325542
H152	H	0.588046	0.561882	0.413768
H153	H	0.641906	0.475453	0.417557
H154	H	0.299801	1.128483	-0.287438
H155	H	0.523531	0.934187	-0.586939
H156	H	0.527663	0.316002	0.511599
C157	C	0.610620	0.333241	-0.108427
H158	H	0.607539	0.385865	-0.104107
H159	H	0.649391	0.279352	-0.083446
H160	H	0.597758	0.358237	-0.169863
H161	H	0.333087	1.242562	-0.594669
H162	H	0.589847	1.314592	-0.582466
C163	C	0.433563	1.102011	-0.455092
H164	H	0.432346	1.130928	-0.516691
H165	H	0.454440	1.117255	-0.428450
H166	H	0.451742	1.030857	-0.424690
C167	C	0.028439	1.098490	-0.189953
H168	H	-0.010174	1.152889	-0.219637
H169	H	0.046106	1.106061	-0.150710
H170	H	0.048325	1.098523	-0.233357
C171	C	0.820297	0.511089	0.192326
H172	H	0.860186	0.477219	0.199528
H173	H	0.802136	0.495480	0.161882
H174	H	0.804809	0.581898	0.158120
C175	C	0.506867	0.297330	0.037524
H176	H	0.488571	0.334132	0.063276
H177	H	0.478783	0.306497	-0.002475
H178	H	0.530426	0.227629	0.083928
C179	C	0.420056	1.147719	0.046311
H180	H	0.416494	1.184605	0.071999
H181	H	0.437809	1.078031	0.092750
H182	H	0.442719	1.156903	0.006331
C183	C	0.925548	0.336523	0.081773
H184	H	0.922000	0.373383	0.107483
H185	H	0.943290	0.266832	0.128196
H186	H	0.948214	0.345705	0.041797
C187	C	0.203943	1.384692	-0.060352
H188	H	0.215133	1.405389	-0.027368
H189	H	0.184315	1.440243	-0.121196
H190	H	0.179408	1.361363	-0.034778
H191	H	0.586132	0.388144	0.523692
H192	H	0.477228	0.372998	0.357994
C193	C	0.918138	0.361581	0.356086
H194	H	0.944580	0.314683	0.414656
H195	H	0.922488	0.328330	0.326429
H196	H	0.925192	0.414735	0.322643
C197	C	0.191927	1.294076	-0.152699
H198	H	0.163807	1.346701	-0.148417
H199	H	0.190005	1.319024	-0.214117
H200	H	0.185103	1.240146	-0.127690
H201	H	0.295613	1.142608	-0.132985
H202	H	0.632211	1.128431	-0.287374
H203	H	0.198050	0.981058	-0.125927
H204	H	0.485262	0.502128	0.216486
H205	H	0.640266	1.257548	-0.428826
H206	H	0.531369	1.242496	-0.594631
H207	H	0.296241	0.649563	0.054964
C208	C	0.196178	0.532098	0.119070
H209	H	0.189784	0.477700	0.148762
H210	H	0.218322	0.524520	0.079830
H211	H	0.216090	0.532072	0.162469
C212	C	0.089060	0.532086	0.119076
H213	H	0.127676	0.477692	0.148746
H214	H	0.069173	0.532037	0.162476
H215	H	0.071399	0.524516	0.079820
H216	H	0.712940	0.472926	-0.103706
H217	H	0.885570	0.315939	0.511614
H218	H	0.821864	0.487983	0.062062
C219	C	0.781770	0.379071	0.547941
H220	H	0.817511	0.330972	0.593425
H221	H	0.762130	0.435644	0.552058
H222	H	0.759457	0.349230	0.555810
C223	C	0.799464	0.319106	-0.110092
H224	H	0.760152	0.351021	-0.138779
H225	H	0.819622	0.327945	-0.153878
H226	H	0.814723	0.249066	-0.067449
C227	C	0.514093	1.102016	-0.455072
H228	H	0.515427	1.055118	-0.396508
H229	H	0.475565	1.155200	-0.488520
H230	H	0.529414	1.068759	-0.484734
H231	H	0.899650	0.268215	-0.011579
H232	H	-0.080572	0.649520	0.055014
H233	H	-0.271300	0.981001	-0.125866
H234	H	-0.178756	0.981016	-0.125859
C235	C	0.290172	1.007159	-0.140215
H236	H	0.328086	0.994070	-0.133084
H237	H	0.271807	1.040891	-0.202009
H238	H	0.269585	1.048498	-0.119400
C239	C	0.683913	0.528561	0.384173
H240	H	0.685130	0.499632	0.445772
H241	H	0.665716	0.599713	0.353765
H242	H	0.663052	0.513282	0.357540
