data_functionalizedCrystal
_audit_creation_method	'MofGen! by Chris Wilmer'
_symmetry_space_group_name_H-M	'P1'
_symmetry_Int_Tables_number	1
_symmetry_cell_setting	triclinic
loop_
_symmetry_equiv_pos_as_xyz
  x,y,z
_cell_length_a	27.732048
_cell_length_b	15.944551
_cell_length_c	14.421503
_cell_angle_alpha	90.003141
_cell_angle_beta	89.999321
_cell_angle_gamma	96.929303
loop_
_atom_site_label
_atom_site_type_symbol
_atom_site_fract_x
_atom_site_fract_y
_atom_site_fract_z
O1	O	0.062334	-1.113714	-0.077025
O2	O	0.070020	-0.869064	-0.077050
O3	O	-0.004187	-0.998987	-0.077019
O4	O	0.136540	-0.983791	-0.077056
O5	O	-0.004176	-0.998966	0.077204
O6	O	0.070031	-0.869042	0.077174
O7	O	0.062345	-1.113693	0.077198
Cu8	Cu	0.066189	-0.991366	0.091268
Cu9	Cu	0.066176	-0.991391	-0.091119
O10	O	0.136552	-0.983769	0.077168
C11	C	0.069706	-0.837763	0.000059
C12	C	0.068749	-0.744530	0.000051
C13	C	-0.022190	-0.998658	0.000095
C14	C	-0.075849	-0.997697	0.000103
C15	C	0.062658	-1.144993	0.000087
C16	C	0.063615	-1.238227	0.000090
C17	C	-0.414358	-1.068426	0.000062
C18	C	-0.616033	-1.064862	0.000049
O19	O	-0.647008	-1.129539	0.000015
N20	N	-0.635490	-0.987823	0.000042
C21	C	-0.604525	-0.911669	0.000032
O22	O	-0.625703	-0.846061	0.000017
C23	C	-0.402851	-0.915234	0.000039
C24	C	-0.383397	-0.992278	0.000055
C25	C	-0.394903	-1.145464	0.000077
C26	C	-0.344487	-1.146354	0.000086
C27	C	-0.313526	-1.070206	0.000079
C28	C	-0.332981	-0.993168	0.000064
C29	C	-0.371887	-0.839081	0.000023
C30	C	-0.321466	-0.839979	0.000022
C31	C	-0.302012	-0.917024	0.000038
C32	C	-0.251604	-0.917911	0.000065
N33	N	-0.232147	-0.994950	0.000072
C34	C	-0.263108	-1.071098	0.000079
C35	C	-0.710408	-0.909803	0.000031
C36	C	-0.760826	-0.908912	0.000031
C37	C	-0.772330	-1.062105	0.000045
C38	C	-0.721911	-1.062995	0.000052
C39	C	-0.690950	-0.986842	0.000038
C40	C	-0.157231	-1.072961	0.000097
C41	C	-0.106810	-1.073845	0.000109
C42	C	-0.095310	-0.920652	0.000090
C43	C	-0.145727	-0.919768	0.000083
C44	C	-0.176686	-0.995930	0.000083
O45	O	-0.220600	-0.853269	0.000089
O46	O	-0.241921	-1.136697	0.000074
C47	C	-0.464774	-1.067536	0.000054
C48	C	-0.484228	-0.990498	0.000039
C49	C	-0.453268	-0.914350	0.000032
C50	C	-0.534647	-0.989607	0.000039
C51	C	-0.565608	-1.065754	0.000045
C52	C	-0.546150	-1.142794	0.000052
C53	C	-0.495734	-1.143684	0.000061
C54	C	-0.472725	-0.837311	0.000025
C55	C	-0.523141	-0.836427	0.000018
C56	C	-0.554102	-0.912575	0.000024
C57	C	0.154554	-0.984099	0.000051
C58	C	0.208213	-0.985059	0.000038
N59	N	0.066198	-0.991354	0.219549
C60	C	0.020466	-0.530305	0.000081
C61	C	0.042882	-0.469002	-0.075965
C62	C	0.067019	-0.573827	0.000062
C63	C	0.042904	-0.469003	0.076087
C64	C	0.065344	-0.408936	0.000077
C65	C	0.089447	-0.513752	-0.076047
C66	C	0.089463	-0.513759	0.076074
C67	C	0.111912	-0.452474	0.000009
C68	C	0.067983	-0.668816	0.000053
C69	C	0.064384	-0.313947	0.000080
N70	N	0.066163	-0.991409	-0.219401
C71	C	0.100495	-0.931267	0.469189
C72	C	0.109880	-1.007044	0.530996
C73	C	0.066186	-0.991374	0.408710
C74	C	0.056813	-0.915616	0.530997
C75	C	0.066176	-0.991387	0.591432
C76	C	0.075592	-1.067190	0.469157
C77	C	0.022507	-0.975712	0.469153
C78	C	0.031872	-1.051545	0.530932
C79	C	0.066193	-0.991366	0.303449
C80	C	0.066169	-0.991405	0.696691
H81	H	-0.090973	-1.136586	0.000125
O82	O	0.112944	-0.537608	0.152690
C83	C	0.113886	-0.625812	0.151162
H84	H	0.109555	-0.649646	0.076744
H85	H	0.150004	-0.641337	0.180188
H86	H	0.082862	-0.657778	0.195316
O87	O	0.019469	-0.445269	-0.152724
C88	C	0.051499	-0.388936	-0.205743
H89	H	0.090588	-0.398637	-0.188752
H90	H	0.044359	-0.401450	-0.282650
H91	H	0.045449	-0.321172	-0.188700
H92	H	0.048890	-0.851544	0.558163
O93	O	-0.187231	-1.147020	0.000142
C94	C	-0.159239	-1.215198	0.000135
H95	H	-0.121614	-1.193361	0.029332
H96	H	-0.177826	-1.268507	0.044918
H97	H	-0.155642	-1.238857	-0.073849
O98	O	-0.325673	-1.221270	0.000053
C99	C	-0.363819	-1.288279	0.000079
H100	H	-0.398069	-1.265181	-0.029121
H101	H	-0.353281	-1.342115	-0.044693
H102	H	-0.370953	-1.311726	0.074069
H103	H	-0.420107	-1.207476	0.000079
O104	O	-0.002697	-1.112362	0.563037
C105	C	0.007357	-1.192082	0.531336
H106	H	0.047642	-1.189157	0.514084
H107	H	-0.002374	-1.241318	0.587735
H108	H	-0.015064	-1.210237	0.466558
O109	O	-0.703095	-1.137909	0.000017
C110	C	-0.741239	-1.204922	0.000049
H111	H	-0.775491	-1.181828	-0.029145
H112	H	-0.730701	-1.258758	-0.044724
H113	H	-0.748369	-1.228369	0.074041
H114	H	0.109118	-0.533491	-0.140408
O115	O	0.085084	-1.143706	0.437052
C116	C	0.091727	-1.197229	0.512619
H117	H	0.072848	-1.174479	0.576478
H118	H	0.075503	-1.264496	0.495175
H119	H	0.132199	-1.195992	0.527310
H120	H	-0.014416	-0.962429	0.441967
O121	O	0.158058	-0.412343	-0.000213
C122	C	0.182411	-0.435164	-0.080485
H123	H	0.154657	-0.457437	-0.136261
H124	H	0.207351	-0.378150	-0.107030
H125	H	0.204919	-0.488356	-0.063076
H126	H	-0.797547	-1.124107	0.000051
O127	O	0.019347	-0.445449	0.152758
C128	C	-0.028850	-0.485472	0.152465
H129	H	-0.031170	-0.544909	0.107952
H130	H	-0.040433	-0.503320	0.226418
H131	H	-0.053919	-0.440552	0.122788
H132	H	-0.776661	-0.846175	0.000034
H133	H	0.146814	-1.020304	0.558160
O134	O	-0.680405	-0.835746	0.000066
C135	C	-0.708396	-0.767568	0.000040
H136	H	-0.746022	-0.789397	0.029236
H137	H	-0.689811	-0.714247	0.044815
H138	H	-0.711991	-0.743928	-0.073949
O139	O	-0.390697	-0.764165	-0.000038
C140	C	-0.352550	-0.697158	-0.000027
H141	H	-0.318299	-0.720269	-0.029214
H142	H	-0.363085	-0.643336	-0.044817
H143	H	-0.345418	-0.673685	0.073957
H144	H	0.129533	-0.880487	0.442079
H145	H	-0.296260	-0.777965	0.000009
H146	H	-0.070093	-0.858655	0.000088
O147	O	-0.164547	-0.844855	0.000029
C148	C	-0.126406	-0.777837	0.000052
H149	H	-0.092150	-0.800936	-0.029126
H150	H	-0.136944	-0.724019	-0.044740
H151	H	-0.119282	-0.754365	0.074038
H152	H	-0.479900	-1.206421	0.000073
H153	H	-0.571368	-1.204796	0.000062
H154	H	-0.538976	-0.773684	0.000013
H155	H	-0.018169	-0.564143	-0.000003
O156	O	-0.442722	-0.763260	0.000065
C157	C	-0.470713	-0.695081	0.000034
H158	H	-0.508341	-0.716910	0.029222
H159	H	-0.452130	-0.641762	0.044812
H160	H	-0.474304	-0.671441	-0.073957
