data_functionalizedCrystal
_audit_creation_method	'MofGen! by Chris Wilmer'
_symmetry_space_group_name_H-M	'P1'
_symmetry_Int_Tables_number	1
_symmetry_cell_setting	triclinic
loop_
_symmetry_equiv_pos_as_xyz
  x,y,z
_cell_length_a	12.759401
_cell_length_b	18.050589
_cell_length_c	12.759393
_cell_angle_alpha	89.970454
_cell_angle_beta	89.979062
_cell_angle_gamma	90.029746
loop_
_atom_site_label
_atom_site_type_symbol
_atom_site_fract_x
_atom_site_fract_y
_atom_site_fract_z
Zn1	Zn	1.606168	-0.295593	-0.594027
Zn2	Zn	1.606017	-0.419801	-0.418350
Zn3	Zn	1.430466	-0.295633	-0.418362
Zn4	Zn	1.430417	-0.419749	-0.593987
O5	O	1.518267	-0.357694	-0.506182
O6	O	1.753169	-0.312075	-0.570735
O7	O	1.582688	-0.403368	-0.271331
O8	O	1.453857	-0.191703	-0.441686
O9	O	1.753058	-0.403330	-0.441666
O10	O	1.582944	-0.191674	-0.570746
O11	O	1.453711	-0.312142	-0.271339
O12	O	1.283439	-0.312092	-0.441648
O13	O	1.453773	-0.403241	-0.741014
O14	O	1.283402	-0.403280	-0.570679
O15	O	1.582896	-0.312025	-0.741043
O16	O	1.582640	-0.523719	-0.441627
O17	O	1.453627	-0.523681	-0.570667
C18	C	1.245300	-0.357685	-0.506161
C19	C	1.128523	-0.357699	-0.506177
C20	C	1.073670	-0.405253	-0.573257
C21	C	0.963946	-0.405256	-0.573278
C22	C	0.963938	-0.310149	-0.439129
C23	C	1.073660	-0.310143	-0.439114
C24	C	1.518140	-0.550646	-0.506164
C25	C	1.518182	-0.633192	-0.506192
C26	C	1.448094	-0.832649	-0.576339
C27	C	1.422478	-0.882097	-0.480470
C28	C	1.518285	-0.784322	-0.506206
C29	C	1.543953	-0.881956	-0.602085
C30	C	1.518383	-0.930307	-0.506227
C31	C	1.492619	-0.832683	-0.410286
C32	C	1.614139	-0.832538	-0.531966
C33	C	1.588559	-0.881964	-0.436031
C34	C	1.518226	-0.700224	-0.506194
C35	C	1.518442	-1.014404	-0.506228
C36	C	1.792300	-0.357704	-0.506203
C37	C	1.909077	-0.357708	-0.506212
C38	C	1.518346	-0.357623	-0.780215
C39	C	1.518379	-0.357592	-0.896992
C40	C	1.518423	-0.163989	-0.506222
C41	C	1.518489	-0.081443	-0.506239
C42	C	1.585619	-0.310088	-0.951871
C43	C	1.585637	-0.310056	-1.061595
C44	C	1.451172	-0.405039	-1.061552
C45	C	1.451150	-0.405067	-0.951829
C46	C	1.518249	-0.357712	-0.233214
C47	C	1.518419	-0.357533	-0.116438
H48	H	0.919255	-0.271432	-0.384527
H49	H	0.919289	-0.443978	-0.627904
O50	O	1.377262	-0.806685	-0.646985
C51	C	1.298416	-0.699274	-0.726704
C52	C	1.378687	-0.728579	-0.646688
H53	H	1.299526	-0.636122	-0.726475
H54	H	1.319448	-0.720333	-0.808261
H55	H	1.216785	-0.719681	-0.704560
H56	H	1.460346	-0.708184	-0.668735
H57	H	1.357565	-0.707526	-0.565153
H58	H	1.396439	-0.443693	-1.106214
H59	H	1.396388	-0.443750	-0.907146
O60	O	1.650877	-0.264036	-0.898438
C61	C	1.710381	-0.221939	-0.729427
C62	C	1.636445	-0.274149	-0.789804
H63	H	1.698723	-0.230087	-0.641586
H64	H	1.795117	-0.234974	-0.750931
H65	H	1.691988	-0.162060	-0.751078
H66	H	1.654744	-0.334046	-0.768185
H67	H	1.551732	-0.261050	-0.768295
O68	O	1.650803	-0.263830	-1.114948
C69	C	1.665045	-0.163552	-1.238884
C70	C	1.591125	-0.215851	-1.178512
H71	H	1.616826	-0.124759	-1.290306
H72	H	1.713066	-0.129574	-1.180882
H73	H	1.719984	-0.197649	-1.290213
H74	H	1.536122	-0.181812	-1.127181
H75	H	1.543178	-0.249832	-1.236570
O76	O	1.126999	-0.263869	-0.374096
C77	C	1.250988	-0.163616	-0.360194
C78	C	1.190629	-0.215962	-0.433938
H79	H	1.302464	-0.124881	-0.408545
H80	H	1.192978	-0.129577	-0.312277
H81	H	1.302263	-0.197680	-0.305151
H82	H	1.139352	-0.181956	-0.489044
H83	H	1.248695	-0.250003	-0.481781
H84	H	1.341464	-0.903882	-0.458702
O85	O	1.126802	-0.451465	-0.638506
C86	C	1.115223	-0.545823	-0.771530
C87	C	1.054925	-0.493515	-0.697702
H88	H	1.057137	-0.579845	-0.819393
H89	H	1.166612	-0.511805	-0.826611
H90	H	1.166573	-0.584582	-0.723180
H91	H	1.003519	-0.454746	-0.745967
H92	H	1.003603	-0.527579	-0.642618
H93	H	1.470854	-0.811128	-0.329188
H94	H	1.647959	-0.903481	-0.376662
H95	H	1.565624	-0.903600	-0.683161
O96	O	1.710733	-0.806579	-0.558169
C97	C	1.846978	-0.802223	-0.688860
C98	C	1.737567	-0.831658	-0.659312
H99	H	1.868717	-0.822501	-0.770626
H100	H	1.846212	-0.739072	-0.687912
H101	H	1.907041	-0.823349	-0.629872
H102	H	1.677444	-0.810588	-0.718272
H103	H	1.738421	-0.894809	-0.660227
