data_functionalizedCrystal
_audit_creation_method	'MofGen! by Chris Wilmer'
_symmetry_space_group_name_H-M	'P1'
_symmetry_Int_Tables_number	1
_symmetry_cell_setting	triclinic
loop_
_symmetry_equiv_pos_as_xyz
  x,y,z
_cell_length_a	10.654551
_cell_length_b	16.109301
_cell_length_c	15.186229
_cell_angle_alpha	90.005167
_cell_angle_beta	90.002784
_cell_angle_gamma	83.973376
loop_
_atom_site_label
_atom_site_type_symbol
_atom_site_fract_x
_atom_site_fract_y
_atom_site_fract_z
O1	O	-1.666254	-0.116776	-0.073220
O2	O	-1.300625	-0.127901	-0.073225
O3	O	-1.493484	-0.001367	-0.073214
O4	O	-1.473396	-0.243310	-0.073232
O5	O	-1.493471	-0.001366	0.073244
O6	O	-1.300612	-0.127899	0.073232
O7	O	-1.666242	-0.116774	0.073237
Zn8	Zn	-1.483425	-0.122337	0.096488
Zn9	Zn	-1.483442	-0.122339	-0.096476
O10	O	-1.473383	-0.243308	0.073225
C11	C	-1.253832	-0.127083	0.000003
C12	C	-1.114422	-0.124639	0.000002
C13	C	-1.713035	-0.117592	0.000007
C14	C	-1.852445	-0.120037	0.000002
C15	C	-0.917930	-0.121184	0.079837
C16	C	-1.048919	-0.123488	0.079837
C17	C	-1.048927	-0.123494	-0.079839
C18	C	-0.917939	-0.121196	-0.079838
C19	C	-0.852435	-0.120024	0.159677
C20	C	-0.917921	-0.121170	0.239518
C21	C	-1.048910	-0.123474	0.239518
C22	C	-1.114414	-0.124632	0.159678
C23	C	-1.492664	0.029613	0.000015
C24	C	-1.490224	0.121923	0.000017
C25	C	-1.474203	-0.274289	-0.000006
C26	C	-1.476643	-0.366599	-0.000013
N27	N	-1.483423	-0.122334	0.228180
C28	C	-1.598990	0.343549	0.000004
C29	C	-1.596688	0.430283	-0.000003
C30	C	-1.367868	0.411769	-0.000003
C31	C	-1.370171	0.325037	-0.000002
C32	C	-1.485736	0.290929	0.000006
C33	C	-1.481131	0.464396	-0.000002
C34	C	-1.478634	0.558436	-0.000010
C35	C	-1.488234	0.196882	0.000012
N36	N	-1.483454	-0.122335	-0.228169
C37	C	-1.568849	-0.066324	0.453908
C38	C	-1.568853	-0.066323	0.546098
C39	C	-1.398018	-0.178347	0.546097
C40	C	-1.398009	-0.178344	0.453909
C41	C	-1.483432	-0.122334	0.407817
C42	C	-1.483445	-0.122335	0.592195
C43	C	-1.483448	-0.122333	0.692151
C44	C	-1.483427	-0.122334	0.307855
H45	H	-0.745778	-0.118147	0.159686
O46	O	-1.660943	-0.005896	0.404188
H47	H	-1.721972	-0.041252	0.362172
H48	H	-1.102271	-0.124436	-0.144841
H49	H	-1.328446	-0.223954	0.416379
O50	O	-1.660997	-0.005923	0.595814
H51	H	-1.720401	0.033015	0.548273
O52	O	-0.847297	-0.119947	-0.165942
H53	H	-0.914846	-0.121123	-0.221460
O54	O	-1.723634	0.306763	0.000003
H55	H	-1.706214	0.237612	0.000013
H56	H	-1.273779	0.439551	-0.000007
O57	O	-0.847204	-0.120321	0.325629
H58	H	-0.745091	-0.118664	0.312219
O59	O	-1.119543	-0.124733	0.325625
H60	H	-1.051990	-0.123542	0.381139
O61	O	-1.305900	-0.238767	0.595809
H62	H	-1.320265	-0.229367	0.667657
H63	H	-1.221072	-0.126518	0.159684
O64	O	-1.718840	0.487040	0.000006
H65	H	-1.799580	0.448748	0.000020
O66	O	-1.248014	0.268272	0.000011
H67	H	-1.167267	0.306559	0.000021
