data_functionalizedCrystal
_audit_creation_method	'MofGen! by Chris Wilmer'
_symmetry_space_group_name_H-M	'P1'
_symmetry_Int_Tables_number	1
_symmetry_cell_setting	triclinic
loop_
_symmetry_equiv_pos_as_xyz
  x,y,z
_cell_length_a	15.944551
_cell_length_b	19.288864
_cell_length_c	17.766277
_cell_angle_alpha	90.023209
_cell_angle_beta	89.992686
_cell_angle_gamma	96.682508
loop_
_atom_site_label
_atom_site_type_symbol
_atom_site_fract_x
_atom_site_fract_y
_atom_site_fract_z
O1	O	0.104784	-0.921629	-0.062837
O2	O	0.118919	-0.719406	-0.062786
O3	O	-0.010445	-0.826040	-0.062806
O4	O	0.234147	-0.814995	-0.062817
O5	O	-0.010451	-0.826021	0.062382
O6	O	0.118912	-0.719387	0.062403
O7	O	0.104777	-0.921610	0.062351
Cu8	Cu	0.111844	-0.820497	0.073808
Cu9	Cu	0.111852	-0.820519	-0.074242
O10	O	0.234141	-0.814976	0.062372
C11	C	0.118461	-0.693519	-0.000185
C12	C	0.117095	-0.616411	-0.000165
C13	C	-0.041740	-0.825572	-0.000212
C14	C	-0.134981	-0.824197	-0.000211
N15	N	0.111838	-0.820486	0.177938
C16	C	-0.349571	-0.754815	-0.000204
C17	C	-0.410715	-0.787024	0.061514
C18	C	-0.305697	-0.821710	-0.000216
C19	C	-0.410692	-0.787059	-0.061912
C20	C	-0.470601	-0.819303	-0.000224
C21	C	-0.365614	-0.853938	0.061552
C22	C	-0.365585	-0.853963	-0.061929
C23	C	-0.426712	-0.886222	-0.000197
C24	C	-0.210700	-0.823095	-0.000211
C25	C	-0.565597	-0.817924	-0.000224
C26	C	0.265436	-0.815444	-0.000225
C27	C	0.358677	-0.816819	-0.000230
C28	C	0.105235	-0.947497	-0.000251
C29	C	0.106600	-1.024605	-0.000276
C30	C	0.193000	-0.571915	-0.000181
C31	C	0.191717	-0.499465	-0.000189
C32	C	0.114526	-0.471514	-0.000197
C33	C	0.038611	-0.516020	-0.000178
C34	C	0.039896	-0.588469	-0.000162
C35	C	0.053847	-0.363099	-0.044079
C36	C	0.052565	-0.290651	-0.044099
C37	C	0.110560	-0.248058	-0.000242
C38	C	0.169850	-0.277920	0.043625
C39	C	0.171135	-0.350369	0.043641
C40	C	0.113124	-0.392956	-0.000214
C41	C	0.185079	-0.125002	-0.000265
C42	C	0.183793	-0.052550	-0.000269
C43	C	0.030684	-0.069107	-0.000265
C44	C	0.031972	-0.141557	-0.000254
C45	C	0.109172	-0.169500	-0.000258
N46	N	0.111851	-0.820535	-0.178373
C47	C	0.054584	-0.867719	0.217316
C48	C	0.054580	-0.867723	0.296118
C49	C	0.111845	-0.820501	0.335539
C50	C	0.169103	-0.773259	0.296151
C51	C	0.169100	-0.773252	0.217351
C52	C	0.188378	-0.811404	0.460375
C53	C	0.188382	-0.811416	0.539173
C54	C	0.111855	-0.820520	0.578585
C55	C	0.035319	-0.829626	0.539188
C56	C	0.035316	-0.829618	0.460387
C57	C	0.111854	-0.820503	0.420984
C58	C	0.054592	-0.867759	0.703409
C59	C	0.054587	-0.867759	0.782212
C60	C	0.169117	-0.773298	0.782244
C61	C	0.169115	-0.773295	0.703442
C62	C	0.111853	-0.820530	0.664029
H63	H	-0.316049	-0.699288	-0.000128
C64	C	-0.338471	-0.892138	-0.132433
H65	H	-0.312077	-0.931665	-0.117619
H66	H	-0.299860	-0.861405	-0.160951
H67	H	-0.386741	-0.906895	-0.162224
C68	C	0.232088	-0.721299	0.174033
H69	H	0.266197	-0.693176	0.208794
H70	H	0.201962	-0.692386	0.143309
H71	H	0.266980	-0.746288	0.143279
H72	H	0.245606	-0.016321	-0.000277
H73	H	-0.430717	-0.758722	0.113705
H74	H	-0.027001	-0.837031	0.428314
H75	H	-0.029838	-0.177787	-0.000246
C76	C	-0.338765	-0.892113	0.132120
H77	H	-0.279275	-0.892728	0.131706
H78	H	-0.365874	-0.938652	0.132290
H79	H	-0.354571	-0.868495	0.175903
C80	C	-0.471884	-0.961267	-0.000129
H81	H	-0.505871	-0.968489	-0.043984
H82	H	-0.506557	-0.968136	0.043333
H83	H	-0.431109	-0.993468	0.000306
C84	C	-0.437674	-0.748836	-0.132398
H85	H	-0.410977	-0.702161	-0.132306
H86	H	-0.497217	-0.748606	-0.132141
H87	H	-0.421453	-0.772154	-0.176236
C88	C	0.232095	-0.721318	0.339510
H89	H	0.223904	-0.728092	0.392081
H90	H	0.223116	-0.674963	0.326626
H91	H	0.288134	-0.728865	0.326581
H92	H	0.255862	-0.594661	-0.000185
H93	H	0.253530	-0.463229	-0.000199
H94	H	0.007955	-0.906187	0.328185
H95	H	0.219409	-0.374680	0.079362
H96	H	0.217075	-0.243242	0.079338
C97	C	0.269993	-0.155742	-0.000262
H98	H	0.315017	-0.118862	-0.000261
H99	H	0.273680	-0.183682	-0.043913
H100	H	0.273673	-0.183638	0.043404
C101	C	0.272566	-0.801405	0.582503
H102	H	0.318142	-0.795970	0.547747
H103	H	0.277110	-0.841094	0.613218
H104	H	0.274389	-0.760962	0.613267
C105	C	-0.054225	-0.038370	-0.000279
H106	H	-0.044121	0.011151	-0.000296
H107	H	-0.085476	-0.053620	0.043378
H108	H	-0.085460	-0.053669	-0.043940
C109	C	-0.012653	-0.257809	-0.092347
H110	H	-0.047020	-0.293551	-0.118453
H111	H	0.015878	-0.226426	-0.127626
H112	H	-0.047069	-0.233197	-0.060722
H113	H	0.006619	-0.397773	-0.079797
C114	C	-0.046297	-0.485277	-0.000191
H115	H	-0.036192	-0.435756	-0.000211
H116	H	-0.077546	-0.500525	0.043468
H117	H	-0.077535	-0.500578	-0.043849
H118	H	-0.021917	-0.624699	-0.000150
H119	H	0.215740	-0.734837	0.671378
C120	C	0.272561	-0.801385	0.417026
H121	H	0.261599	-0.802676	0.364454
H122	H	0.305368	-0.837708	0.429913
H123	H	0.302645	-0.757576	0.429961
C124	C	-0.008410	-0.919667	0.173966
H125	H	-0.042515	-0.947794	0.208709
H126	H	0.021711	-0.948577	0.143202
H127	H	-0.043306	-0.894674	0.143250
C128	C	-0.048866	-0.839635	0.582529
H129	H	-0.037906	-0.838326	0.635102
H130	H	-0.078958	-0.883437	0.569600
H131	H	-0.081663	-0.803303	0.569635
C132	C	-0.008401	-0.919707	0.660051
H133	H	-0.042510	-0.947831	0.694793
H134	H	0.021723	-0.948618	0.629292
H135	H	-0.043292	-0.894713	0.629330
H136	H	0.007959	-0.906219	0.814274
C137	C	0.232108	-0.721354	0.825597
H138	H	0.223913	-0.728125	0.878168
H139	H	0.223129	-0.674999	0.812709
H140	H	0.288147	-0.728901	0.812671
