data_functionalizedCrystal
_audit_creation_method	'MofGen! by Chris Wilmer'
_symmetry_space_group_name_H-M	'P1'
_symmetry_Int_Tables_number	1
_symmetry_cell_setting	triclinic
loop_
_symmetry_equiv_pos_as_xyz
  x,y,z
_cell_length_a	19.805404
_cell_length_b	25.639243
_cell_length_c	19.805399
_cell_angle_alpha	90.021236
_cell_angle_beta	89.972890
_cell_angle_gamma	89.967726
loop_
_atom_site_label
_atom_site_type_symbol
_atom_site_fract_x
_atom_site_fract_y
_atom_site_fract_z
Zn1	Zn	-0.269430	-0.799285	-0.382752
Zn2	Zn	0.230570	-0.299285	0.117248
Zn3	Zn	-0.382619	-0.799214	-0.269565
Zn4	Zn	0.117381	-0.299214	0.230435
Zn5	Zn	-0.269454	-0.711853	-0.269573
Zn6	Zn	0.230546	-0.211853	0.230427
Zn7	Zn	-0.382588	-0.711820	-0.382708
Zn8	Zn	0.117412	-0.211820	0.117292
O9	O	-0.326023	-0.755543	-0.326149
O10	O	0.173977	-0.255543	0.173851
O11	O	-0.284448	-0.872441	-0.367752
O12	O	0.215552	-0.372441	0.132248
O13	O	-0.367630	-0.787610	-0.174849
O14	O	0.132370	-0.287610	0.325151
O15	O	-0.174735	-0.723495	-0.284609
O16	O	0.325265	-0.223495	0.215391
O17	O	-0.367607	-0.872389	-0.284594
O18	O	0.132393	-0.372389	0.215406
O19	O	-0.174717	-0.787731	-0.367760
O20	O	0.325283	-0.287731	0.132240
O21	O	-0.284489	-0.723426	-0.174855
O22	O	0.215511	-0.223426	0.325145
O23	O	-0.284459	-0.638684	-0.284566
O24	O	0.215541	-0.138684	0.215434
O25	O	-0.367555	-0.723439	-0.477430
O26	O	0.132445	-0.223439	0.022570
O27	O	-0.367578	-0.638660	-0.367686
O28	O	0.132422	-0.138660	0.132314
O29	O	-0.284418	-0.787698	-0.477463
O30	O	0.215582	-0.287698	0.022537
O31	O	-0.477331	-0.787578	-0.284551
O32	O	0.022669	-0.287578	0.215449
O33	O	-0.477309	-0.723370	-0.367677
O34	O	0.022691	-0.223370	0.132323
C35	C	-0.326018	-0.619701	-0.326122
C36	C	0.173982	-0.119701	0.173878
C37	C	-0.326033	-0.561587	-0.326127
C38	C	0.173967	-0.061587	0.173873
C39	C	-0.282790	-0.201245	-0.369522
C40	C	0.217210	0.298755	0.130478
C41	C	-0.282789	-0.146641	-0.369526
C42	C	0.217211	0.353359	0.130474
O43	O	-0.246010	-0.118422	-0.406388
O44	O	0.253990	0.381578	0.093612
N45	N	-0.326020	-0.119304	-0.326167
N46	N	0.173980	0.380696	0.173833
C47	C	-0.369250	-0.146575	-0.282797
C48	C	0.130750	0.353425	0.217203
O49	O	-0.406022	-0.118309	-0.245918
O50	O	0.093978	0.381691	0.254082
C51	C	-0.369247	-0.201178	-0.282790
C52	C	0.130753	0.298822	0.217210
C53	C	-0.326018	-0.228512	-0.326156
C54	C	0.173982	0.271488	0.173844
C55	C	-0.239563	-0.228579	-0.412883
C56	C	0.260437	0.271421	0.087117
C57	C	-0.239565	-0.283179	-0.412880
C58	C	0.260435	0.216821	0.087120
C59	C	-0.282793	-0.310446	-0.369515
C60	C	0.217207	0.189554	0.130485
C61	C	-0.326019	-0.283112	-0.326153
C62	C	0.173981	0.216888	0.173847
C63	C	-0.412473	-0.228448	-0.239417
C64	C	0.087527	0.271552	0.260583
C65	C	-0.412466	-0.283055	-0.239413
C66	C	0.087534	0.216945	0.260587
C67	C	-0.369236	-0.310389	-0.282779
C68	C	0.130764	0.189611	0.217221
C69	C	-0.369249	-0.364980	-0.282784
C70	C	0.130751	0.135020	0.217216
N71	N	-0.326018	-0.392316	-0.326142
N72	N	0.173982	0.107684	0.173858
C73	C	-0.282790	-0.365050	-0.369508
C74	C	0.217210	0.134950	0.130492
C75	C	-0.369253	-0.031904	-0.282815
C76	C	0.130747	0.468096	0.217185
C77	C	-0.369260	0.022698	-0.282824
C78	C	0.130740	0.522698	0.217176
C79	C	-0.282798	0.022628	-0.369552
C80	C	0.217202	0.522628	0.130448
C81	C	-0.282795	-0.031975	-0.369545
C82	C	0.217205	0.468025	0.130455
C83	C	-0.326022	-0.059241	-0.326173
C84	C	0.173978	0.440759	0.173827
C85	C	-0.282797	-0.479715	-0.369498
C86	C	0.217203	0.020285	0.130502
C87	C	-0.282804	-0.534320	-0.369492
C88	C	0.217196	-0.034320	0.130508
C89	C	-0.369264	-0.534246	-0.282762
C90	C	0.130736	-0.034246	0.217238
C91	C	-0.369259	-0.479645	-0.282770
C92	C	0.130741	0.020355	0.217230
C93	C	-0.326020	-0.452381	-0.326140
C94	C	0.173980	0.047619	0.173860
O95	O	-0.406008	-0.393233	-0.245938
O96	O	0.093992	0.106767	0.254062
O97	O	-0.246018	-0.393322	-0.406375
O98	O	0.253982	0.106678	0.093625
C99	C	-0.501879	-0.755477	-0.326123
C100	C	-0.001879	-0.255477	0.173877
C101	C	-0.577111	-0.755496	-0.326135
C102	C	-0.077111	-0.255496	0.173865
C103	C	-1.038891	-0.789105	-0.282961
C104	C	-0.538891	-0.289105	0.217039
C105	C	-0.968203	-0.789080	-0.282947
C106	C	-0.468203	-0.289080	0.217053
C107	C	-0.932873	-0.755612	-0.326185
C108	C	-0.432873	-0.255612	0.173815
C109	C	-0.968235	-0.722162	-0.369435
C110	C	-0.468235	-0.222162	0.130565
C111	C	-1.038922	-0.722184	-0.369444
C112	C	-0.538922	-0.222184	0.130556
C113	C	-0.683161	-0.722071	-0.369397
C114	C	-0.183161	-0.222071	0.130603
C115	C	-0.612469	-0.722052	-0.369386
C116	C	-0.112469	-0.222052	0.130614
C117	C	-0.612442	-0.788967	-0.282901
C118	C	-0.112442	-0.288967	0.217099
C119	C	-0.683130	-0.788989	-0.282910
C120	C	-0.183130	-0.288989	0.217090
C121	C	-0.718485	-0.755538	-0.326156
C122	C	-0.218485	-0.255538	0.173844
C123	C	-0.795134	-0.755564	-0.326169
C124	C	-0.295134	-0.255564	0.173831
C125	C	-0.856226	-0.755588	-0.326176
C126	C	-0.356226	-0.255588	0.173824
C127	C	-0.149480	-0.755624	-0.326190
C128	C	0.350520	-0.255624	0.173810
C129	C	-0.074248	-0.755659	-0.326208
C130	C	0.425752	-0.255659	0.173792
C131	C	-0.325980	-0.755573	-0.502692
C132	C	0.174020	-0.255573	-0.002692
C133	C	-0.325962	-0.755585	-0.577924
C134	C	0.174038	-0.255585	-0.077924
C135	C	-0.326028	0.108084	-0.326177
C136	C	0.173972	0.608084	0.173823
C137	C	-0.326029	0.049970	-0.326188
C138	C	0.173971	0.549970	0.173812
C139	C	-0.282671	-0.789046	-0.613286
C140	C	0.217329	-0.289046	-0.113286
C141	C	-0.282651	-0.789051	-0.683975
C142	C	0.217349	-0.289051	-0.183975
C143	C	-0.325927	-0.755598	-0.719300
C144	C	0.174073	-0.255598	-0.219300
C145	C	-0.369220	-0.722134	-0.683933
C146	C	0.130780	-0.222134	-0.183933
C147	C	-0.369236	-0.722126	-0.613246
C148	C	0.130764	-0.222126	-0.113246
C149	C	-0.369157	-0.722163	-0.969006
C150	C	0.130843	-0.222163	-0.469006
C151	C	-0.369139	-0.722174	-1.039699
C152	C	0.130861	-0.222174	-0.539699
C153	C	-0.282572	-0.789089	-1.039735
C154	C	0.217428	-0.289089	-0.539735
C155	C	-0.282588	-0.789081	-0.969048
C156	C	0.217412	-0.289081	-0.469048
C157	C	-0.325879	-0.755615	-0.933687
C158	C	0.174121	-0.255615	-0.433687
C159	C	-0.325898	-0.755609	-0.857039
C160	C	0.174102	-0.255609	-0.357039
C161	C	-0.325911	-0.755607	-0.795947
C162	C	0.174089	-0.255607	-0.295947
C163	C	-0.326017	-0.755544	-0.150293
C164	C	0.173983	-0.255544	0.349707
C165	C	-0.325844	-0.755633	-0.075062
C166	C	0.174156	-0.255633	0.424938
H167	H	-0.404461	-0.556456	-0.247457
H168	H	0.095539	-0.056456	0.252543
O169	O	-0.415848	-0.686055	-0.930895
O170	O	0.084152	-0.186055	-0.430895
H171	H	-0.450304	-0.709418	-0.898677
H172	H	0.049696	-0.209418	-0.398677
H173	H	-0.204358	-0.206384	-0.448197
H174	H	0.295642	0.293616	0.051803
O175	O	-1.076984	-0.825213	-0.236327
O176	O	-0.576984	-0.325213	0.263673
H177	H	-1.109127	-0.851814	-0.266664
H178	H	-0.609127	-0.351814	0.233336
O179	O	-0.415883	-0.061312	-0.236035
O180	O	0.084117	0.438688	0.263965
H181	H	-0.469020	-0.050815	-0.247556
H182	H	0.030980	0.449185	0.252444
H183	H	-0.711940	-0.694829	-0.404606
H184	H	-0.211940	-0.194829	0.095394
H185	H	-0.404468	-0.457389	-0.247466
H186	H	0.095532	0.042611	0.252534
H187	H	-0.247597	0.044839	-0.404861
H188	H	0.252403	0.544839	0.095139
H189	H	-0.711892	-0.816245	-0.247704
H190	H	-0.211892	-0.316245	0.252296
H191	H	-0.939415	-0.816314	-0.247732
H192	H	-0.439415	-0.316314	0.252268
O193	O	-0.574310	-0.825053	-0.236258
O194	O	-0.074310	-0.325053	0.263742
H195	H	-0.519221	-0.819416	-0.243510
H196	H	-0.019221	-0.319416	0.256490
O197	O	-0.459090	-0.198974	-0.192634
O198	O	0.040910	0.301026	0.307366
H199	H	-0.489135	-0.227116	-0.162474
H200	H	0.010865	0.272884	0.337526
O201	O	-0.459092	-0.312464	-0.192634
O202	O	0.040908	0.187536	0.307366
H203	H	-0.489152	-0.284280	-0.162487
H204	H	0.010848	0.215720	0.337513
H205	H	-0.583705	-0.694796	-0.404597
H206	H	-0.083705	-0.194796	0.095403
H207	H	-0.247321	-0.816337	-1.068535
H208	H	0.252679	-0.316337	-0.568535
H209	H	-0.404381	-0.694930	-1.068458
H210	H	0.095619	-0.194930	-0.568458
O211	O	-0.930134	-0.686063	-0.416073
O212	O	-0.430134	-0.186063	0.083927
H213	H	-0.875040	-0.691670	-0.408808
H214	H	-0.375040	-0.191670	0.091192
H215	H	-0.404453	-0.694893	-0.712700
H216	H	0.095547	-0.194893	-0.212700
O217	O	-0.236166	-0.450312	-0.416277
O218	O	0.263834	0.049688	0.083723
H219	H	-0.206117	-0.478499	-0.446430
H220	H	0.293883	0.021501	0.053570
H221	H	-0.247433	-0.816289	-0.584530
H222	H	0.252567	-0.316289	-0.084530
H223	H	-1.067709	-0.694952	-0.404664
H224	H	-0.567709	-0.194952	0.095336
O225	O	-0.415927	-0.686035	-0.575100
O226	O	0.084073	-0.186035	-0.075100
H227	H	-0.385630	-0.659445	-0.542902
H228	H	0.114370	-0.159445	-0.042902
H229	H	-0.247401	-0.816300	-0.712763
H230	H	0.252599	-0.316300	-0.212763
O231	O	-0.235916	-0.825166	-0.930949
O232	O	0.264084	-0.325166	-0.430949
H233	H	-0.201489	-0.801778	-0.898740
H234	H	0.298511	-0.301778	-0.398740
O235	O	-0.236170	-0.563803	-0.416260
O236	O	0.263830	-0.063803	0.083740
H237	H	-0.206105	-0.535665	-0.446407
H238	H	0.293895	-0.035665	0.053593
H239	H	-0.204362	-0.305430	-0.448192
H240	H	0.295638	0.194570	0.051808
H241	H	-0.404470	0.044949	-0.247519
H242	H	0.095530	0.544949	0.252481
O243	O	-0.236161	-0.061456	-0.416309
O244	O	0.263839	0.438544	0.083691
H245	H	-0.206101	-0.033317	-0.446458
H246	H	0.293899	0.466683	0.053542
