data_functionalizedCrystal
_audit_creation_method	'MofGen! by Chris Wilmer'
_symmetry_space_group_name_H-M	'P1'
_symmetry_Int_Tables_number	1
_symmetry_cell_setting	triclinic
loop_
_symmetry_equiv_pos_as_xyz
  x,y,z
_cell_length_a	15.995292
_cell_length_b	15.995343
_cell_length_c	7.540329
_cell_angle_alpha	89.991687
_cell_angle_beta	89.995868
_cell_angle_gamma	83.478900
loop_
_atom_site_label
_atom_site_type_symbol
_atom_site_fract_x
_atom_site_fract_y
_atom_site_fract_z
O1	O	1.111011	0.107694	-0.147549
O2	O	0.867229	0.121072	-0.147545
O3	O	0.995787	-0.007506	-0.147514
O4	O	0.982453	0.236273	-0.147580
O5	O	0.995780	-0.007508	0.147451
O6	O	0.867221	0.121071	0.147420
O7	O	1.111004	0.107692	0.147416
Cu8	Cu	0.989112	0.114381	0.174351
Cu9	Cu	0.989121	0.114383	-0.174480
O10	O	0.982445	0.236271	0.147385
C11	C	0.836029	0.120527	-0.000061
C12	C	0.743077	0.118895	-0.000058
C13	C	0.995233	-0.038702	-0.000027
C14	C	0.993584	-0.131652	-0.000013
C15	C	0.990590	-0.301838	-0.000053
C16	C	0.897791	-0.325164	-0.000055
C17	C	0.896045	-0.421842	-0.000745
C18	C	0.987642	-0.469397	-0.000091
C19	C	1.034307	-0.440307	-0.168193
C20	C	1.035408	-0.343515	-0.168314
C21	C	1.036758	-0.343621	0.167128
C22	C	1.033332	-0.440116	0.169318
C23	C	0.985980	-0.564095	-0.000118
C24	C	0.992255	-0.207140	-0.000038
C25	C	0.405338	0.112893	-0.000076
C26	C	0.428648	0.205698	-0.000760
C27	C	0.525324	0.207462	-0.000088
C28	C	0.572894	0.115871	-0.000068
C29	C	0.543789	0.069472	0.168378
C30	C	0.446999	0.068355	0.168512
C31	C	0.447152	0.066462	-0.166918
C32	C	0.543644	0.069901	-0.169138
C33	C	0.667590	0.117549	-0.000058
C34	C	0.310643	0.111213	-0.000075
C35	C	1.142203	0.108238	-0.000072
C36	C	1.235156	0.109870	-0.000087
C37	C	0.982999	0.267467	-0.000106
C38	C	0.984648	0.360417	-0.000131
N39	N	0.989111	0.114380	0.419699
N40	N	0.989128	0.114378	-0.419828
H41	H	0.861818	-0.297155	0.120477
H42	H	0.859697	-0.440265	-0.121960
H43	H	0.433161	-0.001849	-0.168042
H44	H	1.007476	-0.315351	0.294589
H45	H	0.576617	0.003049	-0.179297
C46	C	0.410756	0.111774	0.338581
C47	C	0.315358	0.119752	0.373903
C48	C	0.279120	0.163176	0.543972
C49	C	0.338281	0.198621	0.678719
C50	C	0.433685	0.190643	0.643400
C51	C	0.469923	0.147220	0.473331
H52	H	0.271559	0.093513	0.274153
H53	H	0.208495	0.169081	0.570117
H54	H	0.311455	0.230765	0.804614
H55	H	0.477484	0.216883	0.743151
H56	H	0.540547	0.141315	0.447187
C57	C	1.123630	-0.484636	0.183734
C58	C	1.198895	-0.432548	0.184852
C59	C	1.289196	-0.477070	0.199263
C60	C	1.304233	-0.573679	0.212556
C61	C	1.228967	-0.625773	0.211438
C62	C	1.138665	-0.581251	0.197027
H63	H	1.187765	-0.361027	0.175012
H64	H	1.344914	-0.438506	0.200090
H65	H	1.371080	-0.606637	0.223223
H66	H	1.240096	-0.697294	0.221278
H67	H	1.082948	-0.619815	0.196200
C68	C	0.987429	-0.465164	0.337352
C69	C	1.034412	-0.524141	0.475041
C70	C	0.988506	-0.549183	0.643079
C71	C	0.895616	-0.515249	0.673428
C72	C	0.848627	-0.456269	0.535735
C73	C	0.894534	-0.431226	0.367697
H74	H	1.103179	-0.549264	0.452579
H75	H	1.023290	-0.592845	0.745009
H76	H	0.861633	-0.533787	0.797820
H77	H	0.779860	-0.431146	0.558197
H78	H	0.859749	-0.387565	0.265768
C79	C	1.129032	-0.324705	0.169342
C80	C	1.162366	-0.271617	0.020266
C81	C	1.254636	-0.252694	0.022464
C82	C	1.313573	-0.286860	0.173739
C83	C	1.280240	-0.339951	0.322826
C84	C	1.187970	-0.358873	0.320628
H85	H	1.118737	-0.246323	-0.091726
H86	H	1.279311	-0.213393	-0.087901
H87	H	1.381877	-0.272852	0.175366
H88	H	1.323869	-0.365245	0.434818
H89	H	1.163295	-0.398175	0.430993
C90	C	0.551036	0.256558	-0.163197
C91	C	0.483538	0.294430	-0.294977
C92	C	0.509244	0.343533	-0.458086
C93	C	0.602448	0.354765	-0.489414
C94	C	0.669951	0.316893	-0.357630
C95	C	0.644245	0.267789	-0.194521
H96	H	0.414538	0.286116	-0.271790
H97	H	0.459273	0.371569	-0.555641
H98	H	0.621477	0.391115	-0.610157
H99	H	0.738951	0.325207	-0.380817
H100	H	0.694216	0.239754	-0.096966
H101	H	0.563844	0.101692	0.293721
C102	C	0.586844	-0.021578	0.176882
C103	C	0.649079	-0.054937	0.030618
C104	C	0.692135	-0.145987	0.039118
C105	C	0.672956	-0.203678	0.193882
C106	C	0.610717	-0.170319	0.340157
C107	C	0.567661	-0.079269	0.331656
H108	H	0.663280	-0.012231	-0.083957
H109	H	0.738209	-0.170681	-0.069164
H110	H	0.704828	-0.271079	0.200174
H111	H	0.596517	-0.213026	0.454732
H112	H	0.521588	-0.054576	0.439939
H113	H	0.859508	-0.440858	0.119723
H114	H	0.862410	-0.296167	-0.120423
H115	H	1.003474	-0.316716	-0.294450
H116	H	1.103461	-0.328955	-0.175480
H117	H	1.101720	-0.472167	-0.173975
H118	H	1.002294	-0.460385	-0.293773
H119	H	0.400654	0.241470	-0.121561
H120	H	0.399625	0.241270	0.119344
H121	H	0.418827	0.095470	-0.294589
H122	H	0.562216	0.103684	-0.293753
H123	H	0.543723	0.244018	0.120848
H124	H	0.432450	0.000311	0.176178
