data_functionalizedCrystal
_audit_creation_method	'MofGen! by Chris Wilmer'
_symmetry_space_group_name_H-M	'P1'
_symmetry_Int_Tables_number	1
_symmetry_cell_setting	triclinic
loop_
_symmetry_equiv_pos_as_xyz
  x,y,z
_cell_length_a	15.944551
_cell_length_b	8.597340
_cell_length_c	7.088899
_cell_angle_alpha	75.476948
_cell_angle_beta	83.041113
_cell_angle_gamma	84.421977
loop_
_atom_site_label
_atom_site_type_symbol
_atom_site_fract_x
_atom_site_fract_y
_atom_site_fract_z
O1	O	0.134553	2.099332	-0.186829
O2	O	0.140414	1.635488	-0.110416
O3	O	0.015414	1.880078	-0.150727
O4	O	0.259553	1.854742	-0.146518
O5	O	0.031279	1.909288	-0.473512
O6	O	0.156279	1.664698	-0.433201
O7	O	0.150418	2.128542	-0.509614
Cu8	Cu	0.154797	1.899287	-0.500881
Cu9	Cu	0.136035	1.864743	-0.119150
O10	O	0.275418	1.883952	-0.469304
C11	C	0.146833	1.590737	-0.262031
C12	C	0.142313	1.413874	-0.232895
C13	C	-0.007964	1.893631	-0.311946
C14	C	-0.101261	1.890478	-0.311428
C15	C	-0.318691	1.731332	-0.285184
C16	C	-0.370691	1.819636	-0.456511
C17	C	-0.272080	1.884773	-0.310474
C18	C	-0.386316	1.790873	-0.138276
C19	C	-0.437083	1.879250	-0.309541
C20	C	-0.322846	1.973131	-0.481939
C21	C	-0.338471	1.944334	-0.163557
C22	C	-0.390450	2.032752	-0.334942
C23	C	-0.177026	1.887951	-0.311012
C24	C	-0.532135	1.876086	-0.309019
C25	C	0.298796	1.870398	-0.308080
C26	C	0.392092	1.873550	-0.308585
C27	C	0.143998	2.173293	-0.357995
C28	C	0.148518	2.350154	-0.387118
N29	N	0.167993	1.923595	-0.769372
N30	N	0.122833	1.840447	0.149339
H31	H	-0.287433	1.603985	-0.264362
H32	H	-0.414055	1.713777	0.006979
O33	O	0.131964	1.317675	-0.048660
C34	C	0.188340	1.221208	0.263410
C35	C	0.200153	1.330247	0.054844
H36	H	0.243470	1.231309	0.347139
H37	H	0.126431	1.260519	0.342586
H38	H	0.186399	1.090968	0.254855
H39	H	0.202133	1.460516	0.063221
H40	H	0.262051	1.290799	-0.024252
H41	H	0.076041	1.754254	-0.754809
H42	H	0.214789	2.009766	-0.865210
O43	O	-0.388003	1.756476	-0.604090
C44	C	-0.370804	1.526279	-0.744863
C45	C	-0.351159	1.597607	-0.577607
H46	H	-0.341010	1.397836	-0.723532
H47	H	-0.442309	1.525455	-0.743930
H48	H	-0.343585	1.602805	-0.891046
H49	H	-0.378323	1.521142	-0.431340
H50	H	-0.279647	1.598461	-0.578714
O51	O	-0.289713	2.064919	-0.655306
C52	C	-0.164067	2.170940	-0.850254
C53	C	-0.201477	2.066927	-0.653851
H54	H	-0.092726	2.172625	-0.849127
H55	H	-0.177466	2.118238	-0.975083
H56	H	-0.194332	2.299066	-0.871906
H57	H	-0.171234	1.938780	-0.632010
H58	H	-0.188087	2.119760	-0.529125
H59	H	0.157282	1.430907	-0.541452
H60	H	-0.323906	1.997000	-0.039682
O61	O	-0.427587	2.184784	-0.359710
C62	C	-0.527835	2.366261	-0.224216
C63	C	-0.485843	2.194028	-0.195905
H64	H	-0.574956	2.373783	-0.091822
H65	H	-0.477208	2.454892	-0.240005
H66	H	-0.562472	2.397589	-0.361873
H67	H	-0.451210	2.162547	-0.058245
H68	H	-0.536508	2.105495	-0.180231
