data_functionalizedCrystal
_audit_creation_method	'MofGen! by Chris Wilmer'
_symmetry_space_group_name_H-M	'P1'
_symmetry_Int_Tables_number	1
_symmetry_cell_setting	triclinic
loop_
_symmetry_equiv_pos_as_xyz
  x,y,z
_cell_length_a	13.897449
_cell_length_b	12.827892
_cell_length_c	12.827885
_cell_angle_alpha	90.029786
_cell_angle_beta	90.020099
_cell_angle_gamma	90.016672
loop_
_atom_site_label
_atom_site_type_symbol
_atom_site_fract_x
_atom_site_fract_y
_atom_site_fract_z
Zn1	Zn	-1.474712	0.415947	-0.590872
Zn2	Zn	-0.974712	0.915947	-0.090872
Zn3	Zn	-1.474614	0.590724	-0.416132
Zn4	Zn	-0.974614	1.090724	0.083868
Zn5	Zn	-1.313403	0.416002	-0.416143
Zn6	Zn	-0.813403	0.916002	0.083857
Zn7	Zn	-1.313389	0.590650	-0.590830
Zn8	Zn	-0.813389	1.090650	-0.090830
O9	O	-1.394030	0.503331	-0.503494
O10	O	-0.894030	1.003331	-0.003494
O11	O	-1.609681	0.439139	-0.567705
O12	O	-1.109681	0.939139	-0.067705
O13	O	-1.453194	0.567601	-0.269897
O14	O	-0.953194	1.067601	0.230103
O15	O	-1.334848	0.269758	-0.439343
O16	O	-0.834848	0.769758	0.060657
O17	O	-1.609609	0.567547	-0.439325
O18	O	-1.109609	1.067547	0.060675
O19	O	-1.453361	0.269718	-0.567716
O20	O	-0.953361	0.769718	-0.067716
O21	O	-1.334753	0.439233	-0.269905
O22	O	-0.834753	0.939233	0.230095
O23	O	-1.178420	0.439161	-0.439302
O24	O	-0.678420	0.939161	0.060698
O25	O	-1.334824	0.567422	-0.737071
O26	O	-0.834824	1.067422	-0.237071
O27	O	-1.178410	0.567475	-0.567644
O28	O	-0.678410	1.067475	-0.067644
O29	O	-1.453347	0.439068	-0.737102
O30	O	-0.953347	0.939068	-0.237102
O31	O	-1.453181	0.736950	-0.439284
O32	O	-0.953181	1.236950	0.060716
O33	O	-1.334730	0.736896	-0.567633
O34	O	-0.834730	1.236896	-0.067633
C35	C	-1.143415	0.503317	-0.503470
C36	C	-0.643415	1.003317	-0.003470
C37	C	-1.036201	0.503336	-0.503485
C38	C	-0.536201	1.003336	-0.003485
C39	C	-1.393969	0.774841	-0.503476
C40	C	-0.893969	1.274841	-0.003476
C41	C	-1.394032	0.890994	-0.503503
C42	C	-0.894032	1.390994	-0.003503
C43	C	-1.645623	0.503345	-0.503519
C44	C	-1.145623	1.003345	-0.003519
C45	C	-1.752836	0.503352	-0.503529
C46	C	-1.252836	1.003352	-0.003529
C47	C	-0.839906	0.503340	-0.503512
C48	C	-0.339906	1.003340	-0.003512
C49	C	-0.949139	0.503334	-0.503494
C50	C	-0.449139	1.003334	-0.003494
C51	C	-1.394095	0.503230	-0.776064
C52	C	-0.894095	1.003230	-0.276064
C53	C	-1.394123	0.503188	-0.892218
C54	C	-0.894123	1.003188	-0.392218
C55	C	-1.394116	0.230761	-0.503535
C56	C	-0.894116	0.730761	-0.003535
C57	C	-1.394153	0.114607	-0.503553
C58	C	-0.894153	0.614607	-0.003553
C59	C	-1.452715	0.942771	-0.440062
C60	C	-0.952715	1.442771	0.059938
C61	C	-1.452781	1.062821	-0.440088
C62	C	-0.952781	1.562821	0.059912
C63	C	-1.452779	0.439662	-0.944018
C64	C	-0.952779	0.939662	-0.444018
C65	C	-1.452809	0.439616	-1.064068
C66	C	-0.952809	0.939616	-0.564068
C67	C	-1.394020	0.503355	-0.231984
C68	C	-0.894020	1.003355	0.268016
C69	C	-1.394179	0.503104	-0.115832
C70	C	-0.894179	1.003104	0.384168
H71	H	-1.502911	0.898225	-0.385731
H72	H	-1.002911	1.398225	0.114269
H73	H	-1.503019	1.107348	-0.385771
H74	H	-1.003019	1.607348	0.114229
H75	H	-1.343906	1.070088	-0.557866
H76	H	-0.843906	1.570088	-0.057866
O77	O	-1.334285	0.944244	-0.568378
O78	O	-0.834285	1.444244	-0.068378
C79	C	-1.389257	1.007255	-0.635903
C80	C	-0.889257	1.507255	-0.135903
H81	H	-1.462398	1.023456	-0.599107
H82	H	-0.962398	1.523456	-0.099107
H83	H	-1.350068	1.084079	-0.649818
H84	H	-0.850068	1.584079	-0.149818
H85	H	-1.399756	0.965185	-0.713384
H86	H	-0.899756	1.465185	-0.213384
O87	O	-1.512532	0.374767	-0.890788
O88	O	-1.012532	0.874767	-0.390788
C89	C	-1.457569	0.307331	-0.827675
C90	C	-0.957569	0.807331	-0.327675
H91	H	-1.384438	0.344199	-0.811423
H92	H	-0.884438	0.844199	-0.311423
H93	H	-1.496779	0.293433	-0.750883
H94	H	-0.996779	0.793433	-0.250883
H95	H	-1.447047	0.229832	-0.869683
H96	H	-0.947047	0.729832	-0.369683
O97	O	-1.512628	0.374760	-1.117364
O98	O	-1.012628	0.874760	-0.617364
C99	C	-1.499351	0.389163	-1.225363
C100	C	-0.999351	0.889163	-0.725363
H101	H	-1.424893	0.423397	-1.240154
H102	H	-0.924893	0.923397	-0.740154
H103	H	-1.505890	0.310909	-1.266929
H104	H	-1.005890	0.810909	-0.766929
H105	H	-1.556533	0.444829	-1.256337
H106	H	-1.056533	0.944829	-0.756337
O107	O	-1.334401	0.568045	-1.062585
O108	O	-0.834401	1.068045	-0.562585
C109	C	-1.389339	0.635526	-0.999467
C110	C	-0.889339	1.135526	-0.499467
H111	H	-1.462460	0.598664	-0.983239
H112	H	-0.962460	1.098664	-0.483239
H113	H	-1.350094	0.649488	-0.922663
H114	H	-0.850094	1.149488	-0.422663
H115	H	-1.399886	0.712992	-1.041457
H116	H	-0.899886	1.212992	-0.541457
O117	O	-1.334147	0.568069	-0.945169
O118	O	-0.834147	1.068069	-0.445169
C119	C	-1.279623	0.627165	-0.873696
C120	C	-0.779623	1.127165	-0.373696
H121	H	-1.276211	0.584462	-0.795870
H122	H	-0.776211	1.084462	-0.295870
H123	H	-1.203654	0.638269	-0.905305
H124	H	-0.703654	1.138269	-0.405305
H125	H	-1.314910	0.706547	-0.862120
H126	H	-0.814910	1.206547	-0.362120
