data_functionalizedCrystal
_audit_creation_method	'MofGen! by Chris Wilmer'
_symmetry_space_group_name_H-M	'P1'
_symmetry_Int_Tables_number	1
_symmetry_cell_setting	triclinic
loop_
_symmetry_equiv_pos_as_xyz
  x,y,z
_cell_length_a	10.540539
_cell_length_b	14.519709
_cell_length_c	12.996460
_cell_angle_alpha	90.007090
_cell_angle_beta	89.996491
_cell_angle_gamma	95.897182
loop_
_atom_site_label
_atom_site_type_symbol
_atom_site_fract_x
_atom_site_fract_y
_atom_site_fract_z
O1	O	1.684562	-0.129969	-0.085521
O2	O	2.184562	0.370031	0.414479
O3	O	1.315024	-0.142215	-0.085534
O4	O	1.815024	0.357785	0.414466
O5	O	1.509591	-0.001906	-0.085518
O6	O	2.009591	0.498094	0.414482
O7	O	1.489995	-0.270278	-0.085537
O8	O	1.989995	0.229722	0.414463
O9	O	1.509571	-0.001899	0.085616
O10	O	2.009571	0.498101	0.585616
O11	O	1.315004	-0.142207	0.085600
O12	O	1.815004	0.357793	0.585600
O13	O	1.684542	-0.129961	0.085613
O14	O	2.184542	0.370039	0.585613
Cu15	Cu	1.499771	-0.136083	0.101232
Cu16	Cu	1.999771	0.363917	0.601232
Cu17	Cu	1.499795	-0.136093	-0.101153
Cu18	Cu	1.999795	0.363907	0.398847
O19	O	1.489975	-0.270270	0.085597
O20	O	1.989975	0.229730	0.585597
C21	C	1.267720	-0.141293	0.000032
C22	C	1.767720	0.358707	0.500032
C23	C	1.126800	-0.138545	0.000027
C24	C	1.626800	0.361455	0.500027
C25	C	0.944448	-0.033266	0.000434
C26	C	1.444448	0.466734	0.500434
C27	C	1.091038	-0.036051	0.000037
C28	C	1.591038	0.463949	0.500037
C29	C	1.064636	-0.187874	-0.097699
C30	C	1.564636	0.312126	0.402301
C31	C	0.918127	-0.184376	-0.097770
C32	C	1.418127	0.315624	0.402230
C33	C	0.917594	-0.186452	0.096841
C34	C	1.417594	0.313548	0.596841
C35	C	1.064567	-0.187396	0.098122
C36	C	1.564567	0.312604	0.598122
C37	C	1.508668	0.032462	0.000049
C38	C	2.008668	0.532462	0.500049
C39	C	1.505931	0.134858	0.000050
C40	C	2.005931	0.634858	0.500050
C41	C	1.731846	-0.130884	0.000045
C42	C	2.231846	0.369116	0.500045
C43	C	1.872766	-0.133631	0.000043
C44	C	2.372766	0.366369	0.500043
C45	C	1.490899	-0.304639	0.000028
C46	C	1.990899	0.195361	0.500028
C47	C	1.493635	-0.407035	0.000020
C48	C	1.993635	0.092965	0.500020
N49	N	1.499763	-0.136076	0.243579
N50	N	1.999763	0.363924	0.743579
C51	C	1.495856	0.509808	0.000023
C52	C	1.995856	1.009808	0.500023
C53	C	1.498654	0.405485	0.000031
C54	C	1.998654	0.905485	0.500031
C55	C	1.500893	0.322337	0.000037
C56	C	2.000893	0.822337	0.500037
C57	C	1.503692	0.218007	0.000043
C58	C	2.003692	0.718007	0.500043
N59	N	1.499813	-0.136093	-0.243500
N60	N	1.999813	0.363907	0.256500
C61	C	1.499793	-0.136094	0.663394
C62	C	1.999793	0.363906	1.163394
C63	C	1.499781	-0.136092	0.546589
C64	C	1.999781	0.363908	1.046589
C65	C	1.499779	-0.136086	0.453490
C66	C	1.999779	0.363914	0.953490
C67	C	1.499766	-0.136083	0.336678
C68	C	1.999766	0.363917	0.836678
H69	H	1.133191	0.003030	-0.070132
H70	H	1.633191	0.503030	0.429868
O71	O	0.859845	-0.272260	-0.103213
O72	O	1.359845	0.227740	0.396787
C73	C	0.784044	-0.281968	-0.192704
C74	C	1.284044	0.218032	0.307296
H75	H	0.758463	-0.211048	-0.218148
H76	H	1.258463	0.288952	0.281852
H77	H	0.692995	-0.328884	-0.175694
H78	H	1.192995	0.171116	0.324306
H79	H	0.839375	-0.313823	-0.256635
H80	H	1.339375	0.186177	0.243365
O81	O	1.115992	-0.147140	-0.184490
O82	O	1.615992	0.352860	0.315510
C83	C	1.173964	-0.213033	-0.243052
C84	C	1.673964	0.286967	0.256948
H85	H	1.199016	-0.271524	-0.190735
H86	H	1.699016	0.228476	0.309265
H87	H	1.264563	-0.178542	-0.280362
H88	H	1.764563	0.321458	0.219638
H89	H	1.105194	-0.242313	-0.305412
H90	H	1.605194	0.257687	0.194588
O91	O	0.885053	-0.140979	-0.185009
O92	O	1.385053	0.359021	0.314991
C93	C	0.921442	-0.190490	-0.271639
C94	C	1.421442	0.309510	0.228361
H95	H	1.001578	-0.233680	-0.249353
H96	H	1.501578	0.266320	0.250647
H97	H	0.956043	-0.139749	-0.335037
H98	H	1.456043	0.360251	0.164963
H99	H	0.836132	-0.238073	-0.300578
H100	H	1.336132	0.261927	0.199422
O101	O	1.092615	-0.276540	0.104977
O102	O	1.592615	0.223460	0.604977
C103	C	1.169550	-0.296771	0.020857
C104	C	1.669550	0.203229	0.520857
H105	H	1.154766	-0.247277	-0.045139
H106	H	1.654766	0.252723	0.454861
H107	H	1.142047	-0.371058	-0.005403
H108	H	1.642047	0.128942	0.494597
H109	H	1.274048	-0.288339	0.045088
H110	H	1.774048	0.211661	0.545088
O111	O	0.860230	-0.274736	0.097483
O112	O	1.360230	0.225264	0.597483
C113	C	0.780008	-0.288779	0.010885
C114	C	1.280008	0.211221	0.510885
H115	H	0.752156	-0.219267	-0.017250
H116	H	1.252156	0.280733	0.482750
H117	H	0.690456	-0.335397	0.032880
H118	H	1.190456	0.164603	0.532880
H119	H	0.832540	-0.323029	-0.053001
H120	H	1.332540	0.176971	0.446999
H121	H	0.914661	0.007051	-0.069255
H122	H	1.414661	0.507051	0.430745
H123	H	1.134040	0.002763	0.070092
H124	H	1.634040	0.502763	0.570092
O125	O	0.880705	-0.146723	0.185231
O126	O	1.380705	0.353277	0.685231
C127	C	0.934856	-0.053879	0.189434
C128	C	1.434856	0.446121	0.689434
H129	H	1.023453	-0.044907	0.138653
H130	H	1.523453	0.455093	0.638653
H131	H	0.962413	-0.035096	0.272204
H132	H	1.462413	0.464904	0.772204
H133	H	0.862494	-0.006559	0.160844
H134	H	1.362494	0.493441	0.660844
O135	O	0.910610	0.015061	0.083962
O136	O	1.410610	0.515061	0.583962
C137	C	0.778085	0.021545	0.081888
C138	C	1.278085	0.521545	0.581888
H139	H	0.741798	0.012486	-0.000492
H140	H	1.241798	0.512486	0.499508
H141	H	0.757704	0.092317	0.111914
H142	H	1.257704	0.592317	0.611914
H143	H	0.727590	-0.034922	0.132565
H144	H	1.227590	0.465078	0.632565
H145	H	1.086221	-0.263143	-0.101340
H146	H	1.586221	0.236857	0.398660
O147	O	1.114025	-0.144326	0.184274
O148	O	1.614025	0.355674	0.684274
C149	C	1.204454	-0.070306	0.156031
C150	C	1.704454	0.429694	0.656031
H151	H	1.242101	-0.083165	0.075621
H152	H	1.742101	0.416835	0.575621
H153	H	1.286883	-0.064911	0.213224
H154	H	1.786883	0.435089	0.713224
H155	H	1.157504	-0.002988	0.156411
H156	H	1.657504	0.497012	0.656411
