data_functionalizedCrystal
_audit_creation_method	'MofGen! by Chris Wilmer'
_symmetry_space_group_name_H-M	'P1'
_symmetry_Int_Tables_number	1
_symmetry_cell_setting	triclinic
loop_
_symmetry_equiv_pos_as_xyz
  x,y,z
_cell_length_a	10.540539
_cell_length_b	10.540539
_cell_length_c	9.616153
_cell_angle_alpha	90.000094
_cell_angle_beta	89.995174
_cell_angle_gamma	95.474508
loop_
_atom_site_label
_atom_site_type_symbol
_atom_site_fract_x
_atom_site_fract_y
_atom_site_fract_z
O1	O	1.685892	-0.178895	-0.115573
O2	O	1.316479	-0.195751	-0.115589
O3	O	1.509614	-0.002617	-0.115579
O4	O	1.492758	-0.372030	-0.115583
O5	O	1.509587	-0.002621	0.115712
O6	O	1.316452	-0.195755	0.115702
O7	O	1.685865	-0.178899	0.115718
Zn8	Zn	1.501155	-0.187328	0.152433
Zn9	Zn	1.501190	-0.187323	-0.152304
O10	O	1.492731	-0.372034	0.115708
C11	C	1.269163	-0.194489	0.000054
C12	C	1.128215	-0.190707	0.000048
C13	C	1.508336	0.044684	0.000064
C14	C	1.504554	0.185632	0.000056
C15	C	0.944788	-0.045790	0.000589
C16	C	1.091406	-0.049624	0.000054
C17	C	1.066557	-0.258600	-0.132027
C18	C	0.920013	-0.253785	-0.132123
C19	C	0.919494	-0.256660	0.130899
C20	C	1.066476	-0.257959	0.132630
C21	C	1.733182	-0.180161	0.000072
C22	C	1.874130	-0.183943	0.000069
C23	C	1.494008	-0.419335	0.000062
C24	C	1.497790	-0.560283	0.000060
N25	N	1.501140	-0.187331	0.360407
C26	C	1.359637	0.369059	-0.000469
C27	C	1.363471	0.222441	0.000052
C28	C	1.572435	0.247288	0.132138
C29	C	1.567620	0.393832	0.132249
C30	C	1.570519	0.394355	-0.130772
C31	C	1.571819	0.247373	-0.132518
N32	N	1.501215	-0.187310	-0.360278
C33	C	1.397510	-0.290298	0.580772
C34	C	1.397739	-0.290684	0.419604
C35	C	1.633864	-0.217464	0.418862
C36	C	1.633299	-0.218193	0.580080
C37	C	1.473368	-0.053892	0.580319
C38	C	1.470321	-0.054757	0.419092
H39	H	1.134009	0.003797	0.094731
H40	H	1.540848	0.025564	0.378801
O41	O	1.122960	-0.196123	-0.262237
H42	H	1.194888	-0.116729	-0.233219
O43	O	1.510054	0.436135	-0.263388
H44	H	1.427480	0.489704	-0.237522
O45	O	0.882643	-0.187309	-0.262887
H46	H	0.835334	-0.101244	-0.234586
O47	O	0.904790	0.027741	-0.124166
H48	H	0.860540	0.113486	-0.088568
H49	H	1.378631	-0.025213	0.621052
H50	H	1.669084	0.441801	0.138246
H51	H	1.415178	-0.388722	0.621270
H52	H	0.872044	-0.355250	-0.138119
O53	O	1.501140	0.431197	0.263023
H54	H	1.415075	0.478508	0.234738
O55	O	1.573470	0.047692	0.630825
H56	H	1.668796	0.024974	0.594923
H57	H	1.676042	0.224933	0.137054
O58	O	1.506134	0.193154	-0.261962
H59	H	1.425917	0.122520	-0.232018
O60	O	1.285826	0.406961	-0.125928
H61	H	1.256841	0.321128	-0.189425
O62	O	1.509960	0.190866	0.262341
H63	H	1.430574	0.118932	0.233315
H64	H	1.372683	-0.031917	0.380887
H65	H	1.672423	0.441581	-0.131656
O66	O	0.906912	0.028047	0.126051
H67	H	0.837313	-0.032924	0.189376
H68	H	1.133162	0.004177	-0.094786
H69	H	1.090701	-0.360819	0.140603
H70	H	1.674680	0.223152	-0.140490
H71	H	1.088911	-0.362208	-0.136942
O72	O	0.877720	-0.196167	0.263510
H73	H	0.772170	-0.199440	0.265418
O74	O	0.856926	-0.391637	0.132086
H75	H	0.931405	-0.459246	0.128676
O76	O	1.421455	-0.421793	0.368480
H77	H	1.432818	-0.485165	0.458908
O78	O	1.738674	-0.122705	0.631737
H79	H	1.739057	-0.122506	0.747161
H80	H	1.107427	-0.208361	0.230338
H81	H	1.310058	0.179839	-0.094630
H82	H	1.304122	0.399265	0.093714
O83	O	1.292225	0.167113	0.125685
H84	H	1.254904	0.245097	0.186313
O85	O	1.267107	-0.266694	0.367238
H86	H	1.203199	-0.254717	0.457066
O87	O	1.665563	-0.347124	0.629879
H88	H	1.585553	-0.392249	0.693231
H89	H	1.298585	-0.272445	0.619578
O90	O	1.738594	-0.120826	0.368075
H91	H	1.697059	-0.050130	0.300463
O92	O	1.666850	-0.344949	0.365389
H93	H	1.588931	-0.387044	0.297197
