data_functionalizedCrystal
_audit_creation_method	'MofGen! by Chris Wilmer'
_symmetry_space_group_name_H-M	'P1'
_symmetry_Int_Tables_number	1
_symmetry_cell_setting	triclinic
loop_
_symmetry_equiv_pos_as_xyz
  x,y,z
_cell_length_a	10.654550
_cell_length_b	7.681481
_cell_length_c	10.654550
_cell_angle_alpha	95.797626
_cell_angle_beta	84.484931
_cell_angle_gamma	84.217550
loop_
_atom_site_label
_atom_site_type_symbol
_atom_site_fract_x
_atom_site_fract_y
_atom_site_fract_z
O1	O	1.656080	0.146299	0.188176
O2	O	1.290599	0.146331	0.204984
O3	O	1.481744	0.146303	0.013840
O4	O	1.464936	0.146327	0.379320
O5	O	1.505270	-0.146558	-0.009741
O6	O	1.314126	-0.146530	0.181404
O7	O	1.679607	-0.146563	0.164595
Zn8	Zn	1.500601	-0.193044	0.169256
Zn9	Zn	1.469604	0.192813	0.200324
O10	O	1.488462	-0.146535	0.355740
C11	C	1.255564	-0.000096	0.191960
C12	C	1.116120	-0.000084	0.188269
N13	N	1.521765	-0.456382	0.148052
C14	C	1.036634	-0.000081	0.300811
C15	C	0.905616	-0.000112	0.297332
C16	C	0.933581	-0.000140	0.068760
C17	C	1.064598	-0.000122	0.072240
C18	C	1.714641	-0.000132	0.177619
C19	C	1.854085	-0.000133	0.181311
C20	C	1.492273	-0.000127	-0.044748
C21	C	1.488581	-0.000124	-0.184191
N22	N	1.448451	0.456150	0.221518
C23	C	1.601123	-0.000133	-0.263678
C24	C	1.597645	-0.000111	-0.394697
C25	C	1.369073	-0.000078	-0.366731
C26	C	1.372551	-0.000087	-0.235713
C27	C	1.477933	-0.000101	0.414328
C28	C	1.481624	-0.000093	0.553772
H29	H	0.840903	-0.000114	0.388975
H30	H	1.596618	-0.531599	0.073069
C31	C	1.092380	0.000217	0.426893
C32	C	1.039925	0.150864	0.507137
C33	C	1.091229	0.151182	0.623302
H34	H	1.181783	0.000322	0.413040
H35	H	1.073337	-0.101858	0.465127
H36	H	1.058976	0.252913	0.468911
H37	H	0.950526	0.150791	0.521026
H38	H	1.072187	0.049106	0.661536
H39	H	1.180631	0.151281	0.609436
H40	H	1.055638	0.253384	0.677765
C41	C	1.348805	-0.443674	0.321699
C42	C	1.374002	-0.488348	0.441692
C43	C	1.282245	-0.396072	0.534012
H44	H	1.267185	-0.473738	0.305169
H45	H	1.351109	-0.320697	0.319472
H46	H	1.371686	-0.611298	0.443915
H47	H	1.455605	-0.458279	0.458262
H48	H	1.284548	-0.273095	0.531786
H49	H	1.200630	-0.426144	0.517470
H50	H	1.299334	-0.426358	0.615438
H51	H	0.891616	-0.000182	-0.025708
H52	H	1.695601	-0.000159	-0.221733
C53	C	1.250224	-0.000167	-0.149620
C54	C	1.147871	-0.000195	-0.222785
C55	C	1.035172	-0.000284	-0.143522
H56	H	1.238455	0.101931	-0.089677
H57	H	1.254968	-0.102337	-0.106179
H58	H	1.143125	0.101964	-0.266205
H59	H	1.159597	-0.102285	-0.282726
H60	H	1.039916	-0.102454	-0.100080
H61	H	1.023416	0.101815	-0.083582
H62	H	0.965713	-0.000319	-0.193153
H63	H	1.129320	-0.000129	-0.019412
H64	H	1.689288	-0.000115	-0.459410
H65	H	1.274605	-0.000052	-0.408697
