data_functionalizedCrystal
_audit_creation_method	'MofGen! by Chris Wilmer'
_symmetry_space_group_name_H-M	'P1'
_symmetry_Int_Tables_number	1
_symmetry_cell_setting	triclinic
loop_
_symmetry_equiv_pos_as_xyz
  x,y,z
_cell_length_a	11.169417
_cell_length_b	11.169416
_cell_length_c	11.169409
_cell_angle_alpha	90.030874
_cell_angle_beta	89.980176
_cell_angle_gamma	89.988781
loop_
_atom_site_label
_atom_site_type_symbol
_atom_site_fract_x
_atom_site_fract_y
_atom_site_fract_z
Zn1	Zn	1.834962	0.477682	-0.678555
Zn2	Zn	2.168296	0.811015	-0.345222
Zn3	Zn	2.501629	1.144348	-0.011888
Zn4	Zn	1.834852	0.678422	-0.477877
Zn5	Zn	2.168185	1.011756	-0.144544
Zn6	Zn	2.501518	1.345089	0.188790
Zn7	Zn	1.634248	0.477755	-0.477889
Zn8	Zn	1.967582	0.811088	-0.144556
Zn9	Zn	2.300915	1.144422	0.188777
Zn10	Zn	1.634256	0.678325	-0.678522
Zn11	Zn	1.967589	1.011658	-0.345189
Zn12	Zn	2.300922	1.344991	-0.011855
O13	O	1.734579	0.578046	-0.578211
O14	O	2.067913	0.911379	-0.244877
O15	O	2.401246	1.244713	0.088456
O16	O	2.002897	0.504321	-0.651943
O17	O	2.336231	0.837654	-0.318610
O18	O	2.669564	1.170987	0.014723
O19	O	1.808192	0.651875	-0.309929
O20	O	2.141525	0.985208	0.023405
O21	O	2.474858	1.318542	0.356738
O22	O	1.660917	0.309796	-0.504527
O23	O	1.994250	0.643129	-0.171194
O24	O	2.327583	0.976462	0.162140
O25	O	2.002816	0.651804	-0.504506
O26	O	2.336149	0.985137	-0.171173
O27	O	2.669483	1.318471	0.162161
O28	O	1.808380	0.309742	-0.651955
O29	O	2.141714	0.643075	-0.318622
O30	O	2.475047	0.976408	0.014711
O31	O	1.660809	0.504445	-0.309938
O32	O	1.994143	0.837779	0.023395
O33	O	2.327476	1.171112	0.356729
O34	O	1.466300	0.504351	-0.504495
O35	O	1.799633	0.837684	-0.171162
O36	O	2.132966	1.171017	0.162172
O37	O	1.660929	0.651637	-0.846476
O38	O	1.994263	0.984971	-0.513143
O39	O	2.327596	1.318304	-0.179809
O40	O	1.466305	0.651708	-0.651899
O41	O	1.799638	0.985042	-0.318565
O42	O	2.132972	1.318375	0.014768
O43	O	1.808388	0.504226	-0.846500
O44	O	2.141721	0.837559	-0.513167
O45	O	2.475054	1.170893	-0.179834
O46	O	1.808199	0.846359	-0.504474
O47	O	2.141532	1.179692	-0.171141
O48	O	2.474866	1.513026	0.162193
O49	O	1.660822	0.846287	-0.651887
O50	O	1.994155	1.179621	-0.318554
O51	O	2.327489	1.512954	0.014780
C52	C	1.422755	0.578028	-0.578195
C53	C	1.756088	0.911361	-0.244862
C54	C	2.089421	1.244694	0.088471
C55	C	1.289355	0.578049	-0.578217
C56	C	1.622688	0.911382	-0.244884
C57	C	1.956021	1.244716	0.088449
C58	C	1.734532	0.889871	-0.578202
C59	C	2.067865	1.223204	-0.244868
C60	C	2.401199	1.556537	0.088465
C61	C	1.734621	1.023271	-0.578238
C62	C	2.067955	1.356604	-0.244905
C63	C	2.401288	1.689937	0.088429
C64	C	1.734660	0.265004	-0.578246
C65	C	2.067993	0.598337	-0.244913
C66	C	2.401327	0.931670	0.088420
C67	C	1.734694	0.131604	-0.578261
C68	C	2.068028	0.464937	-0.244928
C69	C	2.401361	0.798270	0.088405
C70	C	2.047622	0.578065	-0.578227
C71	C	2.380955	0.911398	-0.244894
C72	C	2.714288	1.244732	0.088440
C73	C	2.181022	0.578073	-0.578234
C74	C	2.514355	0.911407	-0.244901
C75	C	2.847688	1.244740	0.088433
C76	C	1.734672	0.577913	-0.891253
C77	C	2.068005	0.911246	-0.557920
C78	C	2.401338	1.244579	-0.224587
C79	C	1.734711	0.577856	-1.024653
C80	C	2.068044	0.911189	-0.691320
C81	C	2.401378	1.244523	-0.357987
C82	C	1.734557	0.578092	-0.266386
C83	C	2.067890	0.911425	0.066947
C84	C	2.401223	1.244759	0.400281
C85	C	1.734750	0.577811	-0.132987
C86	C	2.068083	0.911144	0.200347
C87	C	2.401417	1.244477	0.533680
