data_functionalizedCrystal
_audit_creation_method	'MofGen! by Chris Wilmer'
_symmetry_space_group_name_H-M	'P1'
_symmetry_Int_Tables_number	1
_symmetry_cell_setting	triclinic
loop_
_symmetry_equiv_pos_as_xyz
  x,y,z
_cell_length_a	11.169417
_cell_length_b	18.101389
_cell_length_c	18.101395
_cell_angle_alpha	89.980315
_cell_angle_beta	90.032830
_cell_angle_gamma	89.984344
loop_
_atom_site_label
_atom_site_type_symbol
_atom_site_fract_x
_atom_site_fract_y
_atom_site_fract_z
Zn1	Zn	1.834733	-0.418661	-0.294890
Zn2	Zn	1.834561	-0.294817	-0.418716
Zn3	Zn	1.634033	-0.294841	-0.294894
Zn4	Zn	1.633950	-0.418624	-0.418696
O5	O	1.734319	-0.356736	-0.356799
O6	O	2.002660	-0.402238	-0.311322
O7	O	1.807923	-0.191187	-0.402301
O8	O	1.660763	-0.311291	-0.191261
O9	O	2.002533	-0.311250	-0.402296
O10	O	1.808216	-0.402261	-0.191258
O11	O	1.660596	-0.191205	-0.311330
O12	O	1.466072	-0.311256	-0.311311
O13	O	1.660622	-0.522262	-0.402263
O14	O	1.466012	-0.402198	-0.402267
O15	O	1.808136	-0.522289	-0.311303
O16	O	1.807843	-0.311214	-0.522346
O17	O	1.660455	-0.402175	-0.522332
C18	C	1.422495	-0.356726	-0.356788
C19	C	1.289095	-0.356740	-0.356801
C20	C	1.734389	-0.549898	-0.356780
C21	C	1.734418	-0.632212	-0.356772
C22	C	1.734488	-0.931303	-0.356633
C23	C	1.641357	-0.899961	-0.413681
C24	C	1.641608	-0.814342	-0.413946
C25	C	1.734452	-0.782920	-0.356702
C26	C	1.860901	-0.814014	-0.377885
C27	C	1.860383	-0.899659	-0.378260
C28	C	1.702270	-0.899732	-0.278276
C29	C	1.699456	-0.814081	-0.278729
C30	C	1.734440	-0.699061	-0.356740
C31	C	1.734509	-1.015162	-0.356598
C32	C	2.047362	-0.356746	-0.356811
C33	C	2.180762	-0.356750	-0.356816
C34	C	1.734154	-0.356704	-0.549210
C35	C	1.734193	-0.356716	-0.631524
C36	C	1.734319	-0.164325	-0.356764
C37	C	1.734522	-0.082011	-0.356564
C38	C	1.734331	-0.356745	-0.782232
C39	C	1.641551	-0.413931	-0.813608
C40	C	1.641901	-0.414172	-0.899226
C41	C	1.734465	-0.356774	-0.930615
C42	C	1.860995	-0.377765	-0.899434
C43	C	1.860380	-0.378164	-0.813789
C44	C	1.701716	-0.278431	-0.813856
C45	C	1.699002	-0.278865	-0.899508
C46	C	1.734548	-0.356789	-1.014474
C47	C	1.734256	-0.356732	-0.698373
C48	C	1.734518	-0.356783	-0.163637
C49	C	1.734602	-0.356804	-0.081323
H50	H	1.547841	-0.793319	-0.400690
H51	H	1.662904	-0.471630	-0.792048
H52	H	1.663593	-0.472203	-0.919674
H53	H	1.548088	-0.401052	-0.920313
F54	F	1.577287	-0.258168	-0.926154
H55	H	1.547403	-0.400959	-0.793086
F56	F	1.954038	-0.787415	-0.325283
H57	H	1.887696	-0.919638	-0.435540
F58	F	1.897223	-0.785984	-0.451959
F59	F	1.669467	-0.787563	-0.489854
H60	H	1.887987	-0.435406	-0.793769
F61	F	1.953832	-0.326071	-0.786649
H62	H	1.611666	-0.921327	-0.258977
H63	H	1.932049	-0.337402	-0.919759
H64	H	1.761654	-0.233999	-0.920884
H65	H	1.606401	-0.793758	-0.262755
H66	H	1.932124	-0.920393	-0.338512
F67	F	1.781658	-0.786133	-0.220224
F68	F	1.897757	-0.451774	-0.927410
F69	F	1.583118	-0.253400	-0.785716
F70	F	1.790039	-0.222743	-0.787331
F71	F	1.518422	-0.926872	-0.396530
F72	F	1.668826	-0.928134	-0.489126
H73	H	1.770102	-0.920002	-0.235773
