data_functionalizedCrystal
_audit_creation_method	'MofGen! by Chris Wilmer'
_symmetry_space_group_name_H-M	'P1'
_symmetry_Int_Tables_number	1
_symmetry_cell_setting	triclinic
loop_
_symmetry_equiv_pos_as_xyz
  x,y,z
_cell_length_a	16.109301
_cell_length_b	15.995350
_cell_length_c	14.586319
_cell_angle_alpha	89.998440
_cell_angle_beta	89.999213
_cell_angle_gamma	83.476928
loop_
_atom_site_label
_atom_site_type_symbol
_atom_site_fract_x
_atom_site_fract_y
_atom_site_fract_z
O1	O	1.103160	0.107624	-0.076178
O2	O	1.603160	0.607624	0.423822
O3	O	0.861101	0.121018	-0.076192
O4	O	1.361101	0.621018	0.423808
O5	O	0.988747	-0.007569	-0.076184
O6	O	1.488747	0.492431	0.423816
O7	O	0.975514	0.236210	-0.076186
O8	O	1.475514	0.736210	0.423814
O9	O	0.988739	-0.007570	0.076297
O10	O	1.488739	0.492430	0.576297
O11	O	0.861093	0.121016	0.076289
O12	O	1.361093	0.621016	0.576289
O13	O	1.103151	0.107622	0.076303
O14	O	1.603151	0.607622	0.576303
Cu15	Cu	0.982121	0.114319	0.090219
Cu16	Cu	1.482121	0.614319	0.590219
Cu17	Cu	0.982131	0.114321	-0.090107
Cu18	Cu	1.482131	0.614321	0.409893
O19	O	0.975505	0.236208	0.076295
O20	O	1.475505	0.736208	0.576295
C21	C	0.830122	0.120474	0.000047
C22	C	1.330122	0.620474	0.500047
C23	C	0.737826	0.118848	0.000041
C24	C	1.237826	0.618848	0.500041
C25	C	0.515573	0.191366	0.000051
C26	C	1.015573	0.691366	0.500051
C27	C	0.428853	0.189831	0.000057
C28	C	0.928853	0.689831	0.500057
C29	C	0.448686	0.037268	0.000055
C30	C	0.948686	0.537268	0.500055
C31	C	0.535405	0.038804	0.000055
C32	C	1.035405	0.538804	0.500055
C33	C	0.568846	0.115855	0.000049
C34	C	1.068846	0.615855	0.500049
C35	C	0.395406	0.112785	0.000054
C36	C	0.895406	0.612785	0.500054
C37	C	0.301380	0.111120	0.000061
C38	C	0.801380	0.611120	0.500061
C39	C	0.662879	0.117520	0.000044
C40	C	1.162879	0.617520	0.500044
C41	C	0.988196	-0.038764	0.000055
C42	C	1.488196	0.461236	0.500055
C43	C	0.986556	-0.131714	0.000050
C44	C	1.486556	0.368286	0.500050
C45	C	0.980665	-0.469460	0.000053
C46	C	1.480665	0.030540	0.500053
C47	C	0.889758	-0.422001	-0.000295
C48	C	1.389758	0.077999	0.499705
C49	C	0.891399	-0.325311	0.000049
C50	C	1.391399	0.174689	0.500049
C51	C	0.983587	-0.301900	0.000051
C52	C	1.483587	0.198100	0.500051
C53	C	1.028421	-0.342991	0.087126
C54	C	1.528421	0.157009	0.587126
C55	C	1.026137	-0.439626	0.087198
C56	C	1.526137	0.060374	0.587198
C57	C	1.028025	-0.439983	-0.086201
C58	C	1.528025	0.060017	0.413799
C59	C	1.028003	-0.343037	-0.087351
C60	C	1.528003	0.156963	0.412649
C61	C	0.985243	-0.207203	0.000053
C62	C	1.485243	0.292797	0.500053
C63	C	0.979012	-0.564157	0.000057
C64	C	1.479012	-0.064157	0.500057
C65	C	1.134130	0.108166	0.000062
C66	C	1.634130	0.608166	0.500062
C67	C	1.226426	0.109792	0.000062
C68	C	1.726426	0.609792	0.500062
C69	C	0.976056	0.267404	0.000054
C70	C	1.476056	0.767404	0.500054
C71	C	0.977697	0.360354	0.000053
C72	C	1.477697	0.860354	0.500053
N73	N	0.982120	0.114317	0.217050
N74	N	1.482120	0.614317	0.717050
N75	N	0.982139	0.114317	-0.216939
N76	N	1.482139	0.614317	0.283061
C77	C	1.038660	0.057398	0.452061
C78	C	1.538660	0.557398	0.952061
C79	C	1.038662	0.057396	0.548042
C80	C	1.538662	0.557396	1.048042
C81	C	0.925593	0.171238	0.548044
C82	C	1.425593	0.671238	1.048044
C83	C	0.925587	0.171236	0.452064
C84	C	1.425587	0.671236	0.952064
C85	C	0.982125	0.114316	0.404075
C86	C	1.482125	0.614316	0.904075
C87	C	0.982134	0.114317	0.596036
C88	C	1.482134	0.614317	1.096036
C89	C	0.982136	0.114315	0.700103
C90	C	1.482136	0.614315	1.200103
C91	C	0.982122	0.114317	0.300001
C92	C	1.482122	0.614317	0.800001
H93	H	0.421447	-0.025465	0.000066
H94	H	0.921447	0.474535	0.500066
H95	H	0.542798	0.254106	0.000053
H96	H	1.042798	0.754106	0.500053
H97	H	0.855912	-0.297438	0.062570
H98	H	1.355912	0.202562	0.562570
F99	F	0.865409	0.231816	0.400991
F100	F	1.365409	0.731816	0.900991
F101	F	0.592106	-0.041570	0.000059
F102	F	1.092106	0.458430	0.500059
F103	F	0.845334	-0.288145	-0.081537
F104	F	1.345334	0.211855	0.418463
H105	H	1.084696	0.011050	0.412990
H106	H	1.584696	0.511050	0.912990
H107	H	1.084697	0.011047	0.587109
H108	H	1.584697	0.511047	1.087109
F109	F	0.865426	0.231815	0.599124
F110	F	1.365426	0.731815	1.099124
H111	H	0.853581	-0.441586	0.061797
H112	H	1.353581	0.058414	0.561797
H113	H	0.853427	-0.440522	-0.062738
H114	H	1.353427	0.059478	0.437262
H115	H	0.993437	-0.457919	0.152287
H116	H	1.493437	0.042081	0.652287
F117	F	1.113372	-0.481803	0.092373
F118	F	1.613372	0.018197	0.592373
H119	H	0.385481	0.251320	0.000061
H120	H	0.885481	0.751320	0.500061
H121	H	1.096149	-0.328884	0.090365
H122	H	1.596149	0.171116	0.590365
H123	H	0.998307	-0.460513	-0.152198
H124	H	1.498307	0.039487	0.347802
F125	F	0.987711	-0.305887	0.171822
F126	F	1.487711	0.194113	0.671822
H127	H	0.995224	-0.315779	-0.151767
H128	H	1.495224	0.184221	0.348233
F129	F	1.115631	-0.481521	-0.086966
F130	F	1.615631	0.018479	0.413034
F131	F	1.115875	-0.322978	-0.094228
F132	F	1.615875	0.177022	0.405772
