data_functionalizedCrystal
_audit_creation_method	'MofGen! by Chris Wilmer'
_symmetry_space_group_name_H-M	'P1'
_symmetry_Int_Tables_number	1
_symmetry_cell_setting	triclinic
loop_
_symmetry_equiv_pos_as_xyz
  x,y,z
_cell_length_a	19.377369
_cell_length_b	19.377372
_cell_length_c	19.377625
_cell_angle_alpha	75.978427
_cell_angle_beta	44.223055
_cell_angle_gamma	82.773744
loop_
_atom_site_label
_atom_site_type_symbol
_atom_site_fract_x
_atom_site_fract_y
_atom_site_fract_z
Zr1	Zr	0.748081	-0.086905	0.566167
O2	O	0.879293	-0.134620	0.437152
O3	O	0.596533	-0.094859	0.630143
O4	O	0.705391	-0.203735	0.630199
O5	O	0.811201	0.085826	0.409266
O6	O	0.694850	-0.232567	0.754694
O7	O	0.770435	-0.025744	0.437096
O8	O	0.500122	-0.037808	0.754593
O9	O	1.005929	-0.108933	0.409367
O10	O	0.658532	-0.092487	0.720826
O11	O	0.696822	0.012294	0.607149
O12	O	0.824989	-0.115894	0.607215
O13	O	0.863279	-0.011113	0.493538
Zr14	Zr	0.796286	0.045051	0.720337
Zr15	Zr	0.731269	-0.132890	0.764722
Zr16	Zr	0.813099	0.091036	0.521783
Zr17	Zr	0.950050	-0.045938	0.521854
Zr18	Zr	0.594317	0.004084	0.764650
O19	O	0.947835	0.053005	0.656361
O20	O	0.855388	-0.200004	0.719471
O21	O	0.971740	0.118389	0.374043
O22	O	0.665074	0.092766	0.849352
O23	O	0.572628	-0.160243	0.912461
O24	O	0.688980	0.158150	0.567034
O25	O	0.733166	-0.127680	0.877238
O26	O	0.838976	0.161881	0.656305
O27	O	0.849518	0.190713	0.531810
O28	O	0.773933	-0.016110	0.849409
O29	O	0.992565	-0.145485	0.567192
O30	O	0.551803	0.103631	0.719313
O31	O	0.538439	0.067079	0.877137
O32	O	0.486759	-0.074360	0.912417
O33	O	1.057609	0.032506	0.374088
O34	O	1.044245	-0.004046	0.531912
O35	O	0.719379	0.074040	0.679289
O36	O	0.681088	-0.030741	0.792966
O37	O	0.847545	-0.054148	0.679355
O38	O	0.885836	0.050633	0.565678
C39	C	0.519552	-0.072170	0.698681
C40	C	0.433810	-0.089562	0.717494
C41	C	0.793214	0.036593	0.394891
C42	C	0.800351	0.056115	0.310600
C43	C	0.853511	0.201650	0.587734
C44	C	0.881112	0.277190	0.568891
C45	C	0.251498	0.126856	0.483007
C46	C	0.170852	0.110544	0.500797
C47	C	0.130889	0.001161	0.619467
C48	C	0.211531	0.017465	0.601692
C49	C	0.271831	0.080314	0.533460
C50	C	0.231863	-0.029077	0.652144
C51	C	0.312501	-0.012775	0.634366
C52	C	0.372807	0.050069	0.566135
C53	C	0.352469	0.096616	0.515682
C54	C	0.171566	-0.091927	0.720370
C55	C	0.191899	-0.138470	0.770823
C56	C	0.272534	-0.122166	0.753050
C57	C	0.332840	-0.059321	0.684819
C58	C	0.292872	-0.168712	0.803504
C59	C	0.373511	-0.152410	0.785725
C60	C	0.413478	-0.043020	0.667041
C61	C	1.024816	0.030316	0.587823
C62	C	1.110557	0.047708	0.569011
C63	C	0.690857	-0.243504	0.698771
C64	C	0.663255	-0.319044	0.717613
C65	C	0.537454	0.586714	0.803468
C66	C	0.563412	0.657691	0.785755
C67	C	0.737180	0.633247	0.667154
C68	C	0.711237	0.562267	0.684853
C69	C	0.611372	0.539007	0.753013
C70	C	0.785155	0.514560	0.634398
C71	C	0.759213	0.443586	0.652101
C72	C	0.659353	0.420319	0.720259
C73	C	0.585430	0.468033	0.770715
C74	C	0.885019	0.537821	0.566244
C75	C	0.958937	0.490113	0.515789
C76	C	0.932996	0.419139	0.533486
C77	C	0.833136	0.395872	0.601644
C78	C	1.006919	0.371425	0.483029
C79	C	0.980977	0.300451	0.500732
C80	C	0.807194	0.324898	0.619347
C81	C	0.711506	-0.186966	0.110023
C82	C	0.718214	-0.168599	0.030818
C83	C	0.763128	-0.045678	0.000177
C84	C	0.756429	-0.064035	0.079378
C85	C	0.730617	-0.134681	0.134296
C86	C	0.775539	-0.011750	0.103652
C87	C	0.768836	-0.030105	0.182849
C88	C	0.743022	-0.100746	0.237773
C89	C	0.723913	-0.153036	0.213494
C90	C	0.801344	0.058896	0.048737
C91	C	0.820455	0.111182	0.073011
C92	C	0.813758	0.092826	0.152205
C93	C	0.787944	0.022185	0.207129
C94	C	0.832867	0.145116	0.176484
C95	C	0.826163	0.126760	0.255682
C96	C	0.781241	0.003829	0.286326
C97	C	0.751154	-0.078447	0.891613
C98	C	0.744017	-0.097969	0.975905
C99	C	0.498522	-0.129690	0.947042
C100	C	0.405643	-0.166604	1.050146
C101	C	0.600878	0.150406	0.643163
C102	C	0.542739	0.208556	0.643133
C103	C	0.579849	0.092886	0.891524
C104	C	0.514572	0.131514	0.975785
C105	C	0.964519	-0.134740	0.394980
C106	C	1.029796	-0.173368	0.310719
C107	C	1.045846	0.087836	0.339462
C108	C	1.138724	0.124750	0.236358
C109	C	0.943489	-0.192260	0.643341
C110	C	1.001629	-0.250410	0.643371
C111	C	0.350250	-0.216177	1.060910
C112	C	0.262986	-0.250873	1.157781
C113	C	0.231114	-0.235992	1.243887
C114	C	0.286517	-0.186416	1.233119
C115	C	0.373782	-0.151724	1.136249
C116	C	0.527213	0.268101	0.680773
C117	C	0.472599	0.322748	0.680737
C118	C	0.433506	0.317846	0.643067
C119	C	0.449037	0.258295	0.605421
C120	C	0.503656	0.203652	0.605451
C121	C	0.463929	0.094957	1.074702
C122	C	0.402603	0.131245	1.153881
C123	C	0.391915	0.204089	1.134143
C124	C	0.442566	0.240648	1.035215
C125	C	0.503896	0.204361	0.956037
C126	C	1.080448	-0.136809	0.211800
C127	C	1.141800	-0.173092	0.132615
C128	C	1.152492	-0.245935	0.152353
C129	C	1.101836	-0.282495	0.251282
C130	C	1.040491	-0.246211	0.330463
C131	C	1.194124	0.174317	0.225594
C132	C	1.281402	0.208999	0.128723
C133	C	1.313276	0.194116	0.042618
C134	C	1.257871	0.144542	0.053386
C135	C	1.170598	0.109858	0.150255
C136	C	1.040705	-0.245488	0.681050
C137	C	1.095324	-0.300125	0.681097
C138	C	1.110870	-0.359680	0.643459
C139	C	1.071787	-0.364601	0.605780
C140	C	1.017163	-0.309967	0.605740
H141	H	0.438470	0.063339	0.551658
O142	O	1.196411	-0.133658	0.025924
H143	H	1.178645	-0.076916	0.025515
H144	H	0.401569	0.147793	0.460121
H145	H	0.737560	-0.115689	0.302263
O146	O	0.252136	-0.170369	1.325994
H147	H	0.239154	-0.112880	1.325447
O148	O	0.860690	0.221311	0.117260
H149	H	0.935139	0.238134	0.080767
H150	H	0.690497	-0.244494	0.154733
H151	H	1.071748	-0.077498	0.195711
O152	O	1.088543	-0.428832	0.565184
H153	H	1.169376	-0.432806	0.500664
H154	H	1.202445	-0.275471	0.087869
H155	H	0.217887	-0.291237	1.166529
H156	H	0.985352	-0.313982	0.575053
H157	H	1.110550	-0.341807	0.267341
H158	H	0.417200	0.254313	0.574751
H159	H	1.326501	0.249363	0.119975
O160	O	0.520304	0.139431	0.564889
H161	H	0.601115	0.135401	0.500343
O162	O	0.475462	0.016392	1.096001
H163	H	0.429950	-0.002919	1.178088
O164	O	1.407387	0.231548	-0.061862
H165	H	1.440537	0.268527	-0.054871
H166	H	0.999247	-0.275987	0.411007
O167	O	0.148916	0.160745	0.446379
H168	H	0.134317	0.213615	0.465767
O169	O	0.384623	-0.232240	0.968046
H170	H	0.331441	-0.272549	0.991822
O171	O	0.316546	0.194643	0.409416
H172	H	0.288864	0.224271	0.377314
O173	O	0.558505	0.243797	0.849352
H174	H	0.602956	0.206336	0.797599
H175	H	1.168182	0.186447	0.295694
H176	H	0.389033	0.362345	0.643048
H177	H	0.462578	0.008158	0.611480
H178	H	0.361366	0.101466	1.234426
O179	O	1.292254	0.128491	-0.039488
H180	H	1.362242	0.160946	-0.108649
H181	H	0.081786	-0.050012	0.675019
H182	H	0.456135	0.567777	0.858960
O183	O	1.137474	-0.294803	0.721735
H184	H	1.178059	-0.342800	0.715458
H185	H	1.125494	0.069501	0.159006
H186	H	1.028058	-0.197000	0.711699
O187	O	0.325748	0.243220	1.219551
H188	H	0.353105	0.239750	1.254606
H189	H	0.433854	0.299961	1.019158
O190	O	0.753411	-0.072367	0.345565
H191	H	0.678956	-0.089188	0.382070
H192	H	1.155350	-0.404161	0.643497
H193	H	0.105911	-0.105200	0.734837
O194	O	0.433516	-0.098244	1.124643
H195	H	0.396678	-0.093723	1.200797
H196	H	0.160055	-0.264245	1.322758
H197	H	0.459961	0.371231	0.711396
H198	H	0.142796	-0.189642	0.826374
H199	H	0.390064	-0.190310	0.826808
O200	O	0.227843	-0.236502	0.877081
H201	H	0.168356	-0.240019	0.880965
H202	H	0.638233	0.362525	0.734676
O203	O	0.699481	0.299804	0.692865
H204	H	0.667134	0.331170	0.666626
H205	H	0.504111	0.449095	0.826208
H206	H	0.503212	0.696535	0.826844
H207	H	0.906137	0.595613	0.551835
O208	O	0.844890	0.658338	0.593631
H209	H	0.850513	0.715707	0.589790
H210	H	1.040247	0.509062	0.460297
O211	O	0.696083	-0.229232	0.272733
H212	H	0.621628	-0.246053	0.309237
H213	H	0.559039	0.272105	0.711448
H214	H	1.088228	0.390373	0.427542
O215	O	1.060698	0.248989	0.446310
H216	H	1.134498	0.277089	0.395932
O217	O	0.697610	-0.224997	0.004628
H218	H	0.678543	-0.277204	0.056118
H219	H	0.784140	0.011842	-0.044543
O220	O	0.808559	0.078745	-0.036673
H221	H	0.865609	0.047952	-0.095337
H222	H	0.841467	0.168702	0.028290
H223	H	0.841724	0.169337	0.275445
