data_functionalizedCrystal
_audit_creation_method	'MofGen! by Chris Wilmer'
_symmetry_space_group_name_H-M	'P1'
_symmetry_Int_Tables_number	1
_symmetry_cell_setting	triclinic
loop_
_symmetry_equiv_pos_as_xyz
  x,y,z
_cell_length_a	12.759400
_cell_length_b	21.295418
_cell_length_c	21.295411
_cell_angle_alpha	89.956262
_cell_angle_beta	89.986646
_cell_angle_gamma	90.030460
loop_
_atom_site_label
_atom_site_type_symbol
_atom_site_fract_x
_atom_site_fract_y
_atom_site_fract_z
Zn1	Zn	-0.417942	0.962425	-0.356270
Zn2	Zn	-0.593608	0.962357	-0.251011
Zn3	Zn	-0.417992	0.857148	-0.250980
Zn4	Zn	-0.593628	0.857147	-0.356207
O5	O	-0.505793	0.909769	-0.303617
O6	O	-0.441216	1.050505	-0.342346
O7	O	-0.570324	0.948373	-0.162917
O8	O	-0.270964	0.871143	-0.264960
O9	O	-0.570276	1.050455	-0.265013
O10	O	-0.270928	0.948489	-0.342316
O11	O	-0.441300	0.871076	-0.162894
O12	O	-0.441320	0.769059	-0.264899
O13	O	-0.570311	0.871140	-0.444305
O14	O	-0.570359	0.769058	-0.342209
O15	O	-0.441236	0.948488	-0.444351
O16	O	-0.740631	0.948371	-0.264952
O17	O	-0.740647	0.871074	-0.342239
C18	C	-0.505848	0.746218	-0.303544
C19	C	-0.505897	0.676249	-0.303528
C20	C	-0.573177	0.643399	-0.343723
C21	C	-0.573151	0.577656	-0.343752
C22	C	-0.505856	0.544767	-0.303574
C23	C	-0.438563	0.577626	-0.263376
C24	C	-0.438584	0.643367	-0.263353
N25	N	-0.497633	0.441490	-0.248515
N26	N	-0.497620	0.379038	-0.248539
C27	C	-0.505789	0.346692	-0.303640
N28	N	-0.513993	0.379157	-0.358719
N29	N	-0.514011	0.441614	-0.358695
C30	C	-0.505826	0.473482	-0.303594
C31	C	-0.573044	0.242556	-0.343870
C32	C	-0.573011	0.176812	-0.343899
C33	C	-0.438429	0.176783	-0.263517
C34	C	-0.438457	0.242525	-0.263493
C35	C	-0.505770	0.275408	-0.303669
C36	C	-0.778760	0.909732	-0.303606
C37	C	-0.895537	0.909774	-0.303622
C38	C	-0.950290	0.950030	-0.343936
C39	C	-1.060014	0.950066	-0.343953
C40	C	-1.060222	0.869586	-0.263337
C41	C	-0.950500	0.869548	-0.263324
C42	C	-0.231759	0.909824	-0.303642
C43	C	-0.114983	0.909847	-0.303652
C44	C	-0.505770	0.909821	-0.467807
C45	C	-0.505761	0.909844	-0.537775
C46	C	-0.505738	1.073960	-0.303690
C47	C	-0.505715	1.143928	-0.303721
C48	C	-0.438548	0.950117	-0.570667
C49	C	-0.438503	0.950116	-0.636410
C50	C	-0.505689	0.909849	-0.669258
C51	C	-0.572906	0.869568	-0.636358
C52	C	-0.572942	0.869565	-0.570617
N53	N	-0.597599	0.905007	-0.772480
N54	N	-0.597561	0.905013	-0.834931
C55	C	-0.505582	0.909853	-0.867333
N56	N	-0.413639	0.914698	-0.834924
N57	N	-0.413678	0.914695	-0.772466
C58	C	-0.505656	0.909847	-0.740543
C59	C	-0.438314	0.950127	-0.971510
C60	C	-0.438267	0.950122	-1.037254
C61	C	-0.572680	0.869577	-1.037201
C62	C	-0.572718	0.869579	-0.971459
C63	C	-0.505536	0.909857	-0.938617
C64	C	-0.505739	0.909753	-0.140065
C65	C	-0.505452	0.909853	-0.070097
H66	H	-0.383769	0.550843	-0.230663
H67	H	-0.905917	0.836763	-0.230495
O68	O	-0.373069	0.989211	-0.668301
C69	C	-0.194343	1.019793	-0.688469
C70	C	-0.268325	0.975490	-0.652304
H71	H	-0.109641	1.008707	-0.675559
H72	H	-0.212706	1.070557	-0.675570
H73	H	-0.205917	1.012886	-0.741094
H74	H	-0.256792	0.982341	-0.599671
H75	H	-0.249943	0.924742	-0.665256
O76	O	-0.373354	0.989201	-0.538669
C77	C	-0.313724	1.024828	-0.437415
C78	C	-0.387645	0.980557	-0.473576
H79	H	-0.325237	1.017846	-0.384782
H80	H	-0.332115	1.075606	-0.450319
H81	H	-0.229030	1.013776	-0.450381
H82	H	-0.472364	0.991553	-0.460630
H83	H	-0.369164	0.929793	-0.460670
O84	O	-0.638454	0.545802	-0.382887
C85	C	-0.689667	0.525741	-0.489918
C86	C	-0.615668	0.561865	-0.445669
H87	H	-0.671257	0.538704	-0.540688
H88	H	-0.774380	0.538625	-0.478825
H89	H	-0.678100	0.473109	-0.482997
H90	H	-0.627142	0.614504	-0.452566
H91	H	-0.530983	0.548928	-0.456773
H92	H	-0.627606	0.836780	-0.663107
O93	O	-0.897060	0.989118	-0.383145
C94	C	-0.908440	1.068965	-0.463088
C95	C	-0.968848	1.024722	-0.418722
H96	H	-0.966454	1.097772	-0.491853
H97	H	-0.857131	1.040058	-0.496001
H98	H	-0.857000	1.101852	-0.434215
H99	H	-1.020345	0.991827	-0.447543
H100	H	-1.020091	1.053668	-0.385806
H101	H	-0.383793	0.670114	-0.230621
H102	H	-0.627849	0.269331	-0.376586
H103	H	-0.627674	0.836767	-0.543837
H104	H	-1.104589	0.982845	-0.376781
H105	H	-0.627797	0.150066	-0.376635
O106	O	-0.372950	0.989266	-0.939700
C107	C	-0.239669	1.069178	-0.946690
C108	C	-0.313623	1.024876	-0.982789
H109	H	-0.191700	1.097989	-0.981511
H110	H	-0.184694	1.040317	-0.915902
H111	H	-0.287928	1.102057	-0.915923
H112	H	-0.265449	0.991987	-1.013590
H113	H	-0.368601	1.053776	-1.013537
H114	H	-0.383632	0.150005	-0.230806
O115	O	-0.637833	0.830372	-1.069077
C116	C	-0.688903	0.723289	-1.089095
C117	C	-0.615038	0.767617	-1.052962
H118	H	-0.670514	0.672543	-1.076070
H119	H	-0.677322	0.730155	-1.141739
H120	H	-0.773616	0.734360	-1.076192
H121	H	-0.530296	0.756574	-1.065813
H122	H	-0.626709	0.760743	-1.000327
H123	H	-0.627456	0.836788	-0.944678
O124	O	-0.638407	0.675407	-0.382787
C125	C	-0.652762	0.749679	-0.467771
C126	C	-0.578777	0.713480	-0.423558
H127	H	-0.604580	0.780461	-0.500754
H128	H	-0.707623	0.780448	-0.438843
H129	H	-0.700864	0.714888	-0.496476
H130	H	-0.530607	0.748226	-0.394844
H131	H	-0.523985	0.682703	-0.452522
O132	O	-0.373074	0.274343	-0.224383
C133	C	-0.239541	0.267374	-0.144688
C134	C	-0.313558	0.231263	-0.188937
H135	H	-0.191387	0.232560	-0.116027
H136	H	-0.287654	0.298078	-0.111670
H137	H	-0.184732	0.298225	-0.173645
H138	H	-0.368381	0.200378	-0.160031
H139	H	-0.265379	0.200599	-0.221956
H140	H	-0.383528	0.982916	-1.064033
H141	H	-1.104986	0.836836	-0.230526
