data_functionalizedCrystal
_audit_creation_method	'MofGen! by Chris Wilmer'
_symmetry_space_group_name_H-M	'P1'
_symmetry_Int_Tables_number	1
_symmetry_cell_setting	triclinic
loop_
_symmetry_equiv_pos_as_xyz
  x,y,z
_cell_length_a	10.540539
_cell_length_b	23.532407
_cell_length_c	9.616153
_cell_angle_alpha	89.993077
_cell_angle_beta	89.995174
_cell_angle_gamma	83.687085
loop_
_atom_site_label
_atom_site_type_symbol
_atom_site_fract_x
_atom_site_fract_y
_atom_site_fract_z
O1	O	1.683259	0.080251	-0.115596
O2	O	1.313597	0.087813	-0.115615
O3	O	1.509575	0.001174	-0.115579
O4	O	1.487281	0.166890	-0.115631
O5	O	1.509548	0.001176	0.115712
O6	O	1.313571	0.087814	0.115677
O7	O	1.683232	0.080253	0.115695
Zn8	Zn	1.498397	0.084034	0.152408
Zn9	Zn	1.498432	0.084032	-0.152328
O10	O	1.487254	0.166892	0.115660
C11	C	1.266300	0.087246	0.000029
C12	C	1.125407	0.085550	0.000023
C13	C	0.944114	0.020541	0.000583
C14	C	1.090676	0.022261	0.000047
C15	C	1.062750	0.116006	-0.132060
C16	C	0.916277	0.113846	-0.132156
C17	C	0.915716	0.115136	0.130865
C18	C	1.062678	0.115719	0.132597
C19	C	1.508994	-0.020045	0.000070
C20	C	1.507287	-0.083273	0.000080
C21	C	1.612557	-0.481681	0.000010
C22	C	1.610971	-0.541092	-0.000001
O23	O	1.708557	-0.577192	-0.000048
N24	N	1.494462	-0.564488	-0.000006
C25	C	1.379532	-0.528469	-0.000014
O26	O	1.280287	-0.553824	-0.000021
C27	C	1.381119	-0.469060	-0.000014
C28	C	1.497635	-0.445667	0.000005
C29	C	1.729064	-0.458288	0.000027
C30	C	1.730649	-0.398882	0.000040
C31	C	1.615727	-0.362868	0.000036
C32	C	1.499220	-0.386261	0.000019
C33	C	1.266190	-0.433042	-0.000032
C34	C	1.267787	-0.373629	-0.000032
C35	C	1.384303	-0.350237	-0.000013
C36	C	1.385883	-0.290840	0.000028
N37	N	1.502392	-0.267444	0.000032
C38	C	1.617314	-0.303458	0.000037
C39	C	1.376208	-0.653234	-0.000018
C40	C	1.374620	-0.712642	-0.000009
C41	C	1.606059	-0.725261	0.000002
C42	C	1.607646	-0.665851	0.000002
C43	C	1.492717	-0.629838	-0.000013
C44	C	1.620634	-0.178700	0.000066
C45	C	1.622209	-0.119287	0.000085
C46	C	1.390770	-0.106674	0.000067
C47	C	1.389194	-0.166081	0.000055
C48	C	1.504137	-0.202093	0.000050
O49	O	1.288349	-0.254705	0.000068
O50	O	1.716543	-0.278095	0.000025
C51	C	1.730530	0.080819	0.000049
C52	C	1.871422	0.082516	0.000045
C53	C	1.487835	0.188111	0.000008
C54	C	1.489542	0.251339	-0.000012
N55	N	1.498382	0.084035	0.360383
N56	N	1.498457	0.084026	-0.360302
C57	C	1.393237	0.130226	0.580734
C58	C	1.393459	0.130399	0.419567
C59	C	1.630662	0.097553	0.418834
C60	C	1.630087	0.097880	0.580052
C61	C	1.472575	0.024176	0.580312
C62	C	1.469515	0.024564	0.419085
H63	H	1.104360	0.093469	0.230311
Br64	Br	1.231064	-0.197829	0.000061
H65	H	1.699635	-0.754594	-0.000000
Br66	Br	1.315350	0.002743	0.648159
Br67	Br	1.134904	0.080743	-0.295882
H68	H	1.294574	0.122217	0.619543
Br69	Br	0.895139	-0.020963	-0.156380
H70	H	1.717094	-0.100245	0.000104
H71	H	0.866815	0.159363	-0.138165
Br72	Br	1.776629	-0.227564	0.000057
H73	H	0.888817	0.091335	-0.230875
Br74	Br	0.864245	0.080998	0.297737
H75	H	1.710791	0.064822	0.380495
Br76	Br	1.307336	0.007483	0.355420
H77	H	1.083578	0.162484	-0.136989
H78	H	1.085389	0.161861	0.140557
Br79	Br	1.764311	0.043912	0.645067
H80	H	0.866988	0.160849	0.131743
Br81	Br	1.888786	-0.367145	0.000027
Br82	Br	1.589048	-0.035493	0.351970
H83	H	1.133224	-0.001874	-0.094785
H84	H	1.654143	0.140725	0.378431
Br85	Br	1.420803	0.204415	0.355230
H86	H	1.549315	-0.010211	0.618442
H87	H	1.822652	-0.487605	0.000025
Br88	Br	1.765780	-0.634111	0.000031
H89	H	1.409455	0.174378	0.621220
Br90	Br	1.668292	0.170657	0.642689
H91	H	1.279741	-0.731682	-0.000000
Br92	Br	1.220216	-0.604364	-0.000028
Br93	Br	1.111801	-0.324757	-0.000060
Br94	Br	1.108050	-0.464773	-0.000063
H95	H	1.297204	-0.077341	0.000068
H96	H	1.134065	-0.001703	0.094731
Br97	Br	1.229511	0.116882	0.353694
H98	H	0.916338	-0.004461	0.095309
