data_functionalizedCrystal
_audit_creation_method	'MofGen! by Chris Wilmer'
_symmetry_space_group_name_H-M	'P1'
_symmetry_Int_Tables_number	1
_symmetry_cell_setting	triclinic
loop_
_symmetry_equiv_pos_as_xyz
  x,y,z
_cell_length_a	15.995350
_cell_length_b	27.732048
_cell_length_c	14.472310
_cell_angle_alpha	89.993924
_cell_angle_beta	89.990621
_cell_angle_gamma	83.067515
loop_
_atom_site_label
_atom_site_type_symbol
_atom_site_fract_x
_atom_site_fract_y
_atom_site_fract_z
O1	O	1.110190	0.062301	-0.076773
O2	O	0.866316	0.069995	-0.076793
O3	O	0.995827	-0.004216	-0.076765
O4	O	0.980679	0.136512	-0.076801
O5	O	0.995794	-0.004212	0.076917
O6	O	0.866282	0.069999	0.076889
O7	O	1.110157	0.062306	0.076909
Cu8	Cu	0.988217	0.066153	0.090931
Cu9	Cu	0.988256	0.066148	-0.090815
O10	O	0.980646	0.136517	0.076881
C11	C	0.835108	0.069679	0.000045
C12	C	0.742170	0.068726	0.000038
C13	C	0.404467	0.065301	0.000059
C14	C	0.452585	0.012449	0.000415
C15	C	0.549263	0.013403	0.000062
C16	C	0.572006	0.067000	0.000049
C17	C	0.530600	0.093065	-0.087714
C18	C	0.433982	0.091738	-0.087781
C19	C	0.433591	0.092835	0.086984
C20	C	0.530536	0.092822	0.088138
C21	C	0.666691	0.067962	0.000041
C22	C	0.309782	0.064340	0.000061
C23	C	0.995493	-0.022222	0.000079
C24	C	0.994535	-0.075881	0.000086
C25	C	1.065040	-0.414392	0.000045
C26	C	1.061487	-0.616067	0.000031
O27	O	1.125959	-0.647045	-0.000004
N28	N	0.984692	-0.635522	0.000026
C29	C	0.908780	-0.604555	0.000018
O30	O	0.843380	-0.625730	0.000003
C31	C	0.912334	-0.402881	0.000024
C32	C	0.989134	-0.383429	0.000039
C33	C	1.141834	-0.394940	0.000058
C34	C	1.142721	-0.344524	0.000067
C35	C	1.066815	-0.313561	0.000061
C36	C	0.990021	-0.333013	0.000047
C37	C	0.836422	-0.371914	0.000009
C38	C	0.837317	-0.321493	0.000009
C39	C	0.914117	-0.302041	0.000023
C40	C	0.915002	-0.251634	0.000050
N41	N	0.991797	-0.232179	0.000056
C42	C	1.067703	-0.263142	0.000061
C43	C	0.906920	-0.710437	0.000016
C44	C	0.906031	-0.760855	0.000016
C45	C	1.058739	-0.772364	0.000028
C46	C	1.059627	-0.721945	0.000035
C47	C	0.983715	-0.690982	0.000021
C48	C	1.069561	-0.157265	0.000080
C49	C	1.070442	-0.106844	0.000092
C50	C	0.917734	-0.095340	0.000075
C51	C	0.916853	-0.145756	0.000067
C52	C	0.992773	-0.176718	0.000067
O53	O	0.850565	-0.220628	0.000075
O54	O	1.133094	-0.241958	0.000055
C55	C	1.064153	-0.464808	0.000036
C56	C	0.987359	-0.484260	0.000022
C57	C	0.911452	-0.453297	0.000017
C58	C	0.986470	-0.534679	0.000022
C59	C	1.062377	-0.565642	0.000028
C60	C	1.139172	-0.546187	0.000033
C61	C	1.140059	-0.495771	0.000042
C62	C	0.834657	-0.472752	0.000011
C63	C	0.833776	-0.523168	0.000004
C64	C	0.909683	-0.554132	0.000010
C65	C	1.141364	0.062621	0.000068
C66	C	1.234302	0.063575	0.000069
C67	C	0.980980	0.154523	0.000035
C68	C	0.981938	0.208182	0.000022
N69	N	0.988195	0.066156	0.218762
N70	N	0.988284	0.066141	-0.218646
C71	C	0.988255	0.066146	0.592853
C72	C	0.918727	0.105721	0.553672
C73	C	0.918884	0.105866	0.446584
C74	C	0.988225	0.066151	0.407262
C75	C	1.075447	0.077167	0.446103
C76	C	1.075055	0.077448	0.553225
C77	C	0.971342	0.015437	0.553394
C78	C	0.969334	0.015775	0.446267
C79	C	0.988213	0.066153	0.302374
C80	C	0.988272	0.066145	0.697742
H81	H	0.413265	0.075558	0.153506
H82	H	1.132984	-0.091010	0.000106
N83	N	0.390575	0.143129	-0.093077
H84	H	0.353769	0.150228	-0.036822
H85	H	0.434275	0.166521	-0.095392
N86	N	0.752783	-0.439359	0.000005
H87	H	0.704005	-0.459339	-0.000000
H88	H	0.749811	-0.418196	0.056981
N89	N	0.587250	-0.013744	0.083391
H90	H	0.628963	-0.041875	0.062435
H91	H	0.616992	0.008923	0.122856
N92	N	0.884342	0.004719	0.412635
H93	H	0.891384	-0.026404	0.375691
H94	H	0.846532	0.000960	0.467408
H95	H	1.131383	-0.182469	0.000075
H96	H	1.016736	-0.015055	0.419504
N97	N	0.410064	0.066548	-0.174658
H98	H	0.369398	0.089494	-0.211992
H99	H	0.462302	0.056411	-0.212482
H100	H	1.022053	-0.014014	0.578732
H101	H	0.929307	0.143140	0.580573
N102	N	0.548642	0.145221	-0.092067
H103	H	0.583913	0.152472	-0.037057
H104	H	0.580233	0.150577	-0.150888
H105	H	0.854317	-0.161595	0.000081
H106	H	0.401325	0.131802	0.087568
N107	N	1.140608	-0.805768	0.000035
H108	H	1.143644	-0.826939	-0.056937
H109	H	1.189352	-0.785765	0.000071
N110	N	0.428402	-0.015534	0.083787
H111	H	0.386017	0.005775	0.122137
H112	H	0.402851	-0.045252	0.062786
H113	H	0.545395	0.131907	0.093429
N114	N	0.835867	-0.061939	0.000094
H115	H	0.848090	-0.027049	0.000104
H116	H	0.802372	-0.068228	-0.056878
N117	N	1.142462	-0.700969	0.000048
H118	H	1.146254	-0.680305	-0.056921
H119	H	1.146172	-0.680334	0.057057
N120	N	1.225562	-0.323554	0.000063
H121	H	1.229347	-0.302891	-0.056909
H122	H	1.229290	-0.302919	0.057069
N123	N	1.145587	0.040002	0.412374
H124	H	1.121439	0.015609	0.371492
H125	H	1.187521	0.056842	0.376037
H126	H	1.090826	0.113726	0.419258
N127	N	0.427016	-0.015410	-0.082480
H128	H	0.458214	-0.049318	-0.081726
H129	H	0.364379	-0.017275	-0.080271
H130	H	0.775499	-0.296285	-0.000004
H131	H	0.929617	0.143496	0.420941
N132	N	1.222894	-0.474794	0.000060
H133	H	1.270838	-0.502066	0.000061
H134	H	1.226608	-0.454123	-0.056910
N135	N	1.223711	-0.428332	0.000065
H136	H	1.272487	-0.408350	0.000075
H137	H	1.226658	-0.449501	0.057041
N138	N	1.221044	-0.579588	0.000048
H139	H	1.208819	-0.614478	0.000042
H140	H	1.254556	-0.573288	-0.056920
N141	N	1.094929	0.126432	0.586307
H142	H	1.103860	0.147639	0.531304
H143	H	1.046470	0.142320	0.624630
N144	N	0.823198	-0.781833	0.000025
H145	H	0.775250	-0.754563	0.000022
H146	H	0.819507	-0.802499	-0.056945
H147	H	0.558085	0.073794	0.153064
N148	N	0.586546	-0.013926	-0.083399
H149	H	0.540168	-0.026637	-0.120108
H150	H	0.616110	0.008628	-0.123329
N151	N	0.568497	0.069084	-0.174230
H152	H	0.631077	0.071230	-0.175237
H153	H	0.558304	0.033849	-0.175040
H154	H	0.845100	-0.685230	0.000005
N155	N	0.753587	-0.392886	0.000005
H156	H	0.705644	-0.365614	-0.000000
H157	H	0.749896	-0.413552	-0.056967
H158	H	0.771232	-0.539001	-0.000000
N159	N	0.832979	0.097174	0.411791
H160	H	0.794667	0.093215	0.466042
H161	H	0.808550	0.125772	0.373122
N162	N	0.832534	0.097177	0.587825
H163	H	0.837716	0.067570	0.629030
H164	H	0.806905	0.126457	0.623924
N165	N	1.145573	0.040704	0.587565
H166	H	1.176780	0.024399	0.533113
H167	H	1.185698	0.057678	0.626247
H168	H	0.909156	0.004845	0.580460
