data_functionalizedCrystal
_audit_creation_method	'MofGen! by Chris Wilmer'
_symmetry_space_group_name_H-M	'P1'
_symmetry_Int_Tables_number	1
_symmetry_cell_setting	triclinic
loop_
_symmetry_equiv_pos_as_xyz
  x,y,z
_cell_length_a	21.395362
_cell_length_b	18.215405
_cell_length_c	21.395356
_cell_angle_alpha	89.973047
_cell_angle_beta	89.964230
_cell_angle_gamma	90.040762
loop_
_atom_site_label
_atom_site_type_symbol
_atom_site_fract_x
_atom_site_fract_y
_atom_site_fract_z
Zn1	Zn	0.957834	-0.292706	-0.354580
Zn2	Zn	1.457834	0.207294	0.145420
Zn3	Zn	0.957762	-0.415770	-0.249800
Zn4	Zn	1.457762	0.084230	0.250200
Zn5	Zn	0.853064	-0.292756	-0.249781
Zn6	Zn	1.353064	0.207244	0.250219
Zn7	Zn	0.853029	-0.415769	-0.354505
Zn8	Zn	1.353029	0.084231	0.145495
O9	O	0.905422	-0.354250	-0.302166
O10	O	1.405422	0.145750	0.197834
O11	O	1.045503	-0.309010	-0.340720
O12	O	1.545503	0.190990	0.159280
O13	O	0.943859	-0.399472	-0.162119
O14	O	1.443859	0.100528	0.337881
O15	O	0.867007	-0.189765	-0.263706
O16	O	1.367007	0.310235	0.236294
O17	O	1.045450	-0.399424	-0.263738
O18	O	1.545450	0.100576	0.236262
O19	O	0.943981	-0.189728	-0.340702
O20	O	1.443981	0.310272	0.159298
O21	O	0.866937	-0.309094	-0.162106
O22	O	1.366937	0.190906	0.337894
O23	O	0.765382	-0.309094	-0.263634
O24	O	1.265382	0.190906	0.236366
O25	O	0.866947	-0.399424	-0.442192
O26	O	1.366947	0.100576	0.057808
O27	O	0.765356	-0.399472	-0.340573
O28	O	1.265356	0.100528	0.159427
O29	O	0.943947	-0.309010	-0.442248
O30	O	1.443947	0.190990	0.057752
O31	O	0.943824	-0.518754	-0.263666
O32	O	1.443824	-0.018754	0.236334
O33	O	0.866877	-0.518754	-0.340592
O34	O	1.366877	-0.018754	0.159408
C35	C	0.742635	-0.354289	-0.302094
C36	C	1.242635	0.145711	0.197906
C37	C	0.672994	-0.354323	-0.302077
C38	C	1.172994	0.145677	0.197923
C39	C	0.640283	-0.401446	-0.342080
C40	C	1.140283	0.098554	0.157920
C41	C	0.574848	-0.401428	-0.342108
C42	C	1.074848	0.098572	0.157892
C43	C	0.542125	-0.354295	-0.302122
C44	C	1.042125	0.145705	0.197878
C45	C	0.574843	-0.307164	-0.262117
C46	C	1.074843	0.192836	0.237883
C47	C	0.640277	-0.307178	-0.262094
C48	C	1.140277	0.192822	0.237906
C49	C	0.438408	-0.348375	-0.245717
C50	C	0.938408	0.151625	0.254283
C51	C	0.372975	-0.348366	-0.245738
C52	C	0.872975	0.151634	0.254262
C53	C	0.340305	-0.354247	-0.302191
C54	C	0.840305	0.145753	0.197809
C55	C	0.373075	-0.360153	-0.358625
C56	C	0.873075	0.139847	0.141375
C57	C	0.438509	-0.360167	-0.358602
C58	C	0.938509	0.139833	0.141398
C59	C	0.471173	-0.354274	-0.302142
C60	C	0.971173	0.145726	0.197858
C61	C	0.236642	-0.401352	-0.342227
C62	C	0.736642	0.098648	0.157773
C63	C	0.171205	-0.401329	-0.342256
C64	C	0.671205	0.098671	0.157744
C65	C	0.171202	-0.307069	-0.262260
C66	C	0.671202	0.192931	0.237740
C67	C	0.236637	-0.307088	-0.262236
C68	C	0.736637	0.192912	0.237764
C69	C	0.269353	-0.354234	-0.302219
C70	C	0.769353	0.145766	0.197781
C71	C	0.905356	-0.545456	-0.302136
C72	C	1.405356	-0.045456	0.197864
C73	C	0.905385	-0.627255	-0.302144
C74	C	1.405385	-0.127255	0.197856
C75	C	0.945546	-0.815425	-0.262163
C76	C	1.445546	-0.315425	0.237837
C77	C	0.945574	-0.892284	-0.262178
C78	C	1.445574	-0.392284	0.237822
C79	C	0.865379	-0.892323	-0.342215
C80	C	1.365379	-0.392323	0.157785
C81	C	0.865355	-0.815466	-0.342203
C82	C	1.365355	-0.315466	0.157797
C83	C	0.905437	-0.777019	-0.302173
C84	C	1.405437	-0.277019	0.197827
C85	C	0.905490	-0.930735	-0.302200
C86	C	1.405490	-0.430735	0.197800
C87	C	0.905520	-1.014068	-0.302217
C88	C	1.405520	-0.514068	0.197783
C89	C	0.905408	-0.693680	-0.302157
C90	C	1.405408	-0.193680	0.197843
C91	C	1.068846	-0.354212	-0.302240
C92	C	1.568846	0.145788	0.197760
C93	C	1.138487	-0.354195	-0.302271
C94	C	1.638487	0.145805	0.197729
C95	C	0.905451	-0.354211	-0.465590
C96	C	1.405451	0.145789	0.034410
C97	C	0.905463	-0.354195	-0.535231
C98	C	1.405463	0.145805	-0.035231
C99	C	0.905506	-0.162297	-0.302210
C100	C	1.405506	0.337703	0.197790
C101	C	0.905542	-0.080498	-0.302229
C102	C	1.405542	0.419502	0.197771
C103	C	0.945587	-0.401100	-1.037035
C104	C	1.445587	0.098900	-0.537035
C105	C	0.945575	-0.401124	-0.971600
C106	C	1.445575	0.098876	-0.471600
C107	C	0.905523	-0.354078	-0.938870
C108	C	1.405523	0.145922	-0.438870
C109	C	0.865468	-0.307019	-0.971580
C110	C	1.365468	0.192981	-0.471580
C111	C	0.865476	-0.307002	-1.037014
C112	C	1.365476	0.192998	-0.537014
C113	C	0.900592	-0.287802	-0.835214
C114	C	1.400592	0.212198	-0.335214
C115	C	0.900588	-0.287818	-0.769781
C116	C	1.400588	0.212182	-0.269781
C117	C	0.905495	-0.354130	-0.737049
C118	C	1.405495	0.145870	-0.237049
C119	C	0.910418	-0.420430	-0.769757
C120	C	1.410418	0.079570	-0.269757
C121	C	0.910426	-0.420413	-0.835192
C122	C	1.410426	0.079587	-0.335192
C123	C	0.905510	-0.354092	-0.867917
C124	C	1.405510	0.145908	-0.367917
C125	C	0.945533	-0.401216	-0.633393
C126	C	1.445533	0.098784	-0.133393
C127	C	0.945517	-0.401240	-0.567957
C128	C	1.445517	0.098760	-0.067957
C129	C	0.865412	-0.307129	-0.567938
C130	C	1.365412	0.192871	-0.067938
C131	C	0.865425	-0.307111	-0.633374
C132	C	1.365425	0.192889	-0.133374
C133	C	0.905488	-0.354153	-0.666097
C134	C	1.405488	0.145847	-0.166097
C135	C	0.905430	-0.354236	-0.139379
C136	C	1.405430	0.145764	0.360621
C137	C	0.905539	-0.354045	-0.069738
C138	C	1.405539	0.145955	0.430262
H139	H	0.666910	-0.268803	-0.229519
H140	H	1.166910	0.231197	0.270481
H141	H	0.978153	-0.439522	-0.660038
H142	H	1.478153	0.060478	-0.160038
H143	H	0.832816	-0.268790	-0.660001
H144	H	1.332816	0.231210	-0.160001
O145	O	0.822145	-0.933800	-0.385379
O146	O	1.322145	-0.433800	0.114621
H147	H	0.832853	-0.919008	-0.434567
H148	H	1.332853	-0.419008	0.065433
O149	O	0.895281	-0.216313	-0.734504
O150	O	1.395281	0.283687	-0.234504
H151	H	0.937258	-0.208795	-0.704722
H152	H	1.437258	0.291205	-0.204722
O153	O	0.988720	-0.451987	-0.532679
O154	O	1.488720	0.048013	-0.032679
H155	H	1.016585	-0.484684	-0.566430
H156	H	1.516585	0.015316	-0.066430
H157	H	0.978196	-0.439434	-0.944968
H158	H	1.478196	0.060566	-0.444968
H159	H	0.896637	-0.233794	-0.861859
H160	H	1.396637	0.266206	-0.361859
H161	H	0.914415	-0.474428	-0.743108
H162	H	1.414415	0.025572	-0.243108
H163	H	0.832800	-0.268825	-0.541290
H164	H	1.332800	0.231175	-0.041290
H165	H	0.832694	-0.784194	-0.374787
H166	H	1.332694	-0.284194	0.125213
H167	H	0.666917	-0.439834	-0.374638
H168	H	1.166917	0.060166	0.125362
O169	O	0.988832	-0.933715	-0.219027
O170	O	1.488832	-0.433715	0.280973
H171	H	0.978111	-0.919026	-0.169835
H172	H	1.478111	-0.419026	0.330165
H173	H	0.978208	-0.439408	-1.063675
H174	H	1.478208	0.060592	-0.563675
O175	O	0.915722	-0.491915	-0.870473
O176	O	1.415722	0.008085	-0.370473
H177	H	0.919126	-0.538034	-0.836725
H178	H	1.419126	-0.038034	-0.336725
H179	H	0.832856	-0.268715	-0.944927
H180	H	1.332856	0.231285	-0.444927
H181	H	0.144560	-0.268690	-0.229705
H182	H	0.644560	0.231310	0.270295
O183	O	0.539555	-0.452282	-0.385230
O184	O	1.039555	0.047718	0.114770
H185	H	0.573298	-0.485079	-0.413018
H186	H	1.073298	0.014921	0.086982
O187	O	0.473854	-0.366520	-0.419466
O188	O	0.973854	0.133480	0.080534
H189	H	0.461279	-0.418909	-0.442774
H190	H	0.961279	0.081091	0.057226
O191	O	0.337850	-0.366491	-0.419521
O192	O	0.837850	0.133509	0.080479
H193	H	0.286844	-0.365478	-0.410060
H194	H	0.786844	0.134522	0.089940
O195	O	0.271936	-0.452188	-0.385357
O196	O	0.771936	0.047812	0.114643
H197	H	0.238194	-0.484944	-0.413188
H198	H	0.738194	0.015056	0.086812
O199	O	0.135878	-0.452156	-0.385370
O200	O	0.635878	0.047844	0.114630
H201	H	0.106014	-0.489502	-0.357233
H202	H	0.606014	0.010498	0.142767
O203	O	0.271924	-0.256283	-0.219074
O204	O	0.771924	0.243717	0.280926
H205	H	0.238179	-0.223513	-0.191266
H206	H	0.738179	0.276487	0.308734
O207	O	0.337635	-0.341991	-0.184873
O208	O	0.837635	0.158009	0.315127
H209	H	0.350135	-0.388731	-0.154026
H210	H	0.850135	0.111269	0.345974
O211	O	0.473645	-0.342033	-0.184825
O212	O	0.973645	0.157967	0.315175
H213	H	0.439866	-0.337936	-0.145588
H214	H	0.939866	0.162064	0.354412
O215	O	0.539555	-0.256342	-0.218974
O216	O	1.039555	0.243658	0.281026
H217	H	0.488559	-0.264260	-0.225700
H218	H	0.988559	0.235740	0.274300
H219	H	0.978184	-0.784123	-0.229569
H220	H	1.478184	-0.284123	0.270431
O221	O	0.822286	-0.256241	-1.072293
O222	O	1.322286	0.243759	-0.572293
H223	H	0.794435	-0.223526	-1.038544
H224	H	1.294435	0.276474	-0.538544
