data_functionalizedCrystal
_audit_creation_method	'MofGen! by Chris Wilmer'
_symmetry_space_group_name_H-M	'P1'
_symmetry_Int_Tables_number	1
_symmetry_cell_setting	triclinic
loop_
_symmetry_equiv_pos_as_xyz
  x,y,z
_cell_length_a	19.188905
_cell_length_b	19.188930
_cell_length_c	13.101039
_cell_angle_alpha	86.654199
_cell_angle_beta	93.352982
_cell_angle_gamma	83.139668
loop_
_atom_site_label
_atom_site_type_symbol
_atom_site_fract_x
_atom_site_fract_y
_atom_site_fract_z
O1	O	0.930017	0.083211	0.085395
O2	O	1.430017	0.583211	0.585395
O3	O	0.726702	0.094965	0.085362
O4	O	1.226702	0.594965	0.585362
O5	O	0.834226	-0.012568	0.085359
O6	O	1.334226	0.487432	0.585359
O7	O	0.822493	0.190743	0.085397
O8	O	1.322493	0.690743	0.585397
O9	O	0.826511	-0.004840	-0.085070
O10	O	1.326511	0.495160	0.414930
O11	O	0.718987	0.102693	-0.085068
O12	O	1.218987	0.602693	0.414932
O13	O	0.922302	0.090939	-0.085035
O14	O	1.422302	0.590939	0.414965
Zn15	Zn	0.819420	0.098043	-0.112111
Zn16	Zn	1.319420	0.598043	0.387889
Zn17	Zn	0.829584	0.087861	0.112438
Zn18	Zn	1.329584	0.587861	0.612438
O19	O	0.814778	0.198471	-0.085032
O20	O	1.314778	0.698471	0.414968
C21	C	0.696833	0.098451	0.000142
C22	C	1.196833	0.598451	0.500142
C23	C	0.619327	0.097318	0.000129
C24	C	1.119327	0.597318	0.500129
C25	C	0.587140	0.092561	0.093032
C26	C	1.087140	0.592561	0.593032
C27	C	0.514317	0.091487	0.093045
C28	C	1.014317	0.591487	0.593045
C29	C	0.473685	0.095157	0.000148
C30	C	0.973685	0.595157	0.500148
C31	C	0.505879	0.099919	-0.092768
C32	C	1.005879	0.599919	0.407232
C33	C	0.578700	0.100999	-0.092778
C34	C	1.078700	0.600999	0.407222
N35	N	0.361535	0.056864	-0.068993
N36	N	0.861535	0.556864	0.431007
N37	N	0.292359	0.055835	-0.068978
N38	N	0.792359	0.555835	0.431022
C39	C	0.254279	0.091903	0.000172
C40	C	0.754279	0.591903	0.500172
N41	N	0.287992	0.129029	0.069322
N42	N	0.787992	0.629029	0.569322
N43	N	0.357175	0.130054	0.069309
N44	N	0.857175	0.630054	0.569309
C45	C	0.394722	0.093986	0.000149
C46	C	0.894722	0.593986	0.500149
C47	C	0.143130	0.085983	0.093096
C48	C	0.643130	0.585983	0.593096
C49	C	0.070305	0.084914	0.093105
C50	C	0.570305	0.584914	0.593105
C51	C	0.061869	0.093338	-0.092710
C52	C	0.561869	0.593338	0.407290
C53	C	0.134692	0.094414	-0.092716
C54	C	0.634692	0.594414	0.407284
C55	C	0.175319	0.090733	0.000190
C56	C	0.675319	0.590733	0.500190
C57	C	0.829988	-0.034715	0.000141
C58	C	1.329988	0.465285	0.500141
C59	C	0.828847	-0.112219	0.000132
C60	C	1.328847	0.387781	0.500132
C61	C	0.891939	-0.157148	0.000138
C62	C	1.391939	0.342852	0.500138
C63	C	0.890868	-0.229973	0.000154
C64	C	1.390868	0.270027	0.500154
C65	C	0.826700	-0.257863	0.000144
C66	C	1.326700	0.242137	0.500144
C67	C	0.763601	-0.212924	0.000145
C68	C	1.263601	0.287076	0.500145
C69	C	0.764674	-0.140101	0.000139
C70	C	1.264674	0.359899	0.500139
N71	N	0.775027	-0.363233	-0.057864
N72	N	1.275027	0.136767	0.442136
N73	N	0.774011	-0.432412	-0.057861
N74	N	1.274011	0.067588	0.442139
C75	C	0.823463	-0.477272	0.000164
C76	C	1.323463	0.022728	0.500164
N77	N	0.873979	-0.450342	0.058173
N78	N	1.373979	0.049658	0.558173
N79	N	0.874996	-0.381157	0.058165
N80	N	1.374996	0.118843	0.558165
C81	C	0.825530	-0.336826	0.000151
C82	C	1.325530	0.163174	0.500151
C83	C	0.885398	-0.601168	0.000189
C84	C	1.385398	-0.101168	0.500189
C85	C	0.884325	-0.673993	0.000212
C86	C	1.384325	-0.173993	0.500212
C87	C	0.757055	-0.656942	0.000192
C88	C	1.257055	-0.156942	0.500192
C89	C	0.758131	-0.584118	0.000180
C90	C	1.258131	-0.084118	0.500180
C91	C	0.822304	-0.556236	0.000173
C92	C	1.322304	-0.056236	0.500173
C93	C	0.952171	0.087452	0.000187
C94	C	1.452171	0.587452	0.500187
C95	C	1.029677	0.088585	0.000207
C96	C	1.529677	0.588585	0.500207
C97	C	0.819016	0.220618	0.000188
C98	C	1.319016	0.720618	0.500188
C99	C	0.820157	0.298121	0.000204
C100	C	1.320157	0.798121	0.500204
N101	N	0.812488	0.104991	-0.265359
N102	N	1.312488	0.604991	0.234641
C103	C	0.803056	0.114451	-0.474402
C104	C	1.303056	0.614451	0.025598
C105	C	0.845950	0.071449	-0.525278
C106	C	1.345950	0.571449	-0.025278
C107	C	0.840703	0.076712	-0.641596
C108	C	1.340703	0.576712	-0.141596
C109	C	0.808303	0.109188	-0.358073
C110	C	1.308303	0.609188	0.141927
N111	N	0.836522	0.080906	0.265686
N112	N	1.336522	0.580906	0.765686
H113	H	0.604905	0.104874	-0.168434
H114	H	1.104905	0.604874	0.331566
H115	H	0.944194	-0.134451	0.000136
H116	H	1.444194	0.365549	0.500136
C117	C	0.900889	0.016376	-0.466119
C118	C	1.400889	0.516376	0.033881
H119	H	0.927110	-0.009915	-0.513338
H120	H	1.427110	0.490085	-0.013338
H121	H	0.931779	0.039502	-0.424250
H122	H	1.431779	0.539502	0.075750
H123	H	0.877666	-0.014444	-0.424278
H124	H	1.377666	0.485556	0.075722
C125	C	0.187820	0.081947	0.195286
C126	C	0.687820	0.581947	0.695286
H127	H	0.158217	0.078971	0.250620
H128	H	0.658217	0.578971	0.750620
H129	H	0.221860	0.041487	0.199144
H130	H	0.721860	0.541487	0.699144
H131	H	0.210946	0.122905	0.199145
H132	H	0.710946	0.622905	0.699145
H133	H	0.762396	0.155218	-0.518198
H134	H	1.262396	0.655218	-0.018198
H135	H	0.935704	-0.710576	0.000222
H136	H	1.435704	-0.210576	0.500222
C137	C	0.478901	0.086250	0.195240
C138	C	0.978901	0.586250	0.695240
H139	H	0.429712	0.086138	0.181937
H140	H	0.929712	0.586138	0.681937
H141	H	0.498025	0.043988	0.233400
H142	H	0.998025	0.543988	0.733400
H143	H	0.487109	0.125405	0.233424
H144	H	0.987109	0.625405	0.733424
C145	C	0.693017	-0.243597	0.000138
C146	C	1.193017	0.256403	0.500138
H147	H	0.655594	-0.206406	0.000143
H148	H	1.155594	0.293594	0.500143
H149	H	0.687258	-0.268964	-0.059292
H150	H	1.187258	0.231036	0.440708
H151	H	0.692648	-0.274337	0.059581
H152	H	1.192648	0.225663	0.559581
C153	C	0.631824	0.088521	0.195225
C154	C	1.131824	0.588521	0.695225
H155	H	0.602220	0.085541	0.250557
H156	H	1.102220	0.585541	0.750557
H157	H	0.665866	0.048064	0.199079
H158	H	1.165866	0.548064	0.699079
H159	H	0.654947	0.129481	0.199090
H160	H	1.154947	0.629481	0.699090
C161	C	0.461180	0.104008	-0.194951
C162	C	0.961180	0.604008	0.305049
H163	H	0.413199	0.102693	-0.181640
H164	H	0.913199	0.602693	0.318360
H165	H	0.465943	0.146637	-0.233068
H166	H	0.965943	0.646637	0.266932
H167	H	0.476814	0.065224	-0.233182
H168	H	0.976814	0.565224	0.266818
H169	H	0.044100	0.081044	0.168761
H170	H	0.544100	0.581044	0.668761
C171	C	0.955983	-0.570490	0.000195
C172	C	1.455983	-0.070490	0.500195
H173	H	0.947586	-0.520684	0.000177
H174	H	1.447586	-0.020684	0.500177
H175	H	0.984643	-0.588611	0.059634
H176	H	1.484643	-0.088611	0.559634
H177	H	0.979261	-0.583242	-0.059239
H178	H	1.479261	-0.083242	0.440761
C179	C	0.017152	0.097606	-0.194895
C180	C	0.517152	0.597606	0.305105
H181	H	-0.030837	0.096348	-0.181584
H182	H	0.469163	0.596348	0.318416
H183	H	0.021983	0.140280	-0.232846
H184	H	0.521983	0.640280	0.267154
H185	H	0.032704	0.058881	-0.233290
H186	H	0.532704	0.558881	0.266710
C187	C	0.170103	0.099639	-0.194909
C188	C	0.670103	0.599639	0.305091
H189	H	0.219291	0.099761	-0.181611
H190	H	0.719291	0.599761	0.318389
H191	H	0.161892	0.060487	-0.233089
H192	H	0.661892	0.560487	0.266911
H193	H	0.150979	0.141904	-0.233071
H194	H	0.650979	0.641904	0.266929
C195	C	0.960271	-0.279404	0.000153
C196	C	1.460271	0.220596	0.500153
H197	H	0.998642	-0.252368	0.000142
H198	H	1.498642	0.247632	0.500142
H199	H	0.965192	-0.310857	0.059585
H200	H	1.465192	0.189143	0.559585
H201	H	0.959798	-0.305474	-0.059288
H202	H	1.459798	0.194526	0.440712
H203	H	0.713295	-0.103519	0.000134
H204	H	1.213295	0.396481	0.500134
C205	C	0.686471	-0.687610	0.000185
C206	C	1.186471	-0.187610	0.500185
H207	H	0.649048	-0.650418	0.000185
H208	H	1.149048	-0.150418	0.500185
H209	H	0.680714	-0.712979	-0.059242
H210	H	1.180714	-0.212979	0.440758
H211	H	0.686100	-0.718348	0.059630
H212	H	1.186100	-0.218348	0.559630
C213	C	0.688728	-0.534693	0.000156
C214	C	1.188728	-0.034693	0.500156
H215	H	0.650358	-0.561731	0.000144
H216	H	1.150358	-0.061731	0.500144
H217	H	0.689189	-0.508615	0.059583
H218	H	1.189189	-0.008615	0.559583
H219	H	0.683814	-0.503246	-0.059289
H220	H	1.183814	-0.003246	0.440711
