data_functionalizedCrystal
_audit_creation_method	'MofGen! by Chris Wilmer'
_symmetry_space_group_name_H-M	'P1'
_symmetry_Int_Tables_number	1
_symmetry_cell_setting	triclinic
loop_
_symmetry_equiv_pos_as_xyz
  x,y,z
_cell_length_a	19.805407
_cell_length_b	12.594516
_cell_length_c	19.805399
_cell_angle_alpha	90.020797
_cell_angle_beta	90.019573
_cell_angle_gamma	90.016053
loop_
_atom_site_label
_atom_site_type_symbol
_atom_site_fract_x
_atom_site_fract_y
_atom_site_fract_z
Zn1	Zn	1.034784	-0.423767	0.382752
Zn2	Zn	1.534784	0.076233	0.882752
Zn3	Zn	1.034720	-0.601760	0.269577
Zn4	Zn	1.534720	-0.101760	0.769577
Zn5	Zn	0.921599	-0.423796	0.269576
Zn6	Zn	1.421599	0.076204	0.769576
Zn7	Zn	0.921583	-0.601704	0.382723
Zn8	Zn	1.421583	-0.101704	0.882723
O9	O	0.978172	-0.512757	0.326157
O10	O	1.478172	-0.012757	0.826157
O11	O	1.129492	-0.447389	0.367751
O12	O	1.629492	0.052611	0.867751
O13	O	1.019694	-0.578189	0.174860
O14	O	1.519694	-0.078189	0.674860
O15	O	0.936647	-0.274846	0.284601
O16	O	1.436647	0.225154	0.784601
O17	O	1.129445	-0.578160	0.284602
O18	O	1.629445	-0.078160	0.784602
O19	O	1.019804	-0.274825	0.367750
O20	O	1.519804	0.225175	0.867750
O21	O	0.936584	-0.447439	0.174860
O22	O	1.436584	0.052561	0.674860
O23	O	0.826880	-0.447385	0.284573
O24	O	1.326880	0.052615	0.784573
O25	O	0.936620	-0.578064	0.477444
O26	O	1.436620	-0.078064	0.977444
O27	O	0.826869	-0.578092	0.367702
O28	O	1.326869	-0.078092	0.867702
O29	O	1.019788	-0.447335	0.477464
O30	O	1.519788	0.052665	0.977464
O31	O	1.019678	-0.750698	0.284574
O32	O	1.519678	-0.250698	0.784574
O33	O	0.936557	-0.750657	0.367703
O34	O	1.436557	-0.250657	0.867703
C35	C	0.802316	-0.512736	0.326135
C36	C	1.302316	-0.012736	0.826135
C37	C	0.727084	-0.512753	0.326142
C38	C	1.227084	-0.012753	0.826142
C39	C	0.978127	-0.789298	0.326150
C40	C	1.478127	-0.289298	0.826150
C41	C	0.978170	-0.907603	0.326170
C42	C	1.478170	-0.407603	0.826170
C43	C	0.691751	-0.580915	0.369357
C44	C	1.191751	-0.080915	0.869357
C45	C	0.621063	-0.580917	0.369366
C46	C	1.121063	-0.080917	0.869366
C47	C	0.585708	-0.512762	0.326157
C48	C	1.085708	-0.012762	0.826157
C49	C	0.621045	-0.444592	0.282940
C50	C	1.121045	0.055408	0.782940
C51	C	0.691733	-0.444586	0.282934
C52	C	1.191733	0.055414	0.782934
C53	C	0.335972	-0.444615	0.282962
C54	C	0.835972	0.055385	0.782962
C55	C	0.265280	-0.444629	0.282970
C56	C	0.765280	0.055371	0.782970
C57	C	0.265302	-0.580947	0.369394
C58	C	0.765302	-0.080947	0.869394
C59	C	0.335989	-0.580941	0.369389
C60	C	0.835989	-0.080941	0.869389
C61	C	0.371321	-0.512768	0.326175
C62	C	0.871321	-0.012768	0.826175
C63	C	0.447969	-0.512765	0.326166
C64	C	0.947969	-0.012765	0.826166
C65	C	0.509061	-0.512769	0.326162
C66	C	1.009061	-0.012769	0.826162
C67	C	0.932956	-0.976872	0.371352
C68	C	1.432956	-0.476872	0.871352
C69	C	0.916467	-1.047728	0.309590
C70	C	1.416467	-0.547728	0.809590
C71	C	0.994721	-1.047546	0.387943
C72	C	1.494721	-0.547546	0.887943
C73	C	0.961649	-0.976901	0.264375
C74	C	1.461649	-0.476901	0.764375
C75	C	1.039931	-0.976712	0.342770
C76	C	1.539931	-0.476712	0.842770
C77	C	1.023465	-1.047536	0.280965
C78	C	1.523465	-0.547536	0.780965
C79	C	1.154714	-0.512778	0.326179
C80	C	1.654714	-0.012778	0.826179
C81	C	1.229946	-0.512787	0.326189
C82	C	1.729946	-0.012787	0.826189
C83	C	0.978209	-0.512690	0.502700
C84	C	1.478209	-0.012690	1.002700
C85	C	0.978226	-0.512661	0.577932
C86	C	1.478226	-0.012661	1.077932
C87	C	0.978235	-0.235136	0.326178
C88	C	1.478235	0.264864	0.826178
C89	C	0.978261	-0.116830	0.326188
C90	C	1.478261	0.383170	0.826188
C91	C	0.978173	-0.512747	0.150301
C92	C	1.478173	-0.012747	0.650301
C93	C	0.978288	-0.512475	0.075069
C94	C	1.478288	-0.012475	0.575069
C95	C	1.021533	-0.444587	0.613288
C96	C	1.521533	0.055413	1.113288
C97	C	1.021539	-0.444556	0.683976
C98	C	1.521539	0.055444	1.183976
C99	C	0.978242	-0.512605	0.719307
C100	C	1.478242	-0.012605	1.219307
C101	C	0.934931	-0.580683	0.683947
C102	C	1.434931	-0.080683	1.183947
C103	C	0.934921	-0.580707	0.613259
C104	C	1.434921	-0.080707	1.113259
C105	C	0.934969	-0.580583	0.969020
C106	C	1.434969	-0.080583	1.469020
C107	C	0.934984	-0.580556	1.039712
C108	C	1.434984	-0.080556	1.539712
C109	C	1.021588	-0.444432	1.039737
C110	C	1.521588	0.055568	1.539737
C111	C	1.021578	-0.444457	0.969050
C112	C	1.521578	0.055543	1.469050
C113	C	0.978264	-0.512530	0.933695
C114	C	1.478264	-0.012530	1.433695
C115	C	0.978256	-0.512561	0.857046
C116	C	1.478256	-0.012561	1.357046
C117	C	0.978253	-0.512580	0.795955
C118	C	1.478253	-0.012580	1.295955
H119	H	0.720532	-0.636419	0.404541
H120	H	1.220532	-0.136419	0.904541
H121	H	1.056853	-0.389000	1.068531
H122	H	1.556853	0.111000	1.568531
Cl123	Cl	0.220881	-0.666651	0.423722
Cl124	Cl	0.720881	-0.166651	0.923722
Cl125	Cl	0.736151	-0.358890	0.228606
Cl126	Cl	1.236151	0.141110	0.728606
H127	H	0.236496	-0.389122	0.247783
H128	H	0.736496	0.110878	0.747783
H129	H	0.592298	-0.636423	0.404556
H130	H	1.092298	-0.136423	0.904556
H131	H	0.364771	-0.636444	0.404572
H132	H	0.864771	-0.136444	0.904572
H133	H	0.899649	-0.636130	0.584473
H134	H	1.399649	-0.136130	1.084473
H135	H	0.364730	-0.389113	0.247769
H136	H	0.864730	0.110887	0.747769
H137	H	1.008682	-1.078577	0.440176
H138	H	1.508682	-0.578577	0.940176
Cl139	Cl	1.082561	-1.095142	0.221921
Cl140	Cl	1.582561	-0.595142	0.721921
H141	H	0.592254	-0.389094	0.247761
H142	H	1.092254	0.110906	0.747761
Cl143	Cl	1.120486	-0.928514	0.364471
Cl144	Cl	1.620486	-0.428514	0.864471
Cl145	Cl	0.880548	-0.666109	1.084128
Cl146	Cl	1.380548	-0.166109	1.584128
Cl147	Cl	0.940001	-0.929196	0.183708
Cl148	Cl	1.440001	-0.429196	0.683708
H149	H	0.894652	-0.945843	0.409505
H150	H	1.394652	-0.445843	0.909505
H151	H	0.864280	-1.078946	0.295564
H152	H	1.364280	-0.578946	0.795564
Cl153	Cl	1.075970	-0.359039	0.568878
Cl154	Cl	1.575970	0.140961	1.068878
H155	H	0.899710	-0.636028	0.940243
H156	H	1.399710	-0.136028	1.440243
Cl157	Cl	1.076015	-0.359020	0.728421
Cl158	Cl	1.576015	0.140980	1.228421
Cl159	Cl	1.076012	-0.358909	0.924637
Cl160	Cl	1.576012	0.141091	1.424637
H161	H	0.899675	-0.636086	0.712719
H162	H	1.399675	-0.136086	1.212719
