data_functionalizedCrystal
_audit_creation_method	'MofGen! by Chris Wilmer'
_symmetry_space_group_name_H-M	'P1'
_symmetry_Int_Tables_number	1
_symmetry_cell_setting	triclinic
loop_
_symmetry_equiv_pos_as_xyz
  x,y,z
_cell_length_a	16.992701
_cell_length_b	19.288865
_cell_length_c	18.366186
_cell_angle_alpha	90.011479
_cell_angle_beta	89.990974
_cell_angle_gamma	93.098291
loop_
_atom_site_label
_atom_site_type_symbol
_atom_site_fract_x
_atom_site_fract_y
_atom_site_fract_z
O1	O	1.039876	-0.147245	-0.060569
O2	O	0.811597	-0.145631	-0.060569
O3	O	0.932333	-0.045692	-0.060555
O4	O	0.919140	-0.247184	-0.060584
O5	O	0.932312	-0.045685	0.060545
O6	O	0.811576	-0.145625	0.060530
O7	O	1.039856	-0.147238	0.060530
Zn8	Zn	0.925713	-0.146430	0.079757
Zn9	Zn	0.925740	-0.146439	-0.079796
O10	O	0.919120	-0.247177	0.060516
C11	C	0.782381	-0.143550	-0.000019
C12	C	0.695359	-0.137350	-0.000019
C13	C	0.206547	-0.095691	-0.000016
C14	C	0.288312	-0.101522	-0.000012
C15	C	0.319624	-0.167182	-0.000025
C16	C	0.269164	-0.227014	-0.000034
C17	C	0.187400	-0.221183	-0.000032
C18	C	0.563135	-0.191351	-0.000026
C19	C	0.644906	-0.197178	-0.000030
C20	C	0.664049	-0.071685	-0.000007
C21	C	0.582282	-0.065860	-0.000010
C22	C	0.531830	-0.125692	-0.000015
N23	N	0.403201	-0.173144	-0.000023
N24	N	0.448254	-0.119730	-0.000011
C25	C	0.931898	-0.019788	-0.000003
C26	C	0.930624	0.057390	0.000004
C27	C	1.069071	-0.149319	-0.000021
C28	C	1.156094	-0.155519	-0.000027
C29	C	0.919555	-0.273082	-0.000038
C30	C	0.920829	-0.350260	-0.000049
N31	N	0.925700	-0.146425	0.188648
C32	C	1.001466	0.097958	0.000007
C33	C	1.000269	0.170475	-0.000004
C34	C	0.928226	0.202421	-0.000005
C35	C	0.857374	0.161844	-0.000013
C36	C	0.858573	0.089328	-0.000008
C37	C	0.871584	0.314011	0.042414
C38	C	0.870388	0.386525	0.042414
C39	C	0.924524	0.426082	-0.000021
C40	C	0.979870	0.393117	-0.042447
C41	C	0.981069	0.320602	-0.042443
C42	C	0.926917	0.281051	-0.000010
C43	C	0.994073	0.545282	-0.000031
C44	C	0.992873	0.617800	-0.000047
C45	C	0.849976	0.609166	-0.000048
C46	C	0.851178	0.536650	-0.000039
C47	C	0.923229	0.504712	-0.000027
N48	N	0.925759	-0.146440	-0.188687
C49	C	0.979180	-0.102196	0.226755
C50	C	0.979185	-0.102193	0.302983
C51	C	0.925718	-0.146431	0.341101
C52	C	0.872228	-0.190663	0.302985
C53	C	0.872220	-0.190660	0.226759
C54	C	0.915223	-0.209108	0.461853
C55	C	0.915237	-0.209112	0.538077
C56	C	0.925740	-0.146441	0.576209
C57	C	0.936245	-0.083764	0.538106
C58	C	0.936236	-0.083761	0.461879
C59	C	0.925721	-0.146440	0.423756
C60	C	0.979228	-0.102206	0.696970
C61	C	0.979227	-0.102202	0.773200
C62	C	0.872275	-0.190678	0.773200
C63	C	0.872271	-0.190676	0.696973
C64	C	0.925752	-0.146441	0.658862
H65	H	0.670396	-0.250648	-0.000030
H66	H	0.828738	-0.226695	0.804236
H67	H	0.146321	-0.269901	-0.000038
H68	H	1.052741	0.519277	-0.000025
H69	H	0.828669	-0.226677	0.195732
H70	H	1.026132	0.293765	-0.076989
H71	H	0.329389	-0.052804	0.000000
H72	H	0.522067	-0.240071	-0.000034
H73	H	0.181060	-0.042225	-0.000010
H74	H	0.791316	0.635176	-0.000052
H75	H	0.294664	-0.280476	-0.000039
H76	H	1.060136	0.071959	0.000014
H77	H	1.050564	0.650830	-0.000048
H78	H	0.556795	-0.012393	0.000001
H79	H	1.023953	0.425323	-0.077002
H80	H	0.793490	0.503619	-0.000038
H81	H	0.825318	0.413359	0.076955
H82	H	1.057959	0.203512	-0.000004
H83	H	1.022725	-0.066175	0.195728
H84	H	0.827497	0.281809	0.076973
H85	H	0.798715	0.187858	-0.000015
H86	H	0.828726	-0.226694	0.665944
H87	H	0.906689	-0.260148	0.569095
H88	H	0.800883	0.056297	-0.000011
H89	H	1.022773	-0.066184	0.665940
H90	H	1.022735	-0.066175	0.334015
H91	H	0.944787	-0.032727	0.430859
H92	H	0.944797	-0.032731	0.569150
H93	H	1.022774	-0.066181	0.804227
H94	H	0.906657	-0.260144	0.430812
H95	H	0.828693	-0.226682	0.334025
H96	H	0.705135	-0.022973	-0.000002
