data_functionalizedCrystal
_audit_creation_method	'MofGen! by Chris Wilmer'
_symmetry_space_group_name_H-M	'P1'
_symmetry_Int_Tables_number	1
_symmetry_cell_setting	triclinic
loop_
_symmetry_equiv_pos_as_xyz
  x,y,z
_cell_length_a	16.959455
_cell_length_b	16.959454
_cell_length_c	16.959447
_cell_angle_alpha	90.026736
_cell_angle_beta	90.014322
_cell_angle_gamma	90.017022
loop_
_atom_site_label
_atom_site_type_symbol
_atom_site_fract_x
_atom_site_fract_y
_atom_site_fract_z
Zn1	Zn	1.208384	-0.314730	0.446928
Zn2	Zn	1.708384	0.185270	0.946928
Zn3	Zn	1.208306	-0.446923	0.314758
Zn4	Zn	1.708306	0.053077	0.814758
Zn5	Zn	1.076212	-0.314755	0.314766
Zn6	Zn	1.576212	0.185245	0.814766
Zn7	Zn	1.076177	-0.446864	0.446897
Zn8	Zn	1.576177	0.053136	0.946897
O9	O	1.142270	-0.380818	0.380837
O10	O	1.642270	0.119182	0.880837
O11	O	1.318984	-0.332280	0.429406
O12	O	1.818984	0.167720	0.929406
O13	O	1.190766	-0.429426	0.204148
O14	O	1.690766	0.070574	0.704148
O15	O	1.093792	-0.204141	0.332314
O16	O	1.593792	0.295859	0.832314
O17	O	1.318927	-0.429402	0.332301
O18	O	1.818927	0.070598	0.832301
O19	O	1.190898	-0.204123	0.429413
O20	O	1.690898	0.295877	0.929413
O21	O	1.093717	-0.332323	0.204154
O22	O	1.593717	0.167677	0.704154
O23	O	0.965597	-0.332265	0.332283
O24	O	1.465597	0.167735	0.832283
O25	O	1.093732	-0.429301	0.557512
O26	O	1.593732	0.070699	1.057512
O27	O	0.965571	-0.429325	0.429359
O28	O	1.465571	0.070675	0.929359
O29	O	1.190864	-0.332223	0.557535
O30	O	1.690864	0.167777	1.057535
O31	O	1.190732	-0.557526	0.332270
O32	O	1.690732	-0.057526	0.832270
O33	O	1.093657	-0.557482	0.429352
O34	O	1.593657	-0.057482	0.929352
C35	C	0.936904	-0.380792	0.380819
C36	C	1.436904	0.119208	0.880819
C37	C	0.849047	-0.380800	0.380830
C38	C	1.349047	0.119200	0.880830
C39	C	0.477560	-0.330238	0.330395
C40	C	0.977560	0.169762	0.830395
C41	C	0.477582	-0.431463	0.431324
C42	C	0.977582	0.068537	0.931324
C43	C	0.560128	-0.431452	0.431320
C44	C	1.060128	0.068548	0.931320
C45	C	0.601394	-0.380834	0.380851
C46	C	1.101394	0.119166	0.880851
C47	C	0.560114	-0.330226	0.330387
C48	C	1.060114	0.169774	0.830387
C49	C	0.601414	-0.482064	0.481777
C50	C	1.101414	0.017936	0.981777
C51	C	0.683965	-0.482055	0.481773
C52	C	1.183965	0.017945	0.981773
C53	C	0.725233	-0.431432	0.431308
C54	C	1.225233	0.068568	0.931308
C55	C	0.683948	-0.380822	0.380843
C56	C	1.183948	0.119178	0.880843
C57	C	0.725213	-0.330204	0.330374
C58	C	1.225213	0.169796	0.830374
C59	C	0.683930	-0.279589	0.279913
C60	C	1.183930	0.220411	0.779913
C61	C	0.601381	-0.279603	0.279922
C62	C	1.101381	0.220397	0.779922
C63	C	0.807781	-0.431418	0.431299
C64	C	1.307781	0.068582	0.931299
C65	C	0.807767	-0.330193	0.330366
C66	C	1.307767	0.169807	0.830366
C67	C	1.142204	-0.586184	0.380824
C68	C	1.642204	-0.086184	0.880824
C69	C	1.142248	-0.674041	0.380844
C70	C	1.642248	-0.174041	0.880844
C71	C	1.091796	-1.045524	0.431382
C72	C	1.591796	-0.545524	0.931382
C73	C	1.192963	-1.045509	0.330373
C74	C	1.692963	-0.545509	0.830373
C75	C	1.192936	-0.962963	0.330365
C76	C	1.692936	-0.462963	0.830365
C77	C	1.142337	-0.921694	0.380867
C78	C	1.642337	-0.421694	0.880867
C79	C	1.091765	-0.962970	0.431375
C80	C	1.591765	-0.462970	0.931375
C81	C	1.243501	-0.921680	0.279852
C82	C	1.743501	-0.421680	0.779852
C83	C	1.243475	-0.839130	0.279842
C84	C	1.743475	-0.339130	0.779842
C85	C	1.192879	-0.797859	0.330348
C86	C	1.692879	-0.297859	0.830348
C87	C	1.142306	-0.839140	0.380859
C88	C	1.642306	-0.339140	0.880859
C89	C	1.091707	-0.797871	0.431360
C90	C	1.591707	-0.297871	0.931360
C91	C	1.041137	-0.839151	0.481876
C92	C	1.541137	-0.339151	0.981876
C93	C	1.041170	-0.921699	0.481881
C94	C	1.541170	-0.421699	0.981881
C95	C	1.192847	-0.715310	0.330343
C96	C	1.692847	-0.215310	0.830343
C97	C	1.091676	-0.715317	0.431353
C98	C	1.591676	-0.215317	0.931353
C99	C	1.348438	-0.380845	0.380856
C100	C	1.848438	0.119155	0.880856
C101	C	1.436295	-0.380856	0.380864
C102	C	1.936295	0.119144	0.880864
C103	C	1.142303	-0.380753	0.587006
C104	C	1.642303	0.119247	1.087006
C105	C	1.142317	-0.380725	0.674862
C106	C	1.642317	0.119275	1.174862
C107	C	1.142358	-0.174650	0.380868
C108	C	1.642358	0.325350	0.880868
C109	C	1.142395	-0.086793	0.380881
C110	C	1.642395	0.413207	0.880881
C111	C	1.142283	-0.380826	0.175471
C112	C	1.642283	0.119174	0.675471
C113	C	1.142422	-0.380631	0.087615
C114	C	1.642422	0.119369	0.587615
C115	C	1.091839	-0.431185	1.046328
C116	C	1.591839	0.068815	1.546328
C117	C	1.192983	-0.330097	1.046348
C118	C	1.692983	0.169903	1.546348
C119	C	1.192962	-0.330114	0.963802
C120	C	1.692962	0.169886	1.463802
C121	C	1.142380	-0.380668	0.922515
C122	C	1.642380	0.119332	1.422515
C123	C	1.091818	-0.431205	0.963775
C124	C	1.591818	0.068795	1.463775
C125	C	1.243529	-0.279584	0.922536
C126	C	1.743529	0.220416	1.422536
C127	C	1.243510	-0.279599	0.839985
C128	C	1.743510	0.220401	1.339985
C129	C	1.192923	-0.330149	0.798697
C130	C	1.692923	0.169851	1.298697
C131	C	1.142359	-0.380688	0.839962
C132	C	1.642359	0.119312	1.339962
C133	C	1.091776	-0.431242	0.798675
C134	C	1.591776	0.068758	1.298675
C135	C	1.041207	-0.481777	0.839938
C136	C	1.541207	0.018223	1.339938
C137	C	1.041231	-0.481756	0.922487
C138	C	1.541231	0.018244	1.422487
C139	C	1.192899	-0.330171	0.716149
C140	C	1.692899	0.169829	1.216149
C141	C	1.091755	-0.431262	0.716122
C142	C	1.591755	0.068738	1.216122
H143	H	0.567810	-0.523280	0.522860
H144	H	1.067810	-0.023280	1.022860
H145	H	1.284686	-0.238450	0.806396
H146	H	1.784686	0.261550	1.306396
Cl147	Cl	0.735857	-0.545681	0.545212
Cl148	Cl	1.235857	-0.045681	1.045212
Cl149	Cl	1.028066	-0.663442	0.494848
Cl150	Cl	1.528066	-0.163442	0.994848
Cl151	Cl	0.549478	-0.215981	0.216490
Cl152	Cl	1.049478	0.284019	0.716490
H153	H	1.000026	-0.522942	0.806312
H154	H	1.500026	-0.022942	1.306312
H155	H	0.841390	-0.472630	0.472381
H156	H	1.341390	0.027370	0.972381
Cl157	Cl	0.425664	-0.266607	0.266965
Cl158	Cl	0.925664	0.233393	0.766965
Cl159	Cl	0.977601	-0.973599	0.545378
Cl160	Cl	1.477601	-0.473599	1.045378
H161	H	0.717539	-0.238379	0.238818
H162	H	1.217539	0.261621	0.738818
Cl163	Cl	1.307119	-0.216041	0.974442
Cl164	Cl	1.807119	0.283959	1.474442
H165	H	1.050557	-0.472422	0.682512
H166	H	1.550557	0.027578	1.182512
Cl167	Cl	0.425704	-0.495111	0.494750
Cl168	Cl	0.925704	0.004889	0.994750
Cl169	Cl	0.977526	-0.787260	0.545356
Cl170	Cl	1.477526	-0.287260	1.045356
H171	H	1.050626	-1.079138	0.472513
H172	H	1.550626	-0.579138	0.972513
H173	H	1.234074	-0.289028	0.682556
H174	H	1.734074	0.210972	1.182556
Cl175	Cl	1.256575	-0.266553	1.098251
Cl176	Cl	1.756575	0.233447	1.598251
Cl177	Cl	1.256571	-1.097391	0.266890
Cl178	Cl	1.756571	-0.597391	0.766890
Cl179	Cl	1.307111	-0.973565	0.216375
Cl180	Cl	1.807111	-0.473565	0.716375
H181	H	1.000063	-0.522901	0.956091
H182	H	1.500063	-0.022901	1.456091
Cl183	Cl	1.256406	-0.663419	0.266835
Cl184	Cl	1.756406	-0.163419	0.766835
Cl185	Cl	0.859637	-0.266550	0.266921
Cl186	Cl	1.359637	0.233450	0.766921
H187	H	1.284651	-0.805524	0.238711
H188	H	1.784651	-0.305524	0.738711
H189	H	1.050665	-0.472327	1.079928
H190	H	1.550665	0.027673	1.579928
