data_functionalizedCrystal
_audit_creation_method	'MofGen! by Chris Wilmer'
_symmetry_space_group_name_H-M	'P1'
_symmetry_Int_Tables_number	1
_symmetry_cell_setting	triclinic
loop_
_symmetry_equiv_pos_as_xyz
  x,y,z
_cell_length_a	10.654550
_cell_length_b	10.654550
_cell_length_c	9.130313
_cell_angle_alpha	90.000276
_cell_angle_beta	89.998405
_cell_angle_gamma	95.515071
loop_
_atom_site_label
_atom_site_type_symbol
_atom_site_fract_x
_atom_site_fract_y
_atom_site_fract_z
O1	O	0.176399	-1.667839	-0.121680
O2	O	0.193205	-1.302361	-0.121706
O3	O	0.002063	-1.493503	-0.121693
O4	O	0.367541	-1.476697	-0.121692
O5	O	0.002057	-1.493490	0.121906
O6	O	0.193199	-1.302348	0.121893
O7	O	0.176393	-1.667826	0.121919
Cu8	Cu	0.184796	-1.485086	0.144149
Cu9	Cu	0.184802	-1.485101	-0.143935
O10	O	0.367535	-1.476684	0.121907
C11	C	0.191968	-1.255556	0.000090
C12	C	0.188276	-1.116113	0.000080
C13	C	-0.044738	-1.492263	0.000103
C14	C	-0.184181	-1.488571	0.000092
C15	C	0.177630	-1.714631	0.000120
C16	C	0.181322	-1.854074	0.000121
C17	C	-0.380719	-1.483361	-0.132683
C18	C	-0.249699	-1.486843	-0.132691
C19	C	-0.249693	-1.486830	0.132894
C20	C	-0.380712	-1.483357	0.132901
C21	C	0.414336	-1.477925	0.000108
C22	C	0.553779	-1.481616	0.000108
N23	N	0.184790	-1.485084	0.346771
C24	C	0.300818	-1.036628	0.000085
C25	C	0.297341	-0.905607	0.000110
C26	C	0.068772	-0.933570	0.000121
C27	C	0.072250	-1.064588	0.000106
N28	N	0.184798	-1.485113	-0.346558
C29	C	0.100188	-1.569751	0.423429
C30	C	0.100189	-1.569763	0.576766
C31	C	0.269404	-1.400437	0.576774
C32	C	0.269396	-1.400420	0.423440
H33	H	-0.434052	-1.481943	-0.240811
C34	C	0.007129	-1.662901	0.661091
C35	C	-0.085911	-1.756043	0.576754
C36	C	-0.178976	-1.849184	0.661080
C37	C	-0.179001	-1.849182	0.829741
C38	C	-0.085957	-1.756036	0.914087
C39	C	0.007108	-1.662895	0.829761
H40	H	-0.085896	-1.756048	0.451893
H41	H	-0.247853	-1.918137	0.598641
H42	H	-0.247893	-1.918131	0.892164
H43	H	-0.085972	-1.756032	1.038948
H44	H	0.075985	-1.593942	0.892201
H45	H	0.338290	-1.331508	0.639213
H46	H	0.031295	-1.638687	0.361009
H47	H	-0.434045	-1.481940	0.241042
C48	C	-0.177647	-1.488754	-0.278765
C49	C	-0.208987	-1.597140	-0.388315
C50	C	-0.136937	-1.599052	-0.534396
C51	C	-0.033547	-1.492580	-0.570927
C52	C	-0.002203	-1.384187	-0.461375
C53	C	-0.074253	-1.382274	-0.315293
H54	H	-0.285527	-1.675964	-0.361275
H55	H	-0.160141	-1.679293	-0.615494
H56	H	0.019788	-1.493996	-0.679065
H57	H	0.074337	-1.305362	-0.488415
H58	H	-0.051049	-1.302034	-0.234195
H59	H	-0.025693	-0.891602	0.000150
C60	C	0.362465	-1.307282	0.339103
C61	C	0.455585	-1.214209	0.423426
C62	C	0.548644	-1.121072	0.339088
C63	C	0.548584	-1.121009	0.170427
C64	C	0.455461	-1.214086	0.086094
C65	C	0.362402	-1.307222	0.170432
H66	H	0.455632	-1.214253	0.548288
H67	H	0.617580	-1.052171	0.401517
H68	H	0.617472	-1.052064	0.107994
H69	H	0.455414	-1.214042	-0.038768
H70	H	0.293466	-1.376124	0.108003
H71	H	-0.196339	-1.488245	0.241008
H72	H	0.395294	-1.078574	0.000075
H73	H	0.388984	-0.840894	0.000117
H74	H	-0.019401	-1.129309	0.000106
