data_functionalizedCrystal
_audit_creation_method	'MofGen! by Chris Wilmer'
_symmetry_space_group_name_H-M	'P1'
_symmetry_Int_Tables_number	1
_symmetry_cell_setting	triclinic
loop_
_symmetry_equiv_pos_as_xyz
  x,y,z
_cell_length_a	15.995350
_cell_length_b	9.065218
_cell_length_c	7.540329
_cell_angle_alpha	90.003038
_cell_angle_beta	89.998640
_cell_angle_gamma	95.745870
loop_
_atom_site_label
_atom_site_type_symbol
_atom_site_fract_x
_atom_site_fract_y
_atom_site_fract_z
O1	O	0.122770	-1.957508	-0.147477
O2	O	0.132840	-1.527986	-0.147479
O3	O	0.006007	-1.754488	-0.147476
O4	O	0.249604	-1.731005	-0.147480
O5	O	0.006005	-1.754474	0.147489
O6	O	0.132839	-1.527972	0.147486
O7	O	0.122769	-1.957494	0.147488
Cu8	Cu	0.127804	-1.742732	0.174420
Cu9	Cu	0.127805	-1.742748	-0.174411
O10	O	0.249602	-1.730992	0.147485
C11	C	0.131872	-1.473015	0.000003
C12	C	0.128978	-1.309240	0.000002
C13	C	-0.025196	-1.753510	0.000003
C14	C	-0.118169	-1.750600	-0.000007
C15	C	0.123737	-2.012465	0.000002
C16	C	0.126631	-2.176239	-0.000009
C17	C	-0.455995	-1.740148	-0.000001
C18	C	-0.409785	-1.578837	-0.000663
C19	C	-0.313072	-1.581748	0.000001
C20	C	-0.288396	-1.745332	-0.000005
C21	C	-0.328871	-1.824889	0.168432
C22	C	-0.425537	-1.820836	0.168573
C23	C	-0.425868	-1.824184	-0.166858
C24	C	-0.328923	-1.824146	-0.169084
C25	C	-0.193676	-1.748271	-0.000001
C26	C	-0.550716	-1.737214	0.000007
C27	C	0.280805	-1.731969	0.000002
C28	C	0.373778	-1.734880	0.000001
N29	N	0.127802	-1.742731	0.419768
N30	N	0.127801	-1.742760	-0.419759
H31	H	-0.428805	-1.514368	-0.121452
N32	N	-0.295190	-1.751315	-0.325397
N33	N	-0.256970	-1.821534	-0.436804
H34	H	-0.233130	-1.770100	-0.547193
N35	N	-0.452148	-1.758030	-0.327002
N36	N	-0.493407	-1.648130	-0.320096
H37	H	-0.511969	-1.601396	-0.433189
N38	N	-0.434983	-1.498315	0.150021
N39	N	-0.486826	-1.559215	0.257897
H40	H	-0.504625	-1.502351	0.364321
H41	H	-0.456727	-1.943118	-0.167995
N42	N	-0.310019	-1.975658	0.176336
N43	N	-0.368236	-2.078498	0.175794
H44	H	-0.354921	-2.184980	0.181381
N45	N	-0.278722	-1.502754	0.151735
N46	N	-0.326187	-1.445308	0.257479
H47	H	-0.301928	-1.389517	0.364650
H48	H	-0.285124	-1.519211	-0.120740
H49	H	-0.456887	-1.939268	0.176210
N50	N	-0.449042	-1.748044	0.326533
N51	N	-0.394077	-1.700580	0.435902
H52	H	-0.410672	-1.649166	0.547466
N53	N	-0.293790	-1.755548	0.325672
N54	N	-0.238992	-1.647556	0.314121
H55	H	-0.214217	-1.598574	0.425168
N56	N	-0.308498	-1.973786	-0.181856
N57	N	-0.263543	-2.025014	-0.066028
H58	H	-0.249113	-2.130702	-0.075040
