data_functionalizedCrystal
_audit_creation_method	'MofGen! by Chris Wilmer'
_symmetry_space_group_name_H-M	'P1'
_symmetry_Int_Tables_number	1
_symmetry_cell_setting	triclinic
loop_
_symmetry_equiv_pos_as_xyz
  x,y,z
_cell_length_a	15.944557
_cell_length_b	10.654551
_cell_length_c	15.021413
_cell_angle_alpha	90.004701
_cell_angle_beta	89.990571
_cell_angle_gamma	96.006635
loop_
_atom_site_label
_atom_site_type_symbol
_atom_site_fract_x
_atom_site_fract_y
_atom_site_fract_z
O1	O	-1.115445	0.161995	-0.073988
O2	O	-0.871012	0.181955	-0.073998
O3	O	-0.998848	-0.010837	-0.073993
O4	O	-0.987609	0.354787	-0.073993
O5	O	-0.998865	-0.010823	0.074071
O6	O	-0.871028	0.181969	0.074067
O7	O	-1.115462	0.162009	0.074076
Zn8	Zn	-0.993248	0.171991	0.097580
Zn9	Zn	-0.993226	0.171973	-0.097501
O10	O	-0.987626	0.354800	0.074072
C11	C	-0.839721	0.181132	0.000033
C12	C	-0.746461	0.178643	0.000029
C13	C	-0.475095	0.051701	0.000043
C14	C	-0.526039	0.112904	0.073048
C15	C	-0.410768	0.169769	0.000050
C16	C	-0.526003	0.112922	-0.072932
C17	C	-0.575706	0.174123	0.000039
C18	C	-0.460484	0.230940	0.073115
C19	C	-0.460444	0.230940	-0.072930
C20	C	-0.511356	0.292230	0.000093
C21	C	-0.315752	0.167257	0.000058
C22	C	-0.670719	0.176644	0.000037
C23	C	-0.998031	-0.057617	0.000037
C24	C	-0.995561	-0.197028	0.000031
C25	C	-0.994394	-0.262533	-0.080677
C26	C	-0.992066	-0.393523	-0.080673
C27	C	-0.992077	-0.393494	0.080754
C28	C	-0.994399	-0.262505	0.080749
C29	C	-0.994391	-0.262552	-0.173877
C30	C	-0.992063	-0.393542	-0.173873
C31	C	-0.146753	0.162815	0.000048
C32	C	-0.240018	0.165252	0.000059
C33	C	-0.988443	0.401581	0.000040
C34	C	-0.990912	0.540992	0.000040
N35	N	-0.993269	0.172003	0.230717
C36	C	-1.052395	0.082838	0.470379
C37	C	-0.976355	0.058440	0.529705
C38	C	-0.993252	0.171989	0.412324
C39	C	-1.069275	0.196315	0.529740
C40	C	-0.993242	0.171973	0.587748
C41	C	-0.917173	0.147535	0.470344
C42	C	-1.010143	0.285459	0.470374
C43	C	-0.934048	0.261109	0.529673
C44	C	-0.993259	0.171995	0.311267
C45	C	-0.993226	0.171968	0.688804
N46	N	-0.993223	0.171963	0.769361
H47	H	-0.431970	0.280771	0.134903
H48	H	-1.133571	0.216898	0.555830
H49	H	-0.527437	0.393994	0.000135
H50	H	-0.962058	-0.037525	0.555767
C51	C	-1.070471	-0.457103	-0.222202
H52	H	-1.104302	-0.394356	-0.242071
H53	H	-1.053291	-0.503294	-0.271888
H54	H	-1.102201	-0.512861	-0.182450
C55	C	-0.830291	0.119597	0.435254
H56	H	-0.830832	0.119738	0.372011
H57	H	-0.788267	0.182558	0.456035
H58	H	-0.818181	0.039246	0.456056
C59	C	-1.029490	0.415052	0.435129
H60	H	-1.083559	0.432215	0.455429
H61	H	-0.988027	0.478543	0.456312
H62	H	-1.028841	0.414336	0.371892
H63	H	-0.554624	0.063033	-0.134649
H64	H	-0.995345	-0.209175	0.146470
H65	H	-1.055649	-0.233779	-0.202791
C66	C	-1.119888	-0.019055	0.435195
H67	H	-1.159788	0.019620	0.400411
H68	H	-1.093752	-0.077463	0.399514
H69	H	-1.147771	-0.062170	0.483962
H70	H	-0.930800	-0.422322	-0.202802
H71	H	-0.458853	-0.049984	0.000115
C72	C	-0.421712	0.298230	-0.156308
H73	H	-0.444248	0.256138	-0.208132
H74	H	-0.434745	0.383208	-0.156832
H75	H	-0.362242	0.296828	-0.155410
C76	C	-0.990804	-0.465522	0.169537
H77	H	-0.989258	-0.552918	0.157982
H78	H	-0.942294	-0.434475	0.202697
H79	H	-1.040091	-0.453625	0.202701
C80	C	-0.866406	0.362948	0.564633
H81	H	-0.812455	0.345451	0.544185
H82	H	-0.877949	0.443353	0.543420
H83	H	-0.867074	0.362846	0.627872
C84	C	-0.915972	-0.199013	-0.222217
H85	H	-0.882141	-0.261771	-0.242087
H86	H	-0.933140	-0.152835	-0.271904
H87	H	-0.884248	-0.143247	-0.182471
H88	H	-0.554688	0.063047	0.134768
