data_functionalizedCrystal
_audit_creation_method	'MofGen! by Chris Wilmer'
_symmetry_space_group_name_H-M	'P1'
_symmetry_Int_Tables_number	1
_symmetry_cell_setting	triclinic
loop_
_symmetry_equiv_pos_as_xyz
  x,y,z
_cell_length_a	16.120484
_cell_length_b	19.805407
_cell_length_c	19.805407
_cell_angle_alpha	89.994842
_cell_angle_beta	87.113740
_cell_angle_gamma	87.078256
loop_
_atom_site_label
_atom_site_type_symbol
_atom_site_fract_x
_atom_site_fract_y
_atom_site_fract_z
Zn1	Zn	-0.332148	-1.020969	0.396379
Zn2	Zn	-0.471529	-1.015174	0.288926
Zn3	Zn	-0.332123	-0.907812	0.283204
Zn4	Zn	-0.471514	-0.902010	0.402073
O5	O	-0.401828	-0.961491	0.342645
O6	O	-0.350654	-1.114916	0.382137
O7	O	-0.453032	-1.000935	0.193450
O8	O	-0.215459	-0.927676	0.293439
O9	O	-0.453057	-1.110659	0.303192
O10	O	-0.215477	-1.010812	0.376589
O11	O	-0.350611	-0.922057	0.189246
O12	O	-0.350597	-0.812327	0.298960
O13	O	-0.453031	-0.917787	0.496034
O14	O	-0.453007	-0.808064	0.386292
O15	O	-0.350639	-1.005186	0.491851
O16	O	-0.588194	-0.995309	0.308713
O17	O	-0.588183	-0.912168	0.391841
C18	C	-0.401798	-0.785637	0.342623
C19	C	-0.401805	-0.710404	0.342631
C20	C	-0.348577	-0.677274	0.383807
C21	C	-0.348580	-0.606585	0.383808
C22	C	-0.401815	-0.569028	0.342636
C23	C	-0.455045	-0.602164	0.301456
C24	C	-0.455038	-0.672851	0.301451
C25	C	-0.455075	-0.317089	0.301471
C26	C	-0.455080	-0.246397	0.301479
C27	C	-0.348618	-0.250823	0.383827
C28	C	-0.348610	-0.321511	0.383823
C29	C	-0.401837	-0.354640	0.342640
C30	C	-0.401832	-0.431289	0.342638
C31	C	-0.401824	-0.492381	0.342641
C32	C	-0.618439	-0.952498	0.351531
C33	C	-0.711107	-0.948713	0.355354
C34	C	-0.880770	-0.941806	0.362349
C35	C	-0.922046	-0.981298	0.322952
C36	C	-1.016453	-0.977455	0.326845
C37	C	-0.786355	-0.945648	0.358458
C38	C	-0.184372	-0.970538	0.333740
C39	C	-0.091705	-0.974393	0.329945
C40	C	-0.401837	-0.961486	0.519188
C41	C	-0.401840	-0.961483	0.594420
C42	C	-0.401853	-0.138033	0.342661
C43	C	-0.401848	-0.213265	0.342652
C44	C	-0.348519	-1.006990	1.054034
C45	C	-0.348523	-1.006992	0.983346
C46	C	-0.401833	-0.961489	0.950182
C47	C	-0.455150	-0.915985	0.987710
C48	C	-0.455149	-0.915987	1.058397
C49	C	-0.455152	-0.915978	0.702637
C50	C	-0.455147	-0.915978	0.631945
C51	C	-0.348526	-1.006983	0.627586
C52	C	-0.348525	-1.006985	0.698273
C53	C	-0.401844	-0.961484	0.735795
C54	C	-0.401841	-0.961483	0.812443
C55	C	-0.401833	-0.961486	0.873535
C56	C	-0.401837	-0.961490	1.166790
C57	C	-0.401829	-0.961489	1.091557
H58	H	-0.305238	-0.579614	0.417338
C59	C	-0.513636	-0.205085	0.256184
H60	H	-0.545329	-0.234939	0.231651
H61	H	-0.550017	-0.176007	0.283518
H62	H	-0.481677	-0.178830	0.225428
C63	C	-0.513789	-0.865931	0.951232
H64	H	-0.506148	-0.872441	0.903758
H65	H	-0.569808	-0.873505	0.965111
H66	H	-0.501572	-0.820961	0.962315
H67	H	-0.498386	-0.571579	0.267930
C68	C	-0.513625	-0.353523	0.256174
H69	H	-0.545335	-0.321029	0.231661
H70	H	-0.481672	-0.382415	0.225412
H71	H	-0.550003	-0.379596	0.283509
C72	C	-0.513595	-0.709294	0.256164
H73	H	-0.545308	-0.676804	0.231650
H74	H	-0.481646	-0.738190	0.225403
H75	H	-0.549970	-0.735364	0.283505
H76	H	-0.886481	-1.017994	0.286300
H77	H	-0.305102	-1.044040	1.081031
H78	H	-0.916333	-0.905112	0.398998
H79	H	-0.498561	-0.878935	1.088948
C80	C	-0.290061	-0.214380	0.429121
H81	H	-0.297680	-0.166902	0.423223
H82	H	-0.302351	-0.225461	0.475085
H83	H	-0.234021	-0.228287	0.416987
H84	H	-0.305114	-1.044046	0.952798
H85	H	-0.305111	-1.044036	0.725271
H86	H	-0.305113	-1.044034	0.597026
H87	H	-0.305264	-0.352086	0.417351
C88	C	-0.513794	-0.865926	0.595462
H89	H	-0.506148	-0.872439	0.547990
H90	H	-0.569812	-0.873504	0.609339
H91	H	-0.501585	-0.820954	0.606543
C92	C	-0.290018	-0.718581	0.429096
H93	H	-0.258313	-0.688723	0.453614
H94	H	-0.321962	-0.744838	0.459854
H95	H	-0.253635	-0.747657	0.401754
C96	C	-0.513791	-0.865921	0.743902
H97	H	-0.545531	-0.838817	0.714025
H98	H	-0.550126	-0.890297	0.772969
H99	H	-0.481887	-0.837756	0.770166
