data_functionalizedCrystal
_audit_creation_method	'MofGen! by Chris Wilmer'
_symmetry_space_group_name_H-M	'P1'
_symmetry_Int_Tables_number	1
_symmetry_cell_setting	triclinic
loop_
_symmetry_equiv_pos_as_xyz
  x,y,z
_cell_length_a	23.532407
_cell_length_b	26.809956
_cell_length_c	23.532407
_cell_angle_alpha	90.010827
_cell_angle_beta	82.848678
_cell_angle_gamma	90.018553
loop_
_atom_site_label
_atom_site_type_symbol
_atom_site_fract_x
_atom_site_fract_y
_atom_site_fract_z
O1	O	0.755276	0.041422	0.069134
O2	O	1.005276	0.291422	0.319134
O3	O	1.255276	0.541422	0.569134
O4	O	1.505276	0.791422	0.819134
O5	O	0.589412	0.041438	0.079137
O6	O	0.839412	0.291438	0.329137
O7	O	1.089412	0.541438	0.579137
O8	O	1.339412	0.791438	0.829137
O9	O	0.677346	0.041420	-0.008796
O10	O	0.927346	0.291420	0.241204
O11	O	1.177346	0.541420	0.491204
O12	O	1.427346	0.791420	0.741204
O13	O	0.667342	0.041440	0.157067
O14	O	0.917342	0.291440	0.407067
O15	O	1.167342	0.541440	0.657067
O16	O	1.417342	0.791440	0.907067
O17	O	0.677306	-0.041539	-0.008797
O18	O	0.927306	0.208461	0.241203
O19	O	1.177306	0.458461	0.491203
O20	O	1.427306	0.708461	0.741203
O21	O	0.589372	-0.041522	0.079136
O22	O	0.839372	0.208478	0.329136
O23	O	1.089372	0.458478	0.579136
O24	O	1.339372	0.708478	0.829136
O25	O	0.755236	-0.041537	0.069133
O26	O	1.005236	0.208463	0.319133
O27	O	1.255236	0.458463	0.569133
O28	O	1.505236	0.708463	0.819133
Zn29	Zn	0.672298	-0.054701	0.074134
Zn30	Zn	0.922298	0.195299	0.324134
Zn31	Zn	1.172298	0.445299	0.574134
Zn32	Zn	1.422298	0.695299	0.824134
Zn33	Zn	0.672350	0.054602	0.074136
Zn34	Zn	0.922350	0.304602	0.324136
Zn35	Zn	1.172350	0.554602	0.574136
Zn36	Zn	1.422350	0.804602	0.824136
O37	O	0.667303	-0.041520	0.157066
O38	O	0.917303	0.208480	0.407066
O39	O	1.167303	0.458480	0.657066
O40	O	1.417303	0.708480	0.907066
C41	C	0.568176	-0.000040	0.078882
C42	C	0.818176	0.249960	0.328882
C43	C	1.068176	0.499960	0.578882
C44	C	1.318176	0.749960	0.828882
C45	C	0.504959	-0.000035	0.078116
C46	C	0.754959	0.249965	0.328116
C47	C	1.004959	0.499965	0.578116
C48	C	1.254959	0.749965	0.828116
N49	N	0.672266	-0.129297	0.074133
N50	N	0.922266	0.120703	0.324133
N51	N	1.172266	0.370703	0.574133
N52	N	1.422266	0.620703	0.824133
C53	C	0.105856	-0.000052	0.125350
C54	C	0.355856	0.249948	0.375350
C55	C	0.605856	0.499948	0.625350
C56	C	0.855856	0.749948	0.875350
C57	C	0.046456	-0.000055	0.124638
C58	C	0.296456	0.249945	0.374638
C59	C	0.546456	0.499945	0.624638
C60	C	0.796456	0.749945	0.874638
O61	O	0.009711	-0.000068	0.168424
O62	O	0.259711	0.249932	0.418424
O63	O	0.509711	0.499932	0.668424
O64	O	0.759711	0.749932	0.918424
N65	N	0.023830	-0.000060	0.072362
N66	N	0.273830	0.249940	0.322362
N67	N	0.523830	0.499940	0.572362
N68	N	0.773830	0.749940	0.822362
C69	C	0.060607	-0.000067	0.020794
C70	C	0.310607	0.249933	0.270794
C71	C	0.560607	0.499933	0.520794
C72	C	0.810607	0.749933	0.770794
O73	O	0.035908	-0.000072	-0.023737
O74	O	0.285908	0.249928	0.226263
O75	O	0.535908	0.499928	0.476263
O76	O	0.785908	0.749928	0.726263
C77	C	0.120006	-0.000068	0.021506
C78	C	0.370006	0.249932	0.271506
C79	C	0.620006	0.499932	0.521506
C80	C	0.870006	0.749932	0.771506
C81	C	0.142629	-0.000057	0.073785
C82	C	0.392629	0.249943	0.323785
C83	C	0.642629	0.499943	0.573785
C84	C	0.892629	0.749943	0.823785
C85	C	0.128479	-0.000042	0.177625
C86	C	0.378479	0.249958	0.427625
C87	C	0.628479	0.499958	0.677625
C88	C	0.878479	0.749958	0.927625
C89	C	0.187876	-0.000038	0.178336
C90	C	0.437876	0.249962	0.428336
C91	C	0.687876	0.499962	0.678336
C92	C	0.937876	0.749962	0.928336
C93	C	0.224648	-0.000044	0.126772
C94	C	0.474648	0.249956	0.376772
C95	C	0.724648	0.499956	0.626772
C96	C	0.974648	0.749956	0.876772
C97	C	0.202025	-0.000053	0.074496
C98	C	0.452025	0.249947	0.324496
C99	C	0.702025	0.499947	0.574496
C100	C	0.952025	0.749947	0.824496
C101	C	0.156783	-0.000078	-0.030062
C102	C	0.406783	0.249922	0.219938
C103	C	0.656783	0.499922	0.469938
C104	C	0.906783	0.749922	0.719938
C105	C	0.216185	-0.000079	-0.029345
C106	C	0.466185	0.249921	0.220655
C107	C	0.716185	0.499921	0.470655
C108	C	0.966185	0.749921	0.720655
C109	C	0.238808	-0.000069	0.022934
C110	C	0.488808	0.249931	0.272934
C111	C	0.738808	0.499931	0.522934
C112	C	0.988808	0.749931	0.772934
C113	C	0.298194	-0.000055	0.023643
C114	C	0.548194	0.249945	0.273643
C115	C	0.798194	0.499945	0.523643
C116	C	1.048194	0.749945	0.773643
N117	N	0.320820	-0.000050	0.075920
N118	N	0.570820	0.249950	0.325920
N119	N	0.820820	0.499950	0.575920
N120	N	1.070820	0.749950	0.825920
C121	C	0.284048	-0.000044	0.127484
C122	C	0.534048	0.249956	0.377484
C123	C	0.784048	0.499956	0.627484
C124	C	1.034048	0.749956	0.877484
C125	C	-0.064135	-0.000067	0.019302
C126	C	0.185865	0.249933	0.269302
C127	C	0.435865	0.499933	0.519302
C128	C	0.685865	0.749933	0.769302
C129	C	-0.123533	-0.000063	0.018589
C130	C	0.126467	0.249937	0.268589
C131	C	0.376467	0.499937	0.518589
C132	C	0.626467	0.749937	0.768589
C133	C	-0.137680	-0.000052	0.122434
C134	C	0.112320	0.249948	0.372434
C135	C	0.362320	0.499948	0.622434
C136	C	0.612320	0.749948	0.872434
C137	C	-0.078281	-0.000052	0.123146
C138	C	0.171719	0.249948	0.373146
C139	C	0.421719	0.499948	0.623146
C140	C	0.671719	0.749948	0.873146
C141	C	-0.041509	-0.000062	0.071578
C142	C	0.208491	0.249938	0.321578
C143	C	0.458491	0.499938	0.571578
C144	C	0.708491	0.749938	0.821578
C145	C	0.408784	-0.000035	0.128974
C146	C	0.658784	0.249965	0.378974
C147	C	0.908784	0.499965	0.628974
C148	C	1.158784	0.749965	0.878974
C149	C	0.468186	-0.000029	0.129680
C150	C	0.718186	0.249971	0.379680
C151	C	0.968186	0.499971	0.629680
C152	C	1.218186	0.749971	0.879680
C153	C	0.482329	-0.000043	0.025836
C154	C	0.732329	0.249957	0.275836
C155	C	0.982329	0.499957	0.525836
C156	C	1.232329	0.749957	0.775836
C157	C	0.422932	-0.000047	0.025129
C158	C	0.672932	0.249953	0.275129
C159	C	0.922932	0.499953	0.525129
C160	C	1.172932	0.749953	0.775129
C161	C	0.386160	-0.000044	0.076702
C162	C	0.636160	0.249956	0.326702
C163	C	0.886160	0.499956	0.576702
C164	C	1.136160	0.749956	0.826702
O165	O	0.334974	-0.000044	-0.020119
O166	O	0.584974	0.249956	0.229881
O167	O	0.834974	0.499956	0.479881
O168	O	1.084974	0.749956	0.729881
O169	O	0.308755	-0.000045	0.172007
O170	O	0.558755	0.249955	0.422007
O171	O	0.808755	0.499955	0.672007
O172	O	1.058755	0.749955	0.922007
C173	C	0.633374	-0.526172	0.113054
C174	C	0.883374	-0.276172	0.363054
C175	C	1.133374	-0.026172	0.613054
C176	C	1.383374	0.223828	0.863054
C177	C	0.633345	-0.317295	0.113054
C178	C	0.883345	-0.067295	0.363054
C179	C	1.133345	0.182705	0.613054
C180	C	1.383345	0.432705	0.863054
O181	O	0.600205	-0.290288	0.146141
O182	O	0.850205	-0.040288	0.396141
O183	O	1.100205	0.209712	0.646141
O184	O	1.350205	0.459712	0.896141
N185	N	0.672286	-0.291175	0.074131
N186	N	0.922286	-0.041175	0.324131
N187	N	1.172286	0.208825	0.574131
N188	N	1.422286	0.458825	0.824131
C189	C	0.711236	-0.317279	0.035203
C190	C	0.961236	-0.067279	0.285203
C191	C	1.211236	0.182721	0.535203
C192	C	1.461236	0.432721	0.785203
O193	O	0.744353	-0.290270	0.002093
O194	O	0.994353	-0.040270	0.252093
O195	O	1.244353	0.209730	0.502093
O196	O	1.494353	0.459730	0.752093
C197	C	0.711262	-0.526155	0.035200
C198	C	0.961262	-0.276155	0.285200
C199	C	1.211262	-0.026155	0.535200
C200	C	1.461262	0.223845	0.785200
C201	C	0.672322	-0.552272	0.074130
C202	C	0.922322	-0.302272	0.324130
C203	C	1.172322	-0.052272	0.574130
C204	C	1.422322	0.197728	0.824130
C205	C	0.594437	-0.552289	0.151980
C206	C	0.844437	-0.302289	0.401980
C207	C	1.094437	-0.052289	0.651980
C208	C	1.344437	0.197711	0.901980
C209	C	0.594446	-0.604506	0.151982
C210	C	0.844446	-0.354506	0.401982
C211	C	1.094446	-0.104506	0.651982
C212	C	1.344446	0.145494	0.901982
C213	C	0.633394	-0.630605	0.113057
C214	C	0.883394	-0.380605	0.363057
C215	C	1.133394	-0.130605	0.613057
C216	C	1.383394	0.119395	0.863057
C217	C	0.672332	-0.604488	0.074132
C218	C	0.922332	-0.354488	0.324132
C219	C	1.172332	-0.104488	0.574132
C220	C	1.422332	0.145512	0.824132
C221	C	0.750208	-0.552257	-0.003730
C222	C	1.000208	-0.302257	0.246270
C223	C	1.250208	-0.052257	0.496270
C224	C	1.500208	0.197743	0.746270
C225	C	0.750211	-0.604480	-0.003728
C226	C	1.000211	-0.354480	0.246272
C227	C	1.250211	-0.104480	0.496272
C228	C	1.500211	0.145520	0.746272
C229	C	0.711270	-0.630597	0.035201
C230	C	0.961270	-0.380597	0.285201
C231	C	1.211270	-0.130597	0.535201
C232	C	1.461270	0.119403	0.785201
C233	C	0.711289	-0.682804	0.035209
C234	C	0.961289	-0.432804	0.285209
C235	C	1.211289	-0.182804	0.535209
C236	C	1.461289	0.067196	0.785209
N237	N	0.672347	-0.708924	0.074132
N238	N	0.922347	-0.458924	0.324132
N239	N	1.172347	-0.208924	0.574132
N240	N	1.422347	0.041076	0.824132
C241	C	0.633400	-0.682824	0.113056
C242	C	0.883400	-0.432824	0.363056
C243	C	1.133400	-0.182824	0.613056
C244	C	1.383400	0.067176	0.863056
C245	C	0.711220	-0.207615	0.035208
C246	C	0.961220	0.042385	0.285208
C247	C	1.211220	0.292385	0.535208
C248	C	1.461220	0.542385	0.785208
C249	C	0.711214	-0.155396	0.035209
C250	C	0.961214	0.094604	0.285209
C251	C	1.211214	0.344604	0.535209
C252	C	1.461214	0.594604	0.785209
C253	C	0.633322	-0.155416	0.113060
C254	C	0.883322	0.094584	0.363060
C255	C	1.133322	0.344584	0.613060
C256	C	1.383322	0.594584	0.863060
C257	C	0.633331	-0.207636	0.113061
C258	C	0.883331	0.042364	0.363061
C259	C	1.133331	0.292364	0.613061
C260	C	1.383331	0.542364	0.863061
C261	C	0.672278	-0.233735	0.074131
C262	C	0.922278	0.016265	0.324131
C263	C	1.172278	0.266265	0.574131
C264	C	1.422278	0.516265	0.824131
C265	C	0.633424	-0.792482	0.113057
C266	C	0.883424	-0.542482	0.363057
C267	C	1.133424	-0.292482	0.613057
C268	C	1.383424	-0.042482	0.863057
C269	C	0.633439	-0.844703	0.113057
C270	C	0.883439	-0.594703	0.363057
C271	C	1.133439	-0.344703	0.613057
C272	C	1.383439	-0.094703	0.863057
C273	C	0.711328	-0.844678	0.035204
C274	C	0.961328	-0.594678	0.285204
C275	C	1.211328	-0.344678	0.535204
C276	C	1.461328	-0.094678	0.785204
C277	C	0.711316	-0.792462	0.035206
C278	C	0.961316	-0.542462	0.285206
C279	C	1.211316	-0.292462	0.535206
C280	C	1.461316	-0.042462	0.785206
C281	C	0.672359	-0.766365	0.074135
C282	C	0.922359	-0.516365	0.324135
C283	C	1.172359	-0.266365	0.574135
C284	C	1.422359	-0.016365	0.824135
O285	O	0.744407	-0.709843	0.002136
O286	O	0.994407	-0.459843	0.252136
O287	O	1.244407	-0.209843	0.502136
O288	O	1.494407	0.040157	0.752136
O289	O	0.600279	-0.709842	0.146153
O290	O	0.850279	-0.459842	0.396153
O291	O	1.100279	-0.209842	0.646153
O292	O	1.350279	0.040158	0.896153
C293	C	0.633364	-0.473956	0.113053
C294	C	0.883364	-0.223956	0.363053
C295	C	1.133364	0.026044	0.613053
C296	C	1.383364	0.276044	0.863053
C297	C	0.672302	-0.447839	0.074127
C298	C	0.922302	-0.197839	0.324127
C299	C	1.172302	0.052161	0.574127
C300	C	1.422302	0.302161	0.824127
C301	C	0.711249	-0.473939	0.035202
C302	C	0.961249	-0.223939	0.285202
C303	C	1.211249	0.026061	0.535202
C304	C	1.461249	0.276061	0.785202
C305	C	0.672296	-0.395620	0.074128
C306	C	0.922296	-0.145620	0.324128
C307	C	1.172296	0.104380	0.574128
C308	C	1.422296	0.354380	0.824128
C309	C	0.633349	-0.369521	0.113052
C310	C	0.883349	-0.119521	0.363052
C311	C	1.133349	0.130479	0.613052
C312	C	1.383349	0.380479	0.863052
C313	C	0.594407	-0.395640	0.151975
C314	C	0.844407	-0.145640	0.401975
C315	C	1.094407	0.104360	0.651975
C316	C	1.344407	0.354360	0.901975
C317	C	0.594417	-0.447857	0.151977
C318	C	0.844417	-0.197857	0.401977
C319	C	1.094417	0.052143	0.651977
C320	C	1.344417	0.302143	0.901977
C321	C	0.750191	-0.447819	-0.003721
C322	C	1.000191	-0.197819	0.246279
C323	C	1.250191	0.052181	0.496279
C324	C	1.500191	0.302181	0.746279
C325	C	0.750179	-0.395603	-0.003719
C326	C	1.000179	-0.145603	0.246281
C327	C	1.250179	0.104397	0.496281
C328	C	1.500179	0.354397	0.746281
C329	C	0.711231	-0.369504	0.035206
C330	C	0.961231	-0.119504	0.285206
C331	C	1.211231	0.130496	0.535206
C332	C	1.461231	0.380496	0.785206
C333	C	0.776472	-0.000058	0.069388
C334	C	1.026472	0.249942	0.319388
C335	C	1.276472	0.499942	0.569388
C336	C	1.526472	0.749942	0.819388
C337	C	0.839689	-0.000060	0.070154
C338	C	1.089689	0.249940	0.320154
C339	C	1.339689	0.499940	0.570154
C340	C	1.589689	0.749940	0.820154
C341	C	0.677071	-0.000060	-0.030013
C342	C	0.927071	0.249940	0.219987
C343	C	1.177071	0.499940	0.469987
C344	C	1.427071	0.749940	0.719987
C345	C	0.676305	-0.000064	-0.093230
C346	C	0.926305	0.249936	0.156770
C347	C	1.176305	0.499936	0.406770
C348	C	1.426305	0.749936	0.656770
N349	N	0.672386	0.129198	0.074132
N350	N	0.922386	0.379198	0.324132
N351	N	1.172386	0.629198	0.574132
N352	N	1.422386	0.879198	0.824132
C353	C	0.723539	-0.000041	-0.492333
C354	C	0.973539	0.249959	-0.242333
C355	C	1.223539	0.499959	0.007667
C356	C	1.473539	0.749959	0.257667
C357	C	0.722827	-0.000037	-0.551733
C358	C	0.972827	0.249963	-0.301733
C359	C	1.222827	0.499963	-0.051733
C360	C	1.472827	0.749963	0.198267
O361	O	0.766613	-0.000023	-0.588478
O362	O	1.016613	0.249977	-0.338478
O363	O	1.266613	0.499977	-0.088478
O364	O	1.516613	0.749977	0.161522
N365	N	0.670551	-0.000033	-0.574359
N366	N	0.920551	0.249967	-0.324359
N367	N	1.170551	0.499967	-0.074359
N368	N	1.420551	0.749967	0.175641
C369	C	0.618983	-0.000027	-0.537582
C370	C	0.868983	0.249973	-0.287582
C371	C	1.118983	0.499973	-0.037582
C372	C	1.368983	0.749973	0.212418
O373	O	0.574452	-0.000023	-0.562281
O374	O	0.824452	0.249977	-0.312281
O375	O	1.074452	0.499977	-0.062281
O376	O	1.324452	0.749977	0.187719
C377	C	0.619695	-0.000027	-0.478182
C378	C	0.869695	0.249973	-0.228182
C379	C	1.119695	0.499973	0.021818
C380	C	1.369695	0.749973	0.271818
C381	C	0.671974	-0.000037	-0.455560
C382	C	0.921974	0.249963	-0.205560
C383	C	1.171974	0.499963	0.044440
C384	C	1.421974	0.749963	0.294440
C385	C	0.775814	-0.000050	-0.469710
C386	C	1.025814	0.249950	-0.219710
C387	C	1.275814	0.499950	0.030290
C388	C	1.525814	0.749950	0.280290
C389	C	0.776525	-0.000055	-0.410313
C390	C	1.026525	0.249945	-0.160313
C391	C	1.276525	0.499945	0.089687
C392	C	1.526525	0.749945	0.339687
C393	C	0.724961	-0.000051	-0.373540
C394	C	0.974961	0.249949	-0.123540
C395	C	1.224961	0.499949	0.126460
C396	C	1.474961	0.749949	0.376460
C397	C	0.672685	-0.000042	-0.396164
C398	C	0.922685	0.249958	-0.146164
C399	C	1.172685	0.499958	0.103836
C400	C	1.422685	0.749958	0.353836
C401	C	0.568127	-0.000018	-0.441406
C402	C	0.818127	0.249982	-0.191406
C403	C	1.068127	0.499982	0.058594
C404	C	1.318127	0.749982	0.308594
C405	C	0.568844	-0.000018	-0.382004
C406	C	0.818844	0.249982	-0.132004
C407	C	1.068844	0.499982	0.117996
C408	C	1.318844	0.749982	0.367996
C409	C	0.621123	-0.000028	-0.359381
C410	C	0.871123	0.249972	-0.109381
C411	C	1.121123	0.499972	0.140619
C412	C	1.371123	0.749972	0.390619
C413	C	0.621832	-0.000042	-0.299995
C414	C	0.871832	0.249958	-0.049995
C415	C	1.121832	0.499958	0.200005
C416	C	1.371832	0.749958	0.450005
N417	N	0.674109	-0.000047	-0.277368
N418	N	0.924109	0.249953	-0.027368
N419	N	1.174109	0.499953	0.222632
N420	N	1.424109	0.749953	0.472632
C421	C	0.725673	-0.000051	-0.314141
C422	C	0.975673	0.249949	-0.064141
C423	C	1.225673	0.499949	0.185859
C424	C	1.475673	0.749949	0.435859
C425	C	0.617491	-0.000026	-0.662324
C426	C	0.867491	0.249974	-0.412324
C427	C	1.117491	0.499974	-0.162324
C428	C	1.367491	0.749974	0.087676
C429	C	0.616778	-0.000029	-0.721722
C430	C	0.866778	0.249971	-0.471722
C431	C	1.116778	0.499971	-0.221722
C432	C	1.366778	0.749971	0.028278
C433	C	0.720623	-0.000038	-0.735869
C434	C	0.970623	0.249962	-0.485869
C435	C	1.220623	0.499962	-0.235869
C436	C	1.470623	0.749962	0.014131
C437	C	0.721335	-0.000039	-0.676470
C438	C	0.971335	0.249961	-0.426470
C439	C	1.221335	0.499961	-0.176470
C440	C	1.471335	0.749961	0.073530
C441	C	0.669767	-0.000030	-0.639698
C442	C	0.919767	0.249970	-0.389698
C443	C	1.169767	0.499970	-0.139698
C444	C	1.419767	0.749970	0.110302
C445	C	0.727163	-0.000062	-0.189405
C446	C	0.977163	0.249938	0.060595
C447	C	1.227163	0.499938	0.310595
C448	C	1.477163	0.749938	0.560595
C449	C	0.727869	-0.000068	-0.130003
C450	C	0.977869	0.249932	0.119997
C451	C	1.227869	0.499932	0.369997
C452	C	1.477869	0.749932	0.619997
C453	C	0.624025	-0.000057	-0.115860
C454	C	0.874025	0.249943	0.134140
C455	C	1.124025	0.499943	0.384140
C456	C	1.374025	0.749943	0.634140
C457	C	0.623318	-0.000052	-0.175257
C458	C	0.873318	0.249948	0.074743
C459	C	1.123318	0.499948	0.324743
C460	C	1.373318	0.749948	0.574743
C461	C	0.674891	-0.000053	-0.212029
C462	C	0.924891	0.249947	0.037971
C463	C	1.174891	0.499947	0.287971
C464	C	1.424891	0.749947	0.537971
O465	O	0.578070	-0.000055	-0.263215
O466	O	0.828070	0.249945	-0.013215
O467	O	1.078070	0.499945	0.236785
O468	O	1.328070	0.749945	0.486785
O469	O	0.770196	-0.000049	-0.289433
O470	O	1.020196	0.249951	-0.039433
O471	O	1.270196	0.499951	0.210567
O472	O	1.520196	0.749951	0.460567
C473	C	0.667577	-0.000038	0.178283
C474	C	0.917577	0.249962	0.428283
C475	C	1.167577	0.499962	0.678283
C476	C	1.417577	0.749962	0.928283
C477	C	0.668343	-0.000031	0.241500
C478	C	0.918343	0.249969	0.491500
C479	C	1.168343	0.499969	0.741500
C480	C	1.418343	0.749969	0.991500
H481	H	0.486602	-0.000020	0.172255
H482	H	0.736602	0.249980	0.422255
H483	H	0.986602	0.499980	0.672255
H484	H	1.236602	0.749980	0.922255
Br485	Br	0.798825	-0.000082	-0.099305
Br486	Br	1.048825	0.249918	0.150695
Br487	Br	1.298825	0.499918	0.400695
Br488	Br	1.548825	0.749918	0.650695
H489	H	-0.141947	-0.000064	-0.023982
H490	H	0.108053	0.249936	0.226018
H491	H	0.358053	0.499936	0.476018
H492	H	0.608053	0.749936	0.726018
H493	H	0.763906	-0.000046	-0.658056
H494	H	1.013906	0.249954	-0.408056
H495	H	1.263906	0.499954	-0.158056
H496	H	1.513906	0.749954	0.091944
Br497	Br	0.764073	-0.119958	-0.017616
Br498	Br	1.014073	0.130042	0.232384
Br499	Br	1.264073	0.380042	0.482384
Br500	Br	1.514073	0.630042	0.732384
Br501	Br	0.580553	-0.757073	0.165889
Br502	Br	0.830553	-0.507073	0.415889
Br503	Br	1.080553	-0.257073	0.665889
Br504	Br	1.330553	-0.007073	0.915889
Br505	Br	-0.047586	-0.000038	0.194099
Br506	Br	0.202414	0.249962	0.444099
Br507	Br	0.452414	0.499962	0.694099
Br508	Br	0.702414	0.749962	0.944099
H509	H	0.575496	-0.000023	-0.632386
H510	H	0.825496	0.249977	-0.382386
H511	H	1.075496	0.499977	-0.132386
H512	H	1.325496	0.749977	0.117614
H513	H	0.562736	-0.625767	0.183680
H514	H	0.812736	-0.375767	0.433680
H515	H	1.062736	-0.125767	0.683680
H516	H	1.312736	0.124233	0.933680
H517	H	0.378851	-0.000035	0.170970
H518	H	0.628851	0.249965	0.420970
H519	H	0.878851	0.499965	0.670970
H520	H	1.128851	0.749965	0.920970
H521	H	0.246123	-0.000088	-0.071339
H522	H	0.496123	0.249912	0.178661
H523	H	0.746123	0.499912	0.428661
H524	H	0.996123	0.749912	0.678661
Br525	Br	0.764082	-0.243029	-0.017630
Br526	Br	1.014082	0.006971	0.232370
Br527	Br	1.264082	0.256971	0.482370
Br528	Br	1.514082	0.506971	0.732370
Br529	Br	0.078583	-0.000034	0.247615
Br530	Br	0.328583	0.249966	0.497615
Br531	Br	0.578583	0.499966	0.747615
Br532	Br	0.828583	0.749966	0.997615
Br533	Br	0.797156	-0.000062	-0.239299
Br534	Br	1.047156	0.249938	0.010701
Br535	Br	1.297156	0.499938	0.260701
Br536	Br	1.547156	0.749938	0.510701
Br537	Br	0.532245	-0.000052	-0.044141
Br538	Br	0.782245	0.249948	0.205859
Br539	Br	1.032245	0.499948	0.455859
Br540	Br	1.282245	0.749948	0.705859
H541	H	-0.167632	-0.000050	0.164421
H542	H	0.082368	0.249950	0.414421
H543	H	0.332368	0.499950	0.664421
H544	H	0.582368	0.749950	0.914421
Br545	Br	0.764172	-0.757019	-0.017621
Br546	Br	1.014172	-0.507019	0.232379
Br547	Br	1.264172	-0.257019	0.482379
Br548	Br	1.514172	-0.007019	0.732379
Br549	Br	0.580465	-0.119985	0.165885
Br550	Br	0.830465	0.130015	0.415885
Br551	Br	1.080465	0.380015	0.665885
Br552	Br	1.330465	0.630015	0.915885
Br553	Br	0.847480	-0.000054	-0.379621
Br554	Br	1.097480	0.249946	-0.129621
Br555	Br	1.347480	0.499946	0.120379
Br556	Br	1.597480	0.749946	0.370379
Br557	Br	0.580590	-0.880145	0.165895
Br558	Br	0.830590	-0.630145	0.415895
Br559	Br	1.080590	-0.380145	0.665895
Br560	Br	1.330590	-0.130145	0.915895
Br561	Br	0.803068	-0.639896	-0.056568
Br562	Br	1.053068	-0.389896	0.193432
Br563	Br	1.303068	-0.139896	0.443432
Br564	Br	1.553068	0.110104	0.693432
Br565	Br	0.218568	-0.000026	0.249291
Br566	Br	0.468568	0.249974	0.499291
Br567	Br	0.718568	0.499974	0.749291
Br568	Br	0.968568	0.749974	0.999291
H569	H	0.404512	-0.000048	-0.017441
H570	H	0.654512	0.249952	0.232559
H571	H	0.904512	0.499952	0.482559
H572	H	1.154512	0.749952	0.732559
Br573	Br	0.803058	-0.516824	-0.056566
Br574	Br	1.053058	-0.266824	0.193434
Br575	Br	1.303058	-0.016824	0.443434
Br576	Br	1.553058	0.233176	0.693434
Br577	Br	0.541572	-0.516877	0.204812
Br578	Br	0.791572	-0.266877	0.454812
Br579	Br	1.041572	-0.016877	0.704812
Br580	Br	1.291572	0.233123	0.954812
H581	H	0.743041	-0.865937	0.003514
H582	H	0.993041	-0.615937	0.253514
H583	H	1.243041	-0.365937	0.503514
H584	H	1.493041	-0.115937	0.753514
Br585	Br	0.580481	-0.243074	0.165895
Br586	Br	0.830481	0.006926	0.415895
Br587	Br	1.080481	0.256926	0.665895
Br588	Br	1.330481	0.506926	0.915895
Br589	Br	0.545825	-0.000028	-0.752416
Br590	Br	0.795825	0.249972	-0.502416
Br591	Br	1.045825	0.499972	-0.252416
Br592	Br	1.295825	0.749972	-0.002416
Br593	Br	0.552367	-0.000051	-0.205961
Br594	Br	0.802367	0.249949	0.044039
Br595	Br	1.052367	0.499949	0.294039
Br596	Br	1.302367	0.749949	0.544039
H597	H	0.781893	-0.374342	-0.035419
H598	H	1.031893	-0.124342	0.214581
H599	H	1.281893	0.125658	0.464581
H600	H	1.531893	0.375658	0.714581
H601	H	0.817806	-0.000052	-0.499645
H602	H	1.067806	0.249948	-0.249645
H603	H	1.317806	0.499948	0.000355
H604	H	1.567806	0.749948	0.250355
Br605	Br	0.541553	-0.360209	0.204803
Br606	Br	0.791553	-0.110209	0.454803
Br607	Br	1.041553	0.139791	0.704803
Br608	Br	1.291553	0.389791	0.954803
H609	H	-0.034198	-0.000071	-0.022693
H610	H	0.215802	0.249929	0.227307
H611	H	0.465802	0.499929	0.477307
H612	H	0.715802	0.749929	0.727307
H613	H	0.138374	-0.000087	-0.072634
H614	H	0.388374	0.249913	0.177366
H615	H	0.638374	0.499913	0.427366
H616	H	0.888374	0.749913	0.677366
Br617	Br	0.790604	-0.000042	-0.785787
Br618	Br	1.040604	0.249958	-0.535787
Br619	Br	1.290604	0.499958	-0.285787
Br620	Br	1.540604	0.749958	-0.035787
Br621	Br	0.497171	-0.000003	-0.472092
Br622	Br	0.747171	0.249997	-0.222092
Br623	Br	0.997171	0.499997	0.027908
Br624	Br	1.247171	0.749997	0.277908
Br625	Br	0.498854	-0.000005	-0.332101
Br626	Br	0.748854	0.249995	-0.082101
Br627	Br	0.998854	0.499995	0.167899
Br628	Br	1.248854	0.749995	0.417899
H629	H	0.562708	-0.469117	0.183677
H630	H	0.812708	-0.219117	0.433677
H631	H	1.062708	0.030883	0.683677
H632	H	1.312708	0.280883	0.933677
H633	H	0.781906	-0.469066	-0.035418
H634	H	1.031906	-0.219066	0.214582
H635	H	1.281906	0.030934	0.464582
H636	H	1.531906	0.280934	0.714582
H637	H	0.582043	-0.000055	-0.085909
H638	H	0.832043	0.249945	0.164091
H639	H	1.082043	0.499945	0.414091
H640	H	1.332043	0.749945	0.664091
