data_functionalizedCrystal
_audit_creation_method	'MofGen! by Chris Wilmer'
_symmetry_space_group_name_H-M	'P1'
_symmetry_Int_Tables_number	1
_symmetry_cell_setting	triclinic
loop_
_symmetry_equiv_pos_as_xyz
  x,y,z
_cell_length_a	9.065218
_cell_length_b	17.019294
_cell_length_c	15.500215
_cell_angle_alpha	97.060225
_cell_angle_beta	93.145084
_cell_angle_gamma	84.203176
loop_
_atom_site_label
_atom_site_type_symbol
_atom_site_fract_x
_atom_site_fract_y
_atom_site_fract_z
O1	O	1.964134	0.119388	0.080840
O2	O	1.534652	0.128908	0.081550
O3	O	1.760647	0.009005	0.072613
O4	O	1.738139	0.239290	0.089777
O5	O	1.748363	0.002350	-0.071773
O6	O	1.522369	0.122252	-0.062835
O7	O	1.951850	0.112732	-0.063546
Cu8	Cu	1.735988	0.116885	-0.076374
Cu9	Cu	1.750515	0.124756	0.094378
O10	O	1.725856	0.232635	-0.054608
C11	C	1.473543	0.124665	0.009289
C12	C	1.309756	0.121930	0.009086
C13	C	1.753409	-0.023819	-0.001777
C14	C	1.750127	-0.111711	-0.008322
C15	C	1.755284	-0.149370	0.067307
C16	C	1.752191	-0.231953	0.061154
C17	C	1.743951	-0.276876	-0.020629
C18	C	1.738789	-0.239211	-0.096263
C19	C	1.741872	-0.156629	-0.090109
C20	C	1.734297	-0.526402	-0.043146
C21	C	1.731219	-0.608989	-0.049295
C22	C	1.744618	-0.601726	0.108123
C23	C	1.747710	-0.519143	0.114270
C24	C	1.742540	-0.481485	0.038635
C25	C	1.740793	-0.361289	-0.026920
C26	C	1.745687	-0.397072	0.044927
C27	C	2.012960	0.116975	0.008717
C28	C	2.176747	0.119711	0.008926
C29	C	1.733093	0.265460	0.019783
C30	C	1.736376	0.353351	0.026334
N31	N	1.725781	0.111348	-0.196472
C32	C	1.811599	0.157934	-0.238273
C33	C	1.803899	0.153742	-0.329158
C34	C	1.710374	0.102968	-0.378241
C35	C	1.624553	0.056378	-0.336434
C36	C	1.632261	0.060566	-0.245551
C37	C	1.682621	0.087883	-0.652834
C38	C	1.674915	0.083700	-0.743723
C39	C	1.854264	0.181064	-0.736441
C40	C	1.861958	0.185251	-0.645556
C41	C	1.776143	0.138657	-0.603757
C42	C	1.702498	0.098684	-0.471141
C43	C	1.784028	0.142938	-0.510859
N44	N	1.760733	0.130286	0.214476
H45	H	1.756397	-0.262611	0.122739
N46	N	1.574034	0.028943	-0.796676
H47	H	1.468103	0.044481	-0.779764
H48	H	1.604357	-0.027688	-0.785130
N49	N	1.590068	0.037631	-0.607757
H50	H	1.529649	0.004834	-0.652644
H51	H	1.521288	0.073338	-0.567519
N52	N	1.764045	-0.100915	0.155518
H53	H	1.765179	-0.042882	0.147944
H54	H	1.857768	-0.119497	0.188434
H55	H	1.548410	0.015033	-0.376405
H56	H	1.730117	-0.495752	-0.104734
N57	N	1.722347	-0.657440	-0.137510
H58	H	1.812157	-0.697616	-0.143995
H59	H	1.719497	-0.620992	-0.184431
N60	N	1.731943	-0.409747	-0.115126
H61	H	1.639002	-0.438418	-0.120764
H62	H	1.821814	-0.449884	-0.121540
H63	H	1.562379	0.022631	-0.211518
H64	H	1.860181	0.184275	-0.470893
N65	N	1.962847	0.240008	-0.592622
H66	H	1.954706	0.235593	-0.528704
H67	H	1.932590	0.296627	-0.604233
H68	H	1.626348	0.057344	-0.511114
H69	H	1.887748	0.199284	-0.198315
H70	H	1.924131	0.218997	-0.770484
H71	H	1.732070	-0.275793	-0.162852
H72	H	1.754422	-0.482572	0.180865
H73	H	1.748824	-0.632396	0.169700
N74	N	1.754590	-0.348623	0.133132
H75	H	1.757396	-0.385008	0.180115
H76	H	1.664788	-0.308439	0.139545
H77	H	1.737651	-0.125967	-0.151694
H78	H	1.873784	0.191675	-0.363188
