data_functionalizedCrystal
_audit_creation_method	'MofGen! by Chris Wilmer'
_symmetry_space_group_name_H-M	'P1'
_symmetry_Int_Tables_number	1
_symmetry_cell_setting	triclinic
loop_
_symmetry_equiv_pos_as_xyz
  x,y,z
_cell_length_a	12.759401
_cell_length_b	16.120444
_cell_length_c	12.759393
_cell_angle_alpha	92.863624
_cell_angle_beta	89.981433
_cell_angle_gamma	92.925484
loop_
_atom_site_label
_atom_site_type_symbol
_atom_site_fract_x
_atom_site_fract_y
_atom_site_fract_z
Zn1	Zn	1.584963	-0.331879	-0.615155
Zn2	Zn	2.084963	0.168121	-0.115155
Zn3	Zn	1.575911	-0.471317	-0.448370
Zn4	Zn	2.075911	0.028683	0.051630
Zn5	Zn	1.409262	-0.331920	-0.439496
Zn6	Zn	1.909262	0.168080	0.060504
Zn7	Zn	1.400311	-0.471250	-0.624007
Zn8	Zn	1.900311	0.028750	-0.124007
O9	O	1.492612	-0.401591	-0.531757
O10	O	1.992612	0.098409	-0.031757
O11	O	1.730782	-0.350387	-0.593039
O12	O	2.230782	0.149613	-0.093039
O13	O	1.553762	-0.452871	-0.300175
O14	O	2.053762	0.047129	0.199825
O15	O	1.440103	-0.215249	-0.455380
O16	O	1.940103	0.284751	0.044620
O17	O	1.724132	-0.452831	-0.470503
O18	O	2.224132	0.047169	0.029497
O19	O	1.569190	-0.215219	-0.584435
O20	O	2.069190	0.284781	-0.084435
O21	O	1.431326	-0.350456	-0.293655
O22	O	1.931326	0.149544	0.206345
O23	O	1.261054	-0.350391	-0.463963
O24	O	1.761054	0.149609	0.036037
O25	O	1.424848	-0.452717	-0.769851
O26	O	1.924848	0.047283	-0.269851
O27	O	1.254478	-0.452757	-0.599522
O28	O	1.754478	0.047243	-0.099522
O29	O	1.560511	-0.350322	-0.763347
O30	O	2.060511	0.149678	-0.263347
O31	O	1.545083	-0.587974	-0.479087
O32	O	2.045083	-0.087974	0.020913
O33	O	1.416071	-0.587925	-0.608126
O34	O	1.916071	-0.087925	-0.108126
C35	C	1.219646	-0.401572	-0.531741
C36	C	1.719646	0.098428	-0.031741
C37	C	1.102868	-0.401584	-0.531761
C38	C	1.602868	0.098416	-0.031761
C39	C	1.051456	-0.348341	-0.595676
C40	C	1.551456	0.151659	-0.095676
C41	C	0.941731	-0.348357	-0.595683
C42	C	1.441731	0.151643	-0.095683
C43	C	0.934840	-0.454865	-0.467858
C44	C	1.434840	0.045135	0.032142
C45	C	1.044563	-0.454844	-0.467846
C46	C	1.544563	0.045156	0.032154
C47	C	1.109761	-0.295081	-0.659590
C48	C	1.609761	0.204919	-0.159590
C49	C	1.058348	-0.241835	-0.723512
C50	C	1.558348	0.258165	-0.223512
C51	C	0.948623	-0.241851	-0.723519
C52	C	1.448623	0.258149	-0.223519
C53	C	0.890310	-0.295113	-0.659606
C54	C	1.390310	0.204887	-0.159606
C55	C	1.478652	-0.618199	-0.545553
C56	C	1.978652	-0.118199	-0.045553
C57	C	1.472776	-0.710865	-0.551490
C58	C	1.972776	-0.210865	-0.051490
C59	C	1.523350	-0.921811	-0.501184
C60	C	2.023350	-0.421811	-0.001184
C61	C	1.462068	-0.880521	-0.562341
C62	C	1.962068	-0.380521	-0.062341
C63	C	1.468028	-0.786116	-0.556302
C64	C	1.968028	-0.286116	-0.056302
C65	C	1.517392	-1.016225	-0.507222
C66	C	2.017392	-0.516225	-0.007222
C67	C	1.766644	-0.401612	-0.531774
C68	C	2.266644	0.098388	-0.031774
C69	C	1.883420	-0.401620	-0.531781
C70	C	2.383420	0.098380	-0.031781
C71	C	1.492691	-0.401507	-0.805785
C72	C	1.992691	0.098493	-0.305785
C73	C	1.492724	-0.401472	-0.922560
C74	C	1.992724	0.098528	-0.422560
C75	C	1.506654	-0.184138	-0.517930
C76	C	2.006654	0.315862	-0.017930
C77	C	1.512639	-0.091472	-0.512038
C78	C	2.012639	0.408528	-0.012038
C79	C	1.563373	-0.348149	-0.974036
C80	C	2.063373	0.151851	-0.474036
C81	C	1.563400	-0.348119	-1.083759
C82	C	2.063400	0.151881	-0.583759
C83	C	1.422126	-0.454741	-1.090518
C84	C	1.922126	0.045259	-0.590518
C85	C	1.422095	-0.454766	-0.980797
C86	C	1.922095	0.045234	-0.480797
C87	C	1.634003	-0.294854	-0.915799
C88	C	2.134003	0.205146	-0.415799
C89	C	1.704659	-0.241528	-0.967276
C90	C	2.204659	0.258472	-0.467276
C91	C	1.704686	-0.241498	-1.076998
C92	C	2.204686	0.258502	-0.576998
C93	C	1.634057	-0.294794	-1.135243
C94	C	2.134057	0.205206	-0.635243
C95	C	1.492597	-0.401615	-0.258791
C96	C	1.992597	0.098385	0.241209
C97	C	1.492782	-0.401416	-0.142002
C98	C	1.992782	0.098584	0.357998
H99	H	1.199105	-0.295062	-0.659591
H100	H	1.699105	0.204938	-0.159591
C101	C	1.782403	-0.182836	-1.133619
C102	C	2.282403	0.317164	-0.633619
N103	N	1.840947	-0.138653	-1.176264
N104	N	2.340947	0.361347	-0.676264
C105	C	1.600262	-0.873785	-0.424319
C106	C	2.100262	-0.373785	0.075681
N107	N	1.658187	-0.837602	-0.366421
N108	N	2.158187	-0.337602	0.133579
H109	H	1.364623	-0.498131	-1.137950
H110	H	1.864623	0.001869	-0.637950
C111	C	1.633977	-0.294880	-0.795102
C112	C	2.133977	0.205120	-0.295102
N113	N	1.633955	-0.294900	-0.704193
N114	N	2.133955	0.205100	-0.204193
H115	H	1.364551	-0.498173	-0.938883
H116	H	1.864551	0.001827	-0.438883
C117	C	1.634086	-0.294754	-1.255941
C118	C	2.134086	0.205246	-0.755941
N119	N	1.634112	-0.294725	-1.346850
N120	N	2.134112	0.205275	-0.846850
H121	H	1.762155	-0.198132	-0.919845
H122	H	2.262155	0.301868	-0.419845
H123	H	1.105834	-0.198466	-0.775541
H124	H	1.605834	0.301534	-0.275541
H125	H	0.906766	-0.198489	-0.775559
H126	H	1.406766	0.301511	-0.275559
H127	H	1.405126	-0.916072	-0.619234
H128	H	1.905126	-0.416072	-0.119234
H129	H	0.800966	-0.295104	-0.659593
H130	H	1.300966	0.204896	-0.159593
H131	H	0.887353	-0.498230	-0.415825
H132	H	1.387353	0.001770	0.084175
H133	H	1.086424	-0.498199	-0.415801
H134	H	1.586424	0.001801	0.084199
