data_functionalizedCrystal
_audit_creation_method	'MofGen! by Chris Wilmer'
_symmetry_space_group_name_H-M	'P1'
_symmetry_Int_Tables_number	1
_symmetry_cell_setting	triclinic
loop_
_symmetry_equiv_pos_as_xyz
  x,y,z
_cell_length_a	12.837943
_cell_length_b	17.038272
_cell_length_c	11.892095
_cell_angle_alpha	94.170821
_cell_angle_beta	85.689438
_cell_angle_gamma	92.970248
loop_
_atom_site_label
_atom_site_type_symbol
_atom_site_fract_x
_atom_site_fract_y
_atom_site_fract_z
O1	O	1.399724	0.200065	-0.093986
O2	O	1.097028	0.189958	-0.093992
O3	O	1.246576	0.081062	-0.093980
O4	O	1.250175	0.308961	-0.093998
O5	O	1.234106	0.090126	0.094026
O6	O	1.084557	0.199022	0.094014
O7	O	1.387254	0.209129	0.094021
Zn8	Zn	1.233926	0.205514	0.123868
Zn9	Zn	1.250356	0.193572	-0.123839
O10	O	1.237705	0.318025	0.094009
C11	C	1.051871	0.191076	0.000010
C12	C	0.935896	0.180893	0.000008
C13	C	0.705733	0.303310	0.000015
C14	C	0.596764	0.293746	0.000013
C15	C	0.608986	0.152201	0.000012
C16	C	0.717955	0.161765	0.000014
C17	C	0.766325	0.237322	0.000013
C18	C	0.875296	0.246885	0.000006
C19	C	0.887516	0.105342	0.000013
C20	C	0.778547	0.095777	0.000012
C21	C	1.237069	0.056221	0.000023
C22	C	1.227305	-0.031301	0.000022
C23	C	1.316945	-0.074719	0.000026
C24	C	1.307766	-0.156956	0.000015
C25	C	1.208945	-0.195773	0.000009
C26	C	1.119299	-0.152349	0.000002
C27	C	1.128480	-0.070114	0.000005
C28	C	1.176511	-0.443954	-0.000008
C29	C	1.167337	-0.526195	-0.000007
C30	C	1.355805	-0.530796	0.000003
C31	C	1.364977	-0.448559	0.000013
C32	C	1.275331	-0.405143	0.000001
C33	C	1.199560	-0.279832	0.000001
C34	C	1.284718	-0.321086	0.000000
C35	C	1.432411	0.208011	0.000016
C36	C	1.548386	0.218194	0.000011
C37	C	1.247213	0.342865	0.000003
C38	C	1.256977	0.430387	-0.000004
N39	N	1.222720	0.213665	0.292921
N40	N	1.261569	0.185416	-0.292892
C41	C	1.339540	0.128657	0.529578
C42	C	1.331715	0.134361	0.647919
C43	C	1.199241	0.230770	0.647947
C44	C	1.207066	0.225067	0.529605
C45	C	1.277219	0.174010	0.470425
C46	C	1.285048	0.168311	0.352082
C47	C	1.152569	0.264716	0.352111
C48	C	1.144745	0.270419	0.470453
H49	H	0.547433	0.347480	0.000018
C50	C	0.949416	-0.169080	0.096632
C51	C	1.010670	-0.195011	-0.000009
H52	H	0.882350	-0.195413	0.096621
H53	H	0.982276	-0.180352	0.162184
H54	H	0.942068	-0.113889	0.096619
H55	H	1.018025	-0.250201	0.000008
H56	H	0.977802	-0.183745	-0.065578
H57	H	1.396668	0.087090	0.481393
C58	C	0.761824	-0.032464	-0.096643
C59	C	0.725374	0.012728	0.000007
H60	H	0.729003	-0.083737	-0.096643
H61	H	0.745796	-0.008107	-0.162189
H62	H	0.835395	-0.036205	-0.096632
H63	H	0.651804	0.016474	-0.000009
H64	H	0.741395	-0.011635	0.065570
H65	H	1.445447	-0.416960	0.000018
C66	C	0.995443	0.283279	0.603576
C67	C	1.067639	0.326539	0.535515
H68	H	0.947848	0.317929	0.643747
H69	H	0.958071	0.245494	0.557417
H70	H	1.031451	0.257085	0.655737
H71	H	1.031632	0.352729	0.483349
H72	H	1.105016	0.364338	0.581678
H73	H	1.142117	0.272334	0.696146
C74	C	1.413203	-0.256747	-0.096642
C75	C	1.406306	-0.204676	0.000014
H76	H	1.474046	-0.286202	-0.096646
H77	H	1.353048	-0.291634	-0.096640
H78	H	1.417211	-0.227715	-0.162191
H79	H	1.402289	-0.233709	0.065563
H80	H	1.466476	-0.169785	0.000023
H81	H	0.936862	0.051609	0.000004
H82	H	1.101826	0.301647	0.303936
H83	H	1.397415	-0.043120	0.000037
C84	C	0.852265	0.385834	0.000022
C85	C	0.928467	0.329935	0.000012
H86	H	0.885090	0.437107	0.000035
H87	H	0.814368	0.376005	-0.065538
H88	H	0.805667	0.382308	0.065587
H89	H	0.975061	0.333457	-0.065558
H90	H	0.966381	0.339768	0.065578
C91	C	1.461229	-0.630595	-0.096651
C92	C	1.454342	-0.578520	0.000001
H93	H	1.522069	-0.660053	-0.096657
H94	H	1.401070	-0.665478	-0.096643
H95	H	1.465237	-0.601565	-0.162202
H96	H	1.450326	-0.607550	0.065553
H97	H	1.514516	-0.543633	0.000003
H98	H	1.055485	-0.034764	0.000002
C99	C	0.989298	-0.447677	0.000008
C100	C	1.077972	-0.396237	0.000001
H101	H	0.928462	-0.418213	0.000024
H102	H	0.993983	-0.483001	-0.065552
H103	H	0.985306	-0.476693	0.065573
H104	H	1.081969	-0.367225	-0.065568
H105	H	1.073286	-0.360899	0.065568
H106	H	1.365179	-0.289479	-0.000020
C107	C	1.415195	0.073580	0.363946
C108	C	1.362153	0.112187	0.287028
H109	H	1.462791	0.038926	0.323784
H110	H	1.452569	0.111375	0.410089
H111	H	1.366196	0.044247	0.410117
H112	H	1.411152	0.141525	0.240861
H113	H	1.324778	0.074387	0.240865
C114	C	1.463445	0.038493	0.636000
C115	C	1.400222	0.084509	0.712941
H116	H	1.505742	0.007719	0.676145
H117	H	1.420563	0.004709	0.589857
H118	H	1.506921	0.071848	0.589831
H119	H	1.356740	0.051154	0.759105
H120	H	1.443108	0.118297	0.759104
C121	C	0.447363	0.074701	0.000031
C122	C	0.555804	0.069155	0.000024
H123	H	0.414533	0.023431	0.000033
H124	H	0.422662	0.105371	0.065587
H125	H	0.431350	0.099053	-0.065537
H126	H	0.571818	0.044809	0.065596
H127	H	0.580513	0.038473	-0.065539
H128	H	0.745116	0.364831	0.000012
H129	H	1.086860	-0.557796	0.000006
H130	H	1.119099	-0.311445	-0.000001
