data_functionalizedCrystal
_audit_creation_method	'MofGen! by Chris Wilmer'
_symmetry_space_group_name_H-M	'P1'
_symmetry_Int_Tables_number	1
_symmetry_cell_setting	triclinic
loop_
_symmetry_equiv_pos_as_xyz
  x,y,z
_cell_length_a	16.109301
_cell_length_b	16.109301
_cell_length_c	14.586319
_cell_angle_alpha	89.994230
_cell_angle_beta	89.998582
_cell_angle_gamma	83.461481
loop_
_atom_site_label
_atom_site_type_symbol
_atom_site_fract_x
_atom_site_fract_y
_atom_site_fract_z
O1	O	-1.103131	-0.106867	0.076185
O2	O	-0.769798	0.226467	0.409519
O3	O	-0.436465	0.559800	0.742852
O4	O	-0.861070	-0.120166	0.076200
O5	O	-0.527736	0.213167	0.409534
O6	O	-0.194403	0.546501	0.742867
O7	O	-0.988750	0.007515	0.076183
O8	O	-0.655417	0.340848	0.409516
O9	O	-0.322083	0.674181	0.742850
O10	O	-0.975451	-0.234547	0.076203
O11	O	-0.642117	0.098786	0.409536
O12	O	-0.308784	0.432119	0.742869
O13	O	-0.988740	0.007518	-0.076298
O14	O	-0.655407	0.340851	0.257036
O15	O	-0.322073	0.674184	0.590369
O16	O	-0.861059	-0.120163	-0.076281
O17	O	-0.527726	0.213170	0.257053
O18	O	-0.194393	0.546504	0.590386
O19	O	-1.103121	-0.106864	-0.076295
O20	O	-0.769788	0.226470	0.257038
O21	O	-0.436455	0.559803	0.590371
Cu22	Cu	-0.982089	-0.113513	-0.090211
Cu23	Cu	-0.648756	0.219820	0.243123
Cu24	Cu	-0.315423	0.553154	0.576456
Cu25	Cu	-0.982101	-0.113517	0.090115
Cu26	Cu	-0.648768	0.219817	0.423449
Cu27	Cu	-0.315435	0.553150	0.756782
O28	O	-0.975441	-0.234544	-0.076278
O29	O	-0.642107	0.098789	0.257055
O30	O	-0.308774	0.432122	0.590388
C31	C	-0.830090	-0.119626	-0.000038
C32	C	-0.496756	0.213708	0.333295
C33	C	-0.163423	0.547041	0.666628
C34	C	-0.737794	-0.118011	-0.000033
C35	C	-0.404461	0.215323	0.333300
C36	C	-0.071128	0.548656	0.666634
C37	C	-0.988206	0.038491	-0.000058
C38	C	-0.654873	0.371824	0.333276
C39	C	-0.321540	0.705158	0.666609
C40	C	-0.986591	0.130786	-0.000059
C41	C	-0.653258	0.464120	0.333274
C42	C	-0.319925	0.797453	0.666608
N43	N	-0.982087	-0.113510	-0.217042
N44	N	-0.648754	0.219823	0.116291
N45	N	-0.315420	0.553157	0.449624
C46	C	-1.134101	-0.107404	-0.000055
C47	C	-0.800768	0.225929	0.333278
C48	C	-0.467435	0.559263	0.666612
C49	C	-1.226397	-0.109019	-0.000054
C50	C	-0.893063	0.224314	0.333279
C51	C	-0.559730	0.557648	0.666612
C52	C	-0.515522	-0.190018	-0.000038
C53	C	-0.182188	0.143315	0.333296
C54	C	0.151145	0.476648	0.666629
C55	C	-0.428801	-0.188494	-0.000044
C56	C	-0.095468	0.144839	0.333290
C57	C	0.237865	0.478172	0.666623
C58	C	-0.448676	-0.037006	-0.000052
C59	C	-0.115342	0.296328	0.333281
C60	C	0.217991	0.629661	0.666614
C61	C	-0.535394	-0.038530	-0.000053
C62	C	-0.202061	0.294803	0.333281
C63	C	0.131272	0.628136	0.666614
C64	C	-0.568815	-0.115039	-0.000041
C65	C	-0.235482	0.218294	0.333292
C66	C	0.097852	0.551627	0.666626
C67	C	-0.395376	-0.111990	-0.000046
C68	C	-0.062042	0.221343	0.333287
C69	C	0.271291	0.554676	0.666620
C70	C	-0.301350	-0.110337	-0.000053
C71	C	0.031984	0.222996	0.333280
C72	C	0.365317	0.556329	0.666614
C73	C	-0.662847	-0.116693	-0.000036
C74	C	-0.329514	0.216641	0.333297
C75	C	0.003820	0.549974	0.666631
C76	C	-0.975984	-0.265521	-0.000035
C77	C	-0.642651	0.067813	0.333298
C78	C	-0.309318	0.401146	0.666631
C79	C	-0.977600	-0.357816	-0.000028
C80	C	-0.644266	-0.024483	0.333305
C81	C	-0.310933	0.308851	0.666638
C82	C	-1.058599	0.353059	-0.000049
C83	C	-0.725266	0.686392	0.333284
C84	C	-0.391932	1.019725	0.666618
C85	C	-1.057075	0.439779	-0.000041
C86	C	-0.723742	0.773112	0.333292
C87	C	-0.390408	1.106446	0.666625
C88	C	-0.905586	0.419905	-0.000036
C89	C	-0.572253	0.753238	0.333298
C90	C	-0.238919	1.086571	0.666631
C91	C	-0.907111	0.333186	-0.000037
C92	C	-0.573778	0.666519	0.333297
C93	C	-0.240444	0.999853	0.666630
C94	C	-0.983620	0.299766	-0.000048
C95	C	-0.650287	0.633099	0.333285
C96	C	-0.316953	0.966432	0.666619
C97	C	-0.980571	0.473205	-0.000039
C98	C	-0.647238	0.806538	0.333294
C99	C	-0.313904	1.139871	0.666627
C100	C	-0.978918	0.567231	-0.000031
C101	C	-0.645585	0.900564	0.333302
C102	C	-0.312251	1.233897	0.666636
C103	C	-0.985273	0.205734	-0.000055
C104	C	-0.651940	0.539067	0.333279
C105	C	-0.318607	0.872400	0.666612
C106	C	-1.038646	-0.056991	-0.548044
C107	C	-0.705313	0.276342	-0.214711
C108	C	-0.371979	0.609675	0.118623
C109	C	-1.038644	-0.056992	-0.452063
C110	C	-0.705311	0.276341	-0.118729
C111	C	-0.371977	0.609675	0.214604
C112	C	-0.925549	-0.170038	-0.452058
C113	C	-0.592215	0.163296	-0.118725
C114	C	-0.258882	0.496629	0.214609
C115	C	-0.925555	-0.170040	-0.548038
C116	C	-0.592222	0.163293	-0.214704
C117	C	-0.258889	0.496626	0.118629
C118	C	-0.982103	-0.113513	-0.596028
C119	C	-0.648770	0.219821	-0.262695
C120	C	-0.315436	0.553154	0.070639
C121	C	-0.982094	-0.113510	-0.404067
C122	C	-0.648761	0.219823	-0.070734
C123	C	-0.315428	0.553156	0.262599
C124	C	-0.982092	-0.113511	-0.300000
C125	C	-0.648758	0.219822	0.033333
C126	C	-0.315425	0.553156	0.366667
C127	C	-0.982107	-0.113513	-0.700102
C128	C	-0.648774	0.219821	-0.366768
C129	C	-0.315440	0.553154	-0.033435
N130	N	-0.982110	-0.113513	0.216947
N131	N	-0.648777	0.219820	0.550281
N132	N	-0.315444	0.553154	0.883614
H133	H	-0.542730	-0.252317	-0.000035
H134	H	-0.209396	0.081017	0.333298
H135	H	0.123937	0.414350	0.666632
Br136	Br	-1.158837	0.512103	-0.000037
Br137	Br	-0.825503	0.845437	0.333296
Br138	Br	-0.492170	1.178770	0.666629
Br139	Br	-0.848820	-0.246760	-0.613167
Br140	Br	-0.515487	0.086574	-0.279833
Br141	Br	-0.182153	0.419907	0.053500
Br142	Br	-1.162431	0.307705	-0.000065
Br143	Br	-0.829098	0.641038	0.333268
Br144	Br	-0.495765	0.974371	0.666602
H145	H	-0.385413	-0.249550	-0.000043
H146	H	-0.052080	0.083783	0.333290
H147	H	0.281254	0.417117	0.666624
H148	H	-0.578788	0.022530	-0.000058
H149	H	-0.245455	0.355864	0.333275
H150	H	0.087878	0.689197	0.666609
Br151	Br	-0.403314	0.066823	-0.000065
Br152	Br	-0.069980	0.400156	0.333269
Br153	Br	0.263353	0.733490	0.666602
Br154	Br	-0.801758	0.465267	-0.000017
Br155	Br	-0.468424	0.798600	0.333316
Br156	Br	-0.135091	1.131934	0.666649
H157	H	-0.846050	0.289792	-0.000033
H158	H	-0.512717	0.623126	0.333300
H159	H	-0.179384	0.956459	0.666634
H160	H	-1.084691	-0.010964	-0.587116
H161	H	-0.751358	0.322369	-0.253782
H162	H	-0.418025	0.655702	0.079551
Br163	Br	-1.115387	0.019715	-0.386943
Br164	Br	-0.782054	0.353048	-0.053610
Br165	Br	-0.448721	0.686381	0.279724
H166	H	-0.879508	-0.216060	-0.412975
H167	H	-0.546174	0.117273	-0.079641
H168	H	-0.212841	0.450607	0.253692
