data_functionalizedCrystal
_audit_creation_method	'MofGen! by Chris Wilmer'
_symmetry_space_group_name_H-M	'P1'
_symmetry_Int_Tables_number	1
_symmetry_cell_setting	triclinic
loop_
_symmetry_equiv_pos_as_xyz
  x,y,z
_cell_length_a	19.077105
_cell_length_b	14.908520
_cell_length_c	19.077174
_cell_angle_alpha	84.304358
_cell_angle_beta	94.516248
_cell_angle_gamma	91.150228
loop_
_atom_site_label
_atom_site_type_symbol
_atom_site_fract_x
_atom_site_fract_y
_atom_site_fract_z
Zn1	Zn	1.074745	-0.438339	0.460807
Zn2	Zn	1.063678	-0.582887	0.349172
Zn3	Zn	0.952676	-0.425728	0.337659
Zn4	Zn	0.950574	-0.582828	0.462287
O5	O	1.010418	-0.507446	0.402481
O6	O	1.171698	-0.462816	0.450197
O7	O	1.045201	-0.556787	0.248768
O8	O	0.974380	-0.301160	0.348556
O9	O	1.163567	-0.569015	0.368180
O10	O	1.064064	-0.310425	0.439032
O11	O	0.963648	-0.441323	0.240309
O12	O	0.853976	-0.441265	0.349992
O13	O	0.970798	-0.568914	0.560968
O14	O	0.852432	-0.556686	0.441556
O15	O	1.062026	-0.462759	0.559880
O16	O	1.043163	-0.709120	0.369615
O17	O	0.960066	-0.709077	0.452721
C18	C	0.827685	-0.497601	0.394686
C19	C	0.749510	-0.493413	0.391369
C20	C	0.711992	-0.551621	0.437416
C21	C	0.638539	-0.547674	0.434302
C22	C	0.602606	-0.485521	0.385137
C23	C	0.640130	-0.427307	0.339088
C24	C	0.713582	-0.431250	0.342206
C25	C	0.383015	-0.467269	0.370711
C26	C	0.309558	-0.463332	0.367595
C27	C	0.307972	-0.583699	0.462810
C28	C	0.381425	-0.587641	0.465921
C29	C	0.418943	-0.529422	0.419874
N30	N	0.527526	-0.481487	0.381952
N31	N	0.494022	-0.533453	0.423064
C32	C	1.000205	-0.741833	0.412594
C33	C	0.995901	-0.842110	0.416947
C34	C	1.074438	-1.030534	0.338666
C35	C	1.070396	-1.124752	0.342754
C36	C	0.983781	-1.124769	0.429214
C37	C	0.987822	-1.030550	0.425126
C38	C	1.033152	-0.983435	0.379850
C39	C	1.037189	-0.889214	0.375759
C40	C	0.950578	-0.889233	0.462222
C41	C	0.946536	-0.983452	0.466310
C42	C	1.193865	-0.517329	0.410307
C43	C	1.272039	-0.521541	0.413642
C44	C	1.017412	-0.517237	0.586779
C45	C	1.020393	-0.521409	0.665315
C46	C	1.020691	-0.272145	0.392345
C47	C	1.025068	-0.171873	0.388025
C48	C	1.003495	-0.497630	0.218900
C49	C	1.000662	-0.493210	0.140358
C50	C	0.979335	-0.463255	0.697807
C51	C	0.982132	-0.467182	0.771601
C52	C	1.025992	-0.529261	0.812901
C53	C	1.067051	-0.587422	0.780404
C54	C	1.064249	-0.583498	0.706612
C55	C	1.038920	-0.547447	1.034069
C56	C	1.041720	-0.551365	1.107866
C57	C	0.956799	-0.431126	1.099058
C58	C	0.954005	-0.427204	1.025265
C59	C	0.995062	-0.485368	0.992774
N60	N	1.028854	-0.533275	0.888330
N61	N	0.992195	-0.481357	0.917346
H62	H	0.280304	-0.412710	0.327563
H63	H	1.072343	-0.594818	1.007625
O64	O	0.937845	-0.404464	0.806650
H65	H	0.972604	-0.362060	0.839645
H66	H	0.607995	-0.595075	0.471798
O67	O	1.108542	-0.646214	0.671566
H68	H	1.093933	-0.717121	0.688268
O69	O	1.114360	-0.654379	0.824944
H70	H	1.109417	-0.647332	0.881716
H71	H	0.277418	-0.631095	0.500300
O72	O	1.086085	-0.838389	0.326938
H73	H	1.071202	-0.852918	0.271743
O74	O	0.750748	-0.618654	0.490447
H75	H	0.712316	-0.658459	0.521948
H76	H	0.909632	-1.021825	0.503174
H77	H	0.410677	-0.638254	0.505955
O78	O	1.123334	-0.979721	0.289839
H79	H	1.162132	-0.940349	0.321162
O80	O	1.114921	-1.175555	0.298331
H81	H	1.147114	-1.126961	0.266158
O82	O	0.906709	-0.360230	0.980727
H83	H	0.851367	-0.373469	0.993193
O84	O	0.912528	-0.368389	1.134106
H85	H	0.876253	-0.408615	1.167939
O86	O	0.423464	-0.404497	0.321025
H87	H	0.412907	-0.333606	0.329565
O88	O	0.601363	-0.360281	0.286060
H89	H	0.618995	-0.290902	0.295811
H90	H	0.946881	-1.163146	0.466080
O91	O	0.906045	-0.838437	0.506649
H92	H	0.916472	-0.765005	0.496205
O93	O	0.932034	-0.396291	0.653264
H94	H	0.876695	-0.409544	0.665733
O95	O	1.089028	-0.618326	1.152413
H96	H	1.056820	-0.664303	1.186673
O97	O	0.754053	-0.368479	0.292534
H98	H	0.716727	-0.324606	0.257816
