data_functionalizedCrystal
_audit_creation_method	'MofGen! by Chris Wilmer'
_symmetry_space_group_name_H-M	'P1'
_symmetry_Int_Tables_number	1
_symmetry_cell_setting	triclinic
loop_
_symmetry_equiv_pos_as_xyz
  x,y,z
_cell_length_a	12.811457
_cell_length_b	14.519731
_cell_length_c	11.295483
_cell_angle_alpha	94.102025
_cell_angle_beta	91.289320
_cell_angle_gamma	83.867127
loop_
_atom_site_label
_atom_site_type_symbol
_atom_site_fract_x
_atom_site_fract_y
_atom_site_fract_z
O1	O	1.389267	0.127391	0.051003
O2	O	1.086047	0.138855	0.018255
O3	O	1.245684	-0.001040	0.035506
O4	O	1.229630	0.267286	0.033751
O5	O	1.231663	0.011228	0.232042
O6	O	1.072026	0.151123	0.214790
O7	O	1.375246	0.139659	0.247538
Cu8	Cu	1.222356	0.146511	0.249109
Cu9	Cu	1.238937	0.132003	0.016683
O10	O	1.215609	0.279554	0.230286
C11	C	1.040230	0.143971	0.112331
C12	C	0.924599	0.140925	0.099843
C13	C	0.692029	0.148562	0.290664
C14	C	0.583384	0.145700	0.278937
C15	C	0.598660	0.132335	0.064662
C16	C	0.707306	0.135196	0.076389
C17	C	0.753986	0.143311	0.189394
C18	C	0.862633	0.146179	0.201121
C19	C	0.877909	0.132807	-0.013153
C20	C	0.769263	0.129946	-0.024881
C21	C	1.237921	-0.029272	0.133693
C22	C	1.235667	-0.131673	0.133450
C23	C	1.233835	-0.214834	0.133250
C24	C	1.231547	-0.319164	0.132994
C25	C	1.229731	-0.402320	0.132790
C26	C	1.227443	-0.506657	0.132536
C27	C	1.421063	0.134543	0.153459
C28	C	1.536695	0.137588	0.165939
C29	C	1.223372	0.307786	0.132097
C30	C	1.225627	0.410187	0.132332
N31	N	1.210700	0.156715	0.412586
N32	N	1.250601	0.121792	-0.146792
C33	C	1.334501	0.048286	0.675255
C34	C	1.325701	0.056004	0.798967
C35	C	1.184295	0.179864	0.783726
C36	C	1.193095	0.172146	0.660013
C37	C	1.268202	0.106356	0.605782
C38	C	1.277007	0.098643	0.482068
C39	C	1.135596	0.222498	0.466828
C40	C	1.126796	0.230216	0.590541
H41	H	0.731241	0.123334	-0.116886
N42	N	0.941209	0.127418	-0.116600
N43	N	1.013006	0.062652	-0.132930
H44	H	1.057711	0.058842	-0.205989
N45	N	0.520079	0.151060	0.382367
N46	N	0.467219	0.086091	0.400749
H47	H	0.422507	0.089875	0.473800
H48	H	1.123137	0.233423	0.827896
H49	H	1.081614	0.269785	0.410250
N50	N	1.411129	-0.019000	0.619861
N51	N	1.470258	-0.070900	0.681898
H52	H	1.524340	-0.118457	0.642775
H53	H	1.065642	0.283779	0.634710
N54	N	0.910300	0.154487	0.316555
N55	N	0.854962	0.159181	0.406964
H56	H	0.888622	0.165051	0.488494
N57	N	0.739697	0.156885	0.406097
N58	N	0.684362	0.161595	0.496509
H59	H	0.718024	0.167481	0.578036
H60	H	1.338165	0.045076	0.437915
N61	N	1.393411	-0.003328	0.869925
N62	N	1.392791	-0.089448	0.855932
H63	H	1.440613	-0.131358	0.906044
N64	N	0.550952	0.124033	-0.050751
N65	N	0.453947	0.121471	-0.061199
H66	H	0.420251	0.115607	-0.142711
