data_functionalizedCrystal
_audit_creation_method	'MofGen! by Chris Wilmer'
_symmetry_space_group_name_H-M	'P1'
_symmetry_Int_Tables_number	1
_symmetry_cell_setting	triclinic
loop_
_symmetry_equiv_pos_as_xyz
  x,y,z
_cell_length_a	19.121241
_cell_length_b	29.839131
_cell_length_c	29.839104
_cell_angle_alpha	89.861105
_cell_angle_beta	87.483924
_cell_angle_gamma	92.469032
loop_
_atom_site_label
_atom_site_type_symbol
_atom_site_fract_x
_atom_site_fract_y
_atom_site_fract_z
Zn1	Zn	1.074156	-0.149111	-0.283353
Zn2	Zn	1.073931	-0.224378	-0.208207
Zn3	Zn	0.956579	-0.152464	-0.205021
Zn4	Zn	0.956642	-0.227421	-0.280101
O5	O	1.015327	-0.188344	-0.244170
O6	O	1.172418	-0.156419	-0.276079
O7	O	1.058243	-0.214969	-0.144913
O8	O	0.972244	-0.089150	-0.215439
O9	O	1.172252	-0.211717	-0.220869
O10	O	1.058628	-0.086687	-0.272990
O11	O	0.972025	-0.162134	-0.142573
O12	O	0.858295	-0.165084	-0.212286
O13	O	0.972352	-0.216903	-0.343404
O14	O	0.858342	-0.220154	-0.267448
O15	O	1.058689	-0.159369	-0.345793
O16	O	1.058304	-0.287651	-0.217716
O17	O	0.972133	-0.289886	-0.270537
C18	C	0.832833	-0.193313	-0.239168
C19	C	0.754761	-0.195450	-0.237039
C20	C	0.718170	-0.167709	-0.264828
C21	C	0.644813	-0.169714	-0.262823
C22	C	0.608048	-0.199464	-0.233032
C23	C	0.644645	-0.227207	-0.205241
C24	C	0.718000	-0.225198	-0.207243
C25	C	0.386558	-0.206963	-0.225543
C26	C	0.313197	-0.208971	-0.223544
C27	C	0.313370	-0.151477	-0.281126
C28	C	0.386727	-0.149474	-0.283128
C29	C	0.423317	-0.177215	-0.255335
C30	C	0.533066	-0.201516	-0.230984
C31	C	0.498298	-0.175160	-0.257381
C32	C	1.015220	-0.305069	-0.244130
C33	C	1.015238	-0.355003	-0.244129
C34	C	1.060297	-0.663327	-0.274178
C35	C	1.060374	-0.850997	-0.274207
O36	O	1.098579	-0.874143	-0.299724
N37	N	1.015446	-0.875782	-0.244224
C38	C	0.970494	-0.853647	-0.214233
O39	O	0.932277	-0.879034	-0.188734
C40	C	0.970415	-0.665977	-0.214206
C41	C	1.015350	-0.641194	-0.244188
C42	C	1.105228	-0.638544	-0.304158
C43	C	1.105211	-0.591629	-0.304149
C44	C	1.060264	-0.569497	-0.274159
C45	C	1.015333	-0.594279	-0.244179
C46	C	0.925459	-0.643842	-0.184218
C47	C	0.925442	-0.596922	-0.184215
C48	C	0.970377	-0.572139	-0.214197
C49	C	0.970368	-0.525232	-0.214181
N50	N	1.015295	-0.500447	-0.244164
C51	C	1.060243	-0.522579	-0.274153
C52	C	0.970540	-0.952176	-0.214248
C53	C	0.970560	-0.999093	-0.214254
C54	C	1.060439	-0.996441	-0.274229
C55	C	1.060422	-0.949523	-0.274220
C56	C	1.015467	-0.927391	-0.244232
C57	C	1.060205	-0.424055	-0.274131
C58	C	1.060186	-0.377136	-0.274118
C59	C	0.970305	-0.379792	-0.214145
C60	C	0.970326	-0.426707	-0.214157
C61	C	1.015278	-0.448837	-0.244153
O62	O	0.932177	-0.502057	-0.188680
O63	O	1.098443	-0.497184	-0.299655
C64	C	1.060314	-0.710242	-0.274187
C65	C	1.015383	-0.735024	-0.244207
C66	C	0.970436	-0.712892	-0.214218
C67	C	1.015404	-0.781941	-0.244213
C68	C	1.060352	-0.804074	-0.274202
C69	C	1.105279	-0.779289	-0.304185
C70	C	1.105262	-0.732374	-0.304176
C71	C	0.925508	-0.737677	-0.184234
C72	C	0.925530	-0.784591	-0.184246
C73	C	0.970477	-0.806724	-0.214235
C74	C	1.198534	-0.183355	-0.249192
C75	C	1.276606	-0.181229	-0.251332
C76	C	1.015553	-0.188101	-0.361356
C77	C	1.015649	-0.187998	-0.411293
C78	C	1.015454	-0.071162	-0.244222
C79	C	1.015508	-0.021226	-0.244244
C80	C	1.015143	-0.188552	-0.127442
C81	C	1.015183	-0.188525	-0.077509
C82	C	1.060660	-0.215530	0.277864
C83	C	1.060523	-0.215679	0.090195
O84	O	1.098977	-0.238893	0.064905
N85	N	1.015292	-0.188408	0.067933
C86	C	0.970095	-0.161095	0.092590
O87	O	0.931626	-0.137899	0.069348
C88	C	0.970236	-0.160944	0.280258
C89	C	1.015465	-0.188221	0.302519
C90	C	1.105886	-0.242804	0.300125
C91	C	1.105916	-0.242768	0.347039
C92	C	1.060722	-0.215459	0.371693
C93	C	1.015496	-0.188185	0.349433
C94	C	0.925043	-0.133630	0.304915
C95	C	0.925083	-0.133593	0.351834
C96	C	0.970312	-0.160870	0.374095
C97	C	0.970332	-0.160840	0.421002
N98	N	1.015563	-0.188111	0.443264
C99	C	1.060758	-0.215421	0.418610
C100	C	0.970024	-0.161177	-0.005938
C101	C	0.969988	-0.161215	-0.052855
C102	C	1.060417	-0.215799	-0.055247
C103	C	1.060449	-0.215762	-0.008329
C104	C	1.015255	-0.188448	0.016324
C105	C	1.060819	-0.215344	0.517134
C106	C	1.060844	-0.215307	0.564053
C107	C	0.970418	-0.160722	0.566440
C108	C	0.970390	-0.160761	0.519526
C109	C	1.015596	-0.188073	0.494874
O110	O	0.931904	-0.137634	0.446320
O111	O	1.099233	-0.238606	0.441860
C112	C	1.060629	-0.215566	0.230950
C113	C	1.015403	-0.188292	0.208689
C114	C	0.970208	-0.160983	0.233344
C115	C	1.015367	-0.188330	0.161773
C116	C	1.060562	-0.215640	0.137119
C117	C	1.105793	-0.242911	0.159381
C118	C	1.105824	-0.242875	0.206296
C119	C	0.924977	-0.133711	0.211081
C120	C	0.924949	-0.133750	0.164166
C121	C	0.970144	-0.161059	0.139512
H122	H	0.283571	-0.128892	-0.303753
O123	O	0.921680	-0.131266	0.593039
H124	H	0.866622	-0.140728	0.585636
O125	O	0.604993	-0.259291	-0.173106
H126	H	0.619068	-0.294162	-0.181121
H127	H	1.096780	-0.356959	-0.298533
H128	H	0.933711	-0.361765	-0.189727
O129	O	1.109161	-0.245259	-0.081840
H130	H	1.164215	-0.235795	-0.074429
O131	O	0.273540	-0.241056	-0.191408
H132	H	0.311306	-0.260006	-0.172414
H133	H	0.747792	-0.247788	-0.184615
O134	O	0.876169	-0.104324	0.140158
H135	H	0.821125	-0.113768	0.150757
O136	O	1.108692	-0.447921	-0.306481
H137	H	1.139933	-0.422799	-0.327321
O138	O	1.154609	-0.272293	0.230303
H139	H	1.190152	-0.251037	0.250603
O140	O	0.757816	-0.135620	-0.296961
H141	H	0.814973	-0.138885	-0.293689
O142	O	1.153753	-0.803169	-0.336533
H143	H	1.208876	-0.792658	-0.330368
H144	H	0.416341	-0.229553	-0.202913
H145	H	0.933931	-0.934160	-0.189827
H146	H	0.528235	-0.150936	-0.281635
O147	O	1.109637	-0.244722	0.588063
H148	H	1.141065	-0.263711	0.563034
H149	H	1.097631	-0.237583	0.497068
O150	O	0.876986	-0.670562	-0.151881
H151	H	0.908406	-0.691120	-0.129897
O152	O	0.876261	-0.104208	0.280912
H153	H	0.907451	-0.080376	0.258573
H154	H	0.888174	-0.111472	0.231150
O155	O	0.493412	-0.233603	-0.198852
H156	H	0.460020	-0.257364	-0.218004
O157	O	0.876338	-0.104132	0.378426
H158	H	0.844883	-0.085176	0.355061
H159	H	1.142591	-0.265148	0.139300
O160	O	1.153711	-0.662412	-0.336506
H161	H	1.208826	-0.651890	-0.330333
O162	O	0.605349	-0.139791	-0.292795
H163	H	0.571956	-0.160800	-0.314698
H164	H	1.097038	-1.014469	-0.298647
O165	O	0.876960	-0.573050	-0.151865
H166	H	0.845727	-0.598168	-0.131017
H167	H	1.142744	-0.264981	0.365160
H168	H	1.141799	-0.571454	-0.328564
H169	H	1.097011	-0.929347	-0.298635
H170	H	1.097283	-0.237970	0.009792
O171	O	0.921864	-0.453442	-0.181819
H172	H	0.890604	-0.430167	-0.160966
H173	H	0.416656	-0.125250	-0.307388
H174	H	0.933977	-1.019267	-0.189835
O175	O	0.921203	-0.131798	-0.076863
H176	H	0.889791	-0.112799	-0.051833
H177	H	0.933557	-0.138553	0.501401
H178	H	1.142692	-0.265043	0.280056
O179	O	1.153735	-0.705646	-0.336510
H180	H	1.184988	-0.728925	-0.357362
O181	O	0.877060	-0.811320	-0.151907
H182	H	0.845799	-0.788043	-0.131057
H183	H	0.888906	-0.719660	-0.159814
H184	H	0.933219	-0.138934	0.014130
