data_functionalizedCrystal
_audit_creation_method	'MofGen! by Chris Wilmer'
_symmetry_space_group_name_H-M	'P1'
_symmetry_Int_Tables_number	1
_symmetry_cell_setting	triclinic
loop_
_symmetry_equiv_pos_as_xyz
  x,y,z
_cell_length_a	16.974800
_cell_length_b	17.038272
_cell_length_c	15.455313
_cell_angle_alpha	92.858370
_cell_angle_beta	90.973911
_cell_angle_gamma	87.242888
loop_
_atom_site_label
_atom_site_type_symbol
_atom_site_fract_x
_atom_site_fract_y
_atom_site_fract_z
O1	O	1.055757	0.099682	0.002007
O2	O	0.827125	0.111624	-0.014050
O3	O	0.940082	-0.008165	-0.006110
O4	O	0.942800	0.219471	-0.005933
O5	O	0.933621	-0.001344	0.137698
O6	O	0.820664	0.118446	0.129758
O7	O	1.049296	0.106504	0.145815
Cu8	Cu	0.934390	0.113098	0.150917
Cu9	Cu	0.942031	0.105030	-0.019152
O10	O	0.936339	0.226293	0.137875
C11	C	0.794497	0.114456	0.055789
C12	C	0.706899	0.112720	0.049637
C13	C	0.662227	0.115622	0.125139
C14	C	0.579921	0.113979	0.119361
C15	C	0.542286	0.109440	0.038081
C16	C	0.586963	0.106536	-0.037427
C17	C	0.669269	0.108174	-0.031648
C18	C	0.296506	0.104140	0.012392
C19	C	0.214194	0.102505	0.006619
C20	C	0.207157	0.109947	0.163407
C21	C	0.289465	0.111588	0.169178
C22	C	0.334135	0.108680	0.093671
N23	N	0.458155	0.107764	0.032173
N24	N	0.418265	0.110351	0.099580
C25	C	0.934380	-0.033889	0.065620
C26	C	0.927005	-0.120700	0.065102
C27	C	0.994712	-0.170647	0.069858
C28	C	0.987778	-0.252215	0.069363
C29	C	0.913137	-0.283834	0.064118
C30	C	0.845426	-0.233880	0.059359
C31	C	0.852360	-0.152314	0.059848
C32	C	0.888639	-0.529653	0.062385
C33	C	0.881710	-0.611225	0.061899
C34	C	1.024063	-0.629555	0.071902
C35	C	1.030991	-0.547986	0.072396
C36	C	0.963280	-0.498040	0.067632
C37	C	0.906048	-0.367209	0.063614
C38	C	0.970370	-0.414666	0.068129
C39	C	1.081925	0.103672	0.075974
C40	C	1.169523	0.105407	0.082120
C41	C	0.942042	0.252016	0.066143
C42	C	0.949416	0.338827	0.066655
N43	N	0.929021	0.118771	0.270535
N44	N	0.947406	0.099350	-0.138770
C45	C	0.977029	0.067900	0.319304
C46	C	0.972976	0.072198	0.409827
C47	C	0.920920	0.127372	0.451580
C48	C	0.872908	0.178246	0.402805
C49	C	0.876957	0.173944	0.312283
C50	C	0.903442	0.145922	0.721933
C51	C	0.899399	0.150222	0.812461
C52	C	0.999467	0.044172	0.819477
C53	C	1.003514	0.039878	0.728954
C54	C	0.955499	0.090749	0.680186
N55	N	0.916778	0.131768	0.544109
N56	N	0.959637	0.086348	0.587659
H57	H	0.705640	0.105812	-0.093129
H58	H	1.055492	-0.144910	0.074134
H59	H	0.170778	0.112313	0.224880
F60	F	1.032438	0.009178	0.274876
H61	H	0.864348	0.187345	0.682233
F62	F	1.049806	-0.381014	0.073706
F63	F	1.059842	-0.305370	0.074427
F64	F	1.110435	-0.514343	0.077956
F65	F	1.050563	-0.009967	0.871384
F66	F	1.096121	-0.682717	0.076970
H67	H	0.320101	0.115281	0.235365
H68	H	0.830518	0.223168	0.436805
H69	H	0.837863	0.215368	0.272576
H70	H	0.692863	0.119324	0.191326
F71	F	1.058919	-0.018844	0.684519
F72	F	0.843991	0.208951	0.856892
H73	H	0.833504	-0.488996	0.058507
H74	H	0.820925	-0.636965	0.057642
F75	F	0.780298	-0.099156	0.054783
F76	F	0.532381	0.117078	0.199720
F77	F	0.174143	0.097677	-0.079895
H78	H	0.556315	0.102835	-0.103607
H79	H	0.332867	0.101769	-0.049092
H80	H	0.784652	-0.259631	0.055083
F81	F	0.826612	-0.400868	0.058029
H82	H	1.012067	0.030773	0.449534
