data_functionalizedCrystal
_audit_creation_method	'MofGen! by Chris Wilmer'
_symmetry_space_group_name_H-M	'P1'
_symmetry_Int_Tables_number	1
_symmetry_cell_setting	triclinic
loop_
_symmetry_equiv_pos_as_xyz
  x,y,z
_cell_length_a	9.065218
_cell_length_b	11.026607
_cell_length_c	7.540329
_cell_angle_alpha	89.998289
_cell_angle_beta	89.996962
_cell_angle_gamma	96.800951
loop_
_atom_site_label
_atom_site_type_symbol
_atom_site_fract_x
_atom_site_fract_y
_atom_site_fract_z
O1	O	2.004900	0.178453	-0.147482
O2	O	2.504900	0.678453	0.352518
O3	O	1.579265	0.193091	-0.147484
O4	O	2.079265	0.693091	0.352516
O5	O	1.756807	0.008731	-0.147476
O6	O	2.256807	0.508731	0.352524
O7	O	1.827359	0.362813	-0.147489
O8	O	2.327359	0.862813	0.352511
O9	O	1.756792	0.008729	0.147489
O10	O	2.256792	0.508729	0.647489
O11	O	1.579251	0.193088	0.147481
O12	O	2.079251	0.693088	0.647481
O13	O	2.004886	0.178451	0.147483
O14	O	2.504886	0.678451	0.647483
Cu15	Cu	1.792067	0.185769	0.174415
Cu16	Cu	2.292067	0.685769	0.674415
Cu17	Cu	1.792084	0.185772	-0.174415
Cu18	Cu	2.292084	0.685772	0.325585
O19	O	1.827345	0.362810	0.147476
O20	O	2.327345	0.862810	0.647476
C21	C	1.523921	0.191683	-0.000002
C22	C	2.023921	0.691683	0.499998
C23	C	1.359029	0.187476	-0.000002
C24	C	1.859029	0.687476	0.499998
C25	C	1.743784	-0.036624	0.000004
C26	C	2.243784	0.463376	0.500004
C27	C	1.704984	-0.171765	-0.000003
C28	C	2.204984	0.328235	0.499997
C29	C	1.812117	-0.244393	-0.000005
C30	C	2.312117	0.255607	0.499995
C31	C	1.772018	-0.384068	-0.000011
C32	C	2.272018	0.115932	0.499989
C33	C	2.060230	0.179859	-0.000003
C34	C	2.560230	0.679859	0.499997
C35	C	2.225122	0.184065	-0.000014
C36	C	2.725122	0.684065	0.499986
C37	C	1.840368	0.408165	-0.000008
C38	C	2.340368	0.908165	0.499992
C39	C	1.879168	0.543306	-0.000013
C40	C	2.379168	1.043306	0.499987
N41	N	1.792066	0.185767	0.419763
N42	N	2.292066	0.685767	0.919763
N43	N	1.792094	0.185765	-0.419764
N44	N	2.292094	0.685765	0.080236
H45	H	1.650603	-0.425288	-0.000024
H46	H	2.150603	0.074712	0.499976
H47	H	1.933525	-0.203167	0.000007
H48	H	2.433525	0.296833	0.500007
H49	H	2.000584	-0.415476	-0.000146
H50	H	2.500584	0.084524	0.499854
N51	N	1.544160	-0.226356	-0.000021
N52	N	2.044160	0.273644	0.499979
H53	H	1.538311	-0.318397	-0.000027
H54	H	2.038311	0.181603	0.499973
H55	H	1.493294	-0.198539	0.109327
H56	H	1.993294	0.301461	0.609327
