data_functionalizedCrystal
_audit_creation_method	'MofGen! by Chris Wilmer'
_symmetry_space_group_name_H-M	'P1'
_symmetry_Int_Tables_number	1
_symmetry_cell_setting	triclinic
loop_
_symmetry_equiv_pos_as_xyz
  x,y,z
_cell_length_a	10.489746
_cell_length_b	8.965430
_cell_length_c	16.109301
_cell_angle_alpha	89.997898
_cell_angle_beta	95.998609
_cell_angle_gamma	89.994189
loop_
_atom_site_label
_atom_site_type_symbol
_atom_site_fract_x
_atom_site_fract_y
_atom_site_fract_z
O1	O	1.692335	0.123944	-0.117315
O2	O	2.192335	0.623944	0.382685
O3	O	1.320980	0.123970	-0.128321
O4	O	1.820980	0.623970	0.371679
O5	O	1.516859	0.123941	-0.001850
O6	O	2.016859	0.623941	0.498150
O7	O	1.496456	0.123973	-0.243786
O8	O	1.996456	0.623973	0.256214
O9	O	1.516868	-0.124138	-0.001854
O10	O	2.016868	0.375862	0.498146
O11	O	1.320989	-0.124109	-0.128325
O12	O	1.820989	0.375891	0.371675
O13	O	1.692344	-0.124134	-0.117319
O14	O	2.192344	0.375866	0.382681
Cu15	Cu	1.506667	-0.146773	-0.122822
Cu16	Cu	2.006667	0.353227	0.377178
Cu17	Cu	1.506657	0.146609	-0.122818
Cu18	Cu	2.006657	0.646609	0.377182
O19	O	1.496465	-0.124106	-0.243790
O20	O	1.996465	0.375894	0.256210
C21	C	1.273465	-0.000066	-0.127491
C22	C	1.773465	0.499934	0.372509
C23	C	1.131872	-0.000057	-0.125001
C24	C	1.631872	0.499943	0.374999
C25	C	0.980203	-0.000089	-0.043058
C26	C	1.480203	0.499911	0.456942
C27	C	1.057007	-0.122395	-0.084028
C28	C	1.557007	0.377605	0.415972
C29	C	1.056953	0.122191	-0.084043
C30	C	1.556953	0.622191	0.415957
C31	C	0.956391	-0.122502	-0.161577
C32	C	1.456391	0.377498	0.338423
C33	C	0.956332	0.122195	-0.161581
C34	C	1.456332	0.622195	0.338419
C35	C	1.033086	-0.000141	-0.202609
C36	C	1.533086	0.499859	0.297391
N37	N	1.506684	-0.353122	-0.122825
N38	N	2.006684	0.146878	0.377175
C39	C	1.597301	-0.450402	-0.064341
C40	C	2.097301	0.049598	0.435659
C41	C	1.482050	-0.549801	-0.047501
C42	C	1.982050	-0.049801	0.452499
C43	C	1.621891	-0.549851	-0.139611
C44	C	2.121891	-0.049851	0.360389
C45	C	1.391375	-0.450332	-0.105948
C46	C	1.891375	0.049668	0.394052
C47	C	1.531292	-0.450374	-0.198091
C48	C	2.031292	0.049626	0.301909
C49	C	1.415958	-0.549728	-0.181283
C50	C	1.915958	-0.049728	0.318717
C51	C	1.739859	-0.000095	-0.118149
C52	C	2.239859	0.499905	0.381851
C53	C	1.881452	-0.000094	-0.120639
C54	C	2.381452	0.499906	0.379361
C55	C	1.516037	-0.000099	0.029128
C56	C	2.016037	0.499901	0.529128
C57	C	1.513559	-0.000101	0.121438
C58	C	2.013559	0.499899	0.621438
N59	N	1.506650	0.352958	-0.122808
N60	N	2.006650	0.852958	0.377192
C61	C	1.497287	-0.000062	-0.274768
C62	C	1.997287	0.499938	0.225232
C63	C	1.499765	-0.000051	-0.367079
C64	C	1.999765	0.499949	0.132921
C65	C	1.624028	-0.000085	0.343029
C66	C	2.124028	0.499915	0.843029
C67	C	1.621690	-0.000072	0.429763
C68	C	2.121690	0.499928	0.929763
C69	C	1.389287	-0.000062	0.411324
C70	C	1.889287	0.499938	0.911324
C71	C	1.391626	-0.000064	0.324591
C72	C	1.891626	0.499936	0.824591
C73	C	1.509001	-0.000083	0.290446
C74	C	2.009001	0.499917	0.790446
C75	C	1.504323	-0.000069	0.463914
C76	C	2.004323	0.499931	0.963914
C77	C	1.501787	-0.000055	0.557956
C78	C	2.001787	0.499945	1.057956
C79	C	1.511537	-0.000093	0.196398
C80	C	2.011537	0.499907	0.696398
H81	H	0.956461	-0.000221	0.024402
H82	H	1.456461	0.499779	0.524402
H83	H	1.339228	-0.593065	-0.230737
H84	H	1.839228	-0.093065	0.269263
H85	H	1.100868	0.225594	-0.051276
H86	H	1.600868	0.725594	0.448724
H87	H	1.293910	-0.406803	-0.091671
H88	H	1.793910	0.093197	0.408329
F89	F	1.264375	-0.000041	0.447672
F90	F	1.764375	0.499959	0.947672
F91	F	1.697369	-0.393392	0.000336
F92	F	2.197369	0.106608	0.500336
H93	H	1.100963	-0.225808	-0.051279
H94	H	1.600963	0.274192	0.448721
F95	F	1.454804	-0.606876	0.035704
F96	F	1.954804	-0.106876	0.535704
F97	F	1.748948	-0.000103	0.306692
F98	F	2.248948	0.499897	0.806692
F99	F	0.899211	-0.257812	-0.204358
F100	F	1.399211	0.242188	0.295642
H101	H	1.552165	-0.406668	-0.261730
H102	H	2.052165	0.093332	0.238270
H103	H	1.715358	-0.000071	0.472573
H104	H	2.215358	0.499929	0.972573
H105	H	1.297951	-0.000058	0.281776
H106	H	1.797951	0.499942	0.781776
H107	H	1.056582	-0.000200	-0.270119
H108	H	1.556582	0.499800	0.229881
H109	H	0.912353	0.225612	-0.194301
H110	H	1.412353	0.725612	0.305699
F111	F	1.749253	-0.606996	-0.158177
F112	F	2.249253	-0.106996	0.341823
