data_functionalizedCrystal
_audit_creation_method	'MofGen! by Chris Wilmer'
_symmetry_space_group_name_H-M	'P1'
_symmetry_Int_Tables_number	1
_symmetry_cell_setting	triclinic
loop_
_symmetry_equiv_pos_as_xyz
  x,y,z
_cell_length_a	14.044202
_cell_length_b	14.044202
_cell_length_c	13.101050
_cell_angle_alpha	86.338627
_cell_angle_beta	93.662580
_cell_angle_gamma	93.192702
loop_
_atom_site_label
_atom_site_type_symbol
_atom_site_fract_x
_atom_site_fract_y
_atom_site_fract_z
O1	O	-1.281985	-0.225386	-0.085196
O2	O	-0.948652	0.107947	0.248137
O3	O	-0.615319	0.441281	0.581471
O4	O	-1.005313	-0.217070	-0.085208
O5	O	-0.671980	0.116263	0.248125
O6	O	-0.338647	0.449596	0.581458
O7	O	-1.139490	-0.082894	-0.085174
O8	O	-0.806157	0.250440	0.248159
O9	O	-0.472824	0.583773	0.581492
O10	O	-1.147808	-0.359563	-0.085230
O11	O	-0.814475	-0.026230	0.248104
O12	O	-0.481142	0.307104	0.581437
O13	O	-1.129864	-0.092540	0.085253
O14	O	-0.796531	0.240794	0.418586
O15	O	-0.463198	0.574127	0.751920
O16	O	-0.995687	-0.226717	0.085219
O17	O	-0.662354	0.106617	0.418553
O18	O	-0.329021	0.439950	0.751886
O19	O	-1.272359	-0.235032	0.085231
O20	O	-0.939026	0.098301	0.418565
O21	O	-0.605692	0.431635	0.751898
Zn22	Zn	-1.132495	-0.232406	0.112284
Zn23	Zn	-0.799162	0.100927	0.445618
Zn24	Zn	-0.465828	0.434261	0.778951
Zn25	Zn	-1.145178	-0.219697	-0.112261
Zn26	Zn	-0.811844	0.113637	0.221072
Zn27	Zn	-0.478511	0.446970	0.554406
O28	O	-1.138182	-0.369209	0.085198
O29	O	-0.804849	-0.035876	0.418531
O30	O	-0.471516	0.297458	0.751864
C31	C	-0.964878	-0.218257	0.000004
C32	C	-0.631545	0.115077	0.333338
C33	C	-0.298212	0.448410	0.666671
C34	C	-0.858735	-0.207408	0.000001
C35	C	-0.525402	0.125925	0.333334
C36	C	-0.192068	0.459258	0.666668
C37	C	-0.613279	-0.264507	-0.000001
C38	C	-0.279945	0.068827	0.333333
C39	C	0.053388	0.402160	0.666666
C40	C	-0.664401	-0.187591	0.000013
C41	C	-0.331067	0.145742	0.333346
C42	C	0.002266	0.479075	0.666680
C43	C	-0.772538	-0.198620	0.000006
C44	C	-0.439205	0.134713	0.333340
C45	C	-0.105872	0.468047	0.666673
C46	C	-0.505131	-0.253480	0.000006
C47	C	-0.171798	0.079854	0.333339
C48	C	0.161536	0.413187	0.666673
C49	C	-1.131040	-0.052095	0.000044
C50	C	-0.797707	0.281239	0.333377
C51	C	-0.464373	0.614572	0.666711
C52	C	-1.120191	0.054048	0.000058
C53	C	-0.786858	0.387381	0.333392
C54	C	-0.453524	0.720715	0.666725
C55	C	-1.177291	0.299506	0.000035
C56	C	-0.843958	0.632839	0.333368
C57	C	-0.510624	0.966172	0.666701
C58	C	-1.100375	0.248383	0.000035
C59	C	-0.767042	0.581716	0.333369
C60	C	-0.433708	0.915049	0.666702
C61	C	-1.111403	0.140245	0.000048
C62	C	-0.778070	0.473578	0.333381
C63	C	-0.444737	0.806911	0.666715
C64	C	-1.166264	0.407653	0.000022
C65	C	-0.832931	0.740987	0.333355
C66	C	-0.499597	1.074320	0.666688
C67	C	-0.312794	-0.233844	0.000016
C68	C	0.020539	0.099489	0.333349
C69	C	0.353872	0.432823	0.666683
C70	C	-0.418938	-0.244686	0.000011
C71	C	-0.085605	0.088648	0.333345
C72	C	0.247728	0.421981	0.666678
C73	C	-1.146630	0.599991	-0.000009
C74	C	-0.813296	0.933325	0.333324
C75	C	-0.479963	1.266658	0.666657
C76	C	-1.157471	0.493847	0.000011
C77	C	-0.824137	0.827180	0.333345
C78	C	-0.490804	1.160513	0.666678
N79	N	-1.123846	-0.241079	0.265531
N80	N	-0.790513	0.092254	0.598864
N81	N	-0.457180	0.425587	0.932197
C82	C	-1.112080	-0.252889	0.474570
C83	C	-0.778747	0.080444	0.807904
C84	C	-0.445413	0.413778	1.141237
C85	C	-1.165594	-0.199219	0.525459
C86	C	-0.832260	0.134114	0.858793
C87	C	-0.498927	0.467448	1.192126
C88	C	-1.159047	-0.205790	0.641776
C89	C	-0.825714	0.127543	0.975110
C90	C	-0.492380	0.460877	1.308443
C91	C	-1.118626	-0.246319	0.358243
C92	C	-0.785292	0.087014	0.691576
C93	C	-0.451959	0.420347	1.024910
N94	N	-1.153831	-0.211026	0.734493
N95	N	-0.820497	0.122308	1.067826
N96	N	-0.487164	0.455641	1.401159
H97	H	-0.626958	-0.113455	-0.000044
H98	H	-0.293625	0.219878	0.333289
H99	H	0.039709	0.553211	0.666622
H100	H	-0.650723	-0.338633	-0.000018
H101	H	-0.317390	-0.005300	0.333315
H102	H	0.015943	0.328034	0.666648
O103	O	-1.275482	0.249908	0.000049
O104	O	-0.942149	0.583241	0.333382
O105	O	-0.608815	0.916574	0.666715
H106	H	-1.330133	0.304037	0.000041
H107	H	-0.996799	0.637370	0.333374
H108	H	-0.663466	0.970704	0.666707
O109	O	-1.002175	0.297979	0.000042
O110	O	-0.668842	0.631312	0.333376
O111	O	-0.335509	0.964645	0.666709
H112	H	-0.966765	0.280898	-0.069419
H113	H	-0.633432	0.614231	0.263914
H114	H	-0.300099	0.947565	0.597248
O115	O	-1.044897	-0.320304	0.532560
O116	O	-0.711563	0.013029	0.865893
O117	O	-0.378230	0.346363	1.199227
H118	H	-0.992319	-0.278976	0.581466
H119	H	-0.658986	0.054358	0.914800
H120	H	-0.325653	0.387691	1.248133
H121	H	-1.216326	-0.148337	0.481670
H122	H	-0.882993	0.184997	0.815003
H123	H	-0.549659	0.518330	1.148337
