data_functionalizedCrystal
_audit_creation_method	'MofGen! by Chris Wilmer'
_symmetry_space_group_name_H-M	'P1'
_symmetry_Int_Tables_number	1
_symmetry_cell_setting	triclinic
loop_
_symmetry_equiv_pos_as_xyz
  x,y,z
_cell_length_a	17.699083
_cell_length_b	17.699083
_cell_length_c	16.176319
_cell_angle_alpha	89.993830
_cell_angle_beta	90.007566
_cell_angle_gamma	96.716985
loop_
_atom_site_label
_atom_site_type_symbol
_atom_site_fract_x
_atom_site_fract_y
_atom_site_fract_z
O1	O	-0.095713	1.004079	-0.068716
O2	O	-0.108165	0.783701	-0.068725
O3	O	0.008250	0.900116	-0.068713
O4	O	-0.212128	0.887664	-0.068728
O5	O	0.008257	0.900099	0.068781
O6	O	-0.108158	0.783684	0.068768
O7	O	-0.095706	1.004062	0.068777
Cu8	Cu	-0.101932	0.893872	0.081327
Cu9	Cu	-0.101940	0.893892	-0.081274
O10	O	-0.212121	0.887647	0.068765
C11	C	0.036451	0.899662	0.000034
C12	C	0.120469	0.898323	0.000034
C13	C	-0.107716	0.755495	0.000021
C14	C	-0.106377	0.671477	0.000018
C15	C	-0.240322	0.888102	0.000017
C16	C	-0.324340	0.889440	0.000011
C17	C	-0.096156	1.032268	0.000030
C18	C	-0.097494	1.116286	0.000028
C19	C	0.169090	0.966656	0.000038
C20	C	0.248033	0.965394	0.000031
C21	C	0.278354	0.895798	0.000025
C22	C	0.229727	0.827459	0.000019
C23	C	0.150785	0.828722	0.000020
C24	C	0.548090	0.822364	0.000012
C25	C	0.627038	0.821106	0.000013
C26	C	0.645338	0.959036	0.000023
C27	C	0.566396	0.960299	0.000024
C28	C	0.517776	0.891961	0.000013
C29	C	0.432177	0.893330	0.000020
C30	C	0.363951	0.894427	0.000025
N31	N	-0.101925	0.893863	0.195692
C32	C	-0.029161	1.164907	0.000030
C33	C	-0.030423	1.243850	0.000032
C34	C	-0.100020	1.274171	0.000027
C35	C	-0.168358	1.225544	0.000028
C36	C	-0.167095	1.146602	0.000031
C37	C	-0.173453	1.543907	0.000016
C38	C	-0.174711	1.622855	0.000010
C39	C	-0.036781	1.641155	0.000017
C40	C	-0.035518	1.562213	0.000020
C41	C	-0.103857	1.513593	0.000025
C42	C	-0.102487	1.427994	0.000024
C43	C	-0.101390	1.359769	0.000023
C44	C	-0.050398	0.945427	0.238962
C45	C	-0.050397	0.945430	0.325509
C46	C	-0.101928	0.893872	0.368785
C47	C	-0.153458	0.842303	0.325509
C48	C	-0.153455	0.842297	0.238964
C49	C	-0.153474	0.842326	0.674538
C50	C	-0.153475	0.842338	0.761089
C51	C	-0.050416	0.945460	0.761083
C52	C	-0.050412	0.945453	0.674537
C53	C	-0.101939	0.893882	0.631269
C54	C	-0.101938	0.893878	0.537425
C55	C	-0.101934	0.893879	0.462628
N56	N	-0.101943	0.893899	0.804360
H57	H	0.287618	1.021038	0.000036
H58	H	0.144409	1.023330	0.000048
H59	H	-0.008438	0.987414	0.203732
H60	H	0.651721	0.764429	0.000010
H61	H	-0.195414	0.800320	0.360750
C62	C	0.203702	0.691244	-0.000002
C63	C	0.263052	0.750956	0.000007
H64	H	0.224276	0.644013	-0.000014
H65	H	0.173300	0.694596	0.047943
H66	H	0.173286	0.694620	-0.047951
H67	H	0.293465	0.747582	0.047960
H68	H	0.293467	0.747602	-0.047943
H69	H	0.684934	1.014680	0.000027
C70	C	-0.284556	0.797641	0.647895
C71	C	-0.210121	0.785646	0.626988
H72	H	-0.319530	0.762650	0.618534
H73	H	-0.291922	0.790271	0.705626
H74	H	-0.292701	0.848136	0.633689
H75	H	-0.201975	0.735152	0.641200
H76	H	-0.202752	0.793010	0.569245
H77	H	0.541714	1.016971	0.000032
H78	H	0.027513	1.140226	0.000029
H79	H	-0.008439	0.987417	0.360739
H80	H	-0.008457	0.987450	0.796321
C81	C	-0.198069	0.711231	0.787771
C82	C	-0.210115	0.785656	0.808663
H83	H	-0.233031	0.676241	0.817146
H84	H	-0.205447	0.703846	0.730043
H85	H	-0.147560	0.703127	0.801968
H86	H	-0.260622	0.793761	0.794459
H87	H	-0.202743	0.793043	0.866403
H88	H	0.508512	0.766718	0.000004
H89	H	-0.008453	0.987439	0.639305
C90	C	0.051385	0.750133	-0.070667
C91	C	0.097337	0.753608	0.000016
H92	H	0.018393	0.703757	-0.070673
H93	H	0.022034	0.791758	-0.070657
H94	H	0.082566	0.752516	-0.118607
H95	H	0.066156	0.751231	0.047956
H96	H	0.126691	0.711972	0.000014
C97	C	-0.286310	1.234246	0.070704
C98	C	-0.244861	1.258870	0.000024
H99	H	-0.333538	1.254823	0.070701
H100	H	-0.295335	1.180279	0.070701
H101	H	-0.258169	1.250949	0.118646
H102	H	-0.273000	1.242162	-0.047918
H103	H	-0.235839	1.312848	0.000020
H104	H	0.021154	1.537531	0.000020
C105	C	-0.255334	0.740369	0.247658
C106	C	-0.210099	0.785620	0.191399
H107	H	-0.290306	0.705381	0.218292
H108	H	-0.223865	0.713209	0.281424
H109	H	-0.282520	0.771832	0.281403
H110	H	-0.182909	0.754157	0.157657
H111	H	-0.241573	0.812782	0.157618
C112	C	0.106044	1.254010	0.000030
C113	C	0.044691	1.297295	0.000032
H114	H	0.152418	1.287006	0.000026
H115	H	0.103672	1.222836	0.047973
H116	H	0.103657	1.222842	-0.047922
H117	H	0.047075	1.328459	0.047986
H118	H	0.047065	1.328482	-0.047916
H119	H	0.018863	1.680751	0.000016
C120	C	-0.310935	1.596839	0.000024
C121	C	-0.251218	1.656185	0.000014
H122	H	-0.358162	1.617418	0.000031
H123	H	-0.307584	1.566432	-0.047918
H124	H	-0.307562	1.566427	0.047977
H125	H	-0.254587	1.686593	-0.047942
H126	H	-0.254569	1.686604	0.047961
C127	C	-0.284276	1.106691	-0.070661
C128	C	-0.242208	1.093152	0.000024
H129	H	-0.330646	1.073690	-0.070664
H130	H	-0.294988	1.158038	-0.070659
H131	H	-0.255726	1.097515	-0.118600
H132	H	-0.270756	1.102335	0.047962
H133	H	-0.231498	1.041793	0.000028
H134	H	-0.229099	1.504329	0.000016
