data_functionalizedCrystal
_audit_creation_method	'MofGen! by Chris Wilmer'
_symmetry_space_group_name_H-M	'P1'
_symmetry_Int_Tables_number	1
_symmetry_cell_setting	triclinic
loop_
_symmetry_equiv_pos_as_xyz
  x,y,z
_cell_length_a	17.038272
_cell_length_b	17.038272
_cell_length_c	13.330367
_cell_angle_alpha	89.995338
_cell_angle_beta	89.998118
_cell_angle_gamma	91.111556
loop_
_atom_site_label
_atom_site_type_symbol
_atom_site_fract_x
_atom_site_fract_y
_atom_site_fract_z
O1	O	1.048758	0.170536	-0.083299
O2	O	1.548758	0.670536	0.416701
O3	O	0.820947	0.167829	-0.083328
O4	O	1.320947	0.667829	0.416672
O5	O	0.933498	0.055277	-0.083306
O6	O	1.433498	0.555277	0.416694
O7	O	0.936206	0.283088	-0.083321
O8	O	1.436206	0.783088	0.416679
O9	O	0.933481	0.055273	0.083541
O10	O	1.433481	0.555273	0.583541
O11	O	0.820929	0.167825	0.083519
O12	O	1.320929	0.667825	0.583519
O13	O	1.048740	0.170533	0.083548
O14	O	1.548740	0.670533	0.583548
Cu15	Cu	0.934833	0.169178	0.098768
Cu16	Cu	1.434833	0.669178	0.598768
Cu17	Cu	0.934854	0.169183	-0.098548
Cu18	Cu	1.434854	0.669183	0.401452
O19	O	0.936189	0.283084	0.083526
O20	O	1.436189	0.783084	0.583526
C21	C	0.791645	0.165364	0.000091
C22	C	1.291645	0.665364	0.500091
C23	C	0.704361	0.158016	0.000080
C24	C	1.204361	0.658016	0.500080
C25	C	0.931027	0.025982	0.000117
C26	C	1.431027	0.525982	0.500117
C27	C	0.923679	-0.061301	0.000116
C28	C	1.423679	0.438699	0.500116
C29	C	0.991142	-0.106911	0.000126
C30	C	1.491142	0.393089	0.500126
C31	C	0.984233	-0.188923	0.000115
C32	C	1.484233	0.311077	0.500115
C33	C	0.909860	-0.225324	0.000102
C34	C	1.409860	0.274676	0.500102
C35	C	0.842391	-0.179708	0.000090
C36	C	1.342391	0.320292	0.500090
C37	C	0.849301	-0.097698	0.000093
C38	C	1.349301	0.402302	0.500093
C39	C	0.885449	-0.472712	0.000085
C40	C	1.385449	0.027288	0.500085
C41	C	0.878545	-0.554728	0.000085
C42	C	1.378545	-0.054728	0.500085
C43	C	1.020387	-0.563937	0.000109
C44	C	1.520387	-0.063937	0.500109
C45	C	1.027291	-0.481924	0.000118
C46	C	1.527291	0.018076	0.500118
C47	C	0.959822	-0.436316	0.000100
C48	C	1.459822	0.063684	0.500100
C49	C	0.902796	-0.309153	0.000095
C50	C	1.402796	0.190847	0.500095
C51	C	0.966886	-0.352488	0.000101
C52	C	1.466886	0.147512	0.500101
C53	C	0.658752	0.225479	0.000077
C54	C	1.158752	0.725479	0.500077
C55	C	0.576740	0.218570	0.000091
C56	C	1.076740	0.718570	0.500091
C57	C	0.540339	0.144197	0.000102
C58	C	1.040339	0.644197	0.500102
C59	C	0.585954	0.076728	0.000109
C60	C	1.085954	0.576728	0.500109
C61	C	0.667965	0.083638	0.000102
C62	C	1.167965	0.583638	0.500102
C63	C	0.292951	0.119787	0.000130
C64	C	0.792951	0.619787	0.500130
C65	C	0.210935	0.112882	0.000134
C66	C	0.710935	0.612882	0.500134
C67	C	0.201726	0.254725	0.000119
C68	C	0.701726	0.754725	0.500119
C69	C	0.283739	0.261628	0.000105
C70	C	0.783739	0.761628	0.500105
C71	C	0.329347	0.194159	0.000118
C72	C	0.829347	0.694159	0.500118
C73	C	0.456510	0.137133	0.000113
C74	C	0.956510	0.637133	0.500113
C75	C	0.413174	0.201224	0.000113
C76	C	0.913174	0.701224	0.500113
C77	C	1.078042	0.172997	0.000126
C78	C	1.578042	0.672997	0.500126
C79	C	1.165326	0.180346	0.000131
C80	C	1.665326	0.680346	0.500131
C81	C	0.938660	0.312379	0.000100
C82	C	1.438660	0.812379	0.500100
C83	C	0.946008	0.399663	0.000095
C84	C	1.446008	0.899663	0.500095
N85	N	0.934824	0.169175	0.237549
N86	N	1.434824	0.669175	0.737549
N87	N	0.934869	0.169180	-0.237330
N88	N	1.434869	0.669180	0.262670
C89	C	0.885012	0.219000	0.710162
C90	C	1.385012	0.719000	1.210162
C91	C	0.984716	0.119361	0.710150
C92	C	1.484716	0.619361	1.210150
C93	C	0.984707	0.119358	0.605132
C94	C	1.484707	0.619358	1.105132
C95	C	0.934851	0.169178	0.552624
C96	C	1.434851	0.669178	1.052624
C97	C	0.885003	0.219000	0.605134
C98	C	1.385003	0.719000	1.105134
C99	C	1.034559	0.069543	0.552614
C100	C	1.534559	0.569543	1.052614
C101	C	1.034553	0.069538	0.447589
C102	C	1.534553	0.569538	0.947589
C103	C	0.984692	0.119354	0.395079
C104	C	1.484692	0.619354	0.895079
C105	C	0.934842	0.169178	0.447596
C106	C	1.434842	0.669178	0.947596
C107	C	0.884985	0.218997	0.395088
C108	C	1.384985	0.718997	0.895088
C109	C	0.835131	0.268817	0.447603
C110	C	1.335131	0.768817	0.947603
C111	C	0.835142	0.268816	0.552624
C112	C	1.335142	0.768816	1.052624
C113	C	0.984680	0.119356	0.290057
C114	C	1.484680	0.619356	0.790057
C115	C	0.884977	0.218997	0.290060
C116	C	1.384977	0.718997	0.790060
H117	H	1.051705	-0.077279	0.000143
H118	H	1.551705	0.422721	0.500143
Br119	Br	0.708145	0.326419	0.000051
Br120	Br	1.208145	0.826419	0.500051
H121	H	1.075146	0.028972	0.404838
H122	H	1.575146	0.528972	0.904838
Br123	Br	0.817304	0.286606	0.218807
Br124	Br	1.317304	0.786606	0.718807
Br125	Br	0.139826	0.346284	0.000103
Br126	Br	0.639826	0.846284	0.500103
Br127	Br	0.757739	-0.035798	0.000072
Br128	Br	1.257739	0.464202	0.500072
H129	H	0.181300	0.052315	0.000142
H130	H	0.681300	0.552315	0.500142
Br131	Br	0.767489	0.336425	0.623896
Br132	Br	1.267489	0.836425	1.123896
Br133	Br	1.052384	0.051759	0.781407
Br134	Br	1.552384	0.551759	1.281407
Br135	Br	0.767479	0.336435	0.376331
Br136	Br	1.267479	0.836435	0.876331
Br137	Br	1.067819	-0.303086	0.000109
Br138	Br	1.567819	0.196914	0.500109
H139	H	0.844419	0.259561	0.752923
H140	H	1.344419	0.759561	1.252923
H141	H	1.025275	0.078797	0.247305
H142	H	1.525275	0.578797	0.747305
Br143	Br	0.777603	-0.604129	0.000078
Br144	Br	1.277603	-0.104129	0.500078
Br145	Br	0.793884	-0.410825	0.000055
Br146	Br	1.293884	0.089175	0.500055
Br147	Br	1.128229	-0.432528	0.000104
Br148	Br	1.628229	0.067472	0.500104
H149	H	0.556310	0.016172	0.000132
H150	H	1.056310	0.516172	0.500132
H151	H	1.039170	-0.226054	0.000126
H152	H	1.539170	0.273946	0.500126
Br153	Br	0.354838	0.028221	0.000149
Br154	Br	0.854838	0.528221	0.500149
Br155	Br	0.741455	-0.229109	0.000055
Br156	Br	1.241455	0.270891	0.500055
Br157	Br	0.514844	0.310133	0.000082
Br158	Br	1.014844	0.810133	0.500082
Br159	Br	0.333134	0.362567	0.000079
Br160	Br	0.833134	0.862567	0.500079
H161	H	0.442816	0.261778	0.000110
H162	H	0.942816	0.761778	0.500110
Br163	Br	1.102228	0.001940	0.623870
Br164	Br	1.602228	0.501940	1.123870
H165	H	0.426863	0.076578	0.000151
H166	H	0.926863	0.576578	0.500151
H167	H	0.842241	-0.338800	0.000087
H168	H	1.342241	0.161200	0.500087
H169	H	1.075316	-0.601079	0.000122
H170	H	1.575316	-0.101079	0.500122
H171	H	0.705099	0.028702	0.000104
H172	H	1.205099	0.528702	0.500104
