data_functionalizedCrystal
_audit_creation_method	'MofGen! by Chris Wilmer'
_symmetry_space_group_name_H-M	'P1'
_symmetry_Int_Tables_number	1
_symmetry_cell_setting	triclinic
loop_
_symmetry_equiv_pos_as_xyz
  x,y,z
_cell_length_a	19.376995
_cell_length_b	20.875621
_cell_length_c	20.875641
_cell_angle_alpha	87.033849
_cell_angle_beta	74.265670
_cell_angle_gamma	47.460923
loop_
_atom_site_label
_atom_site_type_symbol
_atom_site_fract_x
_atom_site_fract_y
_atom_site_fract_z
Zr1	Zr	0.781724	0.488679	0.018389
O2	O	0.924728	0.365298	-0.051535
O3	O	0.633340	0.544339	0.022341
O4	O	0.773410	0.525182	-0.083554
O5	O	0.793092	0.379275	0.157781
O6	O	0.772973	0.631010	-0.088923
O7	O	0.784658	0.384455	0.054360
O8	O	0.522413	0.665278	0.100504
O9	O	1.043652	0.345008	-0.031646
O10	O	0.696039	0.625505	0.041143
O11	O	0.702660	0.542661	0.122332
O12	O	0.867575	0.520106	-0.002346
O13	O	0.874196	0.437262	0.078842
Zr14	Zr	0.794479	0.649201	0.174771
Zr15	Zr	0.781027	0.657462	0.009827
Zr16	Zr	0.795176	0.480417	0.183334
Zr17	Zr	0.971395	0.456317	0.050110
Zr18	Zr	0.604808	0.681563	0.143051
O19	O	0.942863	0.593541	0.170820
O20	O	0.923736	0.605287	-0.063709
O21	O	0.943855	0.353552	0.182995
O22	O	0.651475	0.772581	0.244696
O23	O	0.632348	0.784328	0.010166
O24	O	0.652467	0.532592	0.256870
O25	O	0.783111	0.758604	0.035380
O26	O	0.802793	0.612697	0.276715
O27	O	0.803230	0.506869	0.282084
O28	O	0.791546	0.753424	0.138801
O29	O	1.043098	0.479168	-0.038452
O30	O	0.533105	0.658711	0.231612
O31	O	0.532551	0.792872	0.224806
O32	O	0.521858	0.799439	0.093698
O33	O	1.054345	0.338441	0.099463
O34	O	1.053790	0.472601	0.092657
O35	O	0.708628	0.617773	0.195507
O36	O	0.702007	0.700617	0.114318
O37	O	0.873543	0.595219	0.070829
O38	O	0.880164	0.512375	0.152018
C39	C	0.550852	0.609419	0.056903
C40	C	0.470332	0.623158	0.043436
C41	C	0.353385	0.685763	-0.017920
C42	C	0.429046	0.672848	-0.005261
C43	C	0.435963	0.586366	0.079498
C44	C	0.360297	0.599277	0.066849
C45	C	0.319014	0.648975	0.018139
C46	C	0.325926	0.562489	0.102908
C47	C	0.250271	0.575395	0.090257
C48	C	0.208985	0.625089	0.041548
C49	C	0.243359	0.661882	0.005488
C50	C	0.367215	0.512786	0.151614
C51	C	0.332845	0.475998	0.187673
C52	C	0.257183	0.488909	0.175026
C53	C	0.215897	0.538603	0.126317
C54	C	0.222809	0.452117	0.211085
C55	C	0.147153	0.465023	0.198435
C56	C	0.140241	0.551509	0.113666
C57	C	0.788974	0.357817	0.107291
C58	C	0.789270	0.286164	0.110926
C59	C	0.784766	0.255354	0.055657
C60	C	0.785039	0.188031	0.059075
C61	C	0.789824	0.151516	0.117761
C62	C	0.794326	0.182332	0.173035
C63	C	0.794046	0.249658	0.169618
C64	C	0.791154	-0.050142	0.134092
C65	C	0.791438	-0.117475	0.137504
C66	C	0.782148	-0.111769	0.023545
C67	C	0.781874	-0.044446	0.020131
C68	C	0.786371	-0.013632	0.075406
N69	N	0.790107	0.082699	0.121255
N70	N	0.786081	0.055187	0.071913
C71	C	1.025351	0.528460	0.136258
C72	C	1.105871	0.514722	0.149724
C73	C	0.771275	0.579273	-0.109740
C74	C	0.765564	0.582781	-0.179763
C75	C	0.787229	0.780062	0.085870
C76	C	0.786933	0.851716	0.082235
C77	C	0.852419	0.529413	-0.235361
C78	C	0.847047	0.532719	-0.301154
C79	C	0.754820	0.589389	-0.311347
C80	C	0.667959	0.642763	-0.255743
C81	C	0.673331	0.639460	-0.189951
C82	C	0.729150	0.605170	-0.505680
C83	C	0.723784	0.608467	-0.571478
C84	C	0.902873	0.498424	-0.616885
C85	C	0.908238	0.495123	-0.551090
C86	C	0.821377	0.548499	-0.495492
N87	N	0.749327	0.592768	-0.378598
N88	N	0.826871	0.545124	-0.428243
C89	C	0.804928	0.558606	0.302901
C90	C	0.810639	0.555099	0.372924
C91	C	0.549980	0.820542	0.046192
C92	C	0.469163	0.905933	0.029091
C93	C	0.567679	0.599086	0.263223
C94	C	0.492869	0.609317	0.319780
C95	C	0.566806	0.810208	0.252513
C96	C	0.491700	0.892093	0.305434
C97	C	1.009397	0.327671	-0.059352
C98	C	1.084503	0.245787	-0.112274
C99	C	1.026223	0.317338	0.146968
C100	C	1.107040	0.231946	0.164070
C101	C	1.008524	0.538794	-0.070062
C102	C	1.083334	0.528563	-0.126619
C103	C	0.428095	0.906827	-0.017143
C104	C	0.352169	0.987053	-0.033225
C105	C	0.317307	1.066387	-0.003068
C106	C	0.358383	1.065491	0.043169
C107	C	0.434313	0.985264	0.059246
C108	C	0.460854	0.653329	0.384543
C109	C	0.390573	0.662938	0.437692
C110	C	0.352305	0.628538	0.426076
C111	C	0.384327	0.584520	0.361306
C112	C	0.454611	0.574907	0.308160
C113	C	0.452974	0.973797	0.287907
C114	C	0.382414	1.050741	0.337628
C115	C	0.350577	1.045980	0.404875
C116	C	0.389311	0.964266	0.422402
C117	C	0.459875	0.887323	0.372683
C118	C	1.123238	0.164081	-0.094745
C119	C	1.193822	0.087133	-0.144462
C120	C	1.225663	0.091894	-0.211708
C121	C	1.186924	0.173608	-0.229236
C122	C	1.116347	0.250553	-0.179519
C123	C	1.148115	0.231052	0.210299
C124	C	1.224061	0.150822	0.226366
C125	C	1.258925	0.071489	0.196207
C126	C	1.217846	0.072385	0.149972
C127	C	1.141906	0.152613	0.133902
C128	C	1.121581	0.562973	-0.114982
C129	C	1.191863	0.553376	-0.168120
C130	C	1.223902	0.509364	-0.232892
C131	C	1.185647	0.474953	-0.244528
C132	C	1.115362	0.484556	-0.191393
H133	H	0.366469	0.435531	0.227330
Cl134	Cl	0.263945	0.640633	0.492897
Cl135	Cl	0.349275	0.958295	0.506944
Cl136	Cl	0.333730	1.153456	0.315579
H137	H	1.223002	0.581397	-0.158632
Cl138	Cl	0.485926	0.984158	0.117378
H139	H	1.283131	0.029233	-0.252185
H140	H	1.212858	0.177474	-0.283994
H141	H	0.147386	0.635592	0.031246
Cl142	Cl	0.508545	0.784613	0.394728
Cl143	Cl	1.067652	0.353267	-0.201568
Cl144	Cl	0.968369	0.458166	-0.222556
Cl145	Cl	1.083224	0.158072	-0.010211
H146	H	0.456478	0.842236	-0.041712
Cl147	Cl	0.261865	1.142718	0.467372
Cl148	Cl	0.300542	0.988160	-0.091349
H149	H	0.256439	0.411646	0.250740
H150	H	1.225351	0.020606	-0.130178
Cl151	Cl	0.797456	-0.163378	0.211287
H152	H	1.119735	0.295642	0.234865
H153	H	0.917774	0.489264	-0.346422
H154	H	0.492005	0.681343	0.394014
H155	H	1.257495	0.150110	0.264015
H156	H	0.119171	0.435065	0.227796
Cl157	Cl	0.350328	0.718281	0.519109
H158	H	1.320760	0.006168	0.209298
H159	H	0.480668	0.539071	0.255427
H160	H	1.246244	0.007780	0.125420
Cl161	Cl	0.775860	0.001459	-0.053646
H162	H	0.780875	0.285077	0.007867
H163	H	1.108465	0.153329	0.096261
H164	H	0.794819	-0.025061	0.179098
H165	H	0.781370	0.162947	0.014071
H166	H	1.095506	0.598811	-0.062245
H167	H	0.798216	0.152600	0.220820
Cl168	Cl	1.024186	0.423841	-0.538280
H169	H	0.778486	-0.136863	-0.021457
Cl170	Cl	1.312266	0.497296	-0.299684
Cl171	Cl	1.225945	0.419615	-0.325959
H172	H	0.973591	0.454968	-0.662160
H173	H	1.084229	0.456530	-0.200876
Cl174	Cl	0.492989	0.979805	0.203374
H175	H	0.106620	0.591987	0.074006
H176	H	0.602605	0.682918	-0.144682
H177	H	0.209737	0.702359	-0.034172
H178	H	0.319764	0.726240	-0.057580
H179	H	0.457027	0.702808	-0.034629
Cl180	Cl	0.799704	0.288393	0.239103
H181	H	0.469587	0.545899	0.119156
H182	H	0.648677	0.654614	-0.579771
H183	H	0.428822	0.502275	0.161910
H184	H	0.353158	0.556514	0.351858
H185	H	0.658422	0.648634	-0.460418
Cl186	Cl	0.552015	0.714007	-0.268557
Cl187	Cl	0.314542	1.165233	0.081078
Cl188	Cl	0.221849	1.167237	-0.023286
