data_functionalizedCrystal
_audit_creation_method	'MofGen! by Chris Wilmer'
_symmetry_space_group_name_H-M	'P1'
_symmetry_Int_Tables_number	1
_symmetry_cell_setting	triclinic
loop_
_symmetry_equiv_pos_as_xyz
  x,y,z
_cell_length_a	6.817900
_cell_length_b	12.840933
_cell_length_c	19.551818
_cell_angle_alpha	81.670728
_cell_angle_beta	77.507417
_cell_angle_gamma	88.345099
loop_
_atom_site_label
_atom_site_type_symbol
_atom_site_fract_x
_atom_site_fract_y
_atom_site_fract_z
V1	V	-3.890587	0.281204	0.098325
O2	O	-3.888542	0.320380	-0.003031
O3	O	-3.835485	0.236454	0.193333
O4	O	-3.786240	0.423385	0.097556
O5	O	-3.938128	0.132155	0.093409
V6	V	-4.382332	0.268579	0.086114
O7	O	-4.133808	0.308897	0.125111
O8	O	-4.589308	0.240885	0.059328
O9	O	-4.214227	0.313328	-0.008894
O10	O	-4.501774	0.229403	0.187470
O11	O	-4.452187	0.417628	0.091030
O12	O	-4.263473	0.126397	0.086883
C13	C	-3.680666	0.220967	0.216471
C14	C	-3.716528	0.185327	0.294146
C15	C	-3.913161	0.172195	0.334213
C16	C	-3.946885	0.138722	0.407199
C17	C	-3.783974	0.118374	0.440117
C18	C	-3.587325	0.131512	0.400045
C19	C	-3.553604	0.164991	0.327061
C20	C	-3.617861	0.459416	0.094294
C21	C	-3.613707	0.577548	0.094293
C22	C	-4.095194	0.090361	0.090144
C23	C	-4.078197	-0.027771	0.090143
V24	V	-3.873535	0.767366	0.098330
O25	O	-3.910458	0.920772	0.093413
O26	O	-3.779335	0.620526	0.097561
O27	O	-3.816894	0.766245	0.193337
O28	O	-3.872638	0.774045	-0.003026
V29	V	-4.363334	0.810275	0.086123
O30	O	-4.118694	0.739849	0.125118
O31	O	-4.567578	0.860476	0.059338
O32	O	-4.234721	0.945867	0.086890
O33	O	-4.443601	0.662783	0.091041
O34	O	-4.481420	0.809511	0.187479
O35	O	-4.197161	0.800149	-0.008886
C36	C	-4.032389	0.328811	-0.032028
C37	C	-3.975763	0.364458	-0.109703
C38	C	-3.661626	0.763425	0.216469
C39	C	-3.696153	0.765650	0.294143
C40	C	-4.016364	0.786003	-0.032025
C41	C	-3.961113	0.782742	-0.109700
C42	C	-3.892133	0.770528	0.334218
C43	C	-3.924574	0.772628	0.407200
C44	C	-3.761026	0.769829	0.440107
C45	C	-3.565018	0.764956	0.400022
C46	C	-3.532582	0.762866	0.327041
C47	C	-3.679987	0.708929	0.559710
C48	C	-3.712431	0.711011	0.632691
C49	C	-3.861063	0.776277	0.665206
C50	C	-3.977282	0.839447	0.624732
C51	C	-3.944846	0.837357	0.551751
C52	C	-3.796178	0.772094	0.519242
C53	C	-4.092231	0.783434	0.784415
C54	C	-4.124665	0.785540	0.857398
C55	C	-3.765105	0.777857	0.850220
C56	C	-3.732676	0.775761	0.777238
C57	C	-3.896247	0.778545	0.744341
C58	C	-4.124116	0.377592	-0.149769
C59	C	-4.070933	0.411070	-0.222754
C60	C	-3.869397	0.431420	-0.255672
C61	C	-3.721033	0.418280	-0.215601
C62	C	-3.774215	0.384795	-0.142617
H63	H	-4.107018	0.128028	0.439815
C64	C	-3.408140	0.109107	0.436264
N65	N	-3.273180	0.092220	0.463545
H66	H	-3.653398	0.374113	-0.110000
C67	C	-3.821103	0.081539	0.520402
N68	N	-3.849080	0.053791	0.580872
H69	H	-3.393482	0.175675	0.294443
C70	C	-4.340268	0.790910	0.901480
N71	N	-4.502664	0.794953	0.934683
H72	H	-3.826120	0.458684	-0.315100
C73	C	-4.072066	0.773628	0.298031
N74	N	-4.207592	0.775976	0.270772
H75	H	-4.288228	0.361029	-0.122977
H76	H	-3.372989	0.758895	0.294412
H77	H	-4.084169	0.776600	0.439834
H78	H	-3.573090	0.771782	0.744610
H79	H	-4.098353	0.892567	0.651208
H80	H	-4.191765	0.421765	-0.255370
C81	C	-4.072658	0.906857	0.507231
N82	N	-4.168917	0.959213	0.473698
H83	H	-4.225421	0.785701	0.757629
C84	C	-3.499346	0.440668	-0.251822
N85	N	-3.332372	0.457537	-0.279105
C86	C	-3.584585	0.641524	0.677204
N87	N	-3.488284	0.589185	0.710730
H88	H	-3.631939	0.775584	0.877012
C89	C	-3.516479	0.637124	0.523952
N90	N	-3.393331	0.583042	0.497020
C91	C	-4.092398	0.194578	0.298018
N92	N	-4.227413	0.211442	0.270762
H93	H	-3.431858	0.762679	0.426819
