data_functionalizedCrystal
_audit_creation_method	'MofGen! by Chris Wilmer'
_symmetry_space_group_name_H-M	'P1'
_symmetry_Int_Tables_number	1
_symmetry_cell_setting	triclinic
loop_
_symmetry_equiv_pos_as_xyz
  x,y,z
_cell_length_a	10.654550
_cell_length_b	14.853567
_cell_length_c	9.130313
_cell_angle_alpha	89.999276
_cell_angle_beta	89.999724
_cell_angle_gamma	84.059930
loop_
_atom_site_label
_atom_site_type_symbol
_atom_site_fract_x
_atom_site_fract_y
_atom_site_fract_z
O1	O	1.666524	0.126626	-0.121676
O2	O	1.300920	0.138690	-0.121702
O3	O	1.493488	0.001481	-0.121693
O4	O	1.473956	0.263836	-0.121686
O5	O	1.493475	0.001477	0.121906
O6	O	1.300907	0.138686	0.121897
O7	O	1.666511	0.126622	0.121922
Cu8	Cu	1.483708	0.132654	0.144152
Cu9	Cu	1.483723	0.132658	-0.143932
O10	O	1.473943	0.263832	0.121913
C11	C	1.254125	0.137802	0.000094
C12	C	1.114709	0.135152	0.000084
C13	C	1.034384	0.215939	0.000090
C14	C	0.903389	0.213443	0.000115
C15	C	0.933057	0.049367	0.000122
C16	C	1.064049	0.051864	0.000107
C17	C	1.492596	-0.032115	0.000102
C18	C	1.489944	-0.132213	0.000089
C19	C	1.364344	-0.545419	0.000108
C20	C	1.593119	-0.565475	0.000124
C21	C	1.595613	-0.471428	0.000116
C22	C	1.482470	-0.414372	0.000106
C23	C	1.366834	-0.451363	0.000104
C24	C	1.711247	-0.434430	0.000132
C25	C	1.713745	-0.340378	0.000125
C26	C	1.600601	-0.283320	0.000105
C27	C	1.484961	-0.320316	0.000102
C28	C	1.371818	-0.263260	0.000092
C29	C	1.256176	-0.300254	0.000078
C30	C	1.253691	-0.394305	0.000084
C31	C	1.603087	-0.189269	0.000099
C32	C	1.374308	-0.169204	0.000088
C33	C	1.713306	0.127510	0.000123
C34	C	1.852722	0.130160	0.000124
C35	C	1.474835	0.297427	0.000115
C36	C	1.477487	0.397525	0.000118
N37	N	1.483706	0.132650	0.346775
N38	N	1.483735	0.132655	-0.346554
C39	C	1.569003	0.071919	0.423431
C40	C	1.569015	0.071919	0.576767
C41	C	1.398428	0.193389	0.576779
C42	C	1.398411	0.193383	0.423445
H43	H	0.891793	-0.018444	0.000150
C44	C	1.228575	-0.040513	-0.125133
C45	C	1.152357	-0.036943	0.000096
H46	H	1.283096	-0.095333	-0.125128
H47	H	1.176851	-0.038084	-0.210060
H48	H	1.277484	0.009452	-0.125123
H49	H	1.103440	-0.086905	0.000081
H50	H	1.204086	-0.039381	0.085046
C51	C	0.991897	0.377869	0.000104
C52	C	1.090071	0.307488	0.000084
H53	H	1.026276	0.434388	0.000113
H54	H	0.941419	0.373485	-0.084834
H55	H	0.941428	0.373472	0.085064
H56	H	1.140535	0.311881	-0.084881
H57	H	1.140570	0.311874	0.085031
C58	C	1.737641	-0.048138	0.561344
C59	C	1.662783	0.005166	0.661027
H60	H	1.795535	-0.089346	0.613365
H61	H	1.685313	-0.080919	0.501552
H62	H	1.782860	-0.010295	0.501526
H63	H	1.617557	-0.032676	0.720839
H64	H	1.715118	0.037950	0.720844
H65	H	1.270191	-0.575544	0.000091
H66	H	0.837993	0.279228	0.000124
C67	C	1.939634	-0.369660	0.000131
C68	C	1.840854	-0.299717	0.000123
H69	H	2.018105	-0.344555	0.000117
H70	H	1.933903	-0.405918	0.085080
H71	H	1.933895	-0.405932	-0.084817
H72	H	1.846588	-0.263449	0.085077
H73	H	1.846588	-0.263444	-0.084835
C74	C	1.738609	-0.095136	-0.125112
C75	C	1.730183	-0.148598	0.000115
H76	H	1.817074	-0.070025	-0.125097
H77	H	1.732901	-0.131415	-0.210041
H78	H	1.671573	-0.047701	-0.125111
H79	H	1.797213	-0.196037	0.000108
H80	H	1.735903	-0.112317	0.085065
H81	H	1.159541	-0.424435	0.000074
C82	C	1.180081	-0.123153	-0.125156
C83	C	1.249934	-0.106492	0.000075
H84	H	1.103295	-0.084441	-0.125156
H85	H	1.227495	-0.111854	-0.210081
H86	H	1.162061	-0.184464	-0.125144
H87	H	1.267962	-0.045182	0.000058
H88	H	1.202510	-0.117785	0.085023
C89	C	1.723036	-0.682882	-0.125083
C90	C	1.717481	-0.628189	0.000136
H91	H	1.799819	-0.721597	-0.125078
H92	H	1.653820	-0.718369	-0.125069
H93	H	1.719257	-0.645768	-0.210026
H94	H	1.721250	-0.665302	0.085080
H95	H	1.786715	-0.592698	0.000136
H96	H	1.803361	-0.480891	0.000154
H97	H	1.328985	0.242838	0.639219
H98	H	1.164056	-0.253787	0.000080
H99	H	1.638454	0.022465	0.361009
H100	H	1.328946	0.242838	0.361028
