data_functionalizedCrystal
_audit_creation_method	'MofGen! by Chris Wilmer'
_symmetry_space_group_name_H-M	'P1'
_symmetry_Int_Tables_number	1
_symmetry_cell_setting	triclinic
loop_
_symmetry_equiv_pos_as_xyz
  x,y,z
_cell_length_a	10.489741
_cell_length_b	10.654543
_cell_length_c	9.730223
_cell_angle_alpha	89.998625
_cell_angle_beta	89.995878
_cell_angle_gamma	95.489326
loop_
_atom_site_label
_atom_site_type_symbol
_atom_site_fract_x
_atom_site_fract_y
_atom_site_fract_z
O1	O	0.179121	-1.667928	-0.114141
O2	O	0.196199	-1.302456	-0.114176
O3	O	0.002058	-1.493508	-0.114150
O4	O	0.373262	-1.476876	-0.114168
O5	O	0.002053	-1.493496	0.114430
O6	O	0.196194	-1.302444	0.114404
O7	O	0.179116	-1.667915	0.114439
Zn8	Zn	0.187654	-1.485178	0.150713
Zn9	Zn	0.187661	-1.485194	-0.150451
O10	O	0.373257	-1.476864	0.114412
C11	C	0.194944	-1.255651	0.000109
C12	C	0.191198	-1.116206	0.000096
C13	C	0.305505	-1.036774	0.000092
C14	C	0.301977	-0.905751	0.000113
C15	C	0.069826	-0.933605	0.000135
C16	C	0.073355	-1.064626	0.000124
C17	C	-0.045476	-1.492246	0.000139
C18	C	-0.187103	-1.488488	0.000136
C19	C	-0.255182	-1.366927	0.000115
C20	C	-0.347336	-1.424345	0.112822
C21	C	-0.347305	-1.424386	-0.112540
C22	C	-0.277392	-1.545956	0.112937
C23	C	-0.277352	-1.545980	-0.112526
C24	C	-0.369479	-1.603486	0.000208
C25	C	0.420791	-1.478126	0.000120
C26	C	0.562418	-1.481884	0.000114
C27	C	0.180377	-0.714720	0.000143
C28	C	0.184141	-0.854163	0.000127
N29	N	0.187648	-1.485176	0.356250
N30	N	0.187656	-1.485206	-0.355987
C31	C	0.101719	-1.569803	0.428187
C32	C	0.101720	-1.569815	0.572070
C33	C	0.273590	-1.400570	0.572065
C34	C	0.273582	-1.400552	0.428185
H35	H	-0.026118	-0.891592	0.000166
H36	H	0.343556	-1.331633	0.369609
O37	O	-0.037809	-1.141615	0.000065
C38	C	-0.142577	-1.067997	0.000115
H39	H	-0.111071	-0.970514	-0.043158
H40	H	-0.222737	-1.115594	-0.066242
H41	H	-0.178640	-1.058355	0.109781
O42	O	-0.384229	-1.362782	0.226384
C43	C	-0.325462	-1.238106	0.225994
H44	H	-0.298005	-1.209213	0.116317
H45	H	-0.395058	-1.171958	0.268560
H46	H	-0.235806	-1.232329	0.292789
O47	O	-0.195827	-1.247717	-0.000018
C48	C	-0.119553	-1.229342	-0.118965
H49	H	-0.157148	-1.299014	-0.201755
H50	H	-0.123543	-1.128950	-0.158128
H51	H	-0.016294	-1.245200	-0.093200
O52	O	0.413050	-0.828644	-0.000140
C53	C	0.484533	-0.852199	-0.118520
H54	H	0.417581	-0.896352	-0.201259
H55	H	0.534865	-0.759715	-0.158254
H56	H	0.558954	-0.919574	-0.091775
H57	H	0.031747	-1.638724	0.630638
H58	H	0.343557	-1.331673	0.630649
O59	O	-0.240518	-1.607378	0.226601
C60	C	-0.178792	-1.713388	0.186398
H61	H	-0.139807	-1.698638	0.077633
H62	H	-0.096442	-1.726235	0.259934
H63	H	-0.250209	-1.801011	0.189118
H64	H	-0.378241	-1.372941	-0.207834
H65	H	-0.418954	-1.703522	0.000281
O66	O	0.419941	-1.086939	-0.000169
C67	C	0.428920	-1.161904	-0.118544
H68	H	0.361987	-1.130318	-0.201279
H69	H	0.531621	-1.151064	-0.158288
H70	H	0.400416	-1.264947	-0.091787
O71	O	-0.240369	-1.607113	-0.226332
C72	C	-0.275636	-1.542723	-0.344937
H73	H	-0.286808	-1.440236	-0.317945
H74	H	-0.198269	-1.546492	-0.426719
H75	H	-0.370345	-1.589373	-0.386054
H76	H	0.031745	-1.638706	0.369621
