data_functionalizedCrystal
_audit_creation_method	'MofGen! by Chris Wilmer'
_symmetry_space_group_name_H-M	'P1'
_symmetry_Int_Tables_number	1
_symmetry_cell_setting	triclinic
loop_
_symmetry_equiv_pos_as_xyz
  x,y,z
_cell_length_a	12.759399
_cell_length_b	13.033304
_cell_length_c	13.032268
_cell_angle_alpha	90.922231
_cell_angle_beta	97.151438
_cell_angle_gamma	82.815683
loop_
_atom_site_label
_atom_site_type_symbol
_atom_site_fract_x
_atom_site_fract_y
_atom_site_fract_z
Zn1	Zn	-0.326903	-1.498467	-0.781541
Zn2	Zn	-0.477885	-1.520215	-0.609576
Zn3	Zn	-0.321351	-1.348328	-0.587712
Zn4	Zn	-0.521677	-1.326467	-0.759613
O5	O	-0.411954	-1.423369	-0.684611
O6	O	-0.330927	-1.645270	-0.777056
O7	O	-0.436470	-1.515663	-0.462767
O8	O	-0.175064	-1.368291	-0.613450
O9	O	-0.441853	-1.661248	-0.650715
O10	O	-0.179143	-1.478598	-0.755856
O11	O	-0.321465	-1.389379	-0.446703
O12	O	-0.363929	-1.201510	-0.592188
O13	O	-0.516491	-1.331034	-0.906431
O14	O	-0.511107	-1.185450	-0.718483
O15	O	-0.373391	-1.457401	-0.922541
O16	O	-0.630718	-1.494466	-0.629452
O17	O	-0.662892	-1.352121	-0.739684
C18	C	-0.441668	-1.156164	-0.650584
C19	C	-0.454409	-1.041849	-0.636052
C20	C	-0.405318	-0.982966	-0.692181
C21	C	-0.418485	-0.864815	-0.677163
C22	C	-0.684927	-1.423307	-0.684587
C23	C	-0.801700	-1.423370	-0.684624
C24	C	-0.964230	-1.366096	-0.610476
C25	C	-0.854511	-1.366030	-0.610449
C26	C	-0.858615	-1.480770	-0.758836
C27	C	-0.968334	-1.480829	-0.758867
C28	C	-1.017033	-1.308762	-0.536291
C29	C	-0.960126	-1.251359	-0.462079
C30	C	-0.850407	-1.251294	-0.462052
C31	C	-0.797595	-1.308630	-0.536237
C32	C	-0.137916	-1.423457	-0.684660
C33	C	-0.021137	-1.423495	-0.684681
C34	C	-0.450445	-1.389353	-0.952843
C35	C	-0.466848	-1.374857	-1.067148
C36	C	-0.382118	-0.691619	-0.718764
C37	C	-0.369388	-0.805934	-0.733300
C38	C	-0.403358	-1.430919	-1.126080
C39	C	-0.420309	-1.415938	-1.244220
C40	C	-0.373531	-1.457312	-0.417429
C41	C	-0.356810	-1.472007	-0.303150
H42	H	-0.506183	-1.004791	-0.576877
C43	C	-0.580458	-1.386384	-1.363299
C44	C	-0.510644	-1.336169	-1.294161
H45	H	-0.636229	-1.337139	-1.394124
H46	H	-0.542821	-1.419601	-1.415576
H47	H	-0.609683	-1.436457	-1.327078
H48	H	-0.481412	-1.286101	-1.330383
H49	H	-0.548286	-1.302935	-1.241876
C50	C	-0.828973	-1.083539	-0.389624
C51	C	-0.787855	-1.188195	-0.380483
H52	H	-0.790359	-1.044589	-0.339258
H53	H	-0.822568	-1.059664	-0.456770
H54	H	-0.901874	-1.075387	-0.379027
H55	H	-0.714955	-1.196348	-0.391088
H56	H	-0.794250	-1.212078	-0.313322
H57	H	-0.336449	-1.490002	-1.089070
H58	H	-1.014672	-1.527555	-0.819301
H59	H	-1.106371	-1.308811	-0.536302
C60	C	-0.626992	-1.345308	-1.186231
C61	C	-0.557178	-1.295092	-1.117093
H62	H	-0.682763	-1.296063	-1.217056
H63	H	-0.589356	-1.378524	-1.238509
H64	H	-0.656218	-1.395380	-1.150010
H65	H	-0.527946	-1.245025	-1.153316
H66	H	-0.594820	-1.261859	-1.064809
C67	C	-0.692242	-1.531633	-0.824666
C68	C	-0.800564	-1.543802	-0.840368
H69	H	-0.656406	-1.570555	-0.874996
H70	H	-0.684163	-1.460617	-0.830859
H71	H	-0.662692	-1.555491	-0.757496
H72	H	-0.830116	-1.519936	-0.907535
H73	H	-0.808650	-1.614832	-0.834183
H74	H	-0.353538	-1.020024	-0.751350
H75	H	-0.470263	-0.827761	-0.617984
H76	H	-0.289894	-1.531093	-1.266146
C77	C	-0.655150	-1.207358	-0.549878
C78	C	-0.676991	-1.308551	-0.536214
H79	H	-0.580694	-1.207313	-0.549857
H80	H	-0.691470	-1.181134	-0.613956
H81	H	-0.678458	-1.165004	-0.495075
H82	H	-0.653690	-1.350904	-0.591022
H83	H	-0.640657	-1.334789	-0.472128
H84	H	-0.317602	-0.842986	-0.792472
H85	H	-1.003134	-1.204671	-0.401686
